2:0:0
     RDKit          3D

 91101  0  0  1  0  0  0  0  0999 V2000
    8.9190   -1.9230    0.3918 C   0  0  0  0  0  0  0  0  0  0  0  0
    7.6577   -1.4814    0.8518 O   0  0  0  0  0  0  0  0  0  0  0  0
    6.5775   -2.2362    0.4303 C   0  0  2  0  0  0  0  0  0  0  0  0
    6.2652   -1.8437   -0.8757 O   0  0  0  0  0  0  0  0  0  0  0  0
    5.6083   -2.8109   -1.6960 C   0  0  1  0  0  0  0  0  0  0  0  0
    5.2484   -4.0578   -1.0414 O   0  0  0  0  0  0  0  0  0  0  0  0
    3.8706   -3.6190   -0.9352 C   0  0  1  0  0  0  0  0  0  0  0  0
    3.4035   -3.4864    0.5099 C   0  0  0  0  0  0  0  0  0  0  0  0
    4.4743   -3.2019    1.6064 C   0  0  1  0  0  0  0  0  0  0  0  0
    5.1838   -4.3913    2.0243 O   0  0  0  0  0  0  0  0  0  0  0  0
    4.6167   -4.9783    3.2188 C   0  0  1  0  0  0  0  0  0  0  0  0
    4.7182   -4.2130    4.4909 C   0  0  2  0  0  0  0  0  0  0  0  0
    5.6826   -5.2581    5.0520 C   0  0  0  0  0  0  0  0  0  0  0  0
    5.4570   -6.0894    3.8240 C   0  0  1  0  0  0  0  0  0  0  0  0
    4.0603   -6.3725    3.2825 C   0  0  2  0  0  0  0  0  0  0  0  0
    4.0779   -7.0719    2.0532 O   0  0  0  0  0  0  0  0  0  0  0  0
    2.8278   -6.5675    4.1578 C   0  0  1  0  0  0  0  0  0  0  0  0
    2.7393   -8.0089    4.7089 C   0  0  0  0  0  0  0  0  0  0  0  0
    2.7281   -5.5495    5.3591 C   0  0  0  0  0  0  0  0  0  0  0  0
    3.2858   -4.1203    5.0687 C   0  0  2  0  0  0  0  0  0  0  0  0
    2.2570   -3.5665    4.1734 O   0  0  0  0  0  0  0  0  0  0  0  0
    1.8854   -2.1831    4.3452 C   0  0  1  0  0  0  0  0  0  0  0  0
    1.1316   -1.6924    3.2500 O   0  0  0  0  0  0  0  0  0  0  0  0
    0.7089   -0.3301    3.2953 C   0  0  2  0  0  0  0  0  0  0  0  0
   -0.5318   -0.1192    3.9452 O   0  0  0  0  0  0  0  0  0  0  0  0
   -0.9014    1.2669    4.1327 C   0  0  1  0  0  0  0  0  0  0  0  0
    0.0846    1.9947    5.1165 C   0  0  0  0  0  0  0  0  0  0  0  0
   -0.0004    1.5210    6.4539 O   0  0  0  0  0  0  0  0  0  0  0  0
   -1.0214    1.9330    2.7441 C   0  0  1  0  0  0  0  0  0  0  0  0
   -1.3954    3.3080    2.8160 O   0  0  0  0  0  0  0  0  0  0  0  0
    0.2530    1.7690    1.9057 C   0  0  1  0  0  0  0  0  0  0  0  0
    1.2956    2.5726    2.4402 O   0  0  0  0  0  0  0  0  0  0  0  0
    0.6316    0.2772    1.8863 C   0  0  1  0  0  0  0  0  0  0  0  0
    1.8498    0.0827    1.2233 O   0  0  0  0  0  0  0  0  0  0  0  0
    1.0936   -2.0496    5.7016 C   0  0  0  0  0  0  0  0  0  0  0  0
    1.8654   -2.8673    6.7257 C   0  0  2  0  0  0  0  0  0  0  0  0
    2.4078   -2.3774    7.9623 O   0  0  0  0  0  0  0  0  0  0  0  0
    3.5951   -3.1767    7.6967 C   0  0  0  0  0  0  0  0  0  0  0  0
    3.2725   -3.1103    6.2185 C   0  0  1  0  0  0  0  0  0  0  0  0
    3.8476   -1.9043    5.6821 O   0  0  0  0  0  0  0  0  0  0  0  0
    3.2130   -1.4764    4.5222 C   0  0  0  0  0  0  0  0  0  0  0  0
    3.8655   -0.8028    3.5449 C   0  0  0  0  0  0  0  0  0  0  0  0
    5.2936   -0.6154    3.5362 C   0  0  0  0  0  0  0  0  0  0  0  0
    5.9005    0.1355    4.3430 O   0  0  0  0  0  0  0  0  0  0  0  0
    5.9439   -1.3405    2.5965 O   0  0  0  0  0  0  0  0  0  0  0  0
    5.3814   -1.9321    1.3942 C   0  0  1  0  0  0  0  0  0  0  0  0
    4.1499   -2.4231   -1.8177 C   0  0  1  0  0  0  0  0  0  0  0  0
    3.5686   -1.0511   -1.6733 C   0  0  0  0  0  0  0  0  0  0  0  0
    3.0731   -1.0773   -3.0492 O   0  0  0  0  0  0  0  0  0  0  0  0
    3.5458   -2.3481   -3.2275 C   0  0  0  0  0  0  0  0  0  0  0  0
    3.4947   -3.0817   -4.2220 O   0  0  0  0  0  0  0  0  0  0  0  0
    9.6895   -1.2773    0.8081 H   0  0  0  0  0  0  0  0  0  0  0  0
    8.9849   -1.8895   -0.6956 H   0  0  0  0  0  0  0  0  0  0  0  0
    9.1280   -2.9360    0.7359 H   0  0  0  0  0  0  0  0  0  0  0  0
    6.8668   -3.2812    0.5075 H   0  0  0  0  0  0  0  0  0  0  0  0
    6.0850   -2.9678   -2.6633 H   0  0  0  0  0  0  0  0  0  0  0  0
    3.1893   -4.2425   -1.5126 H   0  0  0  0  0  0  0  0  0  0  0  0
    2.6604   -2.6872    0.5479 H   0  0  0  0  0  0  0  0  0  0  0  0
    2.8273   -4.3675    0.7871 H   0  0  0  0  0  0  0  0  0  0  0  0
    3.7971   -2.9660    2.4096 H   0  0  0  0  0  0  0  0  0  0  0  0
    5.2609   -3.2970    4.3248 H   0  0  0  0  0  0  0  0  0  0  0  0
    6.7003   -4.9027    5.1603 H   0  0  0  0  0  0  0  0  0  0  0  0
    5.3374   -5.7270    5.9666 H   0  0  0  0  0  0  0  0  0  0  0  0
    6.3211   -6.4110    3.2612 H   0  0  0  0  0  0  0  0  0  0  0  0
    4.1174   -8.0028    2.2316 H   0  0  0  0  0  0  0  0  0  0  0  0
    1.9706   -6.4014    3.5100 H   0  0  0  0  0  0  0  0  0  0  0  0
    3.5737   -8.2069    5.3799 H   0  0  0  0  0  0  0  0  0  0  0  0
    2.7672   -8.7468    3.9093 H   0  0  0  0  0  0  0  0  0  0  0  0
    1.8082   -8.1402    5.2763 H   0  0  0  0  0  0  0  0  0  0  0  0
    1.6645   -5.4655    5.5884 H   0  0  0  0  0  0  0  0  0  0  0  0
    3.2054   -5.9503    6.2415 H   0  0  0  0  0  0  0  0  0  0  0  0
    1.4562    0.2198    3.8640 H   0  0  0  0  0  0  0  0  0  0  0  0
   -1.8992    1.2569    4.5756 H   0  0  0  0  0  0  0  0  0  0  0  0
    1.1250    1.9599    4.8015 H   0  0  0  0  0  0  0  0  0  0  0  0
   -0.1722    3.0530    5.1637 H   0  0  0  0  0  0  0  0  0  0  0  0
    0.7423    1.8842    6.9566 H   0  0  0  0  0  0  0  0  0  0  0  0
   -1.7951    1.4149    2.2043 H   0  0  0  0  0  0  0  0  0  0  0  0
   -1.0680    3.7701    2.0249 H   0  0  0  0  0  0  0  0  0  0  0  0
    0.0371    2.0660    0.8744 H   0  0  0  0  0  0  0  0  0  0  0  0
    1.1116    3.4844    2.1571 H   0  0  0  0  0  0  0  0  0  0  0  0
   -0.1465   -0.2350    1.3376 H   0  0  0  0  0  0  0  0  0  0  0  0
    1.6137   -0.1831    0.3017 H   0  0  0  0  0  0  0  0  0  0  0  0
    1.0396   -0.9976    6.0007 H   0  0  0  0  0  0  0  0  0  0  0  0
    0.0753   -2.4207    5.5649 H   0  0  0  0  0  0  0  0  0  0  0  0
    1.3418   -3.8202    6.9156 H   0  0  0  0  0  0  0  0  0  0  0  0
    4.5390   -2.6552    7.9186 H   0  0  0  0  0  0  0  0  0  0  0  0
    3.5578   -4.2008    8.1052 H   0  0  0  0  0  0  0  0  0  0  0  0
    3.3749   -0.7369    2.6280 H   0  0  0  0  0  0  0  0  0  0  0  0
    4.7869   -1.1581    0.9227 H   0  0  0  0  0  0  0  0  0  0  0  0
    2.7672   -1.0318   -0.9309 H   0  0  0  0  0  0  0  0  0  0  0  0
    4.3168   -0.2693   -1.4854 H   0  0  0  0  0  0  0  0  0  0  0  0
  1  2  1  0
  1 52  1  0
  1 53  1  0
  1 54  1  0
  2  3  1  0
  3 46  1  0
  3  4  1  0
  3 55  1  6
  4  5  1  0
  5 47  1  0
  5  6  1  0
  5 56  1  6
  6  7  1  0
  7  8  1  0
  7 47  1  0
  7 57  1  6
  8  9  1  0
  8 58  1  0
  8 59  1  0
  9 46  1  0
  9 10  1  0
  9 60  1  1
 11 10  1  6
 11 14  1  0
 11 15  1  0
 11 12  1  0
 12 20  1  0
 12 13  1  0
 12 61  1  6
 13 14  1  0
 13 62  1  0
 13 63  1  0
 14 15  1  0
 14 64  1  6
 15 16  1  6
 15 17  1  0
 16 65  1  0
 17 18  1  0
 17 19  1  0
 17 66  1  6
 18 67  1  0
 18 68  1  0
 18 69  1  0
 20 19  1  1
 19 70  1  0
 19 71  1  0
 20 39  1  0
 20 21  1  0
 21 22  1  0
 22 41  1  0
 22 23  1  6
 22 35  1  0
 23 24  1  0
 24 33  1  0
 24 25  1  0
 24 72  1  1
 25 26  1  0
 26 27  1  0
 26 29  1  0
 26 73  1  1
 27 28  1  0
 27 74  1  0
 27 75  1  0
 28 76  1  0
 29 30  1  0
 29 31  1  0
 29 77  1  6
 30 78  1  0
 31 32  1  0
 31 33  1  0
 31 79  1  6
 32 80  1  0
 33 34  1  0
 33 81  1  6
 34 82  1  0
 35 36  1  0
 35 83  1  0
 35 84  1  0
 36 39  1  0
 36 37  1  0
 36 85  1  1
 37 38  1  0
 39 38  1  1
 38 86  1  0
 38 87  1  0
 39 40  1  0
 40 41  1  0
 41 42  2  3
 42 43  1  0
 42 88  1  0
 43 44  2  0
 43 45  1  0
 45 46  1  0
 46 89  1  6
 47 50  1  0
 47 48  1  1
 48 49  1  0
 48 90  1  0
 48 91  1  0
 49 50  1  0
 50 51  2  0
M  END
>  <i_m_ct_stereo_status>  (1) 
1

>  <s_m_source_file>  (1) 
/var/tmp/pbs.5076253.sched01/tmpeppn20qa/07bjoayft.sdf

>  <i_m_source_file_index>  (1) 
3

>  <i_lp_mmshare_version>  (1) 
48012

>  <i_f3d_flags>  (1) 
0

>  <s_epik_input>  (1) 
W0NIM11PW0NAQEhdMU9bQ0BASF0oTzIpW0NAXTMoW0NIMl1PQzM9TylbQ0BASF0yW0NIMl1bQ0BASF0oTzQpW0NASF0xT0MoPU8pXFtDSF09QyhPNSlcW0NAXShPNikoT1tDQEBIXTdPW0NAQEhdKFtDSDJdW09IXSlbQ0BASF0oW09IXSlbQ0BASF0oW09IXSlbQ0BIXTdbT0hdKVtDSDJdW0NASF0oT1tDSDJdOClbQ0BAXTU4W0NAQF02KFtDQEBIXTlDMTI0KVtDSDJdW0NASF0oW0NIM10pW0NAXTIoW09IXSlbQ0BASF0xW0NIMl05

>  <s_epik_cmdline>  (1) 
J2VwaWtfcHl0aG9uJywgJy1waHQnLCAnMi4wJywgJy1waCcsICc3LjAnLCAnLXRuJywgJzgnLCAnLW1hJywgJzIwMCcsICctaW1hZScsICc8aW5maWxlLm1hZT4nLCAnLW9tYWUnLCAnPG91dGZpbGUubWFlPic=

>  <r_lp_tautomer_probability>  (1) 
1

>  <r_epik_Ionization_Penalty>  (1) 
8.10142e-06

>  <r_epik_Ionization_Penalty_Charging>  (1) 
0

>  <r_epik_Ionization_Penalty_Neutral>  (1) 
8.10142e-06

>  <r_epik_State_Penalty>  (1) 
-0

>  <r_epik_Charging_Adjusted_Penalty>  (1) 
0

>  <i_epik_Tot_Q>  (1) 
0

>  <i_epik_Tot_abs_Q>  (1) 
0

>  <s_epik_Chemistry_Notes>  (1) 
This compound has an ester and may undergo hydrolysis at high or low pH. This compound contains an acetal/aminal-like group ( X-CH(R)-Y where X, Y are N, S, or O) that may be acid/base labile, releasing an aldehyde.

>  <s_lp_Force_Field>  (1) 
OPLS3e

>  <r_lp_Energy>  (1) 
116.343

>  <b_lp_Chiralities_Consistent>  (1) 
1

>  <s_lp_Variant>  (1) 
2:0-1

>  <s_i_glide_gridfile>  (1) 
pfpi4k_grid

>  <i_i_glide_lignum>  (1) 
3

>  <i_i_glide_rotatable_bonds>  (1) 
9

>  <r_i_docking_score>  (1) 
-4.57843

>  <r_i_glide_ligand_efficiency>  (1) 
-0.0897732

>  <r_i_glide_ligand_efficiency_sa>  (1) 
-0.332918

>  <r_i_glide_ligand_efficiency_ln>  (1) 
-0.928345

>  <r_i_glide_gscore>  (1) 
-4.57843

>  <r_i_glide_lipo>  (1) 
-0.124032

>  <r_i_glide_hbond>  (1) 
-0.272786

>  <r_i_glide_metal>  (1) 
-0

>  <r_i_glide_rewards>  (1) 
-0.474801

>  <r_i_glide_evdw>  (1) 
-32.4081

>  <r_i_glide_ecoul>  (1) 
-14.6113

>  <r_i_glide_erotb>  (1) 
0.122992

>  <r_i_glide_esite>  (1) 
-0.0177064

>  <r_i_glide_emodel>  (1) 
-56.7984

>  <r_i_glide_energy>  (1) 
-47.0194

>  <r_i_glide_einternal>  (1) 
7.59219

>  <r_i_glide_intrahb_reward>  (1) 
-0

>  <i_i_glide_confnum>  (1) 
3

>  <i_i_glide_posenum>  (1) 
36

>  <r_i_glide_eff_state_penalty>  (1) 
0

>  <ligand_id>  (1) 
2

>  <original_smiles>  (1) 
COC1OC2OC(CC3OC45C6CC4C5(O)C(C)CC64OC5(OC6OC(CO)C(O)C(O)C6O)CC6OCC64OC5=CC(=O)OC31)C21COC1=O

>  <smiles>  (1) 
[H]OC([H])([H])C1([H])OC([H])(OC23OC45C([H])([H])C([H])(C([H])([H])[H])C6(O[H])C7([H])C([H])([H])C4([H])C76OC4([H])C([H])([H])C6([H])OC([H])(OC([H])(OC([H])([H])[H])C4([H])OC(=O)C([H])=C2OC52C([H])([H])OC2([H])C3([H])[H])C62C(=O)OC2([H])[H])C([H])(O[H])C([H])(O[H])C1([H])O[H]

$$$$
2:0:1
     RDKit          3D

 91101  0  0  1  0  0  0  0  0999 V2000
    8.9189   -1.9080    0.3887 C   0  0  0  0  0  0  0  0  0  0  0  0
    7.6568   -1.4557    0.8331 O   0  0  0  0  0  0  0  0  0  0  0  0
    6.5823   -2.2222    0.4107 C   0  0  2  0  0  0  0  0  0  0  0  0
    6.2867   -1.8485   -0.8988 O   0  0  0  0  0  0  0  0  0  0  0  0
    5.6286   -2.8089   -1.7150 C   0  0  1  0  0  0  0  0  0  0  0  0
    5.2692   -4.0620   -1.0752 O   0  0  0  0  0  0  0  0  0  0  0  0
    3.8767   -3.6171   -0.9806 C   0  0  1  0  0  0  0  0  0  0  0  0
    3.4004   -3.4801    0.4647 C   0  0  0  0  0  0  0  0  0  0  0  0
    4.4546   -3.1983    1.5668 C   0  0  1  0  0  0  0  0  0  0  0  0
    5.1622   -4.3823    1.9595 O   0  0  0  0  0  0  0  0  0  0  0  0
    4.6370   -4.9758    3.1644 C   0  0  1  0  0  0  0  0  0  0  0  0
    4.6960   -4.2177    4.4539 C   0  0  2  0  0  0  0  0  0  0  0  0
    5.6478   -5.2555    5.0316 C   0  0  0  0  0  0  0  0  0  0  0  0
    5.4490   -6.0892    3.7854 C   0  0  1  0  0  0  0  0  0  0  0  0
    4.0664   -6.3529    3.2266 C   0  0  2  0  0  0  0  0  0  0  0  0
    4.0640   -7.0785    2.0095 O   0  0  0  0  0  0  0  0  0  0  0  0
    2.8296   -6.5698    4.1217 C   0  0  1  0  0  0  0  0  0  0  0  0
    2.7178   -8.0112    4.6652 C   0  0  0  0  0  0  0  0  0  0  0  0
    2.6843   -5.5428    5.3036 C   0  0  0  0  0  0  0  0  0  0  0  0
    3.2535   -4.1260    5.0249 C   0  0  2  0  0  0  0  0  0  0  0  0
    2.2350   -3.5709    4.0982 O   0  0  0  0  0  0  0  0  0  0  0  0
    1.8298   -2.2001    4.2831 C   0  0  1  0  0  0  0  0  0  0  0  0
    1.0728   -1.7024    3.2087 O   0  0  0  0  0  0  0  0  0  0  0  0
    0.5961   -0.3576    3.3075 C   0  0  2  0  0  0  0  0  0  0  0  0
   -0.6409   -0.2513    3.9793 O   0  0  0  0  0  0  0  0  0  0  0  0
   -1.1109    1.0939    4.1822 C   0  0  1  0  0  0  0  0  0  0  0  0
   -0.1893    1.8448    5.1756 C   0  0  0  0  0  0  0  0  0  0  0  0
   -0.2180    1.2341    6.4563 O   0  0  0  0  0  0  0  0  0  0  0  0
   -1.2934    1.7755    2.8165 C   0  0  1  0  0  0  0  0  0  0  0  0
   -1.8327    3.0869    2.9485 O   0  0  0  0  0  0  0  0  0  0  0  0
   -0.0146    1.7337    1.9745 C   0  0  1  0  0  0  0  0  0  0  0  0
    0.9719    2.5771    2.5329 O   0  0  0  0  0  0  0  0  0  0  0  0
    0.4914    0.2814    1.9139 C   0  0  1  0  0  0  0  0  0  0  0  0
    1.7452    0.1872    1.2764 O   0  0  0  0  0  0  0  0  0  0  0  0
    1.0557   -2.0677    5.6366 C   0  0  0  0  0  0  0  0  0  0  0  0
    1.8239   -2.8888    6.6647 C   0  0  2  0  0  0  0  0  0  0  0  0
    2.3555   -2.3830    7.9173 O   0  0  0  0  0  0  0  0  0  0  0  0
    3.5700   -3.1798    7.6363 C   0  0  0  0  0  0  0  0  0  0  0  0
    3.2486   -3.0995    6.1609 C   0  0  1  0  0  0  0  0  0  0  0  0
    3.7908   -1.8832    5.6155 O   0  0  0  0  0  0  0  0  0  0  0  0
    3.1608   -1.4732    4.4654 C   0  0  0  0  0  0  0  0  0  0  0  0
    3.7989   -0.7877    3.4948 C   0  0  0  0  0  0  0  0  0  0  0  0
    5.2530   -0.5934    3.5045 C   0  0  0  0  0  0  0  0  0  0  0  0
    5.8153    0.1376    4.2862 O   0  0  0  0  0  0  0  0  0  0  0  0
    5.8997   -1.3444    2.5723 O   0  0  0  0  0  0  0  0  0  0  0  0
    5.3718   -1.9325    1.3594 C   0  0  1  0  0  0  0  0  0  0  0  0
    4.1561   -2.4297   -1.8621 C   0  0  1  0  0  0  0  0  0  0  0  0
    3.5752   -1.0452   -1.7016 C   0  0  0  0  0  0  0  0  0  0  0  0
    3.0890   -1.0715   -3.0827 O   0  0  0  0  0  0  0  0  0  0  0  0
    3.5631   -2.3401   -3.2735 C   0  0  0  0  0  0  0  0  0  0  0  0
    3.4971   -3.0679   -4.2634 O   0  0  0  0  0  0  0  0  0  0  0  0
    9.6894   -1.2647    0.8044 H   0  0  0  0  0  0  0  0  0  0  0  0
    8.9897   -1.8756   -0.6950 H   0  0  0  0  0  0  0  0  0  0  0  0
    9.1284   -2.9208    0.7254 H   0  0  0  0  0  0  0  0  0  0  0  0
    6.8687   -3.2658    0.4956 H   0  0  0  0  0  0  0  0  0  0  0  0
    6.1211   -2.9570   -2.6794 H   0  0  0  0  0  0  0  0  0  0  0  0
    3.2006   -4.2649   -1.5208 H   0  0  0  0  0  0  0  0  0  0  0  0
    2.6588   -2.6857    0.4958 H   0  0  0  0  0  0  0  0  0  0  0  0
    2.8277   -4.3672    0.7356 H   0  0  0  0  0  0  0  0  0  0  0  0
    3.7814   -2.9586    2.3705 H   0  0  0  0  0  0  0  0  0  0  0  0
    5.2186   -3.2835    4.3007 H   0  0  0  0  0  0  0  0  0  0  0  0
    6.6648   -4.8985    5.1463 H   0  0  0  0  0  0  0  0  0  0  0  0
    5.3046   -5.7280    5.9426 H   0  0  0  0  0  0  0  0  0  0  0  0
    6.3191   -6.4460    3.2483 H   0  0  0  0  0  0  0  0  0  0  0  0
    4.1107   -8.0054    2.1939 H   0  0  0  0  0  0  0  0  0  0  0  0
    1.9732   -6.4060    3.4619 H   0  0  0  0  0  0  0  0  0  0  0  0
    3.5468   -8.2124    5.3376 H   0  0  0  0  0  0  0  0  0  0  0  0
    2.7534   -8.7484    3.8613 H   0  0  0  0  0  0  0  0  0  0  0  0
    1.7845   -8.1439    5.2196 H   0  0  0  0  0  0  0  0  0  0  0  0
    1.6276   -5.4774    5.5395 H   0  0  0  0  0  0  0  0  0  0  0  0
    3.1690   -5.9409    6.1868 H   0  0  0  0  0  0  0  0  0  0  0  0
    1.3353    0.2080    3.8771 H   0  0  0  0  0  0  0  0  0  0  0  0
   -2.0875    0.9996    4.6366 H   0  0  0  0  0  0  0  0  0  0  0  0
    0.8551    1.9049    4.8417 H   0  0  0  0  0  0  0  0  0  0  0  0
   -0.5184    2.8785    5.3070 H   0  0  0  0  0  0  0  0  0  0  0  0
    0.3469    0.4463    6.4436 H   0  0  0  0  0  0  0  0  0  0  0  0
   -2.0168    1.2058    2.2512 H   0  0  0  0  0  0  0  0  0  0  0  0
   -2.7239    3.0207    3.3059 H   0  0  0  0  0  0  0  0  0  0  0  0
   -0.1954    2.0566    0.9457 H   0  0  0  0  0  0  0  0  0  0  0  0
    0.7788    3.4663    2.1840 H   0  0  0  0  0  0  0  0  0  0  0  0
   -0.2133   -0.2635    1.3136 H   0  0  0  0  0  0  0  0  0  0  0  0
    1.5610   -0.0707    0.3350 H   0  0  0  0  0  0  0  0  0  0  0  0
    1.0152   -1.0189    5.9437 H   0  0  0  0  0  0  0  0  0  0  0  0
    0.0382   -2.4355    5.5146 H   0  0  0  0  0  0  0  0  0  0  0  0
    1.2995   -3.8327    6.8598 H   0  0  0  0  0  0  0  0  0  0  0  0
    4.4935   -2.6455    7.8915 H   0  0  0  0  0  0  0  0  0  0  0  0
    3.5114   -4.1946    8.0587 H   0  0  0  0  0  0  0  0  0  0  0  0
    3.3148   -0.6923    2.5539 H   0  0  0  0  0  0  0  0  0  0  0  0
    4.7768   -1.1572    0.8788 H   0  0  0  0  0  0  0  0  0  0  0  0
    2.7671   -1.0165   -0.9761 H   0  0  0  0  0  0  0  0  0  0  0  0
    4.3155   -0.2634   -1.5264 H   0  0  0  0  0  0  0  0  0  0  0  0
  1  2  1  0
  1 52  1  0
  1 53  1  0
  1 54  1  0
  2  3  1  0
  3 46  1  0
  3  4  1  0
  3 55  1  6
  4  5  1  0
  5 47  1  0
  5  6  1  0
  5 56  1  6
  6  7  1  0
  7  8  1  0
  7 47  1  0
  7 57  1  6
  8  9  1  0
  8 58  1  0
  8 59  1  0
  9 46  1  0
  9 10  1  0
  9 60  1  1
 11 10  1  6
 11 14  1  0
 11 15  1  0
 11 12  1  0
 12 20  1  0
 12 13  1  0
 12 61  1  6
 13 14  1  0
 13 62  1  0
 13 63  1  0
 14 15  1  0
 14 64  1  6
 15 16  1  6
 15 17  1  0
 16 65  1  0
 17 18  1  0
 17 19  1  0
 17 66  1  6
 18 67  1  0
 18 68  1  0
 18 69  1  0
 20 19  1  1
 19 70  1  0
 19 71  1  0
 20 39  1  0
 20 21  1  0
 21 22  1  0
 22 41  1  0
 22 23  1  6
 22 35  1  0
 23 24  1  0
 24 33  1  0
 24 25  1  0
 24 72  1  1
 25 26  1  0
 26 27  1  0
 26 29  1  0
 26 73  1  1
 27 28  1  0
 27 74  1  0
 27 75  1  0
 28 76  1  0
 29 30  1  0
 29 31  1  0
 29 77  1  6
 30 78  1  0
 31 32  1  0
 31 33  1  0
 31 79  1  6
 32 80  1  0
 33 34  1  0
 33 81  1  6
 34 82  1  0
 35 36  1  0
 35 83  1  0
 35 84  1  0
 36 39  1  0
 36 37  1  0
 36 85  1  1
 37 38  1  0
 39 38  1  1
 38 86  1  0
 38 87  1  0
 39 40  1  0
 40 41  1  0
 41 42  2  3
 42 43  1  0
 42 88  1  0
 43 44  2  0
 43 45  1  0
 45 46  1  0
 46 89  1  6
 47 50  1  0
 47 48  1  1
 48 49  1  0
 48 90  1  0
 48 91  1  0
 49 50  1  0
 50 51  2  0
M  END
>  <i_m_ct_stereo_status>  (2) 
1

>  <s_m_source_file>  (2) 
/var/tmp/pbs.5076253.sched01/tmpeppn20qa/07bjoayft.sdf

>  <i_m_source_file_index>  (2) 
3

>  <i_lp_mmshare_version>  (2) 
48012

>  <i_f3d_flags>  (2) 
0

>  <s_epik_input>  (2) 
W0NIM11PW0NAQEhdMU9bQ0BASF0oTzIpW0NAXTMoW0NIMl1PQzM9TylbQ0BASF0yW0NIMl1bQ0BASF0oTzQpW0NASF0xT0MoPU8pXFtDSF09QyhPNSlcW0NAXShPNikoT1tDQEBIXTdPW0NAQEhdKFtDSDJdW09IXSlbQ0BASF0oW09IXSlbQ0BASF0oW09IXSlbQ0BIXTdbT0hdKVtDSDJdW0NASF0oT1tDSDJdOClbQ0BAXTU4W0NAQF02KFtDQEBIXTlDMTI0KVtDSDJdW0NASF0oW0NIM10pW0NAXTIoW09IXSlbQ0BASF0xW0NIMl05

>  <s_epik_cmdline>  (2) 
J2VwaWtfcHl0aG9uJywgJy1waHQnLCAnMi4wJywgJy1waCcsICc3LjAnLCAnLXRuJywgJzgnLCAnLW1hJywgJzIwMCcsICctaW1hZScsICc8aW5maWxlLm1hZT4nLCAnLW9tYWUnLCAnPG91dGZpbGUubWFlPic=

>  <r_lp_tautomer_probability>  (2) 
1

>  <r_epik_Ionization_Penalty>  (2) 
8.10142e-06

>  <r_epik_Ionization_Penalty_Charging>  (2) 
0

>  <r_epik_Ionization_Penalty_Neutral>  (2) 
8.10142e-06

>  <r_epik_State_Penalty>  (2) 
-0

>  <r_epik_Charging_Adjusted_Penalty>  (2) 
0

>  <i_epik_Tot_Q>  (2) 
0

>  <i_epik_Tot_abs_Q>  (2) 
0

>  <s_epik_Chemistry_Notes>  (2) 
This compound has an ester and may undergo hydrolysis at high or low pH. This compound contains an acetal/aminal-like group ( X-CH(R)-Y where X, Y are N, S, or O) that may be acid/base labile, releasing an aldehyde.

>  <s_lp_Force_Field>  (2) 
OPLS3e

>  <r_lp_Energy>  (2) 
116.343

>  <b_lp_Chiralities_Consistent>  (2) 
1

>  <s_lp_Variant>  (2) 
2:0-1

>  <s_i_glide_gridfile>  (2) 
pfpi4k_grid

>  <i_i_glide_lignum>  (2) 
3

>  <i_i_glide_rotatable_bonds>  (2) 
9

>  <r_i_docking_score>  (2) 
-4.32313

>  <r_i_glide_ligand_efficiency>  (2) 
-0.0847674

>  <r_i_glide_ligand_efficiency_sa>  (2) 
-0.314354

>  <r_i_glide_ligand_efficiency_ln>  (2) 
-0.876579

>  <r_i_glide_gscore>  (2) 
-4.32313

>  <r_i_glide_lipo>  (2) 
-0.121751

>  <r_i_glide_hbond>  (2) 
-0.317872

>  <r_i_glide_metal>  (2) 
-0

>  <r_i_glide_rewards>  (2) 
-0.500947

>  <r_i_glide_evdw>  (2) 
-35.3202

>  <r_i_glide_ecoul>  (2) 
-11.4758

>  <r_i_glide_erotb>  (2) 
0.122992

>  <r_i_glide_esite>  (2) 
-0.0181824

>  <r_i_glide_emodel>  (2) 
-56.735

>  <r_i_glide_energy>  (2) 
-46.7959

>  <r_i_glide_einternal>  (2) 
6.75608

>  <r_i_glide_intrahb_reward>  (2) 
-0

>  <i_i_glide_confnum>  (2) 
3

>  <i_i_glide_posenum>  (2) 
31

>  <r_i_glide_eff_state_penalty>  (2) 
0

>  <ligand_id>  (2) 
2

>  <original_smiles>  (2) 
COC1OC2OC(CC3OC45C6CC4C5(O)C(C)CC64OC5(OC6OC(CO)C(O)C(O)C6O)CC6OCC64OC5=CC(=O)OC31)C21COC1=O

>  <smiles>  (2) 
[H]OC([H])([H])C1([H])OC([H])(OC23OC45C([H])([H])C([H])(C([H])([H])[H])C6(O[H])C7([H])C([H])([H])C4([H])C76OC4([H])C([H])([H])C6([H])OC([H])(OC([H])(OC([H])([H])[H])C4([H])OC(=O)C([H])=C2OC52C([H])([H])OC2([H])C3([H])[H])C62C(=O)OC2([H])[H])C([H])(O[H])C([H])(O[H])C1([H])O[H]

$$$$
2:0:2
     RDKit          3D

 91101  0  0  1  0  0  0  0  0999 V2000
    8.9309   -1.9353    0.4176 C   0  0  0  0  0  0  0  0  0  0  0  0
    7.6728   -1.4629    0.8665 O   0  0  0  0  0  0  0  0  0  0  0  0
    6.5939   -2.1913    0.3911 C   0  0  2  0  0  0  0  0  0  0  0  0
    6.3046   -1.7323   -0.9004 O   0  0  0  0  0  0  0  0  0  0  0  0
    5.6380   -2.6230   -1.7744 C   0  0  1  0  0  0  0  0  0  0  0  0
    5.2563   -3.9115   -1.2100 O   0  0  0  0  0  0  0  0  0  0  0  0
    3.8745   -3.4710   -1.0974 C   0  0  1  0  0  0  0  0  0  0  0  0
    3.3927   -3.4003    0.3437 C   0  0  0  0  0  0  0  0  0  0  0  0
    4.4562   -3.1967    1.4593 C   0  0  1  0  0  0  0  0  0  0  0  0
    5.1449   -4.4193    1.8167 O   0  0  0  0  0  0  0  0  0  0  0  0
    4.5630   -5.0557    2.9606 C   0  0  1  0  0  0  0  0  0  0  0  0
    4.6560   -4.3805    4.2872 C   0  0  2  0  0  0  0  0  0  0  0  0
    5.5879   -5.4743    4.7948 C   0  0  0  0  0  0  0  0  0  0  0  0
    5.3702   -6.2277    3.5142 C   0  0  1  0  0  0  0  0  0  0  0  0
    3.9759   -6.4483    2.9391 C   0  0  2  0  0  0  0  0  0  0  0  0
    3.9947   -7.0697    1.6743 O   0  0  0  0  0  0  0  0  0  0  0  0
    2.7329   -6.6749    3.8005 C   0  0  1  0  0  0  0  0  0  0  0  0
    2.6097   -8.1399    4.2518 C   0  0  0  0  0  0  0  0  0  0  0  0
    2.6300   -5.7189    5.0417 C   0  0  0  0  0  0  0  0  0  0  0  0
    3.2157   -4.2908    4.8502 C   0  0  2  0  0  0  0  0  0  0  0  0
    2.2052   -3.6696    3.9693 O   0  0  0  0  0  0  0  0  0  0  0  0
    1.8425   -2.2995    4.2278 C   0  0  1  0  0  0  0  0  0  0  0  0
    1.1318   -1.7266    3.1526 O   0  0  0  0  0  0  0  0  0  0  0  0
    0.5916   -0.4124    3.3421 C   0  0  2  0  0  0  0  0  0  0  0  0
   -0.7337   -0.4475    3.8789 O   0  0  0  0  0  0  0  0  0  0  0  0
   -1.3297    0.8188    4.2163 C   0  0  1  0  0  0  0  0  0  0  0  0
   -0.6291    1.4553    5.4499 C   0  0  0  0  0  0  0  0  0  0  0  0
   -0.8550    0.7411    6.6625 O   0  0  0  0  0  0  0  0  0  0  0  0
   -1.3694    1.7018    2.9484 C   0  0  1  0  0  0  0  0  0  0  0  0
   -1.9778    2.9668    3.1819 O   0  0  0  0  0  0  0  0  0  0  0  0
    0.0120    1.8158    2.2867 C   0  0  1  0  0  0  0  0  0  0  0  0
    0.8862    2.6101    3.0868 O   0  0  0  0  0  0  0  0  0  0  0  0
    0.5937    0.4215    2.0515 C   0  0  1  0  0  0  0  0  0  0  0  0
    1.9525    0.5653    1.6160 O   0  0  0  0  0  0  0  0  0  0  0  0
    1.0472   -2.2420    5.5989 C   0  0  0  0  0  0  0  0  0  0  0  0
    1.7912   -3.1441    6.5628 C   0  0  2  0  0  0  0  0  0  0  0  0
    2.3252   -2.7227    7.8498 O   0  0  0  0  0  0  0  0  0  0  0  0
    3.5222   -3.5251    7.5331 C   0  0  0  0  0  0  0  0  0  0  0  0
    3.2040   -3.3444    6.0600 C   0  0  1  0  0  0  0  0  0  0  0  0
    3.7816   -2.1039    5.5946 O   0  0  0  0  0  0  0  0  0  0  0  0
    3.1679   -1.6236    4.4506 C   0  0  0  0  0  0  0  0  0  0  0  0
    3.8363   -0.9163    3.5160 C   0  0  0  0  0  0  0  0  0  0  0  0
    5.2414   -0.7208    3.5325 C   0  0  0  0  0  0  0  0  0  0  0  0
    5.8226   -0.0318    4.3988 O   0  0  0  0  0  0  0  0  0  0  0  0
    5.9196   -1.4154    2.5811 O   0  0  0  0  0  0  0  0  0  0  0  0
    5.3844   -1.9293    1.3372 C   0  0  1  0  0  0  0  0  0  0  0  0
    4.1817   -2.2135   -1.8895 C   0  0  1  0  0  0  0  0  0  0  0  0
    3.6411   -0.8275   -1.6477 C   0  0  0  0  0  0  0  0  0  0  0  0
    3.1696   -0.7610   -3.0516 O   0  0  0  0  0  0  0  0  0  0  0  0
    3.5892   -2.0547   -3.2819 C   0  0  0  0  0  0  0  0  0  0  0  0
    3.4941   -2.7374   -4.3144 O   0  0  0  0  0  0  0  0  0  0  0  0
    9.7229   -1.3299    0.8590 H   0  0  0  0  0  0  0  0  0  0  0  0
    8.9967   -1.8685   -0.6690 H   0  0  0  0  0  0  0  0  0  0  0  0
    9.1134   -2.9669    0.7239 H   0  0  0  0  0  0  0  0  0  0  0  0
    6.8625   -3.2487    0.4038 H   0  0  0  0  0  0  0  0  0  0  0  0
    6.1209   -2.7292   -2.7493 H   0  0  0  0  0  0  0  0  0  0  0  0
    3.2217   -4.0950   -1.7098 H   0  0  0  0  0  0  0  0  0  0  0  0
    2.6691   -2.5845    0.4112 H   0  0  0  0  0  0  0  0  0  0  0  0
    2.7909   -4.2828    0.5668 H   0  0  0  0  0  0  0  0  0  0  0  0
    3.7773   -2.9990    2.2711 H   0  0  0  0  0  0  0  0  0  0  0  0
    5.2076   -3.4518    4.1926 H   0  0  0  0  0  0  0  0  0  0  0  0
    6.6151   -5.1407    4.9400 H   0  0  0  0  0  0  0  0  0  0  0  0
    5.2282   -5.9920    5.6775 H   0  0  0  0  0  0  0  0  0  0  0  0
    6.2361   -6.5433    2.9514 H   0  0  0  0  0  0  0  0  0  0  0  0
    4.0593   -8.0157    1.8025 H   0  0  0  0  0  0  0  0  0  0  0  0
    1.8848   -6.4556    3.1438 H   0  0  0  0  0  0  0  0  0  0  0  0
    3.4330   -8.4042    4.9231 H   0  0  0  0  0  0  0  0  0  0  0  0
    2.6346   -8.8349    3.4099 H   0  0  0  0  0  0  0  0  0  0  0  0
    1.6723   -8.2946    4.7993 H   0  0  0  0  0  0  0  0  0  0  0  0
    1.5659   -5.6455    5.2751 H   0  0  0  0  0  0  0  0  0  0  0  0
    3.0940   -6.1883    5.9166 H   0  0  0  0  0  0  0  0  0  0  0  0
    1.2131    0.0871    4.0768 H   0  0  0  0  0  0  0  0  0  0  0  0
   -2.3689    0.6071    4.4776 H   0  0  0  0  0  0  0  0  0  0  0  0
    0.4476    1.5496    5.3096 H   0  0  0  0  0  0  0  0  0  0  0  0
   -1.0091    2.4610    5.6197 H   0  0  0  0  0  0  0  0  0  0  0  0
   -0.1989    1.0326    7.3063 H   0  0  0  0  0  0  0  0  0  0  0  0
   -1.9711    1.2041    2.1975 H   0  0  0  0  0  0  0  0  0  0  0  0
   -2.9134    2.8412    3.3789 H   0  0  0  0  0  0  0  0  0  0  0  0
   -0.1068    2.2590    1.2992 H   0  0  0  0  0  0  0  0  0  0  0  0
    0.6280    3.5424    2.9738 H   0  0  0  0  0  0  0  0  0  0  0  0
    0.0054   -0.0626    1.2778 H   0  0  0  0  0  0  0  0  0  0  0  0
    2.3480    1.1474    2.2343 H   0  0  0  0  0  0  0  0  0  0  0  0
    1.0064   -1.2222    5.9759 H   0  0  0  0  0  0  0  0  0  0  0  0
    0.0151   -2.5905    5.4377 H   0  0  0  0  0  0  0  0  0  0  0  0
    1.2650   -4.0836    6.7003 H   0  0  0  0  0  0  0  0  0  0  0  0
    4.4594   -3.0249    7.8070 H   0  0  0  0  0  0  0  0  0  0  0  0
    3.4578   -4.5572    7.8754 H   0  0  0  0  0  0  0  0  0  0  0  0
    3.3332   -0.8094    2.5887 H   0  0  0  0  0  0  0  0  0  0  0  0
    4.8126   -1.1156    0.9042 H   0  0  0  0  0  0  0  0  0  0  0  0
    2.8205   -0.8184   -0.9310 H   0  0  0  0  0  0  0  0  0  0  0  0
    4.4060   -0.0849   -1.4180 H   0  0  0  0  0  0  0  0  0  0  0  0
  1  2  1  0
  1 52  1  0
  1 53  1  0
  1 54  1  0
  2  3  1  0
  3 46  1  0
  3  4  1  0
  3 55  1  6
  4  5  1  0
  5 47  1  0
  5  6  1  0
  5 56  1  6
  6  7  1  0
  7  8  1  0
  7 47  1  0
  7 57  1  6
  8  9  1  0
  8 58  1  0
  8 59  1  0
  9 46  1  0
  9 10  1  0
  9 60  1  1
 11 10  1  6
 11 14  1  0
 11 15  1  0
 11 12  1  0
 12 20  1  0
 12 13  1  0
 12 61  1  6
 13 14  1  0
 13 62  1  0
 13 63  1  0
 14 15  1  0
 14 64  1  6
 15 16  1  6
 15 17  1  0
 16 65  1  0
 17 18  1  0
 17 19  1  0
 17 66  1  6
 18 67  1  0
 18 68  1  0
 18 69  1  0
 20 19  1  1
 19 70  1  0
 19 71  1  0
 20 39  1  0
 20 21  1  0
 21 22  1  0
 22 41  1  0
 22 23  1  6
 22 35  1  0
 23 24  1  0
 24 33  1  0
 24 25  1  0
 24 72  1  1
 25 26  1  0
 26 27  1  0
 26 29  1  0
 26 73  1  1
 27 28  1  0
 27 74  1  0
 27 75  1  0
 28 76  1  0
 29 30  1  0
 29 31  1  0
 29 77  1  6
 30 78  1  0
 31 32  1  0
 31 33  1  0
 31 79  1  6
 32 80  1  0
 33 34  1  0
 33 81  1  6
 34 82  1  0
 35 36  1  0
 35 83  1  0
 35 84  1  0
 36 39  1  0
 36 37  1  0
 36 85  1  1
 37 38  1  0
 39 38  1  1
 38 86  1  0
 38 87  1  0
 39 40  1  0
 40 41  1  0
 41 42  2  3
 42 43  1  0
 42 88  1  0
 43 44  2  0
 43 45  1  0
 45 46  1  0
 46 89  1  6
 47 50  1  0
 47 48  1  1
 48 49  1  0
 48 90  1  0
 48 91  1  0
 49 50  1  0
 50 51  2  0
M  END
>  <i_m_ct_stereo_status>  (3) 
1

>  <s_m_source_file>  (3) 
/var/tmp/pbs.5076253.sched01/tmpeppn20qa/07bjoayft.sdf

>  <i_m_source_file_index>  (3) 
3

>  <i_lp_mmshare_version>  (3) 
48012

>  <i_f3d_flags>  (3) 
0

>  <s_epik_input>  (3) 
W0NIM11PW0NAQEhdMU9bQ0BASF0oTzIpW0NAXTMoW0NIMl1PQzM9TylbQ0BASF0yW0NIMl1bQ0BASF0oTzQpW0NASF0xT0MoPU8pXFtDSF09QyhPNSlcW0NAXShPNikoT1tDQEBIXTdPW0NAQEhdKFtDSDJdW09IXSlbQ0BASF0oW09IXSlbQ0BASF0oW09IXSlbQ0BIXTdbT0hdKVtDSDJdW0NASF0oT1tDSDJdOClbQ0BAXTU4W0NAQF02KFtDQEBIXTlDMTI0KVtDSDJdW0NASF0oW0NIM10pW0NAXTIoW09IXSlbQ0BASF0xW0NIMl05

>  <s_epik_cmdline>  (3) 
J2VwaWtfcHl0aG9uJywgJy1waHQnLCAnMi4wJywgJy1waCcsICc3LjAnLCAnLXRuJywgJzgnLCAnLW1hJywgJzIwMCcsICctaW1hZScsICc8aW5maWxlLm1hZT4nLCAnLW9tYWUnLCAnPG91dGZpbGUubWFlPic=

>  <r_lp_tautomer_probability>  (3) 
1

>  <r_epik_Ionization_Penalty>  (3) 
8.10142e-06

>  <r_epik_Ionization_Penalty_Charging>  (3) 
0

>  <r_epik_Ionization_Penalty_Neutral>  (3) 
8.10142e-06

>  <r_epik_State_Penalty>  (3) 
-0

>  <r_epik_Charging_Adjusted_Penalty>  (3) 
0

>  <i_epik_Tot_Q>  (3) 
0

>  <i_epik_Tot_abs_Q>  (3) 
0

>  <s_epik_Chemistry_Notes>  (3) 
This compound has an ester and may undergo hydrolysis at high or low pH. This compound contains an acetal/aminal-like group ( X-CH(R)-Y where X, Y are N, S, or O) that may be acid/base labile, releasing an aldehyde.

>  <s_lp_Force_Field>  (3) 
OPLS3e

>  <r_lp_Energy>  (3) 
116.343

>  <b_lp_Chiralities_Consistent>  (3) 
1

>  <s_lp_Variant>  (3) 
2:0-1

>  <s_i_glide_gridfile>  (3) 
pfpi4k_grid

>  <i_i_glide_lignum>  (3) 
3

>  <i_i_glide_rotatable_bonds>  (3) 
9

>  <r_i_docking_score>  (3) 
-3.76271

>  <r_i_glide_ligand_efficiency>  (3) 
-0.0737787

>  <r_i_glide_ligand_efficiency_sa>  (3) 
-0.273603

>  <r_i_glide_ligand_efficiency_ln>  (3) 
-0.762945

>  <r_i_glide_gscore>  (3) 
-3.76271

>  <r_i_glide_lipo>  (3) 
-0.116821

>  <r_i_glide_hbond>  (3) 
-0.444627

>  <r_i_glide_metal>  (3) 
-0

>  <r_i_glide_rewards>  (3) 
-0.447315

>  <r_i_glide_evdw>  (3) 
-36.2726

>  <r_i_glide_ecoul>  (3) 
-6.9315

>  <r_i_glide_erotb>  (3) 
0.122992

>  <r_i_glide_esite>  (3) 
-0.0235872

>  <r_i_glide_emodel>  (3) 
-51.7215

>  <r_i_glide_energy>  (3) 
-43.2041

>  <r_i_glide_einternal>  (3) 
6.5869

>  <r_i_glide_intrahb_reward>  (3) 
-0

>  <i_i_glide_confnum>  (3) 
3

>  <i_i_glide_posenum>  (3) 
8

>  <r_i_glide_eff_state_penalty>  (3) 
0

>  <ligand_id>  (3) 
2

>  <original_smiles>  (3) 
COC1OC2OC(CC3OC45C6CC4C5(O)C(C)CC64OC5(OC6OC(CO)C(O)C(O)C6O)CC6OCC64OC5=CC(=O)OC31)C21COC1=O

>  <smiles>  (3) 
[H]OC([H])([H])C1([H])OC([H])(OC23OC45C([H])([H])C([H])(C([H])([H])[H])C6(O[H])C7([H])C([H])([H])C4([H])C76OC4([H])C([H])([H])C6([H])OC([H])(OC([H])(OC([H])([H])[H])C4([H])OC(=O)C([H])=C2OC52C([H])([H])OC2([H])C3([H])[H])C62C(=O)OC2([H])[H])C([H])(O[H])C([H])(O[H])C1([H])O[H]

$$$$
2:1:0
     RDKit          3D

 91101  0  0  1  0  0  0  0  0999 V2000
    1.4389   -4.3070   -1.2338 C   0  0  0  0  0  0  0  0  0  0  0  0
    2.0099   -4.7727   -0.0226 O   0  0  0  0  0  0  0  0  0  0  0  0
    2.9933   -3.9399    0.4930 C   0  0  2  0  0  0  0  0  0  0  0  0
    4.1042   -4.0013   -0.3460 O   0  0  0  0  0  0  0  0  0  0  0  0
    5.0101   -2.9029   -0.3160 C   0  0  1  0  0  0  0  0  0  0  0  0
    4.7059   -1.8288    0.6181 O   0  0  0  0  0  0  0  0  0  0  0  0
    5.7593   -2.2952    1.5138 C   0  0  1  0  0  0  0  0  0  0  0  0
    5.1858   -2.7471    2.8584 C   0  0  0  0  0  0  0  0  0  0  0  0
    3.7400   -3.3091    2.9050 C   0  0  1  0  0  0  0  0  0  0  0  0
    2.7182   -2.2915    2.9407 O   0  0  0  0  0  0  0  0  0  0  0  0
    2.0832   -2.2091    4.2420 C   0  0  1  0  0  0  0  0  0  0  0  0
    0.9180   -3.1080    4.6245 C   0  0  2  0  0  0  0  0  0  0  0  0
   -0.0045   -1.9027    4.7503 C   0  0  0  0  0  0  0  0  0  0  0  0
    1.1769   -0.9983    4.4568 C   0  0  1  0  0  0  0  0  0  0  0  0
    2.4855   -1.1501    5.1957 C   0  0  2  0  0  0  0  0  0  0  0  0
    3.4556   -0.2549    4.7107 O   0  0  0  0  0  0  0  0  0  0  0  0
    2.6407   -1.5967    6.6374 C   0  0  1  0  0  0  0  0  0  0  0  0
    2.4093   -0.4384    7.6295 C   0  0  0  0  0  0  0  0  0  0  0  0
    1.7330   -2.8138    7.0319 C   0  0  0  0  0  0  0  0  0  0  0  0
    1.2953   -3.8401    5.9353 C   0  0  2  0  0  0  0  0  0  0  0  0
    2.4723   -4.6894    5.7306 O   0  0  0  0  0  0  0  0  0  0  0  0
    2.2422   -6.0942    5.5865 C   0  0  1  0  0  0  0  0  0  0  0  0
    3.3611   -6.7779    5.0736 O   0  0  0  0  0  0  0  0  0  0  0  0
    4.6176   -6.5307    5.6994 C   0  0  2  0  0  0  0  0  0  0  0  0
    5.1231   -5.2463    5.4071 O   0  0  0  0  0  0  0  0  0  0  0  0
    6.3282   -4.8533    6.0705 C   0  0  1  0  0  0  0  0  0  0  0  0
    6.0960   -4.6525    7.5947 C   0  0  0  0  0  0  0  0  0  0  0  0
    5.2106   -3.5794    7.8401 O   0  0  0  0  0  0  0  0  0  0  0  0
    7.4189   -5.8410    5.6623 C   0  0  1  0  0  0  0  0  0  0  0  0
    8.6596   -5.4912    6.2481 O   0  0  0  0  0  0  0  0  0  0  0  0
    7.0463   -7.3006    5.9524 C   0  0  1  0  0  0  0  0  0  0  0  0
    7.0344   -7.5292    7.3675 O   0  0  0  0  0  0  0  0  0  0  0  0
    5.6683   -7.6138    5.3289 C   0  0  1  0  0  0  0  0  0  0  0  0
    5.2168   -8.8908    5.7558 O   0  0  0  0  0  0  0  0  0  0  0  0
    1.7981   -6.6803    6.9947 C   0  0  0  0  0  0  0  0  0  0  0  0
    0.7829   -5.6871    7.5504 C   0  0  2  0  0  0  0  0  0  0  0  0
   -0.5550   -5.9935    8.0029 O   0  0  0  0  0  0  0  0  0  0  0  0
   -0.9721   -4.7439    7.3500 C   0  0  0  0  0  0  0  0  0  0  0  0
    0.2202   -4.8502    6.4129 C   0  0  1  0  0  0  0  0  0  0  0  0
   -0.1149   -5.7337    5.3262 O   0  0  0  0  0  0  0  0  0  0  0  0
    0.9906   -6.2569    4.6852 C   0  0  0  0  0  0  0  0  0  0  0  0
    0.8805   -6.6240    3.3993 C   0  0  0  0  0  0  0  0  0  0  0  0
    1.9969   -6.3992    2.4808 C   0  0  0  0  0  0  0  0  0  0  0  0
    2.4650   -7.2327    1.7089 O   0  0  0  0  0  0  0  0  0  0  0  0
    2.3229   -5.0981    2.5722 O   0  0  0  0  0  0  0  0  0  0  0  0
    3.3966   -4.4572    1.9092 C   0  0  1  0  0  0  0  0  0  0  0  0
    6.2313   -3.3048    0.4954 C   0  0  1  0  0  0  0  0  0  0  0  0
    6.7330   -4.7071    0.7431 C   0  0  0  0  0  0  0  0  0  0  0  0
    8.0117   -4.3955    0.1073 O   0  0  0  0  0  0  0  0  0  0  0  0
    7.6074   -3.1101   -0.1738 C   0  0  0  0  0  0  0  0  0  0  0  0
    8.1733   -2.2323   -0.7562 O   0  0  0  0  0  0  0  0  0  0  0  0
    0.6575   -5.0083   -1.5211 H   0  0  0  0  0  0  0  0  0  0  0  0
    2.1680   -4.2397   -2.0377 H   0  0  0  0  0  0  0  0  0  0  0  0
    0.9928   -3.3241   -1.1226 H   0  0  0  0  0  0  0  0  0  0  0  0
    2.5665   -2.9361    0.5352 H   0  0  0  0  0  0  0  0  0  0  0  0
    5.2626   -2.5178   -1.3070 H   0  0  0  0  0  0  0  0  0  0  0  0
    6.5349   -1.5367    1.6320 H   0  0  0  0  0  0  0  0  0  0  0  0
    5.8174   -3.5430    3.2331 H   0  0  0  0  0  0  0  0  0  0  0  0
    5.2922   -1.9541    3.5942 H   0  0  0  0  0  0  0  0  0  0  0  0
    3.7474   -3.7949    3.8845 H   0  0  0  0  0  0  0  0  0  0  0  0
    0.6115   -3.7298    3.7876 H   0  0  0  0  0  0  0  0  0  0  0  0
   -0.7897   -1.8750    4.0006 H   0  0  0  0  0  0  0  0  0  0  0  0
   -0.4295   -1.7844    5.7430 H   0  0  0  0  0  0  0  0  0  0  0  0
    1.0796   -0.3320    3.5916 H   0  0  0  0  0  0  0  0  0  0  0  0
    3.2139   -0.0406    3.8251 H   0  0  0  0  0  0  0  0  0  0  0  0
    3.6866   -1.9004    6.7288 H   0  0  0  0  0  0  0  0  0  0  0  0
    1.3701   -0.1192    7.5697 H   0  0  0  0  0  0  0  0  0  0  0  0
    3.0391    0.4309    7.4036 H   0  0  0  0  0  0  0  0  0  0  0  0
    2.6090   -0.7691    8.6533 H   0  0  0  0  0  0  0  0  0  0  0  0
    2.3007   -3.3378    7.7875 H   0  0  0  0  0  0  0  0  0  0  0  0
    0.8490   -2.4218    7.5326 H   0  0  0  0  0  0  0  0  0  0  0  0
    4.4363   -6.5545    6.7750 H   0  0  0  0  0  0  0  0  0  0  0  0
    6.5957   -3.8964    5.6475 H   0  0  0  0  0  0  0  0  0  0  0  0
    5.7107   -5.5368    8.1091 H   0  0  0  0  0  0  0  0  0  0  0  0
    7.0247   -4.3939    8.1051 H   0  0  0  0  0  0  0  0  0  0  0  0
    4.3332   -3.8140    7.5043 H   0  0  0  0  0  0  0  0  0  0  0  0
    7.5650   -5.7566    4.5881 H   0  0  0  0  0  0  0  0  0  0  0  0
    8.6060   -5.6062    7.2103 H   0  0  0  0  0  0  0  0  0  0  0  0
    7.8027   -7.9471    5.4892 H   0  0  0  0  0  0  0  0  0  0  0  0
    6.8906   -8.4682    7.5395 H   0  0  0  0  0  0  0  0  0  0  0  0
    5.7874   -7.6496    4.2484 H   0  0  0  0  0  0  0  0  0  0  0  0
    5.0292   -8.8592    6.7049 H   0  0  0  0  0  0  0  0  0  0  0  0
    1.3708   -7.6818    6.8616 H   0  0  0  0  0  0  0  0  0  0  0  0
    2.6150   -6.7591    7.7128 H   0  0  0  0  0  0  0  0  0  0  0  0
    1.2601   -5.0744    8.3197 H   0  0  0  0  0  0  0  0  0  0  0  0
   -1.9255   -4.8392    6.8263 H   0  0  0  0  0  0  0  0  0  0  0  0
   -0.9320   -3.8863    8.0369 H   0  0  0  0  0  0  0  0  0  0  0  0
   -0.1069   -6.6586    2.9662 H   0  0  0  0  0  0  0  0  0  0  0  0
    4.2089   -5.1729    1.8040 H   0  0  0  0  0  0  0  0  0  0  0  0
    6.8409   -4.9279    1.8073 H   0  0  0  0  0  0  0  0  0  0  0  0
    6.1624   -5.4766    0.2046 H   0  0  0  0  0  0  0  0  0  0  0  0
  1  2  1  0
  1 52  1  0
  1 53  1  0
  1 54  1  0
  2  3  1  0
  3 46  1  0
  3  4  1  0
  3 55  1  1
  4  5  1  0
  5 47  1  0
  5  6  1  0
  5 56  1  6
  6  7  1  0
  7  8  1  0
  7 47  1  0
  7 57  1  1
  8  9  1  0
  8 58  1  0
  8 59  1  0
  9 46  1  0
  9 10  1  0
  9 60  1  1
 11 10  1  6
 11 14  1  0
 11 15  1  0
 11 12  1  0
 12 20  1  0
 12 13  1  0
 12 61  1  6
 13 14  1  0
 13 62  1  0
 13 63  1  0
 14 15  1  0
 14 64  1  6
 15 16  1  6
 15 17  1  0
 16 65  1  0
 17 18  1  0
 17 19  1  0
 17 66  1  6
 18 67  1  0
 18 68  1  0
 18 69  1  0
 20 19  1  1
 19 70  1  0
 19 71  1  0
 20 39  1  0
 20 21  1  0
 21 22  1  0
 22 41  1  0
 22 23  1  6
 22 35  1  0
 23 24  1  0
 24 33  1  0
 24 25  1  0
 24 72  1  1
 25 26  1  0
 26 27  1  0
 26 29  1  0
 26 73  1  6
 27 28  1  0
 27 74  1  0
 27 75  1  0
 28 76  1  0
 29 30  1  0
 29 31  1  0
 29 77  1  6
 30 78  1  0
 31 32  1  0
 31 33  1  0
 31 79  1  6
 32 80  1  0
 33 34  1  0
 33 81  1  6
 34 82  1  0
 35 36  1  0
 35 83  1  0
 35 84  1  0
 36 39  1  0
 36 37  1  0
 36 85  1  1
 37 38  1  0
 39 38  1  1
 38 86  1  0
 38 87  1  0
 39 40  1  0
 40 41  1  0
 41 42  2  3
 42 43  1  0
 42 88  1  0
 43 44  2  0
 43 45  1  0
 45 46  1  0
 46 89  1  6
 47 50  1  0
 47 48  1  1
 48 49  1  0
 48 90  1  0
 48 91  1  0
 49 50  1  0
 50 51  2  0
M  END
>  <i_m_ct_stereo_status>  (4) 
1

>  <s_m_source_file>  (4) 
/var/tmp/pbs.5076253.sched01/tmpeppn20qa/07bjoayft.sdf

>  <i_m_source_file_index>  (4) 
4

>  <i_lp_mmshare_version>  (4) 
48012

>  <i_f3d_flags>  (4) 
2

>  <s_epik_input>  (4) 
W0NIM11PW0NAQEhdMU9bQ0BASF0oTzIpW0NAXTMoW0NIMl1PQzM9TylbQ0BASF0yW0NIMl1bQ0BASF0oTzQpW0NASF0xT0MoPU8pXFtDSF09QyhPNSlcW0NAXShPNikoT1tDQEBIXTdPW0NAQEhdKFtDSDJdW09IXSlbQ0BASF0oW09IXSlbQ0BASF0oW09IXSlbQ0BIXTdbT0hdKVtDSDJdW0NASF0oT1tDSDJdOClbQ0BAXTU4W0NAQF02KFtDQEBIXTlDMTI0KVtDSDJdW0NASF0oW0NIM10pW0NAXTIoW09IXSlbQ0BASF0xW0NIMl05

>  <s_epik_cmdline>  (4) 
J2VwaWtfcHl0aG9uJywgJy1waHQnLCAnMi4wJywgJy1waCcsICc3LjAnLCAnLXRuJywgJzgnLCAnLW1hJywgJzIwMCcsICctaW1hZScsICc8aW5maWxlLm1hZT4nLCAnLW9tYWUnLCAnPG91dGZpbGUubWFlPic=

>  <r_lp_tautomer_probability>  (4) 
1

>  <r_epik_Ionization_Penalty>  (4) 
8.10142e-06

>  <r_epik_Ionization_Penalty_Charging>  (4) 
0

>  <r_epik_Ionization_Penalty_Neutral>  (4) 
8.10142e-06

>  <r_epik_State_Penalty>  (4) 
-0

>  <r_epik_Charging_Adjusted_Penalty>  (4) 
0

>  <i_epik_Tot_Q>  (4) 
0

>  <i_epik_Tot_abs_Q>  (4) 
0

>  <s_epik_Chemistry_Notes>  (4) 
This compound has an ester and may undergo hydrolysis at high or low pH. This compound contains an acetal/aminal-like group ( X-CH(R)-Y where X, Y are N, S, or O) that may be acid/base labile, releasing an aldehyde.

>  <s_lp_Force_Field>  (4) 
OPLS3e

>  <r_lp_Energy>  (4) 
107.582

>  <b_lp_Chiralities_Consistent>  (4) 
0

>  <s_lp_Variant>  (4) 
2:0-2

>  <s_i_glide_gridfile>  (4) 
pfpi4k_grid

>  <i_i_glide_lignum>  (4) 
4

>  <i_i_glide_rotatable_bonds>  (4) 
9

>  <r_i_docking_score>  (4) 
-2.45984

>  <r_i_glide_ligand_efficiency>  (4) 
-0.0482321

>  <r_i_glide_ligand_efficiency_sa>  (4) 
-0.178865

>  <r_i_glide_ligand_efficiency_ln>  (4) 
-0.498768

>  <r_i_glide_gscore>  (4) 
-2.45984

>  <r_i_glide_lipo>  (4) 
-0.392123

>  <r_i_glide_hbond>  (4) 
-0.182185

>  <r_i_glide_metal>  (4) 
-0

>  <r_i_glide_rewards>  (4) 
-0.21624

>  <r_i_glide_evdw>  (4) 
-27.5534

>  <r_i_glide_ecoul>  (4) 
-2.56216

>  <r_i_glide_erotb>  (4) 
0.122992

>  <r_i_glide_esite>  (4) 
-0.0302873

>  <r_i_glide_emodel>  (4) 
-33.1954

>  <r_i_glide_energy>  (4) 
-30.1156

>  <r_i_glide_einternal>  (4) 
0.582506

>  <r_i_glide_intrahb_reward>  (4) 
-0

>  <i_i_glide_confnum>  (4) 
1

>  <i_i_glide_posenum>  (4) 
9

>  <r_i_glide_eff_state_penalty>  (4) 
0

>  <ligand_id>  (4) 
2

>  <original_smiles>  (4) 
COC1OC2OC(CC3OC45C6CC4C5(O)C(C)CC64OC5(OC6OC(CO)C(O)C(O)C6O)CC6OCC64OC5=CC(=O)OC31)C21COC1=O

>  <smiles>  (4) 
[H]OC([H])([H])C1([H])OC([H])(OC23OC45C([H])([H])C([H])(C([H])([H])[H])C6(O[H])C7([H])C([H])([H])C4([H])C76OC4([H])C([H])([H])C6([H])OC([H])(OC([H])(OC([H])([H])[H])C4([H])OC(=O)C([H])=C2OC52C([H])([H])OC2([H])C3([H])[H])C62C(=O)OC2([H])[H])C([H])(O[H])C([H])(O[H])C1([H])O[H]

$$$$
2:1:1
     RDKit          3D

 91101  0  0  1  0  0  0  0  0999 V2000
    3.6482   -4.2662    5.2800 C   0  0  0  0  0  0  0  0  0  0  0  0
    3.9152   -2.8760    5.1787 O   0  0  0  0  0  0  0  0  0  0  0  0
    3.5524   -2.3048    3.9596 C   0  0  2  0  0  0  0  0  0  0  0  0
    4.4371   -2.7592    2.9793 O   0  0  0  0  0  0  0  0  0  0  0  0
    3.9831   -2.7056    1.6368 C   0  0  1  0  0  0  0  0  0  0  0  0
    2.6493   -2.1657    1.4390 O   0  0  0  0  0  0  0  0  0  0  0  0
    3.2219   -0.9254    0.9207 C   0  0  1  0  0  0  0  0  0  0  0  0
    2.8491    0.2802    1.7834 C   0  0  0  0  0  0  0  0  0  0  0  0
    2.5849    0.0479    3.2900 C   0  0  1  0  0  0  0  0  0  0  0  0
    1.2676   -0.4266    3.6236 O   0  0  0  0  0  0  0  0  0  0  0  0
    0.4323    0.5330    4.2825 C   0  0  1  0  0  0  0  0  0  0  0  0
    0.4619    0.7641    5.7688 C   0  0  2  0  0  0  0  0  0  0  0  0
   -0.9777    0.3299    5.8940 C   0  0  0  0  0  0  0  0  0  0  0  0
   -1.0371    0.2111    4.3898 C   0  0  1  0  0  0  0  0  0  0  0  0
   -0.5425    1.3114    3.4729 C   0  0  2  0  0  0  0  0  0  0  0  0
   -0.6656    0.9421    2.1181 O   0  0  0  0  0  0  0  0  0  0  0  0
   -0.6161    2.8032    3.7601 C   0  0  1  0  0  0  0  0  0  0  0  0
   -2.0077    3.3861    3.4575 C   0  0  0  0  0  0  0  0  0  0  0  0
   -0.2256    3.1792    5.2281 C   0  0  0  0  0  0  0  0  0  0  0  0
    0.7516    2.2583    6.0281 C   0  0  2  0  0  0  0  0  0  0  0  0
    2.0796    2.5812    5.5050 O   0  0  0  0  0  0  0  0  0  0  0  0
    3.1454    2.6752    6.4506 C   0  0  1  0  0  0  0  0  0  0  0  0
    4.4002    2.7546    5.8062 O   0  0  0  0  0  0  0  0  0  0  0  0
    5.6043    2.8577    6.5783 C   0  0  2  0  0  0  0  0  0  0  0  0
    5.6016    2.0428    7.7321 O   0  0  0  0  0  0  0  0  0  0  0  0
    6.8056    2.0050    8.5131 C   0  0  1  0  0  0  0  0  0  0  0  0
    7.9389    1.2087    7.8120 C   0  0  0  0  0  0  0  0  0  0  0  0
    7.6132   -0.1772    7.7479 O   0  0  0  0  0  0  0  0  0  0  0  0
    7.1617    3.4439    8.9452 C   0  0  1  0  0  0  0  0  0  0  0  0
    8.2970    3.4929    9.8171 O   0  0  0  0  0  0  0  0  0  0  0  0
    7.3105    4.4143    7.7763 C   0  0  1  0  0  0  0  0  0  0  0  0
    8.4776    4.0864    7.0206 O   0  0  0  0  0  0  0  0  0  0  0  0
    6.0373    4.3424    6.8998 C   0  0  1  0  0  0  0  0  0  0  0  0
    6.2858    5.0573    5.6853 O   0  0  0  0  0  0  0  0  0  0  0  0
    2.8962    3.9825    7.2818 C   0  0  0  0  0  0  0  0  0  0  0  0
    1.4269    4.0214    7.6398 C   0  0  2  0  0  0  0  0  0  0  0  0
    0.9172    4.1023    8.9830 O   0  0  0  0  0  0  0  0  0  0  0  0
   -0.0872    3.1085    8.5741 C   0  0  0  0  0  0  0  0  0  0  0  0
    0.8839    2.5980    7.5371 C   0  0  1  0  0  0  0  0  0  0  0  0
    1.7994    1.6748    8.1766 O   0  0  0  0  0  0  0  0  0  0  0  0
    2.9377    1.4886    7.4393 C   0  0  0  0  0  0  0  0  0  0  0  0
    3.5561    0.2765    7.5261 C   0  0  0  0  0  0  0  0  0  0  0  0
    4.2190   -0.2563    6.3718 C   0  0  0  0  0  0  0  0  0  0  0  0
    5.4141   -0.6676    6.3485 O   0  0  0  0  0  0  0  0  0  0  0  0
    3.3798   -0.3042    5.3560 O   0  0  0  0  0  0  0  0  0  0  0  0
    3.6650   -0.7494    4.0596 C   0  0  1  0  0  0  0  0  0  0  0  0
    4.6131   -1.5151    0.9292 C   0  0  1  0  0  0  0  0  0  0  0  0
    5.8935   -0.8217    1.3319 C   0  0  0  0  0  0  0  0  0  0  0  0
    6.4908   -1.1310    0.0218 O   0  0  0  0  0  0  0  0  0  0  0  0
    5.3514   -1.7463   -0.3894 C   0  0  0  0  0  0  0  0  0  0  0  0
    5.0871   -2.2763   -1.4856 O   0  0  0  0  0  0  0  0  0  0  0  0
    3.9639   -4.6299    6.2583 H   0  0  0  0  0  0  0  0  0  0  0  0
    4.1832   -4.8409    4.5219 H   0  0  0  0  0  0  0  0  0  0  0  0
    2.5798   -4.4609    5.1842 H   0  0  0  0  0  0  0  0  0  0  0  0
    2.5205   -2.6038    3.7780 H   0  0  0  0  0  0  0  0  0  0  0  0
    4.1304   -3.6364    1.0867 H   0  0  0  0  0  0  0  0  0  0  0  0
    2.9508   -0.7610   -0.1202 H   0  0  0  0  0  0  0  0  0  0  0  0
    3.6629    0.9995    1.7082 H   0  0  0  0  0  0  0  0  0  0  0  0
    1.9940    0.8047    1.3652 H   0  0  0  0  0  0  0  0  0  0  0  0
    2.6703    1.0667    3.6658 H   0  0  0  0  0  0  0  0  0  0  0  0
    1.0847    0.0212    6.2488 H   0  0  0  0  0  0  0  0  0  0  0  0
   -1.1088   -0.6221    6.4118 H   0  0  0  0  0  0  0  0  0  0  0  0
   -1.6284    1.1005    6.2948 H   0  0  0  0  0  0  0  0  0  0  0  0
   -1.3194   -0.7449    3.9803 H   0  0  0  0  0  0  0  0  0  0  0  0
   -0.1879    1.5581    1.5816 H   0  0  0  0  0  0  0  0  0  0  0  0
    0.1146    3.2802    3.0870 H   0  0  0  0  0  0  0  0  0  0  0  0
   -2.7401    2.9521    4.1362 H   0  0  0  0  0  0  0  0  0  0  0  0
   -2.3211    3.1558    2.4382 H   0  0  0  0  0  0  0  0  0  0  0  0
   -1.9940    4.4680    3.5983 H   0  0  0  0  0  0  0  0  0  0  0  0
    0.2430    4.1503    5.1445 H   0  0  0  0  0  0  0  0  0  0  0  0
   -1.1289    3.2964    5.8290 H   0  0  0  0  0  0  0  0  0  0  0  0
    6.3516    2.3844    5.9388 H   0  0  0  0  0  0  0  0  0  0  0  0
    6.5257    1.4823    9.4297 H   0  0  0  0  0  0  0  0  0  0  0  0
    8.1387    1.6027    6.8107 H   0  0  0  0  0  0  0  0  0  0  0  0
    8.8866    1.2955    8.3774 H   0  0  0  0  0  0  0  0  0  0  0  0
    6.8429   -0.3247    7.1676 H   0  0  0  0  0  0  0  0  0  0  0  0
    6.3188    3.7842    9.5300 H   0  0  0  0  0  0  0  0  0  0  0  0
    8.4726    4.3969   10.1311 H   0  0  0  0  0  0  0  0  0  0  0  0
    7.3815    5.4395    8.1579 H   0  0  0  0  0  0  0  0  0  0  0  0
    9.2308    3.9657    7.6169 H   0  0  0  0  0  0  0  0  0  0  0  0
    5.2760    4.9096    7.4606 H   0  0  0  0  0  0  0  0  0  0  0  0
    7.0986    4.7155    5.2707 H   0  0  0  0  0  0  0  0  0  0  0  0
    3.5006    3.9769    8.1905 H   0  0  0  0  0  0  0  0  0  0  0  0
    3.1431    4.8497    6.6746 H   0  0  0  0  0  0  0  0  0  0  0  0
    0.8923    4.7565    7.0185 H   0  0  0  0  0  0  0  0  0  0  0  0
   -0.2659    2.3599    9.3450 H   0  0  0  0  0  0  0  0  0  0  0  0
   -0.9919    3.5748    8.1687 H   0  0  0  0  0  0  0  0  0  0  0  0
    3.2676   -0.4128    8.3047 H   0  0  0  0  0  0  0  0  0  0  0  0
    4.6828   -0.4383    3.8247 H   0  0  0  0  0  0  0  0  0  0  0  0
    5.7479    0.2483    1.4794 H   0  0  0  0  0  0  0  0  0  0  0  0
    6.4184   -1.3021    2.1671 H   0  0  0  0  0  0  0  0  0  0  0  0
  1  2  1  0
  1 52  1  0
  1 53  1  0
  1 54  1  0
  2  3  1  0
  3 46  1  0
  3  4  1  0
  3 55  1  6
  4  5  1  0
  5 47  1  0
  5  6  1  0
  5 56  1  6
  6  7  1  0
  7  8  1  0
  7 47  1  0
  7 57  1  6
  8  9  1  0
  8 58  1  0
  8 59  1  0
  9 46  1  0
  9 10  1  0
  9 60  1  1
 11 10  1  6
 11 14  1  0
 11 15  1  0
 11 12  1  0
 12 20  1  0
 12 13  1  0
 12 61  1  1
 13 14  1  0
 13 62  1  0
 13 63  1  0
 14 15  1  0
 14 64  1  1
 15 16  1  6
 15 17  1  0
 16 65  1  0
 17 18  1  0
 17 19  1  0
 17 66  1  6
 18 67  1  0
 18 68  1  0
 18 69  1  0
 20 19  1  6
 19 70  1  0
 19 71  1  0
 20 39  1  0
 20 21  1  0
 21 22  1  0
 22 41  1  0
 22 23  1  6
 22 35  1  0
 23 24  1  0
 24 33  1  0
 24 25  1  0
 24 72  1  6
 25 26  1  0
 26 27  1  0
 26 29  1  0
 26 73  1  1
 27 28  1  0
 27 74  1  0
 27 75  1  0
 28 76  1  0
 29 30  1  0
 29 31  1  0
 29 77  1  1
 30 78  1  0
 31 32  1  0
 31 33  1  0
 31 79  1  1
 32 80  1  0
 33 34  1  0
 33 81  1  1
 34 82  1  0
 35 36  1  0
 35 83  1  0
 35 84  1  0
 36 39  1  0
 36 37  1  0
 36 85  1  6
 37 38  1  0
 39 38  1  1
 38 86  1  0
 38 87  1  0
 39 40  1  0
 40 41  1  0
 41 42  2  3
 42 43  1  0
 42 88  1  0
 43 44  2  0
 43 45  1  0
 45 46  1  0
 46 89  1  6
 47 50  1  0
 47 48  1  1
 48 49  1  0
 48 90  1  0
 48 91  1  0
 49 50  1  0
 50 51  2  0
M  END
>  <i_m_ct_stereo_status>  (5) 
1

>  <s_m_source_file>  (5) 
/var/tmp/pbs.5076253.sched01/tmpeppn20qa/07bjoayft.sdf

>  <i_m_source_file_index>  (5) 
4

>  <i_lp_mmshare_version>  (5) 
48012

>  <i_f3d_flags>  (5) 
2

>  <s_epik_input>  (5) 
W0NIM11PW0NAQEhdMU9bQ0BASF0oTzIpW0NAXTMoW0NIMl1PQzM9TylbQ0BASF0yW0NIMl1bQ0BASF0oTzQpW0NASF0xT0MoPU8pXFtDSF09QyhPNSlcW0NAXShPNikoT1tDQEBIXTdPW0NAQEhdKFtDSDJdW09IXSlbQ0BASF0oW09IXSlbQ0BASF0oW09IXSlbQ0BIXTdbT0hdKVtDSDJdW0NASF0oT1tDSDJdOClbQ0BAXTU4W0NAQF02KFtDQEBIXTlDMTI0KVtDSDJdW0NASF0oW0NIM10pW0NAXTIoW09IXSlbQ0BASF0xW0NIMl05

>  <s_epik_cmdline>  (5) 
J2VwaWtfcHl0aG9uJywgJy1waHQnLCAnMi4wJywgJy1waCcsICc3LjAnLCAnLXRuJywgJzgnLCAnLW1hJywgJzIwMCcsICctaW1hZScsICc8aW5maWxlLm1hZT4nLCAnLW9tYWUnLCAnPG91dGZpbGUubWFlPic=

>  <r_lp_tautomer_probability>  (5) 
1

>  <r_epik_Ionization_Penalty>  (5) 
8.10142e-06

>  <r_epik_Ionization_Penalty_Charging>  (5) 
0

>  <r_epik_Ionization_Penalty_Neutral>  (5) 
8.10142e-06

>  <r_epik_State_Penalty>  (5) 
-0

>  <r_epik_Charging_Adjusted_Penalty>  (5) 
0

>  <i_epik_Tot_Q>  (5) 
0

>  <i_epik_Tot_abs_Q>  (5) 
0

>  <s_epik_Chemistry_Notes>  (5) 
This compound has an ester and may undergo hydrolysis at high or low pH. This compound contains an acetal/aminal-like group ( X-CH(R)-Y where X, Y are N, S, or O) that may be acid/base labile, releasing an aldehyde.

>  <s_lp_Force_Field>  (5) 
OPLS3e

>  <r_lp_Energy>  (5) 
107.582

>  <b_lp_Chiralities_Consistent>  (5) 
0

>  <s_lp_Variant>  (5) 
2:0-2

>  <s_i_glide_gridfile>  (5) 
pfpi4k_grid

>  <i_i_glide_lignum>  (5) 
4

>  <i_i_glide_rotatable_bonds>  (5) 
9

>  <r_i_docking_score>  (5) 
-2.00259

>  <r_i_glide_ligand_efficiency>  (5) 
-0.0392664

>  <r_i_glide_ligand_efficiency_sa>  (5) 
-0.145617

>  <r_i_glide_ligand_efficiency_ln>  (5) 
-0.406054

>  <r_i_glide_gscore>  (5) 
-2.00259

>  <r_i_glide_lipo>  (5) 
-0.18676

>  <r_i_glide_hbond>  (5) 
-0.049543

>  <r_i_glide_metal>  (5) 
-0

>  <r_i_glide_rewards>  (5) 
-0.526846

>  <r_i_glide_evdw>  (5) 
-29.0765

>  <r_i_glide_ecoul>  (5) 
0.743169

>  <r_i_glide_erotb>  (5) 
0.122992

>  <r_i_glide_esite>  (5) 
-0.0200841

>  <r_i_glide_emodel>  (5) 
-31.2357

>  <r_i_glide_energy>  (5) 
-28.3333

>  <r_i_glide_einternal>  (5) 
7.45968

>  <r_i_glide_intrahb_reward>  (5) 
-0.5

>  <i_i_glide_confnum>  (5) 
4

>  <i_i_glide_posenum>  (5) 
15

>  <r_i_glide_eff_state_penalty>  (5) 
0

>  <ligand_id>  (5) 
2

>  <original_smiles>  (5) 
COC1OC2OC(CC3OC45C6CC4C5(O)C(C)CC64OC5(OC6OC(CO)C(O)C(O)C6O)CC6OCC64OC5=CC(=O)OC31)C21COC1=O

>  <smiles>  (5) 
[H]OC([H])([H])C1([H])OC([H])(OC23OC45C([H])([H])C([H])(C([H])([H])[H])C6(O[H])C7([H])C([H])([H])C4([H])C76OC4([H])C([H])([H])C6([H])OC([H])(OC([H])(OC([H])([H])[H])C4([H])OC(=O)C([H])=C2OC52C([H])([H])OC2([H])C3([H])[H])C62C(=O)OC2([H])[H])C([H])(O[H])C([H])(O[H])C1([H])O[H]

$$$$
2:1:2
     RDKit          3D

 91101  0  0  1  0  0  0  0  0999 V2000
    2.9491   -4.4968    5.2722 C   0  0  0  0  0  0  0  0  0  0  0  0
    3.4840   -3.1851    5.2820 O   0  0  0  0  0  0  0  0  0  0  0  0
    3.2797   -2.4592    4.1118 C   0  0  2  0  0  0  0  0  0  0  0  0
    4.0761   -3.0072    3.1004 O   0  0  0  0  0  0  0  0  0  0  0  0
    3.6706   -2.7792    1.7536 C   0  0  1  0  0  0  0  0  0  0  0  0
    2.4670   -1.9966    1.5847 O   0  0  0  0  0  0  0  0  0  0  0  0
    3.2677   -0.8490    1.1471 C   0  0  1  0  0  0  0  0  0  0  0  0
    3.1038    0.3387    2.1071 C   0  0  0  0  0  0  0  0  0  0  0  0
    2.7852    0.0540    3.6071 C   0  0  1  0  0  0  0  0  0  0  0  0
    1.3986   -0.1827    3.8821 O   0  0  0  0  0  0  0  0  0  0  0  0
    0.7330    0.8699    4.5814 C   0  0  1  0  0  0  0  0  0  0  0  0
    0.7768    0.9876    6.0868 C   0  0  2  0  0  0  0  0  0  0  0  0
   -0.7248    0.8284    6.1684 C   0  0  0  0  0  0  0  0  0  0  0  0
   -0.7730    0.8191    4.6517 C   0  0  1  0  0  0  0  0  0  0  0  0
   -0.0729    1.8676    3.8250 C   0  0  2  0  0  0  0  0  0  0  0  0
   -0.2285    1.6229    2.4440 O   0  0  0  0  0  0  0  0  0  0  0  0
    0.1286    3.3262    4.2233 C   0  0  1  0  0  0  0  0  0  0  0  0
   -1.1218    4.1849    3.9449 C   0  0  0  0  0  0  0  0  0  0  0  0
    0.5640    3.5238    5.7169 C   0  0  0  0  0  0  0  0  0  0  0  0
    1.3531    2.3852    6.4437 C   0  0  2  0  0  0  0  0  0  0  0  0
    2.7287    2.4823    5.9278 O   0  0  0  0  0  0  0  0  0  0  0  0
    3.7973    2.3114    6.8758 C   0  0  1  0  0  0  0  0  0  0  0  0
    5.0392    2.1363    6.2297 O   0  0  0  0  0  0  0  0  0  0  0  0
    6.2497    2.1923    6.9888 C   0  0  2  0  0  0  0  0  0  0  0  0
    6.6246    3.5104    7.3219 O   0  0  0  0  0  0  0  0  0  0  0  0
    7.7909    3.6684    8.1678 C   0  0  1  0  0  0  0  0  0  0  0  0
    7.5052    3.1242    9.5988 C   0  0  0  0  0  0  0  0  0  0  0  0
    6.5790    3.9391   10.3207 O   0  0  0  0  0  0  0  0  0  0  0  0
    8.9873    3.0181    7.4435 C   0  0  1  0  0  0  0  0  0  0  0  0
   10.1884    3.1420    8.1915 O   0  0  0  0  0  0  0  0  0  0  0  0
    8.7218    1.5673    7.0601 C   0  0  1  0  0  0  0  0  0  0  0  0
    8.6384    0.7746    8.2318 O   0  0  0  0  0  0  0  0  0  0  0  0
    7.4100    1.5148    6.2277 C   0  0  1  0  0  0  0  0  0  0  0  0
    7.0240    0.1966    5.9118 O   0  0  0  0  0  0  0  0  0  0  0  0
    3.7931    3.6012    7.7912 C   0  0  0  0  0  0  0  0  0  0  0  0
    2.3377    3.8770    8.1887 C   0  0  2  0  0  0  0  0  0  0  0  0
    1.8026    3.9656    9.5315 O   0  0  0  0  0  0  0  0  0  0  0  0
    0.6410    3.1910    9.0291 C   0  0  0  0  0  0  0  0  0  0  0  0
    1.5309    2.5994    7.9678 C   0  0  1  0  0  0  0  0  0  0  0  0
    2.2699    1.5018    8.5508 O   0  0  0  0  0  0  0  0  0  0  0  0
    3.3668    1.1443    7.8083 C   0  0  0  0  0  0  0  0  0  0  0  0
    3.7568   -0.1586    7.8996 C   0  0  0  0  0  0  0  0  0  0  0  0
    4.3157   -0.8336    6.7459 C   0  0  0  0  0  0  0  0  0  0  0  0
    5.2837   -1.6107    6.7627 O   0  0  0  0  0  0  0  0  0  0  0  0
    3.5605   -0.5335    5.6821 O   0  0  0  0  0  0  0  0  0  0  0  0
    3.7087   -0.9684    4.3385 C   0  0  1  0  0  0  0  0  0  0  0  0
    4.5260   -1.6759    1.1242 C   0  0  1  0  0  0  0  0  0  0  0  0
    5.9013   -1.2603    1.5795 C   0  0  0  0  0  0  0  0  0  0  0  0
    6.4535   -1.5661    0.2463 O   0  0  0  0  0  0  0  0  0  0  0  0
    5.2356   -1.9537   -0.2054 C   0  0  0  0  0  0  0  0  0  0  0  0
    4.8990   -2.3566   -1.3301 O   0  0  0  0  0  0  0  0  0  0  0  0
    3.1763   -4.9755    6.2247 H   0  0  0  0  0  0  0  0  0  0  0  0
    3.3756   -5.1097    4.4772 H   0  0  0  0  0  0  0  0  0  0  0  0
    1.8659   -4.4671    5.1629 H   0  0  0  0  0  0  0  0  0  0  0  0
    2.2153   -2.5405    3.8860 H   0  0  0  0  0  0  0  0  0  0  0  0
    3.6529   -3.6819    1.1370 H   0  0  0  0  0  0  0  0  0  0  0  0
    3.0232   -0.5767    0.1213 H   0  0  0  0  0  0  0  0  0  0  0  0
    4.0332    0.9026    2.0696 H   0  0  0  0  0  0  0  0  0  0  0  0
    2.3679    1.0419    1.7145 H   0  0  0  0  0  0  0  0  0  0  0  0
    3.0410    1.0153    4.0348 H   0  0  0  0  0  0  0  0  0  0  0  0
    1.2577    0.1138    6.5249 H   0  0  0  0  0  0  0  0  0  0  0  0
   -1.0481   -0.1115    6.6240 H   0  0  0  0  0  0  0  0  0  0  0  0
   -1.2329    1.6771    6.6093 H   0  0  0  0  0  0  0  0  0  0  0  0
   -1.2340   -0.0308    4.1694 H   0  0  0  0  0  0  0  0  0  0  0  0
    0.0061    2.3982    1.9463 H   0  0  0  0  0  0  0  0  0  0  0  0
    0.9485    3.7004    3.5829 H   0  0  0  0  0  0  0  0  0  0  0  0
   -1.9368    3.8515    4.5766 H   0  0  0  0  0  0  0  0  0  0  0  0
   -1.4441    4.0921    2.9044 H   0  0  0  0  0  0  0  0  0  0  0  0
   -0.9050    5.2264    4.1618 H   0  0  0  0  0  0  0  0  0  0  0  0
    1.1960    4.3916    5.7026 H   0  0  0  0  0  0  0  0  0  0  0  0
   -0.3167    3.7607    6.3129 H   0  0  0  0  0  0  0  0  0  0  0  0
    6.0620    1.6801    7.9430 H   0  0  0  0  0  0  0  0  0  0  0  0
    7.9923    4.7311    8.2192 H   0  0  0  0  0  0  0  0  0  0  0  0
    7.1432    2.0878    9.5746 H   0  0  0  0  0  0  0  0  0  0  0  0
    8.4296    3.1254   10.1792 H   0  0  0  0  0  0  0  0  0  0  0  0
    6.9514    4.8215   10.4848 H   0  0  0  0  0  0  0  0  0  0  0  0
    9.1606    3.5783    6.5205 H   0  0  0  0  0  0  0  0  0  0  0  0
   10.1144    2.6708    9.0335 H   0  0  0  0  0  0  0  0  0  0  0  0
    9.5901    1.2444    6.4885 H   0  0  0  0  0  0  0  0  0  0  0  0
    9.5234    0.6867    8.6145 H   0  0  0  0  0  0  0  0  0  0  0  0
    7.6075    2.0775    5.2905 H   0  0  0  0  0  0  0  0  0  0  0  0
    6.9648   -0.3071    6.7598 H   0  0  0  0  0  0  0  0  0  0  0  0
    4.3943    3.4497    8.6948 H   0  0  0  0  0  0  0  0  0  0  0  0
    4.1895    4.4639    7.2629 H   0  0  0  0  0  0  0  0  0  0  0  0
    1.9444    4.7268    7.6149 H   0  0  0  0  0  0  0  0  0  0  0  0
    0.2870    2.4509    9.7459 H   0  0  0  0  0  0  0  0  0  0  0  0
   -0.1627    3.8435    8.6530 H   0  0  0  0  0  0  0  0  0  0  0  0
    3.3146   -0.7643    8.6783 H   0  0  0  0  0  0  0  0  0  0  0  0
    4.7634   -0.8547    4.0953 H   0  0  0  0  0  0  0  0  0  0  0  0
    5.9639   -0.1997    1.8245 H   0  0  0  0  0  0  0  0  0  0  0  0
    6.3129   -1.8982    2.3752 H   0  0  0  0  0  0  0  0  0  0  0  0
  1  2  1  0
  1 52  1  0
  1 53  1  0
  1 54  1  0
  2  3  1  0
  3 46  1  0
  3  4  1  0
  3 55  1  6
  4  5  1  0
  5 47  1  0
  5  6  1  0
  5 56  1  6
  6  7  1  0
  7  8  1  0
  7 47  1  0
  7 57  1  6
  8  9  1  0
  8 58  1  0
  8 59  1  0
  9 46  1  0
  9 10  1  0
  9 60  1  1
 11 10  1  6
 11 14  1  0
 11 15  1  0
 11 12  1  0
 12 20  1  0
 12 13  1  0
 12 61  1  1
 13 14  1  0
 13 62  1  0
 13 63  1  0
 14 15  1  0
 14 64  1  1
 15 16  1  6
 15 17  1  0
 16 65  1  0
 17 18  1  0
 17 19  1  0
 17 66  1  6
 18 67  1  0
 18 68  1  0
 18 69  1  0
 20 19  1  6
 19 70  1  0
 19 71  1  0
 20 39  1  0
 20 21  1  0
 21 22  1  0
 22 41  1  0
 22 23  1  6
 22 35  1  0
 23 24  1  0
 24 33  1  0
 24 25  1  0
 24 72  1  1
 25 26  1  0
 26 27  1  0
 26 29  1  0
 26 73  1  1
 27 28  1  0
 27 74  1  0
 27 75  1  0
 28 76  1  0
 29 30  1  0
 29 31  1  0
 29 77  1  6
 30 78  1  0
 31 32  1  0
 31 33  1  0
 31 79  1  6
 32 80  1  0
 33 34  1  0
 33 81  1  6
 34 82  1  0
 35 36  1  0
 35 83  1  0
 35 84  1  0
 36 39  1  0
 36 37  1  0
 36 85  1  6
 37 38  1  0
 39 38  1  1
 38 86  1  0
 38 87  1  0
 39 40  1  0
 40 41  1  0
 41 42  2  3
 42 43  1  0
 42 88  1  0
 43 44  2  0
 43 45  1  0
 45 46  1  0
 46 89  1  6
 47 50  1  0
 47 48  1  1
 48 49  1  0
 48 90  1  0
 48 91  1  0
 49 50  1  0
 50 51  2  0
M  END
>  <i_m_ct_stereo_status>  (6) 
1

>  <s_m_source_file>  (6) 
/var/tmp/pbs.5076253.sched01/tmpeppn20qa/07bjoayft.sdf

>  <i_m_source_file_index>  (6) 
4

>  <i_lp_mmshare_version>  (6) 
48012

>  <i_f3d_flags>  (6) 
2

>  <s_epik_input>  (6) 
W0NIM11PW0NAQEhdMU9bQ0BASF0oTzIpW0NAXTMoW0NIMl1PQzM9TylbQ0BASF0yW0NIMl1bQ0BASF0oTzQpW0NASF0xT0MoPU8pXFtDSF09QyhPNSlcW0NAXShPNikoT1tDQEBIXTdPW0NAQEhdKFtDSDJdW09IXSlbQ0BASF0oW09IXSlbQ0BASF0oW09IXSlbQ0BIXTdbT0hdKVtDSDJdW0NASF0oT1tDSDJdOClbQ0BAXTU4W0NAQF02KFtDQEBIXTlDMTI0KVtDSDJdW0NASF0oW0NIM10pW0NAXTIoW09IXSlbQ0BASF0xW0NIMl05

>  <s_epik_cmdline>  (6) 
J2VwaWtfcHl0aG9uJywgJy1waHQnLCAnMi4wJywgJy1waCcsICc3LjAnLCAnLXRuJywgJzgnLCAnLW1hJywgJzIwMCcsICctaW1hZScsICc8aW5maWxlLm1hZT4nLCAnLW9tYWUnLCAnPG91dGZpbGUubWFlPic=

>  <r_lp_tautomer_probability>  (6) 
1

>  <r_epik_Ionization_Penalty>  (6) 
8.10142e-06

>  <r_epik_Ionization_Penalty_Charging>  (6) 
0

>  <r_epik_Ionization_Penalty_Neutral>  (6) 
8.10142e-06

>  <r_epik_State_Penalty>  (6) 
-0

>  <r_epik_Charging_Adjusted_Penalty>  (6) 
0

>  <i_epik_Tot_Q>  (6) 
0

>  <i_epik_Tot_abs_Q>  (6) 
0

>  <s_epik_Chemistry_Notes>  (6) 
This compound has an ester and may undergo hydrolysis at high or low pH. This compound contains an acetal/aminal-like group ( X-CH(R)-Y where X, Y are N, S, or O) that may be acid/base labile, releasing an aldehyde.

>  <s_lp_Force_Field>  (6) 
OPLS3e

>  <r_lp_Energy>  (6) 
107.582

>  <b_lp_Chiralities_Consistent>  (6) 
0

>  <s_lp_Variant>  (6) 
2:0-2

>  <s_i_glide_gridfile>  (6) 
pfpi4k_grid

>  <i_i_glide_lignum>  (6) 
4

>  <i_i_glide_rotatable_bonds>  (6) 
9

>  <r_i_docking_score>  (6) 
-1.74324

>  <r_i_glide_ligand_efficiency>  (6) 
-0.0341811

>  <r_i_glide_ligand_efficiency_sa>  (6) 
-0.126758

>  <r_i_glide_ligand_efficiency_ln>  (6) 
-0.353467

>  <r_i_glide_gscore>  (6) 
-1.74324

>  <r_i_glide_lipo>  (6) 
-0.358456

>  <r_i_glide_hbond>  (6) 
0

>  <r_i_glide_metal>  (6) 
-0

>  <r_i_glide_rewards>  (6) 
-0.0307648

>  <r_i_glide_evdw>  (6) 
-28.3338

>  <r_i_glide_ecoul>  (6) 
-0.33892

>  <r_i_glide_erotb>  (6) 
0.122992

>  <r_i_glide_esite>  (6) 
-0.00947966

>  <r_i_glide_emodel>  (6) 
-29.5854

>  <r_i_glide_energy>  (6) 
-28.6728

>  <r_i_glide_einternal>  (6) 
1.30734

>  <r_i_glide_intrahb_reward>  (6) 
-0

>  <i_i_glide_confnum>  (6) 
1

>  <i_i_glide_posenum>  (6) 
34

>  <r_i_glide_eff_state_penalty>  (6) 
0

>  <ligand_id>  (6) 
2

>  <original_smiles>  (6) 
COC1OC2OC(CC3OC45C6CC4C5(O)C(C)CC64OC5(OC6OC(CO)C(O)C(O)C6O)CC6OCC64OC5=CC(=O)OC31)C21COC1=O

>  <smiles>  (6) 
[H]OC([H])([H])C1([H])OC([H])(OC23OC45C([H])([H])C([H])(C([H])([H])[H])C6(O[H])C7([H])C([H])([H])C4([H])C76OC4([H])C([H])([H])C6([H])OC([H])(OC([H])(OC([H])([H])[H])C4([H])OC(=O)C([H])=C2OC52C([H])([H])OC2([H])C3([H])[H])C62C(=O)OC2([H])[H])C([H])(O[H])C([H])(O[H])C1([H])O[H]

$$$$
12:0:0
     RDKit          3D

 68 80  0  0  1  0  0  0  0  0999 V2000
    2.9691    4.6545    5.2958 O   0  0  0  0  0  0  0  0  0  0  0  0
    2.1762    4.0980    6.0773 C   0  0  0  0  0  0  0  0  0  0  0  0
    0.9297    4.6563    6.4728 O   0  0  0  0  0  0  0  0  0  0  0  0
   -0.1308    3.9658    7.2361 C   0  0  2  0  0  0  0  0  0  0  0  0
   -0.7409    3.5676    8.5807 C   0  0  1  0  0  0  0  0  0  0  0  0
   -0.5675    2.2442    9.4414 C   0  0  1  0  0  0  0  0  0  0  0  0
   -1.6984    2.1864   10.4793 C   0  0  0  0  0  0  0  0  0  0  0  0
   -1.7127    3.3464   11.2849 O   0  0  0  0  0  0  0  0  0  0  0  0
   -0.5537    0.9144    8.8266 O   0  0  0  0  0  0  0  0  0  0  0  0
    0.5823    0.0438    9.0191 C   0  0  1  0  0  0  0  0  0  0  0  0
    0.1910   -1.3108    9.0271 O   0  0  0  0  0  0  0  0  0  0  0  0
    1.6635    0.3043    7.8976 C   0  0  1  0  0  0  0  0  0  0  0  0
    1.6722   -0.6622    6.9233 O   0  0  0  0  0  0  0  0  0  0  0  0
    2.0750    0.0645    5.7697 C   0  0  0  0  0  0  0  0  0  0  0  0
    1.5029    1.5628    5.9433 C   0  0  1  0  0  0  0  0  0  0  0  0
    0.2118    1.7376    4.8694 C   0  0  1  0  0  0  0  0  0  0  0  0
   -0.0459    0.4892    3.9451 C   0  0  0  0  0  0  0  0  0  0  0  0
   -0.9145    0.8586    2.8872 O   0  0  0  0  0  0  0  0  0  0  0  0
   -0.8553    2.2548    2.7207 C   0  0  1  0  0  0  0  0  0  0  0  0
   -2.1835    2.8607    3.2785 C   0  0  0  0  0  0  0  0  0  0  0  0
   -1.8950    3.3254    4.6715 C   0  0  1  0  0  0  0  0  0  0  0  0
   -2.8723    3.2839    5.7368 O   0  0  0  0  0  0  0  0  0  0  0  0
   -2.1754    2.1588    6.2654 C   0  0  0  0  0  0  0  0  0  0  0  0
   -1.1852    2.2182    5.3664 C   0  0  0  0  0  0  0  0  0  0  0  0
   -1.0864    4.4854    4.5544 O   0  0  0  0  0  0  0  0  0  0  0  0
    0.1070    4.1693    3.8168 C   0  0  0  0  0  0  0  0  0  0  0  0
    0.3572    2.6561    3.6035 C   0  0  1  0  0  0  0  0  0  0  0  0
    1.0174    1.3220    7.1923 O   0  0  0  0  0  0  0  0  0  0  0  0
    2.4679    2.7607    6.6523 C   0  0  2  0  0  0  0  0  0  0  0  0
    2.3685    3.2704    8.2402 C   0  0  1  0  0  0  0  0  0  0  0  0
    3.5463    3.4014    8.9968 O   0  0  0  0  0  0  0  0  0  0  0  0
    3.7599    2.5038   10.0808 C   0  0  1  0  0  0  0  0  0  0  0  0
    2.6770    1.6841   10.5314 O   0  0  0  0  0  0  0  0  0  0  0  0
    3.6700    1.0412    9.7152 C   0  0  1  0  0  0  0  0  0  0  0  0
    3.2671    0.4775    8.3224 C   0  0  1  0  0  0  0  0  0  0  0  0
    3.7259   -0.8512    8.5397 O   0  0  0  0  0  0  0  0  0  0  0  0
    4.2766    1.0167    7.2360 C   0  0  2  0  0  0  0  0  0  0  0  0
    4.9337    2.2885    7.3559 O   0  0  0  0  0  0  0  0  0  0  0  0
    3.8859    2.2220    6.3872 C   0  0  2  0  0  0  0  0  0  0  0  0
    1.7209    4.6108    8.6876 C   0  0  2  0  0  0  0  0  0  0  0  0
    0.8889    4.5564    9.7913 O   0  0  0  0  0  0  0  0  0  0  0  0
    0.1873    4.7380    8.5515 C   0  0  2  0  0  0  0  0  0  0  0  0
   -1.0031    4.3179    6.7156 H   0  0  0  0  0  0  0  0  0  0  0  0
   -1.8070    3.8028    8.5565 H   0  0  0  0  0  0  0  0  0  0  0  0
    0.3134    2.3408   10.0575 H   0  0  0  0  0  0  0  0  0  0  0  0
   -2.6663    2.0947    9.9865 H   0  0  0  0  0  0  0  0  0  0  0  0
   -1.5739    1.3150   11.1233 H   0  0  0  0  0  0  0  0  0  0  0  0
   -2.2068    3.1215   12.0761 H   0  0  0  0  0  0  0  0  0  0  0  0
    0.9780    0.2041   10.0173 H   0  0  0  0  0  0  0  0  0  0  0  0
    0.9178   -1.8103    9.3733 H   0  0  0  0  0  0  0  0  0  0  0  0
    3.1253   -0.0359    5.5108 H   0  0  0  0  0  0  0  0  0  0  0  0
    1.7412   -0.5932    4.9869 H   0  0  0  0  0  0  0  0  0  0  0  0
    0.8661    0.2041    3.4106 H   0  0  0  0  0  0  0  0  0  0  0  0
   -0.4341   -0.4154    4.4153 H   0  0  0  0  0  0  0  0  0  0  0  0
   -0.7025    2.5289    1.6860 H   0  0  0  0  0  0  0  0  0  0  0  0
   -2.5130    3.7116    2.6859 H   0  0  0  0  0  0  0  0  0  0  0  0
   -2.9869    2.1418    3.3000 H   0  0  0  0  0  0  0  0  0  0  0  0
   -2.5791    1.7424    7.1951 H   0  0  0  0  0  0  0  0  0  0  0  0
    0.2512    4.7923    2.9574 H   0  0  0  0  0  0  0  0  0  0  0  0
    0.9165    4.6409    4.2374 H   0  0  0  0  0  0  0  0  0  0  0  0
    1.2682    2.4671    3.0367 H   0  0  0  0  0  0  0  0  0  0  0  0
    1.7712    2.5868    8.7571 H   0  0  0  0  0  0  0  0  0  0  0  0
    4.4524    2.8640   10.8386 H   0  0  0  0  0  0  0  0  0  0  0  0
    4.4490    0.4935   10.2505 H   0  0  0  0  0  0  0  0  0  0  0  0
    4.6378   -0.8307    8.7886 H   0  0  0  0  0  0  0  0  0  0  0  0
    4.9178    0.2691    6.7686 H   0  0  0  0  0  0  0  0  0  0  0  0
    4.2399    2.2682    5.3526 H   0  0  0  0  0  0  0  0  0  0  0  0
    2.2627    5.5397    8.4830 H   0  0  0  0  0  0  0  0  0  0  0  0
  1  2  2  0
 29  2  1  6
  2  3  1  0
  3  4  1  0
  4 42  1  0
  4  5  1  0
  4 43  1  6
  5 42  1  0
  5  6  1  0
  5 44  1  6
  6  7  1  0
  6  9  1  0
  6 45  1  1
  7  8  1  0
  7 46  1  0
  7 47  1  0
  8 48  1  0
  9 10  1  0
 10 11  1  0
 10 12  1  0
 10 49  1  1
 11 50  1  0
 12 28  1  0
 12 35  1  0
 12 13  1  6
 13 14  1  0
 15 14  1  6
 14 51  1  0
 14 52  1  0
 15 16  1  0
 15 28  1  0
 15 29  1  0
 16 24  1  0
 16 27  1  0
 16 17  1  6
 17 18  1  0
 17 53  1  0
 17 54  1  0
 18 19  1  0
 19 27  1  0
 19 20  1  0
 19 55  1  6
 20 21  1  0
 20 56  1  0
 20 57  1  0
 21 24  1  0
 21 22  1  1
 21 25  1  0
 22 23  1  0
 23 24  2  0
 23 58  1  0
 25 26  1  0
 26 27  1  0
 26 59  1  0
 26 60  1  0
 27 61  1  6
 29 39  1  0
 29 30  1  0
 30 31  1  0
 30 40  1  0
 30 62  1  1
 31 32  1  0
 32 34  1  0
 32 33  1  0
 32 63  1  1
 33 34  1  0
 34 35  1  0
 34 64  1  1
 35 36  1  1
 35 37  1  0
 36 65  1  0
 37 39  1  0
 37 38  1  0
 37 66  1  6
 38 39  1  0
 39 67  1  6
 40 42  1  0
 40 41  1  0
 40 68  1  1
 42 41  1  6
M  END
>  <i_m_ct_stereo_status>  (7) 
1

>  <s_m_source_file>  (7) 
/var/tmp/pbs.5076253.sched01/tmpeppn20qa/07bjoayft.sdf

>  <i_m_source_file_index>  (7) 
13

>  <i_lp_mmshare_version>  (7) 
48012

>  <i_f3d_flags>  (7) 
2

>  <s_epik_input>  (7) 
W0NAQF0xMjNbQ0BdNChbT0hdKVtDQEBIXTVbQ0BASF0oTzUpT1tDQEBIXTZbQ0BAXShbQ0BASF03W0NASF00TzcpKFtDQF0oTzMpKFtDSDJdTzIpW0NAQF04KEMoW0NAQF0yMzkpPVtDSF1PMilbQ0BIXShbQ0gyXU8zKVtDQEhdKFtDSDJdOSlPW0NIMl04KUMoPU8pT1tDQEBIXTJDMyhbQ0BIXTZPMylbQ0BASF0yW0NAQEhdKFtDSDJdW09IXSlPW0NASF0xW09IXQ==

>  <s_epik_cmdline>  (7) 
J2VwaWtfcHl0aG9uJywgJy1waHQnLCAnMi4wJywgJy1waCcsICc3LjAnLCAnLXRuJywgJzgnLCAnLW1hJywgJzIwMCcsICctaW1hZScsICc8aW5maWxlLm1hZT4nLCAnLW9tYWUnLCAnPG91dGZpbGUubWFlPic=

>  <r_lp_tautomer_probability>  (7) 
1

>  <r_epik_Ionization_Penalty>  (7) 
0.000149423

>  <r_epik_Ionization_Penalty_Charging>  (7) 
0

>  <r_epik_Ionization_Penalty_Neutral>  (7) 
0.000149423

>  <r_epik_State_Penalty>  (7) 
-0

>  <r_epik_Charging_Adjusted_Penalty>  (7) 
0

>  <i_epik_Tot_Q>  (7) 
0

>  <i_epik_Tot_abs_Q>  (7) 
0

>  <s_epik_Chemistry_Notes>  (7) 
This compound has an ester and may undergo hydrolysis at high or low pH. This compound contains an acetal/aminal-like group ( X-CH(R)-Y where X, Y are N, S, or O) that may be acid/base labile, releasing an aldehyde.

>  <s_lp_Force_Field>  (7) 
OPLS3e

>  <r_lp_Energy>  (7) 
290.475

>  <b_lp_Chiralities_Consistent>  (7) 
0

>  <s_lp_Variant>  (7) 
12:0-1

>  <s_i_glide_gridfile>  (7) 
pfpi4k_grid

>  <i_i_glide_lignum>  (7) 
13

>  <i_i_glide_rotatable_bonds>  (7) 
5

>  <r_i_docking_score>  (7) 
-1.32116

>  <r_i_glide_ligand_efficiency>  (7) 
-0.0314562

>  <r_i_glide_ligand_efficiency_sa>  (7) 
-0.109343

>  <r_i_glide_ligand_efficiency_ln>  (7) 
-0.278863

>  <r_i_glide_gscore>  (7) 
-1.32116

>  <r_i_glide_lipo>  (7) 
-0.0233402

>  <r_i_glide_hbond>  (7) 
-0.0130737

>  <r_i_glide_metal>  (7) 
-0

>  <r_i_glide_rewards>  (7) 
0

>  <r_i_glide_evdw>  (7) 
-18.92

>  <r_i_glide_ecoul>  (7) 
-7.80406

>  <r_i_glide_erotb>  (7) 
0.0114335

>  <r_i_glide_esite>  (7) 
-0.0525264

>  <r_i_glide_emodel>  (7) 
-17.5278

>  <r_i_glide_energy>  (7) 
-26.7241

>  <r_i_glide_einternal>  (7) 
12.8568

>  <r_i_glide_intrahb_reward>  (7) 
-0

>  <i_i_glide_confnum>  (7) 
4

>  <i_i_glide_posenum>  (7) 
2

>  <r_i_glide_eff_state_penalty>  (7) 
0

>  <ligand_id>  (7) 
12

>  <original_smiles>  (7) 
O=C1OC2C3C(CO)OC(O)C45OCC(C67COC8CC9(OC=C96)OCC87)(O4)C14C(OC1OC1C5(O)C1OC14)C1OC213

>  <smiles>  (7) 
[H]OC([H])([H])C1([H])OC([H])(O[H])C23OC([H])([H])C(C45C6=C([H])OC67OC([H])([H])C4([H])C([H])(OC5([H])[H])C7([H])[H])(O2)C24C(=O)OC5([H])C1([H])C51OC1([H])C2([H])OC1([H])OC1([H])C3(O[H])C1([H])OC14[H]

$$$$
12:0:1
     RDKit          3D

 68 80  0  0  1  0  0  0  0  0999 V2000
    2.9403    4.7453    5.3427 O   0  0  0  0  0  0  0  0  0  0  0  0
    2.1448    4.1798    6.1024 C   0  0  0  0  0  0  0  0  0  0  0  0
    0.8840    4.7178    6.4846 O   0  0  0  0  0  0  0  0  0  0  0  0
   -0.1705    4.0189    7.2422 C   0  0  2  0  0  0  0  0  0  0  0  0
   -0.7901    3.6114    8.5842 C   0  0  1  0  0  0  0  0  0  0  0  0
   -0.6094    2.2928    9.4468 C   0  0  1  0  0  0  0  0  0  0  0  0
   -1.7504    2.2145   10.4693 C   0  0  0  0  0  0  0  0  0  0  0  0
   -1.7828    3.3665   11.2837 O   0  0  0  0  0  0  0  0  0  0  0  0
   -0.5687    0.9598    8.8358 O   0  0  0  0  0  0  0  0  0  0  0  0
    0.5781    0.1082    9.0433 C   0  0  1  0  0  0  0  0  0  0  0  0
    0.2087   -1.2544    9.0478 O   0  0  0  0  0  0  0  0  0  0  0  0
    1.6672    0.3810    7.9328 C   0  0  1  0  0  0  0  0  0  0  0  0
    1.7111   -0.5902    6.9646 O   0  0  0  0  0  0  0  0  0  0  0  0
    2.1053    0.1428    5.8105 C   0  0  0  0  0  0  0  0  0  0  0  0
    1.5069    1.6336    5.9731 C   0  0  1  0  0  0  0  0  0  0  0  0
    0.2266    1.7849    4.8849 C   0  0  1  0  0  0  0  0  0  0  0  0
   -0.0132    0.5251    3.9719 C   0  0  0  0  0  0  0  0  0  0  0  0
   -0.8735    0.8746    2.9019 O   0  0  0  0  0  0  0  0  0  0  0  0
   -0.8233    2.2698    2.7193 C   0  0  1  0  0  0  0  0  0  0  0  0
   -2.1622    2.8695    3.2567 C   0  0  0  0  0  0  0  0  0  0  0  0
   -1.8921    3.3478    4.6485 C   0  0  1  0  0  0  0  0  0  0  0  0
   -2.8814    3.3032    5.7010 O   0  0  0  0  0  0  0  0  0  0  0  0
   -2.1740    2.1919    6.2563 C   0  0  0  0  0  0  0  0  0  0  0  0
   -1.1772    2.2569    5.3554 C   0  0  0  0  0  0  0  0  0  0  0  0
   -1.0905    4.5173    4.5327 O   0  0  0  0  0  0  0  0  0  0  0  0
    0.1138    4.2078    3.8060 C   0  0  0  0  0  0  0  0  0  0  0  0
    0.3772    2.6933    3.6102 C   0  0  1  0  0  0  0  0  0  0  0  0
    1.0120    1.3865    7.2174 O   0  0  0  0  0  0  0  0  0  0  0  0
    2.4474    2.8439    6.6910 C   0  0  2  0  0  0  0  0  0  0  0  0
    2.3228    3.3599    8.2763 C   0  0  1  0  0  0  0  0  0  0  0  0
    3.4906    3.5091    9.0442 O   0  0  0  0  0  0  0  0  0  0  0  0
    3.7108    2.6161   10.1333 C   0  0  1  0  0  0  0  0  0  0  0  0
    2.6305    1.7832   10.5728 O   0  0  0  0  0  0  0  0  0  0  0  0
    3.6424    1.1485    9.7674 C   0  0  1  0  0  0  0  0  0  0  0  0
    3.2624    0.5803    8.3736 C   0  0  1  0  0  0  0  0  0  0  0  0
    3.7455   -0.7405    8.5870 O   0  0  0  0  0  0  0  0  0  0  0  0
    4.2765    1.1304    7.2983 C   0  0  2  0  0  0  0  0  0  0  0  0
    4.9127    2.4149    7.4210 O   0  0  0  0  0  0  0  0  0  0  0  0
    3.8741    2.3292    6.4405 C   0  0  2  0  0  0  0  0  0  0  0  0
    1.6532    4.6885    8.7112 C   0  0  2  0  0  0  0  0  0  0  0  0
    0.8097    4.6249    9.8105 O   0  0  0  0  0  0  0  0  0  0  0  0
    0.1176    4.7945    8.5595 C   0  0  2  0  0  0  0  0  0  0  0  0
   -1.0400    4.3611    6.7090 H   0  0  0  0  0  0  0  0  0  0  0  0
   -1.8607    3.8302    8.5464 H   0  0  0  0  0  0  0  0  0  0  0  0
    0.2639    2.4007   10.0738 H   0  0  0  0  0  0  0  0  0  0  0  0
   -2.7132    2.1230    9.9704 H   0  0  0  0  0  0  0  0  0  0  0  0
   -1.6263    1.3460   11.1138 H   0  0  0  0  0  0  0  0  0  0  0  0
   -2.2342    3.1259   12.0861 H   0  0  0  0  0  0  0  0  0  0  0  0
    0.9598    0.2759   10.0453 H   0  0  0  0  0  0  0  0  0  0  0  0
    0.9335   -1.7405    9.4122 H   0  0  0  0  0  0  0  0  0  0  0  0
    3.1591    0.0593    5.5613 H   0  0  0  0  0  0  0  0  0  0  0  0
    1.7899   -0.5238    5.0274 H   0  0  0  0  0  0  0  0  0  0  0  0
    0.9038    0.2437    3.4447 H   0  0  0  0  0  0  0  0  0  0  0  0
   -0.3966   -0.3769    4.4507 H   0  0  0  0  0  0  0  0  0  0  0  0
   -0.6621    2.5335    1.6839 H   0  0  0  0  0  0  0  0  0  0  0  0
   -2.4928    3.7125    2.6524 H   0  0  0  0  0  0  0  0  0  0  0  0
   -2.9584    2.1457    3.2791 H   0  0  0  0  0  0  0  0  0  0  0  0
   -2.5860    1.7894    7.1783 H   0  0  0  0  0  0  0  0  0  0  0  0
    0.2573    4.8192    2.9362 H   0  0  0  0  0  0  0  0  0  0  0  0
    0.9145    4.6892    4.2342 H   0  0  0  0  0  0  0  0  0  0  0  0
    1.2972    2.5040    3.0564 H   0  0  0  0  0  0  0  0  0  0  0  0
    1.7305    2.6661    8.7882 H   0  0  0  0  0  0  0  0  0  0  0  0
    4.3860    2.9878   10.8967 H   0  0  0  0  0  0  0  0  0  0  0  0
    4.4237    0.6133   10.3112 H   0  0  0  0  0  0  0  0  0  0  0  0
    3.7287   -1.2027    7.7612 H   0  0  0  0  0  0  0  0  0  0  0  0
    4.9351    0.3937    6.8397 H   0  0  0  0  0  0  0  0  0  0  0  0
    4.2406    2.3771    5.4115 H   0  0  0  0  0  0  0  0  0  0  0  0
    2.1820    5.6260    8.5126 H   0  0  0  0  0  0  0  0  0  0  0  0
  1  2  2  0
 29  2  1  6
  2  3  1  0
  3  4  1  0
  4 42  1  0
  4  5  1  0
  4 43  1  6
  5 42  1  0
  5  6  1  0
  5 44  1  6
  6  7  1  0
  6  9  1  0
  6 45  1  1
  7  8  1  0
  7 46  1  0
  7 47  1  0
  8 48  1  0
  9 10  1  0
 10 11  1  0
 10 12  1  0
 10 49  1  1
 11 50  1  0
 12 28  1  0
 12 35  1  0
 12 13  1  6
 13 14  1  0
 15 14  1  6
 14 51  1  0
 14 52  1  0
 15 16  1  0
 15 28  1  0
 15 29  1  0
 16 24  1  0
 16 27  1  0
 16 17  1  6
 17 18  1  0
 17 53  1  0
 17 54  1  0
 18 19  1  0
 19 27  1  0
 19 20  1  0
 19 55  1  6
 20 21  1  0
 20 56  1  0
 20 57  1  0
 21 24  1  0
 21 22  1  1
 21 25  1  0
 22 23  1  0
 23 24  2  0
 23 58  1  0
 25 26  1  0
 26 27  1  0
 26 59  1  0
 26 60  1  0
 27 61  1  6
 29 39  1  0
 29 30  1  0
 30 31  1  0
 30 40  1  0
 30 62  1  1
 31 32  1  0
 32 34  1  0
 32 33  1  0
 32 63  1  1
 33 34  1  0
 34 35  1  0
 34 64  1  1
 35 36  1  1
 35 37  1  0
 36 65  1  0
 37 39  1  0
 37 38  1  0
 37 66  1  6
 38 39  1  0
 39 67  1  6
 40 42  1  0
 40 41  1  0
 40 68  1  1
 42 41  1  6
M  END
>  <i_m_ct_stereo_status>  (8) 
1

>  <s_m_source_file>  (8) 
/var/tmp/pbs.5076253.sched01/tmpeppn20qa/07bjoayft.sdf

>  <i_m_source_file_index>  (8) 
13

>  <i_lp_mmshare_version>  (8) 
48012

>  <i_f3d_flags>  (8) 
2

>  <s_epik_input>  (8) 
W0NAQF0xMjNbQ0BdNChbT0hdKVtDQEBIXTVbQ0BASF0oTzUpT1tDQEBIXTZbQ0BAXShbQ0BASF03W0NASF00TzcpKFtDQF0oTzMpKFtDSDJdTzIpW0NAQF04KEMoW0NAQF0yMzkpPVtDSF1PMilbQ0BIXShbQ0gyXU8zKVtDQEhdKFtDSDJdOSlPW0NIMl04KUMoPU8pT1tDQEBIXTJDMyhbQ0BIXTZPMylbQ0BASF0yW0NAQEhdKFtDSDJdW09IXSlPW0NASF0xW09IXQ==

>  <s_epik_cmdline>  (8) 
J2VwaWtfcHl0aG9uJywgJy1waHQnLCAnMi4wJywgJy1waCcsICc3LjAnLCAnLXRuJywgJzgnLCAnLW1hJywgJzIwMCcsICctaW1hZScsICc8aW5maWxlLm1hZT4nLCAnLW9tYWUnLCAnPG91dGZpbGUubWFlPic=

>  <r_lp_tautomer_probability>  (8) 
1

>  <r_epik_Ionization_Penalty>  (8) 
0.000149423

>  <r_epik_Ionization_Penalty_Charging>  (8) 
0

>  <r_epik_Ionization_Penalty_Neutral>  (8) 
0.000149423

>  <r_epik_State_Penalty>  (8) 
-0

>  <r_epik_Charging_Adjusted_Penalty>  (8) 
0

>  <i_epik_Tot_Q>  (8) 
0

>  <i_epik_Tot_abs_Q>  (8) 
0

>  <s_epik_Chemistry_Notes>  (8) 
This compound has an ester and may undergo hydrolysis at high or low pH. This compound contains an acetal/aminal-like group ( X-CH(R)-Y where X, Y are N, S, or O) that may be acid/base labile, releasing an aldehyde.

>  <s_lp_Force_Field>  (8) 
OPLS3e

>  <r_lp_Energy>  (8) 
290.475

>  <b_lp_Chiralities_Consistent>  (8) 
0

>  <s_lp_Variant>  (8) 
12:0-1

>  <s_i_glide_gridfile>  (8) 
pfpi4k_grid

>  <i_i_glide_lignum>  (8) 
13

>  <i_i_glide_rotatable_bonds>  (8) 
5

>  <r_i_docking_score>  (8) 
-1.2928

>  <r_i_glide_ligand_efficiency>  (8) 
-0.030781

>  <r_i_glide_ligand_efficiency_sa>  (8) 
-0.106996

>  <r_i_glide_ligand_efficiency_ln>  (8) 
-0.272877

>  <r_i_glide_gscore>  (8) 
-1.2928

>  <r_i_glide_lipo>  (8) 
-0.0284099

>  <r_i_glide_hbond>  (8) 
-0.0209694

>  <r_i_glide_metal>  (8) 
-0

>  <r_i_glide_rewards>  (8) 
0

>  <r_i_glide_evdw>  (8) 
-19.1386

>  <r_i_glide_ecoul>  (8) 
-7.95719

>  <r_i_glide_erotb>  (8) 
0.0114335

>  <r_i_glide_esite>  (8) 
-0.0526867

>  <r_i_glide_emodel>  (8) 
-17.6423

>  <r_i_glide_energy>  (8) 
-27.0958

>  <r_i_glide_einternal>  (8) 
12.9708

>  <r_i_glide_intrahb_reward>  (8) 
-0

>  <i_i_glide_confnum>  (8) 
4

>  <i_i_glide_posenum>  (8) 
13

>  <r_i_glide_eff_state_penalty>  (8) 
0

>  <ligand_id>  (8) 
12

>  <original_smiles>  (8) 
O=C1OC2C3C(CO)OC(O)C45OCC(C67COC8CC9(OC=C96)OCC87)(O4)C14C(OC1OC1C5(O)C1OC14)C1OC213

>  <smiles>  (8) 
[H]OC([H])([H])C1([H])OC([H])(O[H])C23OC([H])([H])C(C45C6=C([H])OC67OC([H])([H])C4([H])C([H])(OC5([H])[H])C7([H])[H])(O2)C24C(=O)OC5([H])C1([H])C51OC1([H])C2([H])OC1([H])OC1([H])C3(O[H])C1([H])OC14[H]

$$$$
12:0:2
     RDKit          3D

 68 80  0  0  1  0  0  0  0  0999 V2000
    0.9232   -6.2493    0.9155 O   0  0  0  0  0  0  0  0  0  0  0  0
    2.0195   -6.2854    1.4448 C   0  0  0  0  0  0  0  0  0  0  0  0
    3.0651   -7.0618    0.9704 O   0  0  0  0  0  0  0  0  0  0  0  0
    4.4823   -7.0550    1.4588 C   0  0  2  0  0  0  0  0  0  0  0  0
    5.5952   -7.4943    2.4728 C   0  0  1  0  0  0  0  0  0  0  0  0
    6.0820   -6.8945    3.8605 C   0  0  1  0  0  0  0  0  0  0  0  0
    7.5015   -7.4162    4.1138 C   0  0  0  0  0  0  0  0  0  0  0  0
    7.5000   -8.8310    4.1764 O   0  0  0  0  0  0  0  0  0  0  0  0
    6.2094   -5.4667    4.1111 O   0  0  0  0  0  0  0  0  0  0  0  0
    5.4951   -4.8268    5.1857 C   0  0  1  0  0  0  0  0  0  0  0  0
    6.2079   -3.7265    5.7094 O   0  0  0  0  0  0  0  0  0  0  0  0
    4.0666   -4.3506    4.6996 C   0  0  1  0  0  0  0  0  0  0  0  0
    3.9727   -2.9877    4.4907 O   0  0  0  0  0  0  0  0  0  0  0  0
    3.0447   -2.8777    3.4020 C   0  0  0  0  0  0  0  0  0  0  0  0
    3.2278   -4.2061    2.5272 C   0  0  1  0  0  0  0  0  0  0  0  0
    3.9726   -3.7178    1.1113 C   0  0  1  0  0  0  0  0  0  0  0  0
    3.0140   -3.4124   -0.0879 C   0  0  0  0  0  0  0  0  0  0  0  0
    3.8002   -3.3805   -1.2859 O   0  0  0  0  0  0  0  0  0  0  0  0
    5.0373   -4.0500   -1.0774 C   0  0  1  0  0  0  0  0  0  0  0  0
    6.1957   -3.0304   -0.9434 C   0  0  0  0  0  0  0  0  0  0  0  0
    6.4176   -2.7799    0.5586 C   0  0  1  0  0  0  0  0  0  0  0  0
    6.7991   -1.4792    1.0704 O   0  0  0  0  0  0  0  0  0  0  0  0
    5.4789   -1.3972    1.6203 C   0  0  0  0  0  0  0  0  0  0  0  0
    5.1098   -2.6362    1.2365 C   0  0  0  0  0  0  0  0  0  0  0  0
    7.0789   -3.9142    1.0696 O   0  0  0  0  0  0  0  0  0  0  0  0
    6.2347   -5.0350    0.8986 C   0  0  0  0  0  0  0  0  0  0  0  0
    4.8180   -4.7079    0.2646 C   0  0  1  0  0  0  0  0  0  0  0  0
    4.1443   -4.7481    3.3711 O   0  0  0  0  0  0  0  0  0  0  0  0
    2.2928   -5.5966    2.7949 C   0  0  2  0  0  0  0  0  0  0  0  0
    2.7692   -6.9410    3.6705 C   0  0  1  0  0  0  0  0  0  0  0  0
    1.9310   -7.4794    4.6631 O   0  0  0  0  0  0  0  0  0  0  0  0
    2.3607   -7.4026    6.0272 C   0  0  1  0  0  0  0  0  0  0  0  0
    3.7137   -7.0203    6.3374 O   0  0  0  0  0  0  0  0  0  0  0  0
    2.6998   -6.0045    6.5015 C   0  0  1  0  0  0  0  0  0  0  0  0
    2.7337   -4.7385    5.6119 C   0  0  1  0  0  0  0  0  0  0  0  0
    2.7203   -3.7751    6.6608 O   0  0  0  0  0  0  0  0  0  0  0  0
    1.3170   -4.5170    4.9675 C   0  0  2  0  0  0  0  0  0  0  0  0
    0.4366   -5.6164    4.6545 O   0  0  0  0  0  0  0  0  0  0  0  0
    1.0668   -4.9913    3.5284 C   0  0  2  0  0  0  0  0  0  0  0  0
    3.1308   -8.3079    3.0400 C   0  0  2  0  0  0  0  0  0  0  0  0
    4.2286   -8.9766    3.5797 O   0  0  0  0  0  0  0  0  0  0  0  0
    4.4299   -8.4012    2.2635 C   0  0  2  0  0  0  0  0  0  0  0  0
    5.0045   -7.0934    0.4679 H   0  0  0  0  0  0  0  0  0  0  0  0
    6.4738   -7.6781    1.8338 H   0  0  0  0  0  0  0  0  0  0  0  0
    5.5091   -7.3134    4.6634 H   0  0  0  0  0  0  0  0  0  0  0  0
    8.2054   -7.0955    3.3358 H   0  0  0  0  0  0  0  0  0  0  0  0
    7.8869   -7.0230    5.0591 H   0  0  0  0  0  0  0  0  0  0  0  0
    7.1736   -9.1518    3.3512 H   0  0  0  0  0  0  0  0  0  0  0  0
    5.4487   -5.5232    6.0154 H   0  0  0  0  0  0  0  0  0  0  0  0
    6.1864   -3.0329    5.0660 H   0  0  0  0  0  0  0  0  0  0  0  0
    2.0411   -2.6484    3.7465 H   0  0  0  0  0  0  0  0  0  0  0  0
    3.2575   -1.9375    2.9062 H   0  0  0  0  0  0  0  0  0  0  0  0
    2.3104   -4.2382   -0.2142 H   0  0  0  0  0  0  0  0  0  0  0  0
    2.4064   -2.5106   -0.0224 H   0  0  0  0  0  0  0  0  0  0  0  0
    5.2467   -4.8097   -1.8333 H   0  0  0  0  0  0  0  0  0  0  0  0
    7.1185   -3.4373   -1.3972 H   0  0  0  0  0  0  0  0  0  0  0  0
    5.9333   -2.1085   -1.4592 H   0  0  0  0  0  0  0  0  0  0  0  0
    5.2310   -0.4581    2.0784 H   0  0  0  0  0  0  0  0  0  0  0  0
    6.7455   -5.8374    0.3646 H   0  0  0  0  0  0  0  0  0  0  0  0
    6.0847   -5.3118    1.9169 H   0  0  0  0  0  0  0  0  0  0  0  0
    4.1993   -5.5092   -0.1199 H   0  0  0  0  0  0  0  0  0  0  0  0
    3.6780   -6.7053    4.1396 H   0  0  0  0  0  0  0  0  0  0  0  0
    1.9290   -8.1180    6.6984 H   0  0  0  0  0  0  0  0  0  0  0  0
    2.3608   -5.8643    7.5233 H   0  0  0  0  0  0  0  0  0  0  0  0
    2.7734   -2.9123    6.2800 H   0  0  0  0  0  0  0  0  0  0  0  0
    0.7620   -3.6441    5.3119 H   0  0  0  0  0  0  0  0  0  0  0  0
    0.3736   -4.4022    2.9320 H   0  0  0  0  0  0  0  0  0  0  0  0
    2.3137   -8.9345    2.6352 H   0  0  0  0  0  0  0  0  0  0  0  0
  1  2  2  0
 29  2  1  6
  2  3  1  0
  3  4  1  0
  4 42  1  0
  4  5  1  0
  4 43  1  6
  5 42  1  0
  5  6  1  0
  5 44  1  6
  6  7  1  0
  6  9  1  0
  6 45  1  1
  7  8  1  0
  7 46  1  0
  7 47  1  0
  8 48  1  0
  9 10  1  0
 10 11  1  0
 10 12  1  0
 10 49  1  1
 11 50  1  0
 12 28  1  0
 12 35  1  0
 12 13  1  6
 13 14  1  0
 15 14  1  1
 14 51  1  0
 14 52  1  0
 15 16  1  0
 15 28  1  0
 15 29  1  0
 16 24  1  0
 16 27  1  0
 16 17  1  6
 17 18  1  0
 17 53  1  0
 17 54  1  0
 18 19  1  0
 19 27  1  0
 19 20  1  0
 19 55  1  6
 20 21  1  0
 20 56  1  0
 20 57  1  0
 21 24  1  0
 21 22  1  6
 21 25  1  0
 22 23  1  0
 23 24  2  0
 23 58  1  0
 25 26  1  0
 26 27  1  0
 26 59  1  0
 26 60  1  0
 27 61  1  6
 29 39  1  0
 29 30  1  0
 30 31  1  0
 30 40  1  0
 30 62  1  1
 31 32  1  0
 32 34  1  0
 32 33  1  0
 32 63  1  1
 33 34  1  0
 34 35  1  0
 34 64  1  1
 35 36  1  1
 35 37  1  0
 36 65  1  0
 37 39  1  0
 37 38  1  0
 37 66  1  6
 38 39  1  0
 39 67  1  6
 40 42  1  0
 40 41  1  0
 40 68  1  6
 42 41  1  6
M  END
>  <i_m_ct_stereo_status>  (9) 
1

>  <s_m_source_file>  (9) 
/var/tmp/pbs.5076253.sched01/tmpeppn20qa/07bjoayft.sdf

>  <i_m_source_file_index>  (9) 
13

>  <i_lp_mmshare_version>  (9) 
48012

>  <i_f3d_flags>  (9) 
2

>  <s_epik_input>  (9) 
W0NAQF0xMjNbQ0BdNChbT0hdKVtDQEBIXTVbQ0BASF0oTzUpT1tDQEBIXTZbQ0BAXShbQ0BASF03W0NASF00TzcpKFtDQF0oTzMpKFtDSDJdTzIpW0NAQF04KEMoW0NAQF0yMzkpPVtDSF1PMilbQ0BIXShbQ0gyXU8zKVtDQEhdKFtDSDJdOSlPW0NIMl04KUMoPU8pT1tDQEBIXTJDMyhbQ0BIXTZPMylbQ0BASF0yW0NAQEhdKFtDSDJdW09IXSlPW0NASF0xW09IXQ==

>  <s_epik_cmdline>  (9) 
J2VwaWtfcHl0aG9uJywgJy1waHQnLCAnMi4wJywgJy1waCcsICc3LjAnLCAnLXRuJywgJzgnLCAnLW1hJywgJzIwMCcsICctaW1hZScsICc8aW5maWxlLm1hZT4nLCAnLW9tYWUnLCAnPG91dGZpbGUubWFlPic=

>  <r_lp_tautomer_probability>  (9) 
1

>  <r_epik_Ionization_Penalty>  (9) 
0.000149423

>  <r_epik_Ionization_Penalty_Charging>  (9) 
0

>  <r_epik_Ionization_Penalty_Neutral>  (9) 
0.000149423

>  <r_epik_State_Penalty>  (9) 
-0

>  <r_epik_Charging_Adjusted_Penalty>  (9) 
0

>  <i_epik_Tot_Q>  (9) 
0

>  <i_epik_Tot_abs_Q>  (9) 
0

>  <s_epik_Chemistry_Notes>  (9) 
This compound has an ester and may undergo hydrolysis at high or low pH. This compound contains an acetal/aminal-like group ( X-CH(R)-Y where X, Y are N, S, or O) that may be acid/base labile, releasing an aldehyde.

>  <s_lp_Force_Field>  (9) 
OPLS3e

>  <r_lp_Energy>  (9) 
290.475

>  <b_lp_Chiralities_Consistent>  (9) 
0

>  <s_lp_Variant>  (9) 
12:0-1

>  <s_i_glide_gridfile>  (9) 
pfpi4k_grid

>  <i_i_glide_lignum>  (9) 
13

>  <i_i_glide_rotatable_bonds>  (9) 
5

>  <r_i_docking_score>  (9) 
-1.02001

>  <r_i_glide_ligand_efficiency>  (9) 
-0.0242859

>  <r_i_glide_ligand_efficiency_sa>  (9) 
-0.0844183

>  <r_i_glide_ligand_efficiency_ln>  (9) 
-0.215297

>  <r_i_glide_gscore>  (9) 
-1.02001

>  <r_i_glide_lipo>  (9) 
-0.465564

>  <r_i_glide_hbond>  (9) 
-0.16

>  <r_i_glide_metal>  (9) 
-0

>  <r_i_glide_rewards>  (9) 
-0.117426

>  <r_i_glide_evdw>  (9) 
-22.5923

>  <r_i_glide_ecoul>  (9) 
-3.69442

>  <r_i_glide_erotb>  (9) 
0.0114335

>  <r_i_glide_esite>  (9) 
-0.0308875

>  <r_i_glide_emodel>  (9) 
-21.83

>  <r_i_glide_energy>  (9) 
-26.2867

>  <r_i_glide_einternal>  (9) 
0.0372724

>  <r_i_glide_intrahb_reward>  (9) 
-0

>  <i_i_glide_confnum>  (9) 
5

>  <i_i_glide_posenum>  (9) 
3

>  <r_i_glide_eff_state_penalty>  (9) 
0

>  <ligand_id>  (9) 
12

>  <original_smiles>  (9) 
O=C1OC2C3C(CO)OC(O)C45OCC(C67COC8CC9(OC=C96)OCC87)(O4)C14C(OC1OC1C5(O)C1OC14)C1OC213

>  <smiles>  (9) 
[H]OC([H])([H])C1([H])OC([H])(O[H])C23OC([H])([H])C(C45C6=C([H])OC67OC([H])([H])C4([H])C([H])(OC5([H])[H])C7([H])[H])(O2)C24C(=O)OC5([H])C1([H])C51OC1([H])C2([H])OC1([H])OC1([H])C3(O[H])C1([H])OC14[H]

$$$$
17:0:0
     RDKit          3D

 68 74  0  0  1  0  0  0  0  0999 V2000
    4.3305   -7.8063    0.8555 C   0  0  0  0  0  0  0  0  0  0  0  0
    4.8062   -6.8666    1.9414 C   0  0  0  0  0  0  0  0  0  0  0  0
    5.8703   -7.0565    2.5330 O   0  0  0  0  0  0  0  0  0  0  0  0
    3.9374   -5.8722    2.1622 O   0  0  0  0  0  0  0  0  0  0  0  0
    4.1906   -4.9453    3.2091 C   0  0  0  0  0  0  0  0  0  0  0  0
    3.6227   -5.4308    4.5385 C   0  0  1  0  0  0  0  0  0  0  0  0
    4.0817   -6.7434    4.7704 O   0  0  0  0  0  0  0  0  0  0  0  0
    3.4641   -7.4757    5.8283 C   0  0  2  0  0  0  0  0  0  0  0  0
    4.5482   -7.8782    6.8706 C   0  0  1  0  0  0  0  0  0  0  0  0
    5.2135   -6.6862    7.5635 C   0  0  0  0  0  0  0  0  0  0  0  0
    3.9719   -8.6720    7.8928 O   0  0  0  0  0  0  0  0  0  0  0  0
    3.4731   -9.9016    7.4650 C   0  0  1  0  0  0  0  0  0  0  0  0
    3.0166  -10.6511    8.5559 O   0  0  0  0  0  0  0  0  0  0  0  0
    2.3353   -9.6479    6.4458 C   0  0  1  0  0  0  0  0  0  0  0  0
    1.2016   -9.0580    7.0627 O   0  0  0  0  0  0  0  0  0  0  0  0
    2.8421   -8.7757    5.2727 C   0  0  1  0  0  0  0  0  0  0  0  0
    1.7324   -8.5003    4.4440 O   0  0  0  0  0  0  0  0  0  0  0  0
    4.1984   -4.4850    5.6165 C   0  0  0  0  0  0  0  0  0  0  0  0
    3.4104   -3.5060    6.0543 C   0  0  0  0  0  0  0  0  0  0  0  0
    3.4992   -2.8583    7.2807 O   0  0  0  0  0  0  0  0  0  0  0  0
    2.0537   -2.7266    7.1305 C   0  0  0  0  0  0  0  0  0  0  0  0
    2.0983   -3.0596    5.6343 C   0  0  2  0  0  0  0  0  0  0  0  0
    1.4884   -4.1331    4.7237 C   0  0  1  0  0  0  0  0  0  0  0  0
    1.5693   -3.2116    3.5867 O   0  0  0  0  0  0  0  0  0  0  0  0
    2.1546   -2.1525    4.4087 C   0  0  1  0  0  0  0  0  0  0  0  0
    1.3015   -0.8709    4.4552 C   0  0  0  0  0  0  0  0  0  0  0  0
    1.7145    0.3031    3.9476 C   0  0  0  0  0  0  0  0  0  0  0  0
    0.6322    1.2096    4.1535 C   0  0  0  0  0  0  0  0  0  0  0  0
   -0.3230    0.6531    4.7666 C   0  0  0  0  0  0  0  0  0  0  0  0
   -0.1167   -0.7911    5.1487 C   0  0  1  0  0  0  0  0  0  0  0  0
   -0.9976   -1.5197    4.5042 O   0  0  0  0  0  0  0  0  0  0  0  0
   -1.2719    1.8136    5.0145 C   0  0  1  0  0  0  0  0  0  0  0  0
   -0.3638    2.9013    5.3686 O   0  0  0  0  0  0  0  0  0  0  0  0
    0.1834    2.6535    4.0399 C   0  0  2  0  0  0  0  0  0  0  0  0
   -1.3266    2.5470    3.6319 C   0  0  1  0  0  0  0  0  0  0  0  0
   -1.6340    1.7644    2.4986 O   0  0  0  0  0  0  0  0  0  0  0  0
   -2.1740    3.8312    3.4985 C   0  0  0  0  0  0  0  0  0  0  0  0
   -1.3982    4.9233    3.0418 O   0  0  0  0  0  0  0  0  0  0  0  0
    2.2103   -5.3765    4.5080 O   0  0  0  0  0  0  0  0  0  0  0  0
    3.3401   -8.1947    1.0932 H   0  0  0  0  0  0  0  0  0  0  0  0
    5.0188   -8.6431    0.7463 H   0  0  0  0  0  0  0  0  0  0  0  0
    4.2799   -7.2651   -0.0878 H   0  0  0  0  0  0  0  0  0  0  0  0
    5.2536   -4.7423    3.3169 H   0  0  0  0  0  0  0  0  0  0  0  0
    3.7379   -3.9926    2.9721 H   0  0  0  0  0  0  0  0  0  0  0  0
    2.6816   -6.9035    6.3387 H   0  0  0  0  0  0  0  0  0  0  0  0
    5.3563   -8.4332    6.3859 H   0  0  0  0  0  0  0  0  0  0  0  0
    5.9100   -6.3046    6.8290 H   0  0  0  0  0  0  0  0  0  0  0  0
    5.8788   -6.9123    8.3996 H   0  0  0  0  0  0  0  0  0  0  0  0
    4.4641   -5.9489    7.8887 H   0  0  0  0  0  0  0  0  0  0  0  0
    4.2991  -10.4588    7.0231 H   0  0  0  0  0  0  0  0  0  0  0  0
    2.3908  -11.3247    8.2083 H   0  0  0  0  0  0  0  0  0  0  0  0
    2.0266  -10.6259    6.0732 H   0  0  0  0  0  0  0  0  0  0  0  0
    0.9123   -9.6781    7.7207 H   0  0  0  0  0  0  0  0  0  0  0  0
    3.5791   -9.3305    4.6844 H   0  0  0  0  0  0  0  0  0  0  0  0
    1.0135   -8.2777    5.0273 H   0  0  0  0  0  0  0  0  0  0  0  0
    5.1406   -4.6374    6.0624 H   0  0  0  0  0  0  0  0  0  0  0  0
    1.4881   -3.4561    7.7047 H   0  0  0  0  0  0  0  0  0  0  0  0
    1.7280   -1.7113    7.3104 H   0  0  0  0  0  0  0  0  0  0  0  0
    0.4594   -4.3263    4.9927 H   0  0  0  0  0  0  0  0  0  0  0  0
    3.1850   -1.9308    4.0634 H   0  0  0  0  0  0  0  0  0  0  0  0
    2.6378    0.5350    3.4227 H   0  0  0  0  0  0  0  0  0  0  0  0
    0.0466   -0.8384    6.2290 H   0  0  0  0  0  0  0  0  0  0  0  0
   -2.1547    1.7354    5.6236 H   0  0  0  0  0  0  0  0  0  0  0  0
    0.8003    3.4309    3.6150 H   0  0  0  0  0  0  0  0  0  0  0  0
   -2.4837    1.3539    2.6279 H   0  0  0  0  0  0  0  0  0  0  0  0
   -3.0242    3.7057    2.8205 H   0  0  0  0  0  0  0  0  0  0  0  0
   -2.5792    4.0991    4.4695 H   0  0  0  0  0  0  0  0  0  0  0  0
   -0.8702    4.6331    2.2961 H   0  0  0  0  0  0  0  0  0  0  0  0
  1  2  1  0
  1 40  1  0
  1 41  1  0
  1 42  1  0
  2  3  2  0
  2  4  1  0
  4  5  1  0
  5  6  1  0
  5 43  1  0
  5 44  1  0
  6 39  1  0
  6  7  1  1
  6 18  1  0
  7  8  1  0
  8 16  1  0
  8  9  1  0
  8 45  1  1
  9 10  1  0
  9 11  1  0
  9 46  1  6
 10 47  1  0
 10 48  1  0
 10 49  1  0
 11 12  1  0
 12 13  1  0
 12 14  1  0
 12 50  1  6
 13 51  1  0
 14 15  1  0
 14 16  1  0
 14 52  1  6
 15 53  1  0
 16 17  1  0
 16 54  1  6
 17 55  1  0
 18 19  2  0
 18 56  1  0
 19 22  1  0
 19 20  1  0
 20 21  1  0
 22 21  1  1
 21 57  1  0
 21 58  1  0
 22 25  1  0
 22 23  1  0
 23 24  1  0
 23 39  1  0
 23 59  1  1
 24 25  1  0
 25 26  1  0
 25 60  1  6
 26 30  1  0
 26 27  2  0
 27 28  1  0
 27 61  1  0
 28 34  1  0
 28 29  2  0
 29 30  1  0
 29 32  1  0
 30 31  1  0
 30 62  1  1
 32 35  1  0
 32 33  1  0
 32 63  1  1
 33 34  1  0
 34 35  1  0
 34 64  1  6
 35 36  1  6
 35 37  1  0
 36 65  1  0
 37 38  1  0
 37 66  1  0
 37 67  1  0
 38 68  1  0
M  CHG  1  31  -1
M  END
>  <i_m_ct_stereo_status>  (10) 
1

>  <s_m_source_file>  (10) 
/var/tmp/pbs.5076253.sched01/tmpeppn20qa/07bjoayft.sdf

>  <i_m_source_file_index>  (10) 
20

>  <i_lp_mmshare_version>  (10) 
48012

>  <i_f3d_flags>  (10) 
0

>  <s_epik_input>  (10) 
W09IXVtDQEBIXTFbQ0BIXShbT0hdKVtDQEhdKFtPSF0pT1tDQEhdKFtDSDNdKVtDQEhdMU9bQ0BdKFtDSDJdT0MoPU8pW0NIM10pKFtDSF09QyhbQ0BdMjM0KU9bQ0gyXTIpT1tDQEBIXTNPW0NASF00Qyg9W0NIXTUpW0NASF0oW09IXSlDKD1DNTYpW0NASF03T1tDQEBIXTZbQ0BdNyhbT0hdKVtDSDJdW09IXQ==

>  <s_epik_cmdline>  (10) 
J2VwaWtfcHl0aG9uJywgJy1waHQnLCAnMi4wJywgJy1waCcsICc3LjAnLCAnLXRuJywgJzgnLCAnLW1hJywgJzIwMCcsICctaW1hZScsICc8aW5maWxlLm1hZT4nLCAnLW9tYWUnLCAnPG91dGZpbGUubWFlPic=

>  <r_lp_tautomer_probability>  (10) 
1

>  <r_epik_Ionization_Penalty>  (10) 
5.70635e-06

>  <r_epik_Ionization_Penalty_Charging>  (10) 
9.21908e-12

>  <r_epik_Ionization_Penalty_Neutral>  (10) 
5.70634e-06

>  <r_epik_State_Penalty>  (10) 
-0

>  <r_epik_Charging_Adjusted_Penalty>  (10) 
9.21908e-12

>  <i_epik_Tot_Q>  (10) 
-1

>  <i_epik_Tot_abs_Q>  (10) 
1

>  <s_epik_Chemistry_Notes>  (10) 
This compound has an ester and may undergo hydrolysis at high or low pH. This compound contains an acetal/aminal-like group ( X-CH(R)-Y where X, Y are N, S, or O) that may be acid/base labile, releasing an aldehyde.

>  <s_lp_Force_Field>  (10) 
OPLS3e

>  <r_lp_Energy>  (10) 
65.1252

>  <b_lp_Chiralities_Consistent>  (10) 
1

>  <s_lp_Variant>  (10) 
17:0-1

>  <s_i_glide_gridfile>  (10) 
pfpi4k_grid

>  <i_i_glide_lignum>  (10) 
20

>  <i_i_glide_rotatable_bonds>  (10) 
12

>  <r_i_docking_score>  (10) 
-2.69153

>  <r_i_glide_ligand_efficiency>  (10) 
-0.0690136

>  <r_i_glide_ligand_efficiency_sa>  (10) 
-0.23404

>  <r_i_glide_ligand_efficiency_ln>  (10) 
-0.577141

>  <r_i_glide_gscore>  (10) 
-2.69153

>  <r_i_glide_lipo>  (10) 
-0.0486203

>  <r_i_glide_hbond>  (10) 
0

>  <r_i_glide_metal>  (10) 
-0

>  <r_i_glide_rewards>  (10) 
-0.0563854

>  <r_i_glide_evdw>  (10) 
-23.2682

>  <r_i_glide_ecoul>  (10) 
-12.9712

>  <r_i_glide_erotb>  (10) 
0.333952

>  <r_i_glide_esite>  (10) 
-0.0626819

>  <r_i_glide_emodel>  (10) 
-38.2461

>  <r_i_glide_energy>  (10) 
-36.2394

>  <r_i_glide_einternal>  (10) 
6.46638

>  <r_i_glide_intrahb_reward>  (10) 
-0

>  <i_i_glide_confnum>  (10) 
11

>  <i_i_glide_posenum>  (10) 
1

>  <r_i_glide_eff_state_penalty>  (10) 
0

>  <ligand_id>  (10) 
17

>  <original_smiles>  (10) 
CC(=O)OCC1(OC2C(C)OC(O)C(O)C2O)C=C2OCC23C(OC3C2=CC3=C(C2O)C2OC3C2(O)CO)O1

>  <smiles>  (10) 
[H]OC([H])([H])C1(O[H])C2([H])OC1([H])C1=C2C([H])=C(C2([H])OC3([H])OC(OC4([H])C([H])(C([H])([H])[H])OC([H])(O[H])C([H])(O[H])C4([H])O[H])(C([H])([H])OC(=O)C([H])([H])[H])C([H])=C4OC([H])([H])C432)C1([H])[O-]

$$$$
17:0:1
     RDKit          3D

 68 74  0  0  1  0  0  0  0  0999 V2000
    3.5794   -5.9263    0.9170 C   0  0  0  0  0  0  0  0  0  0  0  0
    3.2647   -4.7160    1.7671 C   0  0  0  0  0  0  0  0  0  0  0  0
    2.1091   -4.4784    2.1083 O   0  0  0  0  0  0  0  0  0  0  0  0
    4.3592   -3.9985    2.0560 O   0  0  0  0  0  0  0  0  0  0  0  0
    4.2504   -2.8096    2.8286 C   0  0  0  0  0  0  0  0  0  0  0  0
    4.0264   -3.0982    4.3240 C   0  0  1  0  0  0  0  0  0  0  0  0
    4.8303   -4.2026    4.6716 O   0  0  0  0  0  0  0  0  0  0  0  0
    4.6194   -4.7366    5.9829 C   0  0  2  0  0  0  0  0  0  0  0  0
    5.9617   -4.6993    6.7677 C   0  0  1  0  0  0  0  0  0  0  0  0
    6.4942   -3.2894    7.0047 C   0  0  0  0  0  0  0  0  0  0  0  0
    5.7801   -5.2921    8.0406 O   0  0  0  0  0  0  0  0  0  0  0  0
    5.4739   -6.6477    8.0148 C   0  0  1  0  0  0  0  0  0  0  0  0
    5.4203   -7.1761    9.3164 O   0  0  0  0  0  0  0  0  0  0  0  0
    4.1115   -6.8350    7.3089 C   0  0  1  0  0  0  0  0  0  0  0  0
    3.0778   -6.2500    8.0818 O   0  0  0  0  0  0  0  0  0  0  0  0
    4.1612   -6.2085    5.8929 C   0  0  1  0  0  0  0  0  0  0  0  0
    2.8638   -6.2937    5.3412 O   0  0  0  0  0  0  0  0  0  0  0  0
    4.4351   -1.8590    5.0898 C   0  0  0  0  0  0  0  0  0  0  0  0
    3.5176   -0.9859    5.4594 C   0  0  0  0  0  0  0  0  0  0  0  0
    3.5408   -0.0805    6.5056 O   0  0  0  0  0  0  0  0  0  0  0  0
    2.1049   -0.3188    6.5572 C   0  0  0  0  0  0  0  0  0  0  0  0
    2.0947   -0.9679    5.1649 C   0  0  2  0  0  0  0  0  0  0  0  0
    1.6573   -2.3146    4.6110 C   0  0  1  0  0  0  0  0  0  0  0  0
    1.3701   -1.6919    3.3152 O   0  0  0  0  0  0  0  0  0  0  0  0
    1.7519   -0.3708    3.8011 C   0  0  1  0  0  0  0  0  0  0  0  0
    0.6083    0.6681    3.7684 C   0  0  0  0  0  0  0  0  0  0  0  0
    0.6769    1.8264    3.0702 C   0  0  0  0  0  0  0  0  0  0  0  0
   -0.5829    2.4556    3.2455 C   0  0  0  0  0  0  0  0  0  0  0  0
   -1.3504    1.7683    4.0065 C   0  0  0  0  0  0  0  0  0  0  0  0
   -0.7513    0.4931    4.5489 C   0  0  1  0  0  0  0  0  0  0  0  0
   -1.4252   -0.5252    4.0935 O   0  0  0  0  0  0  0  0  0  0  0  0
   -2.5365    2.6944    4.1682 C   0  0  1  0  0  0  0  0  0  0  0  0
   -1.9150    3.9914    4.3331 O   0  0  0  0  0  0  0  0  0  0  0  0
   -1.3884    3.7003    3.0193 C   0  0  2  0  0  0  0  0  0  0  0  0
   -2.8322    3.1635    2.6986 C   0  0  1  0  0  0  0  0  0  0  0  0
   -3.0269    2.1555    1.7258 O   0  0  0  0  0  0  0  0  0  0  0  0
   -3.9758    4.1569    2.4355 C   0  0  0  0  0  0  0  0  0  0  0  0
   -3.4979    5.4997    2.3956 O   0  0  0  0  0  0  0  0  0  0  0  0
    2.6569   -3.3681    4.5644 O   0  0  0  0  0  0  0  0  0  0  0  0
    4.0913   -5.6100    0.0098 H   0  0  0  0  0  0  0  0  0  0  0  0
    2.6549   -6.4332    0.6421 H   0  0  0  0  0  0  0  0  0  0  0  0
    4.2124   -6.6181    1.4707 H   0  0  0  0  0  0  0  0  0  0  0  0
    5.1752   -2.2415    2.7282 H   0  0  0  0  0  0  0  0  0  0  0  0
    3.4646   -2.1648    2.4501 H   0  0  0  0  0  0  0  0  0  0  0  0
    3.8671   -4.1750    6.5422 H   0  0  0  0  0  0  0  0  0  0  0  0
    6.7357   -5.2378    6.2204 H   0  0  0  0  0  0  0  0  0  0  0  0
    6.8566   -2.9437    6.0372 H   0  0  0  0  0  0  0  0  0  0  0  0
    7.3705   -3.2105    7.6414 H   0  0  0  0  0  0  0  0  0  0  0  0
    5.7150   -2.6377    7.4045 H   0  0  0  0  0  0  0  0  0  0  0  0
    6.2777   -7.1790    7.5017 H   0  0  0  0  0  0  0  0  0  0  0  0
    4.6588   -6.7977    9.7309 H   0  0  0  0  0  0  0  0  0  0  0  0
    3.9210   -7.9085    7.2328 H   0  0  0  0  0  0  0  0  0  0  0  0
    3.2992   -5.3368    8.1873 H   0  0  0  0  0  0  0  0  0  0  0  0
    4.8411   -6.7775    5.2544 H   0  0  0  0  0  0  0  0  0  0  0  0
    2.2721   -5.8407    5.9263 H   0  0  0  0  0  0  0  0  0  0  0  0
    5.4408   -1.7093    5.4531 H   0  0  0  0  0  0  0  0  0  0  0  0
    1.8241   -1.0129    7.3536 H   0  0  0  0  0  0  0  0  0  0  0  0
    1.5312    0.6044    6.5905 H   0  0  0  0  0  0  0  0  0  0  0  0
    0.7456   -2.6813    5.0702 H   0  0  0  0  0  0  0  0  0  0  0  0
    2.6280    0.0009    3.2608 H   0  0  0  0  0  0  0  0  0  0  0  0
    1.4880    2.1884    2.4419 H   0  0  0  0  0  0  0  0  0  0  0  0
   -0.5295    0.6408    5.6069 H   0  0  0  0  0  0  0  0  0  0  0  0
   -3.3524    2.5625    4.8492 H   0  0  0  0  0  0  0  0  0  0  0  0
   -0.9876    4.5976    2.5230 H   0  0  0  0  0  0  0  0  0  0  0  0
   -3.3843    1.3480    2.1653 H   0  0  0  0  0  0  0  0  0  0  0  0
   -4.4992    4.0052    1.4959 H   0  0  0  0  0  0  0  0  0  0  0  0
   -4.7731    4.0270    3.1686 H   0  0  0  0  0  0  0  0  0  0  0  0
   -2.8559    5.5679    1.6990 H   0  0  0  0  0  0  0  0  0  0  0  0
  1  2  1  0
  1 40  1  0
  1 41  1  0
  1 42  1  0
  2  3  2  0
  2  4  1  0
  4  5  1  0
  5  6  1  0
  5 43  1  0
  5 44  1  0
  6 39  1  0
  6  7  1  1
  6 18  1  0
  7  8  1  0
  8 16  1  0
  8  9  1  0
  8 45  1  1
  9 10  1  0
  9 11  1  0
  9 46  1  6
 10 47  1  0
 10 48  1  0
 10 49  1  0
 11 12  1  0
 12 13  1  0
 12 14  1  0
 12 50  1  6
 13 51  1  0
 14 15  1  0
 14 16  1  0
 14 52  1  6
 15 53  1  0
 16 17  1  0
 16 54  1  6
 17 55  1  0
 18 19  2  0
 18 56  1  0
 19 22  1  0
 19 20  1  0
 20 21  1  0
 22 21  1  1
 21 57  1  0
 21 58  1  0
 22 25  1  0
 22 23  1  0
 23 24  1  0
 23 39  1  0
 23 59  1  1
 24 25  1  0
 25 26  1  0
 25 60  1  6
 26 30  1  0
 26 27  2  0
 27 28  1  0
 27 61  1  0
 28 34  1  0
 28 29  2  0
 29 30  1  0
 29 32  1  0
 30 31  1  0
 30 62  1  1
 32 35  1  0
 32 33  1  0
 32 63  1  1
 33 34  1  0
 34 35  1  0
 34 64  1  6
 35 36  1  6
 35 37  1  0
 36 65  1  0
 37 38  1  0
 37 66  1  0
 37 67  1  0
 38 68  1  0
M  CHG  1  31  -1
M  END
>  <i_m_ct_stereo_status>  (11) 
1

>  <s_m_source_file>  (11) 
/var/tmp/pbs.5076253.sched01/tmpeppn20qa/07bjoayft.sdf

>  <i_m_source_file_index>  (11) 
20

>  <i_lp_mmshare_version>  (11) 
48012

>  <i_f3d_flags>  (11) 
0

>  <s_epik_input>  (11) 
W09IXVtDQEBIXTFbQ0BIXShbT0hdKVtDQEhdKFtPSF0pT1tDQEhdKFtDSDNdKVtDQEhdMU9bQ0BdKFtDSDJdT0MoPU8pW0NIM10pKFtDSF09QyhbQ0BdMjM0KU9bQ0gyXTIpT1tDQEBIXTNPW0NASF00Qyg9W0NIXTUpW0NASF0oW09IXSlDKD1DNTYpW0NASF03T1tDQEBIXTZbQ0BdNyhbT0hdKVtDSDJdW09IXQ==

>  <s_epik_cmdline>  (11) 
J2VwaWtfcHl0aG9uJywgJy1waHQnLCAnMi4wJywgJy1waCcsICc3LjAnLCAnLXRuJywgJzgnLCAnLW1hJywgJzIwMCcsICctaW1hZScsICc8aW5maWxlLm1hZT4nLCAnLW9tYWUnLCAnPG91dGZpbGUubWFlPic=

>  <r_lp_tautomer_probability>  (11) 
1

>  <r_epik_Ionization_Penalty>  (11) 
5.70635e-06

>  <r_epik_Ionization_Penalty_Charging>  (11) 
9.21908e-12

>  <r_epik_Ionization_Penalty_Neutral>  (11) 
5.70634e-06

>  <r_epik_State_Penalty>  (11) 
-0

>  <r_epik_Charging_Adjusted_Penalty>  (11) 
9.21908e-12

>  <i_epik_Tot_Q>  (11) 
-1

>  <i_epik_Tot_abs_Q>  (11) 
1

>  <s_epik_Chemistry_Notes>  (11) 
This compound has an ester and may undergo hydrolysis at high or low pH. This compound contains an acetal/aminal-like group ( X-CH(R)-Y where X, Y are N, S, or O) that may be acid/base labile, releasing an aldehyde.

>  <s_lp_Force_Field>  (11) 
OPLS3e

>  <r_lp_Energy>  (11) 
65.1252

>  <b_lp_Chiralities_Consistent>  (11) 
1

>  <s_lp_Variant>  (11) 
17:0-1

>  <s_i_glide_gridfile>  (11) 
pfpi4k_grid

>  <i_i_glide_lignum>  (11) 
20

>  <i_i_glide_rotatable_bonds>  (11) 
12

>  <r_i_docking_score>  (11) 
-0.484478

>  <r_i_glide_ligand_efficiency>  (11) 
-0.0124225

>  <r_i_glide_ligand_efficiency_sa>  (11) 
-0.0421274

>  <r_i_glide_ligand_efficiency_ln>  (11) 
-0.103886

>  <r_i_glide_gscore>  (11) 
-0.484478

>  <r_i_glide_lipo>  (11) 
-0.151849

>  <r_i_glide_hbond>  (11) 
-0.0128119

>  <r_i_glide_metal>  (11) 
-0

>  <r_i_glide_rewards>  (11) 
-0.00355102

>  <r_i_glide_evdw>  (11) 
3.40199

>  <r_i_glide_ecoul>  (11) 
-8.62857

>  <r_i_glide_erotb>  (11) 
0.333952

>  <r_i_glide_esite>  (11) 
0

>  <r_i_glide_emodel>  (11) 
-0.634533

>  <r_i_glide_energy>  (11) 
-5.22658

>  <r_i_glide_einternal>  (11) 
4.06576

>  <r_i_glide_intrahb_reward>  (11) 
-0

>  <i_i_glide_confnum>  (11) 
11

>  <i_i_glide_posenum>  (11) 
20

>  <r_i_glide_eff_state_penalty>  (11) 
0

>  <ligand_id>  (11) 
17

>  <original_smiles>  (11) 
CC(=O)OCC1(OC2C(C)OC(O)C(O)C2O)C=C2OCC23C(OC3C2=CC3=C(C2O)C2OC3C2(O)CO)O1

>  <smiles>  (11) 
[H]OC([H])([H])C1(O[H])C2([H])OC1([H])C1=C2C([H])=C(C2([H])OC3([H])OC(OC4([H])C([H])(C([H])([H])[H])OC([H])(O[H])C([H])(O[H])C4([H])O[H])(C([H])([H])OC(=O)C([H])([H])[H])C([H])=C4OC([H])([H])C432)C1([H])[O-]

$$$$
19:0:0
     RDKit          3D

 90 99  0  0  1  0  0  0  0  0999 V2000
   -3.7057    3.2667    2.1165 C   0  0  0  0  0  0  0  0  0  0  0  0
   -2.4631    2.7221    2.5386 O   0  0  0  0  0  0  0  0  0  0  0  0
   -1.7974    3.2888    3.5500 C   0  0  0  0  0  0  0  0  0  0  0  0
   -2.0672    4.3656    4.0814 O   0  0  0  0  0  0  0  0  0  0  0  0
   -0.8309    2.4266    3.9279 O   0  0  0  0  0  0  0  0  0  0  0  0
   -0.2269    2.4827    5.2265 C   0  0  2  0  0  0  0  0  0  0  0  0
    1.2940    2.7368    5.1289 C   0  0  1  0  0  0  0  0  0  0  0  0
    1.8014    3.5198    6.2131 O   0  0  0  0  0  0  0  0  0  0  0  0
    1.5669    3.3673    7.5567 C   0  0  0  0  0  0  0  0  0  0  0  0
    2.1556    4.0558    8.3850 O   0  0  0  0  0  0  0  0  0  0  0  0
    0.5102    2.3736    8.0877 C   0  0  0  0  0  0  0  0  0  0  0  0
    0.2272    1.0455    7.3396 C   0  0  2  0  0  0  0  0  0  0  0  0
   -0.4959    0.2555    8.2671 O   0  0  0  0  0  0  0  0  0  0  0  0
    1.5471    0.3263    7.0288 C   0  0  0  0  0  0  0  0  0  0  0  0
    2.3293    0.6027    5.9766 C   0  0  0  0  0  0  0  0  0  0  0  0
    2.1853    1.5225    4.7896 C   0  0  2  0  0  0  0  0  0  0  0  0
    3.6014    1.7016    4.1816 C   0  0  2  0  0  0  0  0  0  0  0  0
    3.0119    1.7887    2.8770 O   0  0  0  0  0  0  0  0  0  0  0  0
    2.0001    0.8941    3.3779 C   0  0  1  0  0  0  0  0  0  0  0  0
    2.5183   -0.5094    3.1082 C   0  0  1  0  0  0  0  0  0  0  0  0
    2.3643   -0.9211    1.6218 O   0  0  0  0  0  0  0  0  0  0  0  0
    3.0605   -2.1385    1.0783 C   0  0  1  0  0  0  0  0  0  0  0  0
    2.2248   -3.1331    0.5842 O   0  0  0  0  0  0  0  0  0  0  0  0
    4.4556   -2.1442    0.1809 C   0  0  0  0  0  0  0  0  0  0  0  0
    5.8151   -1.9767    1.2245 C   0  0  1  0  0  0  0  0  0  0  0  0
    6.6906   -3.2619    1.2131 C   0  0  0  0  0  0  0  0  0  0  0  0
    6.6983   -1.1347    0.4693 O   0  0  0  0  0  0  0  0  0  0  0  0
    5.4905   -1.4155    2.8553 C   0  0  2  0  0  0  0  0  0  0  0  0
    5.9575   -0.2577    2.6146 O   0  0  0  0  0  0  0  0  0  0  0  0
    4.6083   -0.9237    2.1727 C   0  0  2  0  0  0  0  0  0  0  0  0
    3.7702   -2.5281    2.2307 C   0  0  1  0  0  0  0  0  0  0  0  0
    2.8593   -3.0344    3.2334 O   0  0  0  0  0  0  0  0  0  0  0  0
    2.6912   -4.4359    3.3723 C   0  0  0  0  0  0  0  0  0  0  0  0
    4.1455   -0.7334    3.7911 C   0  0  2  0  0  0  0  0  0  0  0  0
    3.8924   -1.5317    4.9319 O   0  0  0  0  0  0  0  0  0  0  0  0
    4.8253   -2.0264    5.8954 C   0  0  1  0  0  0  0  0  0  0  0  0
    5.8083   -0.9990    6.4281 C   0  0  0  0  0  0  0  0  0  0  0  0
    5.8823   -0.9711    7.7586 C   0  0  0  0  0  0  0  0  0  0  0  0
    6.7770   -0.1450    8.6594 C   0  0  0  0  0  0  0  0  0  0  0  0
    4.9233   -1.9235    8.3084 C   0  0  0  0  0  0  0  0  0  0  0  0
    4.7945   -2.2378    9.4874 O   0  0  0  0  0  0  0  0  0  0  0  0
    4.0470   -2.5030    7.1941 C   0  0  2  0  0  0  0  0  0  0  0  0
    4.0219   -4.0397    7.2764 C   0  0  0  0  0  0  0  0  0  0  0  0
    2.6075   -1.9155    7.2235 C   0  0  1  0  0  0  0  0  0  0  0  0
    1.7011   -1.9412    8.3323 O   0  0  0  0  0  0  0  0  0  0  0  0
    2.2073   -0.6387    7.9693 C   0  0  2  0  0  0  0  0  0  0  0  0
    4.5294    0.5787    4.2599 O   0  0  0  0  0  0  0  0  0  0  0  0
   -0.7118    1.2759    6.0969 C   0  0  0  0  0  0  0  0  0  0  0  0
   -2.1457    1.6563    6.5578 C   0  0  0  0  0  0  0  0  0  0  0  0
   -0.8639   -0.0351    5.2740 C   0  0  0  0  0  0  0  0  0  0  0  0
   -4.0939    2.6779    1.2870 H   0  0  0  0  0  0  0  0  0  0  0  0
   -3.6182    4.3027    1.7890 H   0  0  0  0  0  0  0  0  0  0  0  0
   -4.4443    3.2334    2.9168 H   0  0  0  0  0  0  0  0  0  0  0  0
   -0.5991    3.3803    5.7188 H   0  0  0  0  0  0  0  0  0  0  0  0
    1.3874    3.4331    4.3002 H   0  0  0  0  0  0  0  0  0  0  0  0
    0.8613    2.1160    9.0896 H   0  0  0  0  0  0  0  0  0  0  0  0
   -0.4119    2.9285    8.2518 H   0  0  0  0  0  0  0  0  0  0  0  0
   -0.0169    0.2354    9.0845 H   0  0  0  0  0  0  0  0  0  0  0  0
    3.3301    0.2392    6.0974 H   0  0  0  0  0  0  0  0  0  0  0  0
    4.0646    2.6287    4.4989 H   0  0  0  0  0  0  0  0  0  0  0  0
    1.0162    1.0942    2.9573 H   0  0  0  0  0  0  0  0  0  0  0  0
    1.8359   -1.1330    3.6754 H   0  0  0  0  0  0  0  0  0  0  0  0
    1.8821   -2.8187   -0.2457 H   0  0  0  0  0  0  0  0  0  0  0  0
    4.5350   -3.0895   -0.3665 H   0  0  0  0  0  0  0  0  0  0  0  0
    4.3850   -1.3406   -0.5544 H   0  0  0  0  0  0  0  0  0  0  0  0
    6.2509   -4.1101    1.7459 H   0  0  0  0  0  0  0  0  0  0  0  0
    7.6704   -3.1011    1.6611 H   0  0  0  0  0  0  0  0  0  0  0  0
    6.8697   -3.5944    0.1858 H   0  0  0  0  0  0  0  0  0  0  0  0
    7.2700   -0.7019    1.0897 H   0  0  0  0  0  0  0  0  0  0  0  0
    4.4441   -0.1695    1.3743 H   0  0  0  0  0  0  0  0  0  0  0  0
    4.3246   -3.4545    2.0579 H   0  0  0  0  0  0  0  0  0  0  0  0
    2.0197   -4.6027    4.2139 H   0  0  0  0  0  0  0  0  0  0  0  0
    3.6323   -4.9480    3.5866 H   0  0  0  0  0  0  0  0  0  0  0  0
    2.2296   -4.8709    2.4868 H   0  0  0  0  0  0  0  0  0  0  0  0
    5.3930   -2.8374    5.4347 H   0  0  0  0  0  0  0  0  0  0  0  0
    6.4165   -0.3928    5.7678 H   0  0  0  0  0  0  0  0  0  0  0  0
    6.1689    0.4589    9.3311 H   0  0  0  0  0  0  0  0  0  0  0  0
    7.4374    0.5124    8.0905 H   0  0  0  0  0  0  0  0  0  0  0  0
    7.3885   -0.8075    9.2702 H   0  0  0  0  0  0  0  0  0  0  0  0
    3.5656   -4.4749    6.3884 H   0  0  0  0  0  0  0  0  0  0  0  0
    3.4701   -4.3887    8.1483 H   0  0  0  0  0  0  0  0  0  0  0  0
    5.0318   -4.4400    7.3525 H   0  0  0  0  0  0  0  0  0  0  0  0
    2.0521   -2.1858    6.3250 H   0  0  0  0  0  0  0  0  0  0  0  0
    2.8391   -0.1790    8.7265 H   0  0  0  0  0  0  0  0  0  0  0  0
   -2.6705    0.8525    7.0750 H   0  0  0  0  0  0  0  0  0  0  0  0
   -2.7328    1.9090    5.6867 H   0  0  0  0  0  0  0  0  0  0  0  0
   -2.1816    2.5460    7.1843 H   0  0  0  0  0  0  0  0  0  0  0  0
   -1.2164   -0.8572    5.8961 H   0  0  0  0  0  0  0  0  0  0  0  0
    0.0647   -0.3602    4.8179 H   0  0  0  0  0  0  0  0  0  0  0  0
   -1.5878    0.0783    4.4669 H   0  0  0  0  0  0  0  0  0  0  0  0
  1  2  1  0
  1 51  1  0
  1 52  1  0
  1 53  1  0
  2  3  1  0
  3  4  2  0
  3  5  1  0
  5  6  1  0
  6 48  1  0
  6  7  1  0
  6 54  1  1
  7 16  1  0
  7  8  1  0
  7 55  1  6
  8  9  1  0
  9 10  2  0
  9 11  1  0
 11 12  1  0
 11 56  1  0
 11 57  1  0
 12 13  1  1
 12 14  1  0
 12 48  1  0
 13 58  1  0
 14 46  1  0
 14 15  2  0
 16 15  1  1
 15 59  1  0
 16 19  1  0
 16 17  1  0
 17 47  1  0
 17 18  1  0
 17 60  1  1
 18 19  1  0
 19 20  1  0
 19 61  1  6
 20 34  1  0
 20 21  1  0
 20 62  1  1
 21 22  1  0
 22 31  1  0
 22 23  1  6
 22 24  1  0
 23 63  1  0
 24 25  1  0
 24 64  1  0
 24 65  1  0
 25 26  1  0
 25 27  1  6
 25 28  1  0
 26 66  1  0
 26 67  1  0
 26 68  1  0
 27 69  1  0
 28 30  1  0
 28 29  1  1
 28 34  1  0
 29 30  1  0
 30 31  1  0
 30 70  1  1
 31 32  1  0
 31 71  1  6
 32 33  1  0
 33 72  1  0
 33 73  1  0
 33 74  1  0
 34 35  1  1
 34 47  1  0
 35 36  1  0
 36 42  1  0
 36 37  1  0
 36 75  1  6
 37 38  2  0
 37 76  1  0
 38 39  1  0
 38 40  1  0
 39 77  1  0
 39 78  1  0
 39 79  1  0
 40 41  2  0
 40 42  1  0
 42 43  1  1
 42 44  1  0
 43 80  1  0
 43 81  1  0
 43 82  1  0
 44 46  1  0
 44 45  1  0
 44 83  1  6
 45 46  1  0
 46 84  1  1
 48 49  1  0
 48 50  1  0
 49 85  1  0
 49 86  1  0
 49 87  1  0
 50 88  1  0
 50 89  1  0
 50 90  1  0
M  END
>  <i_m_ct_stereo_status>  (12) 
1

>  <s_m_source_file>  (12) 
/var/tmp/pbs.5076253.sched01/tmpeppn20qa/07bjoayft.sdf

>  <i_m_source_file_index>  (12) 
25

>  <i_lp_mmshare_version>  (12) 
48012

>  <i_f3d_flags>  (12) 
0

>  <s_epik_input>  (12) 
W0NIM11PQyg9TylPW0NASF0oW0NAQEhdMVtDQF0yMzQpQyhbQ0gzXSkoW0NIM10pW0NAXShbT0hdKShbQ0gyXUMoTzEpPU8pQyg9W0NIXTIpW0NAQEhdNVtDQEhdKE81KVtDQEBdNihbQ0gzXSlbQ0BIXShbQ0hdPUMoW0NIM10pQzY9TylPW0NAQF03OEMxOVtDQEhdKE8xKVtDQEBIXShPW0NIM10pW0NAXShbT0hdKShbQ0gyXVtDQEBdOShbQ0gzXSlbT0hdKU9bQ0BASF03W0NAQEhdNE9bQ0BASF0zTzg=

>  <s_epik_cmdline>  (12) 
J2VwaWtfcHl0aG9uJywgJy1waHQnLCAnMi4wJywgJy1waCcsICc3LjAnLCAnLXRuJywgJzgnLCAnLW1hJywgJzIwMCcsICctaW1hZScsICc8aW5maWxlLm1hZT4nLCAnLW9tYWUnLCAnPG91dGZpbGUubWFlPic=

>  <r_lp_tautomer_probability>  (12) 
1

>  <r_epik_Ionization_Penalty>  (12) 
2.5924e-05

>  <r_epik_Ionization_Penalty_Charging>  (12) 
0

>  <r_epik_Ionization_Penalty_Neutral>  (12) 
2.5924e-05

>  <r_epik_State_Penalty>  (12) 
-0

>  <r_epik_Charging_Adjusted_Penalty>  (12) 
0

>  <i_epik_Tot_Q>  (12) 
0

>  <i_epik_Tot_abs_Q>  (12) 
0

>  <s_epik_Chemistry_Notes>  (12) 
This compound has an ester and may undergo hydrolysis at high or low pH. This compound contains an acetal/aminal-like group ( X-CH(R)-Y where X, Y are N, S, or O) that may be acid/base labile, releasing an aldehyde. This is carbonic acid which has a microscopic pka value of about 3.8 however its equilibrium with CO2 as a lewis acid yields a pKa of about 6.35.

>  <s_lp_Force_Field>  (12) 
OPLS3e

>  <r_lp_Energy>  (12) 
581.308

>  <b_lp_Chiralities_Consistent>  (12) 
1

>  <s_lp_Variant>  (12) 
19:0-1

>  <s_i_glide_gridfile>  (12) 
pfpi4k_grid

>  <i_i_glide_lignum>  (12) 
25

>  <i_i_glide_rotatable_bonds>  (12) 
7

>  <r_i_docking_score>  (12) 
-2.69411

>  <r_i_glide_ligand_efficiency>  (12) 
-0.0538821

>  <r_i_glide_ligand_efficiency_sa>  (12) 
-0.198503

>  <r_i_glide_ligand_efficiency_ln>  (12) 
-0.548472

>  <r_i_glide_gscore>  (12) 
-2.69411

>  <r_i_glide_lipo>  (12) 
-0.471943

>  <r_i_glide_hbond>  (12) 
-0.329559

>  <r_i_glide_metal>  (12) 
-0

>  <r_i_glide_rewards>  (12) 
-0.0188767

>  <r_i_glide_evdw>  (12) 
-22.36

>  <r_i_glide_ecoul>  (12) 
-4.94174

>  <r_i_glide_erotb>  (12) 
0.0864153

>  <r_i_glide_esite>  (12) 
-0.100883

>  <r_i_glide_emodel>  (12) 
-29.0931

>  <r_i_glide_energy>  (12) 
-27.3017

>  <r_i_glide_einternal>  (12) 
4.42057

>  <r_i_glide_intrahb_reward>  (12) 
-0

>  <i_i_glide_confnum>  (12) 
1

>  <i_i_glide_posenum>  (12) 
3

>  <r_i_glide_eff_state_penalty>  (12) 
0

>  <ligand_id>  (12) 
19

>  <original_smiles>  (12) 
COC(=O)OC1C2OC(=O)CC(O)(C3=CC24C2OC4C4OC5(O)CC(C)(O)C6(OC6C5OC)C4(OC4C=C(C)C(=O)C4(C)C4OC34)O2)C1(C)C

>  <smiles>  (12) 
[H]OC12OC3([H])C4([H])OC5([H])OC3(OC3([H])C([H])=C(C([H])([H])[H])C(=O)C3(C([H])([H])[H])C3([H])OC3([H])C3=C([H])C54C4([H])OC(=O)C([H])([H])C3(O[H])C(C([H])([H])[H])(C([H])([H])[H])C4([H])OC(=O)OC([H])([H])[H])C3(OC3([H])C1([H])OC([H])([H])[H])C(O[H])(C([H])([H])[H])C2([H])[H]

$$$$
19:0:1
     RDKit          3D

 90 99  0  0  1  0  0  0  0  0999 V2000
    2.5833   -2.2199   -2.9925 C   0  0  0  0  0  0  0  0  0  0  0  0
    1.7704   -3.2571   -2.4403 O   0  0  0  0  0  0  0  0  0  0  0  0
    1.9294   -3.6960   -1.1561 C   0  0  0  0  0  0  0  0  0  0  0  0
    1.5088   -4.7649   -0.6936 O   0  0  0  0  0  0  0  0  0  0  0  0
    2.5857   -2.7382   -0.4713 O   0  0  0  0  0  0  0  0  0  0  0  0
    3.5571   -2.9797    0.5086 C   0  0  2  0  0  0  0  0  0  0  0  0
    2.9892   -3.3610    1.9087 C   0  0  1  0  0  0  0  0  0  0  0  0
    3.8281   -4.3186    2.5614 O   0  0  0  0  0  0  0  0  0  0  0  0
    5.2027   -4.2964    2.6295 C   0  0  0  0  0  0  0  0  0  0  0  0
    5.8042   -5.1400    3.2819 O   0  0  0  0  0  0  0  0  0  0  0  0
    6.0480   -3.2506    1.8525 C   0  0  0  0  0  0  0  0  0  0  0  0
    5.5407   -1.8085    1.6205 C   0  0  2  0  0  0  0  0  0  0  0  0
    6.6665   -1.0637    1.2435 O   0  0  0  0  0  0  0  0  0  0  0  0
    4.9428   -1.2317    2.9249 C   0  0  0  0  0  0  0  0  0  0  0  0
    3.7257   -1.4508    3.3753 C   0  0  0  0  0  0  0  0  0  0  0  0
    2.5421   -2.2190    2.8580 C   0  0  2  0  0  0  0  0  0  0  0  0
    1.6220   -2.4889    4.0880 C   0  0  2  0  0  0  0  0  0  0  0  0
    0.4812   -2.3583    3.2438 O   0  0  0  0  0  0  0  0  0  0  0  0
    1.2813   -1.4329    2.4524 C   0  0  1  0  0  0  0  0  0  0  0  0
    1.0164   -0.0673    3.0547 C   0  0  1  0  0  0  0  0  0  0  0  0
   -0.3473    0.5412    2.6123 O   0  0  0  0  0  0  0  0  0  0  0  0
   -0.9140    1.7501    3.3009 C   0  0  1  0  0  0  0  0  0  0  0  0
   -1.1055    2.8652    2.4840 O   0  0  0  0  0  0  0  0  0  0  0  0
   -2.1106    1.7371    4.4538 C   0  0  0  0  0  0  0  0  0  0  0  0
   -1.4749    1.2667    5.9863 C   0  0  1  0  0  0  0  0  0  0  0  0
   -1.5995    2.4130    7.0207 C   0  0  0  0  0  0  0  0  0  0  0  0
   -2.5419    0.4387    6.4641 O   0  0  0  0  0  0  0  0  0  0  0  0
    0.1030    0.4976    5.9853 C   0  0  2  0  0  0  0  0  0  0  0  0
   -0.3679   -0.6699    6.1931 O   0  0  0  0  0  0  0  0  0  0  0  0
   -0.3867    0.2071    4.8872 C   0  0  2  0  0  0  0  0  0  0  0  0
    0.0445    1.8923    4.3155 C   0  0  1  0  0  0  0  0  0  0  0  0
    1.2953    2.3860    3.7607 O   0  0  0  0  0  0  0  0  0  0  0  0
    1.5572    3.7827    3.7555 C   0  0  0  0  0  0  0  0  0  0  0  0
    1.2969   -0.1075    4.8160 C   0  0  2  0  0  0  0  0  0  0  0  0
    2.5183    0.5937    4.9421 O   0  0  0  0  0  0  0  0  0  0  0  0
    3.2588    0.8549    6.1295 C   0  0  1  0  0  0  0  0  0  0  0  0
    3.4490   -0.3341    7.0503 C   0  0  0  0  0  0  0  0  0  0  0  0
    4.7066   -0.5202    7.4280 C   0  0  0  0  0  0  0  0  0  0  0  0
    5.2994   -1.5456    8.3835 C   0  0  0  0  0  0  0  0  0  0  0  0
    5.5599    0.4669    6.7765 C   0  0  0  0  0  0  0  0  0  0  0  0
    6.7588    0.6387    6.9713 O   0  0  0  0  0  0  0  0  0  0  0  0
    4.7398    1.2645    5.7549 C   0  0  2  0  0  0  0  0  0  0  0  0
    4.9670    2.7712    5.9697 C   0  0  0  0  0  0  0  0  0  0  0  0
    5.0758    0.8247    4.3144 C   0  0  1  0  0  0  0  0  0  0  0  0
    6.4017    0.6954    3.7885 O   0  0  0  0  0  0  0  0  0  0  0  0
    5.7416   -0.5399    3.9789 C   0  0  2  0  0  0  0  0  0  0  0  0
    1.5766   -1.4930    5.1403 O   0  0  0  0  0  0  0  0  0  0  0  0
    4.5747   -1.8009    0.3948 C   0  0  0  0  0  0  0  0  0  0  0  0
    5.3429   -2.0176   -0.9502 C   0  0  0  0  0  0  0  0  0  0  0  0
    3.9227   -0.4054    0.2829 C   0  0  0  0  0  0  0  0  0  0  0  0
    2.2561   -1.8992   -3.9925 H   0  0  0  0  0  0  0  0  0  0  0  0
    3.5767   -2.6006   -3.0457 H   0  0  0  0  0  0  0  0  0  0  0  0
    2.5700   -1.3170   -2.3755 H   0  0  0  0  0  0  0  0  0  0  0  0
    4.0370   -3.8806    0.1300 H   0  0  0  0  0  0  0  0  0  0  0  0
    2.0939   -3.9469    1.7115 H   0  0  0  0  0  0  0  0  0  0  0  0
    6.9522   -3.1462    2.4335 H   0  0  0  0  0  0  0  0  0  0  0  0
    6.3946   -3.7082    0.9258 H   0  0  0  0  0  0  0  0  0  0  0  0
    6.8566   -0.3601    1.8970 H   0  0  0  0  0  0  0  0  0  0  0  0
    3.6304   -1.2367    4.4161 H   0  0  0  0  0  0  0  0  0  0  0  0
    1.7386   -3.4995    4.4757 H   0  0  0  0  0  0  0  0  0  0  0  0
    1.0651   -1.4919    1.3885 H   0  0  0  0  0  0  0  0  0  0  0  0
    1.7760    0.5636    2.5987 H   0  0  0  0  0  0  0  0  0  0  0  0
   -0.2716    3.1257    2.0977 H   0  0  0  0  0  0  0  0  0  0  0  0
   -2.5995    2.7152    4.5072 H   0  0  0  0  0  0  0  0  0  0  0  0
   -2.8561    1.0406    4.0724 H   0  0  0  0  0  0  0  0  0  0  0  0
   -0.9061    3.2354    6.8400 H   0  0  0  0  0  0  0  0  0  0  0  0
   -1.4115    2.0588    8.0371 H   0  0  0  0  0  0  0  0  0  0  0  0
   -2.6009    2.8588    7.0082 H   0  0  0  0  0  0  0  0  0  0  0  0
   -3.3228    0.9704    6.4598 H   0  0  0  0  0  0  0  0  0  0  0  0
   -1.1979   -0.4065    4.4399 H   0  0  0  0  0  0  0  0  0  0  0  0
   -0.1672    2.7759    4.9429 H   0  0  0  0  0  0  0  0  0  0  0  0
    2.5538    3.9271    3.3406 H   0  0  0  0  0  0  0  0  0  0  0  0
    1.5484    4.2118    4.7596 H   0  0  0  0  0  0  0  0  0  0  0  0
    0.8589    4.3324    3.1261 H   0  0  0  0  0  0  0  0  0  0  0  0
    2.7371    1.6460    6.6667 H   0  0  0  0  0  0  0  0  0  0  0  0
    2.6061   -0.9262    7.3918 H   0  0  0  0  0  0  0  0  0  0  0  0
    6.0446   -2.1509    7.8710 H   0  0  0  0  0  0  0  0  0  0  0  0
    4.5292   -2.2034    8.7910 H   0  0  0  0  0  0  0  0  0  0  0  0
    5.7895   -1.0339    9.2080 H   0  0  0  0  0  0  0  0  0  0  0  0
    4.2644    3.3587    5.3797 H   0  0  0  0  0  0  0  0  0  0  0  0
    5.9751    3.0739    5.6922 H   0  0  0  0  0  0  0  0  0  0  0  0
    4.8285    3.0424    7.0145 H   0  0  0  0  0  0  0  0  0  0  0  0
    4.3970    1.2951    3.5772 H   0  0  0  0  0  0  0  0  0  0  0  0
    6.2116   -1.2096    4.7117 H   0  0  0  0  0  0  0  0  0  0  0  0
    6.1075   -1.2490   -1.1029 H   0  0  0  0  0  0  0  0  0  0  0  0
    4.6921   -1.9505   -1.7503 H   0  0  0  0  0  0  0  0  0  0  0  0
    5.8554   -2.9828   -0.9664 H   0  0  0  0  0  0  0  0  0  0  0  0
    4.6611    0.3912    0.1801 H   0  0  0  0  0  0  0  0  0  0  0  0
    3.2530   -0.1203    1.0843 H   0  0  0  0  0  0  0  0  0  0  0  0
    3.3407   -0.3941   -0.6274 H   0  0  0  0  0  0  0  0  0  0  0  0
  1  2  1  0
  1 51  1  0
  1 52  1  0
  1 53  1  0
  2  3  1  0
  3  4  2  0
  3  5  1  0
  5  6  1  0
  6 48  1  0
  6  7  1  0
  6 54  1  6
  7 16  1  0
  7  8  1  0
  7 55  1  6
  8  9  1  0
  9 10  2  0
  9 11  1  0
 11 12  1  0
 11 56  1  0
 11 57  1  0
 12 13  1  6
 12 14  1  0
 12 48  1  0
 13 58  1  0
 14 46  1  0
 14 15  2  0
 16 15  1  1
 15 59  1  0
 16 19  1  0
 16 17  1  0
 17 47  1  0
 17 18  1  0
 17 60  1  1
 18 19  1  0
 19 20  1  0
 19 61  1  6
 20 34  1  0
 20 21  1  0
 20 62  1  6
 21 22  1  0
 22 31  1  0
 22 23  1  6
 22 24  1  0
 23 63  1  0
 24 25  1  0
 24 64  1  0
 24 65  1  0
 25 26  1  0
 25 27  1  1
 25 28  1  0
 26 66  1  0
 26 67  1  0
 26 68  1  0
 27 69  1  0
 28 30  1  0
 28 29  1  1
 28 34  1  0
 29 30  1  0
 30 31  1  0
 30 70  1  6
 31 32  1  0
 31 71  1  1
 32 33  1  0
 33 72  1  0
 33 73  1  0
 33 74  1  0
 34 35  1  6
 34 47  1  0
 35 36  1  0
 36 42  1  0
 36 37  1  0
 36 75  1  1
 37 38  2  0
 37 76  1  0
 38 39  1  0
 38 40  1  0
 39 77  1  0
 39 78  1  0
 39 79  1  0
 40 41  2  0
 40 42  1  0
 42 43  1  6
 42 44  1  0
 43 80  1  0
 43 81  1  0
 43 82  1  0
 44 46  1  0
 44 45  1  0
 44 83  1  6
 45 46  1  0
 46 84  1  1
 48 49  1  0
 48 50  1  0
 49 85  1  0
 49 86  1  0
 49 87  1  0
 50 88  1  0
 50 89  1  0
 50 90  1  0
M  END
>  <i_m_ct_stereo_status>  (13) 
1

>  <s_m_source_file>  (13) 
/var/tmp/pbs.5076253.sched01/tmpeppn20qa/07bjoayft.sdf

>  <i_m_source_file_index>  (13) 
25

>  <i_lp_mmshare_version>  (13) 
48012

>  <i_f3d_flags>  (13) 
0

>  <s_epik_input>  (13) 
W0NIM11PQyg9TylPW0NASF0oW0NAQEhdMVtDQF0yMzQpQyhbQ0gzXSkoW0NIM10pW0NAXShbT0hdKShbQ0gyXUMoTzEpPU8pQyg9W0NIXTIpW0NAQEhdNVtDQEhdKE81KVtDQEBdNihbQ0gzXSlbQ0BIXShbQ0hdPUMoW0NIM10pQzY9TylPW0NAQF03OEMxOVtDQEhdKE8xKVtDQEBIXShPW0NIM10pW0NAXShbT0hdKShbQ0gyXVtDQEBdOShbQ0gzXSlbT0hdKU9bQ0BASF03W0NAQEhdNE9bQ0BASF0zTzg=

>  <s_epik_cmdline>  (13) 
J2VwaWtfcHl0aG9uJywgJy1waHQnLCAnMi4wJywgJy1waCcsICc3LjAnLCAnLXRuJywgJzgnLCAnLW1hJywgJzIwMCcsICctaW1hZScsICc8aW5maWxlLm1hZT4nLCAnLW9tYWUnLCAnPG91dGZpbGUubWFlPic=

>  <r_lp_tautomer_probability>  (13) 
1

>  <r_epik_Ionization_Penalty>  (13) 
2.5924e-05

>  <r_epik_Ionization_Penalty_Charging>  (13) 
0

>  <r_epik_Ionization_Penalty_Neutral>  (13) 
2.5924e-05

>  <r_epik_State_Penalty>  (13) 
-0

>  <r_epik_Charging_Adjusted_Penalty>  (13) 
0

>  <i_epik_Tot_Q>  (13) 
0

>  <i_epik_Tot_abs_Q>  (13) 
0

>  <s_epik_Chemistry_Notes>  (13) 
This compound has an ester and may undergo hydrolysis at high or low pH. This compound contains an acetal/aminal-like group ( X-CH(R)-Y where X, Y are N, S, or O) that may be acid/base labile, releasing an aldehyde. This is carbonic acid which has a microscopic pka value of about 3.8 however its equilibrium with CO2 as a lewis acid yields a pKa of about 6.35.

>  <s_lp_Force_Field>  (13) 
OPLS3e

>  <r_lp_Energy>  (13) 
581.308

>  <b_lp_Chiralities_Consistent>  (13) 
1

>  <s_lp_Variant>  (13) 
19:0-1

>  <s_i_glide_gridfile>  (13) 
pfpi4k_grid

>  <i_i_glide_lignum>  (13) 
25

>  <i_i_glide_rotatable_bonds>  (13) 
7

>  <r_i_docking_score>  (13) 
-1.78905

>  <r_i_glide_ligand_efficiency>  (13) 
-0.035781

>  <r_i_glide_ligand_efficiency_sa>  (13) 
-0.131818

>  <r_i_glide_ligand_efficiency_ln>  (13) 
-0.364219

>  <r_i_glide_gscore>  (13) 
-1.78905

>  <r_i_glide_lipo>  (13) 
-0.45016

>  <r_i_glide_hbond>  (13) 
-0.0903444

>  <r_i_glide_metal>  (13) 
-0

>  <r_i_glide_rewards>  (13) 
-0.0712382

>  <r_i_glide_evdw>  (13) 
0.0276164

>  <r_i_glide_ecoul>  (13) 
-7.96264

>  <r_i_glide_erotb>  (13) 
0.0864153

>  <r_i_glide_esite>  (13) 
-0.0707082

>  <r_i_glide_emodel>  (13) 
-1.60643

>  <r_i_glide_energy>  (13) 
-7.93503

>  <r_i_glide_einternal>  (13) 
13.1997

>  <r_i_glide_intrahb_reward>  (13) 
-0

>  <i_i_glide_confnum>  (13) 
3

>  <i_i_glide_posenum>  (13) 
9

>  <r_i_glide_eff_state_penalty>  (13) 
0

>  <ligand_id>  (13) 
19

>  <original_smiles>  (13) 
COC(=O)OC1C2OC(=O)CC(O)(C3=CC24C2OC4C4OC5(O)CC(C)(O)C6(OC6C5OC)C4(OC4C=C(C)C(=O)C4(C)C4OC34)O2)C1(C)C

>  <smiles>  (13) 
[H]OC12OC3([H])C4([H])OC5([H])OC3(OC3([H])C([H])=C(C([H])([H])[H])C(=O)C3(C([H])([H])[H])C3([H])OC3([H])C3=C([H])C54C4([H])OC(=O)C([H])([H])C3(O[H])C(C([H])([H])[H])(C([H])([H])[H])C4([H])OC(=O)OC([H])([H])[H])C3(OC3([H])C1([H])OC([H])([H])[H])C(O[H])(C([H])([H])[H])C2([H])[H]

$$$$
20:0:0
     RDKit          3D

 59 64  0  0  1  0  0  0  0  0999 V2000
    1.5913   -4.1081   -1.3692 C   0  0  0  0  0  0  0  0  0  0  0  0
    1.9388   -4.6405   -0.0788 O   0  0  0  0  0  0  0  0  0  0  0  0
    2.8243   -4.0093    0.8066 C   0  0  2  0  0  0  0  0  0  0  0  0
    3.4649   -2.6085    0.3890 C   0  0  1  0  0  0  0  0  0  0  0  0
    3.8038   -1.5861    1.5531 C   0  0  0  0  0  0  0  0  0  0  0  0
    3.7609   -0.1372    1.0017 C   0  0  0  0  0  0  0  0  0  0  0  0
    2.7862   -1.6025    2.7159 C   0  0  0  0  0  0  0  0  0  0  0  0
    5.0432   -1.8526    2.2285 O   0  0  0  0  0  0  0  0  0  0  0  0
    5.9545   -2.5042    1.3765 C   0  0  2  0  0  0  0  0  0  0  0  0
    7.3354   -2.0559    1.2316 O   0  0  0  0  0  0  0  0  0  0  0  0
    6.4470   -1.2827    0.5057 C   0  0  1  0  0  0  0  0  0  0  0  0
    6.3630   -1.3293   -0.9013 O   0  0  0  0  0  0  0  0  0  0  0  0
    5.7878   -2.4710   -1.3074 C   0  0  2  0  0  0  0  0  0  0  0  0
    5.8805   -2.9058   -2.6192 O   0  0  0  0  0  0  0  0  0  0  0  0
    5.1602   -4.0708   -2.5529 C   0  0  0  0  0  0  0  0  0  0  0  0
    4.5750   -4.1221   -1.3539 C   0  0  0  0  0  0  0  0  0  0  0  0
    4.8101   -5.1924   -0.2461 C   0  0  1  0  0  0  0  0  0  0  0  0
    6.2066   -5.0701    0.3843 C   0  0  0  0  0  0  0  0  0  0  0  0
    6.0080   -4.0697    1.5546 C   0  0  2  0  0  0  0  0  0  0  0  0
    4.7711   -4.5400    2.0629 O   0  0  0  0  0  0  0  0  0  0  0  0
    3.9501   -5.0103    1.0367 C   0  0  1  0  0  0  0  0  0  0  0  0
    3.3524   -6.2393    1.3780 O   0  0  0  0  0  0  0  0  0  0  0  0
    4.1888   -7.2924    1.8522 C   0  0  0  0  0  0  0  0  0  0  0  0
    3.5506   -8.6486    1.5575 C   0  0  2  0  0  0  0  0  0  0  0  0
    2.1926   -8.8050    2.2433 C   0  0  0  0  0  0  0  0  0  0  0  0
    4.4290   -9.6736    1.9796 O   0  0  0  0  0  0  0  0  0  0  0  0
    4.2665   -2.6999   -0.9973 C   0  0  1  0  0  0  0  0  0  0  0  0
    3.4385   -2.0224   -1.9971 O   0  0  0  0  0  0  0  0  0  0  0  0
    3.7451   -0.8397   -2.5988 C   0  0  0  0  0  0  0  0  0  0  0  0
    2.6263   -0.2167   -3.3964 C   0  0  0  0  0  0  0  0  0  0  0  0
    4.7989   -0.2387   -2.5127 O   0  0  0  0  0  0  0  0  0  0  0  0
    0.8079   -4.7010   -1.8460 H   0  0  0  0  0  0  0  0  0  0  0  0
    2.3986   -4.1882   -2.0704 H   0  0  0  0  0  0  0  0  0  0  0  0
    1.3176   -3.0769   -1.3769 H   0  0  0  0  0  0  0  0  0  0  0  0
    2.2934   -3.9195    1.7597 H   0  0  0  0  0  0  0  0  0  0  0  0
    2.5318   -2.1227    0.1045 H   0  0  0  0  0  0  0  0  0  0  0  0
    2.7358    0.2060    0.8563 H   0  0  0  0  0  0  0  0  0  0  0  0
    4.2501   -0.0354    0.0378 H   0  0  0  0  0  0  0  0  0  0  0  0
    4.2492    0.5489    1.6914 H   0  0  0  0  0  0  0  0  0  0  0  0
    1.7565   -1.5231    2.3649 H   0  0  0  0  0  0  0  0  0  0  0  0
    2.9633   -0.7598    3.3865 H   0  0  0  0  0  0  0  0  0  0  0  0
    2.8711   -2.5042    3.3244 H   0  0  0  0  0  0  0  0  0  0  0  0
    6.4217   -0.2766    0.8852 H   0  0  0  0  0  0  0  0  0  0  0  0
    6.5597   -3.1161   -0.9140 H   0  0  0  0  0  0  0  0  0  0  0  0
    5.6085   -4.8483   -3.0828 H   0  0  0  0  0  0  0  0  0  0  0  0
    4.6427   -6.1813   -0.6787 H   0  0  0  0  0  0  0  0  0  0  0  0
    6.5185   -6.0084    0.8426 H   0  0  0  0  0  0  0  0  0  0  0  0
    7.0361   -4.8874   -0.2910 H   0  0  0  0  0  0  0  0  0  0  0  0
    6.7615   -4.2821    2.3108 H   0  0  0  0  0  0  0  0  0  0  0  0
    5.1394   -7.3287    1.3132 H   0  0  0  0  0  0  0  0  0  0  0  0
    4.4218   -7.1538    2.9088 H   0  0  0  0  0  0  0  0  0  0  0  0
    3.4347   -8.7609    0.4798 H   0  0  0  0  0  0  0  0  0  0  0  0
    1.4982   -8.0355    1.8935 H   0  0  0  0  0  0  0  0  0  0  0  0
    2.2875   -8.6996    3.3295 H   0  0  0  0  0  0  0  0  0  0  0  0
    1.7504   -9.7794    2.0239 H   0  0  0  0  0  0  0  0  0  0  0  0
    4.2544  -10.4653    1.4765 H   0  0  0  0  0  0  0  0  0  0  0  0
    1.8350    0.1101   -2.7108 H   0  0  0  0  0  0  0  0  0  0  0  0
    2.2848   -0.8873   -4.1808 H   0  0  0  0  0  0  0  0  0  0  0  0
    3.0046    0.6922   -3.8642 H   0  0  0  0  0  0  0  0  0  0  0  0
  1  2  1  0
  1 32  1  0
  1 33  1  0
  1 34  1  0
  2  3  1  0
  3 21  1  0
  3  4  1  0
  3 35  1  1
  4 27  1  0
  4  5  1  0
  4 36  1  6
  5  6  1  0
  5  7  1  0
  5  8  1  0
  6 37  1  0
  6 38  1  0
  6 39  1  0
  7 40  1  0
  7 41  1  0
  7 42  1  0
  8  9  1  0
  9 11  1  0
  9 19  1  0
  9 10  1  1
 10 11  1  0
 11 12  1  0
 11 43  1  1
 12 13  1  0
 13 27  1  0
 13 14  1  0
 13 44  1  1
 14 15  1  0
 15 16  2  0
 15 45  1  0
 16 17  1  0
 16 27  1  0
 17 21  1  0
 17 18  1  0
 17 46  1  6
 18 19  1  0
 18 47  1  0
 18 48  1  0
 19 20  1  0
 19 49  1  1
 20 21  1  0
 21 22  1  1
 22 23  1  0
 23 24  1  0
 23 50  1  0
 23 51  1  0
 24 25  1  0
 24 26  1  0
 24 52  1  6
 25 53  1  0
 25 54  1  0
 25 55  1  0
 26 56  1  0
 27 28  1  6
 28 29  1  0
 29 30  1  0
 29 31  2  0
 30 57  1  0
 30 58  1  0
 30 59  1  0
M  END
>  <i_m_ct_stereo_status>  (14) 
1

>  <s_m_source_file>  (14) 
/var/tmp/pbs.5076253.sched01/tmpeppn20qa/07bjoayft.sdf

>  <i_m_source_file_index>  (14) 
26

>  <i_lp_mmshare_version>  (14) 
48012

>  <i_f3d_flags>  (14) 
0

>  <s_epik_input>  (14) 
TzFbQ0hdPUMyW0NAQEhdKFtDSDJdW0NAQEhdM080KVtDQF00KE9bQ0gyXVtDQEhdKFtDSDNdKVtPSF0pW0NASF0oT1tDSDNdKVtDQEBIXShDKE81KShbQ0gzXSlbQ0gzXSlbQ0BdMihbQ0BASF0xT1tDQEBIXShbQ0BdMzU2KU82KU9DKD1PKVtDSDNd

>  <s_epik_cmdline>  (14) 
J2VwaWtfcHl0aG9uJywgJy1waHQnLCAnMi4wJywgJy1waCcsICc3LjAnLCAnLXRuJywgJzgnLCAnLW1hJywgJzIwMCcsICctaW1hZScsICc8aW5maWxlLm1hZT4nLCAnLW9tYWUnLCAnPG91dGZpbGUubWFlPic=

>  <r_lp_tautomer_probability>  (14) 
1

>  <r_epik_Ionization_Penalty>  (14) 
5.08999e-08

>  <r_epik_Ionization_Penalty_Charging>  (14) 
0

>  <r_epik_Ionization_Penalty_Neutral>  (14) 
5.08999e-08

>  <r_epik_State_Penalty>  (14) 
-0

>  <r_epik_Charging_Adjusted_Penalty>  (14) 
0

>  <i_epik_Tot_Q>  (14) 
0

>  <i_epik_Tot_abs_Q>  (14) 
0

>  <s_epik_Chemistry_Notes>  (14) 
This compound has an ester and may undergo hydrolysis at high or low pH. This compound contains an acetal/aminal-like group ( X-CH(R)-Y where X, Y are N, S, or O) that may be acid/base labile, releasing an aldehyde.

>  <s_lp_Force_Field>  (14) 
OPLS3e

>  <r_lp_Energy>  (14) 
129.625

>  <b_lp_Chiralities_Consistent>  (14) 
1

>  <s_lp_Variant>  (14) 
20:0-1

>  <s_i_glide_gridfile>  (14) 
pfpi4k_grid

>  <i_i_glide_lignum>  (14) 
26

>  <i_i_glide_rotatable_bonds>  (14) 
7

>  <r_i_docking_score>  (14) 
-1.98433

>  <r_i_glide_ligand_efficiency>  (14) 
-0.0640106

>  <r_i_glide_ligand_efficiency_sa>  (14) 
-0.201082

>  <r_i_glide_ligand_efficiency_ln>  (14) 
-0.447527

>  <r_i_glide_gscore>  (14) 
-1.98433

>  <r_i_glide_lipo>  (14) 
-0.310464

>  <r_i_glide_hbond>  (14) 
-0.295005

>  <r_i_glide_metal>  (14) 
-0

>  <r_i_glide_rewards>  (14) 
-0.616729

>  <r_i_glide_evdw>  (14) 
-5.74588

>  <r_i_glide_ecoul>  (14) 
-7.99698

>  <r_i_glide_erotb>  (14) 
0.411709

>  <r_i_glide_esite>  (14) 
-0.0385825

>  <r_i_glide_emodel>  (14) 
5.03151

>  <r_i_glide_energy>  (14) 
-13.7429

>  <r_i_glide_einternal>  (14) 
30.6451

>  <r_i_glide_intrahb_reward>  (14) 
-0

>  <i_i_glide_confnum>  (14) 
1

>  <i_i_glide_posenum>  (14) 
11

>  <r_i_glide_eff_state_penalty>  (14) 
0

>  <ligand_id>  (14) 
20

>  <original_smiles>  (14) 
COC1C2C(C)(C)OC34OC3OC3OC=C(C5CC4OC51OCC(C)O)C32OC(C)=O

>  <smiles>  (14) 
[H]OC([H])(C([H])([H])[H])C([H])([H])OC12OC3([H])C([H])([H])C1([H])C1=C([H])OC4([H])OC5([H])OC53OC(C([H])([H])[H])(C([H])([H])[H])C([H])(C2([H])OC([H])([H])[H])C14OC(=O)C([H])([H])[H]

$$$$
22:0:0
     RDKit          3D

 82 92  0  0  1  0  0  0  0  0999 V2000
    5.8898   -4.8694    6.4403 C   0  0  0  0  0  0  0  0  0  0  0  0
    4.8932   -5.1878    7.4554 O   0  0  0  0  0  0  0  0  0  0  0  0
    3.5388   -5.4986    7.0678 C   0  0  2  0  0  0  0  0  0  0  0  0
    3.2431   -5.8503    5.5541 C   0  0  1  0  0  0  0  0  0  0  0  0
    3.8195   -7.2094    5.1358 C   0  0  2  0  0  0  0  0  0  0  0  0
    5.1484   -7.4446    4.6785 O   0  0  0  0  0  0  0  0  0  0  0  0
    4.1232   -7.4329    3.6863 C   0  0  1  0  0  0  0  0  0  0  0  0
    3.5048   -8.6525    3.0467 C   0  0  2  0  0  0  0  0  0  0  0  0
    4.2612   -8.6906    1.8607 O   0  0  0  0  0  0  0  0  0  0  0  0
    3.9806   -7.4029    1.4158 C   0  0  1  0  0  0  0  0  0  0  0  0
    4.5656   -7.1325    0.1575 O   0  0  0  0  0  0  0  0  0  0  0  0
    2.5990   -7.2622    1.4582 O   0  0  0  0  0  0  0  0  0  0  0  0
    2.1810   -8.3109    2.3271 C   0  0  2  0  0  0  0  0  0  0  0  0
    0.7244   -8.1629    2.9806 C   0  0  2  0  0  0  0  0  0  0  0  0
    0.1206   -9.4008    2.5485 O   0  0  0  0  0  0  0  0  0  0  0  0
   -0.0709   -7.0466    2.3085 C   0  0  1  0  0  0  0  0  0  0  0  0
   -0.1815   -7.1537    0.8976 O   0  0  0  0  0  0  0  0  0  0  0  0
   -1.3185   -7.0407    2.9372 O   0  0  0  0  0  0  0  0  0  0  0  0
   -1.2397   -7.6882    4.2136 C   0  0  0  0  0  0  0  0  0  0  0  0
    0.2658   -7.9546    4.5105 C   0  0  1  0  0  0  0  0  0  0  0  0
    0.2814   -9.2383    5.1595 O   0  0  0  0  0  0  0  0  0  0  0  0
    0.8951   -6.8042    5.5297 C   0  0  2  0  0  0  0  0  0  0  0  0
    1.6040   -7.6221    6.4419 O   0  0  0  0  0  0  0  0  0  0  0  0
   -0.0473   -6.4748    6.4694 O   0  0  0  0  0  0  0  0  0  0  0  0
    0.1052   -5.2082    6.9315 C   0  0  2  0  0  0  0  0  0  0  0  0
   -0.3693   -4.3732    6.0229 O   0  0  0  0  0  0  0  0  0  0  0  0
    0.2201   -4.7744    4.8242 C   0  0  0  0  0  0  0  0  0  0  0  0
    1.7612   -5.4287    4.8180 C   0  0  2  0  0  0  0  0  0  0  0  0
    1.9148   -3.6345    4.7627 C   0  0  1  0  0  0  0  0  0  0  0  0
    1.8205   -3.3338    3.1947 C   0  0  0  0  0  0  0  0  0  0  0  0
    1.2376   -2.4003    5.6909 C   0  0  0  0  0  0  0  0  0  0  0  0
    1.2933   -1.1446    5.2230 C   0  0  0  0  0  0  0  0  0  0  0  0
    2.4584   -0.7257    4.3621 C   0  0  1  0  0  0  0  0  0  0  0  0
    2.7705    0.6420    4.5784 O   0  0  0  0  0  0  0  0  0  0  0  0
    3.6618   -1.6486    4.7030 C   0  0  1  0  0  0  0  0  0  0  0  0
    5.0356   -1.3048    4.1739 C   0  0  0  0  0  0  0  0  0  0  0  0
    4.6852   -1.0735    5.5406 O   0  0  0  0  0  0  0  0  0  0  0  0
    3.3211   -3.1282    5.0015 C   0  0  1  0  0  0  0  0  0  0  0  0
    3.3040   -3.3433    6.4042 O   0  0  0  0  0  0  0  0  0  0  0  0
    2.6305   -4.3180    7.2143 C   0  0  2  0  0  0  0  0  0  0  0  0
    2.3485   -3.1525    8.1574 C   0  0  0  0  0  0  0  0  0  0  0  0
    1.1974   -2.3729    7.3072 C   0  0  0  0  0  0  0  0  0  0  0  0
    1.3058   -4.8316    7.6278 O   0  0  0  0  0  0  0  0  0  0  0  0
    4.5524   -6.5563    2.5317 C   0  0  1  0  0  0  0  0  0  0  0  0
    4.0495   -5.2200    2.5040 O   0  0  0  0  0  0  0  0  0  0  0  0
    4.7997   -4.3596    1.6436 C   0  0  0  0  0  0  0  0  0  0  0  0
    6.7992   -4.6452    6.9116 H   0  0  0  0  0  0  0  0  0  0  0  0
    5.5551   -4.0551    5.8108 H   0  0  0  0  0  0  0  0  0  0  0  0
    6.0514   -5.7572    5.8228 H   0  0  0  0  0  0  0  0  0  0  0  0
    3.1860   -6.2506    7.7748 H   0  0  0  0  0  0  0  0  0  0  0  0
    4.0030   -5.3978    5.0180 H   0  0  0  0  0  0  0  0  0  0  0  0
    3.6611   -8.0804    5.7768 H   0  0  0  0  0  0  0  0  0  0  0  0
    3.5297   -9.5627    3.6454 H   0  0  0  0  0  0  0  0  0  0  0  0
    4.3431   -6.2480   -0.0747 H   0  0  0  0  0  0  0  0  0  0  0  0
    2.0967   -9.1359    1.6136 H   0  0  0  0  0  0  0  0  0  0  0  0
    0.2460   -9.5374    1.6359 H   0  0  0  0  0  0  0  0  0  0  0  0
    0.4210   -6.0888    2.4838 H   0  0  0  0  0  0  0  0  0  0  0  0
   -0.2956   -8.0588    0.6736 H   0  0  0  0  0  0  0  0  0  0  0  0
   -1.7691   -7.1092    4.9760 H   0  0  0  0  0  0  0  0  0  0  0  0
   -1.8072   -8.6199    4.1355 H   0  0  0  0  0  0  0  0  0  0  0  0
   -0.4049   -9.7804    4.7965 H   0  0  0  0  0  0  0  0  0  0  0  0
    1.1353   -8.4632    6.4126 H   0  0  0  0  0  0  0  0  0  0  0  0
   -0.6388   -5.1591    7.7326 H   0  0  0  0  0  0  0  0  0  0  0  0
   -0.4964   -5.4580    4.4099 H   0  0  0  0  0  0  0  0  0  0  0  0
   -0.1463   -4.0660    4.0916 H   0  0  0  0  0  0  0  0  0  0  0  0
    1.7026   -4.2484    2.6185 H   0  0  0  0  0  0  0  0  0  0  0  0
    2.6925   -2.8647    2.7506 H   0  0  0  0  0  0  0  0  0  0  0  0
    0.9810   -2.6855    2.9466 H   0  0  0  0  0  0  0  0  0  0  0  0
    0.9400   -0.3265    5.8419 H   0  0  0  0  0  0  0  0  0  0  0  0
    2.2255   -0.8071    3.3048 H   0  0  0  0  0  0  0  0  0  0  0  0
    2.2201    1.1733    4.0277 H   0  0  0  0  0  0  0  0  0  0  0  0
    5.7889   -2.0809    4.0479 H   0  0  0  0  0  0  0  0  0  0  0  0
    5.1709   -0.4003    3.5822 H   0  0  0  0  0  0  0  0  0  0  0  0
    4.1053   -3.6130    4.4180 H   0  0  0  0  0  0  0  0  0  0  0  0
    2.0020   -3.4569    9.1348 H   0  0  0  0  0  0  0  0  0  0  0  0
    3.2325   -2.5365    8.3483 H   0  0  0  0  0  0  0  0  0  0  0  0
    1.2323   -1.3355    7.6637 H   0  0  0  0  0  0  0  0  0  0  0  0
    0.2030   -2.6755    7.6364 H   0  0  0  0  0  0  0  0  0  0  0  0
    5.6522   -6.5732    2.5107 H   0  0  0  0  0  0  0  0  0  0  0  0
    4.4530   -3.3292    1.7028 H   0  0  0  0  0  0  0  0  0  0  0  0
    4.7122   -4.6443    0.6001 H   0  0  0  0  0  0  0  0  0  0  0  0
    5.8571   -4.3411    1.9148 H   0  0  0  0  0  0  0  0  0  0  0  0
  1  2  1  0
  1 47  1  0
  1 48  1  0
  1 49  1  0
  2  3  1  0
  3 40  1  0
  3  4  1  0
  3 50  1  1
  4 28  1  0
  4  5  1  0
  4 51  1  6
  5  7  1  0
  5  6  1  0
  5 52  1  1
  7  6  1  1
  7 44  1  0
  7  8  1  0
  8 13  1  0
  8  9  1  0
  8 53  1  1
  9 10  1  0
 10 11  1  6
 10 12  1  0
 10 44  1  0
 11 54  1  0
 12 13  1  0
 13 14  1  0
 13 55  1  6
 14 20  1  0
 14 15  1  6
 14 16  1  0
 15 56  1  0
 16 17  1  0
 16 18  1  0
 16 57  1  6
 17 58  1  0
 18 19  1  0
 19 20  1  0
 19 59  1  0
 19 60  1  0
 20 21  1  1
 20 22  1  0
 21 61  1  0
 22 28  1  0
 22 23  1  1
 22 24  1  0
 23 62  1  0
 24 25  1  0
 25 43  1  0
 25 26  1  0
 25 63  1  1
 26 27  1  0
 28 27  1  1
 27 64  1  0
 27 65  1  0
 28 29  1  0
 29 38  1  0
 29 30  1  6
 29 31  1  0
 30 66  1  0
 30 67  1  0
 30 68  1  0
 31 42  1  0
 31 32  2  0
 32 33  1  0
 32 69  1  0
 33 34  1  0
 33 35  1  0
 33 70  1  6
 34 71  1  0
 35 37  1  1
 35 36  1  0
 35 38  1  0
 36 37  1  0
 36 72  1  0
 36 73  1  0
 38 39  1  0
 38 74  1  6
 39 40  1  0
 40 41  1  1
 40 43  1  0
 41 42  1  0
 41 75  1  0
 41 76  1  0
 42 77  1  0
 42 78  1  0
 44 45  1  0
 44 79  1  6
 45 46  1  0
 46 80  1  0
 46 81  1  0
 46 82  1  0
M  END
>  <i_m_ct_stereo_status>  (15) 
1

>  <s_m_source_file>  (15) 
/var/tmp/pbs.5076253.sched01/tmpeppn20qa/07bjoayft.sdf

>  <i_m_source_file_index>  (15) 
29

>  <i_lp_mmshare_version>  (15) 
48012

>  <i_f3d_flags>  (15) 
0

>  <s_epik_input>  (15) 
W0NIM11bQ0BAXTEyQyhbQ0gyXVtDSDJdMyk9W0NIXVtDQEBIXShbT0hdKVtDQF00KFtDSDJdTzQpW0NASF0yT0MzKFtDQEBIXTVPW0NIM10pT1tDQEBIXShPW0NIMl02KU9bQ0BdKFtPSF0pKEMxNltDQEBIXTVbQ0BIXShPNylbQ0BAXTc4OSlbQ0BdMShbT0hdKVtDQEBdKFtPSF0pKFtDQEBIXShbT0hdKU9bQ0gyXTEpW0NAQEhdMVtDQEhdOE9bQ0BdKE8xKShbT0hdKVtDQEhdOU9bQ0gzXQ==

>  <s_epik_cmdline>  (15) 
J2VwaWtfcHl0aG9uJywgJy1waHQnLCAnMi4wJywgJy1waCcsICc3LjAnLCAnLXRuJywgJzgnLCAnLW1hJywgJzIwMCcsICctaW1hZScsICc8aW5maWxlLm1hZT4nLCAnLW9tYWUnLCAnPG91dGZpbGUubWFlPic=

>  <r_epik_Ionization_Penalty>  (15) 
0.0167349

>  <r_epik_Ionization_Penalty_Charging>  (15) 
0

>  <r_epik_Ionization_Penalty_Neutral>  (15) 
0.0167349

>  <r_epik_State_Penalty>  (15) 
0.0129742

>  <r_epik_Charging_Adjusted_Penalty>  (15) 
0.0129742

>  <i_epik_Tot_Q>  (15) 
0

>  <i_epik_Tot_abs_Q>  (15) 
0

>  <s_epik_Chemistry_Notes>  (15) 
This compound contains an acetal/aminal-like group ( X-CH(R)-Y where X, Y are N, S, or O) that may be acid/base labile, releasing an aldehyde.

>  <s_lp_Force_Field>  (15) 
OPLS3e

>  <r_lp_Energy>  (15) 
568.626

>  <b_lp_Chiralities_Consistent>  (15) 
1

>  <s_lp_Variant>  (15) 
22:0-1

>  <s_i_glide_gridfile>  (15) 
pfpi4k_grid

>  <i_i_glide_lignum>  (15) 
29

>  <i_i_glide_rotatable_bonds>  (15) 
8

>  <r_i_docking_score>  (15) 
-3.49791

>  <r_i_glide_ligand_efficiency>  (15) 
-0.0760416

>  <r_i_glide_ligand_efficiency_sa>  (15) 
-0.272461

>  <r_i_glide_ligand_efficiency_ln>  (15) 
-0.724409

>  <r_i_glide_gscore>  (15) 
-3.49791

>  <r_i_glide_lipo>  (15) 
-0.100846

>  <r_i_glide_hbond>  (15) 
-0.147829

>  <r_i_glide_metal>  (15) 
-0

>  <r_i_glide_rewards>  (15) 
-0.102302

>  <r_i_glide_evdw>  (15) 
-24.9202

>  <r_i_glide_ecoul>  (15) 
-12.0058

>  <r_i_glide_erotb>  (15) 
0

>  <r_i_glide_esite>  (15) 
-0.100053

>  <r_i_glide_emodel>  (15) 
-31.2201

>  <r_i_glide_energy>  (15) 
-36.926

>  <r_i_glide_einternal>  (15) 
23.4002

>  <r_i_glide_intrahb_reward>  (15) 
-0

>  <i_i_glide_confnum>  (15) 
2

>  <i_i_glide_posenum>  (15) 
30

>  <r_i_glide_eff_state_penalty>  (15) 
0

>  <ligand_id>  (15) 
22

>  <original_smiles>  (15) 
COC1C2C3OC34C3OC(O)(OC3C3(O)C(O)OCC3(O)C3(O)OC5OCC23C2(C)C3=CC(O)C6(CO6)C2OC1(CC3)O5)C4OC

>  <smiles>  (15) 
[H]OC1([H])OC([H])([H])C2(O[H])C3(O[H])OC4([H])OC([H])([H])C35C([H])(C([H])(OC([H])([H])[H])C3(O4)OC4([H])C6(OC6([H])[H])C([H])(O[H])C([H])=C(C([H])([H])C3([H])[H])C45C([H])([H])[H])C3([H])OC34C([H])(OC([H])([H])[H])C3(O[H])OC4([H])C([H])(O3)C12O[H]

$$$$
22:0:1
     RDKit          3D

 82 92  0  0  1  0  0  0  0  0999 V2000
    6.1567   -4.7884    8.2501 C   0  0  0  0  0  0  0  0  0  0  0  0
    5.4089   -5.9359    7.8766 O   0  0  0  0  0  0  0  0  0  0  0  0
    5.5763   -6.3709    6.5221 C   0  0  2  0  0  0  0  0  0  0  0  0
    4.6053   -5.6653    5.4814 C   0  0  1  0  0  0  0  0  0  0  0  0
    4.9678   -4.2003    5.1837 C   0  0  2  0  0  0  0  0  0  0  0  0
    4.5348   -3.0708    5.9225 O   0  0  0  0  0  0  0  0  0  0  0  0
    3.9182   -3.2826    4.6458 C   0  0  1  0  0  0  0  0  0  0  0  0
    4.2629   -2.5654    3.3648 C   0  0  2  0  0  0  0  0  0  0  0  0
    3.2686   -1.5693    3.3809 O   0  0  0  0  0  0  0  0  0  0  0  0
    2.1593   -2.4034    3.4820 C   0  0  1  0  0  0  0  0  0  0  0  0
    0.9479   -1.6890    3.4668 O   0  0  0  0  0  0  0  0  0  0  0  0
    2.2871   -3.3650    2.4755 O   0  0  0  0  0  0  0  0  0  0  0  0
    3.6704   -3.2964    2.1386 C   0  0  2  0  0  0  0  0  0  0  0  0
    4.2965   -4.5413    1.3623 C   0  0  2  0  0  0  0  0  0  0  0  0
    4.8346   -3.8737    0.2043 O   0  0  0  0  0  0  0  0  0  0  0  0
    3.2021   -5.4906    0.8526 C   0  0  1  0  0  0  0  0  0  0  0  0
    2.2419   -4.8798    0.0160 O   0  0  0  0  0  0  0  0  0  0  0  0
    3.8741   -6.5377    0.2240 O   0  0  0  0  0  0  0  0  0  0  0  0
    5.2557   -6.5543    0.5866 C   0  0  0  0  0  0  0  0  0  0  0  0
    5.4235   -5.5891    1.7937 C   0  0  1  0  0  0  0  0  0  0  0  0
    6.6784   -4.9355    1.5510 O   0  0  0  0  0  0  0  0  0  0  0  0
    5.4479   -6.3906    3.2408 C   0  0  2  0  0  0  0  0  0  0  0  0
    6.5603   -5.8085    3.8642 O   0  0  0  0  0  0  0  0  0  0  0  0
    6.1110   -7.5811    3.0521 O   0  0  0  0  0  0  0  0  0  0  0  0
    5.6861   -8.5508    3.8997 C   0  0  2  0  0  0  0  0  0  0  0  0
    4.5259   -9.0066    3.4449 O   0  0  0  0  0  0  0  0  0  0  0  0
    3.7550   -7.8671    3.2146 C   0  0  0  0  0  0  0  0  0  0  0  0
    3.9470   -6.5187    4.1603 C   0  0  2  0  0  0  0  0  0  0  0  0
    2.7964   -7.5921    4.9979 C   0  0  1  0  0  0  0  0  0  0  0  0
    1.4054   -7.2024    4.3211 C   0  0  0  0  0  0  0  0  0  0  0  0
    2.8783   -9.2237    5.3946 C   0  0  0  0  0  0  0  0  0  0  0  0
    1.7357   -9.8571    5.7229 C   0  0  0  0  0  0  0  0  0  0  0  0
    0.6587   -9.0676    6.4252 C   0  0  1  0  0  0  0  0  0  0  0  0
   -0.0607   -9.8803    7.3294 O   0  0  0  0  0  0  0  0  0  0  0  0
    1.3055   -7.8682    7.1516 C   0  0  1  0  0  0  0  0  0  0  0  0
    0.4839   -7.0481    8.1232 C   0  0  0  0  0  0  0  0  0  0  0  0
    1.4584   -7.9840    8.5775 O   0  0  0  0  0  0  0  0  0  0  0  0
    2.5085   -7.1849    6.4272 C   0  0  1  0  0  0  0  0  0  0  0  0
    3.7286   -7.6497    6.9539 O   0  0  0  0  0  0  0  0  0  0  0  0
    5.0540   -7.7545    6.3664 C   0  0  2  0  0  0  0  0  0  0  0  0
    5.1112   -9.1055    7.0636 C   0  0  0  0  0  0  0  0  0  0  0  0
    4.1259   -9.9677    6.1047 C   0  0  0  0  0  0  0  0  0  0  0  0
    5.8419   -8.3939    5.2988 O   0  0  0  0  0  0  0  0  0  0  0  0
    2.4306   -3.1142    4.8058 C   0  0  1  0  0  0  0  0  0  0  0  0
    1.6884   -4.3162    4.9405 O   0  0  0  0  0  0  0  0  0  0  0  0
    0.3860   -4.0829    5.4711 C   0  0  0  0  0  0  0  0  0  0  0  0
    5.9318   -4.5383    9.2838 H   0  0  0  0  0  0  0  0  0  0  0  0
    5.9122   -3.9088    7.6687 H   0  0  0  0  0  0  0  0  0  0  0  0
    7.2279   -4.9551    8.1683 H   0  0  0  0  0  0  0  0  0  0  0  0
    6.6328   -6.3660    6.2513 H   0  0  0  0  0  0  0  0  0  0  0  0
    3.8374   -5.3058    6.1233 H   0  0  0  0  0  0  0  0  0  0  0  0
    6.0051   -3.9737    4.9792 H   0  0  0  0  0  0  0  0  0  0  0  0
    5.2832   -2.1924    3.2913 H   0  0  0  0  0  0  0  0  0  0  0  0
    0.9358   -1.1620    2.6765 H   0  0  0  0  0  0  0  0  0  0  0  0
    3.6314   -2.4881    1.3997 H   0  0  0  0  0  0  0  0  0  0  0  0
    4.1120   -3.4796   -0.2634 H   0  0  0  0  0  0  0  0  0  0  0  0
    2.6591   -5.8936    1.7027 H   0  0  0  0  0  0  0  0  0  0  0  0
    2.6065   -4.7987   -0.8560 H   0  0  0  0  0  0  0  0  0  0  0  0
    5.6055   -7.5725    0.7526 H   0  0  0  0  0  0  0  0  0  0  0  0
    5.8033   -6.2018   -0.2898 H   0  0  0  0  0  0  0  0  0  0  0  0
    6.5846   -4.5325    0.6948 H   0  0  0  0  0  0  0  0  0  0  0  0
    7.2099   -5.7142    3.1662 H   0  0  0  0  0  0  0  0  0  0  0  0
    6.3693   -9.3731    3.6955 H   0  0  0  0  0  0  0  0  0  0  0  0
    3.9378   -7.6655    2.1863 H   0  0  0  0  0  0  0  0  0  0  0  0
    2.8016   -8.2706    2.8837 H   0  0  0  0  0  0  0  0  0  0  0  0
    1.5235   -6.4261    3.5668 H   0  0  0  0  0  0  0  0  0  0  0  0
    0.6461   -6.8131    4.9930 H   0  0  0  0  0  0  0  0  0  0  0  0
    0.9451   -8.0550    3.8167 H   0  0  0  0  0  0  0  0  0  0  0  0
    1.7847  -10.8869    6.0415 H   0  0  0  0  0  0  0  0  0  0  0  0
   -0.0801   -8.7291    5.7046 H   0  0  0  0  0  0  0  0  0  0  0  0
    0.4043  -10.7174    7.4147 H   0  0  0  0  0  0  0  0  0  0  0  0
    0.7397   -6.0152    8.3468 H   0  0  0  0  0  0  0  0  0  0  0  0
   -0.5449   -7.3434    8.3157 H   0  0  0  0  0  0  0  0  0  0  0  0
    2.2396   -6.1450    6.5813 H   0  0  0  0  0  0  0  0  0  0  0  0
    6.1213   -9.5135    7.1124 H   0  0  0  0  0  0  0  0  0  0  0  0
    4.7761   -9.0640    8.1047 H   0  0  0  0  0  0  0  0  0  0  0  0
    3.7648  -10.7892    6.7263 H   0  0  0  0  0  0  0  0  0  0  0  0
    4.6932  -10.5020    5.3443 H   0  0  0  0  0  0  0  0  0  0  0  0
    2.2764   -2.4257    5.6414 H   0  0  0  0  0  0  0  0  0  0  0  0
   -0.1478   -5.0120    5.6550 H   0  0  0  0  0  0  0  0  0  0  0  0
   -0.2289   -3.5029    4.7856 H   0  0  0  0  0  0  0  0  0  0  0  0
    0.4394   -3.5586    6.4257 H   0  0  0  0  0  0  0  0  0  0  0  0
  1  2  1  0
  1 47  1  0
  1 48  1  0
  1 49  1  0
  2  3  1  0
  3 40  1  0
  3  4  1  0
  3 50  1  6
  4 28  1  0
  4  5  1  0
  4 51  1  1
  5  7  1  0
  5  6  1  0
  5 52  1  6
  7  6  1  1
  7 44  1  0
  7  8  1  0
  8 13  1  0
  8  9  1  0
  8 53  1  6
  9 10  1  0
 10 11  1  1
 10 12  1  0
 10 44  1  0
 11 54  1  0
 12 13  1  0
 13 14  1  0
 13 55  1  6
 14 20  1  0
 14 15  1  6
 14 16  1  0
 15 56  1  0
 16 17  1  0
 16 18  1  0
 16 57  1  1
 17 58  1  0
 18 19  1  0
 19 20  1  0
 19 59  1  0
 19 60  1  0
 20 21  1  6
 20 22  1  0
 21 61  1  0
 22 28  1  0
 22 23  1  1
 22 24  1  0
 23 62  1  0
 24 25  1  0
 25 43  1  0
 25 26  1  0
 25 63  1  6
 26 27  1  0
 28 27  1  1
 27 64  1  0
 27 65  1  0
 28 29  1  0
 29 38  1  0
 29 30  1  6
 29 31  1  0
 30 66  1  0
 30 67  1  0
 30 68  1  0
 31 42  1  0
 31 32  2  0
 32 33  1  0
 32 69  1  0
 33 34  1  0
 33 35  1  0
 33 70  1  6
 34 71  1  0
 35 37  1  1
 35 36  1  0
 35 38  1  0
 36 37  1  0
 36 72  1  0
 36 73  1  0
 38 39  1  0
 38 74  1  6
 39 40  1  0
 40 41  1  1
 40 43  1  0
 41 42  1  0
 41 75  1  0
 41 76  1  0
 42 77  1  0
 42 78  1  0
 44 45  1  0
 44 79  1  1
 45 46  1  0
 46 80  1  0
 46 81  1  0
 46 82  1  0
M  END
>  <i_m_ct_stereo_status>  (16) 
1

>  <s_m_source_file>  (16) 
/var/tmp/pbs.5076253.sched01/tmpeppn20qa/07bjoayft.sdf

>  <i_m_source_file_index>  (16) 
29

>  <i_lp_mmshare_version>  (16) 
48012

>  <i_f3d_flags>  (16) 
0

>  <s_epik_input>  (16) 
W0NIM11bQ0BAXTEyQyhbQ0gyXVtDSDJdMyk9W0NIXVtDQEBIXShbT0hdKVtDQF00KFtDSDJdTzQpW0NASF0yT0MzKFtDQEBIXTVPW0NIM10pT1tDQEBIXShPW0NIMl02KU9bQ0BdKFtPSF0pKEMxNltDQEBIXTVbQ0BIXShPNylbQ0BAXTc4OSlbQ0BdMShbT0hdKVtDQEBdKFtPSF0pKFtDQEBIXShbT0hdKU9bQ0gyXTEpW0NAQEhdMVtDQEhdOE9bQ0BdKE8xKShbT0hdKVtDQEhdOU9bQ0gzXQ==

>  <s_epik_cmdline>  (16) 
J2VwaWtfcHl0aG9uJywgJy1waHQnLCAnMi4wJywgJy1waCcsICc3LjAnLCAnLXRuJywgJzgnLCAnLW1hJywgJzIwMCcsICctaW1hZScsICc8aW5maWxlLm1hZT4nLCAnLW9tYWUnLCAnPG91dGZpbGUubWFlPic=

>  <r_epik_Ionization_Penalty>  (16) 
0.0167349

>  <r_epik_Ionization_Penalty_Charging>  (16) 
0

>  <r_epik_Ionization_Penalty_Neutral>  (16) 
0.0167349

>  <r_epik_State_Penalty>  (16) 
0.0129742

>  <r_epik_Charging_Adjusted_Penalty>  (16) 
0.0129742

>  <i_epik_Tot_Q>  (16) 
0

>  <i_epik_Tot_abs_Q>  (16) 
0

>  <s_epik_Chemistry_Notes>  (16) 
This compound contains an acetal/aminal-like group ( X-CH(R)-Y where X, Y are N, S, or O) that may be acid/base labile, releasing an aldehyde.

>  <s_lp_Force_Field>  (16) 
OPLS3e

>  <r_lp_Energy>  (16) 
568.626

>  <b_lp_Chiralities_Consistent>  (16) 
1

>  <s_lp_Variant>  (16) 
22:0-1

>  <s_i_glide_gridfile>  (16) 
pfpi4k_grid

>  <i_i_glide_lignum>  (16) 
29

>  <i_i_glide_rotatable_bonds>  (16) 
8

>  <r_i_docking_score>  (16) 
-2.05897

>  <r_i_glide_ligand_efficiency>  (16) 
-0.0447602

>  <r_i_glide_ligand_efficiency_sa>  (16) 
-0.160378

>  <r_i_glide_ligand_efficiency_ln>  (16) 
-0.426407

>  <r_i_glide_gscore>  (16) 
-2.05897

>  <r_i_glide_lipo>  (16) 
-0.186125

>  <r_i_glide_hbond>  (16) 
0

>  <r_i_glide_metal>  (16) 
-0

>  <r_i_glide_rewards>  (16) 
-0.00125728

>  <r_i_glide_evdw>  (16) 
-19.8677

>  <r_i_glide_ecoul>  (16) 
-5.78535

>  <r_i_glide_erotb>  (16) 
0

>  <r_i_glide_esite>  (16) 
-0.0103994

>  <r_i_glide_emodel>  (16) 
-28.625

>  <r_i_glide_energy>  (16) 
-25.653

>  <r_i_glide_einternal>  (16) 
2.2924

>  <r_i_glide_intrahb_reward>  (16) 
-0

>  <i_i_glide_confnum>  (16) 
1

>  <i_i_glide_posenum>  (16) 
19

>  <r_i_glide_eff_state_penalty>  (16) 
0

>  <ligand_id>  (16) 
22

>  <original_smiles>  (16) 
COC1C2C3OC34C3OC(O)(OC3C3(O)C(O)OCC3(O)C3(O)OC5OCC23C2(C)C3=CC(O)C6(CO6)C2OC1(CC3)O5)C4OC

>  <smiles>  (16) 
[H]OC1([H])OC([H])([H])C2(O[H])C3(O[H])OC4([H])OC([H])([H])C35C([H])(C([H])(OC([H])([H])[H])C3(O4)OC4([H])C6(OC6([H])[H])C([H])(O[H])C([H])=C(C([H])([H])C3([H])[H])C45C([H])([H])[H])C3([H])OC34C([H])(OC([H])([H])[H])C3(O[H])OC4([H])C([H])(O3)C12O[H]

$$$$
22:0:2
     RDKit          3D

 82 92  0  0  1  0  0  0  0  0999 V2000
    6.2578   -6.2872    6.9202 C   0  0  0  0  0  0  0  0  0  0  0  0
    5.3349   -6.7604    5.9515 O   0  0  0  0  0  0  0  0  0  0  0  0
    4.8683   -5.7877    5.0069 C   0  0  2  0  0  0  0  0  0  0  0  0
    3.6122   -4.9506    5.4968 C   0  0  1  0  0  0  0  0  0  0  0  0
    3.9280   -3.9199    6.5915 C   0  0  2  0  0  0  0  0  0  0  0  0
    3.9414   -4.1653    7.9906 O   0  0  0  0  0  0  0  0  0  0  0  0
    2.8281   -3.4250    7.4708 C   0  0  1  0  0  0  0  0  0  0  0  0
    2.6494   -1.9311    7.5308 C   0  0  2  0  0  0  0  0  0  0  0  0
    1.8493   -1.8319    8.6849 O   0  0  0  0  0  0  0  0  0  0  0  0
    0.8273   -2.6817    8.2777 C   0  0  1  0  0  0  0  0  0  0  0  0
   -0.2055   -2.7594    9.2324 O   0  0  0  0  0  0  0  0  0  0  0  0
    0.4205   -2.2425    7.0159 O   0  0  0  0  0  0  0  0  0  0  0  0
    1.5301   -1.4603    6.5755 C   0  0  2  0  0  0  0  0  0  0  0  0
    1.6568   -1.1683    5.0120 C   0  0  2  0  0  0  0  0  0  0  0  0
    1.7100    0.2712    5.0240 O   0  0  0  0  0  0  0  0  0  0  0  0
    0.3732   -1.5530    4.2657 C   0  0  1  0  0  0  0  0  0  0  0  0
   -0.7961   -0.9270    4.7599 O   0  0  0  0  0  0  0  0  0  0  0  0
    0.6195   -1.2522    2.9254 O   0  0  0  0  0  0  0  0  0  0  0  0
    2.0209   -1.1020    2.6714 C   0  0  0  0  0  0  0  0  0  0  0  0
    2.7684   -1.6008    3.9434 C   0  0  1  0  0  0  0  0  0  0  0  0
    3.8575   -0.6763    4.1007 O   0  0  0  0  0  0  0  0  0  0  0  0
    3.3427   -3.1477    3.7837 C   0  0  2  0  0  0  0  0  0  0  0  0
    4.6559   -2.9888    4.2557 O   0  0  0  0  0  0  0  0  0  0  0  0
    3.7663   -3.3031    2.4815 O   0  0  0  0  0  0  0  0  0  0  0  0
    3.6616   -4.5854    2.0525 C   0  0  2  0  0  0  0  0  0  0  0  0
    2.3831   -4.8249    1.7851 O   0  0  0  0  0  0  0  0  0  0  0  0
    1.6936   -4.3832    2.9138 C   0  0  0  0  0  0  0  0  0  0  0  0
    2.3796   -4.4866    4.4124 C   0  0  2  0  0  0  0  0  0  0  0  0
    1.6123   -6.0651    4.0819 C   0  0  1  0  0  0  0  0  0  0  0  0
    0.1061   -5.8184    4.5380 C   0  0  0  0  0  0  0  0  0  0  0  0
    1.7186   -7.1029    2.7602 C   0  0  0  0  0  0  0  0  0  0  0  0
    0.7776   -8.0632    2.6257 C   0  0  0  0  0  0  0  0  0  0  0  0
    0.1670   -8.6542    3.8688 C   0  0  1  0  0  0  0  0  0  0  0  0
   -0.1842  -10.0083    3.6333 O   0  0  0  0  0  0  0  0  0  0  0  0
    1.1604   -8.4780    5.0448 C   0  0  1  0  0  0  0  0  0  0  0  0
    0.9176   -9.1973    6.3543 C   0  0  0  0  0  0  0  0  0  0  0  0
    1.9089   -9.6390    5.4325 O   0  0  0  0  0  0  0  0  0  0  0  0
    1.9959   -7.1508    5.0583 C   0  0  1  0  0  0  0  0  0  0  0  0
    3.2795   -7.3656    4.5206 O   0  0  0  0  0  0  0  0  0  0  0  0
    4.2138   -6.4687    3.8573 C   0  0  2  0  0  0  0  0  0  0  0  0
    4.4506   -7.6344    2.9055 C   0  0  0  0  0  0  0  0  0  0  0  0
    3.0794   -7.5815    2.0382 C   0  0  0  0  0  0  0  0  0  0  0  0
    4.4134   -5.6110    2.6768 O   0  0  0  0  0  0  0  0  0  0  0  0
    1.5750   -3.9968    8.0740 C   0  0  1  0  0  0  0  0  0  0  0  0
    0.8551   -4.9082    7.2560 O   0  0  0  0  0  0  0  0  0  0  0  0
   -0.0503   -5.7109    8.0119 C   0  0  0  0  0  0  0  0  0  0  0  0
    6.5171   -7.1009    7.5916 H   0  0  0  0  0  0  0  0  0  0  0  0
    5.8588   -5.4996    7.5454 H   0  0  0  0  0  0  0  0  0  0  0  0
    7.1731   -5.9194    6.4641 H   0  0  0  0  0  0  0  0  0  0  0  0
    5.7051   -5.1920    4.6345 H   0  0  0  0  0  0  0  0  0  0  0  0
    3.2242   -5.5842    6.2583 H   0  0  0  0  0  0  0  0  0  0  0  0
    4.7966   -3.2888    6.4505 H   0  0  0  0  0  0  0  0  0  0  0  0
    3.5666   -1.3469    7.5707 H   0  0  0  0  0  0  0  0  0  0  0  0
    0.1305   -3.2441    9.9702 H   0  0  0  0  0  0  0  0  0  0  0  0
    1.2558   -0.4983    7.0240 H   0  0  0  0  0  0  0  0  0  0  0  0
    0.9230    0.5957    5.4405 H   0  0  0  0  0  0  0  0  0  0  0  0
    0.2085   -2.6237    4.3585 H   0  0  0  0  0  0  0  0  0  0  0  0
   -0.7497   -0.0044    4.5612 H   0  0  0  0  0  0  0  0  0  0  0  0
    2.3107   -1.5833    1.7381 H   0  0  0  0  0  0  0  0  0  0  0  0
    2.1952   -0.0378    2.4895 H   0  0  0  0  0  0  0  0  0  0  0  0
    3.4610    0.1892    4.1016 H   0  0  0  0  0  0  0  0  0  0  0  0
    4.9048   -2.1091    3.9753 H   0  0  0  0  0  0  0  0  0  0  0  0
    4.1221   -4.5506    1.0656 H   0  0  0  0  0  0  0  0  0  0  0  0
    1.4285   -3.3829    2.6554 H   0  0  0  0  0  0  0  0  0  0  0  0
    0.6619   -4.6359    2.6859 H   0  0  0  0  0  0  0  0  0  0  0  0
   -0.0523   -4.8036    4.9010 H   0  0  0  0  0  0  0  0  0  0  0  0
   -0.2594   -6.4543    5.3393 H   0  0  0  0  0  0  0  0  0  0  0  0
   -0.5861   -5.9663    3.7104 H   0  0  0  0  0  0  0  0  0  0  0  0
    0.8661   -8.7880    1.8292 H   0  0  0  0  0  0  0  0  0  0  0  0
   -0.7766   -8.1645    4.0919 H   0  0  0  0  0  0  0  0  0  0  0  0
   -0.8001  -10.3095    4.2985 H   0  0  0  0  0  0  0  0  0  0  0  0
    1.3269   -8.8234    7.2896 H   0  0  0  0  0  0  0  0  0  0  0  0
    0.0501   -9.8528    6.4346 H   0  0  0  0  0  0  0  0  0  0  0  0
    1.9133   -6.8996    6.1091 H   0  0  0  0  0  0  0  0  0  0  0  0
    5.3477   -7.5107    2.2975 H   0  0  0  0  0  0  0  0  0  0  0  0
    4.5965   -8.5872    3.4272 H   0  0  0  0  0  0  0  0  0  0  0  0
    2.9551   -8.5893    1.6372 H   0  0  0  0  0  0  0  0  0  0  0  0
    3.2230   -7.0012    1.1278 H   0  0  0  0  0  0  0  0  0  0  0  0
    1.8498   -4.4276    9.0408 H   0  0  0  0  0  0  0  0  0  0  0  0
   -0.5258   -6.4658    7.3927 H   0  0  0  0  0  0  0  0  0  0  0  0
   -0.8524   -5.1139    8.4425 H   0  0  0  0  0  0  0  0  0  0  0  0
    0.4642   -6.2454    8.8112 H   0  0  0  0  0  0  0  0  0  0  0  0
  1  2  1  0
  1 47  1  0
  1 48  1  0
  1 49  1  0
  2  3  1  0
  3 40  1  0
  3  4  1  0
  3 50  1  6
  4 28  1  0
  4  5  1  0
  4 51  1  1
  5  7  1  0
  5  6  1  0
  5 52  1  6
  7  6  1  1
  7 44  1  0
  7  8  1  0
  8 13  1  0
  8  9  1  0
  8 53  1  1
  9 10  1  0
 10 11  1  1
 10 12  1  0
 10 44  1  0
 11 54  1  0
 12 13  1  0
 13 14  1  0
 13 55  1  1
 14 20  1  0
 14 15  1  1
 14 16  1  0
 15 56  1  0
 16 17  1  0
 16 18  1  0
 16 57  1  6
 17 58  1  0
 18 19  1  0
 19 20  1  0
 19 59  1  0
 19 60  1  0
 20 21  1  1
 20 22  1  0
 21 61  1  0
 22 28  1  0
 22 23  1  1
 22 24  1  0
 23 62  1  0
 24 25  1  0
 25 43  1  0
 25 26  1  0
 25 63  1  6
 26 27  1  0
 28 27  1  6
 27 64  1  0
 27 65  1  0
 28 29  1  0
 29 38  1  0
 29 30  1  1
 29 31  1  0
 30 66  1  0
 30 67  1  0
 30 68  1  0
 31 42  1  0
 31 32  2  0
 32 33  1  0
 32 69  1  0
 33 34  1  0
 33 35  1  0
 33 70  1  1
 34 71  1  0
 35 37  1  6
 35 36  1  0
 35 38  1  0
 36 37  1  0
 36 72  1  0
 36 73  1  0
 38 39  1  0
 38 74  1  1
 39 40  1  0
 40 41  1  6
 40 43  1  0
 41 42  1  0
 41 75  1  0
 41 76  1  0
 42 77  1  0
 42 78  1  0
 44 45  1  0
 44 79  1  1
 45 46  1  0
 46 80  1  0
 46 81  1  0
 46 82  1  0
M  END
>  <i_m_ct_stereo_status>  (17) 
1

>  <s_m_source_file>  (17) 
/var/tmp/pbs.5076253.sched01/tmpeppn20qa/07bjoayft.sdf

>  <i_m_source_file_index>  (17) 
29

>  <i_lp_mmshare_version>  (17) 
48012

>  <i_f3d_flags>  (17) 
0

>  <s_epik_input>  (17) 
W0NIM11bQ0BAXTEyQyhbQ0gyXVtDSDJdMyk9W0NIXVtDQEBIXShbT0hdKVtDQF00KFtDSDJdTzQpW0NASF0yT0MzKFtDQEBIXTVPW0NIM10pT1tDQEBIXShPW0NIMl02KU9bQ0BdKFtPSF0pKEMxNltDQEBIXTVbQ0BIXShPNylbQ0BAXTc4OSlbQ0BdMShbT0hdKVtDQEBdKFtPSF0pKFtDQEBIXShbT0hdKU9bQ0gyXTEpW0NAQEhdMVtDQEhdOE9bQ0BdKE8xKShbT0hdKVtDQEhdOU9bQ0gzXQ==

>  <s_epik_cmdline>  (17) 
J2VwaWtfcHl0aG9uJywgJy1waHQnLCAnMi4wJywgJy1waCcsICc3LjAnLCAnLXRuJywgJzgnLCAnLW1hJywgJzIwMCcsICctaW1hZScsICc8aW5maWxlLm1hZT4nLCAnLW9tYWUnLCAnPG91dGZpbGUubWFlPic=

>  <r_epik_Ionization_Penalty>  (17) 
0.0167349

>  <r_epik_Ionization_Penalty_Charging>  (17) 
0

>  <r_epik_Ionization_Penalty_Neutral>  (17) 
0.0167349

>  <r_epik_State_Penalty>  (17) 
0.0129742

>  <r_epik_Charging_Adjusted_Penalty>  (17) 
0.0129742

>  <i_epik_Tot_Q>  (17) 
0

>  <i_epik_Tot_abs_Q>  (17) 
0

>  <s_epik_Chemistry_Notes>  (17) 
This compound contains an acetal/aminal-like group ( X-CH(R)-Y where X, Y are N, S, or O) that may be acid/base labile, releasing an aldehyde.

>  <s_lp_Force_Field>  (17) 
OPLS3e

>  <r_lp_Energy>  (17) 
568.626

>  <b_lp_Chiralities_Consistent>  (17) 
1

>  <s_lp_Variant>  (17) 
22:0-1

>  <s_i_glide_gridfile>  (17) 
pfpi4k_grid

>  <i_i_glide_lignum>  (17) 
29

>  <i_i_glide_rotatable_bonds>  (17) 
8

>  <r_i_docking_score>  (17) 
-1.75127

>  <r_i_glide_ligand_efficiency>  (17) 
-0.0380711

>  <r_i_glide_ligand_efficiency_sa>  (17) 
-0.136411

>  <r_i_glide_ligand_efficiency_ln>  (17) 
-0.362684

>  <r_i_glide_gscore>  (17) 
-1.75127

>  <r_i_glide_lipo>  (17) 
-0.00840358

>  <r_i_glide_hbond>  (17) 
0

>  <r_i_glide_metal>  (17) 
-0

>  <r_i_glide_rewards>  (17) 
-0.0048323

>  <r_i_glide_evdw>  (17) 
-20.7874

>  <r_i_glide_ecoul>  (17) 
-4.49376

>  <r_i_glide_erotb>  (17) 
0

>  <r_i_glide_esite>  (17) 
-0.0246038

>  <r_i_glide_emodel>  (17) 
-27.1958

>  <r_i_glide_energy>  (17) 
-25.2811

>  <r_i_glide_einternal>  (17) 
2.94051

>  <r_i_glide_intrahb_reward>  (17) 
-0

>  <i_i_glide_confnum>  (17) 
1

>  <i_i_glide_posenum>  (17) 
6

>  <r_i_glide_eff_state_penalty>  (17) 
0

>  <ligand_id>  (17) 
22

>  <original_smiles>  (17) 
COC1C2C3OC34C3OC(O)(OC3C3(O)C(O)OCC3(O)C3(O)OC5OCC23C2(C)C3=CC(O)C6(CO6)C2OC1(CC3)O5)C4OC

>  <smiles>  (17) 
[H]OC1([H])OC([H])([H])C2(O[H])C3(O[H])OC4([H])OC([H])([H])C35C([H])(C([H])(OC([H])([H])[H])C3(O4)OC4([H])C6(OC6([H])[H])C([H])(O[H])C([H])=C(C([H])([H])C3([H])[H])C45C([H])([H])[H])C3([H])OC34C([H])(OC([H])([H])[H])C3(O[H])OC4([H])C([H])(O3)C12O[H]

$$$$
22:1:0
     RDKit          3D

 82 92  0  0  1  0  0  0  0  0999 V2000
    0.6587    4.5096    9.4082 C   0  0  0  0  0  0  0  0  0  0  0  0
    1.2663    3.7907    8.3416 O   0  0  0  0  0  0  0  0  0  0  0  0
    0.8996    2.4129    8.2788 C   0  0  2  0  0  0  0  0  0  0  0  0
    1.6960    1.6427    7.1700 C   0  0  1  0  0  0  0  0  0  0  0  0
    2.9517    1.0901    8.0101 C   0  0  2  0  0  0  0  0  0  0  0  0
    4.0287    1.8547    8.5136 O   0  0  0  0  0  0  0  0  0  0  0  0
    4.3581    0.9029    7.4672 C   0  0  1  0  0  0  0  0  0  0  0  0
    4.9524   -0.5192    7.5833 C   0  0  2  0  0  0  0  0  0  0  0  0
    6.3150   -0.2282    7.3470 O   0  0  0  0  0  0  0  0  0  0  0  0
    6.1604    0.3557    6.0977 C   0  0  1  0  0  0  0  0  0  0  0  0
    7.3974    0.7325    5.5391 O   0  0  0  0  0  0  0  0  0  0  0  0
    5.4424   -0.5812    5.3307 O   0  0  0  0  0  0  0  0  0  0  0  0
    4.8345   -1.4423    6.3015 C   0  0  2  0  0  0  0  0  0  0  0  0
    3.5610   -2.3600    5.8651 C   0  0  2  0  0  0  0  0  0  0  0  0
    3.3018   -3.1283    7.0315 O   0  0  0  0  0  0  0  0  0  0  0  0
    4.0471   -3.2750    4.7013 C   0  0  1  0  0  0  0  0  0  0  0  0
    3.4077   -4.5406    4.7157 O   0  0  0  0  0  0  0  0  0  0  0  0
    3.7268   -2.5854    3.5405 O   0  0  0  0  0  0  0  0  0  0  0  0
    2.5126   -1.8550    3.6930 C   0  0  0  0  0  0  0  0  0  0  0  0
    2.1874   -1.8387    5.2067 C   0  0  1  0  0  0  0  0  0  0  0  0
    1.1866   -2.8411    5.3572 O   0  0  0  0  0  0  0  0  0  0  0  0
    1.8136   -0.4184    5.8180 C   0  0  2  0  0  0  0  0  0  0  0  0
    2.8918    0.2908    5.3186 O   0  0  0  0  0  0  0  0  0  0  0  0
    1.6097   -0.7510    7.2356 O   0  0  0  0  0  0  0  0  0  0  0  0
    0.2319   -0.5824    7.8077 C   0  0  2  0  0  0  0  0  0  0  0  0
   -0.4878   -1.3118    6.9462 O   0  0  0  0  0  0  0  0  0  0  0  0
   -0.3998   -0.4597    5.8247 C   0  0  0  0  0  0  0  0  0  0  0  0
    0.7688    0.6940    5.8454 C   0  0  1  0  0  0  0  0  0  0  0  0
   -0.0418    1.6037    4.7634 C   0  0  1  0  0  0  0  0  0  0  0  0
    0.3091    1.1653    3.3083 C   0  0  0  0  0  0  0  0  0  0  0  0
   -1.6321    1.9701    4.9658 C   0  0  0  0  0  0  0  0  0  0  0  0
   -2.1970    2.8360    4.0912 C   0  0  0  0  0  0  0  0  0  0  0  0
   -1.3328    3.7492    3.2708 C   0  0  1  0  0  0  0  0  0  0  0  0
   -2.0552    4.9070    2.8880 O   0  0  0  0  0  0  0  0  0  0  0  0
   -0.0569    4.0838    4.0675 C   0  0  1  0  0  0  0  0  0  0  0  0
    0.9603    5.0443    3.4718 C   0  0  0  0  0  0  0  0  0  0  0  0
    0.0723    5.4422    4.5205 O   0  0  0  0  0  0  0  0  0  0  0  0
    0.4342    2.9832    5.0649 C   0  0  1  0  0  0  0  0  0  0  0  0
   -0.1211    3.0973    6.4133 O   0  0  0  0  0  0  0  0  0  0  0  0
   -0.3271    2.1759    7.5775 C   0  0  2  0  0  0  0  0  0  0  0  0
   -1.7622    2.6239    7.6812 C   0  0  0  0  0  0  0  0  0  0  0  0
   -2.4190    1.9690    6.3696 C   0  0  0  0  0  0  0  0  0  0  0  0
   -0.5970    0.7108    7.8995 O   0  0  0  0  0  0  0  0  0  0  0  0
    5.2567    1.5702    6.4436 C   0  0  1  0  0  0  0  0  0  0  0  0
    4.6202    2.1724    5.3264 O   0  0  0  0  0  0  0  0  0  0  0  0
    4.2019    3.5253    5.4870 C   0  0  0  0  0  0  0  0  0  0  0  0
    0.9614    5.5560    9.3909 H   0  0  0  0  0  0  0  0  0  0  0  0
    0.9363    4.0985   10.3775 H   0  0  0  0  0  0  0  0  0  0  0  0
   -0.4226    4.4828    9.3216 H   0  0  0  0  0  0  0  0  0  0  0  0
    0.9038    1.9450    9.2635 H   0  0  0  0  0  0  0  0  0  0  0  0
    2.2132    2.4107    6.6276 H   0  0  0  0  0  0  0  0  0  0  0  0
    2.6662    0.4305    8.8321 H   0  0  0  0  0  0  0  0  0  0  0  0
    4.7719   -1.0087    8.5423 H   0  0  0  0  0  0  0  0  0  0  0  0
    7.7453    1.4343    6.0745 H   0  0  0  0  0  0  0  0  0  0  0  0
    5.6023   -2.1967    6.4983 H   0  0  0  0  0  0  0  0  0  0  0  0
    3.0473   -2.5420    7.7257 H   0  0  0  0  0  0  0  0  0  0  0  0
    5.1221   -3.4648    4.7101 H   0  0  0  0  0  0  0  0  0  0  0  0
    3.8491   -5.0991    4.0900 H   0  0  0  0  0  0  0  0  0  0  0  0
    2.6907   -0.8802    3.2489 H   0  0  0  0  0  0  0  0  0  0  0  0
    1.7098   -2.2994    3.1077 H   0  0  0  0  0  0  0  0  0  0  0  0
    1.5907   -3.6618    5.1022 H   0  0  0  0  0  0  0  0  0  0  0  0
    2.8740    1.1888    5.6365 H   0  0  0  0  0  0  0  0  0  0  0  0
    0.2345   -1.0497    8.7903 H   0  0  0  0  0  0  0  0  0  0  0  0
   -0.3297   -1.0358    4.9062 H   0  0  0  0  0  0  0  0  0  0  0  0
   -1.4266   -0.1928    5.7360 H   0  0  0  0  0  0  0  0  0  0  0  0
    1.0783    1.7933    2.8590 H   0  0  0  0  0  0  0  0  0  0  0  0
   -0.5549    1.2038    2.6535 H   0  0  0  0  0  0  0  0  0  0  0  0
    0.6579    0.1404    3.2483 H   0  0  0  0  0  0  0  0  0  0  0  0
   -3.2006    3.1935    4.2295 H   0  0  0  0  0  0  0  0  0  0  0  0
   -1.0599    3.2439    2.3516 H   0  0  0  0  0  0  0  0  0  0  0  0
   -1.6209    5.2299    2.1037 H   0  0  0  0  0  0  0  0  0  0  0  0
    2.0014    5.0113    3.7827 H   0  0  0  0  0  0  0  0  0  0  0  0
    0.7718    5.4848    2.4943 H   0  0  0  0  0  0  0  0  0  0  0  0
    1.5058    3.0628    4.9698 H   0  0  0  0  0  0  0  0  0  0  0  0
   -2.2175    2.2716    8.6117 H   0  0  0  0  0  0  0  0  0  0  0  0
   -1.8296    3.7151    7.6510 H   0  0  0  0  0  0  0  0  0  0  0  0
   -3.3435    2.5288    6.2401 H   0  0  0  0  0  0  0  0  0  0  0  0
   -2.7629    0.9743    6.6272 H   0  0  0  0  0  0  0  0  0  0  0  0
    5.8900    2.2968    6.9390 H   0  0  0  0  0  0  0  0  0  0  0  0
    3.5609    3.7348    4.6348 H   0  0  0  0  0  0  0  0  0  0  0  0
    5.0115    4.2389    5.4820 H   0  0  0  0  0  0  0  0  0  0  0  0
    3.6497    3.7341    6.4087 H   0  0  0  0  0  0  0  0  0  0  0  0
  1  2  1  0
  1 47  1  0
  1 48  1  0
  1 49  1  0
  2  3  1  0
  3 40  1  0
  3  4  1  0
  3 50  1  1
  4 28  1  0
  4  5  1  0
  4 51  1  6
  5  7  1  0
  5  6  1  0
  5 52  1  1
  7  6  1  1
  7 44  1  0
  7  8  1  0
  8 13  1  0
  8  9  1  0
  8 53  1  1
  9 10  1  0
 10 11  1  6
 10 12  1  0
 10 44  1  0
 11 54  1  0
 12 13  1  0
 13 14  1  0
 13 55  1  1
 14 20  1  0
 14 15  1  1
 14 16  1  0
 15 56  1  0
 16 17  1  0
 16 18  1  0
 16 57  1  1
 17 58  1  0
 18 19  1  0
 19 20  1  0
 19 59  1  0
 19 60  1  0
 20 21  1  6
 20 22  1  0
 21 61  1  0
 22 28  1  0
 22 23  1  1
 22 24  1  0
 23 62  1  0
 24 25  1  0
 25 43  1  0
 25 26  1  0
 25 63  1  1
 26 27  1  0
 28 27  1  1
 27 64  1  0
 27 65  1  0
 28 29  1  0
 29 38  1  0
 29 30  1  6
 29 31  1  0
 30 66  1  0
 30 67  1  0
 30 68  1  0
 31 42  1  0
 31 32  2  0
 32 33  1  0
 32 69  1  0
 33 34  1  0
 33 35  1  0
 33 70  1  6
 34 71  1  0
 35 37  1  1
 35 36  1  0
 35 38  1  0
 36 37  1  0
 36 72  1  0
 36 73  1  0
 38 39  1  0
 38 74  1  1
 39 40  1  0
 40 41  1  1
 40 43  1  0
 41 42  1  0
 41 75  1  0
 41 76  1  0
 42 77  1  0
 42 78  1  0
 44 45  1  0
 44 79  1  1
 45 46  1  0
 46 80  1  0
 46 81  1  0
 46 82  1  0
M  END
>  <i_m_ct_stereo_status>  (18) 
1

>  <s_m_source_file>  (18) 
/var/tmp/pbs.5076253.sched01/tmpeppn20qa/07bjoayft.sdf

>  <i_m_source_file_index>  (18) 
30

>  <i_lp_mmshare_version>  (18) 
48012

>  <i_f3d_flags>  (18) 
0

>  <s_epik_input>  (18) 
W0NIM11bQ0BAXTEyQyhbQ0gyXVtDSDJdMyk9W0NIXVtDQEBIXShbT0hdKVtDQF00KFtDSDJdTzQpW0NASF0yT0MzKFtDQEBIXTVPW0NIM10pT1tDQEBIXShPW0NIMl02KU9bQ0BdKFtPSF0pKEMxNltDQEBIXTVbQ0BIXShPNylbQ0BAXTc4OSlbQ0BdMShbT0hdKVtDQEBdKFtPSF0pKFtDQEBIXShbT0hdKU9bQ0gyXTEpW0NAQEhdMVtDQEhdOE9bQ0BdKE8xKShbT0hdKVtDQEhdOU9bQ0gzXQ==

>  <s_epik_cmdline>  (18) 
J2VwaWtfcHl0aG9uJywgJy1waHQnLCAnMi4wJywgJy1waCcsICc3LjAnLCAnLXRuJywgJzgnLCAnLW1hJywgJzIwMCcsICctaW1hZScsICc8aW5maWxlLm1hZT4nLCAnLW9tYWUnLCAnPG91dGZpbGUubWFlPic=

>  <r_epik_Ionization_Penalty>  (18) 
0.0167349

>  <r_epik_Ionization_Penalty_Charging>  (18) 
0

>  <r_epik_Ionization_Penalty_Neutral>  (18) 
0.0167349

>  <r_epik_State_Penalty>  (18) 
0.0129742

>  <r_epik_Charging_Adjusted_Penalty>  (18) 
0.0129742

>  <i_epik_Tot_Q>  (18) 
0

>  <i_epik_Tot_abs_Q>  (18) 
0

>  <s_epik_Chemistry_Notes>  (18) 
This compound contains an acetal/aminal-like group ( X-CH(R)-Y where X, Y are N, S, or O) that may be acid/base labile, releasing an aldehyde.

>  <s_lp_Force_Field>  (18) 
OPLS3e

>  <r_lp_Energy>  (18) 
510.368

>  <b_lp_Chiralities_Consistent>  (18) 
1

>  <s_lp_Variant>  (18) 
22:0-2

>  <s_i_glide_gridfile>  (18) 
pfpi4k_grid

>  <i_i_glide_lignum>  (18) 
30

>  <i_i_glide_rotatable_bonds>  (18) 
8

>  <r_i_docking_score>  (18) 
-3.1019

>  <r_i_glide_ligand_efficiency>  (18) 
-0.0674326

>  <r_i_glide_ligand_efficiency_sa>  (18) 
-0.241614

>  <r_i_glide_ligand_efficiency_ln>  (18) 
-0.642396

>  <r_i_glide_gscore>  (18) 
-3.1019

>  <r_i_glide_lipo>  (18) 
-0.0365577

>  <r_i_glide_hbond>  (18) 
-0.0138044

>  <r_i_glide_metal>  (18) 
-0

>  <r_i_glide_rewards>  (18) 
-0.612126

>  <r_i_glide_evdw>  (18) 
-21.1751

>  <r_i_glide_ecoul>  (18) 
-8.86834

>  <r_i_glide_erotb>  (18) 
0

>  <r_i_glide_esite>  (18) 
-0.0504094

>  <r_i_glide_emodel>  (18) 
-39.6183

>  <r_i_glide_energy>  (18) 
-30.0434

>  <r_i_glide_einternal>  (18) 
2.67861

>  <r_i_glide_intrahb_reward>  (18) 
-0.5

>  <i_i_glide_confnum>  (18) 
1

>  <i_i_glide_posenum>  (18) 
2

>  <r_i_glide_eff_state_penalty>  (18) 
0

>  <ligand_id>  (18) 
22

>  <original_smiles>  (18) 
COC1C2C3OC34C3OC(O)(OC3C3(O)C(O)OCC3(O)C3(O)OC5OCC23C2(C)C3=CC(O)C6(CO6)C2OC1(CC3)O5)C4OC

>  <smiles>  (18) 
[H]OC1([H])OC([H])([H])C2(O[H])C3(O[H])OC4([H])OC([H])([H])C35C([H])(C([H])(OC([H])([H])[H])C3(O4)OC4([H])C6(OC6([H])[H])C([H])(O[H])C([H])=C(C([H])([H])C3([H])[H])C45C([H])([H])[H])C3([H])OC34C([H])(OC([H])([H])[H])C3(O[H])OC4([H])C([H])(O3)C12O[H]

$$$$
22:1:1
     RDKit          3D

 82 92  0  0  1  0  0  0  0  0999 V2000
    3.9970    0.5398    5.2997 C   0  0  0  0  0  0  0  0  0  0  0  0
    3.5203   -0.5660    6.0711 O   0  0  0  0  0  0  0  0  0  0  0  0
    4.2501   -1.7856    5.9288 C   0  0  2  0  0  0  0  0  0  0  0  0
    3.7809   -2.7007    4.7184 C   0  0  1  0  0  0  0  0  0  0  0  0
    4.8121   -2.2624    3.5764 C   0  0  2  0  0  0  0  0  0  0  0  0
    4.8739   -1.0543    2.8390 O   0  0  0  0  0  0  0  0  0  0  0  0
    4.5018   -2.2339    2.0796 C   0  0  1  0  0  0  0  0  0  0  0  0
    5.4206   -3.0441    1.1678 C   0  0  2  0  0  0  0  0  0  0  0  0
    5.0517   -2.4630   -0.0714 O   0  0  0  0  0  0  0  0  0  0  0  0
    3.6917   -2.7437   -0.0046 C   0  0  1  0  0  0  0  0  0  0  0  0
    3.0089   -2.3470   -1.1767 O   0  0  0  0  0  0  0  0  0  0  0  0
    3.5910   -4.1173    0.3036 O   0  0  0  0  0  0  0  0  0  0  0  0
    4.9039   -4.4761    0.7585 C   0  0  2  0  0  0  0  0  0  0  0  0
    5.0937   -5.8432    1.6108 C   0  0  2  0  0  0  0  0  0  0  0  0
    6.4877   -5.8779    1.8711 O   0  0  0  0  0  0  0  0  0  0  0  0
    4.6666   -7.0130    0.6806 C   0  0  1  0  0  0  0  0  0  0  0  0
    5.3781   -8.2038    0.9719 O   0  0  0  0  0  0  0  0  0  0  0  0
    3.3210   -7.1792    0.9367 O   0  0  0  0  0  0  0  0  0  0  0  0
    3.0309   -7.0052    2.3170 C   0  0  0  0  0  0  0  0  0  0  0  0
    4.2568   -6.2737    2.9179 C   0  0  1  0  0  0  0  0  0  0  0  0
    4.9893   -7.3026    3.5976 O   0  0  0  0  0  0  0  0  0  0  0  0
    3.9190   -5.0048    3.7921 C   0  0  2  0  0  0  0  0  0  0  0  0
    3.0772   -4.3362    2.9024 O   0  0  0  0  0  0  0  0  0  0  0  0
    5.2665   -4.5514    4.1762 O   0  0  0  0  0  0  0  0  0  0  0  0
    5.6249   -4.5691    5.6336 C   0  0  2  0  0  0  0  0  0  0  0  0
    5.3665   -5.8537    5.9344 O   0  0  0  0  0  0  0  0  0  0  0  0
    3.9617   -5.7958    5.8641 C   0  0  0  0  0  0  0  0  0  0  0  0
    3.2890   -4.4905    5.0801 C   0  0  1  0  0  0  0  0  0  0  0  0
    1.8952   -4.6795    5.8864 C   0  0  1  0  0  0  0  0  0  0  0  0
    0.9686   -5.6821    5.1510 C   0  0  0  0  0  0  0  0  0  0  0  0
    1.8420   -4.8448    7.5355 C   0  0  0  0  0  0  0  0  0  0  0  0
    0.6437   -4.8668    8.1152 C   0  0  0  0  0  0  0  0  0  0  0  0
   -0.5707   -4.3150    7.4034 C   0  0  1  0  0  0  0  0  0  0  0  0
   -1.5218   -3.8736    8.3498 O   0  0  0  0  0  0  0  0  0  0  0  0
   -0.1050   -3.1745    6.4693 C   0  0  1  0  0  0  0  0  0  0  0  0
   -1.1520   -2.4126    5.6764 C   0  0  0  0  0  0  0  0  0  0  0  0
   -0.5201   -1.8395    6.8144 O   0  0  0  0  0  0  0  0  0  0  0  0
    1.3341   -3.3047    5.8857 C   0  0  1  0  0  0  0  0  0  0  0  0
    2.3578   -2.6735    6.7160 O   0  0  0  0  0  0  0  0  0  0  0  0
    3.8429   -2.7900    6.8765 C   0  0  2  0  0  0  0  0  0  0  0  0
    3.6694   -2.8982    8.3662 C   0  0  0  0  0  0  0  0  0  0  0  0
    2.9960   -4.3507    8.5465 C   0  0  0  0  0  0  0  0  0  0  0  0
    4.9630   -3.8216    6.7851 O   0  0  0  0  0  0  0  0  0  0  0  0
    3.2810   -1.9252    1.2310 C   0  0  1  0  0  0  0  0  0  0  0  0
    1.9969   -2.2868    1.7349 O   0  0  0  0  0  0  0  0  0  0  0  0
    1.3556   -1.3239    2.5658 C   0  0  0  0  0  0  0  0  0  0  0  0
    3.4137    1.4420    5.4900 H   0  0  0  0  0  0  0  0  0  0  0  0
    3.8746    0.4065    4.2296 H   0  0  0  0  0  0  0  0  0  0  0  0
    5.0446    0.7544    5.5124 H   0  0  0  0  0  0  0  0  0  0  0  0
    5.3300   -1.6265    6.0295 H   0  0  0  0  0  0  0  0  0  0  0  0
    2.9209   -2.2419    4.3439 H   0  0  0  0  0  0  0  0  0  0  0  0
    5.8516   -2.4456    3.8519 H   0  0  0  0  0  0  0  0  0  0  0  0
    6.4752   -2.9484    1.3976 H   0  0  0  0  0  0  0  0  0  0  0  0
    2.2480   -1.8363   -0.9320 H   0  0  0  0  0  0  0  0  0  0  0  0
    5.4849   -4.6723   -0.1516 H   0  0  0  0  0  0  0  0  0  0  0  0
    6.6769   -6.7342    2.2291 H   0  0  0  0  0  0  0  0  0  0  0  0
    4.7854   -6.7998   -0.3831 H   0  0  0  0  0  0  0  0  0  0  0  0
    4.9973   -8.9020    0.4627 H   0  0  0  0  0  0  0  0  0  0  0  0
    2.1013   -6.4487    2.3440 H   0  0  0  0  0  0  0  0  0  0  0  0
    2.8261   -7.9533    2.8178 H   0  0  0  0  0  0  0  0  0  0  0  0
    5.0791   -8.0289    2.9914 H   0  0  0  0  0  0  0  0  0  0  0  0
    3.4341   -4.3680    2.0306 H   0  0  0  0  0  0  0  0  0  0  0  0
    6.7039   -4.4011    5.7020 H   0  0  0  0  0  0  0  0  0  0  0  0
    3.5578   -6.7043    5.4450 H   0  0  0  0  0  0  0  0  0  0  0  0
    3.7356   -5.9999    6.8787 H   0  0  0  0  0  0  0  0  0  0  0  0
    0.2355   -5.1804    4.5126 H   0  0  0  0  0  0  0  0  0  0  0  0
    0.4134   -6.3161    5.8423 H   0  0  0  0  0  0  0  0  0  0  0  0
    1.5169   -6.3782    4.5203 H   0  0  0  0  0  0  0  0  0  0  0  0
    0.5461   -4.8495    9.2016 H   0  0  0  0  0  0  0  0  0  0  0  0
   -1.0539   -5.0903    6.8135 H   0  0  0  0  0  0  0  0  0  0  0  0
   -1.9706   -4.6288    8.7110 H   0  0  0  0  0  0  0  0  0  0  0  0
   -0.8988   -1.9086    4.7433 H   0  0  0  0  0  0  0  0  0  0  0  0
   -2.2048   -2.6462    5.8179 H   0  0  0  0  0  0  0  0  0  0  0  0
    1.2010   -2.9246    4.8870 H   0  0  0  0  0  0  0  0  0  0  0  0
    4.6335   -2.8158    8.8847 H   0  0  0  0  0  0  0  0  0  0  0  0
    3.0194   -2.0958    8.7381 H   0  0  0  0  0  0  0  0  0  0  0  0
    2.5770   -4.3542    9.5506 H   0  0  0  0  0  0  0  0  0  0  0  0
    3.7866   -5.0844    8.6380 H   0  0  0  0  0  0  0  0  0  0  0  0
    3.2846   -0.8749    0.9529 H   0  0  0  0  0  0  0  0  0  0  0  0
    0.5302   -1.8515    3.0565 H   0  0  0  0  0  0  0  0  0  0  0  0
    0.8925   -0.5116    1.9734 H   0  0  0  0  0  0  0  0  0  0  0  0
    1.9610   -0.8594    3.3118 H   0  0  0  0  0  0  0  0  0  0  0  0
  1  2  1  0
  1 47  1  0
  1 48  1  0
  1 49  1  0
  2  3  1  0
  3 40  1  0
  3  4  1  0
  3 50  1  6
  4 28  1  0
  4  5  1  0
  4 51  1  6
  5  7  1  0
  5  6  1  0
  5 52  1  6
  7  6  1  6
  7 44  1  0
  7  8  1  0
  8 13  1  0
  8  9  1  0
  8 53  1  1
  9 10  1  0
 10 11  1  6
 10 12  1  0
 10 44  1  0
 11 54  1  0
 12 13  1  0
 13 14  1  0
 13 55  1  6
 14 20  1  0
 14 15  1  1
 14 16  1  0
 15 56  1  0
 16 17  1  0
 16 18  1  0
 16 57  1  6
 17 58  1  0
 18 19  1  0
 19 20  1  0
 19 59  1  0
 19 60  1  0
 20 21  1  1
 20 22  1  0
 21 61  1  0
 22 28  1  0
 22 23  1  6
 22 24  1  0
 23 62  1  0
 24 25  1  0
 25 43  1  0
 25 26  1  0
 25 63  1  6
 26 27  1  0
 28 27  1  1
 27 64  1  0
 27 65  1  0
 28 29  1  0
 29 38  1  0
 29 30  1  6
 29 31  1  0
 30 66  1  0
 30 67  1  0
 30 68  1  0
 31 42  1  0
 31 32  2  0
 32 33  1  0
 32 69  1  0
 33 34  1  0
 33 35  1  0
 33 70  1  6
 34 71  1  0
 35 37  1  1
 35 36  1  0
 35 38  1  0
 36 37  1  0
 36 72  1  0
 36 73  1  0
 38 39  1  0
 38 74  1  6
 39 40  1  0
 40 41  1  1
 40 43  1  0
 41 42  1  0
 41 75  1  0
 41 76  1  0
 42 77  1  0
 42 78  1  0
 44 45  1  0
 44 79  1  6
 45 46  1  0
 46 80  1  0
 46 81  1  0
 46 82  1  0
M  END
>  <i_m_ct_stereo_status>  (19) 
1

>  <s_m_source_file>  (19) 
/var/tmp/pbs.5076253.sched01/tmpeppn20qa/07bjoayft.sdf

>  <i_m_source_file_index>  (19) 
30

>  <i_lp_mmshare_version>  (19) 
48012

>  <i_f3d_flags>  (19) 
0

>  <s_epik_input>  (19) 
W0NIM11bQ0BAXTEyQyhbQ0gyXVtDSDJdMyk9W0NIXVtDQEBIXShbT0hdKVtDQF00KFtDSDJdTzQpW0NASF0yT0MzKFtDQEBIXTVPW0NIM10pT1tDQEBIXShPW0NIMl02KU9bQ0BdKFtPSF0pKEMxNltDQEBIXTVbQ0BIXShPNylbQ0BAXTc4OSlbQ0BdMShbT0hdKVtDQEBdKFtPSF0pKFtDQEBIXShbT0hdKU9bQ0gyXTEpW0NAQEhdMVtDQEhdOE9bQ0BdKE8xKShbT0hdKVtDQEhdOU9bQ0gzXQ==

>  <s_epik_cmdline>  (19) 
J2VwaWtfcHl0aG9uJywgJy1waHQnLCAnMi4wJywgJy1waCcsICc3LjAnLCAnLXRuJywgJzgnLCAnLW1hJywgJzIwMCcsICctaW1hZScsICc8aW5maWxlLm1hZT4nLCAnLW9tYWUnLCAnPG91dGZpbGUubWFlPic=

>  <r_epik_Ionization_Penalty>  (19) 
0.0167349

>  <r_epik_Ionization_Penalty_Charging>  (19) 
0

>  <r_epik_Ionization_Penalty_Neutral>  (19) 
0.0167349

>  <r_epik_State_Penalty>  (19) 
0.0129742

>  <r_epik_Charging_Adjusted_Penalty>  (19) 
0.0129742

>  <i_epik_Tot_Q>  (19) 
0

>  <i_epik_Tot_abs_Q>  (19) 
0

>  <s_epik_Chemistry_Notes>  (19) 
This compound contains an acetal/aminal-like group ( X-CH(R)-Y where X, Y are N, S, or O) that may be acid/base labile, releasing an aldehyde.

>  <s_lp_Force_Field>  (19) 
OPLS3e

>  <r_lp_Energy>  (19) 
510.368

>  <b_lp_Chiralities_Consistent>  (19) 
1

>  <s_lp_Variant>  (19) 
22:0-2

>  <s_i_glide_gridfile>  (19) 
pfpi4k_grid

>  <i_i_glide_lignum>  (19) 
30

>  <i_i_glide_rotatable_bonds>  (19) 
8

>  <r_i_docking_score>  (19) 
-2.96705

>  <r_i_glide_ligand_efficiency>  (19) 
-0.0645011

>  <r_i_glide_ligand_efficiency_sa>  (19) 
-0.231111

>  <r_i_glide_ligand_efficiency_ln>  (19) 
-0.614469

>  <r_i_glide_gscore>  (19) 
-2.96705

>  <r_i_glide_lipo>  (19) 
-0.218081

>  <r_i_glide_hbond>  (19) 
-0.000223206

>  <r_i_glide_metal>  (19) 
-0

>  <r_i_glide_rewards>  (19) 
-0.647688

>  <r_i_glide_evdw>  (19) 
-20.527

>  <r_i_glide_ecoul>  (19) 
-7.04144

>  <r_i_glide_erotb>  (19) 
0

>  <r_i_glide_esite>  (19) 
-0.0184926

>  <r_i_glide_emodel>  (19) 
-35.1402

>  <r_i_glide_energy>  (19) 
-27.5685

>  <r_i_glide_einternal>  (19) 
3.50837

>  <r_i_glide_intrahb_reward>  (19) 
-0.5

>  <i_i_glide_confnum>  (19) 
1

>  <i_i_glide_posenum>  (19) 
34

>  <r_i_glide_eff_state_penalty>  (19) 
0

>  <ligand_id>  (19) 
22

>  <original_smiles>  (19) 
COC1C2C3OC34C3OC(O)(OC3C3(O)C(O)OCC3(O)C3(O)OC5OCC23C2(C)C3=CC(O)C6(CO6)C2OC1(CC3)O5)C4OC

>  <smiles>  (19) 
[H]OC1([H])OC([H])([H])C2(O[H])C3(O[H])OC4([H])OC([H])([H])C35C([H])(C([H])(OC([H])([H])[H])C3(O4)OC4([H])C6(OC6([H])[H])C([H])(O[H])C([H])=C(C([H])([H])C3([H])[H])C45C([H])([H])[H])C3([H])OC34C([H])(OC([H])([H])[H])C3(O[H])OC4([H])C([H])(O3)C12O[H]

$$$$
22:1:2
     RDKit          3D

 82 92  0  0  1  0  0  0  0  0999 V2000
    6.8063   -4.4815    6.1463 C   0  0  0  0  0  0  0  0  0  0  0  0
    5.5209   -4.2550    6.7002 O   0  0  0  0  0  0  0  0  0  0  0  0
    4.8260   -5.4319    7.1278 C   0  0  2  0  0  0  0  0  0  0  0  0
    4.0017   -6.2370    6.0499 C   0  0  1  0  0  0  0  0  0  0  0  0
    5.0424   -7.3781    5.6394 C   0  0  2  0  0  0  0  0  0  0  0  0
    6.2138   -7.2927    4.8597 O   0  0  0  0  0  0  0  0  0  0  0  0
    5.1303   -8.0236    4.2527 C   0  0  1  0  0  0  0  0  0  0  0  0
    4.9915   -9.5464    4.1718 C   0  0  2  0  0  0  0  0  0  0  0  0
    5.4745   -9.7588    2.8562 O   0  0  0  0  0  0  0  0  0  0  0  0
    4.5595   -8.9437    2.1976 C   0  0  1  0  0  0  0  0  0  0  0  0
    4.7107   -9.0175    0.7927 O   0  0  0  0  0  0  0  0  0  0  0  0
    3.2767   -9.3194    2.6576 O   0  0  0  0  0  0  0  0  0  0  0  0
    3.5573  -10.0914    3.8262 C   0  0  2  0  0  0  0  0  0  0  0  0
    2.3706  -10.4003    4.8753 C   0  0  2  0  0  0  0  0  0  0  0  0
    3.0843  -11.1671    5.8553 O   0  0  0  0  0  0  0  0  0  0  0  0
    1.3377  -11.2090    4.0451 C   0  0  1  0  0  0  0  0  0  0  0  0
    0.6347  -12.1925    4.8201 O   0  0  0  0  0  0  0  0  0  0  0  0
    0.4901  -10.2338    3.5245 O   0  0  0  0  0  0  0  0  0  0  0  0
    0.2732   -9.1707    4.4582 C   0  0  0  0  0  0  0  0  0  0  0  0
    1.3798   -9.2952    5.5395 C   0  0  1  0  0  0  0  0  0  0  0  0
    0.6784   -9.8129    6.6816 O   0  0  0  0  0  0  0  0  0  0  0  0
    2.1936   -7.9549    5.7988 C   0  0  2  0  0  0  0  0  0  0  0  0
    2.4691   -7.5555    4.5026 O   0  0  0  0  0  0  0  0  0  0  0  0
    3.1844   -8.4099    6.7696 O   0  0  0  0  0  0  0  0  0  0  0  0
    3.1430   -7.8416    8.1564 C   0  0  2  0  0  0  0  0  0  0  0  0
    1.8738   -8.0887    8.4896 O   0  0  0  0  0  0  0  0  0  0  0  0
    1.2529   -7.1634    7.6279 C   0  0  0  0  0  0  0  0  0  0  0  0
    2.1634   -6.5567    6.3825 C   0  0  1  0  0  0  0  0  0  0  0  0
    1.2141   -5.2598    6.3028 C   0  0  1  0  0  0  0  0  0  0  0  0
    0.0018   -5.5513    5.3869 C   0  0  0  0  0  0  0  0  0  0  0  0
    0.8082   -4.3748    7.6477 C   0  0  0  0  0  0  0  0  0  0  0  0
    0.1207   -3.2485    7.4539 C   0  0  0  0  0  0  0  0  0  0  0  0
    0.1128   -2.5987    6.0962 C   0  0  1  0  0  0  0  0  0  0  0  0
   -0.1456   -1.2202    6.2618 O   0  0  0  0  0  0  0  0  0  0  0  0
    1.4518   -2.8973    5.3794 C   0  0  1  0  0  0  0  0  0  0  0  0
    1.7132   -2.2880    4.0144 C   0  0  0  0  0  0  0  0  0  0  0  0
    2.3426   -1.7801    5.1893 O   0  0  0  0  0  0  0  0  0  0  0  0
    2.1263   -4.2508    5.7269 C   0  0  1  0  0  0  0  0  0  0  0  0
    3.0163   -4.1422    6.8728 O   0  0  0  0  0  0  0  0  0  0  0  0
    3.6270   -5.1010    7.8467 C   0  0  2  0  0  0  0  0  0  0  0  0
    3.2335   -4.2115    8.9998 C   0  0  0  0  0  0  0  0  0  0  0  0
    1.6313   -4.3513    9.0341 C   0  0  0  0  0  0  0  0  0  0  0  0
    3.3078   -6.3882    8.5761 O   0  0  0  0  0  0  0  0  0  0  0  0
    4.9242   -7.5686    2.8089 C   0  0  1  0  0  0  0  0  0  0  0  0
    3.9134   -6.5748    2.6554 O   0  0  0  0  0  0  0  0  0  0  0  0
    3.7062   -6.0689    1.3485 C   0  0  0  0  0  0  0  0  0  0  0  0
    7.2635   -3.5232    5.8995 H   0  0  0  0  0  0  0  0  0  0  0  0
    6.7797   -5.0355    5.2190 H   0  0  0  0  0  0  0  0  0  0  0  0
    7.4562   -4.9851    6.8618 H   0  0  0  0  0  0  0  0  0  0  0  0
    5.4390   -6.0404    7.7881 H   0  0  0  0  0  0  0  0  0  0  0  0
    4.1008   -5.6486    5.1396 H   0  0  0  0  0  0  0  0  0  0  0  0
    5.3154   -8.0021    6.4854 H   0  0  0  0  0  0  0  0  0  0  0  0
    5.5471  -10.0837    4.9382 H   0  0  0  0  0  0  0  0  0  0  0  0
    4.5968   -9.9283    0.5492 H   0  0  0  0  0  0  0  0  0  0  0  0
    3.8033  -11.0737    3.4186 H   0  0  0  0  0  0  0  0  0  0  0  0
    2.5308  -11.6758    6.4356 H   0  0  0  0  0  0  0  0  0  0  0  0
    1.7487  -11.7306    3.1887 H   0  0  0  0  0  0  0  0  0  0  0  0
    0.7857  -12.1259    5.7374 H   0  0  0  0  0  0  0  0  0  0  0  0
    0.2874   -8.2401    3.8927 H   0  0  0  0  0  0  0  0  0  0  0  0
   -0.7153   -9.1992    4.9287 H   0  0  0  0  0  0  0  0  0  0  0  0
    1.0037  -10.6822    6.9624 H   0  0  0  0  0  0  0  0  0  0  0  0
    2.6955   -8.2984    3.9463 H   0  0  0  0  0  0  0  0  0  0  0  0
    3.7977   -8.4319    8.7865 H   0  0  0  0  0  0  0  0  0  0  0  0
    0.3291   -7.5663    7.2385 H   0  0  0  0  0  0  0  0  0  0  0  0
    0.7918   -6.5544    8.3758 H   0  0  0  0  0  0  0  0  0  0  0  0
    0.1815   -5.1881    4.3671 H   0  0  0  0  0  0  0  0  0  0  0  0
   -0.9176   -5.0918    5.7611 H   0  0  0  0  0  0  0  0  0  0  0  0
   -0.2281   -6.6177    5.3159 H   0  0  0  0  0  0  0  0  0  0  0  0
   -0.0578   -2.5527    8.2702 H   0  0  0  0  0  0  0  0  0  0  0  0
   -0.7006   -2.9889    5.4952 H   0  0  0  0  0  0  0  0  0  0  0  0
    0.2664   -0.7567    5.5468 H   0  0  0  0  0  0  0  0  0  0  0  0
    2.4049   -2.7501    3.3118 H   0  0  0  0  0  0  0  0  0  0  0  0
    0.9601   -1.6281    3.5846 H   0  0  0  0  0  0  0  0  0  0  0  0
    2.5359   -4.5628    4.7773 H   0  0  0  0  0  0  0  0  0  0  0  0
    3.7057   -4.5441    9.9270 H   0  0  0  0  0  0  0  0  0  0  0  0
    3.5692   -3.1917    8.8043 H   0  0  0  0  0  0  0  0  0  0  0  0
    1.2783   -3.5024    9.6196 H   0  0  0  0  0  0  0  0  0  0  0  0
    1.3779   -5.1821    9.6841 H   0  0  0  0  0  0  0  0  0  0  0  0
    5.9015   -7.2316    2.4540 H   0  0  0  0  0  0  0  0  0  0  0  0
    3.0071   -5.2308    1.3977 H   0  0  0  0  0  0  0  0  0  0  0  0
    3.2693   -6.8141    0.6816 H   0  0  0  0  0  0  0  0  0  0  0  0
    4.6397   -5.6953    0.9288 H   0  0  0  0  0  0  0  0  0  0  0  0
  1  2  1  0
  1 47  1  0
  1 48  1  0
  1 49  1  0
  2  3  1  0
  3 40  1  0
  3  4  1  0
  3 50  1  1
  4 28  1  0
  4  5  1  0
  4 51  1  6
  5  7  1  0
  5  6  1  0
  5 52  1  1
  7  6  1  6
  7 44  1  0
  7  8  1  0
  8 13  1  0
  8  9  1  0
  8 53  1  1
  9 10  1  0
 10 11  1  6
 10 12  1  0
 10 44  1  0
 11 54  1  0
 12 13  1  0
 13 14  1  0
 13 55  1  6
 14 20  1  0
 14 15  1  1
 14 16  1  0
 15 56  1  0
 16 17  1  0
 16 18  1  0
 16 57  1  6
 17 58  1  0
 18 19  1  0
 19 20  1  0
 19 59  1  0
 19 60  1  0
 20 21  1  1
 20 22  1  0
 21 61  1  0
 22 28  1  0
 22 23  1  6
 22 24  1  0
 23 62  1  0
 24 25  1  0
 25 43  1  0
 25 26  1  0
 25 63  1  1
 26 27  1  0
 28 27  1  1
 27 64  1  0
 27 65  1  0
 28 29  1  0
 29 38  1  0
 29 30  1  6
 29 31  1  0
 30 66  1  0
 30 67  1  0
 30 68  1  0
 31 42  1  0
 31 32  2  0
 32 33  1  0
 32 69  1  0
 33 34  1  0
 33 35  1  0
 33 70  1  6
 34 71  1  0
 35 37  1  1
 35 36  1  0
 35 38  1  0
 36 37  1  0
 36 72  1  0
 36 73  1  0
 38 39  1  0
 38 74  1  6
 39 40  1  0
 40 41  1  1
 40 43  1  0
 41 42  1  0
 41 75  1  0
 41 76  1  0
 42 77  1  0
 42 78  1  0
 44 45  1  0
 44 79  1  6
 45 46  1  0
 46 80  1  0
 46 81  1  0
 46 82  1  0
M  END
>  <i_m_ct_stereo_status>  (20) 
1

>  <s_m_source_file>  (20) 
/var/tmp/pbs.5076253.sched01/tmpeppn20qa/07bjoayft.sdf

>  <i_m_source_file_index>  (20) 
30

>  <i_lp_mmshare_version>  (20) 
48012

>  <i_f3d_flags>  (20) 
0

>  <s_epik_input>  (20) 
W0NIM11bQ0BAXTEyQyhbQ0gyXVtDSDJdMyk9W0NIXVtDQEBIXShbT0hdKVtDQF00KFtDSDJdTzQpW0NASF0yT0MzKFtDQEBIXTVPW0NIM10pT1tDQEBIXShPW0NIMl02KU9bQ0BdKFtPSF0pKEMxNltDQEBIXTVbQ0BIXShPNylbQ0BAXTc4OSlbQ0BdMShbT0hdKVtDQEBdKFtPSF0pKFtDQEBIXShbT0hdKU9bQ0gyXTEpW0NAQEhdMVtDQEhdOE9bQ0BdKE8xKShbT0hdKVtDQEhdOU9bQ0gzXQ==

>  <s_epik_cmdline>  (20) 
J2VwaWtfcHl0aG9uJywgJy1waHQnLCAnMi4wJywgJy1waCcsICc3LjAnLCAnLXRuJywgJzgnLCAnLW1hJywgJzIwMCcsICctaW1hZScsICc8aW5maWxlLm1hZT4nLCAnLW9tYWUnLCAnPG91dGZpbGUubWFlPic=

>  <r_epik_Ionization_Penalty>  (20) 
0.0167349

>  <r_epik_Ionization_Penalty_Charging>  (20) 
0

>  <r_epik_Ionization_Penalty_Neutral>  (20) 
0.0167349

>  <r_epik_State_Penalty>  (20) 
0.0129742

>  <r_epik_Charging_Adjusted_Penalty>  (20) 
0.0129742

>  <i_epik_Tot_Q>  (20) 
0

>  <i_epik_Tot_abs_Q>  (20) 
0

>  <s_epik_Chemistry_Notes>  (20) 
This compound contains an acetal/aminal-like group ( X-CH(R)-Y where X, Y are N, S, or O) that may be acid/base labile, releasing an aldehyde.

>  <s_lp_Force_Field>  (20) 
OPLS3e

>  <r_lp_Energy>  (20) 
510.368

>  <b_lp_Chiralities_Consistent>  (20) 
1

>  <s_lp_Variant>  (20) 
22:0-2

>  <s_i_glide_gridfile>  (20) 
pfpi4k_grid

>  <i_i_glide_lignum>  (20) 
30

>  <i_i_glide_rotatable_bonds>  (20) 
8

>  <r_i_docking_score>  (20) 
-2.95873

>  <r_i_glide_ligand_efficiency>  (20) 
-0.0643203

>  <r_i_glide_ligand_efficiency_sa>  (20) 
-0.230463

>  <r_i_glide_ligand_efficiency_ln>  (20) 
-0.612746

>  <r_i_glide_gscore>  (20) 
-2.95873

>  <r_i_glide_lipo>  (20) 
-0.0818221

>  <r_i_glide_hbond>  (20) 
0

>  <r_i_glide_metal>  (20) 
-0

>  <r_i_glide_rewards>  (20) 
-0.169754

>  <r_i_glide_evdw>  (20) 
-19.594

>  <r_i_glide_ecoul>  (20) 
-11.3152

>  <r_i_glide_erotb>  (20) 
0

>  <r_i_glide_esite>  (20) 
-0.0301757

>  <r_i_glide_emodel>  (20) 
-34.946

>  <r_i_glide_energy>  (20) 
-30.9092

>  <r_i_glide_einternal>  (20) 
3.55816

>  <r_i_glide_intrahb_reward>  (20) 
-0

>  <i_i_glide_confnum>  (20) 
2

>  <i_i_glide_posenum>  (20) 
25

>  <r_i_glide_eff_state_penalty>  (20) 
0

>  <ligand_id>  (20) 
22

>  <original_smiles>  (20) 
COC1C2C3OC34C3OC(O)(OC3C3(O)C(O)OCC3(O)C3(O)OC5OCC23C2(C)C3=CC(O)C6(CO6)C2OC1(CC3)O5)C4OC

>  <smiles>  (20) 
[H]OC1([H])OC([H])([H])C2(O[H])C3(O[H])OC4([H])OC([H])([H])C35C([H])(C([H])(OC([H])([H])[H])C3(O4)OC4([H])C6(OC6([H])[H])C([H])(O[H])C([H])=C(C([H])([H])C3([H])[H])C45C([H])([H])[H])C3([H])OC34C([H])(OC([H])([H])[H])C3(O[H])OC4([H])C([H])(O3)C12O[H]

$$$$
22:2:0
     RDKit          3D

 81 91  0  0  1  0  0  0  0  0999 V2000
    7.5168   -5.4597    5.7515 C   0  0  0  0  0  0  0  0  0  0  0  0
    6.3778   -4.8263    5.1874 O   0  0  0  0  0  0  0  0  0  0  0  0
    6.1354   -5.1582    3.8169 C   0  0  2  0  0  0  0  0  0  0  0  0
    5.0237   -4.2682    3.1594 C   0  0  1  0  0  0  0  0  0  0  0  0
    5.4584   -2.7992    3.0738 C   0  0  2  0  0  0  0  0  0  0  0  0
    5.0708   -1.7557    3.9338 O   0  0  0  0  0  0  0  0  0  0  0  0
    4.5388   -1.7361    2.5848 C   0  0  1  0  0  0  0  0  0  0  0  0
    5.0511   -0.8332    1.4695 C   0  0  2  0  0  0  0  0  0  0  0  0
    4.2471    0.2854    1.7392 O   0  0  0  0  0  0  0  0  0  0  0  0
    3.0397   -0.3397    1.6127 C   0  0  1  0  0  0  0  0  0  0  0  0
    2.0311    0.5089    1.8373 O   0  0  0  0  0  0  0  0  0  0  0  0
    3.0359   -0.9415    0.3828 O   0  0  0  0  0  0  0  0  0  0  0  0
    4.4227   -1.0907    0.0752 C   0  0  2  0  0  0  0  0  0  0  0  0
    4.7797   -2.2449   -0.9528 C   0  0  2  0  0  0  0  0  0  0  0  0
    6.1195   -2.0329   -1.3963 O   0  0  0  0  0  0  0  0  0  0  0  0
    3.7764   -1.9763   -2.1328 C   0  0  1  0  0  0  0  0  0  0  0  0
    4.2607   -2.4114   -3.3845 O   0  0  0  0  0  0  0  0  0  0  0  0
    2.6316   -2.6902   -1.7932 O   0  0  0  0  0  0  0  0  0  0  0  0
    2.9215   -3.7162   -0.8464 C   0  0  0  0  0  0  0  0  0  0  0  0
    4.4673   -3.7904   -0.6902 C   0  0  1  0  0  0  0  0  0  0  0  0
    4.9548   -4.4754   -1.8359 O   0  0  0  0  0  0  0  0  0  0  0  0
    5.0691   -4.5704    0.6361 C   0  0  2  0  0  0  0  0  0  0  0  0
    6.1735   -3.7579    0.8461 O   0  0  0  0  0  0  0  0  0  0  0  0
    5.8523   -5.6987    0.3384 O   0  0  0  0  0  0  0  0  0  0  0  0
    5.5609   -6.8292    1.0828 C   0  0  2  0  0  0  0  0  0  0  0  0
    4.3481   -7.2774    0.8127 O   0  0  0  0  0  0  0  0  0  0  0  0
    3.5770   -6.1354    0.8851 C   0  0  0  0  0  0  0  0  0  0  0  0
    3.9768   -4.8893    1.9492 C   0  0  2  0  0  0  0  0  0  0  0  0
    2.9432   -6.0334    2.8201 C   0  0  1  0  0  0  0  0  0  0  0  0
    1.4587   -5.5915    2.4807 C   0  0  0  0  0  0  0  0  0  0  0  0
    3.0028   -7.7008    3.0390 C   0  0  0  0  0  0  0  0  0  0  0  0
    1.9335   -8.2941    3.5738 C   0  0  0  0  0  0  0  0  0  0  0  0
    1.0753   -7.5334    4.5657 C   0  0  1  0  0  0  0  0  0  0  0  0
    0.5029   -8.3970    5.5195 O   0  0  0  0  0  0  0  0  0  0  0  0
    1.9384   -6.4346    5.2190 C   0  0  1  0  0  0  0  0  0  0  0  0
    1.3932   -5.6532    6.4026 C   0  0  0  0  0  0  0  0  0  0  0  0
    2.3688   -6.6814    6.5722 O   0  0  0  0  0  0  0  0  0  0  0  0
    2.9956   -5.7530    4.2993 C   0  0  1  0  0  0  0  0  0  0  0  0
    4.2722   -6.3195    4.5282 O   0  0  0  0  0  0  0  0  0  0  0  0
    5.4530   -6.4516    3.6786 C   0  0  2  0  0  0  0  0  0  0  0  0
    5.5385   -7.8796    4.1912 C   0  0  0  0  0  0  0  0  0  0  0  0
    4.3220   -8.5610    3.3642 C   0  0  0  0  0  0  0  0  0  0  0  0
    5.9518   -6.9851    2.4185 O   0  0  0  0  0  0  0  0  0  0  0  0
    3.0785   -1.4143    2.6713 C   0  0  1  0  0  0  0  0  0  0  0  0
    2.2114   -2.5125    2.4058 O   0  0  0  0  0  0  0  0  0  0  0  0
    1.0062   -2.4073    3.1568 C   0  0  0  0  0  0  0  0  0  0  0  0
    7.5546   -5.2438    6.8185 H   0  0  0  0  0  0  0  0  0  0  0  0
    8.4415   -5.0954    5.2991 H   0  0  0  0  0  0  0  0  0  0  0  0
    7.4843   -6.5433    5.6399 H   0  0  0  0  0  0  0  0  0  0  0  0
    7.0570   -5.1545    3.2312 H   0  0  0  0  0  0  0  0  0  0  0  0
    4.4669   -3.9853    4.0234 H   0  0  0  0  0  0  0  0  0  0  0  0
    6.4963   -2.6458    2.7994 H   0  0  0  0  0  0  0  0  0  0  0  0
    6.1223   -0.6244    1.4946 H   0  0  0  0  0  0  0  0  0  0  0  0
    4.6789   -0.1829   -0.4727 H   0  0  0  0  0  0  0  0  0  0  0  0
    6.2527   -2.6504   -2.1061 H   0  0  0  0  0  0  0  0  0  0  0  0
    3.5225   -0.9216   -2.2560 H   0  0  0  0  0  0  0  0  0  0  0  0
    4.3943   -3.3540   -3.2793 H   0  0  0  0  0  0  0  0  0  0  0  0
    2.4624   -3.4350    0.0967 H   0  0  0  0  0  0  0  0  0  0  0  0
    2.4054   -4.6276   -1.1412 H   0  0  0  0  0  0  0  0  0  0  0  0
    4.3573   -5.1957   -2.0062 H   0  0  0  0  0  0  0  0  0  0  0  0
    5.8555   -2.8849    1.0314 H   0  0  0  0  0  0  0  0  0  0  0  0
    6.2039   -7.5764    0.6439 H   0  0  0  0  0  0  0  0  0  0  0  0
    3.5977   -5.9347   -0.1737 H   0  0  0  0  0  0  0  0  0  0  0  0
    2.5665   -6.5023    0.7094 H   0  0  0  0  0  0  0  0  0  0  0  0
    1.4466   -4.7948    1.7419 H   0  0  0  0  0  0  0  0  0  0  0  0
    0.9070   -5.2184    3.3283 H   0  0  0  0  0  0  0  0  0  0  0  0
    0.8761   -6.4166    2.0396 H   0  0  0  0  0  0  0  0  0  0  0  0
    1.9489   -9.3585    3.7976 H   0  0  0  0  0  0  0  0  0  0  0  0
    0.2139   -7.0907    4.0756 H   0  0  0  0  0  0  0  0  0  0  0  0
    1.1979   -8.8235    5.9985 H   0  0  0  0  0  0  0  0  0  0  0  0
    1.7672   -4.6611    6.6372 H   0  0  0  0  0  0  0  0  0  0  0  0
    0.3988   -5.8972    6.7742 H   0  0  0  0  0  0  0  0  0  0  0  0
    2.8319   -4.7102    4.5537 H   0  0  0  0  0  0  0  0  0  0  0  0
    6.5063   -8.3628    3.9925 H   0  0  0  0  0  0  0  0  0  0  0  0
    5.3955   -7.9309    5.2787 H   0  0  0  0  0  0  0  0  0  0  0  0
    4.0399   -9.4417    3.9480 H   0  0  0  0  0  0  0  0  0  0  0  0
    4.6832   -9.0039    2.4358 H   0  0  0  0  0  0  0  0  0  0  0  0
    2.9329   -0.9630    3.6442 H   0  0  0  0  0  0  0  0  0  0  0  0
    0.3278   -3.1952    2.9431 H   0  0  0  0  0  0  0  0  0  0  0  0
    0.4710   -1.4631    2.9533 H   0  0  0  0  0  0  0  0  0  0  0  0
    1.2543   -2.4699    4.2207 H   0  0  0  0  0  0  0  0  0  0  0  0
  1  2  1  0
  1 47  1  0
  1 48  1  0
  1 49  1  0
  2  3  1  0
  3 40  1  0
  3  4  1  0
  3 50  1  6
  4 28  1  0
  4  5  1  0
  4 51  1  1
  5  7  1  0
  5  6  1  0
  5 52  1  6
  7  6  1  1
  7 44  1  0
  7  8  1  0
  8 13  1  0
  8  9  1  0
  8 53  1  6
  9 10  1  0
 10 11  1  1
 10 12  1  0
 10 44  1  0
 12 13  1  0
 13 14  1  0
 13 54  1  6
 14 20  1  0
 14 15  1  6
 14 16  1  0
 15 55  1  0
 16 17  1  0
 16 18  1  0
 16 56  1  6
 17 57  1  0
 18 19  1  0
 19 20  1  0
 19 58  1  0
 19 59  1  0
 20 21  1  6
 20 22  1  0
 21 60  1  0
 22 28  1  0
 22 23  1  1
 22 24  1  0
 23 61  1  0
 24 25  1  0
 25 43  1  0
 25 26  1  0
 25 62  1  6
 26 27  1  0
 28 27  1  1
 27 63  1  0
 27 64  1  0
 28 29  1  0
 29 38  1  0
 29 30  1  6
 29 31  1  0
 30 65  1  0
 30 66  1  0
 30 67  1  0
 31 42  1  0
 31 32  2  0
 32 33  1  0
 32 68  1  0
 33 34  1  0
 33 35  1  0
 33 69  1  6
 34 70  1  0
 35 37  1  1
 35 36  1  0
 35 38  1  0
 36 37  1  0
 36 71  1  0
 36 72  1  0
 38 39  1  0
 38 73  1  6
 39 40  1  0
 40 41  1  1
 40 43  1  0
 41 42  1  0
 41 74  1  0
 41 75  1  0
 42 76  1  0
 42 77  1  0
 44 45  1  0
 44 78  1  1
 45 46  1  0
 46 79  1  0
 46 80  1  0
 46 81  1  0
M  CHG  1  11  -1
M  END
>  <i_m_ct_stereo_status>  (21) 
1

>  <s_m_source_file>  (21) 
/var/tmp/pbs.5076253.sched01/tmpeppn20qa/07bjoayft.sdf

>  <i_m_source_file_index>  (21) 
31

>  <i_lp_mmshare_version>  (21) 
48012

>  <i_f3d_flags>  (21) 
0

>  <s_epik_input>  (21) 
W0NIM11bQ0BAXTEyQyhbQ0gyXVtDSDJdMyk9W0NIXVtDQEBIXShbT0hdKVtDQF00KFtDSDJdTzQpW0NASF0yT0MzKFtDQEBIXTVPW0NIM10pT1tDQEBIXShPW0NIMl02KU9bQ0BdKFtPSF0pKEMxNltDQEBIXTVbQ0BIXShPNylbQ0BAXTc4OSlbQ0BdMShbT0hdKVtDQEBdKFtPSF0pKFtDQEBIXShbT0hdKU9bQ0gyXTEpW0NAQEhdMVtDQEhdOE9bQ0BdKE8xKShbT0hdKVtDQEhdOU9bQ0gzXQ==

>  <s_epik_cmdline>  (21) 
J2VwaWtfcHl0aG9uJywgJy1waHQnLCAnMi4wJywgJy1waCcsICc3LjAnLCAnLXRuJywgJzgnLCAnLW1hJywgJzIwMCcsICctaW1hZScsICc8aW5maWxlLm1hZT4nLCAnLW9tYWUnLCAnPG91dGZpbGUubWFlPic=

>  <r_epik_Ionization_Penalty>  (21) 
2.13237

>  <r_epik_Ionization_Penalty_Charging>  (21) 
2.13212

>  <r_epik_Ionization_Penalty_Neutral>  (21) 
0.000245851

>  <r_epik_State_Penalty>  (21) 
2.27058

>  <r_epik_Charging_Adjusted_Penalty>  (21) 
4.4027

>  <i_epik_Tot_Q>  (21) 
-1

>  <i_epik_Tot_abs_Q>  (21) 
1

>  <s_epik_Chemistry_Notes>  (21) 
This compound contains an acetal/aminal-like group ( X-CH(R)-Y where X, Y are N, S, or O) that may be acid/base labile, releasing an aldehyde.

>  <s_lp_Force_Field>  (21) 
OPLS3e

>  <r_lp_Energy>  (21) 
542.819

>  <b_lp_Chiralities_Consistent>  (21) 
1

>  <s_lp_Variant>  (21) 
22:0-3

>  <s_i_glide_gridfile>  (21) 
pfpi4k_grid

>  <i_i_glide_lignum>  (21) 
31

>  <i_i_glide_rotatable_bonds>  (21) 
7

>  <r_i_docking_score>  (21) 
-2.87772

>  <r_i_glide_ligand_efficiency>  (21) 
-0.0625591

>  <r_i_glide_ligand_efficiency_sa>  (21) 
-0.224152

>  <r_i_glide_ligand_efficiency_ln>  (21) 
-0.595969

>  <r_i_glide_gscore>  (21) 
-2.87772

>  <r_i_glide_lipo>  (21) 
-0.341427

>  <r_i_glide_hbond>  (21) 
-0.0231017

>  <r_i_glide_metal>  (21) 
-0

>  <r_i_glide_rewards>  (21) 
-0.684985

>  <r_i_glide_evdw>  (21) 
-22.1489

>  <r_i_glide_ecoul>  (21) 
-4.3621

>  <r_i_glide_erotb>  (21) 
0

>  <r_i_glide_esite>  (21) 
-0.0664475

>  <r_i_glide_emodel>  (21) 
-35.8416

>  <r_i_glide_energy>  (21) 
-26.511

>  <r_i_glide_einternal>  (21) 
4.21336

>  <r_i_glide_intrahb_reward>  (21) 
-0.5

>  <i_i_glide_confnum>  (21) 
2

>  <i_i_glide_posenum>  (21) 
19

>  <r_i_glide_eff_state_penalty>  (21) 
0

>  <ligand_id>  (21) 
22

>  <original_smiles>  (21) 
COC1C2C3OC34C3OC(O)(OC3C3(O)C(O)OCC3(O)C3(O)OC5OCC23C2(C)C3=CC(O)C6(CO6)C2OC1(CC3)O5)C4OC

>  <smiles>  (21) 
[H]OC1([H])OC([H])([H])C2(O[H])C3(O[H])OC4([H])OC([H])([H])C35C([H])(C([H])(OC([H])([H])[H])C3(O4)OC4([H])C6(OC6([H])[H])C([H])(O[H])C([H])=C(C([H])([H])C3([H])[H])C45C([H])([H])[H])C3([H])OC34C([H])(OC([H])([H])[H])C3([O-])OC4([H])C([H])(O3)C12O[H]

$$$$
22:2:1
     RDKit          3D

 81 91  0  0  1  0  0  0  0  0999 V2000
    6.5003    0.3667    5.3014 C   0  0  0  0  0  0  0  0  0  0  0  0
    5.5153   -0.6564    5.2799 O   0  0  0  0  0  0  0  0  0  0  0  0
    4.3270   -0.3640    4.5375 C   0  0  2  0  0  0  0  0  0  0  0  0
    3.1839    0.3312    5.3521 C   0  0  1  0  0  0  0  0  0  0  0  0
    3.5715    1.7546    5.7644 C   0  0  2  0  0  0  0  0  0  0  0  0
    4.0124    2.1530    7.0428 O   0  0  0  0  0  0  0  0  0  0  0  0
    2.6813    2.5840    6.6491 C   0  0  1  0  0  0  0  0  0  0  0  0
    2.3476    3.9876    6.1760 C   0  0  2  0  0  0  0  0  0  0  0  0
    2.1035    4.6075    7.4173 O   0  0  0  0  0  0  0  0  0  0  0  0
    1.0919    3.7625    7.8011 C   0  0  1  0  0  0  0  0  0  0  0  0
    0.6360    4.0805    8.9949 O   0  0  0  0  0  0  0  0  0  0  0  0
    0.1292    3.7700    6.8186 O   0  0  0  0  0  0  0  0  0  0  0  0
    0.8842    4.1477    5.6664 C   0  0  2  0  0  0  0  0  0  0  0  0
    0.3052    3.6950    4.2547 C   0  0  2  0  0  0  0  0  0  0  0  0
    1.0013    4.4709    3.2773 O   0  0  0  0  0  0  0  0  0  0  0  0
   -1.1908    4.1479    4.3816 C   0  0  1  0  0  0  0  0  0  0  0  0
   -1.7597    4.5429    3.1526 O   0  0  0  0  0  0  0  0  0  0  0  0
   -1.8512    3.0492    4.9447 O   0  0  0  0  0  0  0  0  0  0  0  0
   -1.1005    1.8454    4.7472 C   0  0  0  0  0  0  0  0  0  0  0  0
    0.0908    2.1766    3.8116 C   0  0  1  0  0  0  0  0  0  0  0  0
   -0.5231    2.1475    2.5361 O   0  0  0  0  0  0  0  0  0  0  0  0
    1.3758    1.1536    3.7624 C   0  0  2  0  0  0  0  0  0  0  0  0
    2.3713    2.1058    3.5783 O   0  0  0  0  0  0  0  0  0  0  0  0
    1.5688    0.5786    2.4978 O   0  0  0  0  0  0  0  0  0  0  0  0
    1.7967   -0.7864    2.4892 C   0  0  2  0  0  0  0  0  0  0  0  0
    0.7348   -1.4281    2.9306 O   0  0  0  0  0  0  0  0  0  0  0  0
    0.3716   -0.7425    4.0710 C   0  0  0  0  0  0  0  0  0  0  0  0
    1.5370   -0.0042    5.0340 C   0  0  2  0  0  0  0  0  0  0  0  0
    1.2907   -1.6491    5.6144 C   0  0  1  0  0  0  0  0  0  0  0  0
    0.0772   -1.5320    6.6317 C   0  0  0  0  0  0  0  0  0  0  0  0
    1.3206   -3.1385    4.8282 C   0  0  0  0  0  0  0  0  0  0  0  0
    0.8729   -4.2116    5.5020 C   0  0  0  0  0  0  0  0  0  0  0  0
    1.0597   -4.2536    6.9995 C   0  0  1  0  0  0  0  0  0  0  0  0
    1.2469   -5.5879    7.4372 O   0  0  0  0  0  0  0  0  0  0  0  0
    2.2391   -3.3372    7.3879 C   0  0  1  0  0  0  0  0  0  0  0  0
    2.7960   -3.3655    8.8028 C   0  0  0  0  0  0  0  0  0  0  0  0
    3.4727   -4.0022    7.7234 O   0  0  0  0  0  0  0  0  0  0  0  0
    2.4012   -2.0331    6.5454 C   0  0  1  0  0  0  0  0  0  0  0  0
    3.3782   -2.2244    5.5392 O   0  0  0  0  0  0  0  0  0  0  0  0
    3.5929   -1.6007    4.2296 C   0  0  2  0  0  0  0  0  0  0  0  0
    3.8785   -3.0059    3.7295 C   0  0  0  0  0  0  0  0  0  0  0  0
    2.3776   -3.6089    3.7092 C   0  0  0  0  0  0  0  0  0  0  0  0
    3.0007   -1.3620    2.9114 O   0  0  0  0  0  0  0  0  0  0  0  0
    1.7321    2.3795    7.8006 C   0  0  1  0  0  0  0  0  0  0  0  0
    0.8102    1.3108    7.6104 O   0  0  0  0  0  0  0  0  0  0  0  0
    0.0067    1.0816    8.7674 C   0  0  0  0  0  0  0  0  0  0  0  0
    7.3468    0.0164    5.8857 H   0  0  0  0  0  0  0  0  0  0  0  0
    6.1641    1.2848    5.7731 H   0  0  0  0  0  0  0  0  0  0  0  0
    6.8576    0.5965    4.3002 H   0  0  0  0  0  0  0  0  0  0  0  0
    4.5689    0.1592    3.6123 H   0  0  0  0  0  0  0  0  0  0  0  0
    3.4301    0.0327    6.3445 H   0  0  0  0  0  0  0  0  0  0  0  0
    4.1847    2.2725    5.0263 H   0  0  0  0  0  0  0  0  0  0  0  0
    3.1298    4.4642    5.5801 H   0  0  0  0  0  0  0  0  0  0  0  0
    0.7889    5.2380    5.6437 H   0  0  0  0  0  0  0  0  0  0  0  0
    0.6111    4.3784    2.3989 H   0  0  0  0  0  0  0  0  0  0  0  0
   -1.3232    4.9957    5.0549 H   0  0  0  0  0  0  0  0  0  0  0  0
   -1.3083    4.0648    2.4577 H   0  0  0  0  0  0  0  0  0  0  0  0
   -0.7393    1.5114    5.7154 H   0  0  0  0  0  0  0  0  0  0  0  0
   -1.7983    1.0866    4.3827 H   0  0  0  0  0  0  0  0  0  0  0  0
   -0.3692    1.2961    2.1566 H   0  0  0  0  0  0  0  0  0  0  0  0
    2.0760    2.7146    2.9048 H   0  0  0  0  0  0  0  0  0  0  0  0
    1.8171   -1.0109    1.4225 H   0  0  0  0  0  0  0  0  0  0  0  0
   -0.3614   -0.1301    3.5729 H   0  0  0  0  0  0  0  0  0  0  0  0
   -0.4931   -1.2907    4.4453 H   0  0  0  0  0  0  0  0  0  0  0  0
   -0.4398   -0.5786    6.5386 H   0  0  0  0  0  0  0  0  0  0  0  0
    0.3582   -1.6139    7.6829 H   0  0  0  0  0  0  0  0  0  0  0  0
   -0.6983   -2.2752    6.4361 H   0  0  0  0  0  0  0  0  0  0  0  0
    0.9508   -5.2008    5.0708 H   0  0  0  0  0  0  0  0  0  0  0  0
    0.1652   -3.9216    7.5182 H   0  0  0  0  0  0  0  0  0  0  0  0
    2.1036   -5.8779    7.1467 H   0  0  0  0  0  0  0  0  0  0  0  0
    3.3296   -2.5096    9.2039 H   0  0  0  0  0  0  0  0  0  0  0  0
    2.3434   -4.0396    9.5276 H   0  0  0  0  0  0  0  0  0  0  0  0
    2.5904   -1.3173    7.3348 H   0  0  0  0  0  0  0  0  0  0  0  0
    4.3626   -3.0359    2.7422 H   0  0  0  0  0  0  0  0  0  0  0  0
    4.5483   -3.5544    4.4039 H   0  0  0  0  0  0  0  0  0  0  0  0
    2.4999   -4.6878    3.7597 H   0  0  0  0  0  0  0  0  0  0  0  0
    1.9248   -3.4814    2.7294 H   0  0  0  0  0  0  0  0  0  0  0  0
    2.3507    2.2359    8.6857 H   0  0  0  0  0  0  0  0  0  0  0  0
   -0.5776    0.1702    8.6738 H   0  0  0  0  0  0  0  0  0  0  0  0
   -0.7184    1.8803    8.9277 H   0  0  0  0  0  0  0  0  0  0  0  0
    0.6110    0.9703    9.6699 H   0  0  0  0  0  0  0  0  0  0  0  0
  1  2  1  0
  1 47  1  0
  1 48  1  0
  1 49  1  0
  2  3  1  0
  3 40  1  0
  3  4  1  0
  3 50  1  6
  4 28  1  0
  4  5  1  0
  4 51  1  1
  5  7  1  0
  5  6  1  0
  5 52  1  6
  7  6  1  1
  7 44  1  0
  7  8  1  0
  8 13  1  0
  8  9  1  0
  8 53  1  6
  9 10  1  0
 10 11  1  1
 10 12  1  0
 10 44  1  0
 12 13  1  0
 13 14  1  0
 13 54  1  6
 14 20  1  0
 14 15  1  6
 14 16  1  0
 15 55  1  0
 16 17  1  0
 16 18  1  0
 16 56  1  1
 17 57  1  0
 18 19  1  0
 19 20  1  0
 19 58  1  0
 19 59  1  0
 20 21  1  6
 20 22  1  0
 21 60  1  0
 22 28  1  0
 22 23  1  1
 22 24  1  0
 23 61  1  0
 24 25  1  0
 25 43  1  0
 25 26  1  0
 25 62  1  6
 26 27  1  0
 28 27  1  6
 27 63  1  0
 27 64  1  0
 28 29  1  0
 29 38  1  0
 29 30  1  1
 29 31  1  0
 30 65  1  0
 30 66  1  0
 30 67  1  0
 31 42  1  0
 31 32  2  0
 32 33  1  0
 32 68  1  0
 33 34  1  0
 33 35  1  0
 33 69  1  1
 34 70  1  0
 35 37  1  6
 35 36  1  0
 35 38  1  0
 36 37  1  0
 36 71  1  0
 36 72  1  0
 38 39  1  0
 38 73  1  1
 39 40  1  0
 40 41  1  6
 40 43  1  0
 41 42  1  0
 41 74  1  0
 41 75  1  0
 42 76  1  0
 42 77  1  0
 44 45  1  0
 44 78  1  1
 45 46  1  0
 46 79  1  0
 46 80  1  0
 46 81  1  0
M  CHG  1  11  -1
M  END
>  <i_m_ct_stereo_status>  (22) 
1

>  <s_m_source_file>  (22) 
/var/tmp/pbs.5076253.sched01/tmpeppn20qa/07bjoayft.sdf

>  <i_m_source_file_index>  (22) 
31

>  <i_lp_mmshare_version>  (22) 
48012

>  <i_f3d_flags>  (22) 
0

>  <s_epik_input>  (22) 
W0NIM11bQ0BAXTEyQyhbQ0gyXVtDSDJdMyk9W0NIXVtDQEBIXShbT0hdKVtDQF00KFtDSDJdTzQpW0NASF0yT0MzKFtDQEBIXTVPW0NIM10pT1tDQEBIXShPW0NIMl02KU9bQ0BdKFtPSF0pKEMxNltDQEBIXTVbQ0BIXShPNylbQ0BAXTc4OSlbQ0BdMShbT0hdKVtDQEBdKFtPSF0pKFtDQEBIXShbT0hdKU9bQ0gyXTEpW0NAQEhdMVtDQEhdOE9bQ0BdKE8xKShbT0hdKVtDQEhdOU9bQ0gzXQ==

>  <s_epik_cmdline>  (22) 
J2VwaWtfcHl0aG9uJywgJy1waHQnLCAnMi4wJywgJy1waCcsICc3LjAnLCAnLXRuJywgJzgnLCAnLW1hJywgJzIwMCcsICctaW1hZScsICc8aW5maWxlLm1hZT4nLCAnLW9tYWUnLCAnPG91dGZpbGUubWFlPic=

>  <r_epik_Ionization_Penalty>  (22) 
2.13237

>  <r_epik_Ionization_Penalty_Charging>  (22) 
2.13212

>  <r_epik_Ionization_Penalty_Neutral>  (22) 
0.000245851

>  <r_epik_State_Penalty>  (22) 
2.27058

>  <r_epik_Charging_Adjusted_Penalty>  (22) 
4.4027

>  <i_epik_Tot_Q>  (22) 
-1

>  <i_epik_Tot_abs_Q>  (22) 
1

>  <s_epik_Chemistry_Notes>  (22) 
This compound contains an acetal/aminal-like group ( X-CH(R)-Y where X, Y are N, S, or O) that may be acid/base labile, releasing an aldehyde.

>  <s_lp_Force_Field>  (22) 
OPLS3e

>  <r_lp_Energy>  (22) 
542.819

>  <b_lp_Chiralities_Consistent>  (22) 
1

>  <s_lp_Variant>  (22) 
22:0-3

>  <s_i_glide_gridfile>  (22) 
pfpi4k_grid

>  <i_i_glide_lignum>  (22) 
31

>  <i_i_glide_rotatable_bonds>  (22) 
7

>  <r_i_docking_score>  (22) 
-2.79009

>  <r_i_glide_ligand_efficiency>  (22) 
-0.0606541

>  <r_i_glide_ligand_efficiency_sa>  (22) 
-0.217327

>  <r_i_glide_ligand_efficiency_ln>  (22) 
-0.577821

>  <r_i_glide_gscore>  (22) 
-2.79009

>  <r_i_glide_lipo>  (22) 
-0.186136

>  <r_i_glide_hbond>  (22) 
0

>  <r_i_glide_metal>  (22) 
-0

>  <r_i_glide_rewards>  (22) 
-0.50006

>  <r_i_glide_evdw>  (22) 
-22.1171

>  <r_i_glide_ecoul>  (22) 
-5.96301

>  <r_i_glide_erotb>  (22) 
0

>  <r_i_glide_esite>  (22) 
-0.103587

>  <r_i_glide_emodel>  (22) 
-38.2651

>  <r_i_glide_energy>  (22) 
-28.0801

>  <r_i_glide_einternal>  (22) 
1.81517

>  <r_i_glide_intrahb_reward>  (22) 
-0.5

>  <i_i_glide_confnum>  (22) 
1

>  <i_i_glide_posenum>  (22) 
22

>  <r_i_glide_eff_state_penalty>  (22) 
0

>  <ligand_id>  (22) 
22

>  <original_smiles>  (22) 
COC1C2C3OC34C3OC(O)(OC3C3(O)C(O)OCC3(O)C3(O)OC5OCC23C2(C)C3=CC(O)C6(CO6)C2OC1(CC3)O5)C4OC

>  <smiles>  (22) 
[H]OC1([H])OC([H])([H])C2(O[H])C3(O[H])OC4([H])OC([H])([H])C35C([H])(C([H])(OC([H])([H])[H])C3(O4)OC4([H])C6(OC6([H])[H])C([H])(O[H])C([H])=C(C([H])([H])C3([H])[H])C45C([H])([H])[H])C3([H])OC34C([H])(OC([H])([H])[H])C3([O-])OC4([H])C([H])(O3)C12O[H]

$$$$
22:2:2
     RDKit          3D

 81 91  0  0  1  0  0  0  0  0999 V2000
    6.7106    0.8007    5.5863 C   0  0  0  0  0  0  0  0  0  0  0  0
    5.8909   -0.3220    5.2670 O   0  0  0  0  0  0  0  0  0  0  0  0
    4.7347   -0.0852    4.4558 C   0  0  2  0  0  0  0  0  0  0  0  0
    3.4798    0.4588    5.2176 C   0  0  1  0  0  0  0  0  0  0  0  0
    3.7000    1.8738    5.7335 C   0  0  2  0  0  0  0  0  0  0  0  0
    4.0121    2.2300    7.0598 O   0  0  0  0  0  0  0  0  0  0  0  0
    2.6913    2.5817    6.5922 C   0  0  1  0  0  0  0  0  0  0  0  0
    2.2732    3.9712    6.1832 C   0  0  2  0  0  0  0  0  0  0  0  0
    1.8916    4.5055    7.4259 O   0  0  0  0  0  0  0  0  0  0  0  0
    0.9352    3.5471    7.7008 C   0  0  1  0  0  0  0  0  0  0  0  0
    0.3672    3.7509    8.8711 O   0  0  0  0  0  0  0  0  0  0  0  0
    0.0504    3.5227    6.6411 O   0  0  0  0  0  0  0  0  0  0  0  0
    0.8495    4.0311    5.5774 C   0  0  2  0  0  0  0  0  0  0  0  0
    0.3975    3.6451    4.1092 C   0  0  2  0  0  0  0  0  0  0  0  0
    1.1069    4.5643    3.2726 O   0  0  0  0  0  0  0  0  0  0  0  0
   -1.1319    3.9625    4.1792 C   0  0  1  0  0  0  0  0  0  0  0  0
   -1.7075    4.4386    2.9737 O   0  0  0  0  0  0  0  0  0  0  0  0
   -1.7209    2.7732    4.6045 O   0  0  0  0  0  0  0  0  0  0  0  0
   -0.8587    1.6522    4.3753 C   0  0  0  0  0  0  0  0  0  0  0  0
    0.3539    2.1465    3.5452 C   0  0  1  0  0  0  0  0  0  0  0  0
   -0.2099    2.1125    2.2416 O   0  0  0  0  0  0  0  0  0  0  0  0
    1.7271    1.2283    3.5370 C   0  0  2  0  0  0  0  0  0  0  0  0
    2.6442    2.2768    3.4906 O   0  0  0  0  0  0  0  0  0  0  0  0
    2.0911    0.7508    2.2652 O   0  0  0  0  0  0  0  0  0  0  0  0
    2.3958   -0.5975    2.2014 C   0  0  2  0  0  0  0  0  0  0  0  0
    1.3603   -1.3481    2.5259 O   0  0  0  0  0  0  0  0  0  0  0  0
    0.8762   -0.7559    3.6683 C   0  0  0  0  0  0  0  0  0  0  0  0
    1.8974    0.0154    4.7565 C   0  0  2  0  0  0  0  0  0  0  0  0
    1.7643   -1.6854    5.2207 C   0  0  1  0  0  0  0  0  0  0  0  0
    0.4827   -1.7267    6.1512 C   0  0  0  0  0  0  0  0  0  0  0  0
    1.9709   -3.1078    4.3467 C   0  0  0  0  0  0  0  0  0  0  0  0
    1.5783   -4.2609    4.9336 C   0  0  0  0  0  0  0  0  0  0  0  0
    1.6698   -4.3712    6.4319 C   0  0  1  0  0  0  0  0  0  0  0  0
    1.9401   -5.7084    6.7990 O   0  0  0  0  0  0  0  0  0  0  0  0
    2.7322   -3.3844    6.9641 C   0  0  1  0  0  0  0  0  0  0  0  0
    3.1964   -3.4559    8.4079 C   0  0  0  0  0  0  0  0  0  0  0  0
    3.9983   -3.9537    7.3380 O   0  0  0  0  0  0  0  0  0  0  0  0
    2.8342   -2.0324    6.2140 C   0  0  1  0  0  0  0  0  0  0  0  0
    3.8970   -2.0808    5.2701 O   0  0  0  0  0  0  0  0  0  0  0  0
    4.1399   -1.3626    4.0177 C   0  0  2  0  0  0  0  0  0  0  0  0
    4.5825   -2.6940    3.4494 C   0  0  0  0  0  0  0  0  0  0  0  0
    3.1419   -3.4232    3.2883 C   0  0  0  0  0  0  0  0  0  0  0  0
    3.6170   -1.1013    2.6795 O   0  0  0  0  0  0  0  0  0  0  0  0
    1.7070    2.2277    7.6607 C   0  0  1  0  0  0  0  0  0  0  0  0
    0.8930    1.1097    7.3447 O   0  0  0  0  0  0  0  0  0  0  0  0
    0.0897    0.7122    8.4507 C   0  0  0  0  0  0  0  0  0  0  0  0
    7.5620    0.4670    6.1730 H   0  0  0  0  0  0  0  0  0  0  0  0
    6.2276    1.5322    6.2254 H   0  0  0  0  0  0  0  0  0  0  0  0
    7.0826    1.3133    4.6996 H   0  0  0  0  0  0  0  0  0  0  0  0
    5.0013    0.5025    3.5779 H   0  0  0  0  0  0  0  0  0  0  0  0
    3.6929    0.1150    6.2025 H   0  0  0  0  0  0  0  0  0  0  0  0
    4.3066    2.4894    5.0716 H   0  0  0  0  0  0  0  0  0  0  0  0
    3.0519    4.5332    5.6738 H   0  0  0  0  0  0  0  0  0  0  0  0
    0.6640    5.1052    5.6212 H   0  0  0  0  0  0  0  0  0  0  0  0
    0.7230    4.6266    2.4161 H   0  0  0  0  0  0  0  0  0  0  0  0
   -1.3635    4.7388    4.9068 H   0  0  0  0  0  0  0  0  0  0  0  0
   -1.1966    4.1159    2.2303 H   0  0  0  0  0  0  0  0  0  0  0  0
   -0.5290    1.2883    5.3388 H   0  0  0  0  0  0  0  0  0  0  0  0
   -1.4522    0.8548    3.9214 H   0  0  0  0  0  0  0  0  0  0  0  0
    0.2415    2.7335    1.6586 H   0  0  0  0  0  0  0  0  0  0  0  0
    2.3731    2.8736    2.8068 H   0  0  0  0  0  0  0  0  0  0  0  0
    2.5052   -0.7535    1.1257 H   0  0  0  0  0  0  0  0  0  0  0  0
    0.1387   -0.1698    3.1509 H   0  0  0  0  0  0  0  0  0  0  0  0
    0.0405   -1.3970    3.9503 H   0  0  0  0  0  0  0  0  0  0  0  0
   -0.0991   -0.8136    6.0801 H   0  0  0  0  0  0  0  0  0  0  0  0
    0.7094   -1.8585    7.2071 H   0  0  0  0  0  0  0  0  0  0  0  0
   -0.2122   -2.5139    5.8525 H   0  0  0  0  0  0  0  0  0  0  0  0
    1.7660   -5.2098    4.4531 H   0  0  0  0  0  0  0  0  0  0  0  0
    0.7203   -4.1390    6.8988 H   0  0  0  0  0  0  0  0  0  0  0  0
    2.8319   -5.9104    6.5605 H   0  0  0  0  0  0  0  0  0  0  0  0
    3.6325   -2.5907    8.9035 H   0  0  0  0  0  0  0  0  0  0  0  0
    2.7640   -4.2184    9.0554 H   0  0  0  0  0  0  0  0  0  0  0  0
    2.9009   -1.3481    7.0510 H   0  0  0  0  0  0  0  0  0  0  0  0
    5.1313   -2.6138    2.5001 H   0  0  0  0  0  0  0  0  0  0  0  0
    5.2424   -3.2192    4.1452 H   0  0  0  0  0  0  0  0  0  0  0  0
    3.3575   -4.4899    3.2912 H   0  0  0  0  0  0  0  0  0  0  0  0
    2.7497   -3.2731    2.2847 H   0  0  0  0  0  0  0  0  0  0  0  0
    2.2877    2.1107    8.5650 H   0  0  0  0  0  0  0  0  0  0  0  0
   -0.4110   -0.2322    8.2553 H   0  0  0  0  0  0  0  0  0  0  0  0
   -0.7008    1.4315    8.6536 H   0  0  0  0  0  0  0  0  0  0  0  0
    0.6811    0.5664    9.3541 H   0  0  0  0  0  0  0  0  0  0  0  0
  1  2  1  0
  1 47  1  0
  1 48  1  0
  1 49  1  0
  2  3  1  0
  3 40  1  0
  3  4  1  0
  3 50  1  6
  4 28  1  0
  4  5  1  0
  4 51  1  1
  5  7  1  0
  5  6  1  0
  5 52  1  6
  7  6  1  1
  7 44  1  0
  7  8  1  0
  8 13  1  0
  8  9  1  0
  8 53  1  6
  9 10  1  0
 10 11  1  1
 10 12  1  0
 10 44  1  0
 12 13  1  0
 13 14  1  0
 13 54  1  6
 14 20  1  0
 14 15  1  6
 14 16  1  0
 15 55  1  0
 16 17  1  0
 16 18  1  0
 16 56  1  1
 17 57  1  0
 18 19  1  0
 19 20  1  0
 19 58  1  0
 19 59  1  0
 20 21  1  6
 20 22  1  0
 21 60  1  0
 22 28  1  0
 22 23  1  1
 22 24  1  0
 23 61  1  0
 24 25  1  0
 25 43  1  0
 25 26  1  0
 25 62  1  6
 26 27  1  0
 28 27  1  6
 27 63  1  0
 27 64  1  0
 28 29  1  0
 29 38  1  0
 29 30  1  1
 29 31  1  0
 30 65  1  0
 30 66  1  0
 30 67  1  0
 31 42  1  0
 31 32  2  0
 32 33  1  0
 32 68  1  0
 33 34  1  0
 33 35  1  0
 33 69  1  1
 34 70  1  0
 35 37  1  6
 35 36  1  0
 35 38  1  0
 36 37  1  0
 36 71  1  0
 36 72  1  0
 38 39  1  0
 38 73  1  1
 39 40  1  0
 40 41  1  6
 40 43  1  0
 41 42  1  0
 41 74  1  0
 41 75  1  0
 42 76  1  0
 42 77  1  0
 44 45  1  0
 44 78  1  1
 45 46  1  0
 46 79  1  0
 46 80  1  0
 46 81  1  0
M  CHG  1  11  -1
M  END
>  <i_m_ct_stereo_status>  (23) 
1

>  <s_m_source_file>  (23) 
/var/tmp/pbs.5076253.sched01/tmpeppn20qa/07bjoayft.sdf

>  <i_m_source_file_index>  (23) 
31

>  <i_lp_mmshare_version>  (23) 
48012

>  <i_f3d_flags>  (23) 
0

>  <s_epik_input>  (23) 
W0NIM11bQ0BAXTEyQyhbQ0gyXVtDSDJdMyk9W0NIXVtDQEBIXShbT0hdKVtDQF00KFtDSDJdTzQpW0NASF0yT0MzKFtDQEBIXTVPW0NIM10pT1tDQEBIXShPW0NIMl02KU9bQ0BdKFtPSF0pKEMxNltDQEBIXTVbQ0BIXShPNylbQ0BAXTc4OSlbQ0BdMShbT0hdKVtDQEBdKFtPSF0pKFtDQEBIXShbT0hdKU9bQ0gyXTEpW0NAQEhdMVtDQEhdOE9bQ0BdKE8xKShbT0hdKVtDQEhdOU9bQ0gzXQ==

>  <s_epik_cmdline>  (23) 
J2VwaWtfcHl0aG9uJywgJy1waHQnLCAnMi4wJywgJy1waCcsICc3LjAnLCAnLXRuJywgJzgnLCAnLW1hJywgJzIwMCcsICctaW1hZScsICc8aW5maWxlLm1hZT4nLCAnLW9tYWUnLCAnPG91dGZpbGUubWFlPic=

>  <r_epik_Ionization_Penalty>  (23) 
2.13237

>  <r_epik_Ionization_Penalty_Charging>  (23) 
2.13212

>  <r_epik_Ionization_Penalty_Neutral>  (23) 
0.000245851

>  <r_epik_State_Penalty>  (23) 
2.27058

>  <r_epik_Charging_Adjusted_Penalty>  (23) 
4.4027

>  <i_epik_Tot_Q>  (23) 
-1

>  <i_epik_Tot_abs_Q>  (23) 
1

>  <s_epik_Chemistry_Notes>  (23) 
This compound contains an acetal/aminal-like group ( X-CH(R)-Y where X, Y are N, S, or O) that may be acid/base labile, releasing an aldehyde.

>  <s_lp_Force_Field>  (23) 
OPLS3e

>  <r_lp_Energy>  (23) 
542.819

>  <b_lp_Chiralities_Consistent>  (23) 
1

>  <s_lp_Variant>  (23) 
22:0-3

>  <s_i_glide_gridfile>  (23) 
pfpi4k_grid

>  <i_i_glide_lignum>  (23) 
31

>  <i_i_glide_rotatable_bonds>  (23) 
7

>  <r_i_docking_score>  (23) 
-2.75486

>  <r_i_glide_ligand_efficiency>  (23) 
-0.0598883

>  <r_i_glide_ligand_efficiency_sa>  (23) 
-0.214582

>  <r_i_glide_ligand_efficiency_ln>  (23) 
-0.570525

>  <r_i_glide_gscore>  (23) 
-2.75486

>  <r_i_glide_lipo>  (23) 
-0.273814

>  <r_i_glide_hbond>  (23) 
0

>  <r_i_glide_metal>  (23) 
-0

>  <r_i_glide_rewards>  (23) 
-0.00272464

>  <r_i_glide_evdw>  (23) 
-21.4134

>  <r_i_glide_ecoul>  (23) 
-8.6585

>  <r_i_glide_erotb>  (23) 
0

>  <r_i_glide_esite>  (23) 
-0.108878

>  <r_i_glide_emodel>  (23) 
-34.5578

>  <r_i_glide_energy>  (23) 
-30.0719

>  <r_i_glide_einternal>  (23) 
2.96191

>  <r_i_glide_intrahb_reward>  (23) 
-0

>  <i_i_glide_confnum>  (23) 
2

>  <i_i_glide_posenum>  (23) 
26

>  <r_i_glide_eff_state_penalty>  (23) 
0

>  <ligand_id>  (23) 
22

>  <original_smiles>  (23) 
COC1C2C3OC34C3OC(O)(OC3C3(O)C(O)OCC3(O)C3(O)OC5OCC23C2(C)C3=CC(O)C6(CO6)C2OC1(CC3)O5)C4OC

>  <smiles>  (23) 
[H]OC1([H])OC([H])([H])C2(O[H])C3(O[H])OC4([H])OC([H])([H])C35C([H])(C([H])(OC([H])([H])[H])C3(O4)OC4([H])C6(OC6([H])[H])C([H])(O[H])C([H])=C(C([H])([H])C3([H])[H])C45C([H])([H])[H])C3([H])OC34C([H])(OC([H])([H])[H])C3([O-])OC4([H])C([H])(O3)C12O[H]

$$$$
22:3:0
     RDKit          3D

 81 91  0  0  1  0  0  0  0  0999 V2000
    4.5445   -5.1817    6.8734 C   0  0  0  0  0  0  0  0  0  0  0  0
    4.1740   -6.1626    5.9208 O   0  0  0  0  0  0  0  0  0  0  0  0
    4.7938   -6.0394    4.6328 C   0  0  2  0  0  0  0  0  0  0  0  0
    4.1097   -5.0778    3.5880 C   0  0  1  0  0  0  0  0  0  0  0  0
    4.9617   -3.7414    3.7849 C   0  0  2  0  0  0  0  0  0  0  0  0
    4.9583   -2.8028    4.8468 O   0  0  0  0  0  0  0  0  0  0  0  0
    4.4436   -2.3185    3.5764 C   0  0  1  0  0  0  0  0  0  0  0  0
    5.2107   -1.4354    2.5738 C   0  0  2  0  0  0  0  0  0  0  0  0
    4.6766   -0.1797    2.9322 O   0  0  0  0  0  0  0  0  0  0  0  0
    3.3358   -0.4785    2.7383 C   0  0  1  0  0  0  0  0  0  0  0  0
    2.5635    0.5390    2.9595 O   0  0  0  0  0  0  0  0  0  0  0  0
    3.2500   -1.0374    1.4486 O   0  0  0  0  0  0  0  0  0  0  0  0
    4.6046   -1.3403    1.1260 C   0  0  2  0  0  0  0  0  0  0  0  0
    4.8877   -2.3595   -0.0914 C   0  0  2  0  0  0  0  0  0  0  0  0
    6.3068   -2.4627   -0.1691 O   0  0  0  0  0  0  0  0  0  0  0  0
    4.3112   -1.6774   -1.3677 C   0  0  1  0  0  0  0  0  0  0  0  0
    5.0629   -1.9954   -2.5148 O   0  0  0  0  0  0  0  0  0  0  0  0
    3.0141   -2.1604   -1.4809 O   0  0  0  0  0  0  0  0  0  0  0  0
    2.9117   -3.5064   -1.0242 C   0  0  0  0  0  0  0  0  0  0  0  0
    4.2296   -3.8126   -0.2730 C   0  0  1  0  0  0  0  0  0  0  0  0
    5.0193   -4.5124   -1.2346 O   0  0  0  0  0  0  0  0  0  0  0  0
    4.0577   -4.5179    1.1430 C   0  0  2  0  0  0  0  0  0  0  0  0
    3.0870   -3.6949    1.6973 O   0  0  0  0  0  0  0  0  0  0  0  0
    5.4448   -4.6027    1.5977 O   0  0  0  0  0  0  0  0  0  0  0  0
    6.0430   -5.9637    1.7853 C   0  0  2  0  0  0  0  0  0  0  0  0
    5.8000   -6.4826    0.5815 O   0  0  0  0  0  0  0  0  0  0  0  0
    4.4125   -6.6417    0.6926 C   0  0  0  0  0  0  0  0  0  0  0  0
    3.6658   -5.7835    1.8889 C   0  0  1  0  0  0  0  0  0  0  0  0
    2.4319   -6.8185    1.8905 C   0  0  1  0  0  0  0  0  0  0  0  0
    1.3939   -6.4047    0.8222 C   0  0  0  0  0  0  0  0  0  0  0  0
    2.6681   -8.4502    1.9773 C   0  0  0  0  0  0  0  0  0  0  0  0
    1.5626   -9.2344    2.0977 C   0  0  0  0  0  0  0  0  0  0  0  0
    0.2902   -8.6175    2.5806 C   0  0  1  0  0  0  0  0  0  0  0  0
   -0.5441   -9.6051    3.1563 O   0  0  0  0  0  0  0  0  0  0  0  0
    0.6021   -7.4564    3.5485 C   0  0  1  0  0  0  0  0  0  0  0  0
   -0.5360   -6.7512    4.2722 C   0  0  0  0  0  0  0  0  0  0  0  0
    0.3129   -7.6759    4.9410 O   0  0  0  0  0  0  0  0  0  0  0  0
    1.9144   -6.6688    3.2667 C   0  0  1  0  0  0  0  0  0  0  0  0
    3.0472   -7.2523    3.9490 O   0  0  0  0  0  0  0  0  0  0  0  0
    4.5283   -7.1822    3.7992 C   0  0  2  0  0  0  0  0  0  0  0  0
    4.6297   -8.6898    3.9130 C   0  0  0  0  0  0  0  0  0  0  0  0
    3.9686   -9.2000    2.5335 C   0  0  0  0  0  0  0  0  0  0  0  0
    5.5862   -7.0721    2.7235 O   0  0  0  0  0  0  0  0  0  0  0  0
    3.1275   -1.5939    3.7724 C   0  0  1  0  0  0  0  0  0  0  0  0
    1.9694   -2.4049    3.5736 O   0  0  0  0  0  0  0  0  0  0  0  0
    0.7162   -1.7723    3.7505 C   0  0  0  0  0  0  0  0  0  0  0  0
    4.0383   -5.3621    7.8190 H   0  0  0  0  0  0  0  0  0  0  0  0
    4.2475   -4.1816    6.5875 H   0  0  0  0  0  0  0  0  0  0  0  0
    5.6163   -5.2058    7.0481 H   0  0  0  0  0  0  0  0  0  0  0  0
    5.8745   -5.9463    4.7209 H   0  0  0  0  0  0  0  0  0  0  0  0
    3.2095   -4.7186    4.0843 H   0  0  0  0  0  0  0  0  0  0  0  0
    6.0076   -3.9126    3.5744 H   0  0  0  0  0  0  0  0  0  0  0  0
    6.2954   -1.4885    2.6494 H   0  0  0  0  0  0  0  0  0  0  0  0
    5.0247   -0.3959    0.7642 H   0  0  0  0  0  0  0  0  0  0  0  0
    6.4741   -3.1464   -0.8129 H   0  0  0  0  0  0  0  0  0  0  0  0
    4.2673   -0.5945   -1.2937 H   0  0  0  0  0  0  0  0  0  0  0  0
    5.1526   -2.9416   -2.5217 H   0  0  0  0  0  0  0  0  0  0  0  0
    2.0144   -3.5756   -0.4112 H   0  0  0  0  0  0  0  0  0  0  0  0
    2.7651   -4.2002   -1.8536 H   0  0  0  0  0  0  0  0  0  0  0  0
    4.5120   -5.2540   -1.5364 H   0  0  0  0  0  0  0  0  0  0  0  0
    3.2270   -2.7814    1.4802 H   0  0  0  0  0  0  0  0  0  0  0  0
    7.1176   -5.8665    1.9143 H   0  0  0  0  0  0  0  0  0  0  0  0
    3.9461   -6.4364   -0.2590 H   0  0  0  0  0  0  0  0  0  0  0  0
    4.3805   -7.7055    0.6312 H   0  0  0  0  0  0  0  0  0  0  0  0
    0.5771   -5.8453    1.2817 H   0  0  0  0  0  0  0  0  0  0  0  0
    0.9456   -7.2706    0.3257 H   0  0  0  0  0  0  0  0  0  0  0  0
    1.8207   -5.7980    0.0188 H   0  0  0  0  0  0  0  0  0  0  0  0
    1.6375  -10.2992    2.2556 H   0  0  0  0  0  0  0  0  0  0  0  0
   -0.2727   -8.2383    1.7350 H   0  0  0  0  0  0  0  0  0  0  0  0
   -0.1864   -9.8650    3.9951 H   0  0  0  0  0  0  0  0  0  0  0  0
   -0.4319   -5.7281    4.6236 H   0  0  0  0  0  0  0  0  0  0  0  0
   -1.5511   -7.1064    4.1005 H   0  0  0  0  0  0  0  0  0  0  0  0
    1.6258   -5.6553    3.4920 H   0  0  0  0  0  0  0  0  0  0  0  0
    5.6726   -9.0159    4.0297 H   0  0  0  0  0  0  0  0  0  0  0  0
    4.0772   -9.0282    4.7972 H   0  0  0  0  0  0  0  0  0  0  0  0
    3.7191  -10.2478    2.7055 H   0  0  0  0  0  0  0  0  0  0  0  0
    4.7584   -9.2932    1.7886 H   0  0  0  0  0  0  0  0  0  0  0  0
    3.1556   -1.1670    4.7756 H   0  0  0  0  0  0  0  0  0  0  0  0
   -0.0754   -2.5217    3.7096 H   0  0  0  0  0  0  0  0  0  0  0  0
    0.5039   -1.0435    2.9663 H   0  0  0  0  0  0  0  0  0  0  0  0
    0.6589   -1.2814    4.7216 H   0  0  0  0  0  0  0  0  0  0  0  0
  1  2  1  0
  1 47  1  0
  1 48  1  0
  1 49  1  0
  2  3  1  0
  3 40  1  0
  3  4  1  0
  3 50  1  1
  4 28  1  0
  4  5  1  0
  4 51  1  1
  5  7  1  0
  5  6  1  0
  5 52  1  6
  7  6  1  1
  7 44  1  0
  7  8  1  0
  8 13  1  0
  8  9  1  0
  8 53  1  6
  9 10  1  0
 10 11  1  6
 10 12  1  0
 10 44  1  0
 12 13  1  0
 13 14  1  0
 13 54  1  6
 14 20  1  0
 14 15  1  6
 14 16  1  0
 15 55  1  0
 16 17  1  0
 16 18  1  0
 16 56  1  1
 17 57  1  0
 18 19  1  0
 19 20  1  0
 19 58  1  0
 19 59  1  0
 20 21  1  6
 20 22  1  0
 21 60  1  0
 22 28  1  0
 22 23  1  1
 22 24  1  0
 23 61  1  0
 24 25  1  0
 25 43  1  0
 25 26  1  0
 25 62  1  6
 26 27  1  0
 28 27  1  6
 27 63  1  0
 27 64  1  0
 28 29  1  0
 29 38  1  0
 29 30  1  6
 29 31  1  0
 30 65  1  0
 30 66  1  0
 30 67  1  0
 31 42  1  0
 31 32  2  0
 32 33  1  0
 32 68  1  0
 33 34  1  0
 33 35  1  0
 33 69  1  6
 34 70  1  0
 35 37  1  1
 35 36  1  0
 35 38  1  0
 36 37  1  0
 36 71  1  0
 36 72  1  0
 38 39  1  0
 38 73  1  1
 39 40  1  0
 40 41  1  1
 40 43  1  0
 41 42  1  0
 41 74  1  0
 41 75  1  0
 42 76  1  0
 42 77  1  0
 44 45  1  0
 44 78  1  1
 45 46  1  0
 46 79  1  0
 46 80  1  0
 46 81  1  0
M  CHG  1  11  -1
M  END
>  <i_m_ct_stereo_status>  (24) 
1

>  <s_m_source_file>  (24) 
/var/tmp/pbs.5076253.sched01/tmpeppn20qa/07bjoayft.sdf

>  <i_m_source_file_index>  (24) 
32

>  <i_lp_mmshare_version>  (24) 
48012

>  <i_f3d_flags>  (24) 
0

>  <s_epik_input>  (24) 
W0NIM11bQ0BAXTEyQyhbQ0gyXVtDSDJdMyk9W0NIXVtDQEBIXShbT0hdKVtDQF00KFtDSDJdTzQpW0NASF0yT0MzKFtDQEBIXTVPW0NIM10pT1tDQEBIXShPW0NIMl02KU9bQ0BdKFtPSF0pKEMxNltDQEBIXTVbQ0BIXShPNylbQ0BAXTc4OSlbQ0BdMShbT0hdKVtDQEBdKFtPSF0pKFtDQEBIXShbT0hdKU9bQ0gyXTEpW0NAQEhdMVtDQEhdOE9bQ0BdKE8xKShbT0hdKVtDQEhdOU9bQ0gzXQ==

>  <s_epik_cmdline>  (24) 
J2VwaWtfcHl0aG9uJywgJy1waHQnLCAnMi4wJywgJy1waCcsICc3LjAnLCAnLXRuJywgJzgnLCAnLW1hJywgJzIwMCcsICctaW1hZScsICc8aW5maWxlLm1hZT4nLCAnLW9tYWUnLCAnPG91dGZpbGUubWFlPic=

>  <r_epik_Ionization_Penalty>  (24) 
2.13237

>  <r_epik_Ionization_Penalty_Charging>  (24) 
2.13212

>  <r_epik_Ionization_Penalty_Neutral>  (24) 
0.000245851

>  <r_epik_State_Penalty>  (24) 
2.27058

>  <r_epik_Charging_Adjusted_Penalty>  (24) 
4.4027

>  <i_epik_Tot_Q>  (24) 
-1

>  <i_epik_Tot_abs_Q>  (24) 
1

>  <s_epik_Chemistry_Notes>  (24) 
This compound contains an acetal/aminal-like group ( X-CH(R)-Y where X, Y are N, S, or O) that may be acid/base labile, releasing an aldehyde.

>  <s_lp_Force_Field>  (24) 
OPLS3e

>  <r_lp_Energy>  (24) 
515.228

>  <b_lp_Chiralities_Consistent>  (24) 
1

>  <s_lp_Variant>  (24) 
22:0-4

>  <s_i_glide_gridfile>  (24) 
pfpi4k_grid

>  <i_i_glide_lignum>  (24) 
32

>  <i_i_glide_rotatable_bonds>  (24) 
7

>  <r_i_docking_score>  (24) 
-2.81586

>  <r_i_glide_ligand_efficiency>  (24) 
-0.0612143

>  <r_i_glide_ligand_efficiency_sa>  (24) 
-0.219334

>  <r_i_glide_ligand_efficiency_ln>  (24) 
-0.583157

>  <r_i_glide_gscore>  (24) 
-2.81586

>  <r_i_glide_lipo>  (24) 
-0.404131

>  <r_i_glide_hbond>  (24) 
0

>  <r_i_glide_metal>  (24) 
-0

>  <r_i_glide_rewards>  (24) 
-0.612225

>  <r_i_glide_evdw>  (24) 
-30.0762

>  <r_i_glide_ecoul>  (24) 
-1.70784

>  <r_i_glide_erotb>  (24) 
0

>  <r_i_glide_esite>  (24) 
-0.0395155

>  <r_i_glide_emodel>  (24) 
-43.1198

>  <r_i_glide_energy>  (24) 
-31.7841

>  <r_i_glide_einternal>  (24) 
0.953964

>  <r_i_glide_intrahb_reward>  (24) 
-0.5

>  <i_i_glide_confnum>  (24) 
2

>  <i_i_glide_posenum>  (24) 
27

>  <r_i_glide_eff_state_penalty>  (24) 
0

>  <ligand_id>  (24) 
22

>  <original_smiles>  (24) 
COC1C2C3OC34C3OC(O)(OC3C3(O)C(O)OCC3(O)C3(O)OC5OCC23C2(C)C3=CC(O)C6(CO6)C2OC1(CC3)O5)C4OC

>  <smiles>  (24) 
[H]OC1([H])OC([H])([H])C2(O[H])C3(O[H])OC4([H])OC([H])([H])C35C([H])(C([H])(OC([H])([H])[H])C3(O4)OC4([H])C6(OC6([H])[H])C([H])(O[H])C([H])=C(C([H])([H])C3([H])[H])C45C([H])([H])[H])C3([H])OC34C([H])(OC([H])([H])[H])C3([O-])OC4([H])C([H])(O3)C12O[H]

$$$$
22:3:1
     RDKit          3D

 81 91  0  0  1  0  0  0  0  0999 V2000
    4.6815   -6.8150    6.9661 C   0  0  0  0  0  0  0  0  0  0  0  0
    4.0521   -6.0358    5.9644 O   0  0  0  0  0  0  0  0  0  0  0  0
    4.7632   -5.9762    4.7279 C   0  0  2  0  0  0  0  0  0  0  0  0
    4.0750   -5.0225    3.6883 C   0  0  1  0  0  0  0  0  0  0  0  0
    4.8534   -3.6616    3.9614 C   0  0  2  0  0  0  0  0  0  0  0  0
    4.7369   -2.7856    5.0680 O   0  0  0  0  0  0  0  0  0  0  0  0
    4.3060   -2.2508    3.7804 C   0  0  1  0  0  0  0  0  0  0  0  0
    5.0894   -1.3407    2.7994 C   0  0  2  0  0  0  0  0  0  0  0  0
    4.5138   -0.1058    3.1620 O   0  0  0  0  0  0  0  0  0  0  0  0
    3.1901   -0.4361    2.9120 C   0  0  1  0  0  0  0  0  0  0  0  0
    2.3834    0.5756    3.1155 O   0  0  0  0  0  0  0  0  0  0  0  0
    3.1641   -0.9606    1.6075 O   0  0  0  0  0  0  0  0  0  0  0  0
    4.5332   -1.2352    1.3229 C   0  0  2  0  0  0  0  0  0  0  0  0
    4.8739   -2.2137    0.0802 C   0  0  2  0  0  0  0  0  0  0  0  0
    6.3003   -2.2084    0.0633 O   0  0  0  0  0  0  0  0  0  0  0  0
    4.3044   -1.5293   -1.1958 C   0  0  1  0  0  0  0  0  0  0  0  0
    5.1054   -1.7447   -2.3324 O   0  0  0  0  0  0  0  0  0  0  0  0
    3.0418   -2.0760   -1.3831 O   0  0  0  0  0  0  0  0  0  0  0  0
    2.9677   -3.4218   -0.9299 C   0  0  0  0  0  0  0  0  0  0  0  0
    4.2695   -3.6912   -0.1376 C   0  0  1  0  0  0  0  0  0  0  0  0
    5.1037   -4.3877   -1.0552 O   0  0  0  0  0  0  0  0  0  0  0  0
    4.0769   -4.4045    1.2669 C   0  0  2  0  0  0  0  0  0  0  0  0
    3.0787   -3.6008    1.8000 O   0  0  0  0  0  0  0  0  0  0  0  0
    5.4563   -4.4599    1.7675 O   0  0  0  0  0  0  0  0  0  0  0  0
    6.0812   -5.8147    1.9356 C   0  0  2  0  0  0  0  0  0  0  0  0
    5.8815   -6.3177    0.7169 O   0  0  0  0  0  0  0  0  0  0  0  0
    4.4930   -6.5212    0.7953 C   0  0  0  0  0  0  0  0  0  0  0  0
    3.6855   -5.7007    1.9786 C   0  0  1  0  0  0  0  0  0  0  0  0
    2.4754   -6.7800    1.9253 C   0  0  1  0  0  0  0  0  0  0  0  0
    1.4403   -6.3806    0.8404 C   0  0  0  0  0  0  0  0  0  0  0  0
    2.7508   -8.4096    1.9905 C   0  0  0  0  0  0  0  0  0  0  0  0
    1.6716   -9.2143    2.0865 C   0  0  0  0  0  0  0  0  0  0  0  0
    0.3602   -8.6494    2.5499 C   0  0  1  0  0  0  0  0  0  0  0  0
   -0.4452   -9.6740    3.0973 O   0  0  0  0  0  0  0  0  0  0  0  0
    0.6221   -7.4991    3.5418 C   0  0  1  0  0  0  0  0  0  0  0  0
   -0.5475   -6.8301    4.2369 C   0  0  0  0  0  0  0  0  0  0  0  0
    0.2962   -7.7588    4.9179 O   0  0  0  0  0  0  0  0  0  0  0  0
    1.9236   -6.6751    3.3051 C   0  0  1  0  0  0  0  0  0  0  0  0
    3.0673   -7.2271    4.0116 O   0  0  0  0  0  0  0  0  0  0  0  0
    4.5508   -7.1208    3.8889 C   0  0  2  0  0  0  0  0  0  0  0  0
    4.6796   -8.6252    3.9780 C   0  0  0  0  0  0  0  0  0  0  0  0
    4.0647   -9.1239    2.5772 C   0  0  0  0  0  0  0  0  0  0  0  0
    5.6344   -6.9567    2.8454 O   0  0  0  0  0  0  0  0  0  0  0  0
    2.9601   -1.5710    3.9245 C   0  0  1  0  0  0  0  0  0  0  0  0
    1.8318   -2.4066    3.6647 O   0  0  0  0  0  0  0  0  0  0  0  0
    0.5617   -1.8061    3.8271 C   0  0  0  0  0  0  0  0  0  0  0  0
    4.0703   -6.7987    7.8686 H   0  0  0  0  0  0  0  0  0  0  0  0
    5.6694   -6.4297    7.2234 H   0  0  0  0  0  0  0  0  0  0  0  0
    4.7824   -7.8543    6.6594 H   0  0  0  0  0  0  0  0  0  0  0  0
    5.8330   -5.8057    4.8686 H   0  0  0  0  0  0  0  0  0  0  0  0
    3.1554   -4.7010    4.1613 H   0  0  0  0  0  0  0  0  0  0  0  0
    5.9152   -3.7803    3.8080 H   0  0  0  0  0  0  0  0  0  0  0  0
    6.1712   -1.3534    2.9086 H   0  0  0  0  0  0  0  0  0  0  0  0
    4.9325   -0.2731    0.9866 H   0  0  0  0  0  0  0  0  0  0  0  0
    6.5967   -2.7023    0.8122 H   0  0  0  0  0  0  0  0  0  0  0  0
    4.2088   -0.4487   -1.0967 H   0  0  0  0  0  0  0  0  0  0  0  0
    4.6333   -1.3892   -3.0706 H   0  0  0  0  0  0  0  0  0  0  0  0
    2.0548   -3.5115   -0.3450 H   0  0  0  0  0  0  0  0  0  0  0  0
    2.8498   -4.0985   -1.7743 H   0  0  0  0  0  0  0  0  0  0  0  0
    4.6286   -5.1310   -1.4010 H   0  0  0  0  0  0  0  0  0  0  0  0
    3.2100   -2.6905    1.5646 H   0  0  0  0  0  0  0  0  0  0  0  0
    7.1525   -5.6827    2.0757 H   0  0  0  0  0  0  0  0  0  0  0  0
    4.0331   -6.3369   -0.1689 H   0  0  0  0  0  0  0  0  0  0  0  0
    4.4901   -7.5861    0.7268 H   0  0  0  0  0  0  0  0  0  0  0  0
    0.6022   -5.8497    1.2834 H   0  0  0  0  0  0  0  0  0  0  0  0
    1.0148   -7.2414    0.3261 H   0  0  0  0  0  0  0  0  0  0  0  0
    1.8693   -5.7508    0.0617 H   0  0  0  0  0  0  0  0  0  0  0  0
    1.7760  -10.2815    2.2411 H   0  0  0  0  0  0  0  0  0  0  0  0
   -0.2024   -8.2775    1.6978 H   0  0  0  0  0  0  0  0  0  0  0  0
   -0.1025   -9.9225    3.9452 H   0  0  0  0  0  0  0  0  0  0  0  0
   -0.4588   -5.8110    4.6044 H   0  0  0  0  0  0  0  0  0  0  0  0
   -1.5526   -7.1917    4.0234 H   0  0  0  0  0  0  0  0  0  0  0  0
    1.6126   -5.6644    3.5497 H   0  0  0  0  0  0  0  0  0  0  0  0
    5.7230   -8.9317    4.1155 H   0  0  0  0  0  0  0  0  0  0  0  0
    4.1020   -9.0086    4.8241 H   0  0  0  0  0  0  0  0  0  0  0  0
    3.8391  -10.1809    2.7292 H   0  0  0  0  0  0  0  0  0  0  0  0
    4.8678   -9.1842    1.8467 H   0  0  0  0  0  0  0  0  0  0  0  0
    2.9113   -1.1496    4.9284 H   0  0  0  0  0  0  0  0  0  0  0  0
   -0.2012   -2.5804    3.7550 H   0  0  0  0  0  0  0  0  0  0  0  0
    0.3505   -1.0707    3.0502 H   0  0  0  0  0  0  0  0  0  0  0  0
    0.4659   -1.3345    4.8044 H   0  0  0  0  0  0  0  0  0  0  0  0
  1  2  1  0
  1 47  1  0
  1 48  1  0
  1 49  1  0
  2  3  1  0
  3 40  1  0
  3  4  1  0
  3 50  1  1
  4 28  1  0
  4  5  1  0
  4 51  1  1
  5  7  1  0
  5  6  1  0
  5 52  1  6
  7  6  1  1
  7 44  1  0
  7  8  1  0
  8 13  1  0
  8  9  1  0
  8 53  1  6
  9 10  1  0
 10 11  1  6
 10 12  1  0
 10 44  1  0
 12 13  1  0
 13 14  1  0
 13 54  1  6
 14 20  1  0
 14 15  1  6
 14 16  1  0
 15 55  1  0
 16 17  1  0
 16 18  1  0
 16 56  1  1
 17 57  1  0
 18 19  1  0
 19 20  1  0
 19 58  1  0
 19 59  1  0
 20 21  1  6
 20 22  1  0
 21 60  1  0
 22 28  1  0
 22 23  1  1
 22 24  1  0
 23 61  1  0
 24 25  1  0
 25 43  1  0
 25 26  1  0
 25 62  1  6
 26 27  1  0
 28 27  1  6
 27 63  1  0
 27 64  1  0
 28 29  1  0
 29 38  1  0
 29 30  1  6
 29 31  1  0
 30 65  1  0
 30 66  1  0
 30 67  1  0
 31 42  1  0
 31 32  2  0
 32 33  1  0
 32 68  1  0
 33 34  1  0
 33 35  1  0
 33 69  1  6
 34 70  1  0
 35 37  1  1
 35 36  1  0
 35 38  1  0
 36 37  1  0
 36 71  1  0
 36 72  1  0
 38 39  1  0
 38 73  1  1
 39 40  1  0
 40 41  1  1
 40 43  1  0
 41 42  1  0
 41 74  1  0
 41 75  1  0
 42 76  1  0
 42 77  1  0
 44 45  1  0
 44 78  1  1
 45 46  1  0
 46 79  1  0
 46 80  1  0
 46 81  1  0
M  CHG  1  11  -1
M  END
>  <i_m_ct_stereo_status>  (25) 
1

>  <s_m_source_file>  (25) 
/var/tmp/pbs.5076253.sched01/tmpeppn20qa/07bjoayft.sdf

>  <i_m_source_file_index>  (25) 
32

>  <i_lp_mmshare_version>  (25) 
48012

>  <i_f3d_flags>  (25) 
0

>  <s_epik_input>  (25) 
W0NIM11bQ0BAXTEyQyhbQ0gyXVtDSDJdMyk9W0NIXVtDQEBIXShbT0hdKVtDQF00KFtDSDJdTzQpW0NASF0yT0MzKFtDQEBIXTVPW0NIM10pT1tDQEBIXShPW0NIMl02KU9bQ0BdKFtPSF0pKEMxNltDQEBIXTVbQ0BIXShPNylbQ0BAXTc4OSlbQ0BdMShbT0hdKVtDQEBdKFtPSF0pKFtDQEBIXShbT0hdKU9bQ0gyXTEpW0NAQEhdMVtDQEhdOE9bQ0BdKE8xKShbT0hdKVtDQEhdOU9bQ0gzXQ==

>  <s_epik_cmdline>  (25) 
J2VwaWtfcHl0aG9uJywgJy1waHQnLCAnMi4wJywgJy1waCcsICc3LjAnLCAnLXRuJywgJzgnLCAnLW1hJywgJzIwMCcsICctaW1hZScsICc8aW5maWxlLm1hZT4nLCAnLW9tYWUnLCAnPG91dGZpbGUubWFlPic=

>  <r_epik_Ionization_Penalty>  (25) 
2.13237

>  <r_epik_Ionization_Penalty_Charging>  (25) 
2.13212

>  <r_epik_Ionization_Penalty_Neutral>  (25) 
0.000245851

>  <r_epik_State_Penalty>  (25) 
2.27058

>  <r_epik_Charging_Adjusted_Penalty>  (25) 
4.4027

>  <i_epik_Tot_Q>  (25) 
-1

>  <i_epik_Tot_abs_Q>  (25) 
1

>  <s_epik_Chemistry_Notes>  (25) 
This compound contains an acetal/aminal-like group ( X-CH(R)-Y where X, Y are N, S, or O) that may be acid/base labile, releasing an aldehyde.

>  <s_lp_Force_Field>  (25) 
OPLS3e

>  <r_lp_Energy>  (25) 
515.228

>  <b_lp_Chiralities_Consistent>  (25) 
1

>  <s_lp_Variant>  (25) 
22:0-4

>  <s_i_glide_gridfile>  (25) 
pfpi4k_grid

>  <i_i_glide_lignum>  (25) 
32

>  <i_i_glide_rotatable_bonds>  (25) 
7

>  <r_i_docking_score>  (25) 
-2.6519

>  <r_i_glide_ligand_efficiency>  (25) 
-0.0576501

>  <r_i_glide_ligand_efficiency_sa>  (25) 
-0.206563

>  <r_i_glide_ligand_efficiency_ln>  (25) 
-0.549203

>  <r_i_glide_gscore>  (25) 
-2.6519

>  <r_i_glide_lipo>  (25) 
-0.424991

>  <r_i_glide_hbond>  (25) 
0

>  <r_i_glide_metal>  (25) 
-0

>  <r_i_glide_rewards>  (25) 
-0.596657

>  <r_i_glide_evdw>  (25) 
-31.0097

>  <r_i_glide_ecoul>  (25) 
-0.2393

>  <r_i_glide_erotb>  (25) 
0

>  <r_i_glide_esite>  (25) 
-0.0438764

>  <r_i_glide_emodel>  (25) 
-42.6275

>  <r_i_glide_energy>  (25) 
-31.249

>  <r_i_glide_einternal>  (25) 
0.655666

>  <r_i_glide_intrahb_reward>  (25) 
-0.5

>  <i_i_glide_confnum>  (25) 
2

>  <i_i_glide_posenum>  (25) 
35

>  <r_i_glide_eff_state_penalty>  (25) 
0

>  <ligand_id>  (25) 
22

>  <original_smiles>  (25) 
COC1C2C3OC34C3OC(O)(OC3C3(O)C(O)OCC3(O)C3(O)OC5OCC23C2(C)C3=CC(O)C6(CO6)C2OC1(CC3)O5)C4OC

>  <smiles>  (25) 
[H]OC1([H])OC([H])([H])C2(O[H])C3(O[H])OC4([H])OC([H])([H])C35C([H])(C([H])(OC([H])([H])[H])C3(O4)OC4([H])C6(OC6([H])[H])C([H])(O[H])C([H])=C(C([H])([H])C3([H])[H])C45C([H])([H])[H])C3([H])OC34C([H])(OC([H])([H])[H])C3([O-])OC4([H])C([H])(O3)C12O[H]

$$$$
22:3:2
     RDKit          3D

 81 91  0  0  1  0  0  0  0  0999 V2000
    3.9698   -4.9634    7.2151 C   0  0  0  0  0  0  0  0  0  0  0  0
    3.7213   -5.9451    6.1988 O   0  0  0  0  0  0  0  0  0  0  0  0
    4.5564   -5.8613    5.0378 C   0  0  2  0  0  0  0  0  0  0  0  0
    4.0186   -4.8972    3.9035 C   0  0  1  0  0  0  0  0  0  0  0  0
    4.7918   -3.5214    4.2418 C   0  0  2  0  0  0  0  0  0  0  0  0
    4.5991   -2.6210    5.3195 O   0  0  0  0  0  0  0  0  0  0  0  0
    4.2477   -2.1216    4.0181 C   0  0  1  0  0  0  0  0  0  0  0  0
    5.0801   -1.1820    3.1429 C   0  0  2  0  0  0  0  0  0  0  0  0
    4.4874    0.0498    3.4890 O   0  0  0  0  0  0  0  0  0  0  0  0
    3.2126   -0.3170    3.1079 C   0  0  1  0  0  0  0  0  0  0  0  0
    2.3615    0.7159    3.2705 O   0  0  0  0  0  0  0  0  0  0  0  0
    3.2828   -0.7968    1.8038 O   0  0  0  0  0  0  0  0  0  0  0  0
    4.6764   -1.0768    1.6326 C   0  0  2  0  0  0  0  0  0  0  0  0
    5.1167   -2.0641    0.4365 C   0  0  2  0  0  0  0  0  0  0  0  0
    6.5356   -2.0888    0.5663 O   0  0  0  0  0  0  0  0  0  0  0  0
    4.6808   -1.3737   -0.8759 C   0  0  1  0  0  0  0  0  0  0  0  0
    5.5916   -1.6412   -1.9156 O   0  0  0  0  0  0  0  0  0  0  0  0
    3.4306   -1.8927   -1.1750 O   0  0  0  0  0  0  0  0  0  0  0  0
    3.2957   -3.2425   -0.7526 C   0  0  0  0  0  0  0  0  0  0  0  0
    4.5219   -3.5333    0.1392 C   0  0  1  0  0  0  0  0  0  0  0  0
    5.4085   -4.2180   -0.7426 O   0  0  0  0  0  0  0  0  0  0  0  0
    4.2083   -4.2646    1.5082 C   0  0  2  0  0  0  0  0  0  0  0  0
    3.1742   -3.4573    1.9744 O   0  0  0  0  0  0  0  0  0  0  0  0
    5.5438   -4.3622    2.1159 O   0  0  0  0  0  0  0  0  0  0  0  0
    6.1340   -5.7254    2.3335 C   0  0  2  0  0  0  0  0  0  0  0  0
    6.0375   -6.2323    1.0971 O   0  0  0  0  0  0  0  0  0  0  0  0
    4.6394   -6.3998    1.0607 C   0  0  0  0  0  0  0  0  0  0  0  0
    3.7440   -5.5726    2.1727 C   0  0  1  0  0  0  0  0  0  0  0  0
    2.5084   -6.6269    2.0146 C   0  0  1  0  0  0  0  0  0  0  0  0
    1.5756   -6.2024    0.8462 C   0  0  0  0  0  0  0  0  0  0  0  0
    2.7336   -8.2533    2.0997 C   0  0  0  0  0  0  0  0  0  0  0  0
    1.6326   -9.0422    2.0824 C   0  0  0  0  0  0  0  0  0  0  0  0
    0.2872   -8.4641    2.4261 C   0  0  1  0  0  0  0  0  0  0  0  0
   -0.5806   -9.4755    2.9024 O   0  0  0  0  0  0  0  0  0  0  0  0
    0.4844   -7.3323    3.4522 C   0  0  1  0  0  0  0  0  0  0  0  0
   -0.7380   -6.6499    4.0323 C   0  0  0  0  0  0  0  0  0  0  0  0
    0.0159   -7.5962    4.7865 O   0  0  0  0  0  0  0  0  0  0  0  0
    1.8201   -6.5328    3.3384 C   0  0  1  0  0  0  0  0  0  0  0  0
    2.9006   -7.0713    4.1581 O   0  0  0  0  0  0  0  0  0  0  0  0
    4.3934   -6.9966    4.1608 C   0  0  2  0  0  0  0  0  0  0  0  0
    4.4638   -8.5038    4.2766 C   0  0  0  0  0  0  0  0  0  0  0  0
    3.9659   -8.9879    2.8215 C   0  0  0  0  0  0  0  0  0  0  0  0
    5.5780   -6.8628    3.2120 O   0  0  0  0  0  0  0  0  0  0  0  0
    2.8737   -1.4503    4.0854 C   0  0  1  0  0  0  0  0  0  0  0  0
    1.7112   -2.2077    3.7333 O   0  0  0  0  0  0  0  0  0  0  0  0
    1.1446   -3.0215    4.7639 C   0  0  0  0  0  0  0  0  0  0  0  0
    3.3202   -5.0980    8.0790 H   0  0  0  0  0  0  0  0  0  0  0  0
    3.7127   -3.9574    6.9125 H   0  0  0  0  0  0  0  0  0  0  0  0
    5.0115   -4.9759    7.5501 H   0  0  0  0  0  0  0  0  0  0  0  0
    5.6119   -5.7528    5.3042 H   0  0  0  0  0  0  0  0  0  0  0  0
    3.0489   -4.6233    4.2182 H   0  0  0  0  0  0  0  0  0  0  0  0
    5.8750   -3.6412    4.2168 H   0  0  0  0  0  0  0  0  0  0  0  0
    6.1482   -1.2210    3.3506 H   0  0  0  0  0  0  0  0  0  0  0  0
    5.1327   -0.1231    1.3512 H   0  0  0  0  0  0  0  0  0  0  0  0
    6.8195   -1.2327    0.8433 H   0  0  0  0  0  0  0  0  0  0  0  0
    4.5937   -0.2868   -0.8034 H   0  0  0  0  0  0  0  0  0  0  0  0
    5.6769   -2.5875   -1.9479 H   0  0  0  0  0  0  0  0  0  0  0  0
    2.3307   -3.3278   -0.2627 H   0  0  0  0  0  0  0  0  0  0  0  0
    3.2438   -3.9063   -1.6112 H   0  0  0  0  0  0  0  0  0  0  0  0
    5.0128   -5.0417   -0.9854 H   0  0  0  0  0  0  0  0  0  0  0  0
    3.3409   -2.5425    1.7481 H   0  0  0  0  0  0  0  0  0  0  0  0
    7.1806   -5.5930    2.6008 H   0  0  0  0  0  0  0  0  0  0  0  0
    4.2529   -6.1970    0.0661 H   0  0  0  0  0  0  0  0  0  0  0  0
    4.6002   -7.4643    1.0073 H   0  0  0  0  0  0  0  0  0  0  0  0
    0.7056   -5.6804    1.2245 H   0  0  0  0  0  0  0  0  0  0  0  0
    1.1911   -7.0530    0.2919 H   0  0  0  0  0  0  0  0  0  0  0  0
    2.0689   -5.5668    0.1164 H   0  0  0  0  0  0  0  0  0  0  0  0
    1.7017  -10.1048    2.2392 H   0  0  0  0  0  0  0  0  0  0  0  0
   -0.2021   -8.0727    1.5390 H   0  0  0  0  0  0  0  0  0  0  0  0
   -0.2986   -9.7630    3.7574 H   0  0  0  0  0  0  0  0  0  0  0  0
   -0.6570   -5.6441    4.4355 H   0  0  0  0  0  0  0  0  0  0  0  0
   -1.7281   -6.9767    3.7154 H   0  0  0  0  0  0  0  0  0  0  0  0
    1.4936   -5.5281    3.5573 H   0  0  0  0  0  0  0  0  0  0  0  0
    5.4799   -8.8352    4.5011 H   0  0  0  0  0  0  0  0  0  0  0  0
    3.8003   -8.8602    5.0699 H   0  0  0  0  0  0  0  0  0  0  0  0
    3.7065  -10.0358    2.9384 H   0  0  0  0  0  0  0  0  0  0  0  0
    4.8242   -9.0532    2.1644 H   0  0  0  0  0  0  0  0  0  0  0  0
    2.7262   -1.0224    5.0652 H   0  0  0  0  0  0  0  0  0  0  0  0
    0.4669   -3.7170    4.2664 H   0  0  0  0  0  0  0  0  0  0  0  0
    0.5809   -2.4572    5.4914 H   0  0  0  0  0  0  0  0  0  0  0  0
    1.8464   -3.5868    5.3624 H   0  0  0  0  0  0  0  0  0  0  0  0
  1  2  1  0
  1 47  1  0
  1 48  1  0
  1 49  1  0
  2  3  1  0
  3 40  1  0
  3  4  1  0
  3 50  1  1
  4 28  1  0
  4  5  1  0
  4 51  1  1
  5  7  1  0
  5  6  1  0
  5 52  1  6
  7  6  1  1
  7 44  1  0
  7  8  1  0
  8 13  1  0
  8  9  1  0
  8 53  1  6
  9 10  1  0
 10 11  1  6
 10 12  1  0
 10 44  1  0
 12 13  1  0
 13 14  1  0
 13 54  1  6
 14 20  1  0
 14 15  1  6
 14 16  1  0
 15 55  1  0
 16 17  1  0
 16 18  1  0
 16 56  1  1
 17 57  1  0
 18 19  1  0
 19 20  1  0
 19 58  1  0
 19 59  1  0
 20 21  1  6
 20 22  1  0
 21 60  1  0
 22 28  1  0
 22 23  1  1
 22 24  1  0
 23 61  1  0
 24 25  1  0
 25 43  1  0
 25 26  1  0
 25 62  1  1
 26 27  1  0
 28 27  1  6
 27 63  1  0
 27 64  1  0
 28 29  1  0
 29 38  1  0
 29 30  1  6
 29 31  1  0
 30 65  1  0
 30 66  1  0
 30 67  1  0
 31 42  1  0
 31 32  2  0
 32 33  1  0
 32 68  1  0
 33 34  1  0
 33 35  1  0
 33 69  1  6
 34 70  1  0
 35 37  1  1
 35 36  1  0
 35 38  1  0
 36 37  1  0
 36 71  1  0
 36 72  1  0
 38 39  1  0
 38 73  1  1
 39 40  1  0
 40 41  1  1
 40 43  1  0
 41 42  1  0
 41 74  1  0
 41 75  1  0
 42 76  1  0
 42 77  1  0
 44 45  1  0
 44 78  1  1
 45 46  1  0
 46 79  1  0
 46 80  1  0
 46 81  1  0
M  CHG  1  11  -1
M  END
>  <i_m_ct_stereo_status>  (26) 
1

>  <s_m_source_file>  (26) 
/var/tmp/pbs.5076253.sched01/tmpeppn20qa/07bjoayft.sdf

>  <i_m_source_file_index>  (26) 
32

>  <i_lp_mmshare_version>  (26) 
48012

>  <i_f3d_flags>  (26) 
0

>  <s_epik_input>  (26) 
W0NIM11bQ0BAXTEyQyhbQ0gyXVtDSDJdMyk9W0NIXVtDQEBIXShbT0hdKVtDQF00KFtDSDJdTzQpW0NASF0yT0MzKFtDQEBIXTVPW0NIM10pT1tDQEBIXShPW0NIMl02KU9bQ0BdKFtPSF0pKEMxNltDQEBIXTVbQ0BIXShPNylbQ0BAXTc4OSlbQ0BdMShbT0hdKVtDQEBdKFtPSF0pKFtDQEBIXShbT0hdKU9bQ0gyXTEpW0NAQEhdMVtDQEhdOE9bQ0BdKE8xKShbT0hdKVtDQEhdOU9bQ0gzXQ==

>  <s_epik_cmdline>  (26) 
J2VwaWtfcHl0aG9uJywgJy1waHQnLCAnMi4wJywgJy1waCcsICc3LjAnLCAnLXRuJywgJzgnLCAnLW1hJywgJzIwMCcsICctaW1hZScsICc8aW5maWxlLm1hZT4nLCAnLW9tYWUnLCAnPG91dGZpbGUubWFlPic=

>  <r_epik_Ionization_Penalty>  (26) 
2.13237

>  <r_epik_Ionization_Penalty_Charging>  (26) 
2.13212

>  <r_epik_Ionization_Penalty_Neutral>  (26) 
0.000245851

>  <r_epik_State_Penalty>  (26) 
2.27058

>  <r_epik_Charging_Adjusted_Penalty>  (26) 
4.4027

>  <i_epik_Tot_Q>  (26) 
-1

>  <i_epik_Tot_abs_Q>  (26) 
1

>  <s_epik_Chemistry_Notes>  (26) 
This compound contains an acetal/aminal-like group ( X-CH(R)-Y where X, Y are N, S, or O) that may be acid/base labile, releasing an aldehyde.

>  <s_lp_Force_Field>  (26) 
OPLS3e

>  <r_lp_Energy>  (26) 
515.228

>  <b_lp_Chiralities_Consistent>  (26) 
1

>  <s_lp_Variant>  (26) 
22:0-4

>  <s_i_glide_gridfile>  (26) 
pfpi4k_grid

>  <i_i_glide_lignum>  (26) 
32

>  <i_i_glide_rotatable_bonds>  (26) 
7

>  <r_i_docking_score>  (26) 
-2.53264

>  <r_i_glide_ligand_efficiency>  (26) 
-0.0550574

>  <r_i_glide_ligand_efficiency_sa>  (26) 
-0.197273

>  <r_i_glide_ligand_efficiency_ln>  (26) 
-0.524503

>  <r_i_glide_gscore>  (26) 
-2.53264

>  <r_i_glide_lipo>  (26) 
-0.45291

>  <r_i_glide_hbond>  (26) 
0

>  <r_i_glide_metal>  (26) 
-0

>  <r_i_glide_rewards>  (26) 
-0.562697

>  <r_i_glide_evdw>  (26) 
-31.0434

>  <r_i_glide_ecoul>  (26) 
0.504535

>  <r_i_glide_erotb>  (26) 
0

>  <r_i_glide_esite>  (26) 
-0.0405425

>  <r_i_glide_emodel>  (26) 
-39.7429

>  <r_i_glide_energy>  (26) 
-30.5389

>  <r_i_glide_einternal>  (26) 
0.865634

>  <r_i_glide_intrahb_reward>  (26) 
-0.5

>  <i_i_glide_confnum>  (26) 
1

>  <i_i_glide_posenum>  (26) 
34

>  <r_i_glide_eff_state_penalty>  (26) 
0

>  <ligand_id>  (26) 
22

>  <original_smiles>  (26) 
COC1C2C3OC34C3OC(O)(OC3C3(O)C(O)OCC3(O)C3(O)OC5OCC23C2(C)C3=CC(O)C6(CO6)C2OC1(CC3)O5)C4OC

>  <smiles>  (26) 
[H]OC1([H])OC([H])([H])C2(O[H])C3(O[H])OC4([H])OC([H])([H])C35C([H])(C([H])(OC([H])([H])[H])C3(O4)OC4([H])C6(OC6([H])[H])C([H])(O[H])C([H])=C(C([H])([H])C3([H])[H])C45C([H])([H])[H])C3([H])OC34C([H])(OC([H])([H])[H])C3([O-])OC4([H])C([H])(O3)C12O[H]

$$$$
25:0:0
     RDKit          3D

 78 86  0  0  1  0  0  0  0  0999 V2000
    2.9168   -6.1227   11.3446 C   0  0  0  0  0  0  0  0  0  0  0  0
    2.1610   -6.5700   10.2256 O   0  0  0  0  0  0  0  0  0  0  0  0
    1.9094   -5.5938    9.2152 C   0  0  2  0  0  0  0  0  0  0  0  0
    0.8221   -4.6456    9.7673 C   0  0  0  0  0  0  0  0  0  0  0  0
    0.1417   -3.7511    8.7241 C   0  0  2  0  0  0  0  0  0  0  0  0
   -0.8424   -4.5881    7.9011 C   0  0  0  0  0  0  0  0  0  0  0  0
   -0.1956   -5.0902    6.7431 O   0  0  0  0  0  0  0  0  0  0  0  0
    1.2085   -5.2398    6.7688 C   0  0  2  0  0  0  0  0  0  0  0  0
    1.8539   -4.0093    7.0163 O   0  0  0  0  0  0  0  0  0  0  0  0
    1.1365   -3.0287    7.7765 C   0  0  0  0  0  0  0  0  0  0  0  0
    0.4041   -2.0826    6.7974 C   0  0  0  0  0  0  0  0  0  0  0  0
    2.1850   -2.1986    8.5406 C   0  0  0  0  0  0  0  0  0  0  0  0
    1.5561   -5.6113    5.3140 C   0  0  2  0  0  0  0  0  0  0  0  0
    0.8016   -6.7087    4.9018 O   0  0  0  0  0  0  0  0  0  0  0  0
    0.4526   -6.7672    3.5273 C   0  0  1  0  0  0  0  0  0  0  0  0
   -0.9624   -6.8338    3.3244 O   0  0  0  0  0  0  0  0  0  0  0  0
   -1.5136   -8.0509    3.8325 C   0  0  0  0  0  0  0  0  0  0  0  0
    1.1353   -5.8469    2.4887 C   0  0  2  0  0  0  0  0  0  0  0  0
    0.5938   -6.2762    1.2225 O   0  0  0  0  0  0  0  0  0  0  0  0
    0.6646   -7.7028    1.2982 C   0  0  0  0  0  0  0  0  0  0  0  0
    1.2896   -7.7185    2.6714 C   0  0  2  0  0  0  0  0  0  0  0  0
    1.4192   -9.0100    3.2664 O   0  0  0  0  0  0  0  0  0  0  0  0
    2.6295   -9.4613    3.8855 C   0  0  0  0  0  0  0  0  0  0  0  0
    2.8185   -9.1823    5.3911 C   0  0  2  0  0  0  0  0  0  0  0  0
    1.4958   -9.2897    6.2401 C   0  0  0  0  0  0  0  0  0  0  0  0
    1.5046   -8.8040    7.7329 C   0  0  1  0  0  0  0  0  0  0  0  0
    1.1217   -9.8683    8.6120 O   0  0  0  0  0  0  0  0  0  0  0  0
    2.8828   -8.3047    7.9968 C   0  0  0  0  0  0  0  0  0  0  0  0
    2.9345   -7.0532    7.5404 C   0  0  0  0  0  0  0  0  0  0  0  0
    3.6617   -6.8791    6.2040 C   0  0  1  0  0  0  0  0  0  0  0  0
    5.1025   -6.4486    6.5407 C   0  0  0  0  0  0  0  0  0  0  0  0
    3.8583   -8.1901    5.6196 O   0  0  0  0  0  0  0  0  0  0  0  0
    3.0441   -5.9229    5.0917 C   0  0  2  0  0  0  0  0  0  0  0  0
    3.7398   -4.6959    4.9817 O   0  0  0  0  0  0  0  0  0  0  0  0
    3.2147   -6.6461    3.8902 O   0  0  0  0  0  0  0  0  0  0  0  0
    2.4339   -6.6753    2.6760 C   0  0  2  0  0  0  0  0  0  0  0  0
    3.4761   -6.6553    1.5332 C   0  0  0  0  0  0  0  0  0  0  0  0
    3.9918   -7.9338    1.2222 O   0  0  0  0  0  0  0  0  0  0  0  0
    1.6404   -6.3068    7.8419 C   0  0  1  0  0  0  0  0  0  0  0  0
    0.6479   -7.5154    7.9259 C   0  0  0  0  0  0  0  0  0  0  0  0
    3.1325   -6.9674   11.9961 H   0  0  0  0  0  0  0  0  0  0  0  0
    2.3669   -5.3964   11.9415 H   0  0  0  0  0  0  0  0  0  0  0  0
    3.8686   -5.6825   11.0480 H   0  0  0  0  0  0  0  0  0  0  0  0
    2.8256   -5.0175    9.0746 H   0  0  0  0  0  0  0  0  0  0  0  0
    0.0689   -5.2133   10.3107 H   0  0  0  0  0  0  0  0  0  0  0  0
    1.2766   -4.0058   10.5236 H   0  0  0  0  0  0  0  0  0  0  0  0
   -0.4288   -3.0116    9.2824 H   0  0  0  0  0  0  0  0  0  0  0  0
   -1.2577   -5.4135    8.4822 H   0  0  0  0  0  0  0  0  0  0  0  0
   -1.6992   -3.9858    7.5883 H   0  0  0  0  0  0  0  0  0  0  0  0
   -0.1851   -1.3375    7.3323 H   0  0  0  0  0  0  0  0  0  0  0  0
   -0.2677   -2.6162    6.1285 H   0  0  0  0  0  0  0  0  0  0  0  0
    1.1095   -1.5409    6.1661 H   0  0  0  0  0  0  0  0  0  0  0  0
    1.7183   -1.4643    9.1970 H   0  0  0  0  0  0  0  0  0  0  0  0
    2.8361   -1.6622    7.8510 H   0  0  0  0  0  0  0  0  0  0  0  0
    2.8330   -2.8214    9.1533 H   0  0  0  0  0  0  0  0  0  0  0  0
    1.2801   -4.7264    4.7416 H   0  0  0  0  0  0  0  0  0  0  0  0
   -2.5879   -8.1086    3.6685 H   0  0  0  0  0  0  0  0  0  0  0  0
   -1.3349   -8.1211    4.9032 H   0  0  0  0  0  0  0  0  0  0  0  0
   -1.0783   -8.9364    3.3696 H   0  0  0  0  0  0  0  0  0  0  0  0
    1.1850   -4.7769    2.6643 H   0  0  0  0  0  0  0  0  0  0  0  0
   -0.3322   -8.1473    1.2507 H   0  0  0  0  0  0  0  0  0  0  0  0
    1.3006   -8.1587    0.5415 H   0  0  0  0  0  0  0  0  0  0  0  0
    2.5598  -10.5408    3.7770 H   0  0  0  0  0  0  0  0  0  0  0  0
    3.5363   -9.2065    3.3477 H   0  0  0  0  0  0  0  0  0  0  0  0
    3.3838  -10.0578    5.7185 H   0  0  0  0  0  0  0  0  0  0  0  0
    0.6749   -8.8315    5.7056 H   0  0  0  0  0  0  0  0  0  0  0  0
    1.2136  -10.3359    6.2193 H   0  0  0  0  0  0  0  0  0  0  0  0
    1.3006  -10.7197    8.2195 H   0  0  0  0  0  0  0  0  0  0  0  0
    3.6529   -9.0420    7.7783 H   0  0  0  0  0  0  0  0  0  0  0  0
    5.1218   -5.4888    7.0591 H   0  0  0  0  0  0  0  0  0  0  0  0
    5.7290   -6.3869    5.6517 H   0  0  0  0  0  0  0  0  0  0  0  0
    5.5595   -7.1733    7.2128 H   0  0  0  0  0  0  0  0  0  0  0  0
    3.6068   -4.2091    5.7875 H   0  0  0  0  0  0  0  0  0  0  0  0
    3.0459   -6.2977    0.5949 H   0  0  0  0  0  0  0  0  0  0  0  0
    4.2966   -5.9767    1.7722 H   0  0  0  0  0  0  0  0  0  0  0  0
    3.2939   -8.5733    1.2716 H   0  0  0  0  0  0  0  0  0  0  0  0
   -0.1733   -7.4656    7.2067 H   0  0  0  0  0  0  0  0  0  0  0  0
    0.1792   -7.5305    8.9075 H   0  0  0  0  0  0  0  0  0  0  0  0
  1  2  1  0
  1 41  1  0
  1 42  1  0
  1 43  1  0
  2  3  1  0
  3 39  1  0
  3  4  1  0
  3 44  1  6
  4  5  1  0
  4 45  1  0
  4 46  1  0
  5 10  1  0
  5  6  1  0
  5 47  1  1
  6  7  1  0
  6 48  1  0
  6 49  1  0
  8  7  1  6
  8 39  1  0
  8  9  1  0
  8 13  1  0
  9 10  1  0
 10 11  1  0
 10 12  1  0
 11 50  1  0
 11 51  1  0
 11 52  1  0
 12 53  1  0
 12 54  1  0
 12 55  1  0
 13 33  1  0
 13 14  1  0
 13 56  1  6
 14 15  1  0
 15 21  1  0
 15 16  1  1
 15 18  1  0
 16 17  1  0
 17 57  1  0
 17 58  1  0
 17 59  1  0
 18 36  1  0
 18 19  1  0
 18 60  1  1
 19 20  1  0
 20 21  1  0
 20 61  1  0
 20 62  1  0
 21 36  1  0
 21 22  1  1
 22 23  1  0
 23 24  1  0
 23 63  1  0
 23 64  1  0
 24 32  1  0
 24 25  1  0
 24 65  1  1
 25 26  1  0
 25 66  1  0
 25 67  1  0
 26 40  1  0
 26 27  1  1
 26 28  1  0
 27 68  1  0
 28 29  2  0
 28 69  1  0
 29 30  1  0
 29 39  1  0
 30 31  1  1
 30 32  1  0
 30 33  1  0
 31 70  1  0
 31 71  1  0
 31 72  1  0
 33 34  1  6
 33 35  1  0
 34 73  1  0
 35 36  1  0
 36 37  1  6
 37 38  1  0
 37 74  1  0
 37 75  1  0
 38 76  1  0
 39 40  1  1
 40 77  1  0
 40 78  1  0
M  END
>  <i_m_ct_stereo_status>  (27) 
1

>  <s_m_source_file>  (27) 
/var/tmp/pbs.5076253.sched01/tmpeppn20qa/07bjoayft.sdf

>  <i_m_source_file_index>  (27) 
34

>  <i_lp_mmshare_version>  (27) 
48012

>  <i_f3d_flags>  (27) 
1

>  <s_epik_input>  (27) 
TzFbQ0gyXVtDQEhdKEMoTzIpKFtDSDNdKVtDSDNdKVtDSDJdW0NAQEhdKE9bQ0gzXSlbQ0BAXTMoW0NAQF0xMjQpQzVbQ0BdNihbQ0gzXSlbQ0BdNyhbT0hdKVtDQEhdNE9bQ0BdOChPW0NIM10pW0NAQF05KFtDQEBdKE83KShbQ0gyXVtPSF0pW0NASF04T1tDSDJdOSlPW0NIMl1bQ0BASF0oTzYpW0NIMl1bQ0BAXShbT0hdKShbQ0hdPTUpW0NIMl0z

>  <s_epik_cmdline>  (27) 
J2VwaWtfcHl0aG9uJywgJy1waHQnLCAnMi4wJywgJy1waCcsICc3LjAnLCAnLXRuJywgJzgnLCAnLW1hJywgJzIwMCcsICctaW1hZScsICc8aW5maWxlLm1hZT4nLCAnLW9tYWUnLCAnPG91dGZpbGUubWFlPic=

>  <r_epik_Ionization_Penalty>  (27) 
0.00128589

>  <r_epik_Ionization_Penalty_Charging>  (27) 
0

>  <r_epik_Ionization_Penalty_Neutral>  (27) 
0.00128589

>  <r_epik_State_Penalty>  (27) 
0.000851472

>  <r_epik_Charging_Adjusted_Penalty>  (27) 
0.000851472

>  <i_epik_Tot_Q>  (27) 
0

>  <i_epik_Tot_abs_Q>  (27) 
0

>  <s_lp_Force_Field>  (27) 
OPLS3e

>  <r_lp_Energy>  (27) 
162.904

>  <b_lp_Chiralities_Consistent>  (27) 
1

>  <s_lp_Variant>  (27) 
25:0-1

>  <s_i_glide_gridfile>  (27) 
pfpi4k_grid

>  <i_i_glide_lignum>  (27) 
34

>  <i_i_glide_rotatable_bonds>  (27) 
6

>  <r_i_docking_score>  (27) 
-3.40193

>  <r_i_glide_ligand_efficiency>  (27) 
-0.0850482

>  <r_i_glide_ligand_efficiency_sa>  (27) 
-0.290861

>  <r_i_glide_ligand_efficiency_ln>  (27) 
-0.725531

>  <r_i_glide_gscore>  (27) 
-3.40193

>  <r_i_glide_lipo>  (27) 
-0.0543186

>  <r_i_glide_hbond>  (27) 
-0.4715

>  <r_i_glide_metal>  (27) 
-0

>  <r_i_glide_rewards>  (27) 
-0.5

>  <r_i_glide_evdw>  (27) 
-18.8545

>  <r_i_glide_ecoul>  (27) 
-9.71951

>  <r_i_glide_erotb>  (27) 
0.0648683

>  <r_i_glide_esite>  (27) 
-0.0403293

>  <r_i_glide_emodel>  (27) 
-38.0119

>  <r_i_glide_energy>  (27) 
-28.574

>  <r_i_glide_einternal>  (27) 
3.93673

>  <r_i_glide_intrahb_reward>  (27) 
-0.5

>  <i_i_glide_confnum>  (27) 
4

>  <i_i_glide_posenum>  (27) 
2

>  <r_i_glide_eff_state_penalty>  (27) 
0

>  <ligand_id>  (27) 
25

>  <original_smiles>  (27) 
COC1CC2COC3(OC2(C)C)C2OC4(OC)C5OCC46OCC4CC7(O)C=C(C(C)(O4)C2(O)OC56CO)C13C7

>  <smiles>  (27) 
[H]OC([H])([H])C12OC3(O[H])C4([H])OC5(OC([H])([H])[H])C1([H])OC([H])([H])C52OC([H])([H])C1([H])OC3(C([H])([H])[H])C2=C([H])C(O[H])(C1([H])[H])C([H])([H])C21C([H])(OC([H])([H])[H])C([H])([H])C2([H])C([H])([H])OC41OC2(C([H])([H])[H])C([H])([H])[H]

$$$$
25:0:1
     RDKit          3D

 78 86  0  0  1  0  0  0  0  0999 V2000
    2.9794   -6.3176   11.2848 C   0  0  0  0  0  0  0  0  0  0  0  0
    2.2119   -6.6971   10.1499 O   0  0  0  0  0  0  0  0  0  0  0  0
    2.0647   -5.7001    9.1379 C   0  0  2  0  0  0  0  0  0  0  0  0
    1.0834   -4.6409    9.6841 C   0  0  0  0  0  0  0  0  0  0  0  0
    0.4988   -3.6799    8.6402 C   0  0  2  0  0  0  0  0  0  0  0  0
   -0.5679   -4.4108    7.8226 C   0  0  0  0  0  0  0  0  0  0  0  0
    0.0238   -4.9904    6.6656 O   0  0  0  0  0  0  0  0  0  0  0  0
    1.4051   -5.2806    6.6898 C   0  0  2  0  0  0  0  0  0  0  0  0
    2.1717   -4.1247    6.9384 O   0  0  0  0  0  0  0  0  0  0  0  0
    1.5630   -3.0693    7.6941 C   0  0  0  0  0  0  0  0  0  0  0  0
    0.9404   -2.0554    6.7081 C   0  0  0  0  0  0  0  0  0  0  0  0
    2.7004   -2.3579    8.4505 C   0  0  0  0  0  0  0  0  0  0  0  0
    1.7181   -5.6872    5.2402 C   0  0  2  0  0  0  0  0  0  0  0  0
    0.8427   -6.7044    4.8324 O   0  0  0  0  0  0  0  0  0  0  0  0
    0.4895   -6.7358    3.4582 C   0  0  1  0  0  0  0  0  0  0  0  0
   -0.9245   -6.6703    3.2542 O   0  0  0  0  0  0  0  0  0  0  0  0
   -1.6013   -7.7931    3.7857 C   0  0  0  0  0  0  0  0  0  0  0  0
    1.2596   -5.8972    2.4164 C   0  0  2  0  0  0  0  0  0  0  0  0
    0.6559   -6.2675    1.1601 O   0  0  0  0  0  0  0  0  0  0  0  0
    0.5901   -7.6961    1.2410 C   0  0  0  0  0  0  0  0  0  0  0  0
    1.2181   -7.7759    2.6058 C   0  0  2  0  0  0  0  0  0  0  0  0
    1.2067   -9.0698    3.2040 O   0  0  0  0  0  0  0  0  0  0  0  0
    2.3559   -9.6473    3.8233 C   0  0  0  0  0  0  0  0  0  0  0  0
    2.5744   -9.3842    5.3321 C   0  0  2  0  0  0  0  0  0  0  0  0
    1.2512   -9.3395    6.1835 C   0  0  0  0  0  0  0  0  0  0  0  0
    1.3237   -8.8439    7.6534 C   0  0  1  0  0  0  0  0  0  0  0  0
    0.8258   -9.8478    8.5225 O   0  0  0  0  0  0  0  0  0  0  0  0
    2.7414   -8.5135    7.9251 C   0  0  0  0  0  0  0  0  0  0  0  0
    2.9273   -7.2683    7.4704 C   0  0  0  0  0  0  0  0  0  0  0  0
    3.6678   -7.1755    6.1234 C   0  0  1  0  0  0  0  0  0  0  0  0
    5.1425   -6.9017    6.4582 C   0  0  0  0  0  0  0  0  0  0  0  0
    3.7233   -8.5052    5.5435 O   0  0  0  0  0  0  0  0  0  0  0  0
    3.1575   -6.1640    5.0079 C   0  0  2  0  0  0  0  0  0  0  0  0
    4.0025   -5.0370    4.8770 O   0  0  0  0  0  0  0  0  0  0  0  0
    3.2412   -6.9172    3.8174 O   0  0  0  0  0  0  0  0  0  0  0  0
    2.4639   -6.8618    2.6004 C   0  0  2  0  0  0  0  0  0  0  0  0
    3.5017   -6.9422    1.4535 C   0  0  0  0  0  0  0  0  0  0  0  0
    3.9486   -8.2627    1.1883 O   0  0  0  0  0  0  0  0  0  0  0  0
    1.7264   -6.3886    7.7665 C   0  0  1  0  0  0  0  0  0  0  0  0
    0.6149   -7.4798    7.8539 C   0  0  0  0  0  0  0  0  0  0  0  0
    3.1087   -7.1817   11.9366 H   0  0  0  0  0  0  0  0  0  0  0  0
    2.4816   -5.5516   11.8746 H   0  0  0  0  0  0  0  0  0  0  0  0
    3.9717   -5.9590   11.0075 H   0  0  0  0  0  0  0  0  0  0  0  0
    3.0411   -5.2251    8.9951 H   0  0  0  0  0  0  0  0  0  0  0  0
    0.2735   -5.1242   10.2281 H   0  0  0  0  0  0  0  0  0  0  0  0
    1.6030   -4.0479   10.4376 H   0  0  0  0  0  0  0  0  0  0  0  0
    0.0127   -2.8798    9.1926 H   0  0  0  0  0  0  0  0  0  0  0  0
   -1.0679   -5.1844    8.4048 H   0  0  0  0  0  0  0  0  0  0  0  0
   -1.3512   -3.7237    7.5010 H   0  0  0  0  0  0  0  0  0  0  0  0
    0.4293   -1.2522    7.2380 H   0  0  0  0  0  0  0  0  0  0  0  0
    0.2173   -2.5209    6.0389 H   0  0  0  0  0  0  0  0  0  0  0  0
    1.7014   -1.5986    6.0759 H   0  0  0  0  0  0  0  0  0  0  0  0
    2.3184   -1.5733    9.1031 H   0  0  0  0  0  0  0  0  0  0  0  0
    3.4044   -1.9007    7.7542 H   0  0  0  0  0  0  0  0  0  0  0  0
    3.2787   -3.0459    9.0618 H   0  0  0  0  0  0  0  0  0  0  0  0
    1.5316   -4.7826    4.6619 H   0  0  0  0  0  0  0  0  0  0  0  0
   -2.6789   -7.7322    3.6233 H   0  0  0  0  0  0  0  0  0  0  0  0
   -1.4313   -7.8546    4.8583 H   0  0  0  0  0  0  0  0  0  0  0  0
   -1.2707   -8.7336    3.3394 H   0  0  0  0  0  0  0  0  0  0  0  0
    1.4218   -4.8372    2.5895 H   0  0  0  0  0  0  0  0  0  0  0  0
   -0.4447   -8.0379    1.1946 H   0  0  0  0  0  0  0  0  0  0  0  0
    1.1798   -8.2004    0.4827 H   0  0  0  0  0  0  0  0  0  0  0  0
    2.1668  -10.7170    3.7208 H   0  0  0  0  0  0  0  0  0  0  0  0
    3.2917   -9.4997    3.2859 H   0  0  0  0  0  0  0  0  0  0  0  0
    3.0466  -10.3128    5.6549 H   0  0  0  0  0  0  0  0  0  0  0  0
    0.4847   -8.8036    5.6359 H   0  0  0  0  0  0  0  0  0  0  0  0
    0.8601  -10.3543    6.1573 H   0  0  0  0  0  0  0  0  0  0  0  0
    1.0104  -10.7140    8.1882 H   0  0  0  0  0  0  0  0  0  0  0  0
    3.4253   -9.3245    7.6972 H   0  0  0  0  0  0  0  0  0  0  0  0
    5.2637   -5.9478    6.9749 H   0  0  0  0  0  0  0  0  0  0  0  0
    5.7791   -6.9224    5.5717 H   0  0  0  0  0  0  0  0  0  0  0  0
    5.5192   -7.6709    7.1386 H   0  0  0  0  0  0  0  0  0  0  0  0
    4.8828   -5.3596    4.7763 H   0  0  0  0  0  0  0  0  0  0  0  0
    3.0921   -6.6008    0.5061 H   0  0  0  0  0  0  0  0  0  0  0  0
    4.3597   -6.3048    1.6667 H   0  0  0  0  0  0  0  0  0  0  0  0
    3.2224   -8.8655    1.2707 H   0  0  0  0  0  0  0  0  0  0  0  0
   -0.1743   -7.3328    7.1203 H   0  0  0  0  0  0  0  0  0  0  0  0
    0.1344   -7.4399    8.8304 H   0  0  0  0  0  0  0  0  0  0  0  0
  1  2  1  0
  1 41  1  0
  1 42  1  0
  1 43  1  0
  2  3  1  0
  3 39  1  0
  3  4  1  0
  3 44  1  6
  4  5  1  0
  4 45  1  0
  4 46  1  0
  5 10  1  0
  5  6  1  0
  5 47  1  1
  6  7  1  0
  6 48  1  0
  6 49  1  0
  8  7  1  6
  8 39  1  0
  8  9  1  0
  8 13  1  0
  9 10  1  0
 10 11  1  0
 10 12  1  0
 11 50  1  0
 11 51  1  0
 11 52  1  0
 12 53  1  0
 12 54  1  0
 12 55  1  0
 13 33  1  0
 13 14  1  0
 13 56  1  6
 14 15  1  0
 15 21  1  0
 15 16  1  1
 15 18  1  0
 16 17  1  0
 17 57  1  0
 17 58  1  0
 17 59  1  0
 18 36  1  0
 18 19  1  0
 18 60  1  1
 19 20  1  0
 20 21  1  0
 20 61  1  0
 20 62  1  0
 21 36  1  0
 21 22  1  1
 22 23  1  0
 23 24  1  0
 23 63  1  0
 23 64  1  0
 24 32  1  0
 24 25  1  0
 24 65  1  1
 25 26  1  0
 25 66  1  0
 25 67  1  0
 26 40  1  0
 26 27  1  1
 26 28  1  0
 27 68  1  0
 28 29  2  0
 28 69  1  0
 29 30  1  0
 29 39  1  0
 30 31  1  1
 30 32  1  0
 30 33  1  0
 31 70  1  0
 31 71  1  0
 31 72  1  0
 33 34  1  6
 33 35  1  0
 34 73  1  0
 35 36  1  0
 36 37  1  6
 37 38  1  0
 37 74  1  0
 37 75  1  0
 38 76  1  0
 39 40  1  1
 40 77  1  0
 40 78  1  0
M  END
>  <i_m_ct_stereo_status>  (28) 
1

>  <s_m_source_file>  (28) 
/var/tmp/pbs.5076253.sched01/tmpeppn20qa/07bjoayft.sdf

>  <i_m_source_file_index>  (28) 
34

>  <i_lp_mmshare_version>  (28) 
48012

>  <i_f3d_flags>  (28) 
1

>  <s_epik_input>  (28) 
TzFbQ0gyXVtDQEhdKEMoTzIpKFtDSDNdKVtDSDNdKVtDSDJdW0NAQEhdKE9bQ0gzXSlbQ0BAXTMoW0NAQF0xMjQpQzVbQ0BdNihbQ0gzXSlbQ0BdNyhbT0hdKVtDQEhdNE9bQ0BdOChPW0NIM10pW0NAQF05KFtDQEBdKE83KShbQ0gyXVtPSF0pW0NASF04T1tDSDJdOSlPW0NIMl1bQ0BASF0oTzYpW0NIMl1bQ0BAXShbT0hdKShbQ0hdPTUpW0NIMl0z

>  <s_epik_cmdline>  (28) 
J2VwaWtfcHl0aG9uJywgJy1waHQnLCAnMi4wJywgJy1waCcsICc3LjAnLCAnLXRuJywgJzgnLCAnLW1hJywgJzIwMCcsICctaW1hZScsICc8aW5maWxlLm1hZT4nLCAnLW9tYWUnLCAnPG91dGZpbGUubWFlPic=

>  <r_epik_Ionization_Penalty>  (28) 
0.00128589

>  <r_epik_Ionization_Penalty_Charging>  (28) 
0

>  <r_epik_Ionization_Penalty_Neutral>  (28) 
0.00128589

>  <r_epik_State_Penalty>  (28) 
0.000851472

>  <r_epik_Charging_Adjusted_Penalty>  (28) 
0.000851472

>  <i_epik_Tot_Q>  (28) 
0

>  <i_epik_Tot_abs_Q>  (28) 
0

>  <s_lp_Force_Field>  (28) 
OPLS3e

>  <r_lp_Energy>  (28) 
162.904

>  <b_lp_Chiralities_Consistent>  (28) 
1

>  <s_lp_Variant>  (28) 
25:0-1

>  <s_i_glide_gridfile>  (28) 
pfpi4k_grid

>  <i_i_glide_lignum>  (28) 
34

>  <i_i_glide_rotatable_bonds>  (28) 
6

>  <r_i_docking_score>  (28) 
-2.98629

>  <r_i_glide_ligand_efficiency>  (28) 
-0.0746573

>  <r_i_glide_ligand_efficiency_sa>  (28) 
-0.255324

>  <r_i_glide_ligand_efficiency_ln>  (28) 
-0.636888

>  <r_i_glide_gscore>  (28) 
-2.98629

>  <r_i_glide_lipo>  (28) 
-0.0650455

>  <r_i_glide_hbond>  (28) 
-0.47183

>  <r_i_glide_metal>  (28) 
-0

>  <r_i_glide_rewards>  (28) 
0

>  <r_i_glide_evdw>  (28) 
-18.1231

>  <r_i_glide_ecoul>  (28) 
-10.4462

>  <r_i_glide_erotb>  (28) 
0.0648683

>  <r_i_glide_esite>  (28) 
-0.0411942

>  <r_i_glide_emodel>  (28) 
-32.8575

>  <r_i_glide_energy>  (28) 
-28.5693

>  <r_i_glide_einternal>  (28) 
2.31684

>  <r_i_glide_intrahb_reward>  (28) 
-0

>  <i_i_glide_confnum>  (28) 
4

>  <i_i_glide_posenum>  (28) 
12

>  <r_i_glide_eff_state_penalty>  (28) 
0

>  <ligand_id>  (28) 
25

>  <original_smiles>  (28) 
COC1CC2COC3(OC2(C)C)C2OC4(OC)C5OCC46OCC4CC7(O)C=C(C(C)(O4)C2(O)OC56CO)C13C7

>  <smiles>  (28) 
[H]OC([H])([H])C12OC3(O[H])C4([H])OC5(OC([H])([H])[H])C1([H])OC([H])([H])C52OC([H])([H])C1([H])OC3(C([H])([H])[H])C2=C([H])C(O[H])(C1([H])[H])C([H])([H])C21C([H])(OC([H])([H])[H])C([H])([H])C2([H])C([H])([H])OC41OC2(C([H])([H])[H])C([H])([H])[H]

$$$$
25:0:2
     RDKit          3D

 78 86  0  0  1  0  0  0  0  0999 V2000
    4.1441  -12.9531    5.3834 C   0  0  0  0  0  0  0  0  0  0  0  0
    4.2298  -11.8976    4.4356 O   0  0  0  0  0  0  0  0  0  0  0  0
    3.3058  -10.8209    4.6167 C   0  0  2  0  0  0  0  0  0  0  0  0
    1.8714  -11.3733    4.4041 C   0  0  0  0  0  0  0  0  0  0  0  0
    0.7748  -10.3202    4.2125 C   0  0  2  0  0  0  0  0  0  0  0  0
    0.8838   -9.7598    2.7978 C   0  0  0  0  0  0  0  0  0  0  0  0
    1.7136   -8.6102    2.8058 O   0  0  0  0  0  0  0  0  0  0  0  0
    2.6741   -8.4648    3.8185 C   0  0  2  0  0  0  0  0  0  0  0  0
    2.0753   -8.4496    5.0985 O   0  0  0  0  0  0  0  0  0  0  0  0
    0.8326   -9.1549    5.2395 C   0  0  0  0  0  0  0  0  0  0  0  0
   -0.3338   -8.1608    5.0253 C   0  0  0  0  0  0  0  0  0  0  0  0
    0.7740   -9.6419    6.6966 C   0  0  0  0  0  0  0  0  0  0  0  0
    3.2333   -7.0452    3.5836 C   0  0  2  0  0  0  0  0  0  0  0  0
    3.6773   -6.8826    2.2708 O   0  0  0  0  0  0  0  0  0  0  0  0
    3.4947   -5.5902    1.7081 C   0  0  1  0  0  0  0  0  0  0  0  0
    2.7435   -5.6167    0.4929 O   0  0  0  0  0  0  0  0  0  0  0  0
    1.4419   -6.1723    0.6010 C   0  0  0  0  0  0  0  0  0  0  0  0
    3.2043   -4.3434    2.5674 C   0  0  2  0  0  0  0  0  0  0  0  0
    3.2952   -3.2478    1.6300 O   0  0  0  0  0  0  0  0  0  0  0  0
    4.4620   -3.5240    0.8517 C   0  0  0  0  0  0  0  0  0  0  0  0
    4.7934   -4.7756    1.6304 C   0  0  2  0  0  0  0  0  0  0  0  0
    5.8656   -5.5493    1.0872 O   0  0  0  0  0  0  0  0  0  0  0  0
    6.9514   -5.9949    1.9073 C   0  0  0  0  0  0  0  0  0  0  0  0
    6.8165   -7.4188    2.5037 C   0  0  2  0  0  0  0  0  0  0  0  0
    6.0871   -8.4721    1.5611 C   0  0  0  0  0  0  0  0  0  0  0  0
    5.6404   -9.8561    2.1418 C   0  0  1  0  0  0  0  0  0  0  0  0
    6.2147  -10.9300    1.3984 O   0  0  0  0  0  0  0  0  0  0  0  0
    6.0950   -9.8580    3.5561 C   0  0  0  0  0  0  0  0  0  0  0  0
    5.1323   -9.2194    4.2478 C   0  0  0  0  0  0  0  0  0  0  0  0
    5.4813   -7.7948    4.6728 C   0  0  1  0  0  0  0  0  0  0  0  0
    5.9859   -7.8671    6.1221 C   0  0  0  0  0  0  0  0  0  0  0  0
    6.6551   -7.3656    3.9501 O   0  0  0  0  0  0  0  0  0  0  0  0
    4.3674   -6.6606    4.5287 C   0  0  2  0  0  0  0  0  0  0  0  0
    3.8095   -6.2825    5.7789 O   0  0  0  0  0  0  0  0  0  0  0  0
    5.0696   -5.5608    3.9969 O   0  0  0  0  0  0  0  0  0  0  0  0
    4.6274   -4.4747    3.1555 C   0  0  2  0  0  0  0  0  0  0  0  0
    5.2894   -3.2282    3.7791 C   0  0  0  0  0  0  0  0  0  0  0  0
    4.3709   -2.3994    4.4578 O   0  0  0  0  0  0  0  0  0  0  0  0
    3.7575   -9.6028    3.7359 C   0  0  1  0  0  0  0  0  0  0  0  0
    4.0996   -9.9782    2.2570 C   0  0  0  0  0  0  0  0  0  0  0  0
    4.9437  -13.6699    5.2104 H   0  0  0  0  0  0  0  0  0  0  0  0
    3.2132  -13.5032    5.2676 H   0  0  0  0  0  0  0  0  0  0  0  0
    4.2074  -12.5965    6.4117 H   0  0  0  0  0  0  0  0  0  0  0  0
    3.3945  -10.5014    5.6520 H   0  0  0  0  0  0  0  0  0  0  0  0
    1.8608  -12.0750    3.5676 H   0  0  0  0  0  0  0  0  0  0  0  0
    1.5970  -11.9652    5.2721 H   0  0  0  0  0  0  0  0  0  0  0  0
   -0.1775  -10.8371    4.2942 H   0  0  0  0  0  0  0  0  0  0  0  0
    1.2703  -10.5039    2.0969 H   0  0  0  0  0  0  0  0  0  0  0  0
   -0.1022   -9.4888    2.4154 H   0  0  0  0  0  0  0  0  0  0  0  0
   -1.2977   -8.6701    5.0927 H   0  0  0  0  0  0  0  0  0  0  0  0
   -0.2931   -7.6789    4.0533 H   0  0  0  0  0  0  0  0  0  0  0  0
   -0.3240   -7.3700    5.7754 H   0  0  0  0  0  0  0  0  0  0  0  0
   -0.1116  -10.2534    6.8738 H   0  0  0  0  0  0  0  0  0  0  0  0
    0.7546   -8.8034    7.3920 H   0  0  0  0  0  0  0  0  0  0  0  0
    1.6433  -10.2451    6.9490 H   0  0  0  0  0  0  0  0  0  0  0  0
    2.3785   -6.4031    3.7610 H   0  0  0  0  0  0  0  0  0  0  0  0
    0.9835   -6.2191   -0.3847 H   0  0  0  0  0  0  0  0  0  0  0  0
    0.8041   -5.6000    1.2795 H   0  0  0  0  0  0  0  0  0  0  0  0
    1.5105   -7.1911    0.9548 H   0  0  0  0  0  0  0  0  0  0  0  0
    2.3642   -4.3518    3.2566 H   0  0  0  0  0  0  0  0  0  0  0  0
    4.2128   -3.6946   -0.1994 H   0  0  0  0  0  0  0  0  0  0  0  0
    5.2265   -2.7436    0.9033 H   0  0  0  0  0  0  0  0  0  0  0  0
    7.7812   -6.0333    1.2124 H   0  0  0  0  0  0  0  0  0  0  0  0
    7.2573   -5.2577    2.6491 H   0  0  0  0  0  0  0  0  0  0  0  0
    7.8519   -7.7745    2.4879 H   0  0  0  0  0  0  0  0  0  0  0  0
    5.2611   -7.9998    1.0410 H   0  0  0  0  0  0  0  0  0  0  0  0
    6.7901   -8.6718    0.7609 H   0  0  0  0  0  0  0  0  0  0  0  0
    5.4807  -11.3924    0.9767 H   0  0  0  0  0  0  0  0  0  0  0  0
    7.1405   -9.6222    3.6755 H   0  0  0  0  0  0  0  0  0  0  0  0
    5.2086   -8.2398    6.7920 H   0  0  0  0  0  0  0  0  0  0  0  0
    6.3310   -6.8955    6.4752 H   0  0  0  0  0  0  0  0  0  0  0  0
    6.8194   -8.5631    6.1849 H   0  0  0  0  0  0  0  0  0  0  0  0
    3.3395   -7.0325    6.1233 H   0  0  0  0  0  0  0  0  0  0  0  0
    6.0381   -3.5177    4.5149 H   0  0  0  0  0  0  0  0  0  0  0  0
    5.8149   -2.6325    3.0314 H   0  0  0  0  0  0  0  0  0  0  0  0
    3.9155   -2.9214    5.0969 H   0  0  0  0  0  0  0  0  0  0  0  0
    3.5769   -9.3960    1.4930 H   0  0  0  0  0  0  0  0  0  0  0  0
    3.7833  -10.9971    2.0810 H   0  0  0  0  0  0  0  0  0  0  0  0
  1  2  1  0
  1 41  1  0
  1 42  1  0
  1 43  1  0
  2  3  1  0
  3 39  1  0
  3  4  1  0
  3 44  1  1
  4  5  1  0
  4 45  1  0
  4 46  1  0
  5 10  1  0
  5  6  1  0
  5 47  1  6
  6  7  1  0
  6 48  1  0
  6 49  1  0
  8  7  1  6
  8 39  1  0
  8  9  1  0
  8 13  1  0
  9 10  1  0
 10 11  1  0
 10 12  1  0
 11 50  1  0
 11 51  1  0
 11 52  1  0
 12 53  1  0
 12 54  1  0
 12 55  1  0
 13 33  1  0
 13 14  1  0
 13 56  1  1
 14 15  1  0
 15 21  1  0
 15 16  1  6
 15 18  1  0
 16 17  1  0
 17 57  1  0
 17 58  1  0
 17 59  1  0
 18 36  1  0
 18 19  1  0
 18 60  1  1
 19 20  1  0
 20 21  1  0
 20 61  1  0
 20 62  1  0
 21 36  1  0
 21 22  1  1
 22 23  1  0
 23 24  1  0
 23 63  1  0
 23 64  1  0
 24 32  1  0
 24 25  1  0
 24 65  1  1
 25 26  1  0
 25 66  1  0
 25 67  1  0
 26 40  1  0
 26 27  1  6
 26 28  1  0
 27 68  1  0
 28 29  2  0
 28 69  1  0
 29 30  1  0
 29 39  1  0
 30 31  1  1
 30 32  1  0
 30 33  1  0
 31 70  1  0
 31 71  1  0
 31 72  1  0
 33 34  1  1
 33 35  1  0
 34 73  1  0
 35 36  1  0
 36 37  1  1
 37 38  1  0
 37 74  1  0
 37 75  1  0
 38 76  1  0
 39 40  1  6
 40 77  1  0
 40 78  1  0
M  END
>  <i_m_ct_stereo_status>  (29) 
1

>  <s_m_source_file>  (29) 
/var/tmp/pbs.5076253.sched01/tmpeppn20qa/07bjoayft.sdf

>  <i_m_source_file_index>  (29) 
34

>  <i_lp_mmshare_version>  (29) 
48012

>  <i_f3d_flags>  (29) 
1

>  <s_epik_input>  (29) 
TzFbQ0gyXVtDQEhdKEMoTzIpKFtDSDNdKVtDSDNdKVtDSDJdW0NAQEhdKE9bQ0gzXSlbQ0BAXTMoW0NAQF0xMjQpQzVbQ0BdNihbQ0gzXSlbQ0BdNyhbT0hdKVtDQEhdNE9bQ0BdOChPW0NIM10pW0NAQF05KFtDQEBdKE83KShbQ0gyXVtPSF0pW0NASF04T1tDSDJdOSlPW0NIMl1bQ0BASF0oTzYpW0NIMl1bQ0BAXShbT0hdKShbQ0hdPTUpW0NIMl0z

>  <s_epik_cmdline>  (29) 
J2VwaWtfcHl0aG9uJywgJy1waHQnLCAnMi4wJywgJy1waCcsICc3LjAnLCAnLXRuJywgJzgnLCAnLW1hJywgJzIwMCcsICctaW1hZScsICc8aW5maWxlLm1hZT4nLCAnLW9tYWUnLCAnPG91dGZpbGUubWFlPic=

>  <r_epik_Ionization_Penalty>  (29) 
0.00128589

>  <r_epik_Ionization_Penalty_Charging>  (29) 
0

>  <r_epik_Ionization_Penalty_Neutral>  (29) 
0.00128589

>  <r_epik_State_Penalty>  (29) 
0.000851472

>  <r_epik_Charging_Adjusted_Penalty>  (29) 
0.000851472

>  <i_epik_Tot_Q>  (29) 
0

>  <i_epik_Tot_abs_Q>  (29) 
0

>  <s_lp_Force_Field>  (29) 
OPLS3e

>  <r_lp_Energy>  (29) 
162.904

>  <b_lp_Chiralities_Consistent>  (29) 
1

>  <s_lp_Variant>  (29) 
25:0-1

>  <s_i_glide_gridfile>  (29) 
pfpi4k_grid

>  <i_i_glide_lignum>  (29) 
34

>  <i_i_glide_rotatable_bonds>  (29) 
6

>  <r_i_docking_score>  (29) 
-2.89314

>  <r_i_glide_ligand_efficiency>  (29) 
-0.0723285

>  <r_i_glide_ligand_efficiency_sa>  (29) 
-0.24736

>  <r_i_glide_ligand_efficiency_ln>  (29) 
-0.617021

>  <r_i_glide_gscore>  (29) 
-2.89314

>  <r_i_glide_lipo>  (29) 
-0.351051

>  <r_i_glide_hbond>  (29) 
-0.16

>  <r_i_glide_metal>  (29) 
-0

>  <r_i_glide_rewards>  (29) 
-0.520536

>  <r_i_glide_evdw>  (29) 
-24

>  <r_i_glide_ecoul>  (29) 
-4.8211

>  <r_i_glide_erotb>  (29) 
0.0648683

>  <r_i_glide_esite>  (29) 
-0.00325447

>  <r_i_glide_emodel>  (29) 
-37.1447

>  <r_i_glide_energy>  (29) 
-28.8211

>  <r_i_glide_einternal>  (29) 
4.3204

>  <r_i_glide_intrahb_reward>  (29) 
-0.5

>  <i_i_glide_confnum>  (29) 
4

>  <i_i_glide_posenum>  (29) 
35

>  <r_i_glide_eff_state_penalty>  (29) 
0

>  <ligand_id>  (29) 
25

>  <original_smiles>  (29) 
COC1CC2COC3(OC2(C)C)C2OC4(OC)C5OCC46OCC4CC7(O)C=C(C(C)(O4)C2(O)OC56CO)C13C7

>  <smiles>  (29) 
[H]OC([H])([H])C12OC3(O[H])C4([H])OC5(OC([H])([H])[H])C1([H])OC([H])([H])C52OC([H])([H])C1([H])OC3(C([H])([H])[H])C2=C([H])C(O[H])(C1([H])[H])C([H])([H])C21C([H])(OC([H])([H])[H])C([H])([H])C2([H])C([H])([H])OC41OC2(C([H])([H])[H])C([H])([H])[H]

$$$$
26:0:0
     RDKit          3D

 47 53  0  0  1  0  0  0  0  0999 V2000
    1.1035   -4.0750    3.9439 C   0  0  0  0  0  0  0  0  0  0  0  0
    2.5317   -3.5696    4.1791 C   0  0  0  0  0  0  0  0  0  0  0  0
    2.7897   -3.4429    5.6995 C   0  0  0  0  0  0  0  0  0  0  0  0
    3.4924   -4.4890    3.7175 O   0  0  0  0  0  0  0  0  0  0  0  0
    3.3034   -5.3612    2.5934 C   0  0  0  0  0  0  0  0  0  0  0  0
    3.4887   -4.8160    1.1089 C   0  0  2  0  0  0  0  0  0  0  0  0
    2.3976   -5.4108    0.3997 O   0  0  0  0  0  0  0  0  0  0  0  0
    4.8361   -5.2485    0.5809 O   0  0  0  0  0  0  0  0  0  0  0  0
    5.8832   -4.2783   -0.0609 C   0  0  2  0  0  0  0  0  0  0  0  0
    4.8652   -4.1916   -1.1521 C   0  0  0  0  0  0  0  0  0  0  0  0
    3.7002   -3.6473   -0.8044 C   0  0  0  0  0  0  0  0  0  0  0  0
    3.1547   -2.7479   -1.9076 C   0  0  0  0  0  0  0  0  0  0  0  0
    4.1813   -1.7609   -2.1255 O   0  0  0  0  0  0  0  0  0  0  0  0
    4.9206   -1.4761   -0.9163 C   0  0  1  0  0  0  0  0  0  0  0  0
    3.8074   -1.0963    0.1478 C   0  0  0  0  0  0  0  0  0  0  0  0
    3.0376   -2.0100    0.8180 C   0  0  0  0  0  0  0  0  0  0  0  0
    3.6626   -3.3461    0.7796 C   0  0  1  0  0  0  0  0  0  0  0  0
    4.9699   -3.1436    1.7641 C   0  0  1  0  0  0  0  0  0  0  0  0
    6.1226   -3.5078    1.0780 O   0  0  0  0  0  0  0  0  0  0  0  0
    5.1670   -2.0917    2.9018 C   0  0  1  0  0  0  0  0  0  0  0  0
    5.4819   -0.6127    2.7467 C   0  0  0  0  0  0  0  0  0  0  0  0
    4.2515   -0.2551    3.5666 C   0  0  1  0  0  0  0  0  0  0  0  0
    4.0756   -0.8115    4.8742 O   0  0  0  0  0  0  0  0  0  0  0  0
    3.9598   -1.7458    3.7837 C   0  0  2  0  0  0  0  0  0  0  0  0
    2.6798   -2.3125    3.5660 O   0  0  0  0  0  0  0  0  0  0  0  0
    6.0783   -2.6346   -0.6893 C   0  0  0  0  0  0  0  0  0  0  0  0
    7.2124   -2.3134   -1.0280 O   0  0  0  0  0  0  0  0  0  0  0  0
    0.8946   -4.1276    2.8788 H   0  0  0  0  0  0  0  0  0  0  0  0
    0.3714   -3.4127    4.4129 H   0  0  0  0  0  0  0  0  0  0  0  0
    0.9902   -5.0664    4.3800 H   0  0  0  0  0  0  0  0  0  0  0  0
    3.8291   -3.1905    5.9047 H   0  0  0  0  0  0  0  0  0  0  0  0
    2.6196   -4.4119    6.1713 H   0  0  0  0  0  0  0  0  0  0  0  0
    2.1407   -2.6981    6.1693 H   0  0  0  0  0  0  0  0  0  0  0  0
    4.0838   -6.1109    2.7327 H   0  0  0  0  0  0  0  0  0  0  0  0
    2.3727   -5.9074    2.6946 H   0  0  0  0  0  0  0  0  0  0  0  0
    2.6350   -5.3958   -0.5277 H   0  0  0  0  0  0  0  0  0  0  0  0
    5.1720   -4.3151   -2.1830 H   0  0  0  0  0  0  0  0  0  0  0  0
    3.0161   -3.3115   -2.8342 H   0  0  0  0  0  0  0  0  0  0  0  0
    2.2157   -2.2834   -1.6603 H   0  0  0  0  0  0  0  0  0  0  0  0
    5.4817   -0.5646   -1.1043 H   0  0  0  0  0  0  0  0  0  0  0  0
    3.5233   -0.0634    0.1534 H   0  0  0  0  0  0  0  0  0  0  0  0
    2.1633   -1.7847    1.4062 H   0  0  0  0  0  0  0  0  0  0  0  0
    5.2018   -3.9948    2.3956 H   0  0  0  0  0  0  0  0  0  0  0  0
    5.9457   -2.4649    3.5472 H   0  0  0  0  0  0  0  0  0  0  0  0
    6.4318   -0.3691    3.2226 H   0  0  0  0  0  0  0  0  0  0  0  0
    5.5321   -0.2013    1.7477 H   0  0  0  0  0  0  0  0  0  0  0  0
    3.4857    0.3994    3.1286 H   0  0  0  0  0  0  0  0  0  0  0  0
  1  2  1  0
  1 28  1  0
  1 29  1  0
  1 30  1  0
  2 25  1  0
  2  3  1  0
  2  4  1  0
  3 31  1  0
  3 32  1  0
  3 33  1  0
  4  5  1  0
  5  6  1  0
  5 34  1  0
  5 35  1  0
  6 17  1  0
  6  7  1  6
  6  8  1  0
  7 36  1  0
  8  9  1  0
  9 19  1  0
  9 26  1  1
  9 10  1  0
 10 11  2  0
 10 37  1  0
 11 17  1  0
 11 12  1  0
 12 13  1  0
 12 38  1  0
 12 39  1  0
 13 14  1  0
 14 15  1  0
 14 26  1  0
 14 40  1  6
 15 16  2  0
 15 41  1  0
 17 16  1  6
 16 42  1  0
 17 18  1  0
 18 19  1  0
 18 20  1  0
 18 43  1  1
 20 24  1  0
 20 21  1  0
 20 44  1  1
 21 22  1  0
 21 45  1  0
 21 46  1  0
 22 24  1  0
 22 23  1  0
 22 47  1  6
 24 23  1  1
 24 25  1  0
 26 27  2  0
M  END
>  <i_m_ct_stereo_status>  (30) 
1

>  <s_m_source_file>  (30) 
/var/tmp/pbs.5076253.sched01/tmpeppn20qa/07bjoayft.sdf

>  <i_m_source_file_index>  (30) 
35

>  <i_lp_mmshare_version>  (30) 
48012

>  <i_f3d_flags>  (30) 
0

>  <s_epik_input>  (30) 
W0NIMl0xT0MoW0NIM10pKFtDSDNdKU9bQ0BdMihbQ0BASF0oTzIpW0NIMl0zKVtDQEhdM1tDQEhdKE80KVtDQF01KFtDQEBdMShbT0hdKU9DNDY3KUMoPVtDSF02KVtDSDJdT1tDQEhdKEM3PU8pW0NIXT1bQ0hdNQ==

>  <s_epik_cmdline>  (30) 
J2VwaWtfcHl0aG9uJywgJy1waHQnLCAnMi4wJywgJy1waCcsICc3LjAnLCAnLXRuJywgJzgnLCAnLW1hJywgJzIwMCcsICctaW1hZScsICc8aW5maWxlLm1hZT4nLCAnLW9tYWUnLCAnPG91dGZpbGUubWFlPic=

>  <r_epik_Ionization_Penalty>  (30) 
0.00111386

>  <r_epik_Ionization_Penalty_Charging>  (30) 
0

>  <r_epik_Ionization_Penalty_Neutral>  (30) 
0.00111386

>  <r_epik_State_Penalty>  (30) 
0.000731223

>  <r_epik_Charging_Adjusted_Penalty>  (30) 
0.000731223

>  <i_epik_Tot_Q>  (30) 
0

>  <i_epik_Tot_abs_Q>  (30) 
0

>  <s_lp_Force_Field>  (30) 
OPLS3e

>  <r_lp_Energy>  (30) 
410.291

>  <b_lp_Chiralities_Consistent>  (30) 
1

>  <s_lp_Variant>  (30) 
26:0-1

>  <s_i_glide_gridfile>  (30) 
pfpi4k_grid

>  <i_i_glide_lignum>  (30) 
35

>  <i_i_glide_rotatable_bonds>  (30) 
1

>  <r_i_docking_score>  (30) 
-3.451

>  <r_i_glide_ligand_efficiency>  (30) 
-0.127815

>  <r_i_glide_ligand_efficiency_sa>  (30) 
-0.383445

>  <r_i_glide_ligand_efficiency_ln>  (30) 
-0.803337

>  <r_i_glide_gscore>  (30) 
-3.451

>  <r_i_glide_lipo>  (30) 
-0.245471

>  <r_i_glide_hbond>  (30) 
-0.16

>  <r_i_glide_metal>  (30) 
-0

>  <r_i_glide_rewards>  (30) 
-0.923968

>  <r_i_glide_evdw>  (30) 
-24.6018

>  <r_i_glide_ecoul>  (30) 
-5.87058

>  <r_i_glide_erotb>  (30) 
0

>  <r_i_glide_esite>  (30) 
-0.0108854

>  <r_i_glide_emodel>  (30) 
-35.5174

>  <r_i_glide_energy>  (30) 
-30.4724

>  <r_i_glide_einternal>  (30) 
0.277704

>  <r_i_glide_intrahb_reward>  (30) 
-0

>  <i_i_glide_confnum>  (30) 
2

>  <i_i_glide_posenum>  (30) 
1

>  <r_i_glide_eff_state_penalty>  (30) 
0

>  <ligand_id>  (30) 
26

>  <original_smiles>  (30) 
CC1(C)OCC2(O)OC34C=C5COC(C=CC52C(O3)C2CC3OC32O1)C4=O

>  <smiles>  (30) 
[H]OC12OC34OC([H])(C15C([H])=C([H])C([H])(OC([H])([H])C5=C3[H])C4=O)C1([H])C([H])([H])C3([H])OC31OC(C([H])([H])[H])(C([H])([H])[H])OC2([H])[H]

$$$$
26:0:1
     RDKit          3D

 47 53  0  0  1  0  0  0  0  0999 V2000
    3.5005   -2.4334   -2.1124 C   0  0  0  0  0  0  0  0  0  0  0  0
    4.6499   -2.9507   -1.2421 C   0  0  0  0  0  0  0  0  0  0  0  0
    5.7737   -3.4774   -2.1497 C   0  0  0  0  0  0  0  0  0  0  0  0
    5.2614   -1.9353   -0.4921 O   0  0  0  0  0  0  0  0  0  0  0  0
    4.5730   -0.7860    0.0024 C   0  0  0  0  0  0  0  0  0  0  0  0
    3.6835   -0.8823    1.3182 C   0  0  2  0  0  0  0  0  0  0  0  0
    2.5425   -0.0976    0.9922 O   0  0  0  0  0  0  0  0  0  0  0  0
    4.4471   -0.3013    2.4776 O   0  0  0  0  0  0  0  0  0  0  0  0
    4.6388   -1.0138    3.8487 C   0  0  2  0  0  0  0  0  0  0  0  0
    3.1664   -0.8084    3.9962 C   0  0  0  0  0  0  0  0  0  0  0  0
    2.4060   -1.4587    3.0983 C   0  0  0  0  0  0  0  0  0  0  0  0
    1.1523   -2.0235    3.7346 C   0  0  0  0  0  0  0  0  0  0  0  0
    1.6143   -2.8880    4.7888 O   0  0  0  0  0  0  0  0  0  0  0  0
    2.8966   -3.4880    4.4744 C   0  0  1  0  0  0  0  0  0  0  0  0
    2.6471   -4.1804    3.0677 C   0  0  0  0  0  0  0  0  0  0  0  0
    2.6500   -3.5086    1.8750 C   0  0  0  0  0  0  0  0  0  0  0  0
    3.3346   -2.2009    2.0080 C   0  0  1  0  0  0  0  0  0  0  0  0
    4.9099   -2.6496    2.1979 C   0  0  1  0  0  0  0  0  0  0  0  0
    5.4088   -2.0715    3.3612 O   0  0  0  0  0  0  0  0  0  0  0  0
    5.6037   -3.9667    1.7452 C   0  0  1  0  0  0  0  0  0  0  0  0
    5.4812   -5.3400    2.4063 C   0  0  0  0  0  0  0  0  0  0  0  0
    4.9903   -5.9269    1.0994 C   0  0  2  0  0  0  0  0  0  0  0  0
    5.7725   -5.7753   -0.0774 O   0  0  0  0  0  0  0  0  0  0  0  0
    5.1606   -4.5741    0.3968 C   0  0  2  0  0  0  0  0  0  0  0  0
    4.1710   -3.9903   -0.4071 O   0  0  0  0  0  0  0  0  0  0  0  0
    4.1289   -2.4153    4.7992 C   0  0  0  0  0  0  0  0  0  0  0  0
    4.7396   -2.5951    5.8329 O   0  0  0  0  0  0  0  0  0  0  0  0
    2.6681   -2.0921   -1.4984 H   0  0  0  0  0  0  0  0  0  0  0  0
    3.1324   -3.2201   -2.7767 H   0  0  0  0  0  0  0  0  0  0  0  0
    3.8502   -1.6078   -2.7321 H   0  0  0  0  0  0  0  0  0  0  0  0
    6.6398   -3.7745   -1.5594 H   0  0  0  0  0  0  0  0  0  0  0  0
    6.1201   -2.6878   -2.8224 H   0  0  0  0  0  0  0  0  0  0  0  0
    5.4323   -4.3279   -2.7431 H   0  0  0  0  0  0  0  0  0  0  0  0
    5.3768   -0.0888    0.2417 H   0  0  0  0  0  0  0  0  0  0  0  0
    4.0336   -0.3071   -0.8020 H   0  0  0  0  0  0  0  0  0  0  0  0
    2.0066   -0.5469    0.3254 H   0  0  0  0  0  0  0  0  0  0  0  0
    2.7698   -0.3877    4.9112 H   0  0  0  0  0  0  0  0  0  0  0  0
    0.5608   -1.2298    4.1969 H   0  0  0  0  0  0  0  0  0  0  0  0
    0.4960   -2.5439    3.0245 H   0  0  0  0  0  0  0  0  0  0  0  0
    3.0538   -4.2975    5.1866 H   0  0  0  0  0  0  0  0  0  0  0  0
    2.2546   -5.1814    3.1176 H   0  0  0  0  0  0  0  0  0  0  0  0
    2.3351   -3.9076    0.9256 H   0  0  0  0  0  0  0  0  0  0  0  0
    5.6317   -2.0194    1.6902 H   0  0  0  0  0  0  0  0  0  0  0  0
    6.6647   -3.7799    1.6738 H   0  0  0  0  0  0  0  0  0  0  0  0
    6.4657   -5.7017    2.7017 H   0  0  0  0  0  0  0  0  0  0  0  0
    4.8284   -5.4374    3.2659 H   0  0  0  0  0  0  0  0  0  0  0  0
    4.0598   -6.5045    1.0505 H   0  0  0  0  0  0  0  0  0  0  0  0
  1  2  1  0
  1 28  1  0
  1 29  1  0
  1 30  1  0
  2 25  1  0
  2  3  1  0
  2  4  1  0
  3 31  1  0
  3 32  1  0
  3 33  1  0
  4  5  1  0
  5  6  1  0
  5 34  1  0
  5 35  1  0
  6 17  1  0
  6  7  1  6
  6  8  1  0
  7 36  1  0
  8  9  1  0
  9 19  1  0
  9 26  1  6
  9 10  1  0
 10 11  2  0
 10 37  1  0
 11 17  1  0
 11 12  1  0
 12 13  1  0
 12 38  1  0
 12 39  1  0
 13 14  1  0
 14 15  1  0
 14 26  1  0
 14 40  1  1
 15 16  2  0
 15 41  1  0
 17 16  1  6
 16 42  1  0
 17 18  1  0
 18 19  1  0
 18 20  1  0
 18 43  1  6
 20 24  1  0
 20 21  1  0
 20 44  1  6
 21 22  1  0
 21 45  1  0
 21 46  1  0
 22 24  1  0
 22 23  1  0
 22 47  1  1
 24 23  1  6
 24 25  1  0
 26 27  2  0
M  END
>  <i_m_ct_stereo_status>  (31) 
1

>  <s_m_source_file>  (31) 
/var/tmp/pbs.5076253.sched01/tmpeppn20qa/07bjoayft.sdf

>  <i_m_source_file_index>  (31) 
35

>  <i_lp_mmshare_version>  (31) 
48012

>  <i_f3d_flags>  (31) 
0

>  <s_epik_input>  (31) 
W0NIMl0xT0MoW0NIM10pKFtDSDNdKU9bQ0BdMihbQ0BASF0oTzIpW0NIMl0zKVtDQEhdM1tDQEhdKE80KVtDQF01KFtDQEBdMShbT0hdKU9DNDY3KUMoPVtDSF02KVtDSDJdT1tDQEhdKEM3PU8pW0NIXT1bQ0hdNQ==

>  <s_epik_cmdline>  (31) 
J2VwaWtfcHl0aG9uJywgJy1waHQnLCAnMi4wJywgJy1waCcsICc3LjAnLCAnLXRuJywgJzgnLCAnLW1hJywgJzIwMCcsICctaW1hZScsICc8aW5maWxlLm1hZT4nLCAnLW9tYWUnLCAnPG91dGZpbGUubWFlPic=

>  <r_epik_Ionization_Penalty>  (31) 
0.00111386

>  <r_epik_Ionization_Penalty_Charging>  (31) 
0

>  <r_epik_Ionization_Penalty_Neutral>  (31) 
0.00111386

>  <r_epik_State_Penalty>  (31) 
0.000731223

>  <r_epik_Charging_Adjusted_Penalty>  (31) 
0.000731223

>  <i_epik_Tot_Q>  (31) 
0

>  <i_epik_Tot_abs_Q>  (31) 
0

>  <s_lp_Force_Field>  (31) 
OPLS3e

>  <r_lp_Energy>  (31) 
410.291

>  <b_lp_Chiralities_Consistent>  (31) 
1

>  <s_lp_Variant>  (31) 
26:0-1

>  <s_i_glide_gridfile>  (31) 
pfpi4k_grid

>  <i_i_glide_lignum>  (31) 
35

>  <i_i_glide_rotatable_bonds>  (31) 
1

>  <r_i_docking_score>  (31) 
-3.34251

>  <r_i_glide_ligand_efficiency>  (31) 
-0.123797

>  <r_i_glide_ligand_efficiency_sa>  (31) 
-0.37139

>  <r_i_glide_ligand_efficiency_ln>  (31) 
-0.778082

>  <r_i_glide_gscore>  (31) 
-3.34251

>  <r_i_glide_lipo>  (31) 
-0.417201

>  <r_i_glide_hbond>  (31) 
0

>  <r_i_glide_metal>  (31) 
-0

>  <r_i_glide_rewards>  (31) 
-0.998651

>  <r_i_glide_evdw>  (31) 
-20.8616

>  <r_i_glide_ecoul>  (31) 
-5.79983

>  <r_i_glide_erotb>  (31) 
0

>  <r_i_glide_esite>  (31) 
-0.0136086

>  <r_i_glide_emodel>  (31) 
-31.0498

>  <r_i_glide_energy>  (31) 
-26.6614

>  <r_i_glide_einternal>  (31) 
1.58863

>  <r_i_glide_intrahb_reward>  (31) 
-0

>  <i_i_glide_confnum>  (31) 
1

>  <i_i_glide_posenum>  (31) 
2

>  <r_i_glide_eff_state_penalty>  (31) 
0

>  <ligand_id>  (31) 
26

>  <original_smiles>  (31) 
CC1(C)OCC2(O)OC34C=C5COC(C=CC52C(O3)C2CC3OC32O1)C4=O

>  <smiles>  (31) 
[H]OC12OC34OC([H])(C15C([H])=C([H])C([H])(OC([H])([H])C5=C3[H])C4=O)C1([H])C([H])([H])C3([H])OC31OC(C([H])([H])[H])(C([H])([H])[H])OC2([H])[H]

$$$$
26:0:2
     RDKit          3D

 47 53  0  0  1  0  0  0  0  0999 V2000
    1.2835   -3.9689    4.5248 C   0  0  0  0  0  0  0  0  0  0  0  0
    2.6819   -3.3291    4.6464 C   0  0  0  0  0  0  0  0  0  0  0  0
    2.9835   -3.0233    6.1318 C   0  0  0  0  0  0  0  0  0  0  0  0
    3.6921   -4.2137    4.2483 O   0  0  0  0  0  0  0  0  0  0  0  0
    3.5432   -5.2311    3.2394 C   0  0  0  0  0  0  0  0  0  0  0  0
    3.6394   -4.8448    1.7019 C   0  0  2  0  0  0  0  0  0  0  0  0
    2.5961   -5.6340    1.1287 O   0  0  0  0  0  0  0  0  0  0  0  0
    4.9972   -5.2375    1.1549 O   0  0  0  0  0  0  0  0  0  0  0  0
    5.9182   -4.2642    0.3490 C   0  0  2  0  0  0  0  0  0  0  0  0
    4.8501   -4.3753   -0.6922 C   0  0  0  0  0  0  0  0  0  0  0  0
    3.6603   -3.8897   -0.3477 C   0  0  0  0  0  0  0  0  0  0  0  0
    2.9966   -3.1489   -1.5053 C   0  0  0  0  0  0  0  0  0  0  0  0
    3.9383   -2.1246   -1.8816 O   0  0  0  0  0  0  0  0  0  0  0  0
    4.6982   -1.6514   -0.7494 C   0  0  1  0  0  0  0  0  0  0  0  0
    3.6065   -1.2506    0.3153 C   0  0  0  0  0  0  0  0  0  0  0  0
    2.9376   -2.1315    1.1205 C   0  0  0  0  0  0  0  0  0  0  0  0
    3.6621   -3.4209    1.1929 C   0  0  1  0  0  0  0  0  0  0  0  0
    4.9904   -2.9973    2.0886 C   0  0  1  0  0  0  0  0  0  0  0  0
    6.1460   -3.3572    1.3856 O   0  0  0  0  0  0  0  0  0  0  0  0
    5.1241   -1.8107    3.0885 C   0  0  1  0  0  0  0  0  0  0  0  0
    5.3407   -0.3469    2.7704 C   0  0  0  0  0  0  0  0  0  0  0  0
    4.1067    0.0074    3.6042 C   0  0  1  0  0  0  0  0  0  0  0  0
    4.0126   -0.4072    4.9740 O   0  0  0  0  0  0  0  0  0  0  0  0
    3.9560   -1.4548    3.9868 C   0  0  2  0  0  0  0  0  0  0  0  0
    2.6982   -2.1445    3.9034 O   0  0  0  0  0  0  0  0  0  0  0  0
    5.9578   -2.6978   -0.4480 C   0  0  0  0  0  0  0  0  0  0  0  0
    7.0530   -2.3203   -0.8555 O   0  0  0  0  0  0  0  0  0  0  0  0
    1.0364   -4.1539    3.4814 H   0  0  0  0  0  0  0  0  0  0  0  0
    0.5244   -3.3147    4.9526 H   0  0  0  0  0  0  0  0  0  0  0  0
    1.2636   -4.9137    5.0718 H   0  0  0  0  0  0  0  0  0  0  0  0
    4.0086   -2.6680    6.2532 H   0  0  0  0  0  0  0  0  0  0  0  0
    2.9177   -3.9413    6.7194 H   0  0  0  0  0  0  0  0  0  0  0  0
    2.3003   -2.2798    6.5473 H   0  0  0  0  0  0  0  0  0  0  0  0
    4.3764   -5.9076    3.4358 H   0  0  0  0  0  0  0  0  0  0  0  0
    2.6615   -5.8295    3.4471 H   0  0  0  0  0  0  0  0  0  0  0  0
    2.7374   -6.5177    1.4031 H   0  0  0  0  0  0  0  0  0  0  0  0
    5.1137   -4.6011   -1.7226 H   0  0  0  0  0  0  0  0  0  0  0  0
    2.8767   -3.8128   -2.3584 H   0  0  0  0  0  0  0  0  0  0  0  0
    2.0088   -2.7528   -1.2674 H   0  0  0  0  0  0  0  0  0  0  0  0
    5.1856   -0.7321   -1.0577 H   0  0  0  0  0  0  0  0  0  0  0  0
    3.2194   -0.2567    0.2128 H   0  0  0  0  0  0  0  0  0  0  0  0
    2.0783   -1.9074    1.7160 H   0  0  0  0  0  0  0  0  0  0  0  0
    5.3041   -3.7590    2.7990 H   0  0  0  0  0  0  0  0  0  0  0  0
    5.9317   -2.0688    3.7463 H   0  0  0  0  0  0  0  0  0  0  0  0
    6.2748    0.0129    3.1952 H   0  0  0  0  0  0  0  0  0  0  0  0
    5.3292   -0.0540    1.7180 H   0  0  0  0  0  0  0  0  0  0  0  0
    3.3007    0.5755    3.1402 H   0  0  0  0  0  0  0  0  0  0  0  0
  1  2  1  0
  1 28  1  0
  1 29  1  0
  1 30  1  0
  2 25  1  0
  2  3  1  0
  2  4  1  0
  3 31  1  0
  3 32  1  0
  3 33  1  0
  4  5  1  0
  5  6  1  0
  5 34  1  0
  5 35  1  0
  6 17  1  0
  6  7  1  6
  6  8  1  0
  7 36  1  0
  8  9  1  0
  9 19  1  0
  9 26  1  1
  9 10  1  0
 10 11  2  0
 10 37  1  0
 11 17  1  0
 11 12  1  0
 12 13  1  0
 12 38  1  0
 12 39  1  0
 13 14  1  0
 14 15  1  0
 14 26  1  0
 14 40  1  6
 15 16  2  0
 15 41  1  0
 17 16  1  6
 16 42  1  0
 17 18  1  0
 18 19  1  0
 18 20  1  0
 18 43  1  1
 20 24  1  0
 20 21  1  0
 20 44  1  1
 21 22  1  0
 21 45  1  0
 21 46  1  0
 22 24  1  0
 22 23  1  0
 22 47  1  6
 24 23  1  1
 24 25  1  0
 26 27  2  0
M  END
>  <i_m_ct_stereo_status>  (32) 
1

>  <s_m_source_file>  (32) 
/var/tmp/pbs.5076253.sched01/tmpeppn20qa/07bjoayft.sdf

>  <i_m_source_file_index>  (32) 
35

>  <i_lp_mmshare_version>  (32) 
48012

>  <i_f3d_flags>  (32) 
0

>  <s_epik_input>  (32) 
W0NIMl0xT0MoW0NIM10pKFtDSDNdKU9bQ0BdMihbQ0BASF0oTzIpW0NIMl0zKVtDQEhdM1tDQEhdKE80KVtDQF01KFtDQEBdMShbT0hdKU9DNDY3KUMoPVtDSF02KVtDSDJdT1tDQEhdKEM3PU8pW0NIXT1bQ0hdNQ==

>  <s_epik_cmdline>  (32) 
J2VwaWtfcHl0aG9uJywgJy1waHQnLCAnMi4wJywgJy1waCcsICc3LjAnLCAnLXRuJywgJzgnLCAnLW1hJywgJzIwMCcsICctaW1hZScsICc8aW5maWxlLm1hZT4nLCAnLW9tYWUnLCAnPG91dGZpbGUubWFlPic=

>  <r_epik_Ionization_Penalty>  (32) 
0.00111386

>  <r_epik_Ionization_Penalty_Charging>  (32) 
0

>  <r_epik_Ionization_Penalty_Neutral>  (32) 
0.00111386

>  <r_epik_State_Penalty>  (32) 
0.000731223

>  <r_epik_Charging_Adjusted_Penalty>  (32) 
0.000731223

>  <i_epik_Tot_Q>  (32) 
0

>  <i_epik_Tot_abs_Q>  (32) 
0

>  <s_lp_Force_Field>  (32) 
OPLS3e

>  <r_lp_Energy>  (32) 
410.291

>  <b_lp_Chiralities_Consistent>  (32) 
1

>  <s_lp_Variant>  (32) 
26:0-1

>  <s_i_glide_gridfile>  (32) 
pfpi4k_grid

>  <i_i_glide_lignum>  (32) 
35

>  <i_i_glide_rotatable_bonds>  (32) 
1

>  <r_i_docking_score>  (32) 
-3.083

>  <r_i_glide_ligand_efficiency>  (32) 
-0.114185

>  <r_i_glide_ligand_efficiency_sa>  (32) 
-0.342555

>  <r_i_glide_ligand_efficiency_ln>  (32) 
-0.717671

>  <r_i_glide_gscore>  (32) 
-3.083

>  <r_i_glide_lipo>  (32) 
-0.325748

>  <r_i_glide_hbond>  (32) 
-0.16

>  <r_i_glide_metal>  (32) 
-0

>  <r_i_glide_rewards>  (32) 
-0.97216

>  <r_i_glide_evdw>  (32) 
-22.9081

>  <r_i_glide_ecoul>  (32) 
-3.18351

>  <r_i_glide_erotb>  (32) 
0

>  <r_i_glide_esite>  (32) 
-0.0021596

>  <r_i_glide_emodel>  (32) 
-30.8537

>  <r_i_glide_energy>  (32) 
-26.0916

>  <r_i_glide_einternal>  (32) 
0.00746982

>  <r_i_glide_intrahb_reward>  (32) 
-0

>  <i_i_glide_confnum>  (32) 
1

>  <i_i_glide_posenum>  (32) 
39

>  <r_i_glide_eff_state_penalty>  (32) 
0

>  <ligand_id>  (32) 
26

>  <original_smiles>  (32) 
CC1(C)OCC2(O)OC34C=C5COC(C=CC52C(O3)C2CC3OC32O1)C4=O

>  <smiles>  (32) 
[H]OC12OC34OC([H])(C15C([H])=C([H])C([H])(OC([H])([H])C5=C3[H])C4=O)C1([H])C([H])([H])C3([H])OC31OC(C([H])([H])[H])(C([H])([H])[H])OC2([H])[H]

$$$$
28:0:0
     RDKit          3D

 75 83  0  0  1  0  0  0  0  0999 V2000
   -1.3165   -9.3704    2.3194 C   0  0  0  0  0  0  0  0  0  0  0  0
    0.1919   -9.0598    2.3173 C   0  0  0  0  0  0  0  0  0  0  0  0
    0.8536   -8.7594    3.6949 C   0  0  0  0  0  0  0  0  0  0  0  0
   -0.1474   -8.0937    4.6847 C   0  0  0  0  0  0  0  0  0  0  0  0
   -0.7448   -6.7727    4.1579 C   0  0  0  0  0  0  0  0  0  0  0  0
    1.5751   -9.9932    4.2927 C   0  0  0  0  0  0  0  0  0  0  0  0
    2.9481   -9.8607    3.9406 O   0  0  0  0  0  0  0  0  0  0  0  0
    3.0659   -8.7032    3.1714 C   0  0  2  0  0  0  0  0  0  0  0  0
    3.0480   -9.0946    1.6827 C   0  0  0  0  0  0  0  0  0  0  0  0
    4.5005   -9.0211    1.2188 C   0  0  1  0  0  0  0  0  0  0  0  0
    4.6241   -7.8255    0.4479 O   0  0  0  0  0  0  0  0  0  0  0  0
    5.0445   -6.6602    1.1629 C   0  0  2  0  0  0  0  0  0  0  0  0
    4.6425   -6.5772    2.6747 C   0  0  1  0  0  0  0  0  0  0  0  0
    3.4846   -5.5589    2.5837 C   0  0  2  0  0  0  0  0  0  0  0  0
    3.4965   -5.7787    1.2047 O   0  0  0  0  0  0  0  0  0  0  0  0
    4.6587   -5.3333    0.4336 C   0  0  1  0  0  0  0  0  0  0  0  0
    5.7608   -4.3516    0.9732 C   0  0  0  0  0  0  0  0  0  0  0  0
    5.1687   -3.0856    1.2118 O   0  0  0  0  0  0  0  0  0  0  0  0
    3.7746   -3.3007    1.2968 C   0  0  2  0  0  0  0  0  0  0  0  0
    3.5322   -3.9766    2.7178 C   0  0  2  0  0  0  0  0  0  0  0  0
    4.3078   -3.4052    3.8928 C   0  0  0  0  0  0  0  0  0  0  0  0
    3.9828   -4.1139    4.9519 C   0  0  0  0  0  0  0  0  0  0  0  0
    2.5890   -3.6041    4.9687 C   0  0  1  0  0  0  0  0  0  0  0  0
    1.6504   -4.2921    5.7608 O   0  0  0  0  0  0  0  0  0  0  0  0
    2.8273   -2.3093    5.2951 O   0  0  0  0  0  0  0  0  0  0  0  0
    3.5394   -2.0696    4.1441 C   0  0  2  0  0  0  0  0  0  0  0  0
    2.4873   -2.0887    3.2674 O   0  0  0  0  0  0  0  0  0  0  0  0
    2.2517   -3.4710    3.4332 C   0  0  1  0  0  0  0  0  0  0  0  0
    3.5821   -4.2422    0.0642 C   0  0  1  0  0  0  0  0  0  0  0  0
    4.0086   -3.5341   -1.2479 C   0  0  0  0  0  0  0  0  0  0  0  0
    2.2302   -4.5350   -0.3575 O   0  0  0  0  0  0  0  0  0  0  0  0
    4.4896   -8.0223    3.3487 C   0  0  1  0  0  0  0  0  0  0  0  0
    4.9191   -7.9969    4.8380 C   0  0  0  0  0  0  0  0  0  0  0  0
    5.3725   -8.9929    2.4982 C   0  0  1  0  0  0  0  0  0  0  0  0
    5.4803  -10.3055    3.0653 O   0  0  0  0  0  0  0  0  0  0  0  0
    6.2248  -11.2750    2.4847 C   0  0  0  0  0  0  0  0  0  0  0  0
    6.1753  -12.5984    3.2444 C   0  0  0  0  0  0  0  0  0  0  0  0
    6.8989  -11.1544    1.4623 O   0  0  0  0  0  0  0  0  0  0  0  0
    1.9726   -7.9042    3.4981 O   0  0  0  0  0  0  0  0  0  0  0  0
   -1.6142   -9.5845    1.2959 H   0  0  0  0  0  0  0  0  0  0  0  0
   -1.9764   -8.6106    2.7123 H   0  0  0  0  0  0  0  0  0  0  0  0
   -1.4362  -10.3300    2.8117 H   0  0  0  0  0  0  0  0  0  0  0  0
    0.7424   -9.8596    1.8363 H   0  0  0  0  0  0  0  0  0  0  0  0
    0.3330   -8.1852    1.6794 H   0  0  0  0  0  0  0  0  0  0  0  0
   -0.9555   -8.7981    4.8947 H   0  0  0  0  0  0  0  0  0  0  0  0
    0.3170   -7.9320    5.6588 H   0  0  0  0  0  0  0  0  0  0  0  0
   -1.5608   -6.4367    4.8030 H   0  0  0  0  0  0  0  0  0  0  0  0
   -1.1429   -6.9091    3.1633 H   0  0  0  0  0  0  0  0  0  0  0  0
    0.0112   -5.9742    4.1932 H   0  0  0  0  0  0  0  0  0  0  0  0
    1.5296  -10.0365    5.3824 H   0  0  0  0  0  0  0  0  0  0  0  0
    1.1828  -10.9479    3.9292 H   0  0  0  0  0  0  0  0  0  0  0  0
    2.6110  -10.0846    1.5534 H   0  0  0  0  0  0  0  0  0  0  0  0
    2.4598   -8.3702    1.1118 H   0  0  0  0  0  0  0  0  0  0  0  0
    4.7346   -9.8400    0.5423 H   0  0  0  0  0  0  0  0  0  0  0  0
    6.1351   -6.7718    1.1148 H   0  0  0  0  0  0  0  0  0  0  0  0
    5.4646   -6.1010    3.2049 H   0  0  0  0  0  0  0  0  0  0  0  0
    2.5353   -5.8800    2.9744 H   0  0  0  0  0  0  0  0  0  0  0  0
    6.2521   -4.6746    1.8868 H   0  0  0  0  0  0  0  0  0  0  0  0
    6.5532   -4.2391    0.2283 H   0  0  0  0  0  0  0  0  0  0  0  0
    3.2716   -2.3541    1.1131 H   0  0  0  0  0  0  0  0  0  0  0  0
    4.0912   -5.1936    5.0111 H   0  0  0  0  0  0  0  0  0  0  0  0
    0.7963   -3.9658    5.5566 H   0  0  0  0  0  0  0  0  0  0  0  0
    4.1397   -1.1621    4.1548 H   0  0  0  0  0  0  0  0  0  0  0  0
    1.2826   -3.8305    3.0895 H   0  0  0  0  0  0  0  0  0  0  0  0
    5.0298   -3.1630   -1.2412 H   0  0  0  0  0  0  0  0  0  0  0  0
    3.3590   -2.6851   -1.4690 H   0  0  0  0  0  0  0  0  0  0  0  0
    3.9515   -4.2236   -2.0899 H   0  0  0  0  0  0  0  0  0  0  0  0
    2.2815   -5.0118   -1.1878 H   0  0  0  0  0  0  0  0  0  0  0  0
    5.9272   -7.5928    4.9489 H   0  0  0  0  0  0  0  0  0  0  0  0
    4.9367   -8.9940    5.2811 H   0  0  0  0  0  0  0  0  0  0  0  0
    4.2419   -7.3919    5.4386 H   0  0  0  0  0  0  0  0  0  0  0  0
    6.3887   -8.6193    2.3154 H   0  0  0  0  0  0  0  0  0  0  0  0
    6.6118  -12.4854    4.2372 H   0  0  0  0  0  0  0  0  0  0  0  0
    6.7339  -13.3664    2.7079 H   0  0  0  0  0  0  0  0  0  0  0  0
    5.1452  -12.9395    3.3540 H   0  0  0  0  0  0  0  0  0  0  0  0
  1  2  1  0
  1 40  1  0
  1 41  1  0
  1 42  1  0
  2  3  1  0
  2 43  1  0
  2 44  1  0
  3 39  1  0
  3  4  1  0
  3  6  1  0
  4  5  1  0
  4 45  1  0
  4 46  1  0
  5 47  1  0
  5 48  1  0
  5 49  1  0
  6  7  1  0
  6 50  1  0
  6 51  1  0
  8  7  1  1
  8 32  1  0
  8  9  1  0
  8 39  1  0
  9 10  1  0
  9 52  1  0
  9 53  1  0
 10 34  1  0
 10 11  1  0
 10 54  1  6
 11 12  1  0
 12 16  1  0
 12 13  1  0
 12 55  1  1
 13 14  1  0
 13 32  1  0
 13 56  1  1
 14 20  1  0
 14 15  1  0
 14 57  1  1
 15 16  1  0
 16 29  1  0
 16 17  1  1
 17 18  1  0
 17 58  1  0
 17 59  1  0
 18 19  1  0
 19 20  1  0
 19 29  1  0
 19 60  1  6
 20 28  1  0
 20 21  1  1
 21 26  1  0
 21 22  2  0
 22 23  1  0
 22 61  1  0
 23 28  1  0
 23 24  1  1
 23 25  1  0
 24 62  1  0
 25 26  1  0
 26 27  1  0
 26 63  1  1
 27 28  1  0
 28 64  1  1
 29 30  1  0
 29 31  1  6
 30 65  1  0
 30 66  1  0
 30 67  1  0
 31 68  1  0
 32 33  1  1
 32 34  1  0
 33 69  1  0
 33 70  1  0
 33 71  1  0
 34 35  1  0
 34 72  1  6
 35 36  1  0
 36 37  1  0
 36 38  2  0
 37 73  1  0
 37 74  1  0
 37 75  1  0
M  END
>  <i_m_ct_stereo_status>  (33) 
1

>  <s_m_source_file>  (33) 
/var/tmp/pbs.5076253.sched01/tmpeppn20qa/07bjoayft.sdf

>  <i_m_source_file_index>  (33) 
38

>  <i_lp_mmshare_version>  (33) 
48012

>  <i_f3d_flags>  (33) 
0

>  <s_epik_input>  (33) 
W0NIM11bQ0gyXUMoTzEpKFtDSDJdW0NIM10pW0NIMl1PW0NAXTEyW0NAXTMoW0NIM10pW0NASF00W0NAQEhdKE9bQ0BIXShbQ0gyXTIpW0NAQEhdM09DKD1PKVtDSDNdKVtDQEBdNTZPW0NAQEhdNFtDQF03KFtDQEBIXShPW0NIMl01KVtDQF02KFtDSDNdKVtPSF0pQz04W0NAQEhdOU9bQ0BAXShbQ0hdOCkoW09IXSlbQ0BIXTdPOQ==

>  <s_epik_cmdline>  (33) 
J2VwaWtfcHl0aG9uJywgJy1waHQnLCAnMi4wJywgJy1waCcsICc3LjAnLCAnLXRuJywgJzgnLCAnLW1hJywgJzIwMCcsICctaW1hZScsICc8aW5maWxlLm1hZT4nLCAnLW9tYWUnLCAnPG91dGZpbGUubWFlPic=

>  <r_epik_Ionization_Penalty>  (33) 
0.000708854

>  <r_epik_Ionization_Penalty_Charging>  (33) 
0

>  <r_epik_Ionization_Penalty_Neutral>  (33) 
0.000708854

>  <r_epik_State_Penalty>  (33) 
0.000451009

>  <r_epik_Charging_Adjusted_Penalty>  (33) 
0.000451009

>  <i_epik_Tot_Q>  (33) 
0

>  <i_epik_Tot_abs_Q>  (33) 
0

>  <s_epik_Chemistry_Notes>  (33) 
This compound has an ester and may undergo hydrolysis at high or low pH. This compound contains an acetal/aminal-like group ( X-CH(R)-Y where X, Y are N, S, or O) that may be acid/base labile, releasing an aldehyde.

>  <s_lp_Force_Field>  (33) 
OPLS3e

>  <r_lp_Energy>  (33) 
209.529

>  <b_lp_Chiralities_Consistent>  (33) 
1

>  <s_lp_Variant>  (33) 
28:0-1

>  <s_i_glide_gridfile>  (33) 
pfpi4k_grid

>  <i_i_glide_lignum>  (33) 
38

>  <i_i_glide_rotatable_bonds>  (33) 
6

>  <r_i_docking_score>  (33) 
-2.94005

>  <r_i_glide_ligand_efficiency>  (33) 
-0.075386

>  <r_i_glide_ligand_efficiency_sa>  (33) 
-0.25565

>  <r_i_glide_ligand_efficiency_ln>  (33) 
-0.630431

>  <r_i_glide_gscore>  (33) 
-2.94005

>  <r_i_glide_lipo>  (33) 
-0.536878

>  <r_i_glide_hbond>  (33) 
-0.159499

>  <r_i_glide_metal>  (33) 
-0

>  <r_i_glide_rewards>  (33) 
-3.18888e-05

>  <r_i_glide_evdw>  (33) 
-25.7054

>  <r_i_glide_ecoul>  (33) 
-6.42395

>  <r_i_glide_erotb>  (33) 
0.0688596

>  <r_i_glide_esite>  (33) 
-0.0636456

>  <r_i_glide_emodel>  (33) 
-35.5414

>  <r_i_glide_energy>  (33) 
-32.1293

>  <r_i_glide_einternal>  (33) 
1.94146

>  <r_i_glide_intrahb_reward>  (33) 
-0

>  <i_i_glide_confnum>  (33) 
1

>  <i_i_glide_posenum>  (33) 
37

>  <r_i_glide_eff_state_penalty>  (33) 
0

>  <ligand_id>  (33) 
28

>  <original_smiles>  (33) 
CCC1(CC)COC2(CC3OC4C(C5OC46COC(C54C5=CC7(O)OC5OC74)C6(C)O)C2(C)C3OC(C)=O)O1

>  <smiles>  (33) 
[H]OC12OC3([H])OC1([H])C1(C3=C2[H])C2([H])OC3(C([H])([H])OC1([H])C3(O[H])C([H])([H])[H])C1([H])OC3([H])C([H])([H])C4(OC([H])([H])C(C([H])([H])C([H])([H])[H])(C([H])([H])C([H])([H])[H])O4)C(C([H])([H])[H])(C3([H])OC(=O)C([H])([H])[H])C12[H]

$$$$
28:0:1
     RDKit          3D

 75 83  0  0  1  0  0  0  0  0999 V2000
   -1.5089   -9.0916    2.3056 C   0  0  0  0  0  0  0  0  0  0  0  0
    0.0251   -8.8580    2.3193 C   0  0  0  0  0  0  0  0  0  0  0  0
    0.6743   -8.5708    3.7016 C   0  0  0  0  0  0  0  0  0  0  0  0
   -0.3155   -7.8764    4.6702 C   0  0  0  0  0  0  0  0  0  0  0  0
   -0.8693   -6.5589    4.1208 C   0  0  0  0  0  0  0  0  0  0  0  0
    1.3523   -9.8221    4.3187 C   0  0  0  0  0  0  0  0  0  0  0  0
    2.7385   -9.7346    3.9831 O   0  0  0  0  0  0  0  0  0  0  0  0
    2.8987   -8.5873    3.2056 C   0  0  2  0  0  0  0  0  0  0  0  0
    2.8797   -8.9802    1.7205 C   0  0  0  0  0  0  0  0  0  0  0  0
    4.3389   -8.9805    1.2664 C   0  0  1  0  0  0  0  0  0  0  0  0
    4.5094   -7.7961    0.4876 O   0  0  0  0  0  0  0  0  0  0  0  0
    4.9443   -6.6310    1.1985 C   0  0  2  0  0  0  0  0  0  0  0  0
    4.5374   -6.5123    2.7092 C   0  0  1  0  0  0  0  0  0  0  0  0
    3.4142   -5.4561    2.6023 C   0  0  2  0  0  0  0  0  0  0  0  0
    3.4412   -5.6897    1.2297 O   0  0  0  0  0  0  0  0  0  0  0  0
    4.6237   -5.2859    0.4683 C   0  0  1  0  0  0  0  0  0  0  0  0
    5.7442   -4.3279    1.0115 C   0  0  0  0  0  0  0  0  0  0  0  0
    5.1850   -3.0438    1.2360 O   0  0  0  0  0  0  0  0  0  0  0  0
    3.7881   -3.2187    1.3013 C   0  0  2  0  0  0  0  0  0  0  0  0
    3.4984   -3.8780    2.7264 C   0  0  2  0  0  0  0  0  0  0  0  0
    4.2814   -3.3121    3.9028 C   0  0  0  0  0  0  0  0  0  0  0  0
    3.9353   -4.0170    4.9663 C   0  0  0  0  0  0  0  0  0  0  0  0
    2.5424   -3.4795    4.9837 C   0  0  1  0  0  0  0  0  0  0  0  0
    1.5941   -4.1515    5.7588 O   0  0  0  0  0  0  0  0  0  0  0  0
    2.8130   -2.1824    5.2968 O   0  0  0  0  0  0  0  0  0  0  0  0
    3.5534   -1.9659    4.1522 C   0  0  2  0  0  0  0  0  0  0  0  0
    2.5042   -1.9525    3.2600 O   0  0  0  0  0  0  0  0  0  0  0  0
    2.2305   -3.3268    3.4229 C   0  0  1  0  0  0  0  0  0  0  0  0
    3.5820   -4.1581    0.0779 C   0  0  1  0  0  0  0  0  0  0  0  0
    4.0438   -3.4755   -1.2391 C   0  0  0  0  0  0  0  0  0  0  0  0
    2.2150   -4.4272   -0.3338 O   0  0  0  0  0  0  0  0  0  0  0  0
    4.3357   -7.9485    3.3955 C   0  0  1  0  0  0  0  0  0  0  0  0
    4.7492   -7.9227    4.8925 C   0  0  0  0  0  0  0  0  0  0  0  0
    5.1913   -8.9520    2.5567 C   0  0  1  0  0  0  0  0  0  0  0  0
    5.2575  -10.2637    3.1434 O   0  0  0  0  0  0  0  0  0  0  0  0
    6.0441  -11.2280    2.6103 C   0  0  0  0  0  0  0  0  0  0  0  0
    5.9223  -12.5579    3.3521 C   0  0  0  0  0  0  0  0  0  0  0  0
    6.7815  -11.1022    1.6420 O   0  0  0  0  0  0  0  0  0  0  0  0
    1.8295   -7.7468    3.5283 O   0  0  0  0  0  0  0  0  0  0  0  0
   -1.7854   -9.3053    1.2740 H   0  0  0  0  0  0  0  0  0  0  0  0
   -2.1176   -8.2970    2.6334 H   0  0  0  0  0  0  0  0  0  0  0  0
   -1.7227  -10.0501    2.8097 H   0  0  0  0  0  0  0  0  0  0  0  0
    0.5374   -9.7054    1.8802 H   0  0  0  0  0  0  0  0  0  0  0  0
    0.2596   -8.0193    1.6643 H   0  0  0  0  0  0  0  0  0  0  0  0
   -1.1359   -8.5597    4.8693 H   0  0  0  0  0  0  0  0  0  0  0  0
    0.1425   -7.7158    5.6524 H   0  0  0  0  0  0  0  0  0  0  0  0
   -1.6881   -6.2351    4.7645 H   0  0  0  0  0  0  0  0  0  0  0  0
   -1.2413   -6.6988    3.1472 H   0  0  0  0  0  0  0  0  0  0  0  0
   -0.1061   -5.7627    4.1622 H   0  0  0  0  0  0  0  0  0  0  0  0
    1.2903   -9.8525    5.4102 H   0  0  0  0  0  0  0  0  0  0  0  0
    0.9360  -10.7620    3.9579 H   0  0  0  0  0  0  0  0  0  0  0  0
    2.4084   -9.9501    1.5924 H   0  0  0  0  0  0  0  0  0  0  0  0
    2.3213   -8.2307    1.1531 H   0  0  0  0  0  0  0  0  0  0  0  0
    4.5391   -9.8558    0.6333 H   0  0  0  0  0  0  0  0  0  0  0  0
    6.0388   -6.7677    1.1684 H   0  0  0  0  0  0  0  0  0  0  0  0
    5.3664   -6.0598    3.2424 H   0  0  0  0  0  0  0  0  0  0  0  0
    2.4512   -5.7496    2.9840 H   0  0  0  0  0  0  0  0  0  0  0  0
    6.2144   -4.6558    1.9371 H   0  0  0  0  0  0  0  0  0  0  0  0
    6.5440   -4.2431    0.2800 H   0  0  0  0  0  0  0  0  0  0  0  0
    3.3079   -2.2575    1.1110 H   0  0  0  0  0  0  0  0  0  0  0  0
    4.0108   -5.0934    5.0335 H   0  0  0  0  0  0  0  0  0  0  0  0
    1.9399   -4.2582    6.6386 H   0  0  0  0  0  0  0  0  0  0  0  0
    4.1705   -1.0695    4.1620 H   0  0  0  0  0  0  0  0  0  0  0  0
    1.2508   -3.6567    3.0781 H   0  0  0  0  0  0  0  0  0  0  0  0
    5.0824   -3.1392   -1.2303 H   0  0  0  0  0  0  0  0  0  0  0  0
    3.4282   -2.6104   -1.4753 H   0  0  0  0  0  0  0  0  0  0  0  0
    3.9711   -4.1709   -2.0814 H   0  0  0  0  0  0  0  0  0  0  0  0
    2.2681   -4.8842   -1.1584 H   0  0  0  0  0  0  0  0  0  0  0  0
    5.7692   -7.5476    5.0092 H   0  0  0  0  0  0  0  0  0  0  0  0
    4.7323   -8.9154    5.3419 H   0  0  0  0  0  0  0  0  0  0  0  0
    4.0848   -7.2929    5.4784 H   0  0  0  0  0  0  0  0  0  0  0  0
    6.2218   -8.6067    2.3866 H   0  0  0  0  0  0  0  0  0  0  0  0
    6.2769  -12.4603    4.3803 H   0  0  0  0  0  0  0  0  0  0  0  0
    6.5085  -13.3306    2.8550 H   0  0  0  0  0  0  0  0  0  0  0  0
    4.8806  -12.8902    3.3784 H   0  0  0  0  0  0  0  0  0  0  0  0
  1  2  1  0
  1 40  1  0
  1 41  1  0
  1 42  1  0
  2  3  1  0
  2 43  1  0
  2 44  1  0
  3 39  1  0
  3  4  1  0
  3  6  1  0
  4  5  1  0
  4 45  1  0
  4 46  1  0
  5 47  1  0
  5 48  1  0
  5 49  1  0
  6  7  1  0
  6 50  1  0
  6 51  1  0
  8  7  1  1
  8 32  1  0
  8  9  1  0
  8 39  1  0
  9 10  1  0
  9 52  1  0
  9 53  1  0
 10 34  1  0
 10 11  1  0
 10 54  1  6
 11 12  1  0
 12 16  1  0
 12 13  1  0
 12 55  1  1
 13 14  1  0
 13 32  1  0
 13 56  1  1
 14 20  1  0
 14 15  1  0
 14 57  1  1
 15 16  1  0
 16 29  1  0
 16 17  1  1
 17 18  1  0
 17 58  1  0
 17 59  1  0
 18 19  1  0
 19 20  1  0
 19 29  1  0
 19 60  1  6
 20 28  1  0
 20 21  1  1
 21 26  1  0
 21 22  2  0
 22 23  1  0
 22 61  1  0
 23 28  1  0
 23 24  1  1
 23 25  1  0
 24 62  1  0
 25 26  1  0
 26 27  1  0
 26 63  1  1
 27 28  1  0
 28 64  1  6
 29 30  1  0
 29 31  1  6
 30 65  1  0
 30 66  1  0
 30 67  1  0
 31 68  1  0
 32 33  1  1
 32 34  1  0
 33 69  1  0
 33 70  1  0
 33 71  1  0
 34 35  1  0
 34 72  1  6
 35 36  1  0
 36 37  1  0
 36 38  2  0
 37 73  1  0
 37 74  1  0
 37 75  1  0
M  END
>  <i_m_ct_stereo_status>  (34) 
1

>  <s_m_source_file>  (34) 
/var/tmp/pbs.5076253.sched01/tmpeppn20qa/07bjoayft.sdf

>  <i_m_source_file_index>  (34) 
38

>  <i_lp_mmshare_version>  (34) 
48012

>  <i_f3d_flags>  (34) 
0

>  <s_epik_input>  (34) 
W0NIM11bQ0gyXUMoTzEpKFtDSDJdW0NIM10pW0NIMl1PW0NAXTEyW0NAXTMoW0NIM10pW0NASF00W0NAQEhdKE9bQ0BIXShbQ0gyXTIpW0NAQEhdM09DKD1PKVtDSDNdKVtDQEBdNTZPW0NAQEhdNFtDQF03KFtDQEBIXShPW0NIMl01KVtDQF02KFtDSDNdKVtPSF0pQz04W0NAQEhdOU9bQ0BAXShbQ0hdOCkoW09IXSlbQ0BIXTdPOQ==

>  <s_epik_cmdline>  (34) 
J2VwaWtfcHl0aG9uJywgJy1waHQnLCAnMi4wJywgJy1waCcsICc3LjAnLCAnLXRuJywgJzgnLCAnLW1hJywgJzIwMCcsICctaW1hZScsICc8aW5maWxlLm1hZT4nLCAnLW9tYWUnLCAnPG91dGZpbGUubWFlPic=

>  <r_epik_Ionization_Penalty>  (34) 
0.000708854

>  <r_epik_Ionization_Penalty_Charging>  (34) 
0

>  <r_epik_Ionization_Penalty_Neutral>  (34) 
0.000708854

>  <r_epik_State_Penalty>  (34) 
0.000451009

>  <r_epik_Charging_Adjusted_Penalty>  (34) 
0.000451009

>  <i_epik_Tot_Q>  (34) 
0

>  <i_epik_Tot_abs_Q>  (34) 
0

>  <s_epik_Chemistry_Notes>  (34) 
This compound has an ester and may undergo hydrolysis at high or low pH. This compound contains an acetal/aminal-like group ( X-CH(R)-Y where X, Y are N, S, or O) that may be acid/base labile, releasing an aldehyde.

>  <s_lp_Force_Field>  (34) 
OPLS3e

>  <r_lp_Energy>  (34) 
209.529

>  <b_lp_Chiralities_Consistent>  (34) 
1

>  <s_lp_Variant>  (34) 
28:0-1

>  <s_i_glide_gridfile>  (34) 
pfpi4k_grid

>  <i_i_glide_lignum>  (34) 
38

>  <i_i_glide_rotatable_bonds>  (34) 
6

>  <r_i_docking_score>  (34) 
-2.6256

>  <r_i_glide_ligand_efficiency>  (34) 
-0.0673231

>  <r_i_glide_ligand_efficiency_sa>  (34) 
-0.228307

>  <r_i_glide_ligand_efficiency_ln>  (34) 
-0.563003

>  <r_i_glide_gscore>  (34) 
-2.6256

>  <r_i_glide_lipo>  (34) 
-0.480166

>  <r_i_glide_hbond>  (34) 
-0.0213063

>  <r_i_glide_metal>  (34) 
-0

>  <r_i_glide_rewards>  (34) 
-4.33449e-05

>  <r_i_glide_evdw>  (34) 
-27.4155

>  <r_i_glide_ecoul>  (34) 
-5.06371

>  <r_i_glide_erotb>  (34) 
0.0688596

>  <r_i_glide_esite>  (34) 
-0.0626119

>  <r_i_glide_emodel>  (34) 
-34.5834

>  <r_i_glide_energy>  (34) 
-32.4792

>  <r_i_glide_einternal>  (34) 
1.93853

>  <r_i_glide_intrahb_reward>  (34) 
-0

>  <i_i_glide_confnum>  (34) 
2

>  <i_i_glide_posenum>  (34) 
25

>  <r_i_glide_eff_state_penalty>  (34) 
0

>  <ligand_id>  (34) 
28

>  <original_smiles>  (34) 
CCC1(CC)COC2(CC3OC4C(C5OC46COC(C54C5=CC7(O)OC5OC74)C6(C)O)C2(C)C3OC(C)=O)O1

>  <smiles>  (34) 
[H]OC12OC3([H])OC1([H])C1(C3=C2[H])C2([H])OC3(C([H])([H])OC1([H])C3(O[H])C([H])([H])[H])C1([H])OC3([H])C([H])([H])C4(OC([H])([H])C(C([H])([H])C([H])([H])[H])(C([H])([H])C([H])([H])[H])O4)C(C([H])([H])[H])(C3([H])OC(=O)C([H])([H])[H])C12[H]

$$$$
28:0:2
     RDKit          3D

 75 83  0  0  1  0  0  0  0  0999 V2000
   -1.5701   -8.7736    2.2941 C   0  0  0  0  0  0  0  0  0  0  0  0
   -0.0575   -8.4703    2.3048 C   0  0  0  0  0  0  0  0  0  0  0  0
    0.5819   -8.0983    3.6793 C   0  0  0  0  0  0  0  0  0  0  0  0
   -0.4380   -7.3310    4.5445 C   0  0  0  0  0  0  0  0  0  0  0  0
    0.0866   -6.7121    5.8351 C   0  0  0  0  0  0  0  0  0  0  0  0
    1.2322   -9.3243    4.3664 C   0  0  0  0  0  0  0  0  0  0  0  0
    2.6085   -9.2343    4.0301 O   0  0  0  0  0  0  0  0  0  0  0  0
    2.7745   -8.1595    3.1811 C   0  0  2  0  0  0  0  0  0  0  0  0
    2.7387   -8.6511    1.7344 C   0  0  0  0  0  0  0  0  0  0  0  0
    4.2183   -8.7313    1.3031 C   0  0  1  0  0  0  0  0  0  0  0  0
    4.4273   -7.6104    0.4328 O   0  0  0  0  0  0  0  0  0  0  0  0
    4.8925   -6.3961    1.0539 C   0  0  2  0  0  0  0  0  0  0  0  0
    4.4613   -6.1535    2.5390 C   0  0  1  0  0  0  0  0  0  0  0  0
    3.3523   -5.0989    2.3102 C   0  0  2  0  0  0  0  0  0  0  0  0
    3.3908   -5.4531    0.9585 O   0  0  0  0  0  0  0  0  0  0  0  0
    4.5967   -5.1262    0.1966 C   0  0  0  0  0  0  0  0  0  0  0  0
    5.7339   -4.1441    0.6743 C   0  0  0  0  0  0  0  0  0  0  0  0
    5.2010   -2.8340    0.7887 O   0  0  0  0  0  0  0  0  0  0  0  0
    3.7934   -2.9703    0.8519 C   0  0  2  0  0  0  0  0  0  0  0  0
    3.4721   -3.5255    2.3182 C   0  0  2  0  0  0  0  0  0  0  0  0
    4.2490   -2.8755    3.4435 C   0  0  0  0  0  0  0  0  0  0  0  0
    3.8712   -3.4933    4.5720 C   0  0  0  0  0  0  0  0  0  0  0  0
    2.4961   -2.9227    4.5204 C   0  0  1  0  0  0  0  0  0  0  0  0
    1.5304   -3.5027    5.3392 O   0  0  0  0  0  0  0  0  0  0  0  0
    2.7843   -1.6150    4.7235 O   0  0  0  0  0  0  0  0  0  0  0  0
    3.5376   -1.4996    3.5769 C   0  0  2  0  0  0  0  0  0  0  0  0
    2.5035   -1.5517    2.6818 O   0  0  0  0  0  0  0  0  0  0  0  0
    2.1963   -2.9037    2.9606 C   0  0  1  0  0  0  0  0  0  0  0  0
    3.5934   -4.0049   -0.2928 C   0  0  1  0  0  0  0  0  0  0  0  0
    4.0788   -3.4460   -1.6570 C   0  0  0  0  0  0  0  0  0  0  0  0
    2.2311   -4.2513   -0.7045 O   0  0  0  0  0  0  0  0  0  0  0  0
    4.2076   -7.5137    3.3300 C   0  0  1  0  0  0  0  0  0  0  0  0
    4.6162   -7.3884    4.8266 C   0  0  0  0  0  0  0  0  0  0  0  0
    5.0651   -8.5877    2.5842 C   0  0  1  0  0  0  0  0  0  0  0  0
    5.1878   -9.8344    3.2511 O   0  0  0  0  0  0  0  0  0  0  0  0
    5.9747  -10.8634    2.8421 C   0  0  0  0  0  0  0  0  0  0  0  0
    6.6692  -10.6724    1.4951 C   0  0  0  0  0  0  0  0  0  0  0  0
    6.1485  -11.8954    3.4851 O   0  0  0  0  0  0  0  0  0  0  0  0
    1.7161   -7.2856    3.4156 O   0  0  0  0  0  0  0  0  0  0  0  0
   -1.8730   -9.0580    1.2977 H   0  0  0  0  0  0  0  0  0  0  0  0
   -2.1920   -7.9251    2.5893 H   0  0  0  0  0  0  0  0  0  0  0  0
   -1.7810   -9.6159    2.9354 H   0  0  0  0  0  0  0  0  0  0  0  0
    0.4692   -9.3131    1.8573 H   0  0  0  0  0  0  0  0  0  0  0  0
    0.1111   -7.6434    1.5989 H   0  0  0  0  0  0  0  0  0  0  0  0
   -0.8566   -6.5097    3.9731 H   0  0  0  0  0  0  0  0  0  0  0  0
   -1.2641   -7.9796    4.8355 H   0  0  0  0  0  0  0  0  0  0  0  0
   -0.7139   -6.1540    6.3418 H   0  0  0  0  0  0  0  0  0  0  0  0
    0.9013   -6.0030    5.6456 H   0  0  0  0  0  0  0  0  0  0  0  0
    0.4516   -7.4624    6.5481 H   0  0  0  0  0  0  0  0  0  0  0  0
    1.1674   -9.3001    5.4520 H   0  0  0  0  0  0  0  0  0  0  0  0
    0.8049  -10.2851    4.0484 H   0  0  0  0  0  0  0  0  0  0  0  0
    2.2439   -9.6242    1.6937 H   0  0  0  0  0  0  0  0  0  0  0  0
    2.2081   -7.9576    1.0795 H   0  0  0  0  0  0  0  0  0  0  0  0
    4.4111   -9.6484    0.7290 H   0  0  0  0  0  0  0  0  0  0  0  0
    5.9746   -6.5488    1.0470 H   0  0  0  0  0  0  0  0  0  0  0  0
    5.2923   -5.6639    3.0561 H   0  0  0  0  0  0  0  0  0  0  0  0
    2.3874   -5.3519    2.7147 H   0  0  0  0  0  0  0  0  0  0  0  0
    6.1799   -4.4122    1.6228 H   0  0  0  0  0  0  0  0  0  0  0  0
    6.5438   -4.1395   -0.0565 H   0  0  0  0  0  0  0  0  0  0  0  0
    3.3346   -2.0292    0.5719 H   0  0  0  0  0  0  0  0  0  0  0  0
    3.9324   -4.5604    4.7140 H   0  0  0  0  0  0  0  0  0  0  0  0
    1.8757   -3.5492    6.2377 H   0  0  0  0  0  0  0  0  0  0  0  0
    4.1756   -0.6204    3.5171 H   0  0  0  0  0  0  0  0  0  0  0  0
    1.2190   -3.2515    2.6133 H   0  0  0  0  0  0  0  0  0  0  0  0
    5.1165   -3.1234   -1.6506 H   0  0  0  0  0  0  0  0  0  0  0  0
    3.4726   -2.5940   -1.9680 H   0  0  0  0  0  0  0  0  0  0  0  0
    4.0099   -4.2101   -2.4317 H   0  0  0  0  0  0  0  0  0  0  0  0
    2.2659   -4.8651   -1.4281 H   0  0  0  0  0  0  0  0  0  0  0  0
    5.6416   -7.0260    4.9238 H   0  0  0  0  0  0  0  0  0  0  0  0
    4.5856   -8.3429    5.3533 H   0  0  0  0  0  0  0  0  0  0  0  0
    3.9644   -6.7035    5.3704 H   0  0  0  0  0  0  0  0  0  0  0  0
    6.0747   -8.2198    2.4327 H   0  0  0  0  0  0  0  0  0  0  0  0
    5.9388  -10.6649    0.6833 H   0  0  0  0  0  0  0  0  0  0  0  0
    7.4136  -11.4698    1.3331 H   0  0  0  0  0  0  0  0  0  0  0  0
    7.2279   -9.7289    1.4753 H   0  0  0  0  0  0  0  0  0  0  0  0
  1  2  1  0
  1 40  1  0
  1 41  1  0
  1 42  1  0
  2  3  1  0
  2 43  1  0
  2 44  1  0
  3 39  1  0
  3  4  1  0
  3  6  1  0
  4  5  1  0
  4 45  1  0
  4 46  1  0
  5 47  1  0
  5 48  1  0
  5 49  1  0
  6  7  1  0
  6 50  1  0
  6 51  1  0
  8  7  1  1
  8 32  1  0
  8  9  1  0
  8 39  1  0
  9 10  1  0
  9 52  1  0
  9 53  1  0
 10 34  1  0
 10 11  1  0
 10 54  1  6
 11 12  1  0
 12 16  1  0
 12 13  1  0
 12 55  1  1
 13 14  1  0
 13 32  1  0
 13 56  1  1
 14 20  1  0
 14 15  1  0
 14 57  1  1
 15 16  1  0
 16 29  1  0
 16 17  1  0
 17 18  1  0
 17 58  1  0
 17 59  1  0
 18 19  1  0
 19 20  1  0
 19 29  1  0
 19 60  1  6
 20 28  1  0
 20 21  1  1
 21 26  1  0
 21 22  2  0
 22 23  1  0
 22 61  1  0
 23 28  1  0
 23 24  1  1
 23 25  1  0
 24 62  1  0
 25 26  1  0
 26 27  1  0
 26 63  1  1
 27 28  1  0
 28 64  1  1
 29 30  1  0
 29 31  1  6
 30 65  1  0
 30 66  1  0
 30 67  1  0
 31 68  1  0
 32 33  1  1
 32 34  1  0
 33 69  1  0
 33 70  1  0
 33 71  1  0
 34 35  1  0
 34 72  1  6
 35 36  1  0
 36 37  1  0
 36 38  2  0
 37 73  1  0
 37 74  1  0
 37 75  1  0
M  END
>  <i_m_ct_stereo_status>  (35) 
1

>  <s_m_source_file>  (35) 
/var/tmp/pbs.5076253.sched01/tmpeppn20qa/07bjoayft.sdf

>  <i_m_source_file_index>  (35) 
38

>  <i_lp_mmshare_version>  (35) 
48012

>  <i_f3d_flags>  (35) 
0

>  <s_epik_input>  (35) 
W0NIM11bQ0gyXUMoTzEpKFtDSDJdW0NIM10pW0NIMl1PW0NAXTEyW0NAXTMoW0NIM10pW0NASF00W0NAQEhdKE9bQ0BIXShbQ0gyXTIpW0NAQEhdM09DKD1PKVtDSDNdKVtDQEBdNTZPW0NAQEhdNFtDQF03KFtDQEBIXShPW0NIMl01KVtDQF02KFtDSDNdKVtPSF0pQz04W0NAQEhdOU9bQ0BAXShbQ0hdOCkoW09IXSlbQ0BIXTdPOQ==

>  <s_epik_cmdline>  (35) 
J2VwaWtfcHl0aG9uJywgJy1waHQnLCAnMi4wJywgJy1waCcsICc3LjAnLCAnLXRuJywgJzgnLCAnLW1hJywgJzIwMCcsICctaW1hZScsICc8aW5maWxlLm1hZT4nLCAnLW9tYWUnLCAnPG91dGZpbGUubWFlPic=

>  <r_epik_Ionization_Penalty>  (35) 
0.000708854

>  <r_epik_Ionization_Penalty_Charging>  (35) 
0

>  <r_epik_Ionization_Penalty_Neutral>  (35) 
0.000708854

>  <r_epik_State_Penalty>  (35) 
0.000451009

>  <r_epik_Charging_Adjusted_Penalty>  (35) 
0.000451009

>  <i_epik_Tot_Q>  (35) 
0

>  <i_epik_Tot_abs_Q>  (35) 
0

>  <s_epik_Chemistry_Notes>  (35) 
This compound has an ester and may undergo hydrolysis at high or low pH. This compound contains an acetal/aminal-like group ( X-CH(R)-Y where X, Y are N, S, or O) that may be acid/base labile, releasing an aldehyde.

>  <s_lp_Force_Field>  (35) 
OPLS3e

>  <r_lp_Energy>  (35) 
209.529

>  <b_lp_Chiralities_Consistent>  (35) 
1

>  <s_lp_Variant>  (35) 
28:0-1

>  <s_i_glide_gridfile>  (35) 
pfpi4k_grid

>  <i_i_glide_lignum>  (35) 
38

>  <i_i_glide_rotatable_bonds>  (35) 
6

>  <r_i_docking_score>  (35) 
-2.24244

>  <r_i_glide_ligand_efficiency>  (35) 
-0.0574985

>  <r_i_glide_ligand_efficiency_sa>  (35) 
-0.194989

>  <r_i_glide_ligand_efficiency_ln>  (35) 
-0.480843

>  <r_i_glide_gscore>  (35) 
-2.24244

>  <r_i_glide_lipo>  (35) 
-0.391798

>  <r_i_glide_hbond>  (35) 
0

>  <r_i_glide_metal>  (35) 
-0

>  <r_i_glide_rewards>  (35) 
-0.000323658

>  <r_i_glide_evdw>  (35) 
-27.532

>  <r_i_glide_ecoul>  (35) 
-3.33508

>  <r_i_glide_erotb>  (35) 
0.0688596

>  <r_i_glide_esite>  (35) 
-0.0423173

>  <r_i_glide_emodel>  (35) 
-29.9679

>  <r_i_glide_energy>  (35) 
-30.867

>  <r_i_glide_einternal>  (35) 
7.39444

>  <r_i_glide_intrahb_reward>  (35) 
-0

>  <i_i_glide_confnum>  (35) 
2

>  <i_i_glide_posenum>  (35) 
38

>  <r_i_glide_eff_state_penalty>  (35) 
0

>  <ligand_id>  (35) 
28

>  <original_smiles>  (35) 
CCC1(CC)COC2(CC3OC4C(C5OC46COC(C54C5=CC7(O)OC5OC74)C6(C)O)C2(C)C3OC(C)=O)O1

>  <smiles>  (35) 
[H]OC12OC3([H])OC1([H])C1(C3=C2[H])C2([H])OC3(C([H])([H])OC1([H])C3(O[H])C([H])([H])[H])C1([H])OC3([H])C([H])([H])C4(OC([H])([H])C(C([H])([H])C([H])([H])[H])(C([H])([H])C([H])([H])[H])O4)C(C([H])([H])[H])(C3([H])OC(=O)C([H])([H])[H])C12[H]

$$$$
30:0:0
     RDKit          3D

 72 80  0  0  1  0  0  0  0  0999 V2000
    6.8338   -3.4935    6.8956 C   0  0  0  0  0  0  0  0  0  0  0  0
    5.6149   -4.0587    6.4291 O   0  0  0  0  0  0  0  0  0  0  0  0
    5.3587   -3.9727    5.0223 C   0  0  2  0  0  0  0  0  0  0  0  0
    5.0058   -2.4876    4.5760 C   0  0  1  0  0  0  0  0  0  0  0  0
    5.3652   -2.7244    3.1504 O   0  0  0  0  0  0  0  0  0  0  0  0
    4.6516   -3.5193    2.1505 C   0  0  1  0  0  0  0  0  0  0  0  0
    5.3675   -3.3562    0.8167 C   0  0  0  0  0  0  0  0  0  0  0  0
    6.7692   -3.5461    0.7795 C   0  0  0  0  0  0  0  0  0  0  0  0
    7.4963   -3.3763   -0.4118 C   0  0  0  0  0  0  0  0  0  0  0  0
    6.8309   -3.0410   -1.6047 C   0  0  0  0  0  0  0  0  0  0  0  0
    5.4290   -2.8603   -1.5927 C   0  0  0  0  0  0  0  0  0  0  0  0
    4.7049   -3.0203   -0.3918 C   0  0  0  0  0  0  0  0  0  0  0  0
    4.2883   -4.8470    2.3326 O   0  0  0  0  0  0  0  0  0  0  0  0
    3.3257   -4.7208    3.3178 C   0  0  2  0  0  0  0  0  0  0  0  0
    1.9461   -5.3205    3.3576 O   0  0  0  0  0  0  0  0  0  0  0  0
    0.7865   -4.5870    4.1386 C   0  0  1  0  0  0  0  0  0  0  0  0
   -0.1063   -5.5599    4.6103 O   0  0  0  0  0  0  0  0  0  0  0  0
   -0.3523   -6.6754    3.7562 C   0  0  0  0  0  0  0  0  0  0  0  0
    0.9030   -3.3424    5.4519 C   0  0  1  0  0  0  0  0  0  0  0  0
   -0.3232   -2.3950    5.2517 C   0  0  0  0  0  0  0  0  0  0  0  0
   -1.0900   -2.3503    6.4746 O   0  0  0  0  0  0  0  0  0  0  0  0
   -1.0456   -3.6606    7.0131 C   0  0  1  0  0  0  0  0  0  0  0  0
    0.3800   -3.9936    6.6987 C   0  0  0  0  0  0  0  0  0  0  0  0
    0.8613   -4.1165    7.9676 C   0  0  0  0  0  0  0  0  0  0  0  0
   -0.5199   -3.9044    8.4005 C   0  0  2  0  0  0  0  0  0  0  0  0
   -1.2004   -4.5220    9.5796 C   0  0  0  0  0  0  0  0  0  0  0  0
   -0.8713   -3.1064    9.5276 O   0  0  0  0  0  0  0  0  0  0  0  0
    2.2135   -2.2984    5.9564 C   0  0  0  0  0  0  0  0  0  0  0  0
    3.5065   -1.7491    4.9936 C   0  0  1  0  0  0  0  0  0  0  0  0
    3.7449   -0.3829    5.3423 O   0  0  0  0  0  0  0  0  0  0  0  0
    4.3628   -0.0448    6.4931 C   0  0  0  0  0  0  0  0  0  0  0  0
    4.5127    1.4648    6.6566 C   0  0  0  0  0  0  0  0  0  0  0  0
    4.7791   -0.8284    7.3447 O   0  0  0  0  0  0  0  0  0  0  0  0
    2.7680   -1.8297    3.6885 C   0  0  1  0  0  0  0  0  0  0  0  0
    3.1459   -0.7125    2.6465 C   0  0  0  0  0  0  0  0  0  0  0  0
    2.7411   -3.3576    3.1933 C   0  0  2  0  0  0  0  0  0  0  0  0
    3.0968   -3.8889    4.5337 O   0  0  0  0  0  0  0  0  0  0  0  0
    3.2226   -5.0863    5.4038 C   0  0  0  0  0  0  0  0  0  0  0  0
    4.2956   -5.0869    4.5371 C   0  0  2  0  0  0  0  0  0  0  0  0
    3.4368   -3.0572    2.0372 O   0  0  0  0  0  0  0  0  0  0  0  0
    6.9067   -3.6542    7.9702 H   0  0  0  0  0  0  0  0  0  0  0  0
    6.8922   -2.4189    6.7368 H   0  0  0  0  0  0  0  0  0  0  0  0
    7.7017   -3.9690    6.4419 H   0  0  0  0  0  0  0  0  0  0  0  0
    6.2801   -4.2690    4.5437 H   0  0  0  0  0  0  0  0  0  0  0  0
    5.7986   -1.8252    4.9171 H   0  0  0  0  0  0  0  0  0  0  0  0
    7.2939   -3.8051    1.6828 H   0  0  0  0  0  0  0  0  0  0  0  0
    8.5712   -3.5187   -0.4177 H   0  0  0  0  0  0  0  0  0  0  0  0
    7.3904   -2.9371   -2.5228 H   0  0  0  0  0  0  0  0  0  0  0  0
    4.9175   -2.6042   -2.5122 H   0  0  0  0  0  0  0  0  0  0  0  0
    3.6305   -2.8643   -0.4130 H   0  0  0  0  0  0  0  0  0  0  0  0
    0.2629   -4.1272    3.3013 H   0  0  0  0  0  0  0  0  0  0  0  0
   -1.1260   -7.3113    4.1902 H   0  0  0  0  0  0  0  0  0  0  0  0
    0.5315   -7.3022    3.6368 H   0  0  0  0  0  0  0  0  0  0  0  0
   -0.6931   -6.3792    2.7651 H   0  0  0  0  0  0  0  0  0  0  0  0
   -0.0547   -1.3825    4.9383 H   0  0  0  0  0  0  0  0  0  0  0  0
   -0.9820   -2.7844    4.4809 H   0  0  0  0  0  0  0  0  0  0  0  0
   -1.8787   -4.2977    6.7097 H   0  0  0  0  0  0  0  0  0  0  0  0
    1.7335   -3.9512    8.5894 H   0  0  0  0  0  0  0  0  0  0  0  0
   -2.2609   -4.7517    9.4911 H   0  0  0  0  0  0  0  0  0  0  0  0
   -0.6116   -5.0985   10.2912 H   0  0  0  0  0  0  0  0  0  0  0  0
    1.7500   -1.4142    6.3990 H   0  0  0  0  0  0  0  0  0  0  0  0
    2.7197   -2.7570    6.8021 H   0  0  0  0  0  0  0  0  0  0  0  0
    5.0368    1.8995    5.8067 H   0  0  0  0  0  0  0  0  0  0  0  0
    5.0806    1.6990    7.5561 H   0  0  0  0  0  0  0  0  0  0  0  0
    3.5364    1.9400    6.7421 H   0  0  0  0  0  0  0  0  0  0  0  0
    1.7315   -1.5499    3.8297 H   0  0  0  0  0  0  0  0  0  0  0  0
    4.2061   -0.6945    2.3892 H   0  0  0  0  0  0  0  0  0  0  0  0
    2.9158    0.2783    3.0364 H   0  0  0  0  0  0  0  0  0  0  0  0
    2.5855   -0.8085    1.7136 H   0  0  0  0  0  0  0  0  0  0  0  0
    3.4576   -4.8894    6.4478 H   0  0  0  0  0  0  0  0  0  0  0  0
    2.5876   -5.9758    5.3438 H   0  0  0  0  0  0  0  0  0  0  0  0
    4.7271   -6.0867    4.4465 H   0  0  0  0  0  0  0  0  0  0  0  0
  1  2  1  0
  1 41  1  0
  1 42  1  0
  1 43  1  0
  2  3  1  0
  3 39  1  0
  3  4  1  0
  3 44  1  6
  4 29  1  0
  4  5  1  0
  4 45  1  1
  5  6  1  0
  6 40  1  0
  6  7  1  6
  6 13  1  0
  7 12  1  0
  7  8  2  0
  8  9  1  0
  8 46  1  0
  9 10  2  0
  9 47  1  0
 10 11  1  0
 10 48  1  0
 11 12  2  0
 11 49  1  0
 12 50  1  0
 13 14  1  0
 14 36  1  0
 14 39  1  0
 14 15  1  6
 15 16  1  0
 16 17  1  0
 16 19  1  0
 16 51  1  6
 17 18  1  0
 18 52  1  0
 18 53  1  0
 18 54  1  0
 19 23  1  0
 19 20  1  6
 19 28  1  0
 20 21  1  0
 20 55  1  0
 20 56  1  0
 21 22  1  0
 22 25  1  0
 22 23  1  0
 22 57  1  6
 23 24  2  0
 24 25  1  0
 24 58  1  0
 25 27  1  1
 25 26  1  0
 26 27  1  0
 26 59  1  0
 26 60  1  0
 28 29  1  0
 28 61  1  0
 28 62  1  0
 29 30  1  1
 29 34  1  0
 30 31  1  0
 31 32  1  0
 31 33  2  0
 32 63  1  0
 32 64  1  0
 32 65  1  0
 34 35  1  0
 34 36  1  0
 34 66  1  1
 35 67  1  0
 35 68  1  0
 35 69  1  0
 36 37  1  6
 36 40  1  0
 37 38  1  0
 38 39  1  0
 38 70  1  0
 38 71  1  0
 39 72  1  6
M  END
>  <i_m_ct_stereo_status>  (36) 
1

>  <s_m_source_file>  (36) 
/var/tmp/pbs.5076253.sched01/tmpeppn20qa/07bjoayft.sdf

>  <i_m_source_file_index>  (36) 
40

>  <i_lp_mmshare_version>  (36) 
48012

>  <i_f3d_flags>  (36) 
0

>  <s_epik_input>  (36) 
TzFbQ0gyXVtDQEBdMShbQ0hdMilbQ0BASF0oT1tDSDJdMylDPTJbQ0BdMyhbQ0BASF0oTzQpT1tDSDNdKVtDSDJdW0NAQF0oW0NAQEhdKFtDSDNdKVtDQF01NltDQEBdNDc4KShPQyg9TylbQ0gzXSlbQ0BASF0oW0NAQEhdKE9bQ0gzXSlbQ0BIXThbQ0gyXU81KU9bQ0BAXShPNykoTzYpYzlbY0hdW2NIXVtjSF1bY0hdW2NIXTk=

>  <s_epik_cmdline>  (36) 
J2VwaWtfcHl0aG9uJywgJy1waHQnLCAnMi4wJywgJy1waCcsICc3LjAnLCAnLXRuJywgJzgnLCAnLW1hJywgJzIwMCcsICctaW1hZScsICc8aW5maWxlLm1hZT4nLCAnLW9tYWUnLCAnPG91dGZpbGUubWFlPic=

>  <r_lp_tautomer_probability>  (36) 
1

>  <r_epik_Ionization_Penalty>  (36) 
4.8545e-13

>  <r_epik_Ionization_Penalty_Charging>  (36) 
0

>  <r_epik_Ionization_Penalty_Neutral>  (36) 
4.8545e-13

>  <r_epik_State_Penalty>  (36) 
-0

>  <r_epik_Charging_Adjusted_Penalty>  (36) 
0

>  <i_epik_Tot_Q>  (36) 
0

>  <i_epik_Tot_abs_Q>  (36) 
0

>  <s_epik_Chemistry_Notes>  (36) 
This compound has an ester and may undergo hydrolysis at high or low pH. This compound contains an acetal/aminal-like group ( X-CH(R)-Y where X, Y are N, S, or O) that may be acid/base labile, releasing an aldehyde.

>  <s_lp_Force_Field>  (36) 
OPLS3e

>  <r_lp_Energy>  (36) 
516.117

>  <b_lp_Chiralities_Consistent>  (36) 
1

>  <s_lp_Variant>  (36) 
30:0-1

>  <s_i_glide_gridfile>  (36) 
pfpi4k_grid

>  <i_i_glide_lignum>  (36) 
40

>  <i_i_glide_rotatable_bonds>  (36) 
5

>  <r_i_docking_score>  (36) 
-2.50751

>  <r_i_glide_ligand_efficiency>  (36) 
-0.0626877

>  <r_i_glide_ligand_efficiency_sa>  (36) 
-0.214389

>  <r_i_glide_ligand_efficiency_ln>  (36) 
-0.534778

>  <r_i_glide_gscore>  (36) 
-2.50751

>  <r_i_glide_lipo>  (36) 
-0.444857

>  <r_i_glide_hbond>  (36) 
-0.16

>  <r_i_glide_metal>  (36) 
-0

>  <r_i_glide_rewards>  (36) 
-0.0343031

>  <r_i_glide_evdw>  (36) 
-21.9819

>  <r_i_glide_ecoul>  (36) 
-5.47673

>  <r_i_glide_erotb>  (36) 
0.0582539

>  <r_i_glide_esite>  (36) 
-0.00599765

>  <r_i_glide_emodel>  (36) 
-30.4276

>  <r_i_glide_energy>  (36) 
-27.4586

>  <r_i_glide_einternal>  (36) 
1.46702

>  <r_i_glide_intrahb_reward>  (36) 
-0

>  <i_i_glide_confnum>  (36) 
1

>  <i_i_glide_posenum>  (36) 
24

>  <r_i_glide_eff_state_penalty>  (36) 
0

>  <ligand_id>  (36) 
30

>  <original_smiles>  (36) 
COC1C2OC3(c4ccccc4)OC45OC(OC)C6(COC7C6=CC76CO6)CC2(OC(C)=O)C(C)C4(OCC15)O3

>  <smiles>  (36) 
[H]C1=C2C([H])(OC([H])([H])C23C([H])(OC([H])([H])[H])OC24OC5(c6c([H])c([H])c([H])c([H])c6[H])OC6([H])C([H])(OC([H])([H])[H])C2([H])C([H])([H])OC4(O5)C([H])(C([H])([H])[H])C6(OC(=O)C([H])([H])[H])C3([H])[H])C12OC2([H])[H]

$$$$
30:0:1
     RDKit          3D

 72 80  0  0  1  0  0  0  0  0999 V2000
    6.5990   -5.1339    5.6471 C   0  0  0  0  0  0  0  0  0  0  0  0
    5.8845   -3.9434    5.3321 O   0  0  0  0  0  0  0  0  0  0  0  0
    5.2953   -3.9158    4.0263 C   0  0  2  0  0  0  0  0  0  0  0  0
    4.8483   -2.4279    3.6926 C   0  0  1  0  0  0  0  0  0  0  0  0
    4.8369   -2.6730    2.2226 O   0  0  0  0  0  0  0  0  0  0  0  0
    3.8909   -3.4593    1.4313 C   0  0  1  0  0  0  0  0  0  0  0  0
    4.2604   -3.3158   -0.0384 C   0  0  0  0  0  0  0  0  0  0  0  0
    5.6171   -3.4305   -0.3986 C   0  0  0  0  0  0  0  0  0  0  0  0
    6.0205   -3.2782   -1.7306 C   0  0  0  0  0  0  0  0  0  0  0  0
    5.0709   -3.0318   -2.7322 C   0  0  0  0  0  0  0  0  0  0  0  0
    3.7093   -2.9194   -2.3928 C   0  0  0  0  0  0  0  0  0  0  0  0
    3.3052   -3.0653   -1.0537 C   0  0  0  0  0  0  0  0  0  0  0  0
    3.5441   -4.7835    1.6989 O   0  0  0  0  0  0  0  0  0  0  0  0
    2.8767   -4.6504    2.9015 C   0  0  2  0  0  0  0  0  0  0  0  0
    1.5433   -5.2532    3.3009 O   0  0  0  0  0  0  0  0  0  0  0  0
    0.6489   -4.5224    4.3701 C   0  0  1  0  0  0  0  0  0  0  0  0
   -0.1997   -5.4651    4.9748 O   0  0  0  0  0  0  0  0  0  0  0  0
    0.4280   -6.6496    5.4787 C   0  0  0  0  0  0  0  0  0  0  0  0
    1.0721   -3.2430    5.5702 C   0  0  1  0  0  0  0  0  0  0  0  0
   -0.1730   -2.2928    5.6521 C   0  0  0  0  0  0  0  0  0  0  0  0
   -0.5706   -2.2136    7.0289 O   0  0  0  0  0  0  0  0  0  0  0  0
   -0.4403   -3.5242    7.5536 C   0  0  1  0  0  0  0  0  0  0  0  0
    0.8732   -3.8678    6.9170 C   0  0  0  0  0  0  0  0  0  0  0  0
    1.6203   -3.9714    8.0208 C   0  0  0  0  0  0  0  0  0  0  0  0
    0.3977   -3.7720    8.7776 C   0  0  2  0  0  0  0  0  0  0  0  0
    0.0153   -4.3744   10.0874 C   0  0  0  0  0  0  0  0  0  0  0  0
    0.3162   -2.9641    9.9457 O   0  0  0  0  0  0  0  0  0  0  0  0
    2.4751   -2.1991    5.7242 C   0  0  0  0  0  0  0  0  0  0  0  0
    3.4936   -1.6617    4.4629 C   0  0  1  0  0  0  0  0  0  0  0  0
    3.8005   -0.2953    4.7494 O   0  0  0  0  0  0  0  0  0  0  0  0
    4.7236    0.0337    5.6701 C   0  0  0  0  0  0  0  0  0  0  0  0
    4.8100    1.5410    5.8824 C   0  0  0  0  0  0  0  0  0  0  0  0
    5.4344   -0.7516    6.2985 O   0  0  0  0  0  0  0  0  0  0  0  0
    2.4471   -1.7498    3.3777 C   0  0  1  0  0  0  0  0  0  0  0  0
    2.5625   -0.6400    2.2697 C   0  0  0  0  0  0  0  0  0  0  0  0
    2.2915   -3.2830    2.9069 C   0  0  2  0  0  0  0  0  0  0  0  0
    2.9669   -3.7980    4.1206 O   0  0  0  0  0  0  0  0  0  0  0  0
    3.3293   -4.9833    4.9356 C   0  0  0  0  0  0  0  0  0  0  0  0
    4.1285   -5.0109    3.8318 C   0  0  2  0  0  0  0  0  0  0  0  0
    2.6891   -2.9928    1.6123 O   0  0  0  0  0  0  0  0  0  0  0  0
    6.9344   -5.0939    6.6826 H   0  0  0  0  0  0  0  0  0  0  0  0
    7.4825   -5.2413    5.0171 H   0  0  0  0  0  0  0  0  0  0  0  0
    5.9903   -6.0351    5.5482 H   0  0  0  0  0  0  0  0  0  0  0  0
    6.0861   -4.1977    3.3276 H   0  0  0  0  0  0  0  0  0  0  0  0
    5.7260   -1.8064    3.8419 H   0  0  0  0  0  0  0  0  0  0  0  0
    6.3509   -3.6273    0.3748 H   0  0  0  0  0  0  0  0  0  0  0  0
    7.0683   -3.3705   -1.9875 H   0  0  0  0  0  0  0  0  0  0  0  0
    5.3879   -2.9406   -3.7604 H   0  0  0  0  0  0  0  0  0  0  0  0
    2.9779   -2.7281   -3.1650 H   0  0  0  0  0  0  0  0  0  0  0  0
    2.2508   -2.9594   -0.8194 H   0  0  0  0  0  0  0  0  0  0  0  0
   -0.0271   -4.0164    3.6964 H   0  0  0  0  0  0  0  0  0  0  0  0
   -0.3017   -7.3397    5.8935 H   0  0  0  0  0  0  0  0  0  0  0  0
    1.1269   -6.4217    6.2804 H   0  0  0  0  0  0  0  0  0  0  0  0
    0.9535   -7.1969    4.6972 H   0  0  0  0  0  0  0  0  0  0  0  0
    0.0001   -1.2856    5.2651 H   0  0  0  0  0  0  0  0  0  0  0  0
   -1.0234   -2.6887    5.0986 H   0  0  0  0  0  0  0  0  0  0  0  0
   -1.3206   -4.1499    7.4452 H   0  0  0  0  0  0  0  0  0  0  0  0
    2.6331   -3.8480    8.4210 H   0  0  0  0  0  0  0  0  0  0  0  0
   -1.0306   -4.6171   10.2612 H   0  0  0  0  0  0  0  0  0  0  0  0
    0.7669   -4.9521   10.6345 H   0  0  0  0  0  0  0  0  0  0  0  0
    2.1319   -1.3043    6.2564 H   0  0  0  0  0  0  0  0  0  0  0  0
    3.1674   -2.6552    6.4340 H   0  0  0  0  0  0  0  0  0  0  0  0
    5.0044    2.0564    4.9421 H   0  0  0  0  0  0  0  0  0  0  0  0
    5.6093    1.7816    6.5754 H   0  0  0  0  0  0  0  0  0  0  0  0
    3.8748    1.9172    6.2960 H   0  0  0  0  0  0  0  0  0  0  0  0
    1.4796   -1.4635    3.7743 H   0  0  0  0  0  0  0  0  0  0  0  0
    3.5286   -0.6386    1.7600 H   0  0  0  0  0  0  0  0  0  0  0  0
    2.4401    0.3550    2.6970 H   0  0  0  0  0  0  0  0  0  0  0  0
    1.7929   -0.7425    1.5008 H   0  0  0  0  0  0  0  0  0  0  0  0
    3.8049   -4.7601    5.8820 H   0  0  0  0  0  0  0  0  0  0  0  0
    2.8184   -5.9417    4.9759 H   0  0  0  0  0  0  0  0  0  0  0  0
    4.4938   -6.0243    3.6460 H   0  0  0  0  0  0  0  0  0  0  0  0
  1  2  1  0
  1 41  1  0
  1 42  1  0
  1 43  1  0
  2  3  1  0
  3 39  1  0
  3  4  1  0
  3 44  1  6
  4 29  1  0
  4  5  1  0
  4 45  1  6
  5  6  1  0
  6 40  1  0
  6  7  1  6
  6 13  1  0
  7 12  1  0
  7  8  2  0
  8  9  1  0
  8 46  1  0
  9 10  2  0
  9 47  1  0
 10 11  1  0
 10 48  1  0
 11 12  2  0
 11 49  1  0
 12 50  1  0
 13 14  1  0
 14 36  1  0
 14 39  1  0
 14 15  1  6
 15 16  1  0
 16 17  1  0
 16 19  1  0
 16 51  1  6
 17 18  1  0
 18 52  1  0
 18 53  1  0
 18 54  1  0
 19 23  1  0
 19 20  1  1
 19 28  1  0
 20 21  1  0
 20 55  1  0
 20 56  1  0
 21 22  1  0
 22 25  1  0
 22 23  1  0
 22 57  1  6
 23 24  2  0
 24 25  1  0
 24 58  1  0
 25 27  1  1
 25 26  1  0
 26 27  1  0
 26 59  1  0
 26 60  1  0
 28 29  1  0
 28 61  1  0
 28 62  1  0
 29 30  1  1
 29 34  1  0
 30 31  1  0
 31 32  1  0
 31 33  2  0
 32 63  1  0
 32 64  1  0
 32 65  1  0
 34 35  1  0
 34 36  1  0
 34 66  1  1
 35 67  1  0
 35 68  1  0
 35 69  1  0
 36 37  1  6
 36 40  1  0
 37 38  1  0
 38 39  1  0
 38 70  1  0
 38 71  1  0
 39 72  1  6
M  END
>  <i_m_ct_stereo_status>  (37) 
1

>  <s_m_source_file>  (37) 
/var/tmp/pbs.5076253.sched01/tmpeppn20qa/07bjoayft.sdf

>  <i_m_source_file_index>  (37) 
40

>  <i_lp_mmshare_version>  (37) 
48012

>  <i_f3d_flags>  (37) 
0

>  <s_epik_input>  (37) 
TzFbQ0gyXVtDQEBdMShbQ0hdMilbQ0BASF0oT1tDSDJdMylDPTJbQ0BdMyhbQ0BASF0oTzQpT1tDSDNdKVtDSDJdW0NAQF0oW0NAQEhdKFtDSDNdKVtDQF01NltDQEBdNDc4KShPQyg9TylbQ0gzXSlbQ0BASF0oW0NAQEhdKE9bQ0gzXSlbQ0BIXThbQ0gyXU81KU9bQ0BAXShPNykoTzYpYzlbY0hdW2NIXVtjSF1bY0hdW2NIXTk=

>  <s_epik_cmdline>  (37) 
J2VwaWtfcHl0aG9uJywgJy1waHQnLCAnMi4wJywgJy1waCcsICc3LjAnLCAnLXRuJywgJzgnLCAnLW1hJywgJzIwMCcsICctaW1hZScsICc8aW5maWxlLm1hZT4nLCAnLW9tYWUnLCAnPG91dGZpbGUubWFlPic=

>  <r_lp_tautomer_probability>  (37) 
1

>  <r_epik_Ionization_Penalty>  (37) 
4.8545e-13

>  <r_epik_Ionization_Penalty_Charging>  (37) 
0

>  <r_epik_Ionization_Penalty_Neutral>  (37) 
4.8545e-13

>  <r_epik_State_Penalty>  (37) 
-0

>  <r_epik_Charging_Adjusted_Penalty>  (37) 
0

>  <i_epik_Tot_Q>  (37) 
0

>  <i_epik_Tot_abs_Q>  (37) 
0

>  <s_epik_Chemistry_Notes>  (37) 
This compound has an ester and may undergo hydrolysis at high or low pH. This compound contains an acetal/aminal-like group ( X-CH(R)-Y where X, Y are N, S, or O) that may be acid/base labile, releasing an aldehyde.

>  <s_lp_Force_Field>  (37) 
OPLS3e

>  <r_lp_Energy>  (37) 
516.117

>  <b_lp_Chiralities_Consistent>  (37) 
1

>  <s_lp_Variant>  (37) 
30:0-1

>  <s_i_glide_gridfile>  (37) 
pfpi4k_grid

>  <i_i_glide_lignum>  (37) 
40

>  <i_i_glide_rotatable_bonds>  (37) 
5

>  <r_i_docking_score>  (37) 
-2.20549

>  <r_i_glide_ligand_efficiency>  (37) 
-0.0551372

>  <r_i_glide_ligand_efficiency_sa>  (37) 
-0.188566

>  <r_i_glide_ligand_efficiency_ln>  (37) 
-0.470365

>  <r_i_glide_gscore>  (37) 
-2.20549

>  <r_i_glide_lipo>  (37) 
-0.518168

>  <r_i_glide_hbond>  (37) 
-0.0132374

>  <r_i_glide_metal>  (37) 
-0

>  <r_i_glide_rewards>  (37) 
-0.0341015

>  <r_i_glide_evdw>  (37) 
-23.2011

>  <r_i_glide_ecoul>  (37) 
-3.54637

>  <r_i_glide_erotb>  (37) 
0.0582539

>  <r_i_glide_esite>  (37) 
-0.00622154

>  <r_i_glide_emodel>  (37) 
-28.1092

>  <r_i_glide_energy>  (37) 
-26.7475

>  <r_i_glide_einternal>  (37) 
1.97646

>  <r_i_glide_intrahb_reward>  (37) 
-0

>  <i_i_glide_confnum>  (37) 
1

>  <i_i_glide_posenum>  (37) 
1

>  <r_i_glide_eff_state_penalty>  (37) 
0

>  <ligand_id>  (37) 
30

>  <original_smiles>  (37) 
COC1C2OC3(c4ccccc4)OC45OC(OC)C6(COC7C6=CC76CO6)CC2(OC(C)=O)C(C)C4(OCC15)O3

>  <smiles>  (37) 
[H]C1=C2C([H])(OC([H])([H])C23C([H])(OC([H])([H])[H])OC24OC5(c6c([H])c([H])c([H])c([H])c6[H])OC6([H])C([H])(OC([H])([H])[H])C2([H])C([H])([H])OC4(O5)C([H])(C([H])([H])[H])C6(OC(=O)C([H])([H])[H])C3([H])[H])C12OC2([H])[H]

$$$$
30:0:2
     RDKit          3D

 72 80  0  0  1  0  0  0  0  0999 V2000
    6.3716    0.5423    5.1542 C   0  0  0  0  0  0  0  0  0  0  0  0
    5.7202   -0.7176    5.2493 O   0  0  0  0  0  0  0  0  0  0  0  0
    5.2347   -1.2850    4.0227 C   0  0  2  0  0  0  0  0  0  0  0  0
    4.0196   -0.4503    3.4340 C   0  0  1  0  0  0  0  0  0  0  0  0
    4.2174   -0.9917    2.0632 O   0  0  0  0  0  0  0  0  0  0  0  0
    3.9356   -2.3309    1.5446 C   0  0  1  0  0  0  0  0  0  0  0  0
    4.1953   -2.3291    0.0377 C   0  0  0  0  0  0  0  0  0  0  0  0
    4.2166   -1.1035   -0.6660 C   0  0  0  0  0  0  0  0  0  0  0  0
    4.4611   -1.0605   -2.0466 C   0  0  0  0  0  0  0  0  0  0  0  0
    4.6815   -2.2459   -2.7573 C   0  0  0  0  0  0  0  0  0  0  0  0
    4.6384   -3.4793   -2.0819 C   0  0  0  0  0  0  0  0  0  0  0  0
    4.3848   -3.5236   -0.6946 C   0  0  0  0  0  0  0  0  0  0  0  0
    4.4039   -3.5137    2.1180 O   0  0  0  0  0  0  0  0  0  0  0  0
    3.7311   -3.5196    3.3281 C   0  0  2  0  0  0  0  0  0  0  0  0
    2.9682   -4.6589    3.9646 O   0  0  0  0  0  0  0  0  0  0  0  0
    1.7452   -4.3491    4.9030 C   0  0  1  0  0  0  0  0  0  0  0  0
    1.6486   -5.3842    5.8474 O   0  0  0  0  0  0  0  0  0  0  0  0
    1.4946   -6.6972    5.3230 C   0  0  0  0  0  0  0  0  0  0  0  0
    1.3689   -2.8360    5.8145 C   0  0  1  0  0  0  0  0  0  0  0  0
   -0.1890   -2.7717    5.8642 C   0  0  0  0  0  0  0  0  0  0  0  0
   -0.6016   -2.6532    7.2359 O   0  0  0  0  0  0  0  0  0  0  0  0
    0.2695   -3.4777    7.9808 C   0  0  1  0  0  0  0  0  0  0  0  0
    1.5528   -3.1571    7.2721 C   0  0  0  0  0  0  0  0  0  0  0  0
    2.1952   -2.5457    8.2873 C   0  0  0  0  0  0  0  0  0  0  0  0
    1.0550   -2.9029    9.1261 C   0  0  2  0  0  0  0  0  0  0  0  0
    1.0603   -3.2945   10.5692 C   0  0  0  0  0  0  0  0  0  0  0  0
    0.4901   -2.0384   10.1094 O   0  0  0  0  0  0  0  0  0  0  0  0
    1.9060   -1.1734    5.6134 C   0  0  0  0  0  0  0  0  0  0  0  0
    2.4629   -0.4473    4.1748 C   0  0  1  0  0  0  0  0  0  0  0  0
    1.9313    0.8808    4.1254 O   0  0  0  0  0  0  0  0  0  0  0  0
    2.4404    1.8731    4.8824 C   0  0  0  0  0  0  0  0  0  0  0  0
    1.7388    3.2031    4.6460 C   0  0  0  0  0  0  0  0  0  0  0  0
    3.3582    1.7618    5.6950 O   0  0  0  0  0  0  0  0  0  0  0  0
    1.6989   -1.3573    3.2555 C   0  0  1  0  0  0  0  0  0  0  0  0
    1.1858   -0.6559    1.9501 C   0  0  0  0  0  0  0  0  0  0  0  0
    2.4748   -2.7614    3.1124 C   0  0  2  0  0  0  0  0  0  0  0  0
    3.2887   -2.5173    4.3338 O   0  0  0  0  0  0  0  0  0  0  0  0
    4.2101   -3.0848    5.3491 C   0  0  0  0  0  0  0  0  0  0  0  0
    4.9239   -2.8760    4.1882 C   0  0  2  0  0  0  0  0  0  0  0  0
    2.6783   -2.6041    1.7470 O   0  0  0  0  0  0  0  0  0  0  0  0
    6.7180    0.8265    6.1452 H   0  0  0  0  0  0  0  0  0  0  0  0
    5.7033    1.3319    4.8255 H   0  0  0  0  0  0  0  0  0  0  0  0
    7.2350    0.5181    4.4901 H   0  0  0  0  0  0  0  0  0  0  0  0
    6.0584   -1.2061    3.3088 H   0  0  0  0  0  0  0  0  0  0  0  0
    4.3322    0.5808    3.3102 H   0  0  0  0  0  0  0  0  0  0  0  0
    4.0413   -0.1757   -0.1449 H   0  0  0  0  0  0  0  0  0  0  0  0
    4.4839   -0.1040   -2.5492 H   0  0  0  0  0  0  0  0  0  0  0  0
    4.8805   -2.2098   -3.8180 H   0  0  0  0  0  0  0  0  0  0  0  0
    4.8098   -4.3940   -2.6285 H   0  0  0  0  0  0  0  0  0  0  0  0
    4.3441   -4.4852   -0.1998 H   0  0  0  0  0  0  0  0  0  0  0  0
    0.9189   -4.5218    4.2107 H   0  0  0  0  0  0  0  0  0  0  0  0
    1.3814   -7.3965    6.1499 H   0  0  0  0  0  0  0  0  0  0  0  0
    2.3589   -7.0201    4.7420 H   0  0  0  0  0  0  0  0  0  0  0  0
    0.6003   -6.7822    4.7079 H   0  0  0  0  0  0  0  0  0  0  0  0
   -0.6177   -1.9653    5.2667 H   0  0  0  0  0  0  0  0  0  0  0  0
   -0.6222   -3.6984    5.4974 H   0  0  0  0  0  0  0  0  0  0  0  0
   -0.0959   -4.4901    8.1098 H   0  0  0  0  0  0  0  0  0  0  0  0
    2.9212   -1.7734    8.5334 H   0  0  0  0  0  0  0  0  0  0  0  0
    0.3427   -4.0435   10.8990 H   0  0  0  0  0  0  0  0  0  0  0  0
    1.9898   -3.2019   11.1329 H   0  0  0  0  0  0  0  0  0  0  0  0
    1.1011   -0.5396    5.9974 H   0  0  0  0  0  0  0  0  0  0  0  0
    2.7189   -0.9841    6.3160 H   0  0  0  0  0  0  0  0  0  0  0  0
    1.7555    3.4747    3.5892 H   0  0  0  0  0  0  0  0  0  0  0  0
    2.2330    3.9937    5.2050 H   0  0  0  0  0  0  0  0  0  0  0  0
    0.7028    3.1485    4.9772 H   0  0  0  0  0  0  0  0  0  0  0  0
    0.7295   -1.5929    3.6796 H   0  0  0  0  0  0  0  0  0  0  0  0
    1.9813   -0.2203    1.3414 H   0  0  0  0  0  0  0  0  0  0  0  0
    0.4935    0.1586    2.1735 H   0  0  0  0  0  0  0  0  0  0  0  0
    0.6423   -1.3556    1.3180 H   0  0  0  0  0  0  0  0  0  0  0  0
    4.4713   -2.4301    6.1745 H   0  0  0  0  0  0  0  0  0  0  0  0
    4.2119   -4.1248    5.6921 H   0  0  0  0  0  0  0  0  0  0  0  0
    5.8162   -3.5056    4.1586 H   0  0  0  0  0  0  0  0  0  0  0  0
  1  2  1  0
  1 41  1  0
  1 42  1  0
  1 43  1  0
  2  3  1  0
  3 39  1  0
  3  4  1  0
  3 44  1  6
  4 29  1  0
  4  5  1  0
  4 45  1  6
  5  6  1  0
  6 40  1  0
  6  7  1  6
  6 13  1  0
  7 12  1  0
  7  8  2  0
  8  9  1  0
  8 46  1  0
  9 10  2  0
  9 47  1  0
 10 11  1  0
 10 48  1  0
 11 12  2  0
 11 49  1  0
 12 50  1  0
 13 14  1  0
 14 36  1  0
 14 39  1  0
 14 15  1  1
 15 16  1  0
 16 17  1  0
 16 19  1  0
 16 51  1  6
 17 18  1  0
 18 52  1  0
 18 53  1  0
 18 54  1  0
 19 23  1  0
 19 20  1  1
 19 28  1  0
 20 21  1  0
 20 55  1  0
 20 56  1  0
 21 22  1  0
 22 25  1  0
 22 23  1  0
 22 57  1  1
 23 24  2  0
 24 25  1  0
 24 58  1  0
 25 27  1  1
 25 26  1  0
 26 27  1  0
 26 59  1  0
 26 60  1  0
 28 29  1  0
 28 61  1  0
 28 62  1  0
 29 30  1  1
 29 34  1  0
 30 31  1  0
 31 32  1  0
 31 33  2  0
 32 63  1  0
 32 64  1  0
 32 65  1  0
 34 35  1  0
 34 36  1  0
 34 66  1  1
 35 67  1  0
 35 68  1  0
 35 69  1  0
 36 37  1  6
 36 40  1  0
 37 38  1  0
 38 39  1  0
 38 70  1  0
 38 71  1  0
 39 72  1  1
M  END
>  <i_m_ct_stereo_status>  (38) 
1

>  <s_m_source_file>  (38) 
/var/tmp/pbs.5076253.sched01/tmpeppn20qa/07bjoayft.sdf

>  <i_m_source_file_index>  (38) 
40

>  <i_lp_mmshare_version>  (38) 
48012

>  <i_f3d_flags>  (38) 
0

>  <s_epik_input>  (38) 
TzFbQ0gyXVtDQEBdMShbQ0hdMilbQ0BASF0oT1tDSDJdMylDPTJbQ0BdMyhbQ0BASF0oTzQpT1tDSDNdKVtDSDJdW0NAQF0oW0NAQEhdKFtDSDNdKVtDQF01NltDQEBdNDc4KShPQyg9TylbQ0gzXSlbQ0BASF0oW0NAQEhdKE9bQ0gzXSlbQ0BIXThbQ0gyXU81KU9bQ0BAXShPNykoTzYpYzlbY0hdW2NIXVtjSF1bY0hdW2NIXTk=

>  <s_epik_cmdline>  (38) 
J2VwaWtfcHl0aG9uJywgJy1waHQnLCAnMi4wJywgJy1waCcsICc3LjAnLCAnLXRuJywgJzgnLCAnLW1hJywgJzIwMCcsICctaW1hZScsICc8aW5maWxlLm1hZT4nLCAnLW9tYWUnLCAnPG91dGZpbGUubWFlPic=

>  <r_lp_tautomer_probability>  (38) 
1

>  <r_epik_Ionization_Penalty>  (38) 
4.8545e-13

>  <r_epik_Ionization_Penalty_Charging>  (38) 
0

>  <r_epik_Ionization_Penalty_Neutral>  (38) 
4.8545e-13

>  <r_epik_State_Penalty>  (38) 
-0

>  <r_epik_Charging_Adjusted_Penalty>  (38) 
0

>  <i_epik_Tot_Q>  (38) 
0

>  <i_epik_Tot_abs_Q>  (38) 
0

>  <s_epik_Chemistry_Notes>  (38) 
This compound has an ester and may undergo hydrolysis at high or low pH. This compound contains an acetal/aminal-like group ( X-CH(R)-Y where X, Y are N, S, or O) that may be acid/base labile, releasing an aldehyde.

>  <s_lp_Force_Field>  (38) 
OPLS3e

>  <r_lp_Energy>  (38) 
516.117

>  <b_lp_Chiralities_Consistent>  (38) 
1

>  <s_lp_Variant>  (38) 
30:0-1

>  <s_i_glide_gridfile>  (38) 
pfpi4k_grid

>  <i_i_glide_lignum>  (38) 
40

>  <i_i_glide_rotatable_bonds>  (38) 
5

>  <r_i_docking_score>  (38) 
-2.08941

>  <r_i_glide_ligand_efficiency>  (38) 
-0.0522352

>  <r_i_glide_ligand_efficiency_sa>  (38) 
-0.178642

>  <r_i_glide_ligand_efficiency_ln>  (38) 
-0.445609

>  <r_i_glide_gscore>  (38) 
-2.08941

>  <r_i_glide_lipo>  (38) 
-0.444178

>  <r_i_glide_hbond>  (38) 
-0.0289473

>  <r_i_glide_metal>  (38) 
-0

>  <r_i_glide_rewards>  (38) 
-0.00154677

>  <r_i_glide_evdw>  (38) 
-24.6254

>  <r_i_glide_ecoul>  (38) 
-2.91035

>  <r_i_glide_erotb>  (38) 
0.0582539

>  <r_i_glide_esite>  (38) 
-0.0051653

>  <r_i_glide_emodel>  (38) 
-29.9695

>  <r_i_glide_energy>  (38) 
-27.5358

>  <r_i_glide_einternal>  (38) 
0.963594

>  <r_i_glide_intrahb_reward>  (38) 
-0

>  <i_i_glide_confnum>  (38) 
2

>  <i_i_glide_posenum>  (38) 
33

>  <r_i_glide_eff_state_penalty>  (38) 
0

>  <ligand_id>  (38) 
30

>  <original_smiles>  (38) 
COC1C2OC3(c4ccccc4)OC45OC(OC)C6(COC7C6=CC76CO6)CC2(OC(C)=O)C(C)C4(OCC15)O3

>  <smiles>  (38) 
[H]C1=C2C([H])(OC([H])([H])C23C([H])(OC([H])([H])[H])OC24OC5(c6c([H])c([H])c([H])c([H])c6[H])OC6([H])C([H])(OC([H])([H])[H])C2([H])C([H])([H])OC4(O5)C([H])(C([H])([H])[H])C6(OC(=O)C([H])([H])[H])C3([H])[H])C12OC2([H])[H]

$$$$
31:0:0
     RDKit          3D

 57 63  0  0  1  0  0  0  0  0999 V2000
    7.3223   -6.7019    1.7903 C   0  0  0  0  0  0  0  0  0  0  0  0
    5.9492   -6.0602    1.9794 C   0  0  2  0  0  0  0  0  0  0  0  0
    5.0025   -6.9302    1.3320 O   0  0  0  0  0  0  0  0  0  0  0  0
    3.9717   -6.1999    0.7111 C   0  0  1  0  0  0  0  0  0  0  0  0
    2.6725   -6.6535    1.0019 O   0  0  0  0  0  0  0  0  0  0  0  0
    2.3920   -7.2200    2.2942 C   0  0  2  0  0  0  0  0  0  0  0  0
    3.1480   -8.5326    2.4682 C   0  0  0  0  0  0  0  0  0  0  0  0
    2.7122   -9.4771    3.3201 C   0  0  0  0  0  0  0  0  0  0  0  0
    1.5699  -10.1772    2.7852 C   0  0  0  0  0  0  0  0  0  0  0  0
    0.5996   -9.7932    3.6217 C   0  0  0  0  0  0  0  0  0  0  0  0
    1.1363   -9.9975    4.8545 O   0  0  0  0  0  0  0  0  0  0  0  0
    2.2598   -9.1669    4.7504 C   0  0  2  0  0  0  0  0  0  0  0  0
    1.3535   -7.9292    4.8684 C   0  0  0  0  0  0  0  0  0  0  0  0
    0.3797   -8.2513    3.7108 C   0  0  2  0  0  0  0  0  0  0  0  0
   -1.0817   -7.9668    4.1076 C   0  0  0  0  0  0  0  0  0  0  0  0
    0.8438   -7.4458    2.4419 C   0  0  2  0  0  0  0  0  0  0  0  0
   -0.0644   -7.3377    1.2532 C   0  0  0  0  0  0  0  0  0  0  0  0
    0.0677   -6.2526    2.1851 O   0  0  0  0  0  0  0  0  0  0  0  0
    4.2106   -4.7797    1.2052 C   0  0  1  0  0  0  0  0  0  0  0  0
    5.7051   -4.7662    1.2193 C   0  0  1  0  0  0  0  0  0  0  0  0
    5.9313   -3.4663    1.7182 O   0  0  0  0  0  0  0  0  0  0  0  0
    4.9653   -2.6277    1.0554 C   0  0  1  0  0  0  0  0  0  0  0  0
    5.6149   -1.5753    0.1401 C   0  0  0  0  0  0  0  0  0  0  0  0
    5.7532   -2.0319   -1.2027 O   0  0  0  0  0  0  0  0  0  0  0  0
    4.6242   -2.6605   -1.7438 C   0  0  0  0  0  0  0  0  0  0  0  0
    3.4375   -1.6741   -1.8690 C   0  0  0  0  0  0  0  0  0  0  0  0
    5.0414   -3.1740   -3.1197 C   0  0  0  0  0  0  0  0  0  0  0  0
    4.2602   -3.7897   -1.0087 O   0  0  0  0  0  0  0  0  0  0  0  0
    3.9339   -3.5571    0.3582 C   0  0  1  0  0  0  0  0  0  0  0  0
    8.1297   -6.0819    2.1736 H   0  0  0  0  0  0  0  0  0  0  0  0
    7.4958   -6.8900    0.7328 H   0  0  0  0  0  0  0  0  0  0  0  0
    7.3549   -7.6679    2.2947 H   0  0  0  0  0  0  0  0  0  0  0  0
    5.6990   -5.9367    3.0380 H   0  0  0  0  0  0  0  0  0  0  0  0
    4.1301   -6.2785   -0.3636 H   0  0  0  0  0  0  0  0  0  0  0  0
    2.7142   -6.4943    3.0373 H   0  0  0  0  0  0  0  0  0  0  0  0
    3.3070   -8.8941    1.4641 H   0  0  0  0  0  0  0  0  0  0  0  0
    1.4210  -10.1376    1.7082 H   0  0  0  0  0  0  0  0  0  0  0  0
    3.0129   -9.3048    5.5220 H   0  0  0  0  0  0  0  0  0  0  0  0
    0.8535   -7.9525    5.8377 H   0  0  0  0  0  0  0  0  0  0  0  0
    1.8551   -6.9609    4.8425 H   0  0  0  0  0  0  0  0  0  0  0  0
   -1.2483   -6.9105    4.3323 H   0  0  0  0  0  0  0  0  0  0  0  0
   -1.3529   -8.5340    5.0035 H   0  0  0  0  0  0  0  0  0  0  0  0
   -1.7828   -8.2727    3.3307 H   0  0  0  0  0  0  0  0  0  0  0  0
    0.3720   -7.1717    0.2678 H   0  0  0  0  0  0  0  0  0  0  0  0
   -0.9896   -7.9117    1.2742 H   0  0  0  0  0  0  0  0  0  0  0  0
    3.8049   -4.6475    2.2116 H   0  0  0  0  0  0  0  0  0  0  0  0
    6.1298   -4.8453    0.2188 H   0  0  0  0  0  0  0  0  0  0  0  0
    4.4641   -2.1023    1.8638 H   0  0  0  0  0  0  0  0  0  0  0  0
    5.0351   -0.6484    0.1562 H   0  0  0  0  0  0  0  0  0  0  0  0
    6.6038   -1.3219    0.5247 H   0  0  0  0  0  0  0  0  0  0  0  0
    3.1217   -1.2918   -0.9020 H   0  0  0  0  0  0  0  0  0  0  0  0
    2.5844   -2.1801   -2.3157 H   0  0  0  0  0  0  0  0  0  0  0  0
    3.7080   -0.8260   -2.4941 H   0  0  0  0  0  0  0  0  0  0  0  0
    5.8870   -3.8572   -3.0184 H   0  0  0  0  0  0  0  0  0  0  0  0
    5.3312   -2.3325   -3.7463 H   0  0  0  0  0  0  0  0  0  0  0  0
    4.2120   -3.7062   -3.5857 H   0  0  0  0  0  0  0  0  0  0  0  0
    2.9043   -3.2091    0.4538 H   0  0  0  0  0  0  0  0  0  0  0  0
  1  2  1  0
  1 30  1  0
  1 31  1  0
  1 32  1  0
  2 20  1  0
  2  3  1  0
  2 33  1  1
  3  4  1  0
  4  5  1  0
  4 19  1  0
  4 34  1  6
  5  6  1  0
  6 16  1  0
  6  7  1  0
  6 35  1  1
  7  8  2  0
  7 36  1  0
  8 12  1  0
  8  9  1  0
  9 10  2  0
  9 37  1  0
 10 14  1  0
 10 11  1  0
 11 12  1  0
 12 13  1  0
 12 38  1  1
 13 14  1  0
 13 39  1  0
 13 40  1  0
 14 15  1  1
 14 16  1  0
 15 41  1  0
 15 42  1  0
 15 43  1  0
 16 18  1  1
 16 17  1  0
 17 18  1  0
 17 44  1  0
 17 45  1  0
 19 29  1  0
 19 20  1  0
 19 46  1  1
 20 21  1  0
 20 47  1  6
 21 22  1  0
 22 29  1  0
 22 23  1  0
 22 48  1  1
 23 24  1  0
 23 49  1  0
 23 50  1  0
 24 25  1  0
 25 26  1  0
 25 27  1  0
 25 28  1  0
 26 51  1  0
 26 52  1  0
 26 53  1  0
 27 54  1  0
 27 55  1  0
 27 56  1  0
 28 29  1  0
 29 57  1  6
M  END
>  <i_m_ct_stereo_status>  (39) 
1

>  <s_m_source_file>  (39) 
/var/tmp/pbs.5076253.sched01/tmpeppn20qa/07bjoayft.sdf

>  <i_m_source_file_index>  (39) 
41

>  <i_lp_mmshare_version>  (39) 
48012

>  <i_f3d_flags>  (39) 
0

>  <s_epik_input>  (39) 
W0NIMl0xT0MoW0NIM10pKFtDSDNdKU9bQ0BASF0yW0NASF0xT1tDQEhdKFtDQEBIXTIzKVtDQEhdKFtDSDNdKU9bQ0BIXTNPW0NAQEhdNFtDSF09QyhbQ0BIXShPNSlbQ0gyXTYpW0NIXT1DNVtDQF02KFtDSDNdKVtDQF00N1tDSDJdTzc=

>  <s_epik_cmdline>  (39) 
J2VwaWtfcHl0aG9uJywgJy1waHQnLCAnMi4wJywgJy1waCcsICc3LjAnLCAnLXRuJywgJzgnLCAnLW1hJywgJzIwMCcsICctaW1hZScsICc8aW5maWxlLm1hZT4nLCAnLW9tYWUnLCAnPG91dGZpbGUubWFlPic=

>  <r_lp_tautomer_probability>  (39) 
1

>  <r_epik_Ionization_Penalty>  (39) 
3.90202e-13

>  <r_epik_Ionization_Penalty_Charging>  (39) 
0

>  <r_epik_Ionization_Penalty_Neutral>  (39) 
3.90202e-13

>  <r_epik_State_Penalty>  (39) 
-0

>  <r_epik_Charging_Adjusted_Penalty>  (39) 
0

>  <i_epik_Tot_Q>  (39) 
0

>  <i_epik_Tot_abs_Q>  (39) 
0

>  <s_epik_Chemistry_Notes>  (39) 
This compound contains an acetal/aminal-like group ( X-CH(R)-Y where X, Y are N, S, or O) that may be acid/base labile, releasing an aldehyde.

>  <s_lp_Force_Field>  (39) 
OPLS3e

>  <r_lp_Energy>  (39) 
138.938

>  <b_lp_Chiralities_Consistent>  (39) 
1

>  <s_lp_Variant>  (39) 
31:0-1

>  <s_i_glide_gridfile>  (39) 
pfpi4k_grid

>  <i_i_glide_lignum>  (39) 
41

>  <i_i_glide_rotatable_bonds>  (39) 
2

>  <r_i_docking_score>  (39) 
-3.57798

>  <r_i_glide_ligand_efficiency>  (39) 
-0.123379

>  <r_i_glide_ligand_efficiency_sa>  (39) 
-0.379058

>  <r_i_glide_ligand_efficiency_ln>  (39) 
-0.819266

>  <r_i_glide_gscore>  (39) 
-3.57798

>  <r_i_glide_lipo>  (39) 
-0.54425

>  <r_i_glide_hbond>  (39) 
-0.228236

>  <r_i_glide_metal>  (39) 
-0

>  <r_i_glide_rewards>  (39) 
-0.772506

>  <r_i_glide_evdw>  (39) 
-34.2982

>  <r_i_glide_ecoul>  (39) 
-3.66334

>  <r_i_glide_erotb>  (39) 
0.240163

>  <r_i_glide_esite>  (39) 
-0.00873619

>  <r_i_glide_emodel>  (39) 
-43.5755

>  <r_i_glide_energy>  (39) 
-37.9616

>  <r_i_glide_einternal>  (39) 
5.42814

>  <r_i_glide_intrahb_reward>  (39) 
-0

>  <i_i_glide_confnum>  (39) 
4

>  <i_i_glide_posenum>  (39) 
10

>  <r_i_glide_eff_state_penalty>  (39) 
0

>  <ligand_id>  (39) 
31

>  <original_smiles>  (39) 
CC1OC(OC2C=C3C=C4OC3CC4(C)C23CO3)C2C1OC1COC(C)(C)OC12

>  <smiles>  (39) 
[H]C1=C2OC3([H])C1=C([H])C([H])(OC1([H])OC([H])(C([H])([H])[H])C4([H])OC5([H])C([H])([H])OC(C([H])([H])[H])(C([H])([H])[H])OC5([H])C14[H])C1(OC1([H])[H])C2(C([H])([H])[H])C3([H])[H]

$$$$
31:0:1
     RDKit          3D

 57 63  0  0  1  0  0  0  0  0999 V2000
    7.0086   -5.4118    1.8786 C   0  0  0  0  0  0  0  0  0  0  0  0
    5.5638   -4.9180    1.8709 C   0  0  2  0  0  0  0  0  0  0  0  0
    4.7507   -6.0502    1.5280 O   0  0  0  0  0  0  0  0  0  0  0  0
    3.7017   -5.7052    0.6579 C   0  0  1  0  0  0  0  0  0  0  0  0
    2.4296   -6.2285    1.0018 O   0  0  0  0  0  0  0  0  0  0  0  0
    2.2957   -6.9438    2.2318 C   0  0  2  0  0  0  0  0  0  0  0  0
    3.1973   -8.1837    2.2661 C   0  0  0  0  0  0  0  0  0  0  0  0
    2.9392   -9.2451    3.0503 C   0  0  0  0  0  0  0  0  0  0  0  0
    1.8339  -10.0010    2.5041 C   0  0  0  0  0  0  0  0  0  0  0  0
    0.8809   -9.8327    3.4106 C   0  0  0  0  0  0  0  0  0  0  0  0
    1.5009  -10.0453    4.5934 O   0  0  0  0  0  0  0  0  0  0  0  0
    2.5251   -9.0866    4.5098 C   0  0  2  0  0  0  0  0  0  0  0  0
    1.4945   -7.9793    4.7899 C   0  0  0  0  0  0  0  0  0  0  0  0
    0.5067   -8.3186    3.6398 C   0  0  2  0  0  0  0  0  0  0  0  0
   -0.9572   -8.2308    4.1315 C   0  0  0  0  0  0  0  0  0  0  0  0
    0.8091   -7.3799    2.4195 C   0  0  2  0  0  0  0  0  0  0  0  0
   -0.1689   -7.2721    1.2745 C   0  0  0  0  0  0  0  0  0  0  0  0
   -0.1178   -6.2897    2.2995 O   0  0  0  0  0  0  0  0  0  0  0  0
    3.7206   -4.1891    0.7221 C   0  0  1  0  0  0  0  0  0  0  0  0
    5.1958   -3.9519    0.7606 C   0  0  1  0  0  0  0  0  0  0  0  0
    5.2203   -2.5447    0.8691 O   0  0  0  0  0  0  0  0  0  0  0  0
    4.1945   -2.0761   -0.0298 C   0  0  1  0  0  0  0  0  0  0  0  0
    4.7540   -1.2433   -1.1987 C   0  0  0  0  0  0  0  0  0  0  0  0
    5.0288   -2.0319   -2.3490 O   0  0  0  0  0  0  0  0  0  0  0  0
    4.0317   -2.9432   -2.7004 C   0  0  0  0  0  0  0  0  0  0  0  0
    2.7343   -2.2251   -3.1318 C   0  0  0  0  0  0  0  0  0  0  0  0
    4.5773   -3.7700   -3.8637 C   0  0  0  0  0  0  0  0  0  0  0  0
    3.7935   -3.8451   -1.6681 O   0  0  0  0  0  0  0  0  0  0  0  0
    3.3368   -3.3039   -0.4408 C   0  0  1  0  0  0  0  0  0  0  0  0
    7.7151   -4.6068    2.0760 H   0  0  0  0  0  0  0  0  0  0  0  0
    7.2607   -5.8647    0.9199 H   0  0  0  0  0  0  0  0  0  0  0  0
    7.1446   -6.1768    2.6415 H   0  0  0  0  0  0  0  0  0  0  0  0
    5.2575   -4.5246    2.8413 H   0  0  0  0  0  0  0  0  0  0  0  0
    3.9639   -6.0831   -0.3315 H   0  0  0  0  0  0  0  0  0  0  0  0
    2.5686   -6.2476    3.0217 H   0  0  0  0  0  0  0  0  0  0  0  0
    3.3711   -8.4252    1.2318 H   0  0  0  0  0  0  0  0  0  0  0  0
    1.6321   -9.8738    1.4509 H   0  0  0  0  0  0  0  0  0  0  0  0
    3.3217   -9.2061    5.2411 H   0  0  0  0  0  0  0  0  0  0  0  0
    1.0478   -8.1417    5.7672 H   0  0  0  0  0  0  0  0  0  0  0  0
    1.8815   -6.9594    4.8181 H   0  0  0  0  0  0  0  0  0  0  0  0
   -1.2279   -7.2183    4.4515 H   0  0  0  0  0  0  0  0  0  0  0  0
   -1.1203   -8.8873    4.9891 H   0  0  0  0  0  0  0  0  0  0  0  0
   -1.6683   -8.5484    3.3616 H   0  0  0  0  0  0  0  0  0  0  0  0
    0.1847   -6.9621    0.2989 H   0  0  0  0  0  0  0  0  0  0  0  0
   -1.0225   -7.9499    1.2805 H   0  0  0  0  0  0  0  0  0  0  0  0
    3.2342   -3.8549    1.6458 H   0  0  0  0  0  0  0  0  0  0  0  0
    5.6816   -4.2520   -0.1691 H   0  0  0  0  0  0  0  0  0  0  0  0
    3.5853   -1.4158    0.5865 H   0  0  0  0  0  0  0  0  0  0  0  0
    4.0591   -0.4442   -1.4627 H   0  0  0  0  0  0  0  0  0  0  0  0
    5.6746   -0.7538   -0.8845 H   0  0  0  0  0  0  0  0  0  0  0  0
    2.3167   -1.6247   -2.3282 H   0  0  0  0  0  0  0  0  0  0  0  0
    1.9785   -2.9523   -3.4333 H   0  0  0  0  0  0  0  0  0  0  0  0
    2.9250   -1.5592   -3.9781 H   0  0  0  0  0  0  0  0  0  0  0  0
    5.5037   -4.2550   -3.5628 H   0  0  0  0  0  0  0  0  0  0  0  0
    4.7461   -3.1181   -4.7145 H   0  0  0  0  0  0  0  0  0  0  0  0
    3.8557   -4.5237   -4.1717 H   0  0  0  0  0  0  0  0  0  0  0  0
    2.2670   -3.0854   -0.4808 H   0  0  0  0  0  0  0  0  0  0  0  0
  1  2  1  0
  1 30  1  0
  1 31  1  0
  1 32  1  0
  2 20  1  0
  2  3  1  0
  2 33  1  1
  3  4  1  0
  4  5  1  0
  4 19  1  0
  4 34  1  6
  5  6  1  0
  6 16  1  0
  6  7  1  0
  6 35  1  1
  7  8  2  0
  7 36  1  0
  8 12  1  0
  8  9  1  0
  9 10  2  0
  9 37  1  0
 10 14  1  0
 10 11  1  0
 11 12  1  0
 12 13  1  0
 12 38  1  1
 13 14  1  0
 13 39  1  0
 13 40  1  0
 14 15  1  1
 14 16  1  0
 15 41  1  0
 15 42  1  0
 15 43  1  0
 16 18  1  1
 16 17  1  0
 17 18  1  0
 17 44  1  0
 17 45  1  0
 19 29  1  0
 19 20  1  0
 19 46  1  1
 20 21  1  0
 20 47  1  6
 21 22  1  0
 22 29  1  0
 22 23  1  0
 22 48  1  1
 23 24  1  0
 23 49  1  0
 23 50  1  0
 24 25  1  0
 25 26  1  0
 25 27  1  0
 25 28  1  0
 26 51  1  0
 26 52  1  0
 26 53  1  0
 27 54  1  0
 27 55  1  0
 27 56  1  0
 28 29  1  0
 29 57  1  6
M  END
>  <i_m_ct_stereo_status>  (40) 
1

>  <s_m_source_file>  (40) 
/var/tmp/pbs.5076253.sched01/tmpeppn20qa/07bjoayft.sdf

>  <i_m_source_file_index>  (40) 
41

>  <i_lp_mmshare_version>  (40) 
48012

>  <i_f3d_flags>  (40) 
0

>  <s_epik_input>  (40) 
W0NIMl0xT0MoW0NIM10pKFtDSDNdKU9bQ0BASF0yW0NASF0xT1tDQEhdKFtDQEBIXTIzKVtDQEhdKFtDSDNdKU9bQ0BIXTNPW0NAQEhdNFtDSF09QyhbQ0BIXShPNSlbQ0gyXTYpW0NIXT1DNVtDQF02KFtDSDNdKVtDQF00N1tDSDJdTzc=

>  <s_epik_cmdline>  (40) 
J2VwaWtfcHl0aG9uJywgJy1waHQnLCAnMi4wJywgJy1waCcsICc3LjAnLCAnLXRuJywgJzgnLCAnLW1hJywgJzIwMCcsICctaW1hZScsICc8aW5maWxlLm1hZT4nLCAnLW9tYWUnLCAnPG91dGZpbGUubWFlPic=

>  <r_lp_tautomer_probability>  (40) 
1

>  <r_epik_Ionization_Penalty>  (40) 
3.90202e-13

>  <r_epik_Ionization_Penalty_Charging>  (40) 
0

>  <r_epik_Ionization_Penalty_Neutral>  (40) 
3.90202e-13

>  <r_epik_State_Penalty>  (40) 
-0

>  <r_epik_Charging_Adjusted_Penalty>  (40) 
0

>  <i_epik_Tot_Q>  (40) 
0

>  <i_epik_Tot_abs_Q>  (40) 
0

>  <s_epik_Chemistry_Notes>  (40) 
This compound contains an acetal/aminal-like group ( X-CH(R)-Y where X, Y are N, S, or O) that may be acid/base labile, releasing an aldehyde.

>  <s_lp_Force_Field>  (40) 
OPLS3e

>  <r_lp_Energy>  (40) 
138.938

>  <b_lp_Chiralities_Consistent>  (40) 
1

>  <s_lp_Variant>  (40) 
31:0-1

>  <s_i_glide_gridfile>  (40) 
pfpi4k_grid

>  <i_i_glide_lignum>  (40) 
41

>  <i_i_glide_rotatable_bonds>  (40) 
2

>  <r_i_docking_score>  (40) 
-3.16968

>  <r_i_glide_ligand_efficiency>  (40) 
-0.109299

>  <r_i_glide_ligand_efficiency_sa>  (40) 
-0.335802

>  <r_i_glide_ligand_efficiency_ln>  (40) 
-0.725776

>  <r_i_glide_gscore>  (40) 
-3.16968

>  <r_i_glide_lipo>  (40) 
-0.341678

>  <r_i_glide_hbond>  (40) 
-0.205325

>  <r_i_glide_metal>  (40) 
-0

>  <r_i_glide_rewards>  (40) 
-0.677876

>  <r_i_glide_evdw>  (40) 
-33.5308

>  <r_i_glide_ecoul>  (40) 
-3.35001

>  <r_i_glide_erotb>  (40) 
0.240163

>  <r_i_glide_esite>  (40) 
-0.00591823

>  <r_i_glide_emodel>  (40) 
-40.9641

>  <r_i_glide_energy>  (40) 
-36.8809

>  <r_i_glide_einternal>  (40) 
6.23831

>  <r_i_glide_intrahb_reward>  (40) 
-0

>  <i_i_glide_confnum>  (40) 
4

>  <i_i_glide_posenum>  (40) 
37

>  <r_i_glide_eff_state_penalty>  (40) 
0

>  <ligand_id>  (40) 
31

>  <original_smiles>  (40) 
CC1OC(OC2C=C3C=C4OC3CC4(C)C23CO3)C2C1OC1COC(C)(C)OC12

>  <smiles>  (40) 
[H]C1=C2OC3([H])C1=C([H])C([H])(OC1([H])OC([H])(C([H])([H])[H])C4([H])OC5([H])C([H])([H])OC(C([H])([H])[H])(C([H])([H])[H])OC5([H])C14[H])C1(OC1([H])[H])C2(C([H])([H])[H])C3([H])[H]

$$$$
31:0:2
     RDKit          3D

 57 63  0  0  1  0  0  0  0  0999 V2000
    3.5763   -2.0288    5.1118 C   0  0  0  0  0  0  0  0  0  0  0  0
    2.8600   -2.4422    3.8209 C   0  0  2  0  0  0  0  0  0  0  0  0
    2.6712   -3.8749    3.7953 O   0  0  0  0  0  0  0  0  0  0  0  0
    3.0410   -4.4164    2.5463 C   0  0  1  0  0  0  0  0  0  0  0  0
    2.1297   -5.3704    2.0755 O   0  0  0  0  0  0  0  0  0  0  0  0
    1.9511   -6.5429    2.8919 C   0  0  2  0  0  0  0  0  0  0  0  0
    3.2180   -7.3945    2.9400 C   0  0  0  0  0  0  0  0  0  0  0  0
    3.1360   -8.7179    3.1739 C   0  0  0  0  0  0  0  0  0  0  0  0
    2.6335   -9.4331    2.0244 C   0  0  0  0  0  0  0  0  0  0  0  0
    1.4520   -9.8879    2.4740 C   0  0  0  0  0  0  0  0  0  0  0  0
    1.7543  -10.4472    3.6700 O   0  0  0  0  0  0  0  0  0  0  0  0
    2.3042   -9.3300    4.3130 C   0  0  2  0  0  0  0  0  0  0  0  0
    0.8940   -8.7291    4.4532 C   0  0  0  0  0  0  0  0  0  0  0  0
    0.4812   -8.7734    2.9655 C   0  0  2  0  0  0  0  0  0  0  0  0
   -0.9822   -9.2512    2.8001 C   0  0  0  0  0  0  0  0  0  0  0  0
    0.7383   -7.3614    2.3323 C   0  0  2  0  0  0  0  0  0  0  0  0
    0.1752   -7.0418    0.9796 C   0  0  0  0  0  0  0  0  0  0  0  0
   -0.4483   -6.5723    2.1781 O   0  0  0  0  0  0  0  0  0  0  0  0
    2.9994   -3.1816    1.6590 C   0  0  1  0  0  0  0  0  0  0  0  0
    3.6708   -2.2006    2.5541 C   0  0  1  0  0  0  0  0  0  0  0  0
    3.5936   -1.0367    1.7565 O   0  0  0  0  0  0  0  0  0  0  0  0
    3.8661   -1.4642    0.4079 C   0  0  1  0  0  0  0  0  0  0  0  0
    5.1569   -0.8603   -0.1703 C   0  0  0  0  0  0  0  0  0  0  0  0
    6.3019   -1.6804    0.0381 O   0  0  0  0  0  0  0  0  0  0  0  0
    6.1295   -3.0389   -0.2306 C   0  0  0  0  0  0  0  0  0  0  0  0
    5.8514   -3.2715   -1.7369 C   0  0  0  0  0  0  0  0  0  0  0  0
    7.4272   -3.7236    0.2117 C   0  0  0  0  0  0  0  0  0  0  0  0
    5.1169   -3.5968    0.5500 O   0  0  0  0  0  0  0  0  0  0  0  0
    3.8230   -3.0181    0.3992 C   0  0  1  0  0  0  0  0  0  0  0  0
    3.7409   -0.9511    5.1508 H   0  0  0  0  0  0  0  0  0  0  0  0
    4.5478   -2.5182    5.1935 H   0  0  0  0  0  0  0  0  0  0  0  0
    2.9908   -2.3106    5.9873 H   0  0  0  0  0  0  0  0  0  0  0  0
    1.8871   -1.9560    3.7450 H   0  0  0  0  0  0  0  0  0  0  0  0
    4.0481   -4.8293    2.6163 H   0  0  0  0  0  0  0  0  0  0  0  0
    1.7060   -6.2025    3.8970 H   0  0  0  0  0  0  0  0  0  0  0  0
    3.7459   -7.1568    2.0277 H   0  0  0  0  0  0  0  0  0  0  0  0
    2.7054   -8.9743    1.0471 H   0  0  0  0  0  0  0  0  0  0  0  0
    2.8402   -9.5640    5.2295 H   0  0  0  0  0  0  0  0  0  0  0  0
    0.2761   -9.3937    5.0605 H   0  0  0  0  0  0  0  0  0  0  0  0
    0.8360   -7.7591    4.9492 H   0  0  0  0  0  0  0  0  0  0  0  0
   -1.6930   -8.5669    3.2719 H   0  0  0  0  0  0  0  0  0  0  0  0
   -1.1146  -10.2259    3.2750 H   0  0  0  0  0  0  0  0  0  0  0  0
   -1.2656   -9.3755    1.7539 H   0  0  0  0  0  0  0  0  0  0  0  0
    0.6519   -6.2820    0.3627 H   0  0  0  0  0  0  0  0  0  0  0  0
   -0.3627   -7.8235    0.4525 H   0  0  0  0  0  0  0  0  0  0  0  0
    1.9601   -2.8883    1.4841 H   0  0  0  0  0  0  0  0  0  0  0  0
    4.7250   -2.4337    2.7202 H   0  0  0  0  0  0  0  0  0  0  0  0
    3.0324   -1.0843   -0.1820 H   0  0  0  0  0  0  0  0  0  0  0  0
    5.0423   -0.6710   -1.2395 H   0  0  0  0  0  0  0  0  0  0  0  0
    5.3424    0.1135    0.2840 H   0  0  0  0  0  0  0  0  0  0  0  0
    4.9395   -2.7797   -2.0690 H   0  0  0  0  0  0  0  0  0  0  0  0
    5.7296   -4.3353   -1.9177 H   0  0  0  0  0  0  0  0  0  0  0  0
    6.6846   -2.9055   -2.3364 H   0  0  0  0  0  0  0  0  0  0  0  0
    7.6010   -3.5285    1.2711 H   0  0  0  0  0  0  0  0  0  0  0  0
    8.2740   -3.3442   -0.3629 H   0  0  0  0  0  0  0  0  0  0  0  0
    7.3454   -4.8010    0.0735 H   0  0  0  0  0  0  0  0  0  0  0  0
    3.3165   -3.4258   -0.4763 H   0  0  0  0  0  0  0  0  0  0  0  0
  1  2  1  0
  1 30  1  0
  1 31  1  0
  1 32  1  0
  2 20  1  0
  2  3  1  0
  2 33  1  6
  3  4  1  0
  4  5  1  0
  4 19  1  0
  4 34  1  1
  5  6  1  0
  6 16  1  0
  6  7  1  0
  6 35  1  1
  7  8  2  0
  7 36  1  0
  8 12  1  0
  8  9  1  0
  9 10  2  0
  9 37  1  0
 10 14  1  0
 10 11  1  0
 11 12  1  0
 12 13  1  0
 12 38  1  1
 13 14  1  0
 13 39  1  0
 13 40  1  0
 14 15  1  1
 14 16  1  0
 15 41  1  0
 15 42  1  0
 15 43  1  0
 16 18  1  1
 16 17  1  0
 17 18  1  0
 17 44  1  0
 17 45  1  0
 19 29  1  0
 19 20  1  0
 19 46  1  6
 20 21  1  0
 20 47  1  1
 21 22  1  0
 22 29  1  0
 22 23  1  0
 22 48  1  6
 23 24  1  0
 23 49  1  0
 23 50  1  0
 24 25  1  0
 25 26  1  0
 25 27  1  0
 25 28  1  0
 26 51  1  0
 26 52  1  0
 26 53  1  0
 27 54  1  0
 27 55  1  0
 27 56  1  0
 28 29  1  0
 29 57  1  6
M  END
>  <i_m_ct_stereo_status>  (41) 
1

>  <s_m_source_file>  (41) 
/var/tmp/pbs.5076253.sched01/tmpeppn20qa/07bjoayft.sdf

>  <i_m_source_file_index>  (41) 
41

>  <i_lp_mmshare_version>  (41) 
48012

>  <i_f3d_flags>  (41) 
0

>  <s_epik_input>  (41) 
W0NIMl0xT0MoW0NIM10pKFtDSDNdKU9bQ0BASF0yW0NASF0xT1tDQEhdKFtDQEBIXTIzKVtDQEhdKFtDSDNdKU9bQ0BIXTNPW0NAQEhdNFtDSF09QyhbQ0BIXShPNSlbQ0gyXTYpW0NIXT1DNVtDQF02KFtDSDNdKVtDQF00N1tDSDJdTzc=

>  <s_epik_cmdline>  (41) 
J2VwaWtfcHl0aG9uJywgJy1waHQnLCAnMi4wJywgJy1waCcsICc3LjAnLCAnLXRuJywgJzgnLCAnLW1hJywgJzIwMCcsICctaW1hZScsICc8aW5maWxlLm1hZT4nLCAnLW9tYWUnLCAnPG91dGZpbGUubWFlPic=

>  <r_lp_tautomer_probability>  (41) 
1

>  <r_epik_Ionization_Penalty>  (41) 
3.90202e-13

>  <r_epik_Ionization_Penalty_Charging>  (41) 
0

>  <r_epik_Ionization_Penalty_Neutral>  (41) 
3.90202e-13

>  <r_epik_State_Penalty>  (41) 
-0

>  <r_epik_Charging_Adjusted_Penalty>  (41) 
0

>  <i_epik_Tot_Q>  (41) 
0

>  <i_epik_Tot_abs_Q>  (41) 
0

>  <s_epik_Chemistry_Notes>  (41) 
This compound contains an acetal/aminal-like group ( X-CH(R)-Y where X, Y are N, S, or O) that may be acid/base labile, releasing an aldehyde.

>  <s_lp_Force_Field>  (41) 
OPLS3e

>  <r_lp_Energy>  (41) 
138.938

>  <b_lp_Chiralities_Consistent>  (41) 
1

>  <s_lp_Variant>  (41) 
31:0-1

>  <s_i_glide_gridfile>  (41) 
pfpi4k_grid

>  <i_i_glide_lignum>  (41) 
41

>  <i_i_glide_rotatable_bonds>  (41) 
2

>  <r_i_docking_score>  (41) 
-3.14213

>  <r_i_glide_ligand_efficiency>  (41) 
-0.108349

>  <r_i_glide_ligand_efficiency_sa>  (41) 
-0.332884

>  <r_i_glide_ligand_efficiency_ln>  (41) 
-0.719469

>  <r_i_glide_gscore>  (41) 
-3.14213

>  <r_i_glide_lipo>  (41) 
-0.444788

>  <r_i_glide_hbond>  (41) 
-0.164323

>  <r_i_glide_metal>  (41) 
-0

>  <r_i_glide_rewards>  (41) 
-0.718329

>  <r_i_glide_evdw>  (41) 
-29.7441

>  <r_i_glide_ecoul>  (41) 
-3.77951

>  <r_i_glide_erotb>  (41) 
0.240163

>  <r_i_glide_esite>  (41) 
-0.000722864

>  <r_i_glide_emodel>  (41) 
-40.9312

>  <r_i_glide_energy>  (41) 
-33.5236

>  <r_i_glide_einternal>  (41) 
0.144615

>  <r_i_glide_intrahb_reward>  (41) 
-0

>  <i_i_glide_confnum>  (41) 
2

>  <i_i_glide_posenum>  (41) 
19

>  <r_i_glide_eff_state_penalty>  (41) 
0

>  <ligand_id>  (41) 
31

>  <original_smiles>  (41) 
CC1OC(OC2C=C3C=C4OC3CC4(C)C23CO3)C2C1OC1COC(C)(C)OC12

>  <smiles>  (41) 
[H]C1=C2OC3([H])C1=C([H])C([H])(OC1([H])OC([H])(C([H])([H])[H])C4([H])OC5([H])C([H])([H])OC(C([H])([H])[H])(C([H])([H])[H])OC5([H])C14[H])C1(OC1([H])[H])C2(C([H])([H])[H])C3([H])[H]

$$$$
33:0:0
     RDKit          3D

 86 96  0  0  1  0  0  0  0  0999 V2000
    2.7602    3.7025    3.0643 C   0  0  0  0  0  0  0  0  0  0  0  0
    2.9366    2.7462    4.0974 O   0  0  0  0  0  0  0  0  0  0  0  0
    2.1782    1.5680    3.9031 C   0  0  2  0  0  0  0  0  0  0  0  0
    1.7137    0.9745    5.2695 C   0  0  2  0  0  0  0  0  0  0  0  0
    0.3636    1.3731    5.5027 O   0  0  0  0  0  0  0  0  0  0  0  0
    0.3879    2.5013    6.3881 C   0  0  2  0  0  0  0  0  0  0  0  0
    1.7113    2.3622    7.1100 C   0  0  0  0  0  0  0  0  0  0  0  0
    2.4441    1.4491    6.4777 C   0  0  0  0  0  0  0  0  0  0  0  0
    3.6876    0.6435    6.9052 C   0  0  2  0  0  0  0  0  0  0  0  0
    4.3010    1.2233    8.0271 O   0  0  0  0  0  0  0  0  0  0  0  0
    4.7274    0.5514    5.7593 C   0  0  0  0  0  0  0  0  0  0  0  0
    4.4119   -0.3209    4.4965 C   0  0  2  0  0  0  0  0  0  0  0  0
    5.3915   -1.3083    4.3897 O   0  0  0  0  0  0  0  0  0  0  0  0
    4.4319    0.6061    3.4094 O   0  0  0  0  0  0  0  0  0  0  0  0
    3.0009    0.4573    3.2133 C   0  0  2  0  0  0  0  0  0  0  0  0
    2.6103    0.3232    1.8528 O   0  0  0  0  0  0  0  0  0  0  0  0
    2.9819   -0.7842    4.1073 C   0  0  1  0  0  0  0  0  0  0  0  0
    2.7903   -2.1738    3.4442 C   0  0  2  0  0  0  0  0  0  0  0  0
    1.6250   -2.4432    2.5350 C   0  0  0  0  0  0  0  0  0  0  0  0
    1.7534   -3.2584    3.8163 C   0  0  2  0  0  0  0  0  0  0  0  0
    0.6244   -3.2689    4.9097 C   0  0  1  0  0  0  0  0  0  0  0  0
   -0.4555   -2.4471    4.6100 O   0  0  0  0  0  0  0  0  0  0  0  0
   -1.0171   -1.7521    5.6553 C   0  0  0  0  0  0  0  0  0  0  0  0
   -2.1107   -0.7946    5.1949 C   0  0  0  0  0  0  0  0  0  0  0  0
   -0.6981   -1.8243    6.8214 O   0  0  0  0  0  0  0  0  0  0  0  0
    0.2332   -4.5390    5.0961 O   0  0  0  0  0  0  0  0  0  0  0  0
    0.8927   -5.3656    4.2658 C   0  0  0  0  0  0  0  0  0  0  0  0
    0.2387   -6.3987    3.7220 C   0  0  0  0  0  0  0  0  0  0  0  0
    0.7691   -7.0193    2.5074 C   0  0  0  0  0  0  0  0  0  0  0  0
    0.2646   -8.0473    2.0867 O   0  0  0  0  0  0  0  0  0  0  0  0
    1.8938   -6.3560    1.8159 C   0  0  0  0  0  0  0  0  0  0  0  0
    2.5175   -5.2969    2.3787 C   0  0  0  0  0  0  0  0  0  0  0  0
    2.1553   -4.7122    3.7605 C   0  0  1  0  0  0  0  0  0  0  0  0
    3.3208   -5.0119    4.7302 C   0  0  0  0  0  0  0  0  0  0  0  0
    1.9434   -0.5245    5.1664 C   0  0  1  0  0  0  0  0  0  0  0  0
    2.3002   -1.1992    6.5420 C   0  0  0  0  0  0  0  0  0  0  0  0
    3.3858   -0.6590    7.2084 O   0  0  0  0  0  0  0  0  0  0  0  0
   -0.8984    2.4925    7.2838 C   0  0  0  0  0  0  0  0  0  0  0  0
   -1.6192    3.8534    7.0702 C   0  0  1  0  0  0  0  0  0  0  0  0
   -2.3232    4.4296    8.3075 C   0  0  0  0  0  0  0  0  0  0  0  0
   -0.4406    4.6979    6.6189 C   0  0  1  0  0  0  0  0  0  0  0  0
    0.4344    5.0299    7.6682 O   0  0  0  0  0  0  0  0  0  0  0  0
    1.2906    5.9871    7.0491 C   0  0  0  0  0  0  0  0  0  0  0  0
    0.7809    5.9265    5.6295 C   0  0  1  0  0  0  0  0  0  0  0  0
    1.0977    7.0863    4.6697 C   0  0  0  0  0  0  0  0  0  0  0  0
    1.2363    4.6936    5.1497 O   0  0  0  0  0  0  0  0  0  0  0  0
    0.2369    3.8209    5.6197 C   0  0  1  0  0  0  0  0  0  0  0  0
   -0.5924    5.8070    5.8525 O   0  0  0  0  0  0  0  0  0  0  0  0
    3.3659    4.5686    3.3115 H   0  0  0  0  0  0  0  0  0  0  0  0
    1.7237    4.0277    2.9842 H   0  0  0  0  0  0  0  0  0  0  0  0
    3.0284    3.3294    2.0833 H   0  0  0  0  0  0  0  0  0  0  0  0
    1.2542    1.7676    3.3443 H   0  0  0  0  0  0  0  0  0  0  0  0
    1.9306    2.8163    8.0581 H   0  0  0  0  0  0  0  0  0  0  0  0
    5.1384    0.7855    8.0826 H   0  0  0  0  0  0  0  0  0  0  0  0
    4.8909    1.5782    5.4535 H   0  0  0  0  0  0  0  0  0  0  0  0
    5.6494    0.1974    6.2056 H   0  0  0  0  0  0  0  0  0  0  0  0
    5.4223   -1.5713    3.4886 H   0  0  0  0  0  0  0  0  0  0  0  0
    1.6660    0.4204    1.7973 H   0  0  0  0  0  0  0  0  0  0  0  0
    3.7370   -2.5419    3.0148 H   0  0  0  0  0  0  0  0  0  0  0  0
    0.8654   -1.6715    2.4786 H   0  0  0  0  0  0  0  0  0  0  0  0
    1.8243   -2.9408    1.5792 H   0  0  0  0  0  0  0  0  0  0  0  0
    1.0152   -3.0652    5.9109 H   0  0  0  0  0  0  0  0  0  0  0  0
   -1.7271   -0.1359    4.4236 H   0  0  0  0  0  0  0  0  0  0  0  0
   -2.4629   -0.1997    6.0372 H   0  0  0  0  0  0  0  0  0  0  0  0
   -2.9130   -1.4284    4.8222 H   0  0  0  0  0  0  0  0  0  0  0  0
   -0.7500   -6.6398    4.0862 H   0  0  0  0  0  0  0  0  0  0  0  0
    2.2032   -6.7383    0.8585 H   0  0  0  0  0  0  0  0  0  0  0  0
    3.3369   -4.8286    1.8367 H   0  0  0  0  0  0  0  0  0  0  0  0
    3.4822   -6.0951    4.8065 H   0  0  0  0  0  0  0  0  0  0  0  0
    3.1011   -4.6543    5.7330 H   0  0  0  0  0  0  0  0  0  0  0  0
    4.2639   -4.5611    4.4161 H   0  0  0  0  0  0  0  0  0  0  0  0
    1.0331   -0.7674    4.6579 H   0  0  0  0  0  0  0  0  0  0  0  0
    1.4944   -1.1235    7.2493 H   0  0  0  0  0  0  0  0  0  0  0  0
    2.6340   -2.2546    6.4627 H   0  0  0  0  0  0  0  0  0  0  0  0
   -1.5542    1.6695    7.0302 H   0  0  0  0  0  0  0  0  0  0  0  0
   -0.6169    2.3650    8.3298 H   0  0  0  0  0  0  0  0  0  0  0  0
   -2.3287    3.7681    6.2402 H   0  0  0  0  0  0  0  0  0  0  0  0
   -1.6307    4.5138    9.1455 H   0  0  0  0  0  0  0  0  0  0  0  0
   -3.1493    3.7849    8.6191 H   0  0  0  0  0  0  0  0  0  0  0  0
   -2.7270    5.4171    8.1022 H   0  0  0  0  0  0  0  0  0  0  0  0
    1.1400    6.9807    7.4593 H   0  0  0  0  0  0  0  0  0  0  0  0
    2.3331    5.7197    7.0890 H   0  0  0  0  0  0  0  0  0  0  0  0
    0.5988    6.9183    3.7141 H   0  0  0  0  0  0  0  0  0  0  0  0
    2.1650    7.1421    4.5093 H   0  0  0  0  0  0  0  0  0  0  0  0
    0.7405    8.0282    5.0899 H   0  0  0  0  0  0  0  0  0  0  0  0
   -0.4629    3.6521    4.7940 H   0  0  0  0  0  0  0  0  0  0  0  0
  1  2  1  0
  1 49  1  0
  1 50  1  0
  1 51  1  0
  2  3  1  0
  3 15  1  0
  3  4  1  0
  3 52  1  6
  4  8  1  0
  4 35  1  0
  4  5  1  1
  6  5  1  6
  6 47  1  0
  6  7  1  0
  6 38  1  0
  7  8  2  0
  7 53  1  0
  8  9  1  0
  9 37  1  0
  9 10  1  1
  9 11  1  0
 10 54  1  0
 11 12  1  0
 11 55  1  0
 11 56  1  0
 17 12  1  1
 12 13  1  6
 12 14  1  0
 13 57  1  0
 14 15  1  0
 15 16  1  6
 15 17  1  0
 16 58  1  0
 17 18  1  0
 17 35  1  0
 18 20  1  0
 18 19  1  0
 18 59  1  6
 20 19  1  6
 19 60  1  0
 19 61  1  0
 20 33  1  0
 20 21  1  0
 21 22  1  0
 21 26  1  0
 21 62  1  1
 22 23  1  0
 23 24  1  0
 23 25  2  0
 24 63  1  0
 24 64  1  0
 24 65  1  0
 26 27  1  0
 27 33  1  0
 27 28  2  0
 28 29  1  0
 28 66  1  0
 29 30  2  0
 29 31  1  0
 31 32  2  0
 31 67  1  0
 32 33  1  0
 32 68  1  0
 33 34  1  1
 34 69  1  0
 34 70  1  0
 34 71  1  0
 35 36  1  0
 35 72  1  6
 36 37  1  0
 36 73  1  0
 36 74  1  0
 38 39  1  0
 38 75  1  0
 38 76  1  0
 39 40  1  0
 39 41  1  0
 39 77  1  6
 40 78  1  0
 40 79  1  0
 40 80  1  0
 41 47  1  0
 41 48  1  0
 41 42  1  1
 42 43  1  0
 43 44  1  0
 43 81  1  0
 43 82  1  0
 44 45  1  6
 44 46  1  0
 44 48  1  0
 45 83  1  0
 45 84  1  0
 45 85  1  0
 46 47  1  0
 47 86  1  6
M  END
>  <i_m_ct_stereo_status>  (42) 
1

>  <s_m_source_file>  (42) 
/var/tmp/pbs.5076253.sched01/tmpeppn20qa/07bjoayft.sdf

>  <i_m_source_file_index>  (42) 
43

>  <i_lp_mmshare_version>  (42) 
48012

>  <i_f3d_flags>  (42) 
0

>  <s_epik_input>  (42) 
W0NIM11DKD1PKU9bQ0BIXTFPQyg9W0NIXUMoPU8pW0NIXT1bQ0hdMilbQ0BdMihbQ0gzXSlbQ0BdMTNbQ0BASF0oW0NIMl0zKVtDQF0oW0NASF00W0NIMl1PNSkoW0NAQF0oTzYpKFtPSF0pW0NAQEhdN09bQ0gzXSlbQ0BdNihbT0hdKVtDSDJdW0NAQF01KFtPSF0pQyhbQ0BdNDc4KT1bQ0hdW0NAXTkoTzgpW0NASF0xW0NAQF0yKFtDQEBIXShbQ0gyXTkpW0NIM10pT1tDSDJdW0NAQF0oTzEpKE8yKVtDSDNd

>  <s_epik_cmdline>  (42) 
J2VwaWtfcHl0aG9uJywgJy1waHQnLCAnMi4wJywgJy1waCcsICc3LjAnLCAnLXRuJywgJzgnLCAnLW1hJywgJzIwMCcsICctaW1hZScsICc8aW5maWxlLm1hZT4nLCAnLW9tYWUnLCAnPG91dGZpbGUubWFlPic=

>  <r_lp_tautomer_probability>  (42) 
1

>  <r_epik_Ionization_Penalty>  (42) 
0.000948474

>  <r_epik_Ionization_Penalty_Charging>  (42) 
0

>  <r_epik_Ionization_Penalty_Neutral>  (42) 
0.000948474

>  <r_epik_State_Penalty>  (42) 
0.000511542

>  <r_epik_Charging_Adjusted_Penalty>  (42) 
0.000511542

>  <i_epik_Tot_Q>  (42) 
0

>  <i_epik_Tot_abs_Q>  (42) 
0

>  <s_epik_Chemistry_Notes>  (42) 
This compound has an ester and may undergo hydrolysis at high or low pH. This compound contains an acetal/aminal-like group ( X-CH(R)-Y where X, Y are N, S, or O) that may be acid/base labile, releasing an aldehyde.

>  <s_lp_Force_Field>  (42) 
OPLS3e

>  <r_lp_Energy>  (42) 
68.1251

>  <b_lp_Chiralities_Consistent>  (42) 
1

>  <s_lp_Variant>  (42) 
33:0-1

>  <s_i_glide_gridfile>  (42) 
pfpi4k_grid

>  <i_i_glide_lignum>  (42) 
43

>  <i_i_glide_rotatable_bonds>  (42) 
7

>  <r_i_docking_score>  (42) 
-1.4398

>  <r_i_glide_ligand_efficiency>  (42) 
-0.0299959

>  <r_i_glide_ligand_efficiency_sa>  (42) 
-0.109012

>  <r_i_glide_ligand_efficiency_ln>  (42) 
-0.295574

>  <r_i_glide_gscore>  (42) 
-1.4398

>  <r_i_glide_lipo>  (42) 
-0.0923525

>  <r_i_glide_hbond>  (42) 
-0.00062469

>  <r_i_glide_metal>  (42) 
-0

>  <r_i_glide_rewards>  (42) 
-0.0467587

>  <r_i_glide_evdw>  (42) 
-24.8427

>  <r_i_glide_ecoul>  (42) 
-1.04617

>  <r_i_glide_erotb>  (42) 
0.0948057

>  <r_i_glide_esite>  (42) 
-0.116927

>  <r_i_glide_emodel>  (42) 
-19.7994

>  <r_i_glide_energy>  (42) 
-25.8889

>  <r_i_glide_einternal>  (42) 
9.03476

>  <r_i_glide_intrahb_reward>  (42) 
-0

>  <i_i_glide_confnum>  (42) 
5

>  <i_i_glide_posenum>  (42) 
20

>  <r_i_glide_eff_state_penalty>  (42) 
0

>  <ligand_id>  (42) 
33

>  <original_smiles>  (42) 
COC1C23OC4(C=C2C2(O)CC5(O)OC1(O)C5(C1CC15C(OC(C)=O)OC1=CC(=O)C=CC15C)C3CO2)CC(C)C12OCC(C)(OC41)O2

>  <smiles>  (42) 
[H]OC12OC([H])([H])C3([H])C4(OC5(C([H])=C14)C([H])([H])C([H])(C([H])([H])[H])C14OC([H])([H])C(C([H])([H])[H])(OC15[H])O4)C([H])(OC([H])([H])[H])C1(O[H])OC(O[H])(C2([H])[H])C13C1([H])C([H])([H])C12C([H])(OC(=O)C([H])([H])[H])OC1=C([H])C(=O)C([H])=C([H])C12C([H])([H])[H]

$$$$
36:0:0
     RDKit          3D

121132  0  0  1  0  0  0  0  0999 V2000
   -3.1780    3.1616    3.0637 C   0  0  0  0  0  0  0  0  0  0  0  0
   -2.2504    3.1684    4.1488 O   0  0  0  0  0  0  0  0  0  0  0  0
   -0.9422    2.6447    3.8983 C   0  0  2  0  0  0  0  0  0  0  0  0
   -0.9723    1.2062    3.3143 C   0  0  1  0  0  0  0  0  0  0  0  0
   -0.8202    1.1956    1.9109 O   0  0  0  0  0  0  0  0  0  0  0  0
    0.2428    0.7322    4.0633 C   0  0  2  0  0  0  0  0  0  0  0  0
    1.1076   -0.4887    3.4644 C   0  0  0  0  0  0  0  0  0  0  0  0
    2.6706   -0.3348    3.0664 C   0  0  1  0  0  0  0  0  0  0  0  0
    3.6864    0.3765    3.8624 O   0  0  0  0  0  0  0  0  0  0  0  0
    4.2599    0.1382    5.1536 C   0  0  1  0  0  0  0  0  0  0  0  0
    4.6994   -1.1705    5.3915 O   0  0  0  0  0  0  0  0  0  0  0  0
    4.7910   -1.2898    6.7846 C   0  0  1  0  0  0  0  0  0  0  0  0
    4.5572   -2.7313    7.4074 C   0  0  0  0  0  0  0  0  0  0  0  0
    3.3421   -3.7020    7.1541 C   0  0  0  0  0  0  0  0  0  0  0  0
    3.4095   -4.6960    8.3469 C   0  0  0  0  0  0  0  0  0  0  0  0
    1.9377   -3.0929    7.2671 C   0  0  0  0  0  0  0  0  0  0  0  0
    3.4807   -4.6387    5.9150 C   0  0  0  0  0  0  0  0  0  0  0  0
    3.9629   -4.0491    4.5880 C   0  0  0  0  0  0  0  0  0  0  0  0
    5.1473   -3.7362    4.4468 O   0  0  0  0  0  0  0  0  0  0  0  0
    2.9813   -3.9844    3.4056 C   0  0  1  0  0  0  0  0  0  0  0  0
    2.8690   -5.3700    2.7444 C   0  0  0  0  0  0  0  0  0  0  0  0
    1.6786   -3.6818    3.8546 O   0  0  0  0  0  0  0  0  0  0  0  0
    3.4183   -2.9687    2.3604 C   0  0  2  0  0  0  0  0  0  0  0  0
    4.5041   -3.4050    1.5429 O   0  0  0  0  0  0  0  0  0  0  0  0
    5.1835   -2.3197    0.9112 C   0  0  1  0  0  0  0  0  0  0  0  0
    5.2105   -2.5625   -0.6267 C   0  0  0  0  0  0  0  0  0  0  0  0
    6.0995   -3.7647   -0.9902 C   0  0  0  0  0  0  0  0  0  0  0  0
    3.8101   -2.7420   -1.2461 C   0  0  0  0  0  0  0  0  0  0  0  0
    5.8172   -1.4543   -1.2505 O   0  0  0  0  0  0  0  0  0  0  0  0
    4.5096   -1.0204    1.4023 C   0  0  0  0  0  0  0  0  0  0  0  0
    3.3458   -1.4658    2.2509 C   0  0  2  0  0  0  0  0  0  0  0  0
    2.3862   -2.3467    1.6058 O   0  0  0  0  0  0  0  0  0  0  0  0
    6.1282   -1.1364    7.1375 O   0  0  0  0  0  0  0  0  0  0  0  0
    6.5754    0.1284    7.5038 C   0  0  0  0  0  0  0  0  0  0  0  0
    6.5727    1.0696    6.3305 C   0  0  2  0  0  0  0  0  0  0  0  0
    7.9625    1.1427    5.7498 C   0  0  0  0  0  0  0  0  0  0  0  0
    5.7445    2.3194    6.3171 C   0  0  1  0  0  0  0  0  0  0  0  0
    5.4508    1.1417    5.3116 C   0  0  2  0  0  0  0  0  0  0  0  0
    4.9300    2.9578    7.5242 C   0  0  1  0  0  0  0  0  0  0  0  0
    5.7166    2.8796    8.8695 C   0  0  0  0  0  0  0  0  0  0  0  0
    4.8811    4.5133    7.2449 C   0  0  0  0  0  0  0  0  0  0  0  0
    6.1558    5.1267    7.1884 O   0  0  0  0  0  0  0  0  0  0  0  0
    3.4517    2.3744    7.7401 C   0  0  1  0  0  0  0  0  0  0  0  0
    2.6829    3.3222    8.4553 O   0  0  0  0  0  0  0  0  0  0  0  0
    2.6924    1.8482    6.4520 C   0  0  2  0  0  0  0  0  0  0  0  0
    3.1682    2.8452    5.5687 O   0  0  0  0  0  0  0  0  0  0  0  0
    1.0638    2.0160    6.2757 C   0  0  2  0  0  0  0  0  0  0  0  0
    0.4121    0.8098    6.5757 O   0  0  0  0  0  0  0  0  0  0  0  0
   -0.4681    0.4493    5.5885 C   0  0  2  0  0  0  0  0  0  0  0  0
   -0.7839   -0.9246    5.6796 O   0  0  0  0  0  0  0  0  0  0  0  0
   -1.7647    1.2479    6.1765 C   0  0  0  0  0  0  0  0  0  0  0  0
   -1.5807    2.5960    7.0153 C   0  0  2  0  0  0  0  0  0  0  0  0
   -1.7230    2.3461    8.4995 C   0  0  0  0  0  0  0  0  0  0  0  0
   -2.3302    3.7226    6.5183 O   0  0  0  0  0  0  0  0  0  0  0  0
   -0.9200    3.9845    6.6074 C   0  0  2  0  0  0  0  0  0  0  0  0
   -0.1195    4.0981    5.3825 O   0  0  0  0  0  0  0  0  0  0  0  0
    0.3195    2.8109    4.9780 C   0  0  2  0  0  0  0  0  0  0  0  0
    1.0411    2.0749    3.8954 C   0  0  0  0  0  0  0  0  0  0  0  0
    3.2505    0.3092    6.2440 C   0  0  1  0  0  0  0  0  0  0  0  0
    2.2689   -0.6117    5.9430 O   0  0  0  0  0  0  0  0  0  0  0  0
    3.9315   -0.2895    7.3266 O   0  0  0  0  0  0  0  0  0  0  0  0
   -4.0798    3.7202    3.2755 H   0  0  0  0  0  0  0  0  0  0  0  0
   -3.4955    2.1489    2.8847 H   0  0  0  0  0  0  0  0  0  0  0  0
   -2.7724    3.5774    2.1381 H   0  0  0  0  0  0  0  0  0  0  0  0
   -0.7200    3.3398    3.0796 H   0  0  0  0  0  0  0  0  0  0  0  0
   -1.8494    0.6167    3.5606 H   0  0  0  0  0  0  0  0  0  0  0  0
   -0.2319    1.8900    1.6370 H   0  0  0  0  0  0  0  0  0  0  0  0
    0.9664   -1.3780    4.0589 H   0  0  0  0  0  0  0  0  0  0  0  0
    0.6152   -0.7819    2.5372 H   0  0  0  0  0  0  0  0  0  0  0  0
    2.5600    0.4163    2.2815 H   0  0  0  0  0  0  0  0  0  0  0  0
    5.4568   -3.3136    7.1922 H   0  0  0  0  0  0  0  0  0  0  0  0
    4.6085   -2.5555    8.4832 H   0  0  0  0  0  0  0  0  0  0  0  0
    2.6707   -5.4955    8.2605 H   0  0  0  0  0  0  0  0  0  0  0  0
    3.2266   -4.2036    9.3034 H   0  0  0  0  0  0  0  0  0  0  0  0
    4.3840   -5.1821    8.4233 H   0  0  0  0  0  0  0  0  0  0  0  0
    1.9279   -2.2237    7.9242 H   0  0  0  0  0  0  0  0  0  0  0  0
    1.2157   -3.8041    7.6681 H   0  0  0  0  0  0  0  0  0  0  0  0
    1.5417   -2.8374    6.2913 H   0  0  0  0  0  0  0  0  0  0  0  0
    4.1915   -5.4332    6.1444 H   0  0  0  0  0  0  0  0  0  0  0  0
    2.5338   -5.1529    5.7449 H   0  0  0  0  0  0  0  0  0  0  0  0
    3.8457   -5.7105    2.3915 H   0  0  0  0  0  0  0  0  0  0  0  0
    2.2146   -5.3367    1.8701 H   0  0  0  0  0  0  0  0  0  0  0  0
    2.4883   -6.1265    3.4350 H   0  0  0  0  0  0  0  0  0  0  0  0
    1.1475   -3.5504    3.0814 H   0  0  0  0  0  0  0  0  0  0  0  0
    6.2159   -2.3207    1.2639 H   0  0  0  0  0  0  0  0  0  0  0  0
    5.7077   -4.6917   -0.5687 H   0  0  0  0  0  0  0  0  0  0  0  0
    7.1204   -3.6396   -0.6257 H   0  0  0  0  0  0  0  0  0  0  0  0
    6.1545   -3.8865   -2.0741 H   0  0  0  0  0  0  0  0  0  0  0  0
    3.3107   -3.6193   -0.8356 H   0  0  0  0  0  0  0  0  0  0  0  0
    3.8681   -2.8898   -2.3261 H   0  0  0  0  0  0  0  0  0  0  0  0
    3.1675   -1.8807   -1.0647 H   0  0  0  0  0  0  0  0  0  0  0  0
    5.2170   -0.7217   -1.1493 H   0  0  0  0  0  0  0  0  0  0  0  0
    5.2202   -0.4536    2.0079 H   0  0  0  0  0  0  0  0  0  0  0  0
    4.1936   -0.3514    0.6038 H   0  0  0  0  0  0  0  0  0  0  0  0
    5.9330    0.4709    8.2944 H   0  0  0  0  0  0  0  0  0  0  0  0
    7.5770    0.0471    7.9295 H   0  0  0  0  0  0  0  0  0  0  0  0
    8.0253    1.8180    4.8946 H   0  0  0  0  0  0  0  0  0  0  0  0
    8.1465    0.1427    5.3734 H   0  0  0  0  0  0  0  0  0  0  0  0
    8.7096    1.4628    6.4843 H   0  0  0  0  0  0  0  0  0  0  0  0
    6.2755    3.1101    5.8086 H   0  0  0  0  0  0  0  0  0  0  0  0
    5.8320    1.3237    4.3139 H   0  0  0  0  0  0  0  0  0  0  0  0
    5.5471    3.7563    9.4961 H   0  0  0  0  0  0  0  0  0  0  0  0
    6.7950    2.8183    8.7118 H   0  0  0  0  0  0  0  0  0  0  0  0
    5.4205    2.0413    9.4980 H   0  0  0  0  0  0  0  0  0  0  0  0
    4.3823    4.7652    6.3149 H   0  0  0  0  0  0  0  0  0  0  0  0
    4.3415    5.0471    8.0257 H   0  0  0  0  0  0  0  0  0  0  0  0
    6.0399    6.0208    6.9007 H   0  0  0  0  0  0  0  0  0  0  0  0
    3.4966    1.5755    8.4757 H   0  0  0  0  0  0  0  0  0  0  0  0
    3.0894    3.4503    9.3015 H   0  0  0  0  0  0  0  0  0  0  0  0
    2.7737    3.6690    5.8223 H   0  0  0  0  0  0  0  0  0  0  0  0
    0.8720    2.5806    7.1729 H   0  0  0  0  0  0  0  0  0  0  0  0
    0.0019   -1.4008    5.4596 H   0  0  0  0  0  0  0  0  0  0  0  0
   -2.5794    1.3182    5.4680 H   0  0  0  0  0  0  0  0  0  0  0  0
   -2.2102    0.5504    6.8850 H   0  0  0  0  0  0  0  0  0  0  0  0
   -0.9231    1.6878    8.8343 H   0  0  0  0  0  0  0  0  0  0  0  0
   -2.6886    1.9163    8.7622 H   0  0  0  0  0  0  0  0  0  0  0  0
   -1.6101    3.2866    9.0323 H   0  0  0  0  0  0  0  0  0  0  0  0
   -0.6805    4.7436    7.3558 H   0  0  0  0  0  0  0  0  0  0  0  0
    2.0679    1.8866    3.9831 H   0  0  0  0  0  0  0  0  0  0  0  0
    1.0784    2.5051    2.8898 H   0  0  0  0  0  0  0  0  0  0  0  0
    2.7105   -1.3647    5.5796 H   0  0  0  0  0  0  0  0  0  0  0  0
  1  2  1  0
  1 62  1  0
  1 63  1  0
  1 64  1  0
  2  3  1  0
  3 57  1  0
  3  4  1  0
  3 65  1  6
  4  5  1  0
  4  6  1  0
  4 66  1  6
  5 67  1  0
  6 49  1  0
  6 58  1  0
  6  7  1  6
  7  8  1  0
  7 68  1  0
  7 69  1  0
  8 31  1  0
  8  9  1  0
  8 70  1  6
 10  9  1  6
 10 38  1  0
 10 59  1  0
 10 11  1  0
 11 12  1  0
 12 61  1  1
 12 13  1  0
 12 33  1  0
 13 14  1  0
 13 71  1  0
 13 72  1  0
 14 15  1  0
 14 16  1  0
 14 17  1  0
 15 73  1  0
 15 74  1  0
 15 75  1  0
 16 76  1  0
 16 77  1  0
 16 78  1  0
 17 18  1  0
 17 79  1  0
 17 80  1  0
 18 19  2  0
 18 20  1  0
 20 21  1  0
 20 22  1  1
 20 23  1  0
 21 81  1  0
 21 82  1  0
 21 83  1  0
 22 84  1  0
 23 31  1  0
 23 32  1  6
 23 24  1  0
 24 25  1  0
 25 26  1  0
 25 30  1  0
 25 85  1  1
 26 27  1  0
 26 28  1  0
 26 29  1  0
 27 86  1  0
 27 87  1  0
 27 88  1  0
 28 89  1  0
 28 90  1  0
 28 91  1  0
 29 92  1  0
 30 31  1  0
 30 93  1  0
 30 94  1  0
 31 32  1  6
 33 34  1  0
 34 35  1  0
 34 95  1  0
 34 96  1  0
 35 38  1  0
 35 36  1  6
 35 37  1  0
 36 97  1  0
 36 98  1  0
 36 99  1  0
 37 38  1  0
 37 39  1  0
 37100  1  6
 38101  1  6
 39 40  1  1
 39 41  1  0
 39 43  1  0
 40102  1  0
 40103  1  0
 40104  1  0
 41 42  1  0
 41105  1  0
 41106  1  0
 42107  1  0
 43 44  1  0
 43 45  1  0
 43108  1  1
 44109  1  0
 45 46  1  6
 45 47  1  0
 45 59  1  0
 46110  1  0
 47 57  1  0
 47 48  1  0
 47111  1  1
 48 49  1  0
 49 50  1  1
 49 51  1  0
 50112  1  0
 51 52  1  0
 51113  1  0
 51114  1  0
 52 55  1  0
 52 53  1  1
 52 54  1  0
 53115  1  0
 53116  1  0
 53117  1  0
 54 55  1  0
 55 56  1  0
 55118  1  1
 57 56  1  1
 57 58  1  0
 58119  1  0
 58120  1  0
 59 60  1  6
 59 61  1  0
 60121  1  0
M  END
>  <i_m_ct_stereo_status>  (43) 
1

>  <s_m_source_file>  (43) 
/var/tmp/pbs.5076253.sched01/tmptd9uf136/47e5u2q_zc.sdf

>  <i_m_source_file_index>  (43) 
3

>  <i_lp_mmshare_version>  (43) 
48012

>  <i_f3d_flags>  (43) 
0

>  <s_epik_input>  (43) 
W0NIMl0xW0NAQF0oTzIpKFtDSDNdKVtDQEhdMk9bQ0BdKFtDSDJdMykoW0NASF0oT1tDSDNdKVtDQEhdNFtPSF0pW0NAQEhdKE9bQ0BAXTEoW0NAXTM0NSlbT0hdKVtDQF02KFtPSF0pW0NAQF03KFtPSF0pW0NAXTg5W0NAQEhdMVtDQEBdKFtDSDNdKShbQ0BASF0xW0NAQF0oW0NIM10pKFtDSDJdW09IXSlbQ0BIXTZbT0hdKVtDSDJdT1tDQF0oTzkpKE83KVtDSDJdQyhbQ0gzXSkoW0NIM10pW0NIMl1DKD1PKVtDQEBdKFtDSDNdKShbT0hdKVtDQEBdMTJbQ0BAXShPMikoW0NASF0oTzgpW0NIMl01KVtDSDJdW0NAQEhdKE8xKUMoW0NIM10pKFtDSDNdKVtPSF0=

>  <s_epik_cmdline>  (43) 
J2VwaWtfcHl0aG9uJywgJy1waHQnLCAnMi4wJywgJy1waCcsICc3LjAnLCAnLXRuJywgJzgnLCAnLW1hJywgJzIwMCcsICctaW1hZScsICc8aW5maWxlLm1hZT4nLCAnLW9tYWUnLCAnPG91dGZpbGUubWFlPic=

>  <r_lp_tautomer_probability>  (43) 
0.99995

>  <r_epik_Ionization_Penalty>  (43) 
0.000614028

>  <r_epik_Ionization_Penalty_Charging>  (43) 
0

>  <r_epik_Ionization_Penalty_Neutral>  (43) 
0.000614028

>  <r_epik_State_Penalty>  (43) 
0.000367874

>  <r_epik_Charging_Adjusted_Penalty>  (43) 
0.000367874

>  <i_epik_Tot_Q>  (43) 
0

>  <i_epik_Tot_abs_Q>  (43) 
0

>  <s_epik_Chemistry_Notes>  (43) 
This compound contains an acetal/aminal-like group ( X-CH(R)-Y where X, Y are N, S, or O) that may be acid/base labile, releasing an aldehyde.

>  <s_lp_Force_Field>  (43) 
OPLS3e

>  <r_lp_Energy>  (43) 
352.896

>  <b_lp_Chiralities_Consistent>  (43) 
1

>  <s_lp_Variant>  (43) 
36:0-1

>  <s_i_glide_gridfile>  (43) 
pfpi4k_grid

>  <i_i_glide_lignum>  (43) 
3

>  <i_i_glide_rotatable_bonds>  (43) 
11

>  <r_i_docking_score>  (43) 
-3.41985

>  <r_i_glide_ligand_efficiency>  (43) 
-0.0560631

>  <r_i_glide_ligand_efficiency_sa>  (43) 
-0.220692

>  <r_i_glide_ligand_efficiency_ln>  (43) 
-0.669132

>  <r_i_glide_gscore>  (43) 
-3.41985

>  <r_i_glide_lipo>  (43) 
-0.399146

>  <r_i_glide_hbond>  (43) 
-0.0703378

>  <r_i_glide_metal>  (43) 
-0

>  <r_i_glide_rewards>  (43) 
-0.512401

>  <r_i_glide_evdw>  (43) 
-31.1168

>  <r_i_glide_ecoul>  (43) 
-6.10336

>  <r_i_glide_erotb>  (43) 
0.0582014

>  <r_i_glide_esite>  (43) 
-0.0248195

>  <r_i_glide_emodel>  (43) 
-48.4542

>  <r_i_glide_energy>  (43) 
-37.2202

>  <r_i_glide_einternal>  (43) 
1.47134

>  <r_i_glide_intrahb_reward>  (43) 
-0.5

>  <i_i_glide_confnum>  (43) 
1

>  <i_i_glide_posenum>  (43) 
40

>  <r_i_glide_eff_state_penalty>  (43) 
0

>  <ligand_id>  (43) 
36

>  <original_smiles>  (43) 
COC1C(O)C23CC4OC56OC7(CC(C)(C)CC(=O)C(C)(O)C89OC(C(C)(C)O)CC48O9)OCC4(C)C(C45)C(C)(CO)C(O)C(O)(C4OC2(O)CC2(C)OC2OC14C3)C6(O)O7

>  <smiles>  (43) 
[H]OC([H])([H])C1(C([H])([H])[H])C([H])(O[H])C2(O[H])C3([H])OC4(O[H])C([H])([H])C5(C([H])([H])[H])OC5([H])OC35C([H])([H])C4(C([H])([H])C3([H])OC46OC(OC([H])([H])C7(C([H])([H])[H])C4([H])C17[H])(OC62O[H])C([H])([H])C(C([H])([H])[H])(C([H])([H])[H])C([H])([H])C(=O)C(O[H])(C([H])([H])[H])C12OC([H])(C(O[H])(C([H])([H])[H])C([H])([H])[H])C([H])([H])C31O2)C([H])(O[H])C5([H])OC([H])([H])[H]

$$$$
36:0:1
     RDKit          3D

121132  0  0  1  0  0  0  0  0999 V2000
   -3.1279    3.1775    2.9383 C   0  0  0  0  0  0  0  0  0  0  0  0
   -2.2405    3.0836    4.0442 O   0  0  0  0  0  0  0  0  0  0  0  0
   -0.9231    2.6097    3.7891 C   0  0  2  0  0  0  0  0  0  0  0  0
   -0.9263    1.1960    3.1529 C   0  0  1  0  0  0  0  0  0  0  0  0
   -0.7338    1.2410    1.7544 O   0  0  0  0  0  0  0  0  0  0  0  0
    0.2752    0.7030    3.9019 C   0  0  2  0  0  0  0  0  0  0  0  0
    1.1623   -0.4961    3.2788 C   0  0  0  0  0  0  0  0  0  0  0  0
    2.7326   -0.3119    2.9187 C   0  0  1  0  0  0  0  0  0  0  0  0
    3.7122    0.3938    3.7638 O   0  0  0  0  0  0  0  0  0  0  0  0
    4.2695    0.1061    5.0533 C   0  0  1  0  0  0  0  0  0  0  0  0
    4.7232   -1.2101    5.2490 O   0  0  0  0  0  0  0  0  0  0  0  0
    4.7920   -1.3740    6.6374 C   0  0  1  0  0  0  0  0  0  0  0  0
    4.5625   -2.8430    7.2020 C   0  0  0  0  0  0  0  0  0  0  0  0
    3.3604   -3.8104    6.8896 C   0  0  0  0  0  0  0  0  0  0  0  0
    3.4170   -4.8467    8.0477 C   0  0  0  0  0  0  0  0  0  0  0  0
    1.9463   -3.2252    7.0052 C   0  0  0  0  0  0  0  0  0  0  0  0
    3.5328   -4.7081    5.6254 C   0  0  0  0  0  0  0  0  0  0  0  0
    4.0329   -4.0691    4.3242 C   0  0  0  0  0  0  0  0  0  0  0  0
    5.2101   -3.7332    4.2206 O   0  0  0  0  0  0  0  0  0  0  0  0
    3.0698   -3.9838    3.1315 C   0  0  1  0  0  0  0  0  0  0  0  0
    2.9814   -5.3403    2.4248 C   0  0  0  0  0  0  0  0  0  0  0  0
    1.7574   -3.7305    3.5812 O   0  0  0  0  0  0  0  0  0  0  0  0
    3.5129   -2.9243    2.1300 C   0  0  2  0  0  0  0  0  0  0  0  0
    4.6397   -3.3136    1.3317 O   0  0  0  0  0  0  0  0  0  0  0  0
    5.2977   -2.1922    0.7488 C   0  0  1  0  0  0  0  0  0  0  0  0
    5.3448   -2.3846   -0.7921 C   0  0  0  0  0  0  0  0  0  0  0  0
    6.3747   -3.4533   -1.1965 C   0  0  0  0  0  0  0  0  0  0  0  0
    3.9820   -2.7021   -1.4309 C   0  0  0  0  0  0  0  0  0  0  0  0
    5.7959   -1.1820   -1.3964 O   0  0  0  0  0  0  0  0  0  0  0  0
    4.6024   -0.9158    1.2708 C   0  0  0  0  0  0  0  0  0  0  0  0
    3.4379   -1.4186    2.0845 C   0  0  2  0  0  0  0  0  0  0  0  0
    2.4930   -2.2640    1.3917 O   0  0  0  0  0  0  0  0  0  0  0  0
    6.1234   -1.2246    7.0162 O   0  0  0  0  0  0  0  0  0  0  0  0
    6.5473    0.0301    7.4397 C   0  0  0  0  0  0  0  0  0  0  0  0
    6.5469    1.0098    6.3058 C   0  0  2  0  0  0  0  0  0  0  0  0
    7.9437    1.1119    5.7469 C   0  0  0  0  0  0  0  0  0  0  0  0
    5.7046    2.2557    6.3224 C   0  0  1  0  0  0  0  0  0  0  0  0
    5.4441    1.1060    5.2680 C   0  0  2  0  0  0  0  0  0  0  0  0
    4.8661    2.8434    7.5267 C   0  0  1  0  0  0  0  0  0  0  0  0
    5.6322    2.7247    8.8813 C   0  0  0  0  0  0  0  0  0  0  0  0
    4.8049    4.4030    7.3004 C   0  0  0  0  0  0  0  0  0  0  0  0
    6.0786    5.0270    7.3094 O   0  0  0  0  0  0  0  0  0  0  0  0
    3.3918    2.2344    7.6957 C   0  0  1  0  0  0  0  0  0  0  0  0
    2.6030    3.1351    8.4550 O   0  0  0  0  0  0  0  0  0  0  0  0
    2.6661    1.7551    6.3705 C   0  0  2  0  0  0  0  0  0  0  0  0
    3.1565    2.7862    5.5297 O   0  0  0  0  0  0  0  0  0  0  0  0
    1.0428    1.9107    6.1795 C   0  0  2  0  0  0  0  0  0  0  0  0
    0.4025    0.6809    6.4176 O   0  0  0  0  0  0  0  0  0  0  0  0
   -0.4575    0.3567    5.4039 C   0  0  2  0  0  0  0  0  0  0  0  0
   -0.7716   -1.0263    5.4441 O   0  0  0  0  0  0  0  0  0  0  0  0
   -1.7748    1.1207    5.9938 C   0  0  0  0  0  0  0  0  0  0  0  0
   -1.6177    2.4396    6.8829 C   0  0  2  0  0  0  0  0  0  0  0  0
   -1.7880    2.1306    8.3613 C   0  0  0  0  0  0  0  0  0  0  0  0
   -2.3581    3.5720    6.4135 O   0  0  0  0  0  0  0  0  0  0  0  0
   -0.9656    3.8501    6.5537 C   0  0  2  0  0  0  0  0  0  0  0  0
   -0.1631    4.0044    5.3270 O   0  0  0  0  0  0  0  0  0  0  0  0
    0.3119    2.7469    4.8993 C   0  0  2  0  0  0  0  0  0  0  0  0
    1.0609    2.0580    3.8005 C   0  0  0  0  0  0  0  0  0  0  0  0
    3.2495    0.2220    6.1301 C   0  0  1  0  0  0  0  0  0  0  0  0
    2.2885   -0.6967    5.7739 O   0  0  0  0  0  0  0  0  0  0  0  0
    3.9106   -0.4068    7.2058 O   0  0  0  0  0  0  0  0  0  0  0  0
   -4.0338    3.7022    3.2411 H   0  0  0  0  0  0  0  0  0  0  0  0
   -3.4260    2.1898    2.5982 H   0  0  0  0  0  0  0  0  0  0  0  0
   -2.7038    3.7152    2.0947 H   0  0  0  0  0  0  0  0  0  0  0  0
   -0.6933    3.3338    2.9993 H   0  0  0  0  0  0  0  0  0  0  0  0
   -1.7874    0.5701    3.3585 H   0  0  0  0  0  0  0  0  0  0  0  0
   -0.1879    1.9746    1.5165 H   0  0  0  0  0  0  0  0  0  0  0  0
    1.0078   -1.4018    3.8424 H   0  0  0  0  0  0  0  0  0  0  0  0
    0.6842   -0.7573    2.3354 H   0  0  0  0  0  0  0  0  0  0  0  0
    2.6269    0.4582    2.1509 H   0  0  0  0  0  0  0  0  0  0  0  0
    5.4693   -3.4081    6.9773 H   0  0  0  0  0  0  0  0  0  0  0  0
    4.5948   -2.7092    8.2840 H   0  0  0  0  0  0  0  0  0  0  0  0
    2.6878   -5.6496    7.9190 H   0  0  0  0  0  0  0  0  0  0  0  0
    3.2117   -4.3897    9.0172 H   0  0  0  0  0  0  0  0  0  0  0  0
    4.3951   -5.3251    8.1233 H   0  0  0  0  0  0  0  0  0  0  0  0
    1.9170   -2.3828    7.6962 H   0  0  0  0  0  0  0  0  0  0  0  0
    1.2309   -3.9617    7.3704 H   0  0  0  0  0  0  0  0  0  0  0  0
    1.5574   -2.9388    6.0359 H   0  0  0  0  0  0  0  0  0  0  0  0
    4.2533   -5.4974    5.8449 H   0  0  0  0  0  0  0  0  0  0  0  0
    2.5972   -5.2310    5.4232 H   0  0  0  0  0  0  0  0  0  0  0  0
    3.9671   -5.6575    2.0763 H   0  0  0  0  0  0  0  0  0  0  0  0
    2.3388   -5.2742    1.5442 H   0  0  0  0  0  0  0  0  0  0  0  0
    2.5924   -6.1223    3.0816 H   0  0  0  0  0  0  0  0  0  0  0  0
    1.7328   -2.8332    3.8539 H   0  0  0  0  0  0  0  0  0  0  0  0
    6.3226   -2.1791    1.1116 H   0  0  0  0  0  0  0  0  0  0  0  0
    6.0903   -4.4206   -0.7873 H   0  0  0  0  0  0  0  0  0  0  0  0
    7.3796   -3.2205   -0.8310 H   0  0  0  0  0  0  0  0  0  0  0  0
    6.4483   -3.5556   -2.2854 H   0  0  0  0  0  0  0  0  0  0  0  0
    3.5903   -3.6464   -1.0563 H   0  0  0  0  0  0  0  0  0  0  0  0
    4.0640   -2.8048   -2.5162 H   0  0  0  0  0  0  0  0  0  0  0  0
    3.2472   -1.9264   -1.2230 H   0  0  0  0  0  0  0  0  0  0  0  0
    5.1505   -0.5216   -1.2247 H   0  0  0  0  0  0  0  0  0  0  0  0
    5.3012   -0.3524    1.9002 H   0  0  0  0  0  0  0  0  0  0  0  0
    4.2718   -0.2212    0.4947 H   0  0  0  0  0  0  0  0  0  0  0  0
    5.8933    0.3372    8.2296 H   0  0  0  0  0  0  0  0  0  0  0  0
    7.5491   -0.0524    7.8722 H   0  0  0  0  0  0  0  0  0  0  0  0
    8.0061    1.8449    4.9351 H   0  0  0  0  0  0  0  0  0  0  0  0
    8.1504    0.1440    5.3285 H   0  0  0  0  0  0  0  0  0  0  0  0
    8.6705    1.4064    6.5127 H   0  0  0  0  0  0  0  0  0  0  0  0
    6.2419    3.0670    5.8523 H   0  0  0  0  0  0  0  0  0  0  0  0
    5.8518    1.3209    4.2889 H   0  0  0  0  0  0  0  0  0  0  0  0
    5.4424    3.5775    9.5329 H   0  0  0  0  0  0  0  0  0  0  0  0
    6.7146    2.6829    8.7367 H   0  0  0  0  0  0  0  0  0  0  0  0
    5.3378    1.8608    9.4728 H   0  0  0  0  0  0  0  0  0  0  0  0
    4.3253    4.6795    6.3659 H   0  0  0  0  0  0  0  0  0  0  0  0
    4.2401    4.8993    8.0857 H   0  0  0  0  0  0  0  0  0  0  0  0
    5.9570    5.9361    7.0973 H   0  0  0  0  0  0  0  0  0  0  0  0
    3.4426    1.4091    8.3995 H   0  0  0  0  0  0  0  0  0  0  0  0
    3.0367    3.2886    9.2771 H   0  0  0  0  0  0  0  0  0  0  0  0
    2.8975    2.6021    4.6419 H   0  0  0  0  0  0  0  0  0  0  0  0
    0.8296    2.4354    7.0977 H   0  0  0  0  0  0  0  0  0  0  0  0
    0.0299   -1.4960    5.2752 H   0  0  0  0  0  0  0  0  0  0  0  0
   -2.5703    1.2094    5.2775 H   0  0  0  0  0  0  0  0  0  0  0  0
   -2.2175    0.4002    6.6693 H   0  0  0  0  0  0  0  0  0  0  0  0
   -0.9954    1.4587    8.6896 H   0  0  0  0  0  0  0  0  0  0  0  0
   -2.7652    1.7098    8.5772 H   0  0  0  0  0  0  0  0  0  0  0  0
   -1.6900    3.0569    8.9211 H   0  0  0  0  0  0  0  0  0  0  0  0
   -0.7275    4.5858    7.3333 H   0  0  0  0  0  0  0  0  0  0  0  0
    2.0780    1.8548    3.8930 H   0  0  0  0  0  0  0  0  0  0  0  0
    1.1127    2.5227    2.8117 H   0  0  0  0  0  0  0  0  0  0  0  0
    2.7767   -1.4497    5.4667 H   0  0  0  0  0  0  0  0  0  0  0  0
  1  2  1  0
  1 62  1  0
  1 63  1  0
  1 64  1  0
  2  3  1  0
  3 57  1  0
  3  4  1  0
  3 65  1  6
  4  5  1  0
  4  6  1  0
  4 66  1  6
  5 67  1  0
  6 49  1  0
  6 58  1  0
  6  7  1  6
  7  8  1  0
  7 68  1  0
  7 69  1  0
  8 31  1  0
  8  9  1  0
  8 70  1  6
 10  9  1  6
 10 38  1  0
 10 59  1  0
 10 11  1  0
 11 12  1  0
 12 61  1  1
 12 13  1  0
 12 33  1  0
 13 14  1  0
 13 71  1  0
 13 72  1  0
 14 15  1  0
 14 16  1  0
 14 17  1  0
 15 73  1  0
 15 74  1  0
 15 75  1  0
 16 76  1  0
 16 77  1  0
 16 78  1  0
 17 18  1  0
 17 79  1  0
 17 80  1  0
 18 19  2  0
 18 20  1  0
 20 21  1  0
 20 22  1  1
 20 23  1  0
 21 81  1  0
 21 82  1  0
 21 83  1  0
 22 84  1  0
 23 31  1  0
 23 32  1  6
 23 24  1  0
 24 25  1  0
 25 26  1  0
 25 30  1  0
 25 85  1  1
 26 27  1  0
 26 28  1  0
 26 29  1  0
 27 86  1  0
 27 87  1  0
 27 88  1  0
 28 89  1  0
 28 90  1  0
 28 91  1  0
 29 92  1  0
 30 31  1  0
 30 93  1  0
 30 94  1  0
 31 32  1  6
 33 34  1  0
 34 35  1  0
 34 95  1  0
 34 96  1  0
 35 38  1  0
 35 36  1  6
 35 37  1  0
 36 97  1  0
 36 98  1  0
 36 99  1  0
 37 38  1  0
 37 39  1  0
 37100  1  6
 38101  1  6
 39 40  1  1
 39 41  1  0
 39 43  1  0
 40102  1  0
 40103  1  0
 40104  1  0
 41 42  1  0
 41105  1  0
 41106  1  0
 42107  1  0
 43 44  1  0
 43 45  1  0
 43108  1  1
 44109  1  0
 45 46  1  6
 45 47  1  0
 45 59  1  0
 46110  1  0
 47 57  1  0
 47 48  1  0
 47111  1  1
 48 49  1  0
 49 50  1  6
 49 51  1  0
 50112  1  0
 51 52  1  0
 51113  1  0
 51114  1  0
 52 55  1  0
 52 53  1  1
 52 54  1  0
 53115  1  0
 53116  1  0
 53117  1  0
 54 55  1  0
 55 56  1  0
 55118  1  1
 57 56  1  1
 57 58  1  0
 58119  1  0
 58120  1  0
 59 60  1  6
 59 61  1  0
 60121  1  0
M  END
>  <i_m_ct_stereo_status>  (44) 
1

>  <s_m_source_file>  (44) 
/var/tmp/pbs.5076253.sched01/tmptd9uf136/47e5u2q_zc.sdf

>  <i_m_source_file_index>  (44) 
3

>  <i_lp_mmshare_version>  (44) 
48012

>  <i_f3d_flags>  (44) 
0

>  <s_epik_input>  (44) 
W0NIMl0xW0NAQF0oTzIpKFtDSDNdKVtDQEhdMk9bQ0BdKFtDSDJdMykoW0NASF0oT1tDSDNdKVtDQEhdNFtPSF0pW0NAQEhdKE9bQ0BAXTEoW0NAXTM0NSlbT0hdKVtDQF02KFtPSF0pW0NAQF03KFtPSF0pW0NAXTg5W0NAQEhdMVtDQEBdKFtDSDNdKShbQ0BASF0xW0NAQF0oW0NIM10pKFtDSDJdW09IXSlbQ0BIXTZbT0hdKVtDSDJdT1tDQF0oTzkpKE83KVtDSDJdQyhbQ0gzXSkoW0NIM10pW0NIMl1DKD1PKVtDQEBdKFtDSDNdKShbT0hdKVtDQEBdMTJbQ0BAXShPMikoW0NASF0oTzgpW0NIMl01KVtDSDJdW0NAQEhdKE8xKUMoW0NIM10pKFtDSDNdKVtPSF0=

>  <s_epik_cmdline>  (44) 
J2VwaWtfcHl0aG9uJywgJy1waHQnLCAnMi4wJywgJy1waCcsICc3LjAnLCAnLXRuJywgJzgnLCAnLW1hJywgJzIwMCcsICctaW1hZScsICc8aW5maWxlLm1hZT4nLCAnLW9tYWUnLCAnPG91dGZpbGUubWFlPic=

>  <r_lp_tautomer_probability>  (44) 
0.99995

>  <r_epik_Ionization_Penalty>  (44) 
0.000614028

>  <r_epik_Ionization_Penalty_Charging>  (44) 
0

>  <r_epik_Ionization_Penalty_Neutral>  (44) 
0.000614028

>  <r_epik_State_Penalty>  (44) 
0.000367874

>  <r_epik_Charging_Adjusted_Penalty>  (44) 
0.000367874

>  <i_epik_Tot_Q>  (44) 
0

>  <i_epik_Tot_abs_Q>  (44) 
0

>  <s_epik_Chemistry_Notes>  (44) 
This compound contains an acetal/aminal-like group ( X-CH(R)-Y where X, Y are N, S, or O) that may be acid/base labile, releasing an aldehyde.

>  <s_lp_Force_Field>  (44) 
OPLS3e

>  <r_lp_Energy>  (44) 
352.896

>  <b_lp_Chiralities_Consistent>  (44) 
1

>  <s_lp_Variant>  (44) 
36:0-1

>  <s_i_glide_gridfile>  (44) 
pfpi4k_grid

>  <i_i_glide_lignum>  (44) 
3

>  <i_i_glide_rotatable_bonds>  (44) 
11

>  <r_i_docking_score>  (44) 
-3.35454

>  <r_i_glide_ligand_efficiency>  (44) 
-0.0549924

>  <r_i_glide_ligand_efficiency_sa>  (44) 
-0.216477

>  <r_i_glide_ligand_efficiency_ln>  (44) 
-0.656353

>  <r_i_glide_gscore>  (44) 
-3.35454

>  <r_i_glide_lipo>  (44) 
-0.478729

>  <r_i_glide_hbond>  (44) 
-0.07341

>  <r_i_glide_metal>  (44) 
-0

>  <r_i_glide_rewards>  (44) 
-0.514144

>  <r_i_glide_evdw>  (44) 
-31.2748

>  <r_i_glide_ecoul>  (44) 
-5.08058

>  <r_i_glide_erotb>  (44) 
0.0582014

>  <r_i_glide_esite>  (44) 
-0.0206261

>  <r_i_glide_emodel>  (44) 
-46.9255

>  <r_i_glide_energy>  (44) 
-36.3554

>  <r_i_glide_einternal>  (44) 
3.55148

>  <r_i_glide_intrahb_reward>  (44) 
-0.5

>  <i_i_glide_confnum>  (44) 
1

>  <i_i_glide_posenum>  (44) 
21

>  <r_i_glide_eff_state_penalty>  (44) 
0

>  <ligand_id>  (44) 
36

>  <original_smiles>  (44) 
COC1C(O)C23CC4OC56OC7(CC(C)(C)CC(=O)C(C)(O)C89OC(C(C)(C)O)CC48O9)OCC4(C)C(C45)C(C)(CO)C(O)C(O)(C4OC2(O)CC2(C)OC2OC14C3)C6(O)O7

>  <smiles>  (44) 
[H]OC([H])([H])C1(C([H])([H])[H])C([H])(O[H])C2(O[H])C3([H])OC4(O[H])C([H])([H])C5(C([H])([H])[H])OC5([H])OC35C([H])([H])C4(C([H])([H])C3([H])OC46OC(OC([H])([H])C7(C([H])([H])[H])C4([H])C17[H])(OC62O[H])C([H])([H])C(C([H])([H])[H])(C([H])([H])[H])C([H])([H])C(=O)C(O[H])(C([H])([H])[H])C12OC([H])(C(O[H])(C([H])([H])[H])C([H])([H])[H])C([H])([H])C31O2)C([H])(O[H])C5([H])OC([H])([H])[H]

$$$$
36:0:2
     RDKit          3D

121132  0  0  1  0  0  0  0  0999 V2000
   -3.1731    3.1836    2.9426 C   0  0  0  0  0  0  0  0  0  0  0  0
   -2.2771    3.1018    4.0444 O   0  0  0  0  0  0  0  0  0  0  0  0
   -0.9601    2.6125    3.7903 C   0  0  2  0  0  0  0  0  0  0  0  0
   -0.9701    1.1973    3.1562 C   0  0  1  0  0  0  0  0  0  0  0  0
   -0.8001    1.2351    1.7560 O   0  0  0  0  0  0  0  0  0  0  0  0
    0.2347    0.7033    3.9073 C   0  0  2  0  0  0  0  0  0  0  0  0
    1.1136   -0.4899    3.2690 C   0  0  0  0  0  0  0  0  0  0  0  0
    2.6826   -0.3101    2.8959 C   0  0  1  0  0  0  0  0  0  0  0  0
    3.6741    0.3921    3.7305 O   0  0  0  0  0  0  0  0  0  0  0  0
    4.2418    0.1061    5.0159 C   0  0  1  0  0  0  0  0  0  0  0  0
    4.6898   -1.2081    5.2105 O   0  0  0  0  0  0  0  0  0  0  0  0
    4.7748   -1.3718    6.6006 C   0  0  1  0  0  0  0  0  0  0  0  0
    4.5493   -2.8337    7.1697 C   0  0  0  0  0  0  0  0  0  0  0  0
    3.3448   -3.8044    6.8721 C   0  0  0  0  0  0  0  0  0  0  0  0
    3.4100   -4.8367    8.0323 C   0  0  0  0  0  0  0  0  0  0  0  0
    1.9325   -3.2136    6.9958 C   0  0  0  0  0  0  0  0  0  0  0  0
    3.5048   -4.7018    5.6067 C   0  0  0  0  0  0  0  0  0  0  0  0
    3.9940   -4.0669    4.3012 C   0  0  0  0  0  0  0  0  0  0  0  0
    5.1701   -3.7302    4.1848 O   0  0  0  0  0  0  0  0  0  0  0  0
    3.0180   -3.9796    3.1151 C   0  0  1  0  0  0  0  0  0  0  0  0
    2.9251   -5.3409    2.4097 C   0  0  0  0  0  0  0  0  0  0  0  0
    1.7116   -3.7273    3.5777 O   0  0  0  0  0  0  0  0  0  0  0  0
    3.4537   -2.9151    2.1095 C   0  0  2  0  0  0  0  0  0  0  0  0
    4.5597   -3.3128    1.2971 O   0  0  0  0  0  0  0  0  0  0  0  0
    5.2241   -2.2009    0.6954 C   0  0  1  0  0  0  0  0  0  0  0  0
    5.2490   -2.3996   -0.8458 C   0  0  0  0  0  0  0  0  0  0  0  0
    6.1549   -3.5803   -1.2390 C   0  0  0  0  0  0  0  0  0  0  0  0
    3.8576   -2.5661   -1.4776 C   0  0  0  0  0  0  0  0  0  0  0  0
    5.8156   -1.2532   -1.4378 O   0  0  0  0  0  0  0  0  0  0  0  0
    4.5414   -0.9243    1.2303 C   0  0  0  0  0  0  0  0  0  0  0  0
    3.3755   -1.4140    2.0569 C   0  0  2  0  0  0  0  0  0  0  0  0
    2.4341   -2.2639    1.3647 O   0  0  0  0  0  0  0  0  0  0  0  0
    6.1089   -1.2179    6.9660 O   0  0  0  0  0  0  0  0  0  0  0  0
    6.5378    0.0359    7.3847 C   0  0  0  0  0  0  0  0  0  0  0  0
    6.5376    1.0114    6.2418 C   0  0  2  0  0  0  0  0  0  0  0  0
    7.9303    1.1194    5.6781 C   0  0  0  0  0  0  0  0  0  0  0  0
    5.6966    2.2574    6.2604 C   0  0  1  0  0  0  0  0  0  0  0  0
    5.4231    1.1071    5.2181 C   0  0  2  0  0  0  0  0  0  0  0  0
    4.8652    2.8499    7.4783 C   0  0  1  0  0  0  0  0  0  0  0  0
    5.6399    2.7339    8.8268 C   0  0  0  0  0  0  0  0  0  0  0  0
    4.8090    4.4107    7.2454 C   0  0  0  0  0  0  0  0  0  0  0  0
    6.0861    5.0284    7.2685 O   0  0  0  0  0  0  0  0  0  0  0  0
    3.3903    2.2505    7.6625 C   0  0  1  0  0  0  0  0  0  0  0  0
    2.6051    3.1550    8.4184 O   0  0  0  0  0  0  0  0  0  0  0  0
    2.6528    1.7590    6.3489 C   0  0  2  0  0  0  0  0  0  0  0  0
    3.1367    2.7837    5.4941 O   0  0  0  0  0  0  0  0  0  0  0  0
    1.0269    1.9226    6.1677 C   0  0  2  0  0  0  0  0  0  0  0  0
    0.3850    0.6981    6.4140 O   0  0  0  0  0  0  0  0  0  0  0  0
   -0.4741    0.3612    5.4140 C   0  0  2  0  0  0  0  0  0  0  0  0
   -0.7929   -1.0118    5.4615 O   0  0  0  0  0  0  0  0  0  0  0  0
   -1.7742    1.1298    6.0185 C   0  0  0  0  0  0  0  0  0  0  0  0
   -1.6248    2.4631    6.8965 C   0  0  2  0  0  0  0  0  0  0  0  0
   -1.7828    2.1541    8.3755 C   0  0  0  0  0  0  0  0  0  0  0  0
   -2.3832    3.5819    6.4334 O   0  0  0  0  0  0  0  0  0  0  0  0
   -0.9830    3.8530    6.5442 C   0  0  2  0  0  0  0  0  0  0  0  0
   -0.1749    4.0198    5.3237 O   0  0  0  0  0  0  0  0  0  0  0  0
    0.2890    2.7553    4.8908 C   0  0  2  0  0  0  0  0  0  0  0  0
    1.0218    2.0583    3.7843 C   0  0  0  0  0  0  0  0  0  0  0  0
    3.2258    0.2314    6.1007 C   0  0  1  0  0  0  0  0  0  0  0  0
    2.2666   -0.6897    5.7506 O   0  0  0  0  0  0  0  0  0  0  0  0
    3.9027   -0.3986    7.1696 O   0  0  0  0  0  0  0  0  0  0  0  0
   -4.0829    3.6895    3.2622 H   0  0  0  0  0  0  0  0  0  0  0  0
   -3.4654    2.1973    2.6010 H   0  0  0  0  0  0  0  0  0  0  0  0
   -2.7630    3.7301    2.0926 H   0  0  0  0  0  0  0  0  0  0  0  0
   -0.7377    3.3414    2.9982 H   0  0  0  0  0  0  0  0  0  0  0  0
   -1.8352    0.5839    3.3758 H   0  0  0  0  0  0  0  0  0  0  0  0
   -0.2151    1.9419    1.5141 H   0  0  0  0  0  0  0  0  0  0  0  0
    0.9678   -1.4001    3.8356 H   0  0  0  0  0  0  0  0  0  0  0  0
    0.6293   -0.7568    2.3305 H   0  0  0  0  0  0  0  0  0  0  0  0
    2.5706    0.4594    2.1293 H   0  0  0  0  0  0  0  0  0  0  0  0
    5.4545   -3.4012    6.9413 H   0  0  0  0  0  0  0  0  0  0  0  0
    4.5906   -2.6951    8.2521 H   0  0  0  0  0  0  0  0  0  0  0  0
    2.6789   -5.6388    7.9120 H   0  0  0  0  0  0  0  0  0  0  0  0
    3.2138   -4.3767    9.0023 H   0  0  0  0  0  0  0  0  0  0  0  0
    4.3884   -5.3157    8.1006 H   0  0  0  0  0  0  0  0  0  0  0  0
    1.9091   -2.3684    7.6840 H   0  0  0  0  0  0  0  0  0  0  0  0
    1.2168   -3.9465    7.3690 H   0  0  0  0  0  0  0  0  0  0  0  0
    1.5355   -2.9281    6.0291 H   0  0  0  0  0  0  0  0  0  0  0  0
    4.2232   -5.4941    5.8195 H   0  0  0  0  0  0  0  0  0  0  0  0
    2.5658   -5.2225    5.4135 H   0  0  0  0  0  0  0  0  0  0  0  0
    3.9071   -5.6590    2.0534 H   0  0  0  0  0  0  0  0  0  0  0  0
    2.2740   -5.2759    1.5357 H   0  0  0  0  0  0  0  0  0  0  0  0
    2.5419   -6.1192    3.0718 H   0  0  0  0  0  0  0  0  0  0  0  0
    1.6965   -2.8330    3.8778 H   0  0  0  0  0  0  0  0  0  0  0  0
    6.2536   -2.2032    1.0534 H   0  0  0  0  0  0  0  0  0  0  0  0
    5.7706   -4.5252   -0.8438 H   0  0  0  0  0  0  0  0  0  0  0  0
    7.1701   -3.4570   -0.8602 H   0  0  0  0  0  0  0  0  0  0  0  0
    6.2251   -3.6902   -2.3228 H   0  0  0  0  0  0  0  0  0  0  0  0
    3.3490   -3.4596   -1.1040 H   0  0  0  0  0  0  0  0  0  0  0  0
    3.9367   -2.6722   -2.5618 H   0  0  0  0  0  0  0  0  0  0  0  0
    3.2162   -1.7062   -1.2788 H   0  0  0  0  0  0  0  0  0  0  0  0
    5.2350   -0.5298   -1.2306 H   0  0  0  0  0  0  0  0  0  0  0  0
    5.2421   -0.3658    1.8558 H   0  0  0  0  0  0  0  0  0  0  0  0
    4.2165   -0.2345    0.4514 H   0  0  0  0  0  0  0  0  0  0  0  0
    5.8896    0.3464    8.1802 H   0  0  0  0  0  0  0  0  0  0  0  0
    7.5407   -0.0477    7.8108 H   0  0  0  0  0  0  0  0  0  0  0  0
    7.9892    1.8269    4.8557 H   0  0  0  0  0  0  0  0  0  0  0  0
    8.1523    0.1432    5.2714 H   0  0  0  0  0  0  0  0  0  0  0  0
    8.6592    1.4166    6.4309 H   0  0  0  0  0  0  0  0  0  0  0  0
    6.2218    3.0690    5.7766 H   0  0  0  0  0  0  0  0  0  0  0  0
    5.8144    1.3186    4.2286 H   0  0  0  0  0  0  0  0  0  0  0  0
    5.4560    3.5893    9.4785 H   0  0  0  0  0  0  0  0  0  0  0  0
    6.7210    2.6891    8.6765 H   0  0  0  0  0  0  0  0  0  0  0  0
    5.3476    1.8734    9.4248 H   0  0  0  0  0  0  0  0  0  0  0  0
    4.3286    4.6908    6.3114 H   0  0  0  0  0  0  0  0  0  0  0  0
    4.2459    4.9136    8.0290 H   0  0  0  0  0  0  0  0  0  0  0  0
    6.5892    4.7093    6.5339 H   0  0  0  0  0  0  0  0  0  0  0  0
    3.4424    1.4258    8.3699 H   0  0  0  0  0  0  0  0  0  0  0  0
    3.0840    3.3749    9.2045 H   0  0  0  0  0  0  0  0  0  0  0  0
    2.8760    2.5878    4.6060 H   0  0  0  0  0  0  0  0  0  0  0  0
    0.8202    2.4522    7.0851 H   0  0  0  0  0  0  0  0  0  0  0  0
   -0.0015   -1.4869    5.2585 H   0  0  0  0  0  0  0  0  0  0  0  0
   -2.5644    1.2230    5.2820 H   0  0  0  0  0  0  0  0  0  0  0  0
   -2.2393    0.4122    6.6866 H   0  0  0  0  0  0  0  0  0  0  0  0
   -0.9898    1.4811    8.7003 H   0  0  0  0  0  0  0  0  0  0  0  0
   -2.7555    1.7313    8.6034 H   0  0  0  0  0  0  0  0  0  0  0  0
   -1.6809    3.0760    8.9351 H   0  0  0  0  0  0  0  0  0  0  0  0
   -0.7440    4.5944    7.3191 H   0  0  0  0  0  0  0  0  0  0  0  0
    2.0417    1.8610    3.8699 H   0  0  0  0  0  0  0  0  0  0  0  0
    1.0674    2.5228    2.7947 H   0  0  0  0  0  0  0  0  0  0  0  0
    2.7456   -1.4453    5.4460 H   0  0  0  0  0  0  0  0  0  0  0  0
  1  2  1  0
  1 62  1  0
  1 63  1  0
  1 64  1  0
  2  3  1  0
  3 57  1  0
  3  4  1  0
  3 65  1  6
  4  5  1  0
  4  6  1  0
  4 66  1  6
  5 67  1  0
  6 49  1  0
  6 58  1  0
  6  7  1  6
  7  8  1  0
  7 68  1  0
  7 69  1  0
  8 31  1  0
  8  9  1  0
  8 70  1  6
 10  9  1  6
 10 38  1  0
 10 59  1  0
 10 11  1  0
 11 12  1  0
 12 61  1  1
 12 13  1  0
 12 33  1  0
 13 14  1  0
 13 71  1  0
 13 72  1  0
 14 15  1  0
 14 16  1  0
 14 17  1  0
 15 73  1  0
 15 74  1  0
 15 75  1  0
 16 76  1  0
 16 77  1  0
 16 78  1  0
 17 18  1  0
 17 79  1  0
 17 80  1  0
 18 19  2  0
 18 20  1  0
 20 21  1  0
 20 22  1  1
 20 23  1  0
 21 81  1  0
 21 82  1  0
 21 83  1  0
 22 84  1  0
 23 31  1  0
 23 32  1  6
 23 24  1  0
 24 25  1  0
 25 26  1  0
 25 30  1  0
 25 85  1  1
 26 27  1  0
 26 28  1  0
 26 29  1  0
 27 86  1  0
 27 87  1  0
 27 88  1  0
 28 89  1  0
 28 90  1  0
 28 91  1  0
 29 92  1  0
 30 31  1  0
 30 93  1  0
 30 94  1  0
 31 32  1  6
 33 34  1  0
 34 35  1  0
 34 95  1  0
 34 96  1  0
 35 38  1  0
 35 36  1  6
 35 37  1  0
 36 97  1  0
 36 98  1  0
 36 99  1  0
 37 38  1  0
 37 39  1  0
 37100  1  6
 38101  1  6
 39 40  1  1
 39 41  1  0
 39 43  1  0
 40102  1  0
 40103  1  0
 40104  1  0
 41 42  1  0
 41105  1  0
 41106  1  0
 42107  1  0
 43 44  1  0
 43 45  1  0
 43108  1  1
 44109  1  0
 45 46  1  6
 45 47  1  0
 45 59  1  0
 46110  1  0
 47 57  1  0
 47 48  1  0
 47111  1  1
 48 49  1  0
 49 50  1  6
 49 51  1  0
 50112  1  0
 51 52  1  0
 51113  1  0
 51114  1  0
 52 55  1  0
 52 53  1  1
 52 54  1  0
 53115  1  0
 53116  1  0
 53117  1  0
 54 55  1  0
 55 56  1  0
 55118  1  1
 57 56  1  1
 57 58  1  0
 58119  1  0
 58120  1  0
 59 60  1  6
 59 61  1  0
 60121  1  0
M  END
>  <i_m_ct_stereo_status>  (45) 
1

>  <s_m_source_file>  (45) 
/var/tmp/pbs.5076253.sched01/tmptd9uf136/47e5u2q_zc.sdf

>  <i_m_source_file_index>  (45) 
3

>  <i_lp_mmshare_version>  (45) 
48012

>  <i_f3d_flags>  (45) 
0

>  <s_epik_input>  (45) 
W0NIMl0xW0NAQF0oTzIpKFtDSDNdKVtDQEhdMk9bQ0BdKFtDSDJdMykoW0NASF0oT1tDSDNdKVtDQEhdNFtPSF0pW0NAQEhdKE9bQ0BAXTEoW0NAXTM0NSlbT0hdKVtDQF02KFtPSF0pW0NAQF03KFtPSF0pW0NAXTg5W0NAQEhdMVtDQEBdKFtDSDNdKShbQ0BASF0xW0NAQF0oW0NIM10pKFtDSDJdW09IXSlbQ0BIXTZbT0hdKVtDSDJdT1tDQF0oTzkpKE83KVtDSDJdQyhbQ0gzXSkoW0NIM10pW0NIMl1DKD1PKVtDQEBdKFtDSDNdKShbT0hdKVtDQEBdMTJbQ0BAXShPMikoW0NASF0oTzgpW0NIMl01KVtDSDJdW0NAQEhdKE8xKUMoW0NIM10pKFtDSDNdKVtPSF0=

>  <s_epik_cmdline>  (45) 
J2VwaWtfcHl0aG9uJywgJy1waHQnLCAnMi4wJywgJy1waCcsICc3LjAnLCAnLXRuJywgJzgnLCAnLW1hJywgJzIwMCcsICctaW1hZScsICc8aW5maWxlLm1hZT4nLCAnLW9tYWUnLCAnPG91dGZpbGUubWFlPic=

>  <r_lp_tautomer_probability>  (45) 
0.99995

>  <r_epik_Ionization_Penalty>  (45) 
0.000614028

>  <r_epik_Ionization_Penalty_Charging>  (45) 
0

>  <r_epik_Ionization_Penalty_Neutral>  (45) 
0.000614028

>  <r_epik_State_Penalty>  (45) 
0.000367874

>  <r_epik_Charging_Adjusted_Penalty>  (45) 
0.000367874

>  <i_epik_Tot_Q>  (45) 
0

>  <i_epik_Tot_abs_Q>  (45) 
0

>  <s_epik_Chemistry_Notes>  (45) 
This compound contains an acetal/aminal-like group ( X-CH(R)-Y where X, Y are N, S, or O) that may be acid/base labile, releasing an aldehyde.

>  <s_lp_Force_Field>  (45) 
OPLS3e

>  <r_lp_Energy>  (45) 
352.896

>  <b_lp_Chiralities_Consistent>  (45) 
1

>  <s_lp_Variant>  (45) 
36:0-1

>  <s_i_glide_gridfile>  (45) 
pfpi4k_grid

>  <i_i_glide_lignum>  (45) 
3

>  <i_i_glide_rotatable_bonds>  (45) 
11

>  <r_i_docking_score>  (45) 
-3.2666

>  <r_i_glide_ligand_efficiency>  (45) 
-0.0535508

>  <r_i_glide_ligand_efficiency_sa>  (45) 
-0.210803

>  <r_i_glide_ligand_efficiency_ln>  (45) 
-0.639147

>  <r_i_glide_gscore>  (45) 
-3.2666

>  <r_i_glide_lipo>  (45) 
-0.444677

>  <r_i_glide_hbond>  (45) 
-0.0792965

>  <r_i_glide_metal>  (45) 
-0

>  <r_i_glide_rewards>  (45) 
-0.512476

>  <r_i_glide_evdw>  (45) 
-30.9472

>  <r_i_glide_ecoul>  (45) 
-4.79972

>  <r_i_glide_erotb>  (45) 
0.0582014

>  <r_i_glide_esite>  (45) 
-0.0210352

>  <r_i_glide_emodel>  (45) 
-46.7815

>  <r_i_glide_energy>  (45) 
-35.7469

>  <r_i_glide_einternal>  (45) 
2.61452

>  <r_i_glide_intrahb_reward>  (45) 
-0.5

>  <i_i_glide_confnum>  (45) 
1

>  <i_i_glide_posenum>  (45) 
13

>  <r_i_glide_eff_state_penalty>  (45) 
0

>  <ligand_id>  (45) 
36

>  <original_smiles>  (45) 
COC1C(O)C23CC4OC56OC7(CC(C)(C)CC(=O)C(C)(O)C89OC(C(C)(C)O)CC48O9)OCC4(C)C(C45)C(C)(CO)C(O)C(O)(C4OC2(O)CC2(C)OC2OC14C3)C6(O)O7

>  <smiles>  (45) 
[H]OC([H])([H])C1(C([H])([H])[H])C([H])(O[H])C2(O[H])C3([H])OC4(O[H])C([H])([H])C5(C([H])([H])[H])OC5([H])OC35C([H])([H])C4(C([H])([H])C3([H])OC46OC(OC([H])([H])C7(C([H])([H])[H])C4([H])C17[H])(OC62O[H])C([H])([H])C(C([H])([H])[H])(C([H])([H])[H])C([H])([H])C(=O)C(O[H])(C([H])([H])[H])C12OC([H])(C(O[H])(C([H])([H])[H])C([H])([H])[H])C([H])([H])C31O2)C([H])(O[H])C5([H])OC([H])([H])[H]

$$$$
36:1:0
     RDKit          3D

121132  0  0  1  0  0  0  0  0999 V2000
   -2.3280    3.5529    2.6939 C   0  0  0  0  0  0  0  0  0  0  0  0
   -1.6343    3.1889    3.8787 O   0  0  0  0  0  0  0  0  0  0  0  0
   -0.3019    2.6983    3.7480 C   0  0  2  0  0  0  0  0  0  0  0  0
   -0.2615    1.4478    2.8427 C   0  0  1  0  0  0  0  0  0  0  0  0
    0.2228    1.7095    1.5522 O   0  0  0  0  0  0  0  0  0  0  0  0
    0.7895    0.7383    3.6519 C   0  0  2  0  0  0  0  0  0  0  0  0
    1.6916   -0.3427    2.8878 C   0  0  0  0  0  0  0  0  0  0  0  0
    2.9460   -1.0640    3.5645 C   0  0  2  0  0  0  0  0  0  0  0  0
    3.9108   -0.1410    4.1425 O   0  0  0  0  0  0  0  0  0  0  0  0
    4.4850   -0.2699    5.4428 C   0  0  1  0  0  0  0  0  0  0  0  0
    5.1143   -1.4645    5.7350 O   0  0  0  0  0  0  0  0  0  0  0  0
    5.1010   -1.5593    7.1327 C   0  0  1  0  0  0  0  0  0  0  0  0
    4.6448   -2.9821    7.5919 C   0  0  0  0  0  0  0  0  0  0  0  0
    5.2365   -4.2163    6.8140 C   0  0  0  0  0  0  0  0  0  0  0  0
    6.7758   -4.2064    6.8614 C   0  0  0  0  0  0  0  0  0  0  0  0
    4.7901   -5.4910    7.5713 C   0  0  0  0  0  0  0  0  0  0  0  0
    4.8074   -4.3528    5.3161 C   0  0  0  0  0  0  0  0  0  0  0  0
    3.3086   -4.3366    4.9550 C   0  0  0  0  0  0  0  0  0  0  0  0
    2.4355   -4.1662    5.8092 O   0  0  0  0  0  0  0  0  0  0  0  0
    2.9164   -4.4917    3.4726 C   0  0  1  0  0  0  0  0  0  0  0  0
    3.1502   -5.9310    2.9924 C   0  0  0  0  0  0  0  0  0  0  0  0
    1.5170   -4.3011    3.3125 O   0  0  0  0  0  0  0  0  0  0  0  0
    3.6510   -3.5048    2.5641 C   0  0  2  0  0  0  0  0  0  0  0  0
    4.9053   -3.9464    2.0290 O   0  0  0  0  0  0  0  0  0  0  0  0
    5.7043   -2.8554    1.5594 C   0  0  1  0  0  0  0  0  0  0  0  0
    5.9818   -3.0107    0.0240 C   0  0  0  0  0  0  0  0  0  0  0  0
    7.3022   -3.7599   -0.2391 C   0  0  0  0  0  0  0  0  0  0  0  0
    4.8324   -3.7067   -0.7354 C   0  0  0  0  0  0  0  0  0  0  0  0
    6.1645   -1.7508   -0.5906 O   0  0  0  0  0  0  0  0  0  0  0  0
    5.0402   -1.5521    2.0632 C   0  0  0  0  0  0  0  0  0  0  0  0
    3.7037   -1.9951    2.5989 C   0  0  2  0  0  0  0  0  0  0  0  0
    2.8486   -2.7106    1.6906 O   0  0  0  0  0  0  0  0  0  0  0  0
    6.3337   -1.3322    7.7359 O   0  0  0  0  0  0  0  0  0  0  0  0
    7.2799   -0.4847    7.1259 C   0  0  0  0  0  0  0  0  0  0  0  0
    6.8491    0.7780    6.3949 C   0  0  2  0  0  0  0  0  0  0  0  0
    8.0904    1.3673    5.7397 C   0  0  0  0  0  0  0  0  0  0  0  0
    5.7850    1.7986    6.8102 C   0  0  1  0  0  0  0  0  0  0  0  0
    5.5508    0.8439    5.6037 C   0  0  2  0  0  0  0  0  0  0  0  0
    4.9837    2.0232    8.1803 C   0  0  1  0  0  0  0  0  0  0  0  0
    5.6081    1.2281    9.3597 C   0  0  0  0  0  0  0  0  0  0  0  0
    5.3147    3.4882    8.6422 C   0  0  0  0  0  0  0  0  0  0  0  0
    4.8402    4.4890    7.7722 O   0  0  0  0  0  0  0  0  0  0  0  0
    3.3720    1.7927    8.1310 C   0  0  1  0  0  0  0  0  0  0  0  0
    2.6502    2.9003    8.6584 O   0  0  0  0  0  0  0  0  0  0  0  0
    2.8033    1.3606    6.7217 C   0  0  2  0  0  0  0  0  0  0  0  0
    3.3531    2.4879    6.0527 O   0  0  0  0  0  0  0  0  0  0  0  0
    1.2403    1.5196    6.2588 C   0  0  2  0  0  0  0  0  0  0  0  0
    0.6144    0.2733    6.0596 O   0  0  0  0  0  0  0  0  0  0  0  0
   -0.1229    0.1537    4.9233 C   0  0  2  0  0  0  0  0  0  0  0  0
   -0.4063   -1.2038    4.6603 O   0  0  0  0  0  0  0  0  0  0  0  0
   -1.4989    0.8308    5.4644 C   0  0  0  0  0  0  0  0  0  0  0  0
   -1.4877    1.9706    6.5875 C   0  0  2  0  0  0  0  0  0  0  0  0
   -1.8659    1.3968    7.9305 C   0  0  0  0  0  0  0  0  0  0  0  0
   -2.1473    3.1921    6.2315 O   0  0  0  0  0  0  0  0  0  0  0  0
   -0.7825    3.3945    6.6208 C   0  0  2  0  0  0  0  0  0  0  0  0
    0.2086    3.7449    5.5991 O   0  0  0  0  0  0  0  0  0  0  0  0
    0.7563    2.5652    5.0337 C   0  0  2  0  0  0  0  0  0  0  0  0
    1.6543    2.0134    3.9463 C   0  0  0  0  0  0  0  0  0  0  0  0
    3.4344   -0.1566    6.5299 C   0  0  1  0  0  0  0  0  0  0  0  0
    2.4778   -1.1806    6.4500 O   0  0  0  0  0  0  0  0  0  0  0  0
    4.1833   -0.6029    7.6052 O   0  0  0  0  0  0  0  0  0  0  0  0
   -3.2715    4.0233    2.9620 H   0  0  0  0  0  0  0  0  0  0  0  0
   -2.5725    2.6844    2.0805 H   0  0  0  0  0  0  0  0  0  0  0  0
   -1.7881    4.2821    2.0898 H   0  0  0  0  0  0  0  0  0  0  0  0
    0.0823    3.5443    3.1648 H   0  0  0  0  0  0  0  0  0  0  0  0
   -1.2001    0.8894    2.7642 H   0  0  0  0  0  0  0  0  0  0  0  0
    0.1148    2.6613    1.3426 H   0  0  0  0  0  0  0  0  0  0  0  0
    1.0259   -1.0942    2.4534 H   0  0  0  0  0  0  0  0  0  0  0  0
    2.1025    0.1583    2.0137 H   0  0  0  0  0  0  0  0  0  0  0  0
    2.5106   -1.7481    4.2730 H   0  0  0  0  0  0  0  0  0  0  0  0
    4.9242   -3.0672    8.6437 H   0  0  0  0  0  0  0  0  0  0  0  0
    3.5596   -3.0440    7.6252 H   0  0  0  0  0  0  0  0  0  0  0  0
    7.1888   -5.1336    6.4617 H   0  0  0  0  0  0  0  0  0  0  0  0
    7.1534   -4.0905    7.8777 H   0  0  0  0  0  0  0  0  0  0  0  0
    7.1798   -3.3964    6.2588 H   0  0  0  0  0  0  0  0  0  0  0  0
    5.1357   -6.3985    7.0728 H   0  0  0  0  0  0  0  0  0  0  0  0
    3.7055   -5.5665    7.6598 H   0  0  0  0  0  0  0  0  0  0  0  0
    5.1918   -5.5178    8.5864 H   0  0  0  0  0  0  0  0  0  0  0  0
    5.2967   -3.5777    4.7292 H   0  0  0  0  0  0  0  0  0  0  0  0
    5.2131   -5.2886    4.9316 H   0  0  0  0  0  0  0  0  0  0  0  0
    4.2066   -6.2023    3.0567 H   0  0  0  0  0  0  0  0  0  0  0  0
    2.8584   -6.0402    1.9441 H   0  0  0  0  0  0  0  0  0  0  0  0
    2.5830   -6.6553    3.5823 H   0  0  0  0  0  0  0  0  0  0  0  0
    1.3345   -3.3967    3.5061 H   0  0  0  0  0  0  0  0  0  0  0  0
    6.6608   -2.9481    2.0667 H   0  0  0  0  0  0  0  0  0  0  0  0
    7.2771   -4.7731    0.1680 H   0  0  0  0  0  0  0  0  0  0  0  0
    8.1518   -3.2389    0.2086 H   0  0  0  0  0  0  0  0  0  0  0  0
    7.5117   -3.8360   -1.3101 H   0  0  0  0  0  0  0  0  0  0  0  0
    4.6695   -4.7204   -0.3651 H   0  0  0  0  0  0  0  0  0  0  0  0
    5.0474   -3.8006   -1.8030 H   0  0  0  0  0  0  0  0  0  0  0  0
    3.8953   -3.1611   -0.6318 H   0  0  0  0  0  0  0  0  0  0  0  0
    5.3578   -1.2726   -0.4693 H   0  0  0  0  0  0  0  0  0  0  0  0
    5.6639   -1.1520    2.8650 H   0  0  0  0  0  0  0  0  0  0  0  0
    4.9109   -0.7456    1.3460 H   0  0  0  0  0  0  0  0  0  0  0  0
    7.9990   -0.1967    7.8920 H   0  0  0  0  0  0  0  0  0  0  0  0
    7.8362   -1.1074    6.4295 H   0  0  0  0  0  0  0  0  0  0  0  0
    7.8400    2.2476    5.1557 H   0  0  0  0  0  0  0  0  0  0  0  0
    8.5279    0.6499    5.0477 H   0  0  0  0  0  0  0  0  0  0  0  0
    8.8353    1.6629    6.4822 H   0  0  0  0  0  0  0  0  0  0  0  0
    6.0402    2.7768    6.4305 H   0  0  0  0  0  0  0  0  0  0  0  0
    5.6823    1.3336    4.6410 H   0  0  0  0  0  0  0  0  0  0  0  0
    5.2109    1.5748   10.3186 H   0  0  0  0  0  0  0  0  0  0  0  0
    6.6922    1.3517    9.4038 H   0  0  0  0  0  0  0  0  0  0  0  0
    5.4207    0.1605    9.3602 H   0  0  0  0  0  0  0  0  0  0  0  0
    4.9093    3.6982    9.6364 H   0  0  0  0  0  0  0  0  0  0  0  0
    6.3895    3.6283    8.7268 H   0  0  0  0  0  0  0  0  0  0  0  0
    3.9040    4.3514    7.6895 H   0  0  0  0  0  0  0  0  0  0  0  0
    3.1143    1.0185    8.8614 H   0  0  0  0  0  0  0  0  0  0  0  0
    1.7434    2.6534    8.7407 H   0  0  0  0  0  0  0  0  0  0  0  0
    3.2536    2.3597    5.1237 H   0  0  0  0  0  0  0  0  0  0  0  0
    0.8536    1.8159    7.2273 H   0  0  0  0  0  0  0  0  0  0  0  0
    0.4147   -1.6110    4.4373 H   0  0  0  0  0  0  0  0  0  0  0  0
   -2.1850    1.0839    4.6586 H   0  0  0  0  0  0  0  0  0  0  0  0
   -2.0424    0.0046    5.9142 H   0  0  0  0  0  0  0  0  0  0  0  0
   -1.1339    0.6478    8.2362 H   0  0  0  0  0  0  0  0  0  0  0  0
   -2.8604    0.9679    7.8744 H   0  0  0  0  0  0  0  0  0  0  0  0
   -1.8651    2.1881    8.6747 H   0  0  0  0  0  0  0  0  0  0  0  0
   -0.6722    3.9661    7.5667 H   0  0  0  0  0  0  0  0  0  0  0  0
    2.6309    1.6590    4.1383 H   0  0  0  0  0  0  0  0  0  0  0  0
    1.8874    2.6545    3.0964 H   0  0  0  0  0  0  0  0  0  0  0  0
    2.9188   -1.9846    6.2044 H   0  0  0  0  0  0  0  0  0  0  0  0
  1  2  1  0
  1 62  1  0
  1 63  1  0
  1 64  1  0
  2  3  1  0
  3 57  1  0
  3  4  1  0
  3 65  1  6
  4  5  1  0
  4  6  1  0
  4 66  1  6
  5 67  1  0
  6 49  1  0
  6 58  1  0
  6  7  1  6
  7  8  1  0
  7 68  1  0
  7 69  1  0
  8 31  1  0
  8  9  1  0
  8 70  1  1
 10  9  1  6
 10 38  1  0
 10 59  1  0
 10 11  1  0
 11 12  1  0
 12 61  1  1
 12 13  1  0
 12 33  1  0
 13 14  1  0
 13 71  1  0
 13 72  1  0
 14 15  1  0
 14 16  1  0
 14 17  1  0
 15 73  1  0
 15 74  1  0
 15 75  1  0
 16 76  1  0
 16 77  1  0
 16 78  1  0
 17 18  1  0
 17 79  1  0
 17 80  1  0
 18 19  2  0
 18 20  1  0
 20 21  1  0
 20 22  1  1
 20 23  1  0
 21 81  1  0
 21 82  1  0
 21 83  1  0
 22 84  1  0
 23 31  1  0
 23 32  1  6
 23 24  1  0
 24 25  1  0
 25 26  1  0
 25 30  1  0
 25 85  1  1
 26 27  1  0
 26 28  1  0
 26 29  1  0
 27 86  1  0
 27 87  1  0
 27 88  1  0
 28 89  1  0
 28 90  1  0
 28 91  1  0
 29 92  1  0
 30 31  1  0
 30 93  1  0
 30 94  1  0
 31 32  1  6
 33 34  1  0
 34 35  1  0
 34 95  1  0
 34 96  1  0
 35 38  1  0
 35 36  1  6
 35 37  1  0
 36 97  1  0
 36 98  1  0
 36 99  1  0
 37 38  1  0
 37 39  1  0
 37100  1  6
 38101  1  6
 39 40  1  1
 39 41  1  0
 39 43  1  0
 40102  1  0
 40103  1  0
 40104  1  0
 41 42  1  0
 41105  1  0
 41106  1  0
 42107  1  0
 43 44  1  0
 43 45  1  0
 43108  1  1
 44109  1  0
 45 46  1  6
 45 47  1  0
 45 59  1  0
 46110  1  0
 47 57  1  0
 47 48  1  0
 47111  1  1
 48 49  1  0
 49 50  1  6
 49 51  1  0
 50112  1  0
 51 52  1  0
 51113  1  0
 51114  1  0
 52 55  1  0
 52 53  1  1
 52 54  1  0
 53115  1  0
 53116  1  0
 53117  1  0
 54 55  1  0
 55 56  1  0
 55118  1  1
 57 56  1  1
 57 58  1  0
 58119  1  0
 58120  1  0
 59 60  1  6
 59 61  1  0
 60121  1  0
M  END
>  <i_m_ct_stereo_status>  (46) 
1

>  <s_m_source_file>  (46) 
/var/tmp/pbs.5076253.sched01/tmptd9uf136/47e5u2q_zc.sdf

>  <i_m_source_file_index>  (46) 
4

>  <i_lp_mmshare_version>  (46) 
48012

>  <i_f3d_flags>  (46) 
0

>  <s_epik_input>  (46) 
W0NIMl0xW0NAQF0oTzIpKFtDSDNdKVtDQEhdMk9bQ0BdKFtDSDJdMykoW0NASF0oT1tDSDNdKVtDQEhdNFtPSF0pW0NAQEhdKE9bQ0BAXTEoW0NAXTM0NSlbT0hdKVtDQF02KFtPSF0pW0NAQF03KFtPSF0pW0NAXTg5W0NAQEhdMVtDQEBdKFtDSDNdKShbQ0BASF0xW0NAQF0oW0NIM10pKFtDSDJdW09IXSlbQ0BIXTZbT0hdKVtDSDJdT1tDQF0oTzkpKE83KVtDSDJdQyhbQ0gzXSkoW0NIM10pW0NIMl1DKD1PKVtDQEBdKFtDSDNdKShbT0hdKVtDQEBdMTJbQ0BAXShPMikoW0NASF0oTzgpW0NIMl01KVtDSDJdW0NAQEhdKE8xKUMoW0NIM10pKFtDSDNdKVtPSF0=

>  <s_epik_cmdline>  (46) 
J2VwaWtfcHl0aG9uJywgJy1waHQnLCAnMi4wJywgJy1waCcsICc3LjAnLCAnLXRuJywgJzgnLCAnLW1hJywgJzIwMCcsICctaW1hZScsICc8aW5maWxlLm1hZT4nLCAnLW9tYWUnLCAnPG91dGZpbGUubWFlPic=

>  <r_lp_tautomer_probability>  (46) 
0.99995

>  <r_epik_Ionization_Penalty>  (46) 
0.000614028

>  <r_epik_Ionization_Penalty_Charging>  (46) 
0

>  <r_epik_Ionization_Penalty_Neutral>  (46) 
0.000614028

>  <r_epik_State_Penalty>  (46) 
0.000367874

>  <r_epik_Charging_Adjusted_Penalty>  (46) 
0.000367874

>  <i_epik_Tot_Q>  (46) 
0

>  <i_epik_Tot_abs_Q>  (46) 
0

>  <s_epik_Chemistry_Notes>  (46) 
This compound contains an acetal/aminal-like group ( X-CH(R)-Y where X, Y are N, S, or O) that may be acid/base labile, releasing an aldehyde.

>  <s_lp_Force_Field>  (46) 
OPLS3e

>  <r_lp_Energy>  (46) 
320.959

>  <b_lp_Chiralities_Consistent>  (46) 
1

>  <s_lp_Variant>  (46) 
36:0-2

>  <s_i_glide_gridfile>  (46) 
pfpi4k_grid

>  <i_i_glide_lignum>  (46) 
4

>  <i_i_glide_rotatable_bonds>  (46) 
11

>  <r_i_docking_score>  (46) 
-4.18501

>  <r_i_glide_ligand_efficiency>  (46) 
-0.0686066

>  <r_i_glide_ligand_efficiency_sa>  (46) 
-0.27007

>  <r_i_glide_ligand_efficiency_ln>  (46) 
-0.818843

>  <r_i_glide_gscore>  (46) 
-4.18501

>  <r_i_glide_lipo>  (46) 
-0.681013

>  <r_i_glide_hbond>  (46) 
-0.0624713

>  <r_i_glide_metal>  (46) 
-0

>  <r_i_glide_rewards>  (46) 
-1.01854

>  <r_i_glide_evdw>  (46) 
-32.0778

>  <r_i_glide_ecoul>  (46) 
-5.75646

>  <r_i_glide_erotb>  (46) 
0.0582014

>  <r_i_glide_esite>  (46) 
-0.0138199

>  <r_i_glide_emodel>  (46) 
-53.6499

>  <r_i_glide_energy>  (46) 
-37.8343

>  <r_i_glide_einternal>  (46) 
8.19486

>  <r_i_glide_intrahb_reward>  (46) 
-1

>  <i_i_glide_confnum>  (46) 
4

>  <i_i_glide_posenum>  (46) 
32

>  <r_i_glide_eff_state_penalty>  (46) 
0

>  <ligand_id>  (46) 
36

>  <original_smiles>  (46) 
COC1C(O)C23CC4OC56OC7(CC(C)(C)CC(=O)C(C)(O)C89OC(C(C)(C)O)CC48O9)OCC4(C)C(C45)C(C)(CO)C(O)C(O)(C4OC2(O)CC2(C)OC2OC14C3)C6(O)O7

>  <smiles>  (46) 
[H]OC([H])([H])C1(C([H])([H])[H])C([H])(O[H])C2(O[H])C3([H])OC4(O[H])C([H])([H])C5(C([H])([H])[H])OC5([H])OC35C([H])([H])C4(C([H])([H])C3([H])OC46OC(OC([H])([H])C7(C([H])([H])[H])C4([H])C17[H])(OC62O[H])C([H])([H])C(C([H])([H])[H])(C([H])([H])[H])C([H])([H])C(=O)C(O[H])(C([H])([H])[H])C12OC([H])(C(O[H])(C([H])([H])[H])C([H])([H])[H])C([H])([H])C31O2)C([H])(O[H])C5([H])OC([H])([H])[H]

$$$$
36:1:1
     RDKit          3D

121132  0  0  1  0  0  0  0  0999 V2000
   -2.3440    3.5455    2.7133 C   0  0  0  0  0  0  0  0  0  0  0  0
   -1.6503    3.1899    3.9037 O   0  0  0  0  0  0  0  0  0  0  0  0
   -0.3183    2.6981    3.7733 C   0  0  2  0  0  0  0  0  0  0  0  0
   -0.2751    1.4488    2.8672 C   0  0  1  0  0  0  0  0  0  0  0  0
    0.2064    1.7149    1.5754 O   0  0  0  0  0  0  0  0  0  0  0  0
    0.7779    0.7388    3.6751 C   0  0  2  0  0  0  0  0  0  0  0  0
    1.6766   -0.3419    2.9081 C   0  0  0  0  0  0  0  0  0  0  0  0
    2.9270   -1.0667    3.5854 C   0  0  2  0  0  0  0  0  0  0  0  0
    3.8915   -0.1424    4.1605 O   0  0  0  0  0  0  0  0  0  0  0  0
    4.4745   -0.2653    5.4578 C   0  0  1  0  0  0  0  0  0  0  0  0
    5.0998   -1.4634    5.7519 O   0  0  0  0  0  0  0  0  0  0  0  0
    5.0890   -1.5568    7.1505 C   0  0  1  0  0  0  0  0  0  0  0  0
    4.6319   -2.9797    7.6093 C   0  0  0  0  0  0  0  0  0  0  0  0
    5.2241   -4.2131    6.8306 C   0  0  0  0  0  0  0  0  0  0  0  0
    6.7631   -4.2033    6.8774 C   0  0  0  0  0  0  0  0  0  0  0  0
    4.7787   -5.4885    7.5879 C   0  0  0  0  0  0  0  0  0  0  0  0
    4.7953   -4.3466    5.3331 C   0  0  0  0  0  0  0  0  0  0  0  0
    3.2972   -4.3352    4.9737 C   0  0  0  0  0  0  0  0  0  0  0  0
    2.4193   -4.2063    5.8309 O   0  0  0  0  0  0  0  0  0  0  0  0
    2.9007   -4.4835    3.4921 C   0  0  1  0  0  0  0  0  0  0  0  0
    3.1332   -5.9271    3.0108 C   0  0  0  0  0  0  0  0  0  0  0  0
    1.4996   -4.2806    3.3499 O   0  0  0  0  0  0  0  0  0  0  0  0
    3.6345   -3.4995    2.5793 C   0  0  2  0  0  0  0  0  0  0  0  0
    4.8905   -3.9428    2.0494 O   0  0  0  0  0  0  0  0  0  0  0  0
    5.6850   -2.8522    1.5746 C   0  0  1  0  0  0  0  0  0  0  0  0
    5.9620   -3.0060    0.0409 C   0  0  0  0  0  0  0  0  0  0  0  0
    7.2805   -3.7594   -0.2229 C   0  0  0  0  0  0  0  0  0  0  0  0
    4.8109   -3.6973   -0.7194 C   0  0  0  0  0  0  0  0  0  0  0  0
    6.1521   -1.7446   -0.5686 O   0  0  0  0  0  0  0  0  0  0  0  0
    5.0220   -1.5493    2.0809 C   0  0  0  0  0  0  0  0  0  0  0  0
    3.6852   -1.9914    2.6117 C   0  0  2  0  0  0  0  0  0  0  0  0
    2.8381   -2.7072    1.6951 O   0  0  0  0  0  0  0  0  0  0  0  0
    6.3228   -1.3321    7.7513 O   0  0  0  0  0  0  0  0  0  0  0  0
    7.2673   -0.4815    7.1398 C   0  0  0  0  0  0  0  0  0  0  0  0
    6.8364    0.7830    6.4067 C   0  0  2  0  0  0  0  0  0  0  0  0
    8.0751    1.3725    5.7558 C   0  0  0  0  0  0  0  0  0  0  0  0
    5.7716    1.7983    6.8249 C   0  0  1  0  0  0  0  0  0  0  0  0
    5.5376    0.8483    5.6152 C   0  0  2  0  0  0  0  0  0  0  0  0
    4.9936    2.0111    8.2081 C   0  0  1  0  0  0  0  0  0  0  0  0
    5.6059    1.2101    9.3957 C   0  0  0  0  0  0  0  0  0  0  0  0
    5.2825    3.4977    8.6262 C   0  0  0  0  0  0  0  0  0  0  0  0
    6.6591    3.7771    8.8026 O   0  0  0  0  0  0  0  0  0  0  0  0
    3.3772    1.7943    8.1554 C   0  0  1  0  0  0  0  0  0  0  0  0
    2.6532    2.9087    8.6594 O   0  0  0  0  0  0  0  0  0  0  0  0
    2.7966    1.3692    6.7474 C   0  0  2  0  0  0  0  0  0  0  0  0
    3.3435    2.5111    6.0880 O   0  0  0  0  0  0  0  0  0  0  0  0
    1.2284    1.5246    6.2869 C   0  0  2  0  0  0  0  0  0  0  0  0
    0.6048    0.2758    6.0822 O   0  0  0  0  0  0  0  0  0  0  0  0
   -0.1313    0.1500    4.9454 C   0  0  2  0  0  0  0  0  0  0  0  0
   -0.4149   -1.2123    4.6844 O   0  0  0  0  0  0  0  0  0  0  0  0
   -1.5089    0.8289    5.4879 C   0  0  0  0  0  0  0  0  0  0  0  0
   -1.4999    1.9692    6.6103 C   0  0  2  0  0  0  0  0  0  0  0  0
   -1.8781    1.3970    7.9532 C   0  0  0  0  0  0  0  0  0  0  0  0
   -2.1593    3.1920    6.2549 O   0  0  0  0  0  0  0  0  0  0  0  0
   -0.7933    3.3940    6.6464 C   0  0  2  0  0  0  0  0  0  0  0  0
    0.2004    3.7458    5.6252 O   0  0  0  0  0  0  0  0  0  0  0  0
    0.7408    2.5661    5.0582 C   0  0  2  0  0  0  0  0  0  0  0  0
    1.6432    2.0143    3.9751 C   0  0  0  0  0  0  0  0  0  0  0  0
    3.4251   -0.1495    6.5495 C   0  0  1  0  0  0  0  0  0  0  0  0
    2.4654   -1.1759    6.4746 O   0  0  0  0  0  0  0  0  0  0  0  0
    4.1745   -0.5990    7.6241 O   0  0  0  0  0  0  0  0  0  0  0  0
   -3.2898    4.0169    2.9835 H   0  0  0  0  0  0  0  0  0  0  0  0
   -2.5917    2.6766    2.0985 H   0  0  0  0  0  0  0  0  0  0  0  0
   -1.7890    4.2680    2.1097 H   0  0  0  0  0  0  0  0  0  0  0  0
    0.0639    3.5434    3.1895 H   0  0  0  0  0  0  0  0  0  0  0  0
   -1.2126    0.8893    2.7873 H   0  0  0  0  0  0  0  0  0  0  0  0
    0.1039    2.6663    1.3706 H   0  0  0  0  0  0  0  0  0  0  0  0
    1.0104   -1.0959    2.4774 H   0  0  0  0  0  0  0  0  0  0  0  0
    2.0860    0.1586    2.0330 H   0  0  0  0  0  0  0  0  0  0  0  0
    2.4909   -1.7508    4.2942 H   0  0  0  0  0  0  0  0  0  0  0  0
    4.9113   -3.0648    8.6608 H   0  0  0  0  0  0  0  0  0  0  0  0
    3.5466   -3.0422    7.6397 H   0  0  0  0  0  0  0  0  0  0  0  0
    7.1761   -5.1303    6.4775 H   0  0  0  0  0  0  0  0  0  0  0  0
    7.1411   -4.0878    7.8935 H   0  0  0  0  0  0  0  0  0  0  0  0
    7.1673   -3.3932    6.2751 H   0  0  0  0  0  0  0  0  0  0  0  0
    5.1246   -6.3958    7.0889 H   0  0  0  0  0  0  0  0  0  0  0  0
    3.6941   -5.5646    7.6781 H   0  0  0  0  0  0  0  0  0  0  0  0
    5.1813   -5.5149    8.6027 H   0  0  0  0  0  0  0  0  0  0  0  0
    5.2838   -3.5723    4.7448 H   0  0  0  0  0  0  0  0  0  0  0  0
    5.1992   -5.2829    4.9482 H   0  0  0  0  0  0  0  0  0  0  0  0
    4.1901   -6.1965    3.0733 H   0  0  0  0  0  0  0  0  0  0  0  0
    2.8431   -6.0380    1.9621 H   0  0  0  0  0  0  0  0  0  0  0  0
    2.5740   -6.6585    3.5998 H   0  0  0  0  0  0  0  0  0  0  0  0
    1.0678   -4.9035    3.9152 H   0  0  0  0  0  0  0  0  0  0  0  0
    6.6457   -2.9418    2.0742 H   0  0  0  0  0  0  0  0  0  0  0  0
    7.2525   -4.7747    0.1803 H   0  0  0  0  0  0  0  0  0  0  0  0
    8.1319   -3.2427    0.2272 H   0  0  0  0  0  0  0  0  0  0  0  0
    7.4907   -3.8354   -1.2944 H   0  0  0  0  0  0  0  0  0  0  0  0
    4.6445   -4.7108   -0.3492 H   0  0  0  0  0  0  0  0  0  0  0  0
    5.0266   -3.7902   -1.7870 H   0  0  0  0  0  0  0  0  0  0  0  0
    3.8763   -3.1478   -0.6157 H   0  0  0  0  0  0  0  0  0  0  0  0
    5.3491   -1.2621   -0.4433 H   0  0  0  0  0  0  0  0  0  0  0  0
    5.6450   -1.1499    2.8839 H   0  0  0  0  0  0  0  0  0  0  0  0
    4.8909   -0.7427    1.3642 H   0  0  0  0  0  0  0  0  0  0  0  0
    7.9873   -0.1929    7.9074 H   0  0  0  0  0  0  0  0  0  0  0  0
    7.8245   -1.1060    6.4440 H   0  0  0  0  0  0  0  0  0  0  0  0
    7.8238    2.2532    5.1735 H   0  0  0  0  0  0  0  0  0  0  0  0
    8.5131    0.6548    5.0632 H   0  0  0  0  0  0  0  0  0  0  0  0
    8.8210    1.6644    6.4979 H   0  0  0  0  0  0  0  0  0  0  0  0
    5.9873    2.7822    6.4365 H   0  0  0  0  0  0  0  0  0  0  0  0
    5.6693    1.3477    4.6591 H   0  0  0  0  0  0  0  0  0  0  0  0
    5.2067    1.5750   10.3447 H   0  0  0  0  0  0  0  0  0  0  0  0
    6.6905    1.3108    9.4485 H   0  0  0  0  0  0  0  0  0  0  0  0
    5.4046    0.1462    9.3968 H   0  0  0  0  0  0  0  0  0  0  0  0
    4.8749    4.1931    7.8936 H   0  0  0  0  0  0  0  0  0  0  0  0
    4.8128    3.7481    9.5785 H   0  0  0  0  0  0  0  0  0  0  0  0
    7.0987    3.6992    7.9715 H   0  0  0  0  0  0  0  0  0  0  0  0
    3.1082    1.0282    8.8856 H   0  0  0  0  0  0  0  0  0  0  0  0
    2.7355    3.5990    8.0168 H   0  0  0  0  0  0  0  0  0  0  0  0
    3.1731    2.4210    5.1641 H   0  0  0  0  0  0  0  0  0  0  0  0
    0.8444    1.8182    7.2591 H   0  0  0  0  0  0  0  0  0  0  0  0
    0.3952   -1.6324    4.4356 H   0  0  0  0  0  0  0  0  0  0  0  0
   -2.1939    1.0820    4.6827 H   0  0  0  0  0  0  0  0  0  0  0  0
   -2.0532    0.0031    5.9368 H   0  0  0  0  0  0  0  0  0  0  0  0
   -1.1463    0.6476    8.2589 H   0  0  0  0  0  0  0  0  0  0  0  0
   -2.8725    0.9700    7.8943 H   0  0  0  0  0  0  0  0  0  0  0  0
   -1.8773    2.1879    8.6974 H   0  0  0  0  0  0  0  0  0  0  0  0
   -0.6811    3.9614    7.5934 H   0  0  0  0  0  0  0  0  0  0  0  0
    2.6204    1.6644    4.1746 H   0  0  0  0  0  0  0  0  0  0  0  0
    1.8741    2.6536    3.1238 H   0  0  0  0  0  0  0  0  0  0  0  0
    2.8995   -1.9743    6.2056 H   0  0  0  0  0  0  0  0  0  0  0  0
  1  2  1  0
  1 62  1  0
  1 63  1  0
  1 64  1  0
  2  3  1  0
  3 57  1  0
  3  4  1  0
  3 65  1  6
  4  5  1  0
  4  6  1  0
  4 66  1  6
  5 67  1  0
  6 49  1  0
  6 58  1  0
  6  7  1  6
  7  8  1  0
  7 68  1  0
  7 69  1  0
  8 31  1  0
  8  9  1  0
  8 70  1  1
 10  9  1  6
 10 38  1  0
 10 59  1  0
 10 11  1  0
 11 12  1  0
 12 61  1  1
 12 13  1  0
 12 33  1  0
 13 14  1  0
 13 71  1  0
 13 72  1  0
 14 15  1  0
 14 16  1  0
 14 17  1  0
 15 73  1  0
 15 74  1  0
 15 75  1  0
 16 76  1  0
 16 77  1  0
 16 78  1  0
 17 18  1  0
 17 79  1  0
 17 80  1  0
 18 19  2  0
 18 20  1  0
 20 21  1  0
 20 22  1  1
 20 23  1  0
 21 81  1  0
 21 82  1  0
 21 83  1  0
 22 84  1  0
 23 31  1  0
 23 32  1  6
 23 24  1  0
 24 25  1  0
 25 26  1  0
 25 30  1  0
 25 85  1  1
 26 27  1  0
 26 28  1  0
 26 29  1  0
 27 86  1  0
 27 87  1  0
 27 88  1  0
 28 89  1  0
 28 90  1  0
 28 91  1  0
 29 92  1  0
 30 31  1  0
 30 93  1  0
 30 94  1  0
 31 32  1  6
 33 34  1  0
 34 35  1  0
 34 95  1  0
 34 96  1  0
 35 38  1  0
 35 36  1  6
 35 37  1  0
 36 97  1  0
 36 98  1  0
 36 99  1  0
 37 38  1  0
 37 39  1  0
 37100  1  6
 38101  1  6
 39 40  1  1
 39 41  1  0
 39 43  1  0
 40102  1  0
 40103  1  0
 40104  1  0
 41 42  1  0
 41105  1  0
 41106  1  0
 42107  1  0
 43 44  1  0
 43 45  1  0
 43108  1  1
 44109  1  0
 45 46  1  6
 45 47  1  0
 45 59  1  0
 46110  1  0
 47 57  1  0
 47 48  1  0
 47111  1  1
 48 49  1  0
 49 50  1  6
 49 51  1  0
 50112  1  0
 51 52  1  0
 51113  1  0
 51114  1  0
 52 55  1  0
 52 53  1  1
 52 54  1  0
 53115  1  0
 53116  1  0
 53117  1  0
 54 55  1  0
 55 56  1  0
 55118  1  1
 57 56  1  1
 57 58  1  0
 58119  1  0
 58120  1  0
 59 60  1  6
 59 61  1  0
 60121  1  0
M  END
>  <i_m_ct_stereo_status>  (47) 
1

>  <s_m_source_file>  (47) 
/var/tmp/pbs.5076253.sched01/tmptd9uf136/47e5u2q_zc.sdf

>  <i_m_source_file_index>  (47) 
4

>  <i_lp_mmshare_version>  (47) 
48012

>  <i_f3d_flags>  (47) 
0

>  <s_epik_input>  (47) 
W0NIMl0xW0NAQF0oTzIpKFtDSDNdKVtDQEhdMk9bQ0BdKFtDSDJdMykoW0NASF0oT1tDSDNdKVtDQEhdNFtPSF0pW0NAQEhdKE9bQ0BAXTEoW0NAXTM0NSlbT0hdKVtDQF02KFtPSF0pW0NAQF03KFtPSF0pW0NAXTg5W0NAQEhdMVtDQEBdKFtDSDNdKShbQ0BASF0xW0NAQF0oW0NIM10pKFtDSDJdW09IXSlbQ0BIXTZbT0hdKVtDSDJdT1tDQF0oTzkpKE83KVtDSDJdQyhbQ0gzXSkoW0NIM10pW0NIMl1DKD1PKVtDQEBdKFtDSDNdKShbT0hdKVtDQEBdMTJbQ0BAXShPMikoW0NASF0oTzgpW0NIMl01KVtDSDJdW0NAQEhdKE8xKUMoW0NIM10pKFtDSDNdKVtPSF0=

>  <s_epik_cmdline>  (47) 
J2VwaWtfcHl0aG9uJywgJy1waHQnLCAnMi4wJywgJy1waCcsICc3LjAnLCAnLXRuJywgJzgnLCAnLW1hJywgJzIwMCcsICctaW1hZScsICc8aW5maWxlLm1hZT4nLCAnLW9tYWUnLCAnPG91dGZpbGUubWFlPic=

>  <r_lp_tautomer_probability>  (47) 
0.99995

>  <r_epik_Ionization_Penalty>  (47) 
0.000614028

>  <r_epik_Ionization_Penalty_Charging>  (47) 
0

>  <r_epik_Ionization_Penalty_Neutral>  (47) 
0.000614028

>  <r_epik_State_Penalty>  (47) 
0.000367874

>  <r_epik_Charging_Adjusted_Penalty>  (47) 
0.000367874

>  <i_epik_Tot_Q>  (47) 
0

>  <i_epik_Tot_abs_Q>  (47) 
0

>  <s_epik_Chemistry_Notes>  (47) 
This compound contains an acetal/aminal-like group ( X-CH(R)-Y where X, Y are N, S, or O) that may be acid/base labile, releasing an aldehyde.

>  <s_lp_Force_Field>  (47) 
OPLS3e

>  <r_lp_Energy>  (47) 
320.959

>  <b_lp_Chiralities_Consistent>  (47) 
1

>  <s_lp_Variant>  (47) 
36:0-2

>  <s_i_glide_gridfile>  (47) 
pfpi4k_grid

>  <i_i_glide_lignum>  (47) 
4

>  <i_i_glide_rotatable_bonds>  (47) 
11

>  <r_i_docking_score>  (47) 
-3.54845

>  <r_i_glide_ligand_efficiency>  (47) 
-0.0581713

>  <r_i_glide_ligand_efficiency_sa>  (47) 
-0.228991

>  <r_i_glide_ligand_efficiency_ln>  (47) 
-0.694294

>  <r_i_glide_gscore>  (47) 
-3.54845

>  <r_i_glide_lipo>  (47) 
-0.671174

>  <r_i_glide_hbond>  (47) 
-0.0565592

>  <r_i_glide_metal>  (47) 
-0

>  <r_i_glide_rewards>  (47) 
-0.517762

>  <r_i_glide_evdw>  (47) 
-32.1909

>  <r_i_glide_ecoul>  (47) 
-4.91765

>  <r_i_glide_erotb>  (47) 
0.0582014

>  <r_i_glide_esite>  (47) 
-0.0139671

>  <r_i_glide_emodel>  (47) 
-46.2602

>  <r_i_glide_energy>  (47) 
-37.1085

>  <r_i_glide_einternal>  (47) 
7.92243

>  <r_i_glide_intrahb_reward>  (47) 
-0.5

>  <i_i_glide_confnum>  (47) 
4

>  <i_i_glide_posenum>  (47) 
34

>  <r_i_glide_eff_state_penalty>  (47) 
0

>  <ligand_id>  (47) 
36

>  <original_smiles>  (47) 
COC1C(O)C23CC4OC56OC7(CC(C)(C)CC(=O)C(C)(O)C89OC(C(C)(C)O)CC48O9)OCC4(C)C(C45)C(C)(CO)C(O)C(O)(C4OC2(O)CC2(C)OC2OC14C3)C6(O)O7

>  <smiles>  (47) 
[H]OC([H])([H])C1(C([H])([H])[H])C([H])(O[H])C2(O[H])C3([H])OC4(O[H])C([H])([H])C5(C([H])([H])[H])OC5([H])OC35C([H])([H])C4(C([H])([H])C3([H])OC46OC(OC([H])([H])C7(C([H])([H])[H])C4([H])C17[H])(OC62O[H])C([H])([H])C(C([H])([H])[H])(C([H])([H])[H])C([H])([H])C(=O)C(O[H])(C([H])([H])[H])C12OC([H])(C(O[H])(C([H])([H])[H])C([H])([H])[H])C([H])([H])C31O2)C([H])(O[H])C5([H])OC([H])([H])[H]

$$$$
36:1:2
     RDKit          3D

121132  0  0  1  0  0  0  0  0999 V2000
   -2.3845    3.9756    2.9162 C   0  0  0  0  0  0  0  0  0  0  0  0
   -1.6808    3.6990    4.1226 O   0  0  0  0  0  0  0  0  0  0  0  0
   -0.3839    3.1158    4.0061 C   0  0  2  0  0  0  0  0  0  0  0  0
   -0.4200    1.8533    3.1202 C   0  0  1  0  0  0  0  0  0  0  0  0
    0.0828    2.1079    1.8269 O   0  0  0  0  0  0  0  0  0  0  0  0
    0.5922    1.0926    3.9297 C   0  0  2  0  0  0  0  0  0  0  0  0
    1.4208   -0.0522    3.1751 C   0  0  0  0  0  0  0  0  0  0  0  0
    2.6356   -0.8357    3.8528 C   0  0  2  0  0  0  0  0  0  0  0  0
    3.6606    0.0343    4.4109 O   0  0  0  0  0  0  0  0  0  0  0  0
    4.2332   -0.1096    5.7084 C   0  0  1  0  0  0  0  0  0  0  0  0
    4.7859   -1.3396    6.0149 O   0  0  0  0  0  0  0  0  0  0  0  0
    4.7835   -1.4091    7.4135 C   0  0  1  0  0  0  0  0  0  0  0  0
    4.2424   -2.7969    7.9013 C   0  0  0  0  0  0  0  0  0  0  0  0
    4.7531   -4.0753    7.1390 C   0  0  0  0  0  0  0  0  0  0  0  0
    6.2897   -4.1582    7.1762 C   0  0  0  0  0  0  0  0  0  0  0  0
    4.2342   -5.3090    7.9197 C   0  0  0  0  0  0  0  0  0  0  0  0
    4.3080   -4.2093    5.6468 C   0  0  0  0  0  0  0  0  0  0  0  0
    2.8115   -4.1067    5.2982 C   0  0  0  0  0  0  0  0  0  0  0  0
    1.9562   -3.8725    6.1554 O   0  0  0  0  0  0  0  0  0  0  0  0
    2.4012   -4.2587    3.8208 C   0  0  1  0  0  0  0  0  0  0  0  0
    2.5377   -5.7181    3.3607 C   0  0  0  0  0  0  0  0  0  0  0  0
    1.0142   -3.9906    3.6821 O   0  0  0  0  0  0  0  0  0  0  0  0
    3.1773   -3.3315    2.8875 C   0  0  2  0  0  0  0  0  0  0  0  0
    4.3685   -3.8662    2.3156 O   0  0  0  0  0  0  0  0  0  0  0  0
    5.2629   -2.8446    1.8742 C   0  0  1  0  0  0  0  0  0  0  0  0
    5.4985   -3.0065    0.3477 C   0  0  0  0  0  0  0  0  0  0  0  0
    6.0139   -4.4191    0.0132 C   0  0  0  0  0  0  0  0  0  0  0  0
    4.2594   -2.6993   -0.5142 C   0  0  0  0  0  0  0  0  0  0  0  0
    6.5352   -2.1212   -0.0399 O   0  0  0  0  0  0  0  0  0  0  0  0
    4.6986   -1.4888    2.3462 C   0  0  0  0  0  0  0  0  0  0  0  0
    3.3315   -1.8216    2.8925 C   0  0  2  0  0  0  0  0  0  0  0  0
    2.4138   -2.4984    2.0105 O   0  0  0  0  0  0  0  0  0  0  0  0
    6.0344   -1.2516    7.9974 O   0  0  0  0  0  0  0  0  0  0  0  0
    7.0276   -0.4767    7.3552 C   0  0  0  0  0  0  0  0  0  0  0  0
    6.6676    0.8076    6.6224 C   0  0  2  0  0  0  0  0  0  0  0  0
    7.9324    1.3109    5.9480 C   0  0  0  0  0  0  0  0  0  0  0  0
    5.6656    1.8899    7.0363 C   0  0  1  0  0  0  0  0  0  0  0  0
    5.3676    0.9397    5.8404 C   0  0  2  0  0  0  0  0  0  0  0  0
    4.9122    2.1717    8.4163 C   0  0  1  0  0  0  0  0  0  0  0  0
    5.4816    1.3539    9.6138 C   0  0  0  0  0  0  0  0  0  0  0  0
    5.2924    3.6424    8.8099 C   0  0  0  0  0  0  0  0  0  0  0  0
    6.6884    3.8346    8.9553 O   0  0  0  0  0  0  0  0  0  0  0  0
    3.2831    2.0542    8.3774 C   0  0  1  0  0  0  0  0  0  0  0  0
    2.6356    3.2220    8.8674 O   0  0  0  0  0  0  0  0  0  0  0  0
    2.6702    1.6409    6.9809 C   0  0  2  0  0  0  0  0  0  0  0  0
    3.2801    2.7333    6.2961 O   0  0  0  0  0  0  0  0  0  0  0  0
    1.1111    1.8865    6.5259 C   0  0  2  0  0  0  0  0  0  0  0  0
    0.4095    0.6757    6.3425 O   0  0  0  0  0  0  0  0  0  0  0  0
   -0.3417    0.5821    5.2157 C   0  0  2  0  0  0  0  0  0  0  0  0
   -0.7078   -0.7625    4.9717 O   0  0  0  0  0  0  0  0  0  0  0  0
   -1.6728    1.3470    5.7546 C   0  0  0  0  0  0  0  0  0  0  0  0
   -1.5794    2.4836    6.8662 C   0  0  2  0  0  0  0  0  0  0  0  0
   -1.9725    1.9703    8.2246 C   0  0  0  0  0  0  0  0  0  0  0  0
   -2.1779    3.7389    6.4845 O   0  0  0  0  0  0  0  0  0  0  0  0
   -0.7965    3.8825    6.8683 C   0  0  2  0  0  0  0  0  0  0  0  0
    0.2132    4.1572    5.8295 O   0  0  0  0  0  0  0  0  0  0  0  0
    0.6799    2.9407    5.2840 C   0  0  2  0  0  0  0  0  0  0  0  0
    1.5343    2.3166    4.2043 C   0  0  0  0  0  0  0  0  0  0  0  0
    3.2029    0.0867    6.8038 C   0  0  1  0  0  0  0  0  0  0  0  0
    2.1814   -0.8844    6.7428 O   0  0  0  0  0  0  0  0  0  0  0  0
    3.9312   -0.3921    7.8778 O   0  0  0  0  0  0  0  0  0  0  0  0
   -3.2931    4.5198    3.1592 H   0  0  0  0  0  0  0  0  0  0  0  0
   -2.7116    3.0693    2.4006 H   0  0  0  0  0  0  0  0  0  0  0  0
   -1.8115    4.6068    2.2325 H   0  0  0  0  0  0  0  0  0  0  0  0
    0.0420    3.9229    3.4010 H   0  0  0  0  0  0  0  0  0  0  0  0
   -1.3838    1.3432    3.0537 H   0  0  0  0  0  0  0  0  0  0  0  0
   -0.0788    3.0184    1.5349 H   0  0  0  0  0  0  0  0  0  0  0  0
    0.7085   -0.7695    2.7591 H   0  0  0  0  0  0  0  0  0  0  0  0
    1.8514    0.4107    2.2882 H   0  0  0  0  0  0  0  0  0  0  0  0
    2.1702   -1.4838    4.5739 H   0  0  0  0  0  0  0  0  0  0  0  0
    4.5233   -2.8798    8.9519 H   0  0  0  0  0  0  0  0  0  0  0  0
    3.1570   -2.7899    7.9417 H   0  0  0  0  0  0  0  0  0  0  0  0
    6.6414   -5.1157    6.7901 H   0  0  0  0  0  0  0  0  0  0  0  0
    6.6806   -4.0498    8.1887 H   0  0  0  0  0  0  0  0  0  0  0  0
    6.7407   -3.3847    6.5573 H   0  0  0  0  0  0  0  0  0  0  0  0
    4.5205   -6.2431    7.4332 H   0  0  0  0  0  0  0  0  0  0  0  0
    3.1477   -5.3167    8.0159 H   0  0  0  0  0  0  0  0  0  0  0  0
    4.6410   -5.3442    8.9327 H   0  0  0  0  0  0  0  0  0  0  0  0
    4.8366   -3.4742    5.0437 H   0  0  0  0  0  0  0  0  0  0  0  0
    4.6504   -5.1743    5.2751 H   0  0  0  0  0  0  0  0  0  0  0  0
    3.5759   -6.0543    3.4205 H   0  0  0  0  0  0  0  0  0  0  0  0
    2.2302   -5.8248    2.3161 H   0  0  0  0  0  0  0  0  0  0  0  0
    1.9306   -6.3990    3.9663 H   0  0  0  0  0  0  0  0  0  0  0  0
    0.8924   -3.0688    3.8219 H   0  0  0  0  0  0  0  0  0  0  0  0
    6.2122   -3.0221    2.3733 H   0  0  0  0  0  0  0  0  0  0  0  0
    5.2927   -5.1945    0.2836 H   0  0  0  0  0  0  0  0  0  0  0  0
    6.9545   -4.6489    0.5213 H   0  0  0  0  0  0  0  0  0  0  0  0
    6.1800   -4.5073   -1.0609 H   0  0  0  0  0  0  0  0  0  0  0  0
    3.4392   -3.3689   -0.2596 H   0  0  0  0  0  0  0  0  0  0  0  0
    4.4639   -2.8395   -1.5765 H   0  0  0  0  0  0  0  0  0  0  0  0
    3.9091   -1.6783   -0.3828 H   0  0  0  0  0  0  0  0  0  0  0  0
    6.2836   -1.2570    0.2357 H   0  0  0  0  0  0  0  0  0  0  0  0
    5.3506   -1.0981    3.1326 H   0  0  0  0  0  0  0  0  0  0  0  0
    4.6514   -0.7172    1.5787 H   0  0  0  0  0  0  0  0  0  0  0  0
    7.7641   -0.2227    8.1192 H   0  0  0  0  0  0  0  0  0  0  0  0
    7.5443   -1.1327    6.6507 H   0  0  0  0  0  0  0  0  0  0  0  0
    7.7328    2.1946    5.3469 H   0  0  0  0  0  0  0  0  0  0  0  0
    8.3124    0.5510    5.2670 H   0  0  0  0  0  0  0  0  0  0  0  0
    8.7017    1.5676    6.6796 H   0  0  0  0  0  0  0  0  0  0  0  0
    5.9347    2.8541    6.6256 H   0  0  0  0  0  0  0  0  0  0  0  0
    5.5172    1.4109    4.8780 H   0  0  0  0  0  0  0  0  0  0  0  0
    5.1106    1.7573   10.5585 H   0  0  0  0  0  0  0  0  0  0  0  0
    6.5707    1.3913    9.6585 H   0  0  0  0  0  0  0  0  0  0  0  0
    5.2170    0.3043    9.6310 H   0  0  0  0  0  0  0  0  0  0  0  0
    4.9137    4.3514    8.0743 H   0  0  0  0  0  0  0  0  0  0  0  0
    4.8568    3.9340    9.7658 H   0  0  0  0  0  0  0  0  0  0  0  0
    7.1069    3.6717    8.1276 H   0  0  0  0  0  0  0  0  0  0  0  0
    2.9737    1.3192    9.1206 H   0  0  0  0  0  0  0  0  0  0  0  0
    2.7436    3.8884    8.2067 H   0  0  0  0  0  0  0  0  0  0  0  0
    3.1609    2.6015    5.3710 H   0  0  0  0  0  0  0  0  0  0  0  0
    0.7534    2.2182    7.4966 H   0  0  0  0  0  0  0  0  0  0  0  0
    0.0794   -1.2203    4.7447 H   0  0  0  0  0  0  0  0  0  0  0  0
   -2.3446    1.6355    4.9511 H   0  0  0  0  0  0  0  0  0  0  0  0
   -2.2631    0.5601    6.2200 H   0  0  0  0  0  0  0  0  0  0  0  0
   -1.2914    1.1798    8.5349 H   0  0  0  0  0  0  0  0  0  0  0  0
   -2.9905    1.5904    8.1970 H   0  0  0  0  0  0  0  0  0  0  0  0
   -1.9251    2.7762    8.9456 H   0  0  0  0  0  0  0  0  0  0  0  0
   -0.6476    4.4516    7.7951 H   0  0  0  0  0  0  0  0  0  0  0  0
    2.4905    1.9109    4.4004 H   0  0  0  0  0  0  0  0  0  0  0  0
    1.7988    2.9293    3.3418 H   0  0  0  0  0  0  0  0  0  0  0  0
    2.5644   -1.7120    6.5089 H   0  0  0  0  0  0  0  0  0  0  0  0
  1  2  1  0
  1 62  1  0
  1 63  1  0
  1 64  1  0
  2  3  1  0
  3 57  1  0
  3  4  1  0
  3 65  1  6
  4  5  1  0
  4  6  1  0
  4 66  1  6
  5 67  1  0
  6 49  1  0
  6 58  1  0
  6  7  1  6
  7  8  1  0
  7 68  1  0
  7 69  1  0
  8 31  1  0
  8  9  1  0
  8 70  1  1
 10  9  1  6
 10 38  1  0
 10 59  1  0
 10 11  1  0
 11 12  1  0
 12 61  1  1
 12 13  1  0
 12 33  1  0
 13 14  1  0
 13 71  1  0
 13 72  1  0
 14 15  1  0
 14 16  1  0
 14 17  1  0
 15 73  1  0
 15 74  1  0
 15 75  1  0
 16 76  1  0
 16 77  1  0
 16 78  1  0
 17 18  1  0
 17 79  1  0
 17 80  1  0
 18 19  2  0
 18 20  1  0
 20 21  1  0
 20 22  1  1
 20 23  1  0
 21 81  1  0
 21 82  1  0
 21 83  1  0
 22 84  1  0
 23 31  1  0
 23 32  1  6
 23 24  1  0
 24 25  1  0
 25 26  1  0
 25 30  1  0
 25 85  1  1
 26 27  1  0
 26 28  1  0
 26 29  1  0
 27 86  1  0
 27 87  1  0
 27 88  1  0
 28 89  1  0
 28 90  1  0
 28 91  1  0
 29 92  1  0
 30 31  1  0
 30 93  1  0
 30 94  1  0
 31 32  1  6
 33 34  1  0
 34 35  1  0
 34 95  1  0
 34 96  1  0
 35 38  1  0
 35 36  1  6
 35 37  1  0
 36 97  1  0
 36 98  1  0
 36 99  1  0
 37 38  1  0
 37 39  1  0
 37100  1  6
 38101  1  6
 39 40  1  1
 39 41  1  0
 39 43  1  0
 40102  1  0
 40103  1  0
 40104  1  0
 41 42  1  0
 41105  1  0
 41106  1  0
 42107  1  0
 43 44  1  0
 43 45  1  0
 43108  1  1
 44109  1  0
 45 46  1  6
 45 47  1  0
 45 59  1  0
 46110  1  0
 47 57  1  0
 47 48  1  0
 47111  1  1
 48 49  1  0
 49 50  1  6
 49 51  1  0
 50112  1  0
 51 52  1  0
 51113  1  0
 51114  1  0
 52 55  1  0
 52 53  1  1
 52 54  1  0
 53115  1  0
 53116  1  0
 53117  1  0
 54 55  1  0
 55 56  1  0
 55118  1  1
 57 56  1  1
 57 58  1  0
 58119  1  0
 58120  1  0
 59 60  1  6
 59 61  1  0
 60121  1  0
M  END
>  <i_m_ct_stereo_status>  (48) 
1

>  <s_m_source_file>  (48) 
/var/tmp/pbs.5076253.sched01/tmptd9uf136/47e5u2q_zc.sdf

>  <i_m_source_file_index>  (48) 
4

>  <i_lp_mmshare_version>  (48) 
48012

>  <i_f3d_flags>  (48) 
0

>  <s_epik_input>  (48) 
W0NIMl0xW0NAQF0oTzIpKFtDSDNdKVtDQEhdMk9bQ0BdKFtDSDJdMykoW0NASF0oT1tDSDNdKVtDQEhdNFtPSF0pW0NAQEhdKE9bQ0BAXTEoW0NAXTM0NSlbT0hdKVtDQF02KFtPSF0pW0NAQF03KFtPSF0pW0NAXTg5W0NAQEhdMVtDQEBdKFtDSDNdKShbQ0BASF0xW0NAQF0oW0NIM10pKFtDSDJdW09IXSlbQ0BIXTZbT0hdKVtDSDJdT1tDQF0oTzkpKE83KVtDSDJdQyhbQ0gzXSkoW0NIM10pW0NIMl1DKD1PKVtDQEBdKFtDSDNdKShbT0hdKVtDQEBdMTJbQ0BAXShPMikoW0NASF0oTzgpW0NIMl01KVtDSDJdW0NAQEhdKE8xKUMoW0NIM10pKFtDSDNdKVtPSF0=

>  <s_epik_cmdline>  (48) 
J2VwaWtfcHl0aG9uJywgJy1waHQnLCAnMi4wJywgJy1waCcsICc3LjAnLCAnLXRuJywgJzgnLCAnLW1hJywgJzIwMCcsICctaW1hZScsICc8aW5maWxlLm1hZT4nLCAnLW9tYWUnLCAnPG91dGZpbGUubWFlPic=

>  <r_lp_tautomer_probability>  (48) 
0.99995

>  <r_epik_Ionization_Penalty>  (48) 
0.000614028

>  <r_epik_Ionization_Penalty_Charging>  (48) 
0

>  <r_epik_Ionization_Penalty_Neutral>  (48) 
0.000614028

>  <r_epik_State_Penalty>  (48) 
0.000367874

>  <r_epik_Charging_Adjusted_Penalty>  (48) 
0.000367874

>  <i_epik_Tot_Q>  (48) 
0

>  <i_epik_Tot_abs_Q>  (48) 
0

>  <s_epik_Chemistry_Notes>  (48) 
This compound contains an acetal/aminal-like group ( X-CH(R)-Y where X, Y are N, S, or O) that may be acid/base labile, releasing an aldehyde.

>  <s_lp_Force_Field>  (48) 
OPLS3e

>  <r_lp_Energy>  (48) 
320.959

>  <b_lp_Chiralities_Consistent>  (48) 
1

>  <s_lp_Variant>  (48) 
36:0-2

>  <s_i_glide_gridfile>  (48) 
pfpi4k_grid

>  <i_i_glide_lignum>  (48) 
4

>  <i_i_glide_rotatable_bonds>  (48) 
11

>  <r_i_docking_score>  (48) 
-3.32528

>  <r_i_glide_ligand_efficiency>  (48) 
-0.0545128

>  <r_i_glide_ligand_efficiency_sa>  (48) 
-0.214589

>  <r_i_glide_ligand_efficiency_ln>  (48) 
-0.650628

>  <r_i_glide_gscore>  (48) 
-3.32528

>  <r_i_glide_lipo>  (48) 
-0.467897

>  <r_i_glide_hbond>  (48) 
0

>  <r_i_glide_metal>  (48) 
-0

>  <r_i_glide_rewards>  (48) 
-0.504311

>  <r_i_glide_evdw>  (48) 
-26.1157

>  <r_i_glide_ecoul>  (48) 
-7.25799

>  <r_i_glide_erotb>  (48) 
0.0582014

>  <r_i_glide_esite>  (48) 
-0.0167893

>  <r_i_glide_emodel>  (48) 
-44.3001

>  <r_i_glide_energy>  (48) 
-33.3737

>  <r_i_glide_einternal>  (48) 
3.36397

>  <r_i_glide_intrahb_reward>  (48) 
-0.5

>  <i_i_glide_confnum>  (48) 
1

>  <i_i_glide_posenum>  (48) 
11

>  <r_i_glide_eff_state_penalty>  (48) 
0

>  <ligand_id>  (48) 
36

>  <original_smiles>  (48) 
COC1C(O)C23CC4OC56OC7(CC(C)(C)CC(=O)C(C)(O)C89OC(C(C)(C)O)CC48O9)OCC4(C)C(C45)C(C)(CO)C(O)C(O)(C4OC2(O)CC2(C)OC2OC14C3)C6(O)O7

>  <smiles>  (48) 
[H]OC([H])([H])C1(C([H])([H])[H])C([H])(O[H])C2(O[H])C3([H])OC4(O[H])C([H])([H])C5(C([H])([H])[H])OC5([H])OC35C([H])([H])C4(C([H])([H])C3([H])OC46OC(OC([H])([H])C7(C([H])([H])[H])C4([H])C17[H])(OC62O[H])C([H])([H])C(C([H])([H])[H])(C([H])([H])[H])C([H])([H])C(=O)C(O[H])(C([H])([H])[H])C12OC([H])(C(O[H])(C([H])([H])[H])C([H])([H])[H])C([H])([H])C31O2)C([H])(O[H])C5([H])OC([H])([H])[H]

$$$$
39:1:0
     RDKit          3D

 93103  0  0  1  0  0  0  0  0999 V2000
    5.6520   -4.5648   -0.3585 C   0  0  0  0  0  0  0  0  0  0  0  0
    5.6980   -4.4271    1.0587 O   0  0  0  0  0  0  0  0  0  0  0  0
    5.6112   -3.0961    1.5600 C   0  0  2  0  0  0  0  0  0  0  0  0
    5.1650   -3.0702    3.0304 C   0  0  0  0  0  0  0  0  0  0  0  0
    4.2969   -1.8121    3.5678 C   0  0  1  0  0  0  0  0  0  0  0  0
    3.0941   -0.9661    2.9300 C   0  0  0  0  0  0  0  0  0  0  0  0
    1.9766   -0.7670    3.4287 O   0  0  0  0  0  0  0  0  0  0  0  0
    3.5003   -0.3408    1.8456 O   0  0  0  0  0  0  0  0  0  0  0  0
    4.8076   -0.7257    1.5942 C   0  0  2  0  0  0  0  0  0  0  0  0
    4.6325   -2.1612    0.8885 C   0  0  2  0  0  0  0  0  0  0  0  0
    3.2614   -2.6903    0.9491 O   0  0  0  0  0  0  0  0  0  0  0  0
    2.7894   -3.8875    1.6546 C   0  0  0  0  0  0  0  0  0  0  0  0
    2.4678   -4.2292    3.1850 C   0  0  2  0  0  0  0  0  0  0  0  0
    1.5540   -3.3227    3.8336 O   0  0  0  0  0  0  0  0  0  0  0  0
    2.7257   -3.5231    4.6552 C   0  0  2  0  0  0  0  0  0  0  0  0
    3.7461   -2.3158    4.9066 C   0  0  1  0  0  0  0  0  0  0  0  0
    4.7728   -2.8014    5.7844 O   0  0  0  0  0  0  0  0  0  0  0  0
    5.5692   -1.8726    6.4879 C   0  0  0  0  0  0  0  0  0  0  0  0
    2.3930   -4.2057    6.0493 C   0  0  2  0  0  0  0  0  0  0  0  0
    1.0500   -4.8493    6.0642 O   0  0  0  0  0  0  0  0  0  0  0  0
    0.5140   -3.8775    6.9934 C   0  0  1  0  0  0  0  0  0  0  0  0
    0.2063   -4.3880    8.2874 O   0  0  0  0  0  0  0  0  0  0  0  0
    1.0625   -3.7464    9.1570 C   0  0  0  0  0  0  0  0  0  0  0  0
    0.4154   -2.4290    9.6544 C   0  0  0  0  0  0  0  0  0  0  0  0
    1.3758   -4.7038   10.3164 C   0  0  0  0  0  0  0  0  0  0  0  0
    2.2393   -3.4700    8.4841 O   0  0  0  0  0  0  0  0  0  0  0  0
    1.8681   -3.2268    7.1339 C   0  0  1  0  0  0  0  0  0  0  0  0
    3.4683   -5.2420    6.5653 C   0  0  2  0  0  0  0  0  0  0  0  0
    4.5590   -5.5479    5.6361 O   0  0  0  0  0  0  0  0  0  0  0  0
    4.6939   -6.8530    6.2478 C   0  0  0  0  0  0  0  0  0  0  0  0
    5.1659   -7.9312    5.4311 O   0  0  0  0  0  0  0  0  0  0  0  0
    6.2716   -8.1156    6.3317 C   0  0  0  0  0  0  0  0  0  0  0  0
    5.8290   -7.0056    7.1442 O   0  0  0  0  0  0  0  0  0  0  0  0
    3.3202   -6.7574    6.9183 C   0  0  2  0  0  0  0  0  0  0  0  0
    2.0580   -7.5905    6.5313 C   0  0  0  0  0  0  0  0  0  0  0  0
    1.8026   -8.7459    5.8416 C   0  0  0  0  0  0  0  0  0  0  0  0
    0.4316   -9.4031    5.9247 C   0  0  0  0  0  0  0  0  0  0  0  0
    2.7724   -9.5283    5.0257 C   0  0  0  0  0  0  0  0  0  0  0  0
    3.4521  -10.4110    5.5420 O   0  0  0  0  0  0  0  0  0  0  0  0
    2.9020   -9.2789    3.4787 C   0  0  1  0  0  0  0  0  0  0  0  0
    4.2656   -9.7363    2.9243 C   0  0  0  0  0  0  0  0  0  0  0  0
    1.7199   -9.8379    2.6169 C   0  0  0  0  0  0  0  0  0  0  0  0
    0.9563   -8.7309    2.0750 O   0  0  0  0  0  0  0  0  0  0  0  0
    1.1910   -7.6510    2.8880 C   0  0  2  0  0  0  0  0  0  0  0  0
    1.1520   -6.3339    2.3660 O   0  0  0  0  0  0  0  0  0  0  0  0
    2.0956   -5.6875    3.2398 C   0  0  1  0  0  0  0  0  0  0  0  0
    3.2406   -6.6736    3.3024 C   0  0  0  0  0  0  0  0  0  0  0  0
    2.5942   -7.8220    3.2865 C   0  0  0  0  0  0  0  0  0  0  0  0
    5.2967   -0.7227    3.1205 C   0  0  1  0  0  0  0  0  0  0  0  0
    5.1750    0.5707    3.7278 O   0  0  0  0  0  0  0  0  0  0  0  0
    5.7271    0.7378    5.0170 C   0  0  0  0  0  0  0  0  0  0  0  0
    5.8143   -5.6046   -0.6318 H   0  0  0  0  0  0  0  0  0  0  0  0
    6.4057   -3.9552   -0.8590 H   0  0  0  0  0  0  0  0  0  0  0  0
    4.6685   -4.2898   -0.7442 H   0  0  0  0  0  0  0  0  0  0  0  0
    6.6214   -2.6924    1.4794 H   0  0  0  0  0  0  0  0  0  0  0  0
    4.8226   -4.0576    3.3102 H   0  0  0  0  0  0  0  0  0  0  0  0
    6.0871   -3.0895    3.6007 H   0  0  0  0  0  0  0  0  0  0  0  0
    5.3277   -0.0045    0.9716 H   0  0  0  0  0  0  0  0  0  0  0  0
    4.8700   -2.0441   -0.1765 H   0  0  0  0  0  0  0  0  0  0  0  0
    1.7857   -4.0287    1.1375 H   0  0  0  0  0  0  0  0  0  0  0  0
    3.3435   -4.7226    1.2446 H   0  0  0  0  0  0  0  0  0  0  0  0
    3.2230   -1.5136    5.4212 H   0  0  0  0  0  0  0  0  0  0  0  0
    6.2712   -2.2188    7.1900 H   0  0  0  0  0  0  0  0  0  0  0  0
    4.9257   -1.1256    7.0324 H   0  0  0  0  0  0  0  0  0  0  0  0
    6.2412   -1.4370    5.7506 H   0  0  0  0  0  0  0  0  0  0  0  0
   -0.3044   -3.2753    6.5966 H   0  0  0  0  0  0  0  0  0  0  0  0
    0.1932   -1.7705    8.8147 H   0  0  0  0  0  0  0  0  0  0  0  0
    1.0906   -1.9099   10.3307 H   0  0  0  0  0  0  0  0  0  0  0  0
   -0.5100   -2.6442   10.1862 H   0  0  0  0  0  0  0  0  0  0  0  0
    1.8248   -5.6138    9.9212 H   0  0  0  0  0  0  0  0  0  0  0  0
    0.4595   -4.9620   10.8434 H   0  0  0  0  0  0  0  0  0  0  0  0
    2.0687   -4.2354   11.0113 H   0  0  0  0  0  0  0  0  0  0  0  0
    1.8725   -2.1580    6.9094 H   0  0  0  0  0  0  0  0  0  0  0  0
    3.9657   -4.7349    7.4084 H   0  0  0  0  0  0  0  0  0  0  0  0
    6.2334   -9.0805    6.8653 H   0  0  0  0  0  0  0  0  0  0  0  0
    7.2485   -7.9473    5.8560 H   0  0  0  0  0  0  0  0  0  0  0  0
    3.4203   -6.9069    7.9829 H   0  0  0  0  0  0  0  0  0  0  0  0
    1.2118   -7.2096    7.0741 H   0  0  0  0  0  0  0  0  0  0  0  0
    0.5012  -10.4116    6.3475 H   0  0  0  0  0  0  0  0  0  0  0  0
   -0.0384   -9.5004    4.9430 H   0  0  0  0  0  0  0  0  0  0  0  0
   -0.2626   -8.8448    6.5546 H   0  0  0  0  0  0  0  0  0  0  0  0
    5.1130   -9.2963    3.4463 H   0  0  0  0  0  0  0  0  0  0  0  0
    4.3742   -9.4775    1.8691 H   0  0  0  0  0  0  0  0  0  0  0  0
    4.3751  -10.8228    2.9938 H   0  0  0  0  0  0  0  0  0  0  0  0
    2.0998  -10.4058    1.7682 H   0  0  0  0  0  0  0  0  0  0  0  0
    1.0644  -10.5108    3.1737 H   0  0  0  0  0  0  0  0  0  0  0  0
    0.5044   -7.7063    3.7340 H   0  0  0  0  0  0  0  0  0  0  0  0
    1.6154   -5.8080    4.1990 H   0  0  0  0  0  0  0  0  0  0  0  0
    4.2704   -6.4234    3.4589 H   0  0  0  0  0  0  0  0  0  0  0  0
    6.3483   -0.9813    3.1824 H   0  0  0  0  0  0  0  0  0  0  0  0
    5.6039    1.6451    5.5440 H   0  0  0  0  0  0  0  0  0  0  0  0
    6.8143    0.4157    5.0840 H   0  0  0  0  0  0  0  0  0  0  0  0
    5.0747    0.1930    5.6151 H   0  0  0  0  0  0  0  0  0  0  0  0
  1  2  1  0
  1 52  1  0
  1 53  1  0
  1 54  1  0
  2  3  1  0
  3 10  1  0
  3  4  1  0
  3 55  1  1
  4  5  1  0
  4 56  1  0
  4 57  1  0
  5 16  1  0
  5 49  1  0
  5  6  1  6
  6  7  2  0
  6  8  1  0
  8  9  1  0
  9 10  1  0
  9 49  1  0
  9 58  1  6
 10 11  1  0
 10 59  1  6
 11 12  1  0
 12 13  1  0
 12 60  1  0
 12 61  1  0
 13 15  1  0
 13 46  1  0
 13 14  1  6
 15 14  1  6
 15 16  1  0
 15 19  1  0
 16 17  1  0
 16 62  1  1
 17 18  1  0
 18 63  1  0
 18 64  1  0
 18 65  1  0
 19 27  1  0
 19 20  1  6
 19 28  1  0
 20 21  1  0
 21 27  1  0
 21 22  1  0
 21 66  1  6
 22 23  1  0
 23 24  1  0
 23 25  1  0
 23 26  1  0
 24 67  1  0
 24 68  1  0
 24 69  1  0
 25 70  1  0
 25 71  1  0
 25 72  1  0
 26 27  1  0
 27 73  1  6
 28 34  1  0
 28 29  1  0
 28 74  1  1
 29 30  1  0
 30 33  1  0
 30 31  1  0
 30 34  1  0
 31 32  1  0
 32 33  1  0
 32 75  1  0
 32 76  1  0
 34 35  1  0
 34 77  1  1
 35 36  2  3
 35 78  1  0
 36 37  1  0
 36 38  1  0
 37 79  1  0
 37 80  1  0
 37 81  1  0
 38 39  2  0
 38 40  1  0
 40 48  1  0
 40 41  1  6
 40 42  1  0
 41 82  1  0
 41 83  1  0
 41 84  1  0
 42 43  1  0
 42 85  1  0
 42 86  1  0
 43 44  1  0
 44 48  1  0
 44 45  1  0
 44 87  1  1
 45 46  1  0
 46 47  1  0
 46 88  1  1
 47 48  2  0
 47 89  1  0
 49 50  1  0
 49 90  1  6
 50 51  1  0
 51 91  1  0
 51 92  1  0
 51 93  1  0
M  END
>  <i_m_ct_stereo_status>  (49) 
1

>  <s_m_source_file>  (49) 
/var/tmp/pbs.5076253.sched01/tmptd9uf136/47e5u2q_zc.sdf

>  <i_m_source_file_index>  (49) 
20

>  <i_lp_mmshare_version>  (49) 
48012

>  <i_f3d_flags>  (49) 
0

>  <s_epik_input>  (49) 
Tz1DMU9bQ0BASF0oW0NASF0yT1tDSDNdKVtDQEBIXShbQ0BASF0oW0NIMl1bQ0BdMTIzKU9bQ0gzXSlPW0NIMl1bQ0BAXTQ1QyhPNCkoW0NASF0zT1tDSDNdKVtDQF02KFtDQEhdN1tDQEBIXShPNilPQyhPNykoW0NIM10pW0NIM10pW0NASF04W0NASF0oQzkoTzgpT1tDSDJdTzkpL1tDSF09QyhcW0NIM10pQyg9TylbQ0BdMShbQ0gzXSlDMltDQEhdKE9bQ0gyXTEpT1tDQEhdNVtDSF09Mg==

>  <s_epik_cmdline>  (49) 
J2VwaWtfcHl0aG9uJywgJy1waHQnLCAnMi4wJywgJy1waCcsICc3LjAnLCAnLXRuJywgJzgnLCAnLW1hJywgJzIwMCcsICctaW1hZScsICc8aW5maWxlLm1hZT4nLCAnLW9tYWUnLCAnPG91dGZpbGUubWFlPic=

>  <r_lp_tautomer_probability>  (49) 
1

>  <r_epik_Ionization_Penalty>  (49) 
6.72e-13

>  <r_epik_Ionization_Penalty_Charging>  (49) 
0

>  <r_epik_Ionization_Penalty_Neutral>  (49) 
6.72e-13

>  <r_epik_State_Penalty>  (49) 
-0

>  <r_epik_Charging_Adjusted_Penalty>  (49) 
0

>  <i_epik_Tot_Q>  (49) 
0

>  <i_epik_Tot_abs_Q>  (49) 
0

>  <s_epik_Chemistry_Notes>  (49) 
This compound has an ester and may undergo hydrolysis at high or low pH. This compound contains an acetal/aminal-like group ( X-CH(R)-Y where X, Y are N, S, or O) that may be acid/base labile, releasing an aldehyde.

>  <s_lp_Force_Field>  (49) 
OPLS3e

>  <r_lp_Energy>  (49) 
184.297

>  <b_lp_Chiralities_Consistent>  (49) 
1

>  <s_lp_Variant>  (49) 
39:0-2

>  <s_i_glide_gridfile>  (49) 
pfpi4k_grid

>  <i_i_glide_lignum>  (49) 
20

>  <i_i_glide_rotatable_bonds>  (49) 
3

>  <r_i_docking_score>  (49) 
-1.33339

>  <r_i_glide_ligand_efficiency>  (49) 
-0.0261449

>  <r_i_glide_ligand_efficiency_sa>  (49) 
-0.0969566

>  <r_i_glide_ligand_efficiency_ln>  (49) 
-0.270365

>  <r_i_glide_gscore>  (49) 
-1.33339

>  <r_i_glide_lipo>  (49) 
-0.636885

>  <r_i_glide_hbond>  (49) 
-0.0106192

>  <r_i_glide_metal>  (49) 
-0

>  <r_i_glide_rewards>  (49) 
0

>  <r_i_glide_evdw>  (49) 
-23.7385

>  <r_i_glide_ecoul>  (49) 
2.82263

>  <r_i_glide_erotb>  (49) 
0

>  <r_i_glide_esite>  (49) 
-0.0511732

>  <r_i_glide_emodel>  (49) 
-17.6941

>  <r_i_glide_energy>  (49) 
-20.9158

>  <r_i_glide_einternal>  (49) 
1.5724

>  <r_i_glide_intrahb_reward>  (49) 
-0

>  <i_i_glide_confnum>  (49) 
2

>  <i_i_glide_posenum>  (49) 
1

>  <r_i_glide_eff_state_penalty>  (49) 
0

>  <ligand_id>  (49) 
39

>  <original_smiles>  (49) 
COC1CC23C(=O)OC(C1OCC14OC1(C2OC)C1(OC2OC(C)(C)OC21)C1OC2(OCO2)C1C=C(C)C(=O)C1(C)COC2OC4C=C21)C3OC

>  <smiles>  (49) 
[H]C1=C2C3([H])OC([H])([H])C2(C([H])([H])[H])C(=O)C(C([H])([H])[H])=C([H])C2([H])C4(OC([H])([H])O4)OC2([H])C2(OC4([H])OC(C([H])([H])[H])(C([H])([H])[H])OC42[H])C24OC2(C([H])([H])OC2([H])C([H])(OC([H])([H])[H])C([H])([H])C5(C(=O)OC2([H])C5([H])OC([H])([H])[H])C4([H])OC([H])([H])[H])C1([H])O3

$$$$
42:1:0
     RDKit          3D

 75 82  0  0  1  0  0  0  0  0999 V2000
    4.1825   -8.4572    1.4483 C   0  0  0  0  0  0  0  0  0  0  0  0
    4.1117   -6.9063    1.4148 C   0  0  0  0  0  0  0  0  0  0  0  0
    4.7266   -6.4064    0.0979 C   0  0  0  0  0  0  0  0  0  0  0  0
    4.6799   -6.1734    2.7110 C   0  0  2  0  0  0  0  0  0  0  0  0
    4.9507   -7.0960    3.9275 C   0  0  0  0  0  0  0  0  0  0  0  0
    3.6147   -7.1519    4.6991 C   0  0  1  0  0  0  0  0  0  0  0  0
    3.9033   -7.0216    6.0757 O   0  0  0  0  0  0  0  0  0  0  0  0
    2.6812   -6.0323    4.1487 C   0  0  1  0  0  0  0  0  0  0  0  0
    1.4808   -6.6412    3.3755 C   0  0  0  0  0  0  0  0  0  0  0  0
    2.0190   -5.3605    5.2145 O   0  0  0  0  0  0  0  0  0  0  0  0
    3.6661   -5.1217    3.3077 C   0  0  2  0  0  0  0  0  0  0  0  0
    2.9411   -4.4475    2.2362 O   0  0  0  0  0  0  0  0  0  0  0  0
    3.5336   -3.4106    1.4815 C   0  0  2  0  0  0  0  0  0  0  0  0
    4.9288   -3.4367    1.5480 O   0  0  0  0  0  0  0  0  0  0  0  0
    5.3898   -2.1620    1.9518 C   0  0  1  0  0  0  0  0  0  0  0  0
    5.0747   -1.2915    0.6413 C   0  0  1  0  0  0  0  0  0  0  0  0
    5.5641    0.0137    0.8830 O   0  0  0  0  0  0  0  0  0  0  0  0
    5.8390   -1.8239   -0.6015 C   0  0  0  0  0  0  0  0  0  0  0  0
    7.2403   -1.8892   -0.3889 O   0  0  0  0  0  0  0  0  0  0  0  0
    3.4820   -1.1761    0.4126 C   0  0  1  0  0  0  0  0  0  0  0  0
    3.0277   -1.7419   -0.8006 O   0  0  0  0  0  0  0  0  0  0  0  0
    2.9394   -1.9015    1.6486 C   0  0  1  0  0  0  0  0  0  0  0  0
    1.5817   -1.9110    1.9045 O   0  0  0  0  0  0  0  0  0  0  0  0
    1.3656   -2.1505    3.2943 C   0  0  1  0  0  0  0  0  0  0  0  0
    2.3086   -2.9293    3.9827 O   0  0  0  0  0  0  0  0  0  0  0  0
    3.7126   -2.6394    4.2570 C   0  0  1  0  0  0  0  0  0  0  0  0
    3.6665   -2.0382    5.6720 C   0  0  0  0  0  0  0  0  0  0  0  0
    2.7261   -1.2522    6.1880 C   0  0  0  0  0  0  0  0  0  0  0  0
    1.5173   -0.7210    5.5361 C   0  0  0  0  0  0  0  0  0  0  0  0
    0.7072    0.1478    6.1096 C   0  0  0  0  0  0  0  0  0  0  0  0
   -0.3249    0.5508    5.0682 C   0  0  1  0  0  0  0  0  0  0  0  0
   -1.5106    1.0924    5.5703 O   0  0  0  0  0  0  0  0  0  0  0  0
    0.3070    1.3376    4.0999 O   0  0  0  0  0  0  0  0  0  0  0  0
    1.1988    0.4673    3.3762 C   0  0  0  0  0  0  0  0  0  0  0  0
    0.9878   -0.8846    4.0990 C   0  0  1  0  0  0  0  0  0  0  0  0
   -0.5235   -0.7463    4.3075 C   0  0  1  0  0  0  0  0  0  0  0  0
   -1.1120   -1.7926    5.0704 O   0  0  0  0  0  0  0  0  0  0  0  0
    4.3390   -4.0545    4.2735 C   0  0  0  0  0  0  0  0  0  0  0  0
    5.3236   -4.2771    4.9794 O   0  0  0  0  0  0  0  0  0  0  0  0
    4.5362   -1.7075    3.2268 C   0  0  1  0  0  0  0  0  0  0  0  0
    5.3277   -0.8170    3.8641 O   0  0  0  0  0  0  0  0  0  0  0  0
    3.5035   -1.0619    2.6181 O   0  0  0  0  0  0  0  0  0  0  0  0
    5.2117   -8.8155    1.4404 H   0  0  0  0  0  0  0  0  0  0  0  0
    3.6781   -8.9149    0.5952 H   0  0  0  0  0  0  0  0  0  0  0  0
    3.6976   -8.8820    2.3251 H   0  0  0  0  0  0  0  0  0  0  0  0
    3.0641   -6.6374    1.2438 H   0  0  0  0  0  0  0  0  0  0  0  0
    5.7986   -6.6370    0.0362 H   0  0  0  0  0  0  0  0  0  0  0  0
    4.5904   -5.3323   -0.0190 H   0  0  0  0  0  0  0  0  0  0  0  0
    4.1761   -6.8623   -0.7279 H   0  0  0  0  0  0  0  0  0  0  0  0
    5.6356   -5.7009    2.4673 H   0  0  0  0  0  0  0  0  0  0  0  0
    5.3602   -8.0843    3.7260 H   0  0  0  0  0  0  0  0  0  0  0  0
    5.7524   -6.6725    4.5414 H   0  0  0  0  0  0  0  0  0  0  0  0
    3.1428   -8.1224    4.5615 H   0  0  0  0  0  0  0  0  0  0  0  0
    4.3344   -6.1865    6.1982 H   0  0  0  0  0  0  0  0  0  0  0  0
    1.7449   -7.4130    2.6597 H   0  0  0  0  0  0  0  0  0  0  0  0
    0.9318   -5.8743    2.8362 H   0  0  0  0  0  0  0  0  0  0  0  0
    0.7746   -7.1078    4.0642 H   0  0  0  0  0  0  0  0  0  0  0  0
    1.6432   -6.0185    5.7896 H   0  0  0  0  0  0  0  0  0  0  0  0
    3.2448   -3.6982    0.4775 H   0  0  0  0  0  0  0  0  0  0  0  0
    6.4615   -2.2110    2.1820 H   0  0  0  0  0  0  0  0  0  0  0  0
    6.4957   -0.0584    1.0366 H   0  0  0  0  0  0  0  0  0  0  0  0
    5.4898   -2.8252   -0.8703 H   0  0  0  0  0  0  0  0  0  0  0  0
    5.6493   -1.1853   -1.4608 H   0  0  0  0  0  0  0  0  0  0  0  0
    7.4188   -2.6297    0.1812 H   0  0  0  0  0  0  0  0  0  0  0  0
    3.1714   -0.1364    0.4826 H   0  0  0  0  0  0  0  0  0  0  0  0
    2.0531   -1.4742   -0.8700 H   0  0  0  0  0  0  0  0  0  0  0  0
    0.5195   -2.8271    3.2818 H   0  0  0  0  0  0  0  0  0  0  0  0
    4.4945   -2.3368    6.3025 H   0  0  0  0  0  0  0  0  0  0  0  0
    2.8539   -0.9774    7.2406 H   0  0  0  0  0  0  0  0  0  0  0  0
    0.7684    0.5782    7.1040 H   0  0  0  0  0  0  0  0  0  0  0  0
   -2.1246    1.1742    4.8421 H   0  0  0  0  0  0  0  0  0  0  0  0
    0.9058    0.4232    2.3280 H   0  0  0  0  0  0  0  0  0  0  0  0
    2.2260    0.8261    3.4337 H   0  0  0  0  0  0  0  0  0  0  0  0
   -1.0778   -0.5693    3.3859 H   0  0  0  0  0  0  0  0  0  0  0  0
   -0.4836   -2.0423    5.7403 H   0  0  0  0  0  0  0  0  0  0  0  0
  1  2  1  0
  1 43  1  0
  1 44  1  0
  1 45  1  0
  2  3  1  0
  2  4  1  0
  2 46  1  0
  3 47  1  0
  3 48  1  0
  3 49  1  0
  4 11  1  0
  4  5  1  0
  4 50  1  6
  5  6  1  0
  5 51  1  0
  5 52  1  0
  6  7  1  0
  6  8  1  0
  6 53  1  1
  7 54  1  0
  8  9  1  0
  8 10  1  1
  8 11  1  0
  9 55  1  0
  9 56  1  0
  9 57  1  0
 10 58  1  0
 11 38  1  0
 11 12  1  6
 12 13  1  0
 13 22  1  0
 13 14  1  0
 13 59  1  6
 14 15  1  0
 15 40  1  0
 15 16  1  0
 15 60  1  1
 16 17  1  1
 16 18  1  0
 16 20  1  0
 17 61  1  0
 18 19  1  0
 18 62  1  0
 18 63  1  0
 19 64  1  0
 20 21  1  0
 20 22  1  0
 20 65  1  1
 21 66  1  0
 22 42  1  0
 22 23  1  6
 23 24  1  0
 24 35  1  0
 24 25  1  0
 24 67  1  6
 25 26  1  0
 26 27  1  1
 26 38  1  0
 26 40  1  0
 27 28  2  0
 27 68  1  0
 28 29  1  0
 28 69  1  0
 29 35  1  0
 29 30  2  0
 30 31  1  0
 30 70  1  0
 31 36  1  0
 31 32  1  1
 31 33  1  0
 32 71  1  0
 33 34  1  0
 35 34  1  6
 34 72  1  0
 34 73  1  0
 35 36  1  0
 36 37  1  0
 36 74  1  6
 37 75  1  0
 38 39  2  0
 40 41  1  1
 40 42  1  0
M  CHG  1  41  -1
M  END
>  <i_m_ct_stereo_status>  (50) 
1

>  <s_m_source_file>  (50) 
/var/tmp/pbs.5076253.sched01/tmptd9uf136/47e5u2q_zc.sdf

>  <i_m_source_file_index>  (50) 
26

>  <i_lp_mmshare_version>  (50) 
48012

>  <i_f3d_flags>  (50) 
0

>  <s_epik_input>  (50) 
W0NIM11bQ0BAXTEoW09IXSlbQ0BIXShbT0hdKVtDSDJdW0NAQEhdKFtDSF0oW0NIM10pW0NIM10pW0NAQF0xMk9bQ0BIXTNbQ0BAXTQ1W0NASF0oW09IXSlbQ0BdKFtPSF0pKFtDSDJdW09IXSlbQ0BIXShPMylbQ0BdKE81KShbT0hdKVtDQF02KEMyPU8pT1tDQEhdKE80KVtDQEBdNzhDKFtDSF09W0NIXTYpPVtDSF1bQ0BAXShbT0hdKShPW0NIMl03KVtDQEBIXThbT0hd

>  <s_epik_cmdline>  (50) 
J2VwaWtfcHl0aG9uJywgJy1waHQnLCAnMi4wJywgJy1waCcsICc3LjAnLCAnLXRuJywgJzgnLCAnLW1hJywgJzIwMCcsICctaW1hZScsICc8aW5maWxlLm1hZT4nLCAnLW9tYWUnLCAnPG91dGZpbGUubWFlPic=

>  <r_epik_Ionization_Penalty>  (50) 
2.51417

>  <r_epik_Ionization_Penalty_Charging>  (50) 
2.51276

>  <r_epik_Ionization_Penalty_Neutral>  (50) 
0.00141552

>  <r_epik_State_Penalty>  (50) 
2.67863

>  <r_epik_Charging_Adjusted_Penalty>  (50) 
5.19138

>  <i_epik_Tot_Q>  (50) 
-1

>  <i_epik_Tot_abs_Q>  (50) 
1

>  <s_epik_Chemistry_Notes>  (50) 
This compound contains an acetal/aminal-like group ( X-CH(R)-Y where X, Y are N, S, or O) that may be acid/base labile, releasing an aldehyde.

>  <s_lp_Force_Field>  (50) 
OPLS3e

>  <r_lp_Energy>  (50) 
179.278

>  <b_lp_Chiralities_Consistent>  (50) 
1

>  <s_lp_Variant>  (50) 
42:0-2

>  <s_i_glide_gridfile>  (50) 
pfpi4k_grid

>  <i_i_glide_lignum>  (50) 
26

>  <i_i_glide_rotatable_bonds>  (50) 
9

>  <r_i_docking_score>  (50) 
-3.6615

>  <r_i_glide_ligand_efficiency>  (50) 
-0.0871786

>  <r_i_glide_ligand_efficiency_sa>  (50) 
-0.303035

>  <r_i_glide_ligand_efficiency_ln>  (50) 
-0.772849

>  <r_i_glide_gscore>  (50) 
-3.6615

>  <r_i_glide_lipo>  (50) 
-0.30917

>  <r_i_glide_hbond>  (50) 
0

>  <r_i_glide_metal>  (50) 
-0

>  <r_i_glide_rewards>  (50) 
-0.60224

>  <r_i_glide_evdw>  (50) 
-17.4896

>  <r_i_glide_ecoul>  (50) 
-12.6277

>  <r_i_glide_erotb>  (50) 
0.0587797

>  <r_i_glide_esite>  (50) 
-0.0402406

>  <r_i_glide_emodel>  (50) 
-42.7111

>  <r_i_glide_energy>  (50) 
-30.1173

>  <r_i_glide_einternal>  (50) 
5.02869

>  <r_i_glide_intrahb_reward>  (50) 
-0.5

>  <i_i_glide_confnum>  (50) 
1

>  <i_i_glide_posenum>  (50) 
3

>  <r_i_glide_eff_state_penalty>  (50) 
0

>  <ligand_id>  (50) 
42

>  <original_smiles>  (50) 
CC(C)C1CC(O)C(C)(O)C12OC1OC3C(O)(CO)C(O)C14OC1OC(C=CC5=CC6(O)OCC51C6O)(C2=O)C3(O)O4

>  <smiles>  (50) 
[H]OC([H])([H])C1(O[H])C2([H])OC3([H])OC4(C(=O)C56OC([H])(OC3(OC52[O-])C1([H])O[H])C12C(=C([H])C(O[H])(OC1([H])[H])C2([H])O[H])C([H])=C6[H])C([H])(C([H])(C([H])([H])[H])C([H])([H])[H])C([H])([H])C([H])(O[H])C4(O[H])C([H])([H])[H]

$$$$
42:1:1
     RDKit          3D

 75 82  0  0  1  0  0  0  0  0999 V2000
    5.7167   -5.2358    4.4089 C   0  0  0  0  0  0  0  0  0  0  0  0
    5.0693   -4.0177    5.1153 C   0  0  0  0  0  0  0  0  0  0  0  0
    5.8951   -3.6525    6.3600 C   0  0  0  0  0  0  0  0  0  0  0  0
    3.5102   -4.1495    5.3826 C   0  0  2  0  0  0  0  0  0  0  0  0
    2.8115   -5.3164    4.6345 C   0  0  0  0  0  0  0  0  0  0  0  0
    2.3966   -4.7397    3.2660 C   0  0  1  0  0  0  0  0  0  0  0  0
    1.0807   -5.1954    3.0178 O   0  0  0  0  0  0  0  0  0  0  0  0
    2.5562   -3.1907    3.3421 C   0  0  1  0  0  0  0  0  0  0  0  0
    3.7104   -2.6928    2.4446 C   0  0  0  0  0  0  0  0  0  0  0  0
    1.4365   -2.5277    2.7466 O   0  0  0  0  0  0  0  0  0  0  0  0
    2.6791   -2.9052    4.8899 C   0  0  2  0  0  0  0  0  0  0  0  0
    3.4537   -1.6720    5.1040 O   0  0  0  0  0  0  0  0  0  0  0  0
    3.5436   -1.0853    6.3884 C   0  0  2  0  0  0  0  0  0  0  0  0
    3.2359   -1.9664    7.4128 O   0  0  0  0  0  0  0  0  0  0  0  0
    2.2330   -1.4068    8.2390 C   0  0  1  0  0  0  0  0  0  0  0  0
    3.0512   -0.2387    8.9789 C   0  0  1  0  0  0  0  0  0  0  0  0
    2.2267    0.3947    9.9488 O   0  0  0  0  0  0  0  0  0  0  0  0
    4.2536   -0.7922    9.7973 C   0  0  0  0  0  0  0  0  0  0  0  0
    3.8833   -1.8481   10.6670 O   0  0  0  0  0  0  0  0  0  0  0  0
    3.4693    0.8922    7.9110 C   0  0  1  0  0  0  0  0  0  0  0  0
    4.8693    1.0759    7.7993 O   0  0  0  0  0  0  0  0  0  0  0  0
    2.8333    0.3603    6.6095 C   0  0  1  0  0  0  0  0  0  0  0  0
    2.8616    1.1306    5.4518 O   0  0  0  0  0  0  0  0  0  0  0  0
    1.7846    0.7397    4.5982 C   0  0  1  0  0  0  0  0  0  0  0  0
    1.3555   -0.5984    4.6496 O   0  0  0  0  0  0  0  0  0  0  0  0
    0.7328   -1.3194    5.7552 C   0  0  1  0  0  0  0  0  0  0  0  0
   -0.7579   -1.2290    5.4519 C   0  0  0  0  0  0  0  0  0  0  0  0
   -1.4091   -0.1557    4.8974 C   0  0  0  0  0  0  0  0  0  0  0  0
   -0.8407    1.1245    4.5311 C   0  0  0  0  0  0  0  0  0  0  0  0
   -1.6082    2.1574    4.0996 C   0  0  0  0  0  0  0  0  0  0  0  0
   -0.6908    3.3415    3.9434 C   0  0  1  0  0  0  0  0  0  0  0  0
   -1.1998    4.3763    3.1193 O   0  0  0  0  0  0  0  0  0  0  0  0
   -0.3032    3.7905    5.2141 O   0  0  0  0  0  0  0  0  0  0  0  0
    0.5670    2.7678    5.7519 C   0  0  0  0  0  0  0  0  0  0  0  0
    0.5704    1.7161    4.6147 C   0  0  1  0  0  0  0  0  0  0  0  0
    0.6010    2.7189    3.4469 C   0  0  1  0  0  0  0  0  0  0  0  0
    0.4863    2.1255    2.1589 O   0  0  0  0  0  0  0  0  0  0  0  0
    1.2471   -2.7724    5.5305 C   0  0  0  0  0  0  0  0  0  0  0  0
    0.5441   -3.7201    5.8652 O   0  0  0  0  0  0  0  0  0  0  0  0
    1.0406   -0.8684    7.2978 C   0  0  1  0  0  0  0  0  0  0  0  0
   -0.0328   -0.8470    8.0564 O   0  0  0  0  0  0  0  0  0  0  0  0
    1.5075    0.3897    7.0521 O   0  0  0  0  0  0  0  0  0  0  0  0
    5.6881   -6.1315    5.0423 H   0  0  0  0  0  0  0  0  0  0  0  0
    6.7565   -5.0600    4.1501 H   0  0  0  0  0  0  0  0  0  0  0  0
    5.2252   -5.4934    3.4682 H   0  0  0  0  0  0  0  0  0  0  0  0
    5.2677   -3.1494    4.4741 H   0  0  0  0  0  0  0  0  0  0  0  0
    5.9179   -4.4585    7.1176 H   0  0  0  0  0  0  0  0  0  0  0  0
    5.5279   -2.7437    6.8169 H   0  0  0  0  0  0  0  0  0  0  0  0
    6.9256   -3.4406    6.0368 H   0  0  0  0  0  0  0  0  0  0  0  0
    3.3440   -4.3277    6.4538 H   0  0  0  0  0  0  0  0  0  0  0  0
    3.3715   -6.2434    4.5303 H   0  0  0  0  0  0  0  0  0  0  0  0
    1.9396   -5.6507    5.2036 H   0  0  0  0  0  0  0  0  0  0  0  0
    3.0343   -5.1215    2.4711 H   0  0  0  0  0  0  0  0  0  0  0  0
    0.5334   -4.8255    3.6879 H   0  0  0  0  0  0  0  0  0  0  0  0
    4.6413   -3.2450    2.5829 H   0  0  0  0  0  0  0  0  0  0  0  0
    3.9317   -1.6426    2.6179 H   0  0  0  0  0  0  0  0  0  0  0  0
    3.4409   -2.7781    1.3975 H   0  0  0  0  0  0  0  0  0  0  0  0
    1.5399   -1.5966    2.8779 H   0  0  0  0  0  0  0  0  0  0  0  0
    4.6204   -0.8939    6.4459 H   0  0  0  0  0  0  0  0  0  0  0  0
    1.8712   -2.1807    8.9312 H   0  0  0  0  0  0  0  0  0  0  0  0
    1.4405    0.6656    9.4983 H   0  0  0  0  0  0  0  0  0  0  0  0
    5.0204   -1.1894    9.1299 H   0  0  0  0  0  0  0  0  0  0  0  0
    4.7159   -0.0021   10.3851 H   0  0  0  0  0  0  0  0  0  0  0  0
    3.2376   -1.5165   11.2665 H   0  0  0  0  0  0  0  0  0  0  0  0
    2.9958    1.8442    8.1391 H   0  0  0  0  0  0  0  0  0  0  0  0
    5.0082    1.7573    7.1664 H   0  0  0  0  0  0  0  0  0  0  0  0
    2.2501    0.7783    3.6150 H   0  0  0  0  0  0  0  0  0  0  0  0
   -1.3327   -2.1074    5.6693 H   0  0  0  0  0  0  0  0  0  0  0  0
   -2.4663   -0.3091    4.7110 H   0  0  0  0  0  0  0  0  0  0  0  0
   -2.6707    2.1593    3.9479 H   0  0  0  0  0  0  0  0  0  0  0  0
   -0.6695    4.4084    2.3116 H   0  0  0  0  0  0  0  0  0  0  0  0
    1.5551    3.1820    5.9358 H   0  0  0  0  0  0  0  0  0  0  0  0
    0.1691    2.3756    6.6921 H   0  0  0  0  0  0  0  0  0  0  0  0
    1.4383    3.4070    3.4801 H   0  0  0  0  0  0  0  0  0  0  0  0
    0.3020    2.8273    1.5384 H   0  0  0  0  0  0  0  0  0  0  0  0
  1  2  1  0
  1 43  1  0
  1 44  1  0
  1 45  1  0
  2  3  1  0
  2  4  1  0
  2 46  1  0
  3 47  1  0
  3 48  1  0
  3 49  1  0
  4 11  1  0
  4  5  1  0
  4 50  1  1
  5  6  1  0
  5 51  1  0
  5 52  1  0
  6  7  1  0
  6  8  1  0
  6 53  1  6
  7 54  1  0
  8  9  1  0
  8 10  1  6
  8 11  1  0
  9 55  1  0
  9 56  1  0
  9 57  1  0
 10 58  1  0
 11 38  1  0
 11 12  1  6
 12 13  1  0
 13 22  1  0
 13 14  1  0
 13 59  1  1
 14 15  1  0
 15 40  1  0
 15 16  1  0
 15 60  1  1
 16 17  1  1
 16 18  1  0
 16 20  1  0
 17 61  1  0
 18 19  1  0
 18 62  1  0
 18 63  1  0
 19 64  1  0
 20 21  1  0
 20 22  1  0
 20 65  1  1
 21 66  1  0
 22 42  1  0
 22 23  1  6
 23 24  1  0
 24 35  1  0
 24 25  1  0
 24 67  1  6
 25 26  1  0
 26 27  1  6
 26 38  1  0
 26 40  1  0
 27 28  2  0
 27 68  1  0
 28 29  1  0
 28 69  1  0
 29 35  1  0
 29 30  2  0
 30 31  1  0
 30 70  1  0
 31 36  1  0
 31 32  1  6
 31 33  1  0
 32 71  1  0
 33 34  1  0
 35 34  1  1
 34 72  1  0
 34 73  1  0
 35 36  1  0
 36 37  1  0
 36 74  1  6
 37 75  1  0
 38 39  2  0
 40 41  1  1
 40 42  1  0
M  CHG  1  41  -1
M  END
>  <i_m_ct_stereo_status>  (51) 
1

>  <s_m_source_file>  (51) 
/var/tmp/pbs.5076253.sched01/tmptd9uf136/47e5u2q_zc.sdf

>  <i_m_source_file_index>  (51) 
26

>  <i_lp_mmshare_version>  (51) 
48012

>  <i_f3d_flags>  (51) 
0

>  <s_epik_input>  (51) 
W0NIM11bQ0BAXTEoW09IXSlbQ0BIXShbT0hdKVtDSDJdW0NAQEhdKFtDSF0oW0NIM10pW0NIM10pW0NAQF0xMk9bQ0BIXTNbQ0BAXTQ1W0NASF0oW09IXSlbQ0BdKFtPSF0pKFtDSDJdW09IXSlbQ0BIXShPMylbQ0BdKE81KShbT0hdKVtDQF02KEMyPU8pT1tDQEhdKE80KVtDQEBdNzhDKFtDSF09W0NIXTYpPVtDSF1bQ0BAXShbT0hdKShPW0NIMl03KVtDQEBIXThbT0hd

>  <s_epik_cmdline>  (51) 
J2VwaWtfcHl0aG9uJywgJy1waHQnLCAnMi4wJywgJy1waCcsICc3LjAnLCAnLXRuJywgJzgnLCAnLW1hJywgJzIwMCcsICctaW1hZScsICc8aW5maWxlLm1hZT4nLCAnLW9tYWUnLCAnPG91dGZpbGUubWFlPic=

>  <r_epik_Ionization_Penalty>  (51) 
2.51417

>  <r_epik_Ionization_Penalty_Charging>  (51) 
2.51276

>  <r_epik_Ionization_Penalty_Neutral>  (51) 
0.00141552

>  <r_epik_State_Penalty>  (51) 
2.67863

>  <r_epik_Charging_Adjusted_Penalty>  (51) 
5.19138

>  <i_epik_Tot_Q>  (51) 
-1

>  <i_epik_Tot_abs_Q>  (51) 
1

>  <s_epik_Chemistry_Notes>  (51) 
This compound contains an acetal/aminal-like group ( X-CH(R)-Y where X, Y are N, S, or O) that may be acid/base labile, releasing an aldehyde.

>  <s_lp_Force_Field>  (51) 
OPLS3e

>  <r_lp_Energy>  (51) 
179.278

>  <b_lp_Chiralities_Consistent>  (51) 
1

>  <s_lp_Variant>  (51) 
42:0-2

>  <s_i_glide_gridfile>  (51) 
pfpi4k_grid

>  <i_i_glide_lignum>  (51) 
26

>  <i_i_glide_rotatable_bonds>  (51) 
9

>  <r_i_docking_score>  (51) 
-3.48174

>  <r_i_glide_ligand_efficiency>  (51) 
-0.0828987

>  <r_i_glide_ligand_efficiency_sa>  (51) 
-0.288158

>  <r_i_glide_ligand_efficiency_ln>  (51) 
-0.734906

>  <r_i_glide_gscore>  (51) 
-3.48174

>  <r_i_glide_lipo>  (51) 
-0.0289091

>  <r_i_glide_hbond>  (51) 
-0.0334904

>  <r_i_glide_metal>  (51) 
-0

>  <r_i_glide_rewards>  (51) 
-1

>  <r_i_glide_evdw>  (51) 
-16.2504

>  <r_i_glide_ecoul>  (51) 
-10.6403

>  <r_i_glide_erotb>  (51) 
0.0587797

>  <r_i_glide_esite>  (51) 
-0.0695573

>  <r_i_glide_emodel>  (51) 
-43.9534

>  <r_i_glide_energy>  (51) 
-26.8907

>  <r_i_glide_einternal>  (51) 
5.61425

>  <r_i_glide_intrahb_reward>  (51) 
-1

>  <i_i_glide_confnum>  (51) 
5

>  <i_i_glide_posenum>  (51) 
10

>  <r_i_glide_eff_state_penalty>  (51) 
0

>  <ligand_id>  (51) 
42

>  <original_smiles>  (51) 
CC(C)C1CC(O)C(C)(O)C12OC1OC3C(O)(CO)C(O)C14OC1OC(C=CC5=CC6(O)OCC51C6O)(C2=O)C3(O)O4

>  <smiles>  (51) 
[H]OC([H])([H])C1(O[H])C2([H])OC3([H])OC4(C(=O)C56OC([H])(OC3(OC52[O-])C1([H])O[H])C12C(=C([H])C(O[H])(OC1([H])[H])C2([H])O[H])C([H])=C6[H])C([H])(C([H])(C([H])([H])[H])C([H])([H])[H])C([H])([H])C([H])(O[H])C4(O[H])C([H])([H])[H]

$$$$
42:1:2
     RDKit          3D

 75 82  0  0  1  0  0  0  0  0999 V2000
    1.5200  -10.8579    4.0509 C   0  0  0  0  0  0  0  0  0  0  0  0
    2.1562   -9.5496    4.5862 C   0  0  0  0  0  0  0  0  0  0  0  0
    3.1067   -9.8826    5.7456 C   0  0  0  0  0  0  0  0  0  0  0  0
    1.1294   -8.3793    4.9249 C   0  0  2  0  0  0  0  0  0  0  0  0
   -0.3179   -8.6472    4.4709 C   0  0  0  0  0  0  0  0  0  0  0  0
   -0.4174   -8.1308    3.0221 C   0  0  1  0  0  0  0  0  0  0  0  0
   -1.6273   -7.4133    2.8789 O   0  0  0  0  0  0  0  0  0  0  0  0
    0.8734   -7.3054    2.7497 C   0  0  1  0  0  0  0  0  0  0  0  0
    1.8187   -8.0289    1.7583 C   0  0  0  0  0  0  0  0  0  0  0  0
    0.5991   -6.1195    2.0295 O   0  0  0  0  0  0  0  0  0  0  0  0
    1.4610   -7.0483    4.1788 C   0  0  2  0  0  0  0  0  0  0  0  0
    2.8998   -6.8628    4.0951 O   0  0  0  0  0  0  0  0  0  0  0  0
    3.6610   -6.4398    5.2052 C   0  0  2  0  0  0  0  0  0  0  0  0
    2.9870   -6.5916    6.4232 O   0  0  0  0  0  0  0  0  0  0  0  0
    2.9498   -5.3620    7.1198 C   0  0  1  0  0  0  0  0  0  0  0  0
    4.4951   -5.1764    7.5558 C   0  0  1  0  0  0  0  0  0  0  0  0
    4.6517   -4.0146    8.3526 O   0  0  0  0  0  0  0  0  0  0  0  0
    4.9806   -6.3531    8.4550 C   0  0  0  0  0  0  0  0  0  0  0  0
    4.1151   -6.6156    9.5401 O   0  0  0  0  0  0  0  0  0  0  0  0
    5.4092   -4.9671    6.2445 C   0  0  1  0  0  0  0  0  0  0  0  0
    6.4488   -5.9188    6.0801 O   0  0  0  0  0  0  0  0  0  0  0  0
    4.3553   -4.9692    5.1161 C   0  0  1  0  0  0  0  0  0  0  0  0
    4.7211   -4.6519    3.8114 O   0  0  0  0  0  0  0  0  0  0  0  0
    3.5902   -4.1465    3.0925 C   0  0  1  0  0  0  0  0  0  0  0  0
    2.3191   -4.6221    3.4552 O   0  0  0  0  0  0  0  0  0  0  0  0
    1.5982   -4.4549    4.7173 C   0  0  1  0  0  0  0  0  0  0  0  0
    0.6794   -3.2581    4.4374 C   0  0  0  0  0  0  0  0  0  0  0  0
    0.9719   -2.1766    3.6852 C   0  0  0  0  0  0  0  0  0  0  0  0
    2.2213   -1.8612    3.0082 C   0  0  0  0  0  0  0  0  0  0  0  0
    2.4335   -0.6999    2.3728 C   0  0  0  0  0  0  0  0  0  0  0  0
    3.8842   -0.7114    1.9217 C   0  0  1  0  0  0  0  0  0  0  0  0
    4.1770    0.1587    0.8778 O   0  0  0  0  0  0  0  0  0  0  0  0
    4.7031   -0.5737    3.0475 O   0  0  0  0  0  0  0  0  0  0  0  0
    4.5791   -1.8048    3.7924 C   0  0  0  0  0  0  0  0  0  0  0  0
    3.5679   -2.6027    2.9312 C   0  0  1  0  0  0  0  0  0  0  0  0
    4.0953   -2.1672    1.5614 C   0  0  1  0  0  0  0  0  0  0  0  0
    3.3319   -2.5984    0.4451 O   0  0  0  0  0  0  0  0  0  0  0  0
    0.7846   -5.7503    4.8190 C   0  0  0  0  0  0  0  0  0  0  0  0
   -0.2958   -5.7801    5.4204 O   0  0  0  0  0  0  0  0  0  0  0  0
    2.4322   -4.2274    6.1065 C   0  0  1  0  0  0  0  0  0  0  0  0
    1.9541   -3.2566    6.8732 O   0  0  0  0  0  0  0  0  0  0  0  0
    3.6267   -3.8647    5.5671 O   0  0  0  0  0  0  0  0  0  0  0  0
    0.9037  -11.3539    4.8020 H   0  0  0  0  0  0  0  0  0  0  0  0
    2.2687  -11.5760    3.7242 H   0  0  0  0  0  0  0  0  0  0  0  0
    0.8873  -10.6882    3.1815 H   0  0  0  0  0  0  0  0  0  0  0  0
    2.8566   -9.2196    3.8223 H   0  0  0  0  0  0  0  0  0  0  0  0
    2.5953  -10.3275    6.6072 H   0  0  0  0  0  0  0  0  0  0  0  0
    3.6449   -9.0003    6.0789 H   0  0  0  0  0  0  0  0  0  0  0  0
    3.8639  -10.5871    5.3874 H   0  0  0  0  0  0  0  0  0  0  0  0
    1.1093   -8.2362    6.0076 H   0  0  0  0  0  0  0  0  0  0  0  0
   -0.6022   -9.6821    4.5571 H   0  0  0  0  0  0  0  0  0  0  0  0
   -1.0146   -8.1182    5.1282 H   0  0  0  0  0  0  0  0  0  0  0  0
   -0.4553   -8.9636    2.3270 H   0  0  0  0  0  0  0  0  0  0  0  0
   -2.3401   -8.0296    3.0448 H   0  0  0  0  0  0  0  0  0  0  0  0
    2.0226   -9.0562    2.0148 H   0  0  0  0  0  0  0  0  0  0  0  0
    2.7702   -7.5107    1.6639 H   0  0  0  0  0  0  0  0  0  0  0  0
    1.3657   -8.0320    0.7688 H   0  0  0  0  0  0  0  0  0  0  0  0
    1.3541   -5.5387    2.1423 H   0  0  0  0  0  0  0  0  0  0  0  0
    4.4621   -7.1698    5.2138 H   0  0  0  0  0  0  0  0  0  0  0  0
    2.2750   -5.4611    7.9783 H   0  0  0  0  0  0  0  0  0  0  0  0
    4.2420   -3.2944    7.8735 H   0  0  0  0  0  0  0  0  0  0  0  0
    5.0345   -7.2734    7.8722 H   0  0  0  0  0  0  0  0  0  0  0  0
    5.9841   -6.1538    8.8304 H   0  0  0  0  0  0  0  0  0  0  0  0
    4.4547   -7.3668   10.0167 H   0  0  0  0  0  0  0  0  0  0  0  0
    5.8607   -3.9696    6.2541 H   0  0  0  0  0  0  0  0  0  0  0  0
    6.0623   -6.7896    6.0248 H   0  0  0  0  0  0  0  0  0  0  0  0
    3.7260   -4.6008    2.1148 H   0  0  0  0  0  0  0  0  0  0  0  0
   -0.3036   -3.3225    4.8715 H   0  0  0  0  0  0  0  0  0  0  0  0
    0.1631   -1.4616    3.5600 H   0  0  0  0  0  0  0  0  0  0  0  0
    1.7546    0.1252    2.2407 H   0  0  0  0  0  0  0  0  0  0  0  0
    4.9479   -0.1703    0.4234 H   0  0  0  0  0  0  0  0  0  0  0  0
    5.5515   -2.2968    3.8477 H   0  0  0  0  0  0  0  0  0  0  0  0
    4.2140   -1.6100    4.8040 H   0  0  0  0  0  0  0  0  0  0  0  0
    5.1560   -2.3892    1.4141 H   0  0  0  0  0  0  0  0  0  0  0  0
    2.5949   -1.9934    0.3448 H   0  0  0  0  0  0  0  0  0  0  0  0
  1  2  1  0
  1 43  1  0
  1 44  1  0
  1 45  1  0
  2  3  1  0
  2  4  1  0
  2 46  1  0
  3 47  1  0
  3 48  1  0
  3 49  1  0
  4 11  1  0
  4  5  1  0
  4 50  1  1
  5  6  1  0
  5 51  1  0
  5 52  1  0
  6  7  1  0
  6  8  1  0
  6 53  1  6
  7 54  1  0
  8  9  1  0
  8 10  1  6
  8 11  1  0
  9 55  1  0
  9 56  1  0
  9 57  1  0
 10 58  1  0
 11 38  1  0
 11 12  1  6
 12 13  1  0
 13 22  1  0
 13 14  1  0
 13 59  1  1
 14 15  1  0
 15 40  1  0
 15 16  1  0
 15 60  1  1
 16 17  1  1
 16 18  1  0
 16 20  1  0
 17 61  1  0
 18 19  1  0
 18 62  1  0
 18 63  1  0
 19 64  1  0
 20 21  1  0
 20 22  1  0
 20 65  1  1
 21 66  1  0
 22 42  1  0
 22 23  1  6
 23 24  1  0
 24 35  1  0
 24 25  1  0
 24 67  1  6
 25 26  1  0
 26 27  1  6
 26 38  1  0
 26 40  1  0
 27 28  2  0
 27 68  1  0
 28 29  1  0
 28 69  1  0
 29 35  1  0
 29 30  2  0
 30 31  1  0
 30 70  1  0
 31 36  1  0
 31 32  1  6
 31 33  1  0
 32 71  1  0
 33 34  1  0
 35 34  1  1
 34 72  1  0
 34 73  1  0
 35 36  1  0
 36 37  1  0
 36 74  1  6
 37 75  1  0
 38 39  2  0
 40 41  1  1
 40 42  1  0
M  CHG  1  41  -1
M  END
>  <i_m_ct_stereo_status>  (52) 
1

>  <s_m_source_file>  (52) 
/var/tmp/pbs.5076253.sched01/tmptd9uf136/47e5u2q_zc.sdf

>  <i_m_source_file_index>  (52) 
26

>  <i_lp_mmshare_version>  (52) 
48012

>  <i_f3d_flags>  (52) 
0

>  <s_epik_input>  (52) 
W0NIM11bQ0BAXTEoW09IXSlbQ0BIXShbT0hdKVtDSDJdW0NAQEhdKFtDSF0oW0NIM10pW0NIM10pW0NAQF0xMk9bQ0BIXTNbQ0BAXTQ1W0NASF0oW09IXSlbQ0BdKFtPSF0pKFtDSDJdW09IXSlbQ0BIXShPMylbQ0BdKE81KShbT0hdKVtDQF02KEMyPU8pT1tDQEhdKE80KVtDQEBdNzhDKFtDSF09W0NIXTYpPVtDSF1bQ0BAXShbT0hdKShPW0NIMl03KVtDQEBIXThbT0hd

>  <s_epik_cmdline>  (52) 
J2VwaWtfcHl0aG9uJywgJy1waHQnLCAnMi4wJywgJy1waCcsICc3LjAnLCAnLXRuJywgJzgnLCAnLW1hJywgJzIwMCcsICctaW1hZScsICc8aW5maWxlLm1hZT4nLCAnLW9tYWUnLCAnPG91dGZpbGUubWFlPic=

>  <r_epik_Ionization_Penalty>  (52) 
2.51417

>  <r_epik_Ionization_Penalty_Charging>  (52) 
2.51276

>  <r_epik_Ionization_Penalty_Neutral>  (52) 
0.00141552

>  <r_epik_State_Penalty>  (52) 
2.67863

>  <r_epik_Charging_Adjusted_Penalty>  (52) 
5.19138

>  <i_epik_Tot_Q>  (52) 
-1

>  <i_epik_Tot_abs_Q>  (52) 
1

>  <s_epik_Chemistry_Notes>  (52) 
This compound contains an acetal/aminal-like group ( X-CH(R)-Y where X, Y are N, S, or O) that may be acid/base labile, releasing an aldehyde.

>  <s_lp_Force_Field>  (52) 
OPLS3e

>  <r_lp_Energy>  (52) 
179.278

>  <b_lp_Chiralities_Consistent>  (52) 
1

>  <s_lp_Variant>  (52) 
42:0-2

>  <s_i_glide_gridfile>  (52) 
pfpi4k_grid

>  <i_i_glide_lignum>  (52) 
26

>  <i_i_glide_rotatable_bonds>  (52) 
9

>  <r_i_docking_score>  (52) 
-2.83963

>  <r_i_glide_ligand_efficiency>  (52) 
-0.0676101

>  <r_i_glide_ligand_efficiency_sa>  (52) 
-0.235015

>  <r_i_glide_ligand_efficiency_ln>  (52) 
-0.599372

>  <r_i_glide_gscore>  (52) 
-2.83963

>  <r_i_glide_lipo>  (52) 
-0.131788

>  <r_i_glide_hbond>  (52) 
0

>  <r_i_glide_metal>  (52) 
-0

>  <r_i_glide_rewards>  (52) 
-0.531425

>  <r_i_glide_evdw>  (52) 
-23.8963

>  <r_i_glide_ecoul>  (52) 
-6.88152

>  <r_i_glide_erotb>  (52) 
0.0587797

>  <r_i_glide_esite>  (52) 
-0.00815252

>  <r_i_glide_emodel>  (52) 
-40.8121

>  <r_i_glide_energy>  (52) 
-30.7778

>  <r_i_glide_einternal>  (52) 
5.12718

>  <r_i_glide_intrahb_reward>  (52) 
-0.5

>  <i_i_glide_confnum>  (52) 
5

>  <i_i_glide_posenum>  (52) 
2

>  <r_i_glide_eff_state_penalty>  (52) 
0

>  <ligand_id>  (52) 
42

>  <original_smiles>  (52) 
CC(C)C1CC(O)C(C)(O)C12OC1OC3C(O)(CO)C(O)C14OC1OC(C=CC5=CC6(O)OCC51C6O)(C2=O)C3(O)O4

>  <smiles>  (52) 
[H]OC([H])([H])C1(O[H])C2([H])OC3([H])OC4(C(=O)C56OC([H])(OC3(OC52[O-])C1([H])O[H])C12C(=C([H])C(O[H])(OC1([H])[H])C2([H])O[H])C([H])=C6[H])C([H])(C([H])(C([H])([H])[H])C([H])([H])[H])C([H])([H])C([H])(O[H])C4(O[H])C([H])([H])[H]

$$$$
43:0:0
     RDKit          3D

 44 49  0  0  1  0  0  0  0  0999 V2000
    3.0781   -6.9143    3.3931 C   0  0  0  0  0  0  0  0  0  0  0  0
    3.2704   -5.6045    2.5741 C   0  0  2  0  0  0  0  0  0  0  0  0
    3.4122   -5.9518    1.0096 C   0  0  0  0  0  0  0  0  0  0  0  0
    4.2843   -4.7950    0.5721 C   0  0  2  0  0  0  0  0  0  0  0  0
    4.9684   -4.2500   -0.7767 C   0  0  0  0  0  0  0  0  0  0  0  0
    5.5470   -2.6525   -0.9885 C   0  0  1  0  0  0  0  0  0  0  0  0
    4.8513   -2.3092   -2.2950 C   0  0  0  0  0  0  0  0  0  0  0  0
    3.4665   -1.9862   -1.7198 C   0  0  0  0  0  0  0  0  0  0  0  0
    3.7082   -1.5304   -0.2371 C   0  0  2  0  0  0  0  0  0  0  0  0
    5.1048   -1.1924   -0.2161 C   0  0  1  0  0  0  0  0  0  0  0  0
    5.0198   -0.5922    1.3283 C   0  0  0  0  0  0  0  0  0  0  0  0
    3.8530   -1.3515    2.1603 C   0  0  2  0  0  0  0  0  0  0  0  0
    4.0379   -1.7104    3.5865 O   0  0  0  0  0  0  0  0  0  0  0  0
    3.3124   -2.7954    4.2471 C   0  0  2  0  0  0  0  0  0  0  0  0
    2.9145   -2.3596    5.4429 F   0  0  0  0  0  0  0  0  0  0  0  0
    3.9700   -4.0912    4.4355 O   0  0  0  0  0  0  0  0  0  0  0  0
    4.4036   -4.5556    3.1681 C   0  0  1  0  0  0  0  0  0  0  0  0
    5.2627   -5.5762    2.8667 O   0  0  0  0  0  0  0  0  0  0  0  0
    5.4860   -5.3076    1.3246 O   0  0  0  0  0  0  0  0  0  0  0  0
    5.3219   -3.5017    2.8442 O   0  0  0  0  0  0  0  0  0  0  0  0
    5.2540   -2.9062    1.4987 O   0  0  0  0  0  0  0  0  0  0  0  0
    3.9352   -2.4019    1.0933 C   0  0  2  0  0  0  0  0  0  0  0  0
    3.1986   -3.6372    0.8757 C   0  0  0  0  0  0  0  0  0  0  0  0
    3.9228   -7.5979    3.3094 H   0  0  0  0  0  0  0  0  0  0  0  0
    2.1976   -7.4580    3.0436 H   0  0  0  0  0  0  0  0  0  0  0  0
    2.9263   -6.6997    4.4539 H   0  0  0  0  0  0  0  0  0  0  0  0
    2.2755   -5.1898    2.7645 H   0  0  0  0  0  0  0  0  0  0  0  0
    3.8837   -6.9189    0.8381 H   0  0  0  0  0  0  0  0  0  0  0  0
    2.4403   -5.9548    0.5191 H   0  0  0  0  0  0  0  0  0  0  0  0
    5.7993   -4.9151   -1.0191 H   0  0  0  0  0  0  0  0  0  0  0  0
    4.2259   -4.5010   -1.5358 H   0  0  0  0  0  0  0  0  0  0  0  0
    6.6273   -2.6823   -1.1259 H   0  0  0  0  0  0  0  0  0  0  0  0
    5.2940   -1.4276   -2.7607 H   0  0  0  0  0  0  0  0  0  0  0  0
    4.8487   -3.0977   -3.0505 H   0  0  0  0  0  0  0  0  0  0  0  0
    3.0321   -1.1600   -2.2909 H   0  0  0  0  0  0  0  0  0  0  0  0
    2.7622   -2.8083   -1.8376 H   0  0  0  0  0  0  0  0  0  0  0  0
    3.0316   -0.6828   -0.0780 H   0  0  0  0  0  0  0  0  0  0  0  0
    5.3477   -0.3408   -0.8621 H   0  0  0  0  0  0  0  0  0  0  0  0
    5.9880   -0.6131    1.8355 H   0  0  0  0  0  0  0  0  0  0  0  0
    4.7301    0.4555    1.2653 H   0  0  0  0  0  0  0  0  0  0  0  0
    2.9008   -0.8259    2.0917 H   0  0  0  0  0  0  0  0  0  0  0  0
    2.3700   -2.9414    3.7240 H   0  0  0  0  0  0  0  0  0  0  0  0
    2.5010   -3.6125    0.0355 H   0  0  0  0  0  0  0  0  0  0  0  0
    2.4634   -3.6172    1.6622 H   0  0  0  0  0  0  0  0  0  0  0  0
  1  2  1  0
  1 24  1  0
  1 25  1  0
  1 26  1  0
  2 17  1  0
  2  3  1  0
  2 27  1  6
  3  4  1  0
  3 28  1  0
  3 29  1  0
  4 19  1  1
  4 23  1  0
  4  5  1  0
  5  6  1  0
  5 30  1  0
  5 31  1  0
  6 10  1  0
  6  7  1  0
  6 32  1  6
  7  8  1  0
  7 33  1  0
  7 34  1  0
  8  9  1  0
  8 35  1  0
  8 36  1  0
  9 22  1  0
  9 10  1  0
  9 37  1  1
 10 11  1  0
 10 38  1  6
 11 12  1  0
 11 39  1  0
 11 40  1  0
 12 22  1  0
 12 13  1  0
 12 41  1  1
 13 14  1  0
 14 15  1  0
 14 16  1  0
 14 42  1  6
 17 16  1  1
 17 18  1  0
 17 20  1  0
 18 19  1  0
 20 21  1  0
 22 21  1  6
 22 23  1  0
 23 43  1  0
 23 44  1  0
M  END
>  <i_m_ct_stereo_status>  (53) 
1

>  <s_m_source_file>  (53) 
/var/tmp/pbs.5076253.sched01/tmptd9uf136/47e5u2q_zc.sdf

>  <i_m_source_file_index>  (53) 
27

>  <i_lp_mmshare_version>  (53) 
48012

>  <i_f3d_flags>  (53) 
0

>  <s_epik_input>  (53) 
W0NAQF0xMjNbQ0gyXVtDQEBIXShbQ0gzXSlbQ0BdNChPTzIpT1tDQEBIXShGKU9bQ0BASF01W0NAQF0oT080KShbQ0gyXTMpW0NASF02W0NAQEhdKFtDSDJdNSlbQ0BASF0oW0NIMl0xKVtDSDJdW0NIMl02

>  <s_epik_cmdline>  (53) 
J2VwaWtfcHl0aG9uJywgJy1waHQnLCAnMi4wJywgJy1waCcsICc3LjAnLCAnLXRuJywgJzgnLCAnLW1hJywgJzIwMCcsICctaW1hZScsICc8aW5maWxlLm1hZT4nLCAnLW9tYWUnLCAnPG91dGZpbGUubWFlPic=

>  <r_lp_tautomer_probability>  (53) 
1

>  <r_epik_Ionization_Penalty>  (53) 
6.57791e-16

>  <r_epik_Ionization_Penalty_Charging>  (53) 
0

>  <r_epik_Ionization_Penalty_Neutral>  (53) 
6.57791e-16

>  <r_epik_State_Penalty>  (53) 
-0

>  <r_epik_Charging_Adjusted_Penalty>  (53) 
0

>  <i_epik_Tot_Q>  (53) 
0

>  <i_epik_Tot_abs_Q>  (53) 
0

>  <s_epik_Chemistry_Notes>  (53) 
This compound contains an acetal/aminal-like group ( X-CH(R)-Y where X, Y are N, S, or O) that may be acid/base labile, releasing an aldehyde.

>  <s_lp_Force_Field>  (53) 
OPLS3e

>  <r_lp_Energy>  (53) 
391.484

>  <b_lp_Chiralities_Consistent>  (53) 
1

>  <s_lp_Variant>  (53) 
43:0-1

>  <s_i_glide_gridfile>  (53) 
pfpi4k_grid

>  <i_i_glide_lignum>  (53) 
27

>  <i_i_glide_rotatable_bonds>  (53) 
0

>  <r_i_docking_score>  (53) 
-2.86343

>  <r_i_glide_ligand_efficiency>  (53) 
-0.124497

>  <r_i_glide_ligand_efficiency_sa>  (53) 
-0.354053

>  <r_i_glide_ligand_efficiency_ln>  (53) 
-0.692403

>  <r_i_glide_gscore>  (53) 
-2.86343

>  <r_i_glide_lipo>  (53) 
-0.310396

>  <r_i_glide_hbond>  (53) 
0

>  <r_i_glide_metal>  (53) 
-0

>  <r_i_glide_rewards>  (53) 
-1.17536

>  <r_i_glide_evdw>  (53) 
-21.0398

>  <r_i_glide_ecoul>  (53) 
-2.17124

>  <r_i_glide_erotb>  (53) 
0

>  <r_i_glide_esite>  (53) 
0

>  <r_i_glide_emodel>  (53) 
-26.8882

>  <r_i_glide_energy>  (53) 
-23.211

>  <r_i_glide_einternal>  (53) 
0

>  <r_i_glide_intrahb_reward>  (53) 
-0

>  <i_i_glide_confnum>  (53) 
1

>  <i_i_glide_posenum>  (53) 
1

>  <r_i_glide_eff_state_penalty>  (53) 
0

>  <ligand_id>  (53) 
43

>  <original_smiles>  (53) 
CC1CC23CC4CCC5C4CC4OC(F)OC1(OO2)OOC45C3

>  <smiles>  (53) 
[H]C1(F)OC23OOC4(C([H])([H])C2([H])C([H])([H])[H])C([H])([H])C2([H])C([H])([H])C([H])([H])C5([H])C2([H])C([H])([H])C([H])(O1)C5(OO3)C4([H])[H]

$$$$
43:0:1
     RDKit          3D

 44 49  0  0  1  0  0  0  0  0999 V2000
    4.0302   -6.0254    3.4990 C   0  0  0  0  0  0  0  0  0  0  0  0
    4.3408   -5.0555    2.3216 C   0  0  2  0  0  0  0  0  0  0  0  0
    2.9729   -4.4317    1.7492 C   0  0  0  0  0  0  0  0  0  0  0  0
    3.3769   -4.2203    0.3083 C   0  0  2  0  0  0  0  0  0  0  0  0
    2.7282   -3.6478   -1.0590 C   0  0  0  0  0  0  0  0  0  0  0  0
    3.6374   -3.1697   -2.4332 C   0  0  1  0  0  0  0  0  0  0  0  0
    3.0284   -1.8097   -2.6795 C   0  0  0  0  0  0  0  0  0  0  0  0
    3.8073   -1.0587   -1.5914 C   0  0  0  0  0  0  0  0  0  0  0  0
    5.1396   -1.8182   -1.3638 C   0  0  2  0  0  0  0  0  0  0  0  0
    5.2322   -2.5928   -2.5651 C   0  0  1  0  0  0  0  0  0  0  0  0
    6.7531   -3.0851   -2.1702 C   0  0  0  0  0  0  0  0  0  0  0  0
    6.9392   -3.1718   -0.5638 C   0  0  2  0  0  0  0  0  0  0  0  0
    7.6848   -4.2851    0.0748 O   0  0  0  0  0  0  0  0  0  0  0  0
    7.4878   -4.7110    1.4553 C   0  0  2  0  0  0  0  0  0  0  0  0
    8.6900   -4.9512    1.9747 F   0  0  0  0  0  0  0  0  0  0  0  0
    6.6447   -5.8705    1.7510 O   0  0  0  0  0  0  0  0  0  0  0  0
    5.3713   -5.6489    1.1755 C   0  0  1  0  0  0  0  0  0  0  0  0
    4.3662   -6.5517    0.9801 O   0  0  0  0  0  0  0  0  0  0  0  0
    3.4130   -5.7061    0.0442 O   0  0  0  0  0  0  0  0  0  0  0  0
    5.7622   -5.5722   -0.1951 O   0  0  0  0  0  0  0  0  0  0  0  0
    5.2450   -4.4791   -1.0309 O   0  0  0  0  0  0  0  0  0  0  0  0
    5.4460   -3.1290   -0.4981 C   0  0  2  0  0  0  0  0  0  0  0  0
    4.5085   -3.1084    0.6069 C   0  0  0  0  0  0  0  0  0  0  0  0
    3.4087   -6.8744    3.2019 H   0  0  0  0  0  0  0  0  0  0  0  0
    3.4941   -5.4996    4.2885 H   0  0  0  0  0  0  0  0  0  0  0  0
    4.9530   -6.4244    3.9330 H   0  0  0  0  0  0  0  0  0  0  0  0
    4.8729   -4.2978    2.9086 H   0  0  0  0  0  0  0  0  0  0  0  0
    2.1259   -5.1165    1.8514 H   0  0  0  0  0  0  0  0  0  0  0  0
    2.7235   -3.4978    2.2546 H   0  0  0  0  0  0  0  0  0  0  0  0
    1.9861   -4.3724   -1.4205 H   0  0  0  0  0  0  0  0  0  0  0  0
    2.0962   -2.8320   -0.7028 H   0  0  0  0  0  0  0  0  0  0  0  0
    3.4095   -3.8316   -3.2707 H   0  0  0  0  0  0  0  0  0  0  0  0
    3.2538   -1.4133   -3.6749 H   0  0  0  0  0  0  0  0  0  0  0  0
    1.9421   -1.7879   -2.5717 H   0  0  0  0  0  0  0  0  0  0  0  0
    4.0578   -0.0672   -1.9754 H   0  0  0  0  0  0  0  0  0  0  0  0
    3.2172   -0.8914   -0.6900 H   0  0  0  0  0  0  0  0  0  0  0  0
    5.9034   -1.0381   -1.2554 H   0  0  0  0  0  0  0  0  0  0  0  0
    5.3353   -2.0030   -3.4837 H   0  0  0  0  0  0  0  0  0  0  0  0
    7.0206   -3.9694   -2.7295 H   0  0  0  0  0  0  0  0  0  0  0  0
    7.4634   -2.3381   -2.5184 H   0  0  0  0  0  0  0  0  0  0  0  0
    7.3590   -2.2464   -0.1628 H   0  0  0  0  0  0  0  0  0  0  0  0
    7.1109   -3.8588    2.0147 H   0  0  0  0  0  0  0  0  0  0  0  0
    3.9982   -2.1542    0.7451 H   0  0  0  0  0  0  0  0  0  0  0  0
    5.1609   -3.0521    1.4589 H   0  0  0  0  0  0  0  0  0  0  0  0
  1  2  1  0
  1 24  1  0
  1 25  1  0
  1 26  1  0
  2 17  1  0
  2  3  1  0
  2 27  1  1
  3  4  1  0
  3 28  1  0
  3 29  1  0
  4 19  1  6
  4 23  1  0
  4  5  1  0
  5  6  1  0
  5 30  1  0
  5 31  1  0
  6 10  1  0
  6  7  1  0
  6 32  1  6
  7  8  1  0
  7 33  1  0
  7 34  1  0
  8  9  1  0
  8 35  1  0
  8 36  1  0
  9 22  1  0
  9 10  1  0
  9 37  1  6
 10 11  1  0
 10 38  1  6
 11 12  1  0
 11 39  1  0
 11 40  1  0
 12 22  1  0
 12 13  1  0
 12 41  1  1
 13 14  1  0
 14 15  1  0
 14 16  1  0
 14 42  1  1
 17 16  1  1
 17 18  1  0
 17 20  1  0
 18 19  1  0
 20 21  1  0
 22 21  1  6
 22 23  1  0
 23 43  1  0
 23 44  1  0
M  END
>  <i_m_ct_stereo_status>  (54) 
1

>  <s_m_source_file>  (54) 
/var/tmp/pbs.5076253.sched01/tmptd9uf136/47e5u2q_zc.sdf

>  <i_m_source_file_index>  (54) 
27

>  <i_lp_mmshare_version>  (54) 
48012

>  <i_f3d_flags>  (54) 
0

>  <s_epik_input>  (54) 
W0NAQF0xMjNbQ0gyXVtDQEBIXShbQ0gzXSlbQ0BdNChPTzIpT1tDQEBIXShGKU9bQ0BASF01W0NAQF0oT080KShbQ0gyXTMpW0NASF02W0NAQEhdKFtDSDJdNSlbQ0BASF0oW0NIMl0xKVtDSDJdW0NIMl02

>  <s_epik_cmdline>  (54) 
J2VwaWtfcHl0aG9uJywgJy1waHQnLCAnMi4wJywgJy1waCcsICc3LjAnLCAnLXRuJywgJzgnLCAnLW1hJywgJzIwMCcsICctaW1hZScsICc8aW5maWxlLm1hZT4nLCAnLW9tYWUnLCAnPG91dGZpbGUubWFlPic=

>  <r_lp_tautomer_probability>  (54) 
1

>  <r_epik_Ionization_Penalty>  (54) 
6.57791e-16

>  <r_epik_Ionization_Penalty_Charging>  (54) 
0

>  <r_epik_Ionization_Penalty_Neutral>  (54) 
6.57791e-16

>  <r_epik_State_Penalty>  (54) 
-0

>  <r_epik_Charging_Adjusted_Penalty>  (54) 
0

>  <i_epik_Tot_Q>  (54) 
0

>  <i_epik_Tot_abs_Q>  (54) 
0

>  <s_epik_Chemistry_Notes>  (54) 
This compound contains an acetal/aminal-like group ( X-CH(R)-Y where X, Y are N, S, or O) that may be acid/base labile, releasing an aldehyde.

>  <s_lp_Force_Field>  (54) 
OPLS3e

>  <r_lp_Energy>  (54) 
391.484

>  <b_lp_Chiralities_Consistent>  (54) 
1

>  <s_lp_Variant>  (54) 
43:0-1

>  <s_i_glide_gridfile>  (54) 
pfpi4k_grid

>  <i_i_glide_lignum>  (54) 
27

>  <i_i_glide_rotatable_bonds>  (54) 
0

>  <r_i_docking_score>  (54) 
-2.49587

>  <r_i_glide_ligand_efficiency>  (54) 
-0.108516

>  <r_i_glide_ligand_efficiency_sa>  (54) 
-0.308605

>  <r_i_glide_ligand_efficiency_ln>  (54) 
-0.603523

>  <r_i_glide_gscore>  (54) 
-2.49587

>  <r_i_glide_lipo>  (54) 
-0.319978

>  <r_i_glide_hbond>  (54) 
0

>  <r_i_glide_metal>  (54) 
-0

>  <r_i_glide_rewards>  (54) 
-1.42106

>  <r_i_glide_evdw>  (54) 
-17.0332

>  <r_i_glide_ecoul>  (54) 
0.731899

>  <r_i_glide_erotb>  (54) 
0

>  <r_i_glide_esite>  (54) 
-0.0129575

>  <r_i_glide_emodel>  (54) 
-19.221

>  <r_i_glide_energy>  (54) 
-16.3013

>  <r_i_glide_einternal>  (54) 
0

>  <r_i_glide_intrahb_reward>  (54) 
-0

>  <i_i_glide_confnum>  (54) 
1

>  <i_i_glide_posenum>  (54) 
2

>  <r_i_glide_eff_state_penalty>  (54) 
0

>  <ligand_id>  (54) 
43

>  <original_smiles>  (54) 
CC1CC23CC4CCC5C4CC4OC(F)OC1(OO2)OOC45C3

>  <smiles>  (54) 
[H]C1(F)OC23OOC4(C([H])([H])C2([H])C([H])([H])[H])C([H])([H])C2([H])C([H])([H])C([H])([H])C5([H])C2([H])C([H])([H])C([H])(O1)C5(OO3)C4([H])[H]

$$$$
48:0:0
     RDKit          3D

100111  0  0  1  0  0  0  0  0999 V2000
    2.0073    1.8757    8.8866 C   0  0  0  0  0  0  0  0  0  0  0  0
    1.6260    1.5634    7.4239 C   0  0  2  0  0  0  0  0  0  0  0  0
    0.1780    2.0011    7.1103 C   0  0  2  0  0  0  0  0  0  0  0  0
   -0.5456    0.7894    7.4084 O   0  0  0  0  0  0  0  0  0  0  0  0
    0.1483   -0.3962    7.0119 C   0  0  1  0  0  0  0  0  0  0  0  0
   -0.4113   -1.0085    5.6803 C   0  0  1  0  0  0  0  0  0  0  0  0
   -1.7615   -1.3889    5.7832 O   0  0  0  0  0  0  0  0  0  0  0  0
   -0.1889   -0.1882    4.4381 C   0  0  0  0  0  0  0  0  0  0  0  0
   -0.6520    1.0627    4.2769 C   0  0  0  0  0  0  0  0  0  0  0  0
   -1.5122    1.8535    5.1963 C   0  0  2  0  0  0  0  0  0  0  0  0
   -2.2828    2.6139    4.1493 C   0  0  0  0  0  0  0  0  0  0  0  0
   -1.5415    2.7314    3.0536 C   0  0  0  0  0  0  0  0  0  0  0  0
   -0.1879    2.1247    3.3358 C   0  0  2  0  0  0  0  0  0  0  0  0
    0.5465    1.6605    2.0561 C   0  0  0  0  0  0  0  0  0  0  0  0
    0.5579    2.9942    4.4276 C   0  0  1  0  0  0  0  0  0  0  0  0
    2.0473    2.5854    4.4534 C   0  0  0  0  0  0  0  0  0  0  0  0
    0.5682    4.5076    4.0659 C   0  0  0  0  0  0  0  0  0  0  0  0
   -0.3983    5.2385    4.2929 O   0  0  0  0  0  0  0  0  0  0  0  0
   -0.3343    2.6840    5.7600 C   0  0  2  0  0  0  0  0  0  0  0  0
    1.6014    0.0722    7.1085 C   0  0  2  0  0  0  0  0  0  0  0  0
    1.8695   -0.7920    8.2432 O   0  0  0  0  0  0  0  0  0  0  0  0
    0.5167   -1.2975    8.2065 C   0  0  1  0  0  0  0  0  0  0  0  0
   -0.1804   -1.0420    9.4076 O   0  0  0  0  0  0  0  0  0  0  0  0
    0.5111   -2.8163    8.0195 C   0  0  0  0  0  0  0  0  0  0  0  0
    1.3903   -3.1618    6.9561 O   0  0  0  0  0  0  0  0  0  0  0  0
    1.2825   -4.4586    6.4809 C   0  0  2  0  0  0  0  0  0  0  0  0
    1.6895   -5.3570    7.4579 O   0  0  0  0  0  0  0  0  0  0  0  0
    0.8111   -6.4593    7.5511 C   0  0  2  0  0  0  0  0  0  0  0  0
    1.1026   -7.3862    8.6362 O   0  0  0  0  0  0  0  0  0  0  0  0
    1.2501   -8.4455    7.6607 C   0  0  1  0  0  0  0  0  0  0  0  0
    2.4267   -9.3882    7.9135 C   0  0  0  0  0  0  0  0  0  0  0  0
    0.0074   -9.0013    7.1724 O   0  0  0  0  0  0  0  0  0  0  0  0
    0.0667   -8.0716    5.9404 O   0  0  0  0  0  0  0  0  0  0  0  0
    1.2323   -7.4672    6.4944 C   0  0  1  0  0  0  0  0  0  0  0  0
    2.4482   -7.2442    5.5574 C   0  0  1  0  0  0  0  0  0  0  0  0
    2.9411   -8.4448    4.9201 O   0  0  0  0  0  0  0  0  0  0  0  0
    2.2361   -9.0249    3.8077 C   0  0  2  0  0  0  0  0  0  0  0  0
    1.1222   -9.9697    4.3169 C   0  0  1  0  0  0  0  0  0  0  0  0
   -0.0557   -9.7306    3.5589 O   0  0  0  0  0  0  0  0  0  0  0  0
    1.6529  -11.3826    4.2253 C   0  0  1  0  0  0  0  0  0  0  0  0
    0.5934  -12.2214    3.8987 O   0  0  0  0  0  0  0  0  0  0  0  0
    2.7561  -11.3513    3.2264 C   0  0  2  0  0  0  0  0  0  0  0  0
    4.0059  -10.8234    3.6973 O   0  0  0  0  0  0  0  0  0  0  0  0
    3.1507   -9.9103    2.9968 C   0  0  2  0  0  0  0  0  0  0  0  0
    2.4382   -5.9943    4.5989 C   0  0  1  0  0  0  0  0  0  0  0  0
    2.2195   -4.5560    5.2538 C   0  0  2  0  0  0  0  0  0  0  0  0
    3.6182   -3.8544    5.4303 C   0  0  0  0  0  0  0  0  0  0  0  0
    4.5181   -4.9865    5.0216 C   0  0  2  0  0  0  0  0  0  0  0  0
    5.8160   -5.1350    4.2507 C   0  0  0  0  0  0  0  0  0  0  0  0
    5.1393   -6.4765    3.8132 C   0  0  0  0  0  0  0  0  0  0  0  0
    3.7915   -5.7131    3.8897 C   0  0  1  0  0  0  0  0  0  0  0  0
    3.4805   -4.9595    2.5702 C   0  0  0  0  0  0  0  0  0  0  0  0
    1.3046    1.4373    9.5984 H   0  0  0  0  0  0  0  0  0  0  0  0
    2.0197    2.9532    9.0593 H   0  0  0  0  0  0  0  0  0  0  0  0
    3.0045    1.4949    9.1193 H   0  0  0  0  0  0  0  0  0  0  0  0
    2.3823    2.0730    6.8460 H   0  0  0  0  0  0  0  0  0  0  0  0
   -0.1219    2.6997    7.8884 H   0  0  0  0  0  0  0  0  0  0  0  0
    0.0923   -1.9294    5.4356 H   0  0  0  0  0  0  0  0  0  0  0  0
   -2.2644   -0.7706    5.2715 H   0  0  0  0  0  0  0  0  0  0  0  0
    0.5351   -0.5799    3.7446 H   0  0  0  0  0  0  0  0  0  0  0  0
   -2.1790    1.3100    5.8708 H   0  0  0  0  0  0  0  0  0  0  0  0
   -3.2860    2.9931    4.2739 H   0  0  0  0  0  0  0  0  0  0  0  0
   -1.8094    3.2216    2.1281 H   0  0  0  0  0  0  0  0  0  0  0  0
   -0.1104    1.0768    1.4073 H   0  0  0  0  0  0  0  0  0  0  0  0
    1.4250    1.0547    2.2700 H   0  0  0  0  0  0  0  0  0  0  0  0
    0.8955    2.5194    1.4872 H   0  0  0  0  0  0  0  0  0  0  0  0
    2.1812    1.5341    4.7047 H   0  0  0  0  0  0  0  0  0  0  0  0
    2.6273    3.2058    5.1338 H   0  0  0  0  0  0  0  0  0  0  0  0
    2.5263    2.7240    3.4827 H   0  0  0  0  0  0  0  0  0  0  0  0
    1.4783    4.8901    3.6070 H   0  0  0  0  0  0  0  0  0  0  0  0
   -0.7723    3.6130    6.1116 H   0  0  0  0  0  0  0  0  0  0  0  0
    2.1968   -0.2251    6.2532 H   0  0  0  0  0  0  0  0  0  0  0  0
    0.2483   -0.2832    9.8172 H   0  0  0  0  0  0  0  0  0  0  0  0
    0.8118   -3.3391    8.9309 H   0  0  0  0  0  0  0  0  0  0  0  0
   -0.5101   -3.1546    7.8164 H   0  0  0  0  0  0  0  0  0  0  0  0
    0.2359   -4.5880    6.1581 H   0  0  0  0  0  0  0  0  0  0  0  0
   -0.2606   -6.2756    7.4600 H   0  0  0  0  0  0  0  0  0  0  0  0
    2.2695  -10.0157    8.7885 H   0  0  0  0  0  0  0  0  0  0  0  0
    3.3504   -8.8266    8.1011 H   0  0  0  0  0  0  0  0  0  0  0  0
    2.6666  -10.0682    7.0853 H   0  0  0  0  0  0  0  0  0  0  0  0
    3.2593   -7.0768    6.2593 H   0  0  0  0  0  0  0  0  0  0  0  0
    1.8644   -8.2525    3.1469 H   0  0  0  0  0  0  0  0  0  0  0  0
    0.9259   -9.9215    5.3509 H   0  0  0  0  0  0  0  0  0  0  0  0
   -0.7367  -10.2791    3.9383 H   0  0  0  0  0  0  0  0  0  0  0  0
    2.0821  -11.6699    5.2038 H   0  0  0  0  0  0  0  0  0  0  0  0
    0.9949  -13.1129    3.7238 H   0  0  0  0  0  0  0  0  0  0  0  0
    2.8137  -12.0813    2.4093 H   0  0  0  0  0  0  0  0  0  0  0  0
    3.3818   -9.6748    1.9493 H   0  0  0  0  0  0  0  0  0  0  0  0
    1.6408   -6.1502    3.8740 H   0  0  0  0  0  0  0  0  0  0  0  0
    1.7171   -3.9730    4.4857 H   0  0  0  0  0  0  0  0  0  0  0  0
    3.7096   -3.0065    4.7564 H   0  0  0  0  0  0  0  0  0  0  0  0
    3.8149   -3.4993    6.4422 H   0  0  0  0  0  0  0  0  0  0  0  0
    4.6732   -5.6109    5.9013 H   0  0  0  0  0  0  0  0  0  0  0  0
    5.9741   -4.3956    3.4590 H   0  0  0  0  0  0  0  0  0  0  0  0
    6.6962   -5.2721    4.8839 H   0  0  0  0  0  0  0  0  0  0  0  0
    5.4299   -6.7734    2.8072 H   0  0  0  0  0  0  0  0  0  0  0  0
    5.2565   -7.2941    4.5338 H   0  0  0  0  0  0  0  0  0  0  0  0
    4.3681   -4.7964    1.9625 H   0  0  0  0  0  0  0  0  0  0  0  0
    3.0576   -3.9666    2.7220 H   0  0  0  0  0  0  0  0  0  0  0  0
    2.7928   -5.5172    1.9385 H   0  0  0  0  0  0  0  0  0  0  0  0
  1  2  1  0
  1 53  1  0
  1 54  1  0
  1 55  1  0
  2 20  1  0
  2  3  1  0
  2 56  1  6
  3 19  1  0
  3  4  1  0
  3 57  1  1
  5  4  1  1
  5 22  1  0
  5  6  1  0
  5 20  1  0
  6  7  1  0
  6  8  1  0
  6 58  1  6
  7 59  1  0
  8  9  2  3
  8 60  1  0
  9 13  1  0
  9 10  1  0
 10 19  1  0
 10 11  1  0
 10 61  1  1
 11 12  2  0
 11 62  1  0
 12 13  1  0
 12 63  1  0
 13 14  1  6
 13 15  1  0
 14 64  1  0
 14 65  1  0
 14 66  1  0
 15 16  1  1
 15 17  1  0
 15 19  1  0
 16 67  1  0
 16 68  1  0
 16 69  1  0
 17 18  2  0
 17 70  1  0
 19 71  1  1
 20 21  1  0
 20 72  1  6
 21 22  1  0
 22 23  1  1
 22 24  1  0
 23 73  1  0
 24 25  1  0
 24 74  1  0
 24 75  1  0
 25 26  1  0
 26 46  1  0
 26 27  1  0
 26 76  1  6
 27 28  1  0
 28 34  1  0
 28 29  1  0
 28 77  1  6
 29 30  1  0
 30 34  1  0
 30 31  1  1
 30 32  1  0
 31 78  1  0
 31 79  1  0
 31 80  1  0
 32 33  1  0
 34 33  1  6
 34 35  1  0
 35 36  1  0
 35 45  1  0
 35 81  1  1
 36 37  1  0
 37 44  1  0
 37 38  1  0
 37 82  1  6
 38 39  1  0
 38 40  1  0
 38 83  1  1
 39 84  1  0
 40 41  1  0
 40 42  1  0
 40 85  1  1
 41 86  1  0
 42 44  1  0
 42 43  1  0
 42 87  1  6
 43 44  1  0
 44 88  1  6
 45 51  1  0
 45 46  1  0
 45 89  1  6
 46 47  1  0
 46 90  1  6
 47 48  1  0
 47 91  1  0
 47 92  1  0
 48 51  1  0
 48 49  1  0
 48 93  1  1
 49 50  1  0
 49 94  1  0
 49 95  1  0
 50 51  1  0
 50 96  1  0
 50 97  1  0
 51 52  1  6
 52 98  1  0
 52 99  1  0
 52100  1  0
M  END
>  <i_m_ct_stereo_status>  (55) 
1

>  <s_m_source_file>  (55) 
/var/tmp/pbs.5076253.sched01/tmptd9uf136/47e5u2q_zc.sdf

>  <i_m_source_file_index>  (55) 
33

>  <i_lp_mmshare_version>  (55) 
48012

>  <i_f3d_flags>  (55) 
0

>  <s_epik_input>  (55) 
Tz1bQ0hdW0NAXTEoW0NIM10pW0NAXShbQ0gzXSkoW0NIXT1bQ0hdMilDKD1bQ0hdXFtDQEBIXTNbT0hdKVxbQ0BIXTJbQ0BIXTFbQ0hdKE80KVtDQEBIXShbQ0gzXSlbQ0BIXShbQ0BdMzQ1KU9bQ0BdNShbT0hdKVtDSDJdT1tDQEhdKE9bQ0BASF0oW0NAQF02NzgpT1tDQEBdNihbQ0gzXSlPTzcpW0NAQEhdOVtDQEBIXShbQ0BAXTEoW0NIM10pW0NASF0oW0NIMl05KVtDSDJdW0NIMl0xKVtDQEBIXThPW0NAQEhdKFtDQEBIXShPMSlbQ0BASF0xMilbQ0BASF0oW09IXSlbQ0BIXTJbT0hd

>  <s_epik_cmdline>  (55) 
J2VwaWtfcHl0aG9uJywgJy1waHQnLCAnMi4wJywgJy1waCcsICc3LjAnLCAnLXRuJywgJzgnLCAnLW1hJywgJzIwMCcsICctaW1hZScsICc8aW5maWxlLm1hZT4nLCAnLW9tYWUnLCAnPG91dGZpbGUubWFlPic=

>  <r_lp_tautomer_probability>  (55) 
1

>  <r_epik_Ionization_Penalty>  (55) 
8.36773e-05

>  <r_epik_Ionization_Penalty_Charging>  (55) 
0

>  <r_epik_Ionization_Penalty_Neutral>  (55) 
8.36773e-05

>  <r_epik_State_Penalty>  (55) 
-0

>  <r_epik_Charging_Adjusted_Penalty>  (55) 
0

>  <i_epik_Tot_Q>  (55) 
0

>  <i_epik_Tot_abs_Q>  (55) 
0

>  <s_epik_Chemistry_Notes>  (55) 
This compound contains an acetal/aminal-like group ( X-CH(R)-Y where X, Y are N, S, or O) that may be acid/base labile, releasing an aldehyde.

>  <s_lp_Force_Field>  (55) 
OPLS3e

>  <r_lp_Energy>  (55) 
143.717

>  <b_lp_Chiralities_Consistent>  (55) 
1

>  <s_lp_Variant>  (55) 
48:0-1

>  <s_i_glide_gridfile>  (55) 
pfpi4k_grid

>  <i_i_glide_lignum>  (55) 
33

>  <i_i_glide_rotatable_bonds>  (55) 
10

>  <r_i_docking_score>  (55) 
-3.70536

>  <r_i_glide_ligand_efficiency>  (55) 
-0.0712569

>  <r_i_glide_ligand_efficiency_sa>  (55) 
-0.265967

>  <r_i_glide_ligand_efficiency_ln>  (55) 
-0.74837

>  <r_i_glide_gscore>  (55) 
-3.70536

>  <r_i_glide_lipo>  (55) 
-0.0411693

>  <r_i_glide_hbond>  (55) 
-0.0161241

>  <r_i_glide_metal>  (55) 
-0

>  <r_i_glide_rewards>  (55) 
0

>  <r_i_glide_evdw>  (55) 
-27.987

>  <r_i_glide_ecoul>  (55) 
-14.387

>  <r_i_glide_erotb>  (55) 
0.0172155

>  <r_i_glide_esite>  (55) 
-0.151442

>  <r_i_glide_emodel>  (55) 
-47.411

>  <r_i_glide_energy>  (55) 
-42.374

>  <r_i_glide_einternal>  (55) 
4.6435

>  <r_i_glide_intrahb_reward>  (55) 
-0

>  <i_i_glide_confnum>  (55) 
5

>  <i_i_glide_posenum>  (55) 
9

>  <r_i_glide_eff_state_penalty>  (55) 
0

>  <ligand_id>  (55) 
48

>  <original_smiles>  (55) 
CC1C2OC3(C(O)C=C4C5C=CC4(C)C(C)(C=O)C52)C1OC3(O)COC1OC2OC3(C)OOC23C(OC2C(O)C(O)C3OC32)C2C1CC1CCC12C

>  <smiles>  (55) 
[H]OC1([H])C([H])=C2C3([H])C([H])=C([H])C2(C([H])([H])[H])C(C([H])=O)(C([H])([H])[H])C3([H])C2([H])OC13C([H])(OC3(O[H])C([H])([H])OC1([H])OC3([H])OC4(C([H])([H])[H])OOC34C([H])(OC3([H])C([H])(O[H])C([H])(O[H])C4([H])OC43[H])C3([H])C1([H])C([H])([H])C1([H])C([H])([H])C([H])([H])C13C([H])([H])[H])C2([H])C([H])([H])[H]

$$$$
48:0:1
     RDKit          3D

100111  0  0  1  0  0  0  0  0999 V2000
    4.8720    1.8676    6.0146 C   0  0  0  0  0  0  0  0  0  0  0  0
    3.4788    1.7108    5.3617 C   0  0  2  0  0  0  0  0  0  0  0  0
    2.3621    2.3046    6.2551 C   0  0  2  0  0  0  0  0  0  0  0  0
    1.9902    1.1441    7.0167 O   0  0  0  0  0  0  0  0  0  0  0  0
    1.9867   -0.0671    6.2455 C   0  0  1  0  0  0  0  0  0  0  0  0
    0.5554   -0.5356    5.8467 C   0  0  1  0  0  0  0  0  0  0  0  0
   -0.2189   -0.8194    6.9937 O   0  0  0  0  0  0  0  0  0  0  0  0
   -0.1625    0.3511    4.8626 C   0  0  0  0  0  0  0  0  0  0  0  0
   -0.4238    1.6461    5.0804 C   0  0  0  0  0  0  0  0  0  0  0  0
   -0.1906    2.4423    6.3162 C   0  0  2  0  0  0  0  0  0  0  0  0
   -1.4080    3.3286    6.2225 C   0  0  0  0  0  0  0  0  0  0  0  0
   -1.7534    3.4566    4.9485 C   0  0  0  0  0  0  0  0  0  0  0  0
   -0.7289    2.7403    4.1032 C   0  0  2  0  0  0  0  0  0  0  0  0
   -1.2824    2.3283    2.7222 C   0  0  0  0  0  0  0  0  0  0  0  0
    0.6827    3.4598    4.2189 C   0  0  1  0  0  0  0  0  0  0  0  0
    1.6194    2.9064    3.1178 C   0  0  0  0  0  0  0  0  0  0  0  0
    0.6240    4.9941    3.9545 C   0  0  0  0  0  0  0  0  0  0  0  0
   -0.0673    5.7642    4.6289 O   0  0  0  0  0  0  0  0  0  0  0  0
    1.0847    3.1359    5.7627 C   0  0  2  0  0  0  0  0  0  0  0  0
    3.0526    0.2582    5.2093 C   0  0  2  0  0  0  0  0  0  0  0  0
    3.9868   -0.7032    5.7852 O   0  0  0  0  0  0  0  0  0  0  0  0
    3.0087   -1.0760    6.7829 C   0  0  1  0  0  0  0  0  0  0  0  0
    3.4339   -0.8257    8.1050 O   0  0  0  0  0  0  0  0  0  0  0  0
    2.7013   -2.5720    6.6846 C   0  0  0  0  0  0  0  0  0  0  0  0
    2.4639   -2.9294    5.3197 O   0  0  0  0  0  0  0  0  0  0  0  0
    2.2349   -4.2781    5.0598 C   0  0  2  0  0  0  0  0  0  0  0  0
    2.1719   -5.0541    6.2178 O   0  0  0  0  0  0  0  0  0  0  0  0
    1.0723   -5.9423    6.2196 C   0  0  2  0  0  0  0  0  0  0  0  0
    0.8925   -6.6797    7.4593 O   0  0  0  0  0  0  0  0  0  0  0  0
    1.0639   -7.9160    6.7137 C   0  0  1  0  0  0  0  0  0  0  0  0
    1.9209   -8.9782    7.4160 C   0  0  0  0  0  0  0  0  0  0  0  0
   -0.1222   -8.3577    6.0065 O   0  0  0  0  0  0  0  0  0  0  0  0
    0.4035   -7.6931    4.7205 O   0  0  0  0  0  0  0  0  0  0  0  0
    1.5171   -7.1860    5.4698 C   0  0  1  0  0  0  0  0  0  0  0  0
    2.9411   -7.3415    4.8706 C   0  0  1  0  0  0  0  0  0  0  0  0
    3.3018   -8.6955    4.5558 O   0  0  0  0  0  0  0  0  0  0  0  0
    2.7562   -9.3282    3.3976 C   0  0  2  0  0  0  0  0  0  0  0  0
    1.4185  -10.0051    3.7079 C   0  0  1  0  0  0  0  0  0  0  0  0
    0.5849   -9.7204    2.5824 O   0  0  0  0  0  0  0  0  0  0  0  0
    1.6908  -11.4818    3.9096 C   0  0  1  0  0  0  0  0  0  0  0  0
    0.6120  -12.1860    3.4128 O   0  0  0  0  0  0  0  0  0  0  0  0
    2.9868  -11.7506    3.1918 C   0  0  2  0  0  0  0  0  0  0  0  0
    4.1668  -11.3674    3.8876 O   0  0  0  0  0  0  0  0  0  0  0  0
    3.6536  -10.4533    2.9153 C   0  0  2  0  0  0  0  0  0  0  0  0
    3.4074   -6.3073    3.7788 C   0  0  1  0  0  0  0  0  0  0  0  0
    3.3746   -4.7621    4.1441 C   0  0  2  0  0  0  0  0  0  0  0  0
    4.8126   -4.2972    4.5707 C   0  0  0  0  0  0  0  0  0  0  0  0
    5.5071   -5.6233    4.5762 C   0  0  2  0  0  0  0  0  0  0  0  0
    6.8810   -6.1380    4.2013 C   0  0  0  0  0  0  0  0  0  0  0  0
    6.0447   -7.3946    3.7916 C   0  0  0  0  0  0  0  0  0  0  0  0
    4.9143   -6.4094    3.4079 C   0  0  1  0  0  0  0  0  0  0  0  0
    5.0772   -5.8676    1.9624 C   0  0  0  0  0  0  0  0  0  0  0  0
    4.9101    1.4364    7.0162 H   0  0  0  0  0  0  0  0  0  0  0  0
    5.1375    2.9226    6.0983 H   0  0  0  0  0  0  0  0  0  0  0  0
    5.6395    1.3798    5.4108 H   0  0  0  0  0  0  0  0  0  0  0  0
    3.5895    2.1905    4.4050 H   0  0  0  0  0  0  0  0  0  0  0  0
    2.8435    2.9579    6.9794 H   0  0  0  0  0  0  0  0  0  0  0  0
    0.5939   -1.4783    5.3183 H   0  0  0  0  0  0  0  0  0  0  0  0
    0.3834   -0.9189    7.7145 H   0  0  0  0  0  0  0  0  0  0  0  0
   -0.2650   -0.0370    3.8634 H   0  0  0  0  0  0  0  0  0  0  0  0
   -0.1595    1.9054    7.2690 H   0  0  0  0  0  0  0  0  0  0  0  0
   -1.8829    3.8098    7.0600 H   0  0  0  0  0  0  0  0  0  0  0  0
   -2.5636    4.0469    4.5496 H   0  0  0  0  0  0  0  0  0  0  0  0
   -2.2515    1.8374    2.8176 H   0  0  0  0  0  0  0  0  0  0  0  0
   -0.6220    1.6431    2.1887 H   0  0  0  0  0  0  0  0  0  0  0  0
   -1.4262    3.2072    2.0926 H   0  0  0  0  0  0  0  0  0  0  0  0
    1.7716    1.8345    3.1992 H   0  0  0  0  0  0  0  0  0  0  0  0
    2.5763    3.4250    3.0969 H   0  0  0  0  0  0  0  0  0  0  0  0
    1.2196    3.0506    2.1169 H   0  0  0  0  0  0  0  0  0  0  0  0
    1.2552    5.3731    3.1488 H   0  0  0  0  0  0  0  0  0  0  0  0
    1.1684    4.0880    6.2870 H   0  0  0  0  0  0  0  0  0  0  0  0
    2.7530   -0.0330    4.2048 H   0  0  0  0  0  0  0  0  0  0  0  0
    3.8238    0.0332    8.1089 H   0  0  0  0  0  0  0  0  0  0  0  0
    3.5126   -3.1602    7.1069 H   0  0  0  0  0  0  0  0  0  0  0  0
    1.8332   -2.7971    7.2998 H   0  0  0  0  0  0  0  0  0  0  0  0
    1.2853   -4.2680    4.5064 H   0  0  0  0  0  0  0  0  0  0  0  0
    0.1103   -5.5901    5.8283 H   0  0  0  0  0  0  0  0  0  0  0  0
    1.4249   -9.3804    8.2930 H   0  0  0  0  0  0  0  0  0  0  0  0
    2.8652   -8.5497    7.7524 H   0  0  0  0  0  0  0  0  0  0  0  0
    2.1794   -9.8241    6.7772 H   0  0  0  0  0  0  0  0  0  0  0  0
    3.5725   -7.1840    5.7328 H   0  0  0  0  0  0  0  0  0  0  0  0
    2.6756   -8.6291    2.5718 H   0  0  0  0  0  0  0  0  0  0  0  0
    0.9438   -9.7226    4.6317 H   0  0  0  0  0  0  0  0  0  0  0  0
    0.8026  -10.2634    1.8342 H   0  0  0  0  0  0  0  0  0  0  0  0
    1.8269  -11.6998    4.9806 H   0  0  0  0  0  0  0  0  0  0  0  0
    0.9148  -13.1065    3.3558 H   0  0  0  0  0  0  0  0  0  0  0  0
    3.0877  -12.5866    2.4754 H   0  0  0  0  0  0  0  0  0  0  0  0
    4.1606  -10.3807    1.9463 H   0  0  0  0  0  0  0  0  0  0  0  0
    2.7759   -6.4471    2.8989 H   0  0  0  0  0  0  0  0  0  0  0  0
    3.1840   -4.2496    3.2026 H   0  0  0  0  0  0  0  0  0  0  0  0
    5.2300   -3.6132    3.8315 H   0  0  0  0  0  0  0  0  0  0  0  0
    4.8714   -3.7990    5.5352 H   0  0  0  0  0  0  0  0  0  0  0  0
    5.3135   -6.0823    5.5482 H   0  0  0  0  0  0  0  0  0  0  0  0
    7.3726   -5.5948    3.3881 H   0  0  0  0  0  0  0  0  0  0  0  0
    7.5398   -6.3035    5.0558 H   0  0  0  0  0  0  0  0  0  0  0  0
    6.4808   -7.9225    2.9455 H   0  0  0  0  0  0  0  0  0  0  0  0
    5.8125   -8.0707    4.6234 H   0  0  0  0  0  0  0  0  0  0  0  0
    6.0918   -5.9798    1.5915 H   0  0  0  0  0  0  0  0  0  0  0  0
    4.8537   -4.8075    1.8648 H   0  0  0  0  0  0  0  0  0  0  0  0
    4.4428   -6.4031    1.2591 H   0  0  0  0  0  0  0  0  0  0  0  0
  1  2  1  0
  1 53  1  0
  1 54  1  0
  1 55  1  0
  2 20  1  0
  2  3  1  0
  2 56  1  6
  3 19  1  0
  3  4  1  0
  3 57  1  1
  5  4  1  1
  5 22  1  0
  5  6  1  0
  5 20  1  0
  6  7  1  0
  6  8  1  0
  6 58  1  6
  7 59  1  0
  8  9  2  3
  8 60  1  0
  9 13  1  0
  9 10  1  0
 10 19  1  0
 10 11  1  0
 10 61  1  1
 11 12  2  0
 11 62  1  0
 12 13  1  0
 12 63  1  0
 13 14  1  6
 13 15  1  0
 14 64  1  0
 14 65  1  0
 14 66  1  0
 15 16  1  6
 15 17  1  0
 15 19  1  0
 16 67  1  0
 16 68  1  0
 16 69  1  0
 17 18  2  0
 17 70  1  0
 19 71  1  1
 20 21  1  0
 20 72  1  6
 21 22  1  0
 22 23  1  1
 22 24  1  0
 23 73  1  0
 24 25  1  0
 24 74  1  0
 24 75  1  0
 25 26  1  0
 26 46  1  0
 26 27  1  0
 26 76  1  6
 27 28  1  0
 28 34  1  0
 28 29  1  0
 28 77  1  6
 29 30  1  0
 30 34  1  0
 30 31  1  1
 30 32  1  0
 31 78  1  0
 31 79  1  0
 31 80  1  0
 32 33  1  0
 34 33  1  6
 34 35  1  0
 35 36  1  0
 35 45  1  0
 35 81  1  1
 36 37  1  0
 37 44  1  0
 37 38  1  0
 37 82  1  6
 38 39  1  0
 38 40  1  0
 38 83  1  1
 39 84  1  0
 40 41  1  0
 40 42  1  0
 40 85  1  1
 41 86  1  0
 42 44  1  0
 42 43  1  0
 42 87  1  6
 43 44  1  0
 44 88  1  6
 45 51  1  0
 45 46  1  0
 45 89  1  6
 46 47  1  0
 46 90  1  6
 47 48  1  0
 47 91  1  0
 47 92  1  0
 48 51  1  0
 48 49  1  0
 48 93  1  1
 49 50  1  0
 49 94  1  0
 49 95  1  0
 50 51  1  0
 50 96  1  0
 50 97  1  0
 51 52  1  6
 52 98  1  0
 52 99  1  0
 52100  1  0
M  END
>  <i_m_ct_stereo_status>  (56) 
1

>  <s_m_source_file>  (56) 
/var/tmp/pbs.5076253.sched01/tmptd9uf136/47e5u2q_zc.sdf

>  <i_m_source_file_index>  (56) 
33

>  <i_lp_mmshare_version>  (56) 
48012

>  <i_f3d_flags>  (56) 
0

>  <s_epik_input>  (56) 
Tz1bQ0hdW0NAXTEoW0NIM10pW0NAXShbQ0gzXSkoW0NIXT1bQ0hdMilDKD1bQ0hdXFtDQEBIXTNbT0hdKVxbQ0BIXTJbQ0BIXTFbQ0hdKE80KVtDQEBIXShbQ0gzXSlbQ0BIXShbQ0BdMzQ1KU9bQ0BdNShbT0hdKVtDSDJdT1tDQEhdKE9bQ0BASF0oW0NAQF02NzgpT1tDQEBdNihbQ0gzXSlPTzcpW0NAQEhdOVtDQEBIXShbQ0BAXTEoW0NIM10pW0NASF0oW0NIMl05KVtDSDJdW0NIMl0xKVtDQEBIXThPW0NAQEhdKFtDQEBIXShPMSlbQ0BASF0xMilbQ0BASF0oW09IXSlbQ0BIXTJbT0hd

>  <s_epik_cmdline>  (56) 
J2VwaWtfcHl0aG9uJywgJy1waHQnLCAnMi4wJywgJy1waCcsICc3LjAnLCAnLXRuJywgJzgnLCAnLW1hJywgJzIwMCcsICctaW1hZScsICc8aW5maWxlLm1hZT4nLCAnLW9tYWUnLCAnPG91dGZpbGUubWFlPic=

>  <r_lp_tautomer_probability>  (56) 
1

>  <r_epik_Ionization_Penalty>  (56) 
8.36773e-05

>  <r_epik_Ionization_Penalty_Charging>  (56) 
0

>  <r_epik_Ionization_Penalty_Neutral>  (56) 
8.36773e-05

>  <r_epik_State_Penalty>  (56) 
-0

>  <r_epik_Charging_Adjusted_Penalty>  (56) 
0

>  <i_epik_Tot_Q>  (56) 
0

>  <i_epik_Tot_abs_Q>  (56) 
0

>  <s_epik_Chemistry_Notes>  (56) 
This compound contains an acetal/aminal-like group ( X-CH(R)-Y where X, Y are N, S, or O) that may be acid/base labile, releasing an aldehyde.

>  <s_lp_Force_Field>  (56) 
OPLS3e

>  <r_lp_Energy>  (56) 
143.717

>  <b_lp_Chiralities_Consistent>  (56) 
1

>  <s_lp_Variant>  (56) 
48:0-1

>  <s_i_glide_gridfile>  (56) 
pfpi4k_grid

>  <i_i_glide_lignum>  (56) 
33

>  <i_i_glide_rotatable_bonds>  (56) 
10

>  <r_i_docking_score>  (56) 
-3.15982

>  <r_i_glide_ligand_efficiency>  (56) 
-0.0607658

>  <r_i_glide_ligand_efficiency_sa>  (56) 
-0.226809

>  <r_i_glide_ligand_efficiency_ln>  (56) 
-0.638187

>  <r_i_glide_gscore>  (56) 
-3.15982

>  <r_i_glide_lipo>  (56) 
-0.128687

>  <r_i_glide_hbond>  (56) 
0

>  <r_i_glide_metal>  (56) 
-0

>  <r_i_glide_rewards>  (56) 
0

>  <r_i_glide_evdw>  (56) 
-26.1307

>  <r_i_glide_ecoul>  (56) 
-11.7854

>  <r_i_glide_erotb>  (56) 
0.0172155

>  <r_i_glide_esite>  (56) 
-0.0919359

>  <r_i_glide_emodel>  (56) 
-39.4161

>  <r_i_glide_energy>  (56) 
-37.9161

>  <r_i_glide_einternal>  (56) 
8.22343

>  <r_i_glide_intrahb_reward>  (56) 
-0

>  <i_i_glide_confnum>  (56) 
5

>  <i_i_glide_posenum>  (56) 
24

>  <r_i_glide_eff_state_penalty>  (56) 
0

>  <ligand_id>  (56) 
48

>  <original_smiles>  (56) 
CC1C2OC3(C(O)C=C4C5C=CC4(C)C(C)(C=O)C52)C1OC3(O)COC1OC2OC3(C)OOC23C(OC2C(O)C(O)C3OC32)C2C1CC1CCC12C

>  <smiles>  (56) 
[H]OC1([H])C([H])=C2C3([H])C([H])=C([H])C2(C([H])([H])[H])C(C([H])=O)(C([H])([H])[H])C3([H])C2([H])OC13C([H])(OC3(O[H])C([H])([H])OC1([H])OC3([H])OC4(C([H])([H])[H])OOC34C([H])(OC3([H])C([H])(O[H])C([H])(O[H])C4([H])OC43[H])C3([H])C1([H])C([H])([H])C1([H])C([H])([H])C([H])([H])C13C([H])([H])[H])C2([H])C([H])([H])[H]

$$$$
48:0:2
     RDKit          3D

100111  0  0  1  0  0  0  0  0999 V2000
    4.8749    2.2070    6.2490 C   0  0  0  0  0  0  0  0  0  0  0  0
    3.5127    1.9372    5.5709 C   0  0  2  0  0  0  0  0  0  0  0  0
    2.3374    2.3900    6.4668 C   0  0  2  0  0  0  0  0  0  0  0  0
    2.0579    1.1785    7.1896 O   0  0  0  0  0  0  0  0  0  0  0  0
    2.1795    0.0024    6.3655 C   0  0  1  0  0  0  0  0  0  0  0  0
    0.8074   -0.5897    5.9367 C   0  0  1  0  0  0  0  0  0  0  0  0
    0.0459   -0.9402    7.0714 O   0  0  0  0  0  0  0  0  0  0  0  0
    0.0130    0.2594    4.9748 C   0  0  0  0  0  0  0  0  0  0  0  0
   -0.3650    1.5093    5.2286 C   0  0  0  0  0  0  0  0  0  0  0  0
   -0.2207    2.2862    6.4947 C   0  0  2  0  0  0  0  0  0  0  0  0
   -1.5108    3.0697    6.4113 C   0  0  0  0  0  0  0  0  0  0  0  0
   -1.8436    3.2147    5.1382 C   0  0  0  0  0  0  0  0  0  0  0  0
   -0.7501    2.6086    4.2857 C   0  0  2  0  0  0  0  0  0  0  0  0
   -1.2513    2.1920    2.8842 C   0  0  0  0  0  0  0  0  0  0  0  0
    0.5872    3.4447    4.4474 C   0  0  1  0  0  0  0  0  0  0  0  0
    1.5790    3.0285    3.3419 C   0  0  0  0  0  0  0  0  0  0  0  0
    0.3575    4.9653    4.2179 C   0  0  0  0  0  0  0  0  0  0  0  0
   -0.1824    5.6901    5.0610 O   0  0  0  0  0  0  0  0  0  0  0  0
    0.9978    3.1040    5.9884 C   0  0  2  0  0  0  0  0  0  0  0  0
    3.2298    0.4569    5.3622 C   0  0  2  0  0  0  0  0  0  0  0  0
    4.2374   -0.4260    5.9239 O   0  0  0  0  0  0  0  0  0  0  0  0
    3.2901   -0.9194    6.8980 C   0  0  1  0  0  0  0  0  0  0  0  0
    3.6689   -0.6746    8.2306 O   0  0  0  0  0  0  0  0  0  0  0  0
    3.1112   -2.4299    6.7702 C   0  0  0  0  0  0  0  0  0  0  0  0
    2.9068   -2.7750    5.3965 O   0  0  0  0  0  0  0  0  0  0  0  0
    2.6088   -4.1017    5.1036 C   0  0  2  0  0  0  0  0  0  0  0  0
    2.3131   -4.8427    6.2449 O   0  0  0  0  0  0  0  0  0  0  0  0
    1.1612   -5.6531    6.0969 C   0  0  2  0  0  0  0  0  0  0  0  0
    0.7578   -6.3391    7.2939 O   0  0  0  0  0  0  0  0  0  0  0  0
    0.9267   -7.6147    6.6028 C   0  0  1  0  0  0  0  0  0  0  0  0
    1.5919   -8.7130    7.4429 C   0  0  0  0  0  0  0  0  0  0  0  0
   -0.1666   -7.9995    5.7170 O   0  0  0  0  0  0  0  0  0  0  0  0
    0.5473   -7.3460    4.5399 O   0  0  0  0  0  0  0  0  0  0  0  0
    1.6043   -6.9454    5.4323 C   0  0  1  0  0  0  0  0  0  0  0  0
    3.0776   -7.2211    5.0374 C   0  0  1  0  0  0  0  0  0  0  0  0
    3.3464   -8.6025    4.7567 O   0  0  0  0  0  0  0  0  0  0  0  0
    2.8149   -9.2256    3.5934 C   0  0  2  0  0  0  0  0  0  0  0  0
    1.5052   -9.9845    3.9283 C   0  0  1  0  0  0  0  0  0  0  0  0
    0.5937   -9.7409    2.8771 O   0  0  0  0  0  0  0  0  0  0  0  0
    1.8377  -11.4657    4.0694 C   0  0  1  0  0  0  0  0  0  0  0  0
    0.7741  -12.2735    3.5915 O   0  0  0  0  0  0  0  0  0  0  0  0
    3.1342  -11.6487    3.3363 C   0  0  2  0  0  0  0  0  0  0  0  0
    4.3094  -11.2144    4.0615 O   0  0  0  0  0  0  0  0  0  0  0  0
    3.7606  -10.3017    3.0829 C   0  0  2  0  0  0  0  0  0  0  0  0
    3.7534   -6.2469    3.9903 C   0  0  1  0  0  0  0  0  0  0  0  0
    3.8076   -4.6952    4.3326 C   0  0  2  0  0  0  0  0  0  0  0  0
    5.2209   -4.3435    4.9273 C   0  0  0  0  0  0  0  0  0  0  0  0
    5.7765   -5.7193    5.0409 C   0  0  2  0  0  0  0  0  0  0  0  0
    7.1423   -6.3457    4.8641 C   0  0  0  0  0  0  0  0  0  0  0  0
    6.2654   -7.5404    4.3675 C   0  0  0  0  0  0  0  0  0  0  0  0
    5.2731   -6.4825    3.8137 C   0  0  1  0  0  0  0  0  0  0  0  0
    5.6673   -5.9742    2.4091 C   0  0  0  0  0  0  0  0  0  0  0  0
    4.9429    1.7499    7.2391 H   0  0  0  0  0  0  0  0  0  0  0  0
    5.0390    3.2801    6.3717 H   0  0  0  0  0  0  0  0  0  0  0  0
    5.6991    1.8149    5.6511 H   0  0  0  0  0  0  0  0  0  0  0  0
    3.5891    2.4626    4.6300 H   0  0  0  0  0  0  0  0  0  0  0  0
    2.7474    3.0568    7.2237 H   0  0  0  0  0  0  0  0  0  0  0  0
    0.9124   -1.5113    5.3699 H   0  0  0  0  0  0  0  0  0  0  0  0
    0.2399   -0.2951    7.7391 H   0  0  0  0  0  0  0  0  0  0  0  0
   -0.0267   -0.0995    3.9596 H   0  0  0  0  0  0  0  0  0  0  0  0
   -0.1537    1.7203    7.4261 H   0  0  0  0  0  0  0  0  0  0  0  0
   -2.0528    3.4449    7.2619 H   0  0  0  0  0  0  0  0  0  0  0  0
   -2.7074    3.7266    4.7434 H   0  0  0  0  0  0  0  0  0  0  0  0
   -2.1756    1.6143    2.9502 H   0  0  0  0  0  0  0  0  0  0  0  0
   -0.5302    1.5844    2.3351 H   0  0  0  0  0  0  0  0  0  0  0  0
   -1.4706    3.0688    2.2727 H   0  0  0  0  0  0  0  0  0  0  0  0
    1.8283    1.9707    3.3893 H   0  0  0  0  0  0  0  0  0  0  0  0
    2.4773    3.6438    3.3563 H   0  0  0  0  0  0  0  0  0  0  0  0
    1.1549    3.1857    2.3543 H   0  0  0  0  0  0  0  0  0  0  0  0
    0.6872    5.3668    3.2587 H   0  0  0  0  0  0  0  0  0  0  0  0
    0.9904    4.0281    6.5634 H   0  0  0  0  0  0  0  0  0  0  0  0
    2.9619    0.1769    4.3344 H   0  0  0  0  0  0  0  0  0  0  0  0
    3.9401    0.2368    8.2776 H   0  0  0  0  0  0  0  0  0  0  0  0
    3.9606   -2.9456    7.2151 H   0  0  0  0  0  0  0  0  0  0  0  0
    2.2509   -2.7081    7.3883 H   0  0  0  0  0  0  0  0  0  0  0  0
    1.7411   -4.0264    4.4396 H   0  0  0  0  0  0  0  0  0  0  0  0
    0.2894   -5.2301    5.5783 H   0  0  0  0  0  0  0  0  0  0  0  0
    0.9370   -9.0531    8.2453 H   0  0  0  0  0  0  0  0  0  0  0  0
    2.5117   -8.3451    7.8948 H   0  0  0  0  0  0  0  0  0  0  0  0
    1.8654   -9.5892    6.8569 H   0  0  0  0  0  0  0  0  0  0  0  0
    3.5982   -7.0819    5.9754 H   0  0  0  0  0  0  0  0  0  0  0  0
    2.6898   -8.4973    2.7849 H   0  0  0  0  0  0  0  0  0  0  0  0
    1.0490   -9.7478    4.8631 H   0  0  0  0  0  0  0  0  0  0  0  0
   -0.1095  -10.3670    2.9943 H   0  0  0  0  0  0  0  0  0  0  0  0
    2.0093  -11.6722    5.1232 H   0  0  0  0  0  0  0  0  0  0  0  0
    1.1154  -13.1527    3.4866 H   0  0  0  0  0  0  0  0  0  0  0  0
    3.2834  -12.4541    2.6279 H   0  0  0  0  0  0  0  0  0  0  0  0
    4.2658  -10.1952    2.1325 H   0  0  0  0  0  0  0  0  0  0  0  0
    3.2298   -6.3661    3.0393 H   0  0  0  0  0  0  0  0  0  0  0  0
    3.7628   -4.1883    3.3628 H   0  0  0  0  0  0  0  0  0  0  0  0
    5.7786   -3.7162    4.2175 H   0  0  0  0  0  0  0  0  0  0  0  0
    5.2463   -3.8452    5.8926 H   0  0  0  0  0  0  0  0  0  0  0  0
    5.4219   -6.1295    5.9928 H   0  0  0  0  0  0  0  0  0  0  0  0
    7.7760   -5.8514    4.1241 H   0  0  0  0  0  0  0  0  0  0  0  0
    7.6639   -6.5344    5.8070 H   0  0  0  0  0  0  0  0  0  0  0  0
    6.7595   -8.1183    3.5900 H   0  0  0  0  0  0  0  0  0  0  0  0
    5.8736   -8.1684    5.1706 H   0  0  0  0  0  0  0  0  0  0  0  0
    6.7131   -6.1706    2.1826 H   0  0  0  0  0  0  0  0  0  0  0  0
    5.5412   -4.8988    2.2819 H   0  0  0  0  0  0  0  0  0  0  0  0
    5.0823   -6.4699    1.6394 H   0  0  0  0  0  0  0  0  0  0  0  0
  1  2  1  0
  1 53  1  0
  1 54  1  0
  1 55  1  0
  2 20  1  0
  2  3  1  0
  2 56  1  6
  3 19  1  0
  3  4  1  0
  3 57  1  1
  5  4  1  1
  5 22  1  0
  5  6  1  0
  5 20  1  0
  6  7  1  0
  6  8  1  0
  6 58  1  6
  7 59  1  0
  8  9  2  3
  8 60  1  0
  9 13  1  0
  9 10  1  0
 10 19  1  0
 10 11  1  0
 10 61  1  1
 11 12  2  0
 11 62  1  0
 12 13  1  0
 12 63  1  0
 13 14  1  6
 13 15  1  0
 14 64  1  0
 14 65  1  0
 14 66  1  0
 15 16  1  6
 15 17  1  0
 15 19  1  0
 16 67  1  0
 16 68  1  0
 16 69  1  0
 17 18  2  0
 17 70  1  0
 19 71  1  1
 20 21  1  0
 20 72  1  6
 21 22  1  0
 22 23  1  1
 22 24  1  0
 23 73  1  0
 24 25  1  0
 24 74  1  0
 24 75  1  0
 25 26  1  0
 26 46  1  0
 26 27  1  0
 26 76  1  6
 27 28  1  0
 28 34  1  0
 28 29  1  0
 28 77  1  6
 29 30  1  0
 30 34  1  0
 30 31  1  1
 30 32  1  0
 31 78  1  0
 31 79  1  0
 31 80  1  0
 32 33  1  0
 34 33  1  6
 34 35  1  0
 35 36  1  0
 35 45  1  0
 35 81  1  1
 36 37  1  0
 37 44  1  0
 37 38  1  0
 37 82  1  6
 38 39  1  0
 38 40  1  0
 38 83  1  1
 39 84  1  0
 40 41  1  0
 40 42  1  0
 40 85  1  1
 41 86  1  0
 42 44  1  0
 42 43  1  0
 42 87  1  6
 43 44  1  0
 44 88  1  6
 45 51  1  0
 45 46  1  0
 45 89  1  6
 46 47  1  0
 46 90  1  6
 47 48  1  0
 47 91  1  0
 47 92  1  0
 48 51  1  0
 48 49  1  0
 48 93  1  1
 49 50  1  0
 49 94  1  0
 49 95  1  0
 50 51  1  0
 50 96  1  0
 50 97  1  0
 51 52  1  6
 52 98  1  0
 52 99  1  0
 52100  1  0
M  END
>  <i_m_ct_stereo_status>  (57) 
1

>  <s_m_source_file>  (57) 
/var/tmp/pbs.5076253.sched01/tmptd9uf136/47e5u2q_zc.sdf

>  <i_m_source_file_index>  (57) 
33

>  <i_lp_mmshare_version>  (57) 
48012

>  <i_f3d_flags>  (57) 
0

>  <s_epik_input>  (57) 
Tz1bQ0hdW0NAXTEoW0NIM10pW0NAXShbQ0gzXSkoW0NIXT1bQ0hdMilDKD1bQ0hdXFtDQEBIXTNbT0hdKVxbQ0BIXTJbQ0BIXTFbQ0hdKE80KVtDQEBIXShbQ0gzXSlbQ0BIXShbQ0BdMzQ1KU9bQ0BdNShbT0hdKVtDSDJdT1tDQEhdKE9bQ0BASF0oW0NAQF02NzgpT1tDQEBdNihbQ0gzXSlPTzcpW0NAQEhdOVtDQEBIXShbQ0BAXTEoW0NIM10pW0NASF0oW0NIMl05KVtDSDJdW0NIMl0xKVtDQEBIXThPW0NAQEhdKFtDQEBIXShPMSlbQ0BASF0xMilbQ0BASF0oW09IXSlbQ0BIXTJbT0hd

>  <s_epik_cmdline>  (57) 
J2VwaWtfcHl0aG9uJywgJy1waHQnLCAnMi4wJywgJy1waCcsICc3LjAnLCAnLXRuJywgJzgnLCAnLW1hJywgJzIwMCcsICctaW1hZScsICc8aW5maWxlLm1hZT4nLCAnLW9tYWUnLCAnPG91dGZpbGUubWFlPic=

>  <r_lp_tautomer_probability>  (57) 
1

>  <r_epik_Ionization_Penalty>  (57) 
8.36773e-05

>  <r_epik_Ionization_Penalty_Charging>  (57) 
0

>  <r_epik_Ionization_Penalty_Neutral>  (57) 
8.36773e-05

>  <r_epik_State_Penalty>  (57) 
-0

>  <r_epik_Charging_Adjusted_Penalty>  (57) 
0

>  <i_epik_Tot_Q>  (57) 
0

>  <i_epik_Tot_abs_Q>  (57) 
0

>  <s_epik_Chemistry_Notes>  (57) 
This compound contains an acetal/aminal-like group ( X-CH(R)-Y where X, Y are N, S, or O) that may be acid/base labile, releasing an aldehyde.

>  <s_lp_Force_Field>  (57) 
OPLS3e

>  <r_lp_Energy>  (57) 
143.717

>  <b_lp_Chiralities_Consistent>  (57) 
1

>  <s_lp_Variant>  (57) 
48:0-1

>  <s_i_glide_gridfile>  (57) 
pfpi4k_grid

>  <i_i_glide_lignum>  (57) 
33

>  <i_i_glide_rotatable_bonds>  (57) 
10

>  <r_i_docking_score>  (57) 
-3.0185

>  <r_i_glide_ligand_efficiency>  (57) 
-0.0580481

>  <r_i_glide_ligand_efficiency_sa>  (57) 
-0.216665

>  <r_i_glide_ligand_efficiency_ln>  (57) 
-0.609645

>  <r_i_glide_gscore>  (57) 
-3.0185

>  <r_i_glide_lipo>  (57) 
-0.0727253

>  <r_i_glide_hbond>  (57) 
0

>  <r_i_glide_metal>  (57) 
-0

>  <r_i_glide_rewards>  (57) 
0

>  <r_i_glide_evdw>  (57) 
-23.3748

>  <r_i_glide_ecoul>  (57) 
-11.4587

>  <r_i_glide_erotb>  (57) 
0.0172155

>  <r_i_glide_esite>  (57) 
-0.0754475

>  <r_i_glide_emodel>  (57) 
-37.7963

>  <r_i_glide_energy>  (57) 
-34.8335

>  <r_i_glide_einternal>  (57) 
7.7292

>  <r_i_glide_intrahb_reward>  (57) 
-0

>  <i_i_glide_confnum>  (57) 
5

>  <i_i_glide_posenum>  (57) 
3

>  <r_i_glide_eff_state_penalty>  (57) 
0

>  <ligand_id>  (57) 
48

>  <original_smiles>  (57) 
CC1C2OC3(C(O)C=C4C5C=CC4(C)C(C)(C=O)C52)C1OC3(O)COC1OC2OC3(C)OOC23C(OC2C(O)C(O)C3OC32)C2C1CC1CCC12C

>  <smiles>  (57) 
[H]OC1([H])C([H])=C2C3([H])C([H])=C([H])C2(C([H])([H])[H])C(C([H])=O)(C([H])([H])[H])C3([H])C2([H])OC13C([H])(OC3(O[H])C([H])([H])OC1([H])OC3([H])OC4(C([H])([H])[H])OOC34C([H])(OC3([H])C([H])(O[H])C([H])(O[H])C4([H])OC43[H])C3([H])C1([H])C([H])([H])C1([H])C([H])([H])C([H])([H])C13C([H])([H])[H])C2([H])C([H])([H])[H]

$$$$
49:0:0
     RDKit          3D

 63 71  0  0  1  0  0  0  0  0999 V2000
    2.8799   -1.9114    1.0722 C   0  0  0  0  0  0  0  0  0  0  0  0
    4.1506   -2.7584    1.1978 C   0  0  2  0  0  0  0  0  0  0  0  0
    4.6276   -3.1166   -0.0760 O   0  0  0  0  0  0  0  0  0  0  0  0
    4.0316   -4.2408   -0.6499 C   0  0  0  0  0  0  0  0  0  0  0  0
    4.6587   -5.4381   -0.2633 O   0  0  0  0  0  0  0  0  0  0  0  0
    4.2862   -5.8886    1.0310 C   0  0  1  0  0  0  0  0  0  0  0  0
    4.8220   -7.2835    1.3441 C   0  0  0  0  0  0  0  0  0  0  0  0
    4.3487   -8.4943    1.0712 C   0  0  0  0  0  0  0  0  0  0  0  0
    5.0271   -9.0855    2.3084 C   0  0  1  0  0  0  0  0  0  0  0  0
    4.0333   -9.9111    3.1317 C   0  0  2  0  0  0  0  0  0  0  0  0
    3.0684   -9.1928    3.8997 O   0  0  0  0  0  0  0  0  0  0  0  0
    4.0147   -9.9638    4.6535 C   0  0  1  0  0  0  0  0  0  0  0  0
    3.4314  -11.1161    5.4814 C   0  0  0  0  0  0  0  0  0  0  0  0
    3.0221  -10.6242    6.7337 O   0  0  0  0  0  0  0  0  0  0  0  0
    5.1115   -9.1976    5.1601 O   0  0  0  0  0  0  0  0  0  0  0  0
    6.2631   -9.8900    5.6203 C   0  0  1  0  0  0  0  0  0  0  0  0
    7.2947  -10.0937    4.4878 C   0  0  2  0  0  0  0  0  0  0  0  0
    8.2321   -9.0377    4.2585 O   0  0  0  0  0  0  0  0  0  0  0  0
    7.9292   -7.7161    3.9011 C   0  0  2  0  0  0  0  0  0  0  0  0
    9.1707   -7.0775    3.6415 O   0  0  0  0  0  0  0  0  0  0  0  0
    7.3572   -6.9736    5.1044 C   0  0  2  0  0  0  0  0  0  0  0  0
    8.1853   -7.0268    6.2765 O   0  0  0  0  0  0  0  0  0  0  0  0
    6.8810   -7.5851    6.4177 C   0  0  2  0  0  0  0  0  0  0  0  0
    6.8943   -9.0607    6.7422 C   0  0  1  0  0  0  0  0  0  0  0  0
    6.2183   -9.3113    7.9616 O   0  0  0  0  0  0  0  0  0  0  0  0
    7.0387   -7.6351    2.5734 C   0  0  1  0  0  0  0  0  0  0  0  0
    7.6320   -6.5700    1.5922 C   0  0  0  0  0  0  0  0  0  0  0  0
    7.2642   -8.8525    1.8608 O   0  0  0  0  0  0  0  0  0  0  0  0
    6.3082   -9.8569    2.0381 C   0  0  2  0  0  0  0  0  0  0  0  0
    6.2152  -10.6432    0.8716 O   0  0  0  0  0  0  0  0  0  0  0  0
    6.7756  -10.7329    3.2050 C   0  0  0  0  0  0  0  0  0  0  0  0
    6.7238  -11.9682    3.1221 O   0  0  0  0  0  0  0  0  0  0  0  0
    5.4692   -7.6442    2.6617 C   0  0  1  0  0  0  0  0  0  0  0  0
    4.7092   -6.7071    3.6120 C   0  0  0  0  0  0  0  0  0  0  0  0
    5.0182   -5.3457    3.3419 O   0  0  0  0  0  0  0  0  0  0  0  0
    4.7889   -4.8324    2.0541 C   0  0  2  0  0  0  0  0  0  0  0  0
    3.8389   -3.8166    2.0648 O   0  0  0  0  0  0  0  0  0  0  0  0
    2.0473   -2.5250    0.7286 H   0  0  0  0  0  0  0  0  0  0  0  0
    3.0191   -1.0724    0.3897 H   0  0  0  0  0  0  0  0  0  0  0  0
    2.6183   -1.5213    2.0562 H   0  0  0  0  0  0  0  0  0  0  0  0
    4.9549   -2.1570    1.6306 H   0  0  0  0  0  0  0  0  0  0  0  0
    2.9450   -4.2517   -0.5476 H   0  0  0  0  0  0  0  0  0  0  0  0
    4.2128   -4.1468   -1.7161 H   0  0  0  0  0  0  0  0  0  0  0  0
    3.2009   -5.9448    1.1300 H   0  0  0  0  0  0  0  0  0  0  0  0
    3.6318   -8.9033    0.3616 H   0  0  0  0  0  0  0  0  0  0  0  0
    3.6656  -10.8111    2.6403 H   0  0  0  0  0  0  0  0  0  0  0  0
    2.5821  -11.5560    4.9596 H   0  0  0  0  0  0  0  0  0  0  0  0
    4.1491  -11.9233    5.6004 H   0  0  0  0  0  0  0  0  0  0  0  0
    2.4225  -11.2860    7.1370 H   0  0  0  0  0  0  0  0  0  0  0  0
    6.0042  -10.8585    6.0440 H   0  0  0  0  0  0  0  0  0  0  0  0
    7.9395  -10.8689    4.8906 H   0  0  0  0  0  0  0  0  0  0  0  0
    9.5706   -7.5035    2.8905 H   0  0  0  0  0  0  0  0  0  0  0  0
    7.0179   -5.9624    4.8872 H   0  0  0  0  0  0  0  0  0  0  0  0
    6.2022   -6.9787    7.0136 H   0  0  0  0  0  0  0  0  0  0  0  0
    7.9241   -9.3817    6.8997 H   0  0  0  0  0  0  0  0  0  0  0  0
    5.2969   -9.1320    7.8407 H   0  0  0  0  0  0  0  0  0  0  0  0
    7.6649   -5.5712    2.0258 H   0  0  0  0  0  0  0  0  0  0  0  0
    7.1159   -6.5177    0.6373 H   0  0  0  0  0  0  0  0  0  0  0  0
    8.6488   -6.8226    1.2908 H   0  0  0  0  0  0  0  0  0  0  0  0
    5.3909  -11.1581    0.8617 H   0  0  0  0  0  0  0  0  0  0  0  0
    3.6390   -6.8578    3.4962 H   0  0  0  0  0  0  0  0  0  0  0  0
    4.8948   -6.9072    4.6577 H   0  0  0  0  0  0  0  0  0  0  0  0
    5.7666   -4.4392    1.7631 H   0  0  0  0  0  0  0  0  0  0  0  0
  1  2  1  0
  1 38  1  0
  1 39  1  0
  1 40  1  0
  2 37  1  0
  2  3  1  0
  2 41  1  1
  3  4  1  0
  4  5  1  0
  4 42  1  0
  4 43  1  0
  5  6  1  0
  6 36  1  0
  6  7  1  0
  6 44  1  6
  7 33  1  0
  7  8  2  0
  9  8  1  6
  8 45  1  0
  9 29  1  0
  9 33  1  0
  9 10  1  0
 10 12  1  0
 10 11  1  0
 10 46  1  6
 11 12  1  0
 12 13  1  6
 12 15  1  0
 13 14  1  0
 13 47  1  0
 13 48  1  0
 14 49  1  0
 15 16  1  0
 16 24  1  0
 16 17  1  0
 16 50  1  1
 17 31  1  0
 17 18  1  0
 17 51  1  1
 18 19  1  0
 19 20  1  6
 19 21  1  0
 19 26  1  0
 20 52  1  0
 21 23  1  0
 21 22  1  0
 21 53  1  6
 22 23  1  0
 23 24  1  0
 23 54  1  1
 24 25  1  0
 24 55  1  1
 25 56  1  0
 26 27  1  6
 26 28  1  0
 26 33  1  0
 27 57  1  0
 27 58  1  0
 27 59  1  0
 28 29  1  0
 29 30  1  6
 29 31  1  0
 30 60  1  0
 31 32  2  0
 33 34  1  1
 34 35  1  0
 34 61  1  0
 34 62  1  0
 35 36  1  0
 36 37  1  0
 36 63  1  6
M  END
>  <i_m_ct_stereo_status>  (58) 
1

>  <s_m_source_file>  (58) 
/var/tmp/pbs.5076253.sched01/tmptd9uf136/47e5u2q_zc.sdf

>  <i_m_source_file_index>  (58) 
37

>  <i_lp_mmshare_version>  (58) 
48012

>  <i_f3d_flags>  (58) 
0

>  <s_epik_input>  (58) 
TzFbQ0gyXU9bQ0BASF0oW0NIM10pT1tDQEBIXShPW0NIMl0yKVtDQEBIXTFDKD1bQ0hdMylbQ0BAXTIoW0NAXTM0NSlbQ0BAXTYoW0NIM10pW0NAQF03KFtPSF0pW0NASF04W0NASF0oTzgpW0NAQEhdKFtPSF0pW0NAQEhdKE9bQ0BAXTkoW0NASF00TzkpW0NIMl1bT0hdKVtDQEhdKE83KUMoPU8pW0NAQF01KE82KVtPSF0=

>  <s_epik_cmdline>  (58) 
J2VwaWtfcHl0aG9uJywgJy1waHQnLCAnMi4wJywgJy1waCcsICc3LjAnLCAnLXRuJywgJzgnLCAnLW1hJywgJzIwMCcsICctaW1hZScsICc8aW5maWxlLm1hZT4nLCAnLW9tYWUnLCAnPG91dGZpbGUubWFlPic=

>  <r_lp_tautomer_probability>  (58) 
1

>  <r_epik_Ionization_Penalty>  (58) 
0.000254413

>  <r_epik_Ionization_Penalty_Charging>  (58) 
0

>  <r_epik_Ionization_Penalty_Neutral>  (58) 
0.000254413

>  <r_epik_State_Penalty>  (58) 
-0

>  <r_epik_Charging_Adjusted_Penalty>  (58) 
0

>  <i_epik_Tot_Q>  (58) 
0

>  <i_epik_Tot_abs_Q>  (58) 
0

>  <s_epik_Chemistry_Notes>  (58) 
This compound contains an acetal/aminal-like group ( X-CH(R)-Y where X, Y are N, S, or O) that may be acid/base labile, releasing an aldehyde.

>  <s_lp_Force_Field>  (58) 
OPLS3e

>  <r_lp_Energy>  (58) 
90.9884

>  <b_lp_Chiralities_Consistent>  (58) 
1

>  <s_lp_Variant>  (58) 
49:0-1

>  <s_i_glide_gridfile>  (58) 
pfpi4k_grid

>  <i_i_glide_lignum>  (58) 
37

>  <i_i_glide_rotatable_bonds>  (58) 
5

>  <r_i_docking_score>  (58) 
-3.33336

>  <r_i_glide_ligand_efficiency>  (58) 
-0.0900908

>  <r_i_glide_ligand_efficiency_sa>  (58) 
-0.300203

>  <r_i_glide_ligand_efficiency_ln>  (58) 
-0.722928

>  <r_i_glide_gscore>  (58) 
-3.33336

>  <r_i_glide_lipo>  (58) 
-0.204784

>  <r_i_glide_hbond>  (58) 
0

>  <r_i_glide_metal>  (58) 
-0

>  <r_i_glide_rewards>  (58) 
-0.0271693

>  <r_i_glide_evdw>  (58) 
-18.8598

>  <r_i_glide_ecoul>  (58) 
-14.4609

>  <r_i_glide_erotb>  (58) 
0.0742902

>  <r_i_glide_esite>  (58) 
-0.0635655

>  <r_i_glide_emodel>  (58) 
-38.3147

>  <r_i_glide_energy>  (58) 
-33.3208

>  <r_i_glide_einternal>  (58) 
6.55908

>  <r_i_glide_intrahb_reward>  (58) 
-0

>  <i_i_glide_confnum>  (58) 
2

>  <i_i_glide_posenum>  (58) 
24

>  <r_i_glide_eff_state_penalty>  (58) 
0

>  <ligand_id>  (58) 
49

>  <original_smiles>  (58) 
CC1OCOC2C3=CC45C6OC6(CO)OC6C7OC(O)(C8OC8C6O)C(C)(OC4(O)C7=O)C35COC2O1

>  <smiles>  (58) 
[H]OC([H])([H])C12OC3([H])C4([H])OC(O[H])(C5([H])OC5([H])C3([H])O[H])C3(C([H])([H])[H])OC(O[H])(C4=O)C4(C([H])=C5C6([H])OC([H])([H])OC([H])(C([H])([H])[H])OC6([H])OC([H])([H])C534)C1([H])O2

$$$$
49:0:1
     RDKit          3D

 63 71  0  0  1  0  0  0  0  0999 V2000
    3.3471   -1.7448    0.5256 C   0  0  0  0  0  0  0  0  0  0  0  0
    4.5528   -2.6487    0.8015 C   0  0  2  0  0  0  0  0  0  0  0  0
    5.1261   -3.0758   -0.4112 O   0  0  0  0  0  0  0  0  0  0  0  0
    4.5278   -4.1914   -1.0010 C   0  0  0  0  0  0  0  0  0  0  0  0
    5.0416   -5.4045   -0.5127 O   0  0  0  0  0  0  0  0  0  0  0  0
    4.5344   -5.7868    0.7549 C   0  0  1  0  0  0  0  0  0  0  0  0
    4.9670   -7.1915    1.1636 C   0  0  0  0  0  0  0  0  0  0  0  0
    4.4696   -8.3903    0.8747 C   0  0  0  0  0  0  0  0  0  0  0  0
    4.9909   -8.9743    2.1876 C   0  0  1  0  0  0  0  0  0  0  0  0
    3.8783   -9.7170    2.9355 C   0  0  2  0  0  0  0  0  0  0  0  0
    2.8758   -8.9241    3.5714 O   0  0  0  0  0  0  0  0  0  0  0  0
    3.7026   -9.7072    4.4502 C   0  0  1  0  0  0  0  0  0  0  0  0
    2.9776  -10.8001    5.2550 C   0  0  0  0  0  0  0  0  0  0  0  0
    2.3920  -10.2490    6.4138 O   0  0  0  0  0  0  0  0  0  0  0  0
    4.7846   -8.9835    5.0362 O   0  0  0  0  0  0  0  0  0  0  0  0
    5.8555   -9.7142    5.6229 C   0  0  1  0  0  0  0  0  0  0  0  0
    6.9773  -10.0110    4.5966 C   0  0  2  0  0  0  0  0  0  0  0  0
    7.9889   -9.0111    4.4319 O   0  0  0  0  0  0  0  0  0  0  0  0
    7.7882   -7.6897    4.0113 C   0  0  2  0  0  0  0  0  0  0  0  0
    9.0773   -7.1209    3.8476 O   0  0  0  0  0  0  0  0  0  0  0  0
    7.1463   -6.8759    5.1318 C   0  0  2  0  0  0  0  0  0  0  0  0
    7.8586   -6.9254    6.3803 O   0  0  0  0  0  0  0  0  0  0  0  0
    6.5182   -7.4178    6.4161 C   0  0  2  0  0  0  0  0  0  0  0  0
    6.4245   -8.8815    6.7785 C   0  0  1  0  0  0  0  0  0  0  0  0
    5.6293   -9.0374    7.9423 O   0  0  0  0  0  0  0  0  0  0  0  0
    7.0369   -7.6146    2.6015 C   0  0  1  0  0  0  0  0  0  0  0  0
    7.7700   -6.6131    1.6493 C   0  0  0  0  0  0  0  0  0  0  0  0
    7.2701   -8.8727    1.9451 O   0  0  0  0  0  0  0  0  0  0  0  0
    6.2523   -9.8241    2.0452 C   0  0  2  0  0  0  0  0  0  0  0  0
    6.2099  -10.6506    0.8860 O   0  0  0  0  0  0  0  0  0  0  0  0
    6.5553  -10.6763    3.2861 C   0  0  0  0  0  0  0  0  0  0  0  0
    6.4343  -11.9078    3.2460 O   0  0  0  0  0  0  0  0  0  0  0  0
    5.4715   -7.5407    2.5440 C   0  0  1  0  0  0  0  0  0  0  0  0
    4.6694   -6.5323    3.3864 C   0  0  0  0  0  0  0  0  0  0  0  0
    5.0719   -5.1977    3.1043 O   0  0  0  0  0  0  0  0  0  0  0  0
    4.9953   -4.7195    1.7849 C   0  0  2  0  0  0  0  0  0  0  0  0
    4.1049   -3.6563    1.6708 O   0  0  0  0  0  0  0  0  0  0  0  0
    2.5218   -2.3294    0.1202 H   0  0  0  0  0  0  0  0  0  0  0  0
    3.5959   -0.9399   -0.1658 H   0  0  0  0  0  0  0  0  0  0  0  0
    3.0121   -1.3076    1.4663 H   0  0  0  0  0  0  0  0  0  0  0  0
    5.3422   -2.0738    1.2929 H   0  0  0  0  0  0  0  0  0  0  0  0
    3.4363   -4.1463   -1.0004 H   0  0  0  0  0  0  0  0  0  0  0  0
    4.8160   -4.1494   -2.0479 H   0  0  0  0  0  0  0  0  0  0  0  0
    3.4425   -5.7846    0.7436 H   0  0  0  0  0  0  0  0  0  0  0  0
    3.8183   -8.7907    0.0964 H   0  0  0  0  0  0  0  0  0  0  0  0
    3.5071  -10.6147    2.4418 H   0  0  0  0  0  0  0  0  0  0  0  0
    2.2074  -11.2665    4.6370 H   0  0  0  0  0  0  0  0  0  0  0  0
    3.6563  -11.6057    5.5348 H   0  0  0  0  0  0  0  0  0  0  0  0
    1.9609  -10.9527    6.8966 H   0  0  0  0  0  0  0  0  0  0  0  0
    5.5133  -10.6536    6.0519 H   0  0  0  0  0  0  0  0  0  0  0  0
    7.5390  -10.8000    5.0914 H   0  0  0  0  0  0  0  0  0  0  0  0
    9.4867   -7.5459    3.1038 H   0  0  0  0  0  0  0  0  0  0  0  0
    6.8812   -5.8589    4.8531 H   0  0  0  0  0  0  0  0  0  0  0  0
    5.8134   -6.7614    6.9198 H   0  0  0  0  0  0  0  0  0  0  0  0
    7.4173   -9.2489    7.0400 H   0  0  0  0  0  0  0  0  0  0  0  0
    5.5223   -9.9583    8.1303 H   0  0  0  0  0  0  0  0  0  0  0  0
    7.8118   -5.6022    2.0534 H   0  0  0  0  0  0  0  0  0  0  0  0
    7.3522   -6.5733    0.6468 H   0  0  0  0  0  0  0  0  0  0  0  0
    8.7984   -6.9181    1.4597 H   0  0  0  0  0  0  0  0  0  0  0  0
    5.4014  -11.1681    0.8552 H   0  0  0  0  0  0  0  0  0  0  0  0
    3.6081   -6.6316    3.1709 H   0  0  0  0  0  0  0  0  0  0  0  0
    4.7419   -6.7020    4.4499 H   0  0  0  0  0  0  0  0  0  0  0  0
    6.0170   -4.3878    1.5740 H   0  0  0  0  0  0  0  0  0  0  0  0
  1  2  1  0
  1 38  1  0
  1 39  1  0
  1 40  1  0
  2 37  1  0
  2  3  1  0
  2 41  1  1
  3  4  1  0
  4  5  1  0
  4 42  1  0
  4 43  1  0
  5  6  1  0
  6 36  1  0
  6  7  1  0
  6 44  1  6
  7 33  1  0
  7  8  2  0
  9  8  1  6
  8 45  1  0
  9 29  1  0
  9 33  1  0
  9 10  1  0
 10 12  1  0
 10 11  1  0
 10 46  1  6
 11 12  1  0
 12 13  1  1
 12 15  1  0
 13 14  1  0
 13 47  1  0
 13 48  1  0
 14 49  1  0
 15 16  1  0
 16 24  1  0
 16 17  1  0
 16 50  1  1
 17 31  1  0
 17 18  1  0
 17 51  1  1
 18 19  1  0
 19 20  1  6
 19 21  1  0
 19 26  1  0
 20 52  1  0
 21 23  1  0
 21 22  1  0
 21 53  1  6
 22 23  1  0
 23 24  1  0
 23 54  1  1
 24 25  1  0
 24 55  1  1
 25 56  1  0
 26 27  1  6
 26 28  1  0
 26 33  1  0
 27 57  1  0
 27 58  1  0
 27 59  1  0
 28 29  1  0
 29 30  1  6
 29 31  1  0
 30 60  1  0
 31 32  2  0
 33 34  1  1
 34 35  1  0
 34 61  1  0
 34 62  1  0
 35 36  1  0
 36 37  1  0
 36 63  1  6
M  END
>  <i_m_ct_stereo_status>  (59) 
1

>  <s_m_source_file>  (59) 
/var/tmp/pbs.5076253.sched01/tmptd9uf136/47e5u2q_zc.sdf

>  <i_m_source_file_index>  (59) 
37

>  <i_lp_mmshare_version>  (59) 
48012

>  <i_f3d_flags>  (59) 
0

>  <s_epik_input>  (59) 
TzFbQ0gyXU9bQ0BASF0oW0NIM10pT1tDQEBIXShPW0NIMl0yKVtDQEBIXTFDKD1bQ0hdMylbQ0BAXTIoW0NAXTM0NSlbQ0BAXTYoW0NIM10pW0NAQF03KFtPSF0pW0NASF04W0NASF0oTzgpW0NAQEhdKFtPSF0pW0NAQEhdKE9bQ0BAXTkoW0NASF00TzkpW0NIMl1bT0hdKVtDQEhdKE83KUMoPU8pW0NAQF01KE82KVtPSF0=

>  <s_epik_cmdline>  (59) 
J2VwaWtfcHl0aG9uJywgJy1waHQnLCAnMi4wJywgJy1waCcsICc3LjAnLCAnLXRuJywgJzgnLCAnLW1hJywgJzIwMCcsICctaW1hZScsICc8aW5maWxlLm1hZT4nLCAnLW9tYWUnLCAnPG91dGZpbGUubWFlPic=

>  <r_lp_tautomer_probability>  (59) 
1

>  <r_epik_Ionization_Penalty>  (59) 
0.000254413

>  <r_epik_Ionization_Penalty_Charging>  (59) 
0

>  <r_epik_Ionization_Penalty_Neutral>  (59) 
0.000254413

>  <r_epik_State_Penalty>  (59) 
-0

>  <r_epik_Charging_Adjusted_Penalty>  (59) 
0

>  <i_epik_Tot_Q>  (59) 
0

>  <i_epik_Tot_abs_Q>  (59) 
0

>  <s_epik_Chemistry_Notes>  (59) 
This compound contains an acetal/aminal-like group ( X-CH(R)-Y where X, Y are N, S, or O) that may be acid/base labile, releasing an aldehyde.

>  <s_lp_Force_Field>  (59) 
OPLS3e

>  <r_lp_Energy>  (59) 
90.9884

>  <b_lp_Chiralities_Consistent>  (59) 
1

>  <s_lp_Variant>  (59) 
49:0-1

>  <s_i_glide_gridfile>  (59) 
pfpi4k_grid

>  <i_i_glide_lignum>  (59) 
37

>  <i_i_glide_rotatable_bonds>  (59) 
5

>  <r_i_docking_score>  (59) 
-3.17593

>  <r_i_glide_ligand_efficiency>  (59) 
-0.0858359

>  <r_i_glide_ligand_efficiency_sa>  (59) 
-0.286024

>  <r_i_glide_ligand_efficiency_ln>  (59) 
-0.688785

>  <r_i_glide_gscore>  (59) 
-3.17593

>  <r_i_glide_lipo>  (59) 
-0.207475

>  <r_i_glide_hbond>  (59) 
0

>  <r_i_glide_metal>  (59) 
-0

>  <r_i_glide_rewards>  (59) 
-0.0510315

>  <r_i_glide_evdw>  (59) 
-19.6074

>  <r_i_glide_ecoul>  (59) 
-13.0559

>  <r_i_glide_erotb>  (59) 
0.0742902

>  <r_i_glide_esite>  (59) 
-0.0529595

>  <r_i_glide_emodel>  (59) 
-37.2858

>  <r_i_glide_energy>  (59) 
-32.6633

>  <r_i_glide_einternal>  (59) 
6.57592

>  <r_i_glide_intrahb_reward>  (59) 
-0

>  <i_i_glide_confnum>  (59) 
2

>  <i_i_glide_posenum>  (59) 
1

>  <r_i_glide_eff_state_penalty>  (59) 
0

>  <ligand_id>  (59) 
49

>  <original_smiles>  (59) 
CC1OCOC2C3=CC45C6OC6(CO)OC6C7OC(O)(C8OC8C6O)C(C)(OC4(O)C7=O)C35COC2O1

>  <smiles>  (59) 
[H]OC([H])([H])C12OC3([H])C4([H])OC(O[H])(C5([H])OC5([H])C3([H])O[H])C3(C([H])([H])[H])OC(O[H])(C4=O)C4(C([H])=C5C6([H])OC([H])([H])OC([H])(C([H])([H])[H])OC6([H])OC([H])([H])C534)C1([H])O2

$$$$
49:0:2
     RDKit          3D

 63 71  0  0  1  0  0  0  0  0999 V2000
    4.2418   -0.8544   -2.3350 C   0  0  0  0  0  0  0  0  0  0  0  0
    4.6772   -1.4449   -0.9869 C   0  0  2  0  0  0  0  0  0  0  0  0
    5.9590   -2.0073   -1.1230 O   0  0  0  0  0  0  0  0  0  0  0  0
    5.9769   -3.3137   -1.6186 C   0  0  0  0  0  0  0  0  0  0  0  0
    5.8277   -4.2757   -0.6071 O   0  0  0  0  0  0  0  0  0  0  0  0
    4.4907   -4.4768   -0.1907 C   0  0  1  0  0  0  0  0  0  0  0  0
    4.3478   -5.6609    0.7535 C   0  0  0  0  0  0  0  0  0  0  0  0
    4.1938   -6.9586    0.5101 C   0  0  0  0  0  0  0  0  0  0  0  0
    3.3992   -7.1516    1.8194 C   0  0  1  0  0  0  0  0  0  0  0  0
    2.0673   -7.8863    1.5841 C   0  0  2  0  0  0  0  0  0  0  0  0
    1.0037   -7.1335    0.9932 O   0  0  0  0  0  0  0  0  0  0  0  0
    0.7933   -7.5856    2.3460 C   0  0  1  0  0  0  0  0  0  0  0  0
   -0.3575   -8.5701    2.5673 C   0  0  0  0  0  0  0  0  0  0  0  0
   -1.5818   -7.8835    2.7333 O   0  0  0  0  0  0  0  0  0  0  0  0
    1.0465   -6.5766    3.3201 O   0  0  0  0  0  0  0  0  0  0  0  0
    1.1646   -6.9796    4.6659 C   0  0  1  0  0  0  0  0  0  0  0  0
    2.6337   -7.2941    5.0252 C   0  0  2  0  0  0  0  0  0  0  0  0
    3.4374   -6.1961    5.4615 O   0  0  0  0  0  0  0  0  0  0  0  0
    3.7492   -5.0566    4.7109 C   0  0  2  0  0  0  0  0  0  0  0  0
    4.6848   -4.3126    5.4746 O   0  0  0  0  0  0  0  0  0  0  0  0
    2.5359   -4.1383    4.6306 C   0  0  2  0  0  0  0  0  0  0  0  0
    1.9766   -3.7953    5.9016 O   0  0  0  0  0  0  0  0  0  0  0  0
    1.1042   -4.4898    5.0235 C   0  0  2  0  0  0  0  0  0  0  0  0
    0.6678   -5.8287    5.5525 C   0  0  1  0  0  0  0  0  0  0  0  0
   -0.7443   -5.8537    5.6528 O   0  0  0  0  0  0  0  0  0  0  0  0
    4.4227   -5.4308    3.3057 C   0  0  1  0  0  0  0  0  0  0  0  0
    5.6786   -4.5410    3.0703 C   0  0  0  0  0  0  0  0  0  0  0  0
    5.0008   -6.7418    3.4384 O   0  0  0  0  0  0  0  0  0  0  0  0
    4.2156   -7.7903    2.9372 C   0  0  2  0  0  0  0  0  0  0  0  0
    5.0230   -8.8491    2.4224 O   0  0  0  0  0  0  0  0  0  0  0  0
    3.3652   -8.2958    4.1111 C   0  0  0  0  0  0  0  0  0  0  0  0
    3.2239   -9.4952    4.2965 O   0  0  0  0  0  0  0  0  0  0  0  0
    3.5278   -5.6224    2.0319 C   0  0  1  0  0  0  0  0  0  0  0  0
    2.4507   -4.6032    1.6247 C   0  0  0  0  0  0  0  0  0  0  0  0
    3.0118   -3.3147    1.4270 O   0  0  0  0  0  0  0  0  0  0  0  0
    4.0310   -3.1498    0.4716 C   0  0  2  0  0  0  0  0  0  0  0  0
    3.6588   -2.3189   -0.5750 O   0  0  0  0  0  0  0  0  0  0  0  0
    4.0253   -1.6509   -3.0467 H   0  0  0  0  0  0  0  0  0  0  0  0
    4.9915   -0.1705   -2.7268 H   0  0  0  0  0  0  0  0  0  0  0  0
    3.3139   -0.3089   -2.2081 H   0  0  0  0  0  0  0  0  0  0  0  0
    4.7966   -0.6534   -0.2393 H   0  0  0  0  0  0  0  0  0  0  0  0
    5.3061   -3.4623   -2.4690 H   0  0  0  0  0  0  0  0  0  0  0  0
    6.9765   -3.4551   -2.0188 H   0  0  0  0  0  0  0  0  0  0  0  0
    3.8265   -4.6677   -1.0317 H   0  0  0  0  0  0  0  0  0  0  0  0
    4.3722   -7.5946   -0.3476 H   0  0  0  0  0  0  0  0  0  0  0  0
    2.1696   -8.9115    1.2420 H   0  0  0  0  0  0  0  0  0  0  0  0
   -0.4587   -9.2731    1.7264 H   0  0  0  0  0  0  0  0  0  0  0  0
   -0.1773   -9.2376    3.4064 H   0  0  0  0  0  0  0  0  0  0  0  0
   -2.2391   -8.5232    2.9689 H   0  0  0  0  0  0  0  0  0  0  0  0
    0.5434   -7.8434    4.8866 H   0  0  0  0  0  0  0  0  0  0  0  0
    2.5358   -7.8588    5.9528 H   0  0  0  0  0  0  0  0  0  0  0  0
    4.8679   -3.5101    5.0137 H   0  0  0  0  0  0  0  0  0  0  0  0
    2.6614   -3.2683    3.9926 H   0  0  0  0  0  0  0  0  0  0  0  0
    0.3233   -3.8769    4.5861 H   0  0  0  0  0  0  0  0  0  0  0  0
    1.0397   -5.9591    6.5738 H   0  0  0  0  0  0  0  0  0  0  0  0
   -1.0122   -6.7365    5.8737 H   0  0  0  0  0  0  0  0  0  0  0  0
    5.4596   -3.4721    3.0514 H   0  0  0  0  0  0  0  0  0  0  0  0
    6.2233   -4.7851    2.1590 H   0  0  0  0  0  0  0  0  0  0  0  0
    6.4126   -4.7245    3.8497 H   0  0  0  0  0  0  0  0  0  0  0  0
    4.4659   -9.5702    2.1706 H   0  0  0  0  0  0  0  0  0  0  0  0
    1.9715   -4.9236    0.6978 H   0  0  0  0  0  0  0  0  0  0  0  0
    1.6306   -4.5192    2.3307 H   0  0  0  0  0  0  0  0  0  0  0  0
    4.8501   -2.7068    1.0342 H   0  0  0  0  0  0  0  0  0  0  0  0
  1  2  1  0
  1 38  1  0
  1 39  1  0
  1 40  1  0
  2 37  1  0
  2  3  1  0
  2 41  1  1
  3  4  1  0
  4  5  1  0
  4 42  1  0
  4 43  1  0
  5  6  1  0
  6 36  1  0
  6  7  1  0
  6 44  1  6
  7 33  1  0
  7  8  2  0
  9  8  1  6
  8 45  1  0
  9 29  1  0
  9 33  1  0
  9 10  1  0
 10 12  1  0
 10 11  1  0
 10 46  1  6
 11 12  1  0
 12 13  1  6
 12 15  1  0
 13 14  1  0
 13 47  1  0
 13 48  1  0
 14 49  1  0
 15 16  1  0
 16 24  1  0
 16 17  1  0
 16 50  1  6
 17 31  1  0
 17 18  1  0
 17 51  1  1
 18 19  1  0
 19 20  1  1
 19 21  1  0
 19 26  1  0
 20 52  1  0
 21 23  1  0
 21 22  1  0
 21 53  1  6
 22 23  1  0
 23 24  1  0
 23 54  1  6
 24 25  1  0
 24 55  1  1
 25 56  1  0
 26 27  1  6
 26 28  1  0
 26 33  1  0
 27 57  1  0
 27 58  1  0
 27 59  1  0
 28 29  1  0
 29 30  1  6
 29 31  1  0
 30 60  1  0
 31 32  2  0
 33 34  1  6
 34 35  1  0
 34 61  1  0
 34 62  1  0
 35 36  1  0
 36 37  1  0
 36 63  1  1
M  END
>  <i_m_ct_stereo_status>  (60) 
1

>  <s_m_source_file>  (60) 
/var/tmp/pbs.5076253.sched01/tmptd9uf136/47e5u2q_zc.sdf

>  <i_m_source_file_index>  (60) 
37

>  <i_lp_mmshare_version>  (60) 
48012

>  <i_f3d_flags>  (60) 
0

>  <s_epik_input>  (60) 
TzFbQ0gyXU9bQ0BASF0oW0NIM10pT1tDQEBIXShPW0NIMl0yKVtDQEBIXTFDKD1bQ0hdMylbQ0BAXTIoW0NAXTM0NSlbQ0BAXTYoW0NIM10pW0NAQF03KFtPSF0pW0NASF04W0NASF0oTzgpW0NAQEhdKFtPSF0pW0NAQEhdKE9bQ0BAXTkoW0NASF00TzkpW0NIMl1bT0hdKVtDQEhdKE83KUMoPU8pW0NAQF01KE82KVtPSF0=

>  <s_epik_cmdline>  (60) 
J2VwaWtfcHl0aG9uJywgJy1waHQnLCAnMi4wJywgJy1waCcsICc3LjAnLCAnLXRuJywgJzgnLCAnLW1hJywgJzIwMCcsICctaW1hZScsICc8aW5maWxlLm1hZT4nLCAnLW9tYWUnLCAnPG91dGZpbGUubWFlPic=

>  <r_lp_tautomer_probability>  (60) 
1

>  <r_epik_Ionization_Penalty>  (60) 
0.000254413

>  <r_epik_Ionization_Penalty_Charging>  (60) 
0

>  <r_epik_Ionization_Penalty_Neutral>  (60) 
0.000254413

>  <r_epik_State_Penalty>  (60) 
-0

>  <r_epik_Charging_Adjusted_Penalty>  (60) 
0

>  <i_epik_Tot_Q>  (60) 
0

>  <i_epik_Tot_abs_Q>  (60) 
0

>  <s_epik_Chemistry_Notes>  (60) 
This compound contains an acetal/aminal-like group ( X-CH(R)-Y where X, Y are N, S, or O) that may be acid/base labile, releasing an aldehyde.

>  <s_lp_Force_Field>  (60) 
OPLS3e

>  <r_lp_Energy>  (60) 
90.9884

>  <b_lp_Chiralities_Consistent>  (60) 
1

>  <s_lp_Variant>  (60) 
49:0-1

>  <s_i_glide_gridfile>  (60) 
pfpi4k_grid

>  <i_i_glide_lignum>  (60) 
37

>  <i_i_glide_rotatable_bonds>  (60) 
5

>  <r_i_docking_score>  (60) 
-2.46963

>  <r_i_glide_ligand_efficiency>  (60) 
-0.0667466

>  <r_i_glide_ligand_efficiency_sa>  (60) 
-0.222415

>  <r_i_glide_ligand_efficiency_ln>  (60) 
-0.535604

>  <r_i_glide_gscore>  (60) 
-2.46963

>  <r_i_glide_lipo>  (60) 
-0.291361

>  <r_i_glide_hbond>  (60) 
-0.0319777

>  <r_i_glide_metal>  (60) 
-0

>  <r_i_glide_rewards>  (60) 
-0.209005

>  <r_i_glide_evdw>  (60) 
-26.1904

>  <r_i_glide_ecoul>  (60) 
-4.14431

>  <r_i_glide_erotb>  (60) 
0.0742902

>  <r_i_glide_esite>  (60) 
-0.080406

>  <r_i_glide_emodel>  (60) 
-32.1277

>  <r_i_glide_energy>  (60) 
-30.3347

>  <r_i_glide_einternal>  (60) 
8.26995

>  <r_i_glide_intrahb_reward>  (60) 
-0

>  <i_i_glide_confnum>  (60) 
3

>  <i_i_glide_posenum>  (60) 
39

>  <r_i_glide_eff_state_penalty>  (60) 
0

>  <ligand_id>  (60) 
49

>  <original_smiles>  (60) 
CC1OCOC2C3=CC45C6OC6(CO)OC6C7OC(O)(C8OC8C6O)C(C)(OC4(O)C7=O)C35COC2O1

>  <smiles>  (60) 
[H]OC([H])([H])C12OC3([H])C4([H])OC(O[H])(C5([H])OC5([H])C3([H])O[H])C3(C([H])([H])[H])OC(O[H])(C4=O)C4(C([H])=C5C6([H])OC([H])([H])OC([H])(C([H])([H])[H])OC6([H])OC([H])([H])C534)C1([H])O2

$$$$
50:0:0
     RDKit          3D

 61 67  0  0  1  0  0  0  0  0999 V2000
    8.6125   -3.3008    0.5830 C   0  0  0  0  0  0  0  0  0  0  0  0
    7.3799   -2.6832    0.9445 O   0  0  0  0  0  0  0  0  0  0  0  0
    6.2273   -3.4842    1.2928 C   0  0  2  0  0  0  0  0  0  0  0  0
    6.3908   -4.9798    1.0139 C   0  0  1  0  0  0  0  0  0  0  0  0
    7.1247   -5.6394    2.0286 O   0  0  0  0  0  0  0  0  0  0  0  0
    5.0496   -5.6638    0.8871 C   0  0  2  0  0  0  0  0  0  0  0  0
    4.3532   -5.2260   -0.4114 C   0  0  1  0  0  0  0  0  0  0  0  0
    3.0247   -4.8412    0.1378 C   0  0  1  0  0  0  0  0  0  0  0  0
    2.7782   -5.2115    1.4792 O   0  0  0  0  0  0  0  0  0  0  0  0
    3.9840   -5.6064    2.0953 C   0  0  1  0  0  0  0  0  0  0  0  0
    3.6898   -7.0907    2.4529 C   0  0  0  0  0  0  0  0  0  0  0  0
    2.6111   -7.2307    3.3557 O   0  0  0  0  0  0  0  0  0  0  0  0
    4.1458   -4.7496    3.4317 C   0  0  0  0  0  0  0  0  0  0  0  0
    4.0377   -3.1684    3.5417 C   0  0  2  0  0  0  0  0  0  0  0  0
    3.0346   -2.5002    4.5181 C   0  0  1  0  0  0  0  0  0  0  0  0
    3.6195   -2.1007    5.6332 O   0  0  0  0  0  0  0  0  0  0  0  0
    3.0238   -1.3201    3.6348 N   0  0  2  0  0  0  0  0  0  0  0  0
    1.6926   -0.6297    3.5303 C   0  0  0  0  0  0  0  0  0  0  0  0
    3.4519   -2.1709    2.5072 C   0  0  1  0  0  0  0  0  0  0  0  0
    4.4704   -1.5699    1.4651 C   0  0  2  0  0  0  0  0  0  0  0  0
    5.5217   -0.8938    2.1525 O   0  0  0  0  0  0  0  0  0  0  0  0
    3.9217   -0.6087    0.3722 C   0  0  0  0  0  0  0  0  0  0  0  0
    4.6468   -1.0114   -0.9595 C   0  0  0  0  0  0  0  0  0  0  0  0
    3.8995   -0.7598   -2.0386 F   0  0  0  0  0  0  0  0  0  0  0  0
    5.7274   -0.2351   -0.9889 F   0  0  0  0  0  0  0  0  0  0  0  0
    5.1350   -2.4810   -0.8402 C   0  0  2  0  0  0  0  0  0  0  0  0
    6.3959   -2.5341   -1.4978 O   0  0  0  0  0  0  0  0  0  0  0  0
    4.3097   -3.7797   -1.1429 C   0  0  1  0  0  0  0  0  0  0  0  0
    3.6834   -3.6966   -2.4293 O   0  0  0  0  0  0  0  0  0  0  0  0
    2.3426   -3.2073   -2.5334 C   0  0  0  0  0  0  0  0  0  0  0  0
    3.5607   -3.4171    0.0856 C   0  0  2  0  0  0  0  0  0  0  0  0
    4.9458   -2.7796    0.6439 C   0  0  1  0  0  0  0  0  0  0  0  0
    9.4017   -2.5505    0.6119 H   0  0  0  0  0  0  0  0  0  0  0  0
    8.5451   -3.6679   -0.4415 H   0  0  0  0  0  0  0  0  0  0  0  0
    8.9156   -4.1130    1.2451 H   0  0  0  0  0  0  0  0  0  0  0  0
    6.1922   -3.4036    2.3671 H   0  0  0  0  0  0  0  0  0  0  0  0
    6.8987   -5.1375    0.0631 H   0  0  0  0  0  0  0  0  0  0  0  0
    6.8368   -5.3111    2.8622 H   0  0  0  0  0  0  0  0  0  0  0  0
    5.3288   -6.7040    0.7304 H   0  0  0  0  0  0  0  0  0  0  0  0
    4.3272   -6.0504   -1.1139 H   0  0  0  0  0  0  0  0  0  0  0  0
    2.2042   -5.0905   -0.5230 H   0  0  0  0  0  0  0  0  0  0  0  0
    3.4715   -7.6726    1.5522 H   0  0  0  0  0  0  0  0  0  0  0  0
    4.5795   -7.5379    2.8991 H   0  0  0  0  0  0  0  0  0  0  0  0
    2.5458   -8.1354    3.5968 H   0  0  0  0  0  0  0  0  0  0  0  0
    3.4101   -5.1304    4.1371 H   0  0  0  0  0  0  0  0  0  0  0  0
    5.0904   -5.0388    3.8825 H   0  0  0  0  0  0  0  0  0  0  0  0
    5.0165   -2.7997    3.8767 H   0  0  0  0  0  0  0  0  0  0  0  0
    2.0808   -3.0243    4.5150 H   0  0  0  0  0  0  0  0  0  0  0  0
    0.9233   -1.3596    3.2464 H   0  0  0  0  0  0  0  0  0  0  0  0
    1.7914    0.1515    2.7715 H   0  0  0  0  0  0  0  0  0  0  0  0
    1.4375   -0.1905    4.5055 H   0  0  0  0  0  0  0  0  0  0  0  0
    2.5173   -2.5787    2.0957 H   0  0  0  0  0  0  0  0  0  0  0  0
    5.1827   -0.1383    2.5994 H   0  0  0  0  0  0  0  0  0  0  0  0
    2.8389   -0.6868    0.2973 H   0  0  0  0  0  0  0  0  0  0  0  0
    4.1080    0.4430    0.6160 H   0  0  0  0  0  0  0  0  0  0  0  0
    6.6640   -3.4413   -1.5257 H   0  0  0  0  0  0  0  0  0  0  0  0
    2.0608   -3.2084   -3.5816 H   0  0  0  0  0  0  0  0  0  0  0  0
    2.2421   -2.1893   -2.1524 H   0  0  0  0  0  0  0  0  0  0  0  0
    1.6241   -3.8627   -2.0378 H   0  0  0  0  0  0  0  0  0  0  0  0
    2.7406   -2.7299   -0.0901 H   0  0  0  0  0  0  0  0  0  0  0  0
    3.7639   -0.7653    4.0346 H   0  0  0  0  0  0  0  0  0  0  0  0
  1  2  1  0
  1 33  1  0
  1 34  1  0
  1 35  1  0
  2  3  1  0
  3 32  1  0
  3  4  1  0
  3 36  1  1
  4  5  1  0
  4  6  1  0
  4 37  1  6
  5 38  1  0
  6 10  1  0
  6  7  1  0
  6 39  1  6
  7 28  1  0
  7  8  1  0
  7 40  1  6
  8 31  1  0
  8  9  1  0
  8 41  1  6
  9 10  1  0
 10 11  1  1
 10 13  1  0
 11 12  1  0
 11 42  1  0
 11 43  1  0
 12 44  1  0
 13 14  1  0
 13 45  1  0
 13 46  1  0
 14 19  1  0
 14 15  1  0
 14 47  1  1
 15 16  1  0
 15 17  1  0
 15 48  1  1
 17 18  1  0
 17 19  1  0
 17 61  1  1
 18 49  1  0
 18 50  1  0
 18 51  1  0
 19 20  1  0
 19 52  1  6
 32 20  1  1
 20 21  1  1
 20 22  1  0
 21 53  1  0
 22 23  1  0
 22 54  1  0
 22 55  1  0
 23 24  1  0
 23 25  1  0
 23 26  1  0
 26 32  1  0
 26 27  1  6
 26 28  1  0
 27 56  1  0
 28 29  1  6
 28 31  1  0
 29 30  1  0
 30 57  1  0
 30 58  1  0
 30 59  1  0
 31 32  1  0
 31 60  1  6
M  CHG  2  16  -1  17   1
M  END
>  <i_m_ct_stereo_status>  (61) 
1

>  <s_m_source_file>  (61) 
/var/tmp/pbs.5076253.sched01/tmptd9uf136/47e5u2q_zc.sdf

>  <i_m_source_file_index>  (61) 
38

>  <i_lp_mmshare_version>  (61) 
48012

>  <i_f3d_flags>  (61) 
0

>  <s_epik_input>  (61) 
W0NIM11OMVtDQEhdKFtPSF0pW0NASF0oW0NAQEhdMVtDQF0yKFtDQF0zNDUpW09IXSlbQ0gyXVtDQF02KFtDSDJdW09IXSlbQ0BIXShbQ0BIXShbT0hdKVtDQEhdM09bQ0gzXSlbQ0BIXTdbQ0BASF0oTzYpW0NAQEhdNVtDQEBdNyhPW0NIM10pW0NAQF00KFtPSF0pQyhGKShGKVtDSDJdMg==

>  <s_epik_cmdline>  (61) 
J2VwaWtfcHl0aG9uJywgJy1waHQnLCAnMi4wJywgJy1waCcsICc3LjAnLCAnLXRuJywgJzgnLCAnLW1hJywgJzIwMCcsICctaW1hZScsICc8aW5maWxlLm1hZT4nLCAnLW9tYWUnLCAnPG91dGZpbGUubWFlPic=

>  <r_epik_Ionization_Penalty>  (61) 
0.0110988

>  <r_epik_Ionization_Penalty_Charging>  (61) 
0.010977

>  <r_epik_Ionization_Penalty_Neutral>  (61) 
0.00012182

>  <r_epik_State_Penalty>  (61) 
0.00942901

>  <r_epik_Charging_Adjusted_Penalty>  (61) 
0.020406

>  <i_epik_Tot_Q>  (61) 
0

>  <i_epik_Tot_abs_Q>  (61) 
2

>  <s_epik_Chemistry_Notes>  (61) 
This compound contains an acetal/aminal-like group ( X-CH(R)-Y where X, Y are N, S, or O) that may be acid/base labile, releasing an aldehyde.

>  <s_lp_Force_Field>  (61) 
OPLS3e

>  <r_lp_Energy>  (61) 
135.804

>  <b_lp_Chiralities_Consistent>  (61) 
1

>  <s_lp_Variant>  (61) 
50:0-1

>  <s_i_glide_gridfile>  (61) 
pfpi4k_grid

>  <i_i_glide_lignum>  (61) 
38

>  <i_i_glide_rotatable_bonds>  (61) 
7

>  <r_i_docking_score>  (61) 
-2.36445

>  <r_i_glide_ligand_efficiency>  (61) 
-0.073889

>  <r_i_glide_ligand_efficiency_sa>  (61) 
-0.234583

>  <r_i_glide_ligand_efficiency_ln>  (61) 
-0.529465

>  <r_i_glide_gscore>  (61) 
-2.36445

>  <r_i_glide_lipo>  (61) 
-0.657539

>  <r_i_glide_hbond>  (61) 
0

>  <r_i_glide_metal>  (61) 
-0

>  <r_i_glide_rewards>  (61) 
-0.262816

>  <r_i_glide_evdw>  (61) 
-18.1228

>  <r_i_glide_ecoul>  (61) 
-3.75323

>  <r_i_glide_erotb>  (61) 
0.0945636

>  <r_i_glide_esite>  (61) 
-0.0695321

>  <r_i_glide_emodel>  (61) 
-16.1433

>  <r_i_glide_energy>  (61) 
-21.8761

>  <r_i_glide_einternal>  (61) 
15.6031

>  <r_i_glide_intrahb_reward>  (61) 
-0

>  <i_i_glide_confnum>  (61) 
2

>  <i_i_glide_posenum>  (61) 
4

>  <r_i_glide_eff_state_penalty>  (61) 
0

>  <ligand_id>  (61) 
50

>  <original_smiles>  (61) 
COC1C(O)C2C3C4OC2(CO)CC2C(O)N(C)C2C2(O)CC(F)(F)C5(O)C3(OC)C4C125

>  <smiles>  (61) 
[H]OC([H])([H])C12OC3([H])C4([H])C1([H])C([H])(O[H])C([H])(OC([H])([H])[H])C15C3([H])C4(OC([H])([H])[H])C1(O[H])C(F)(F)C([H])([H])C5(O[H])C1([H])C([H])(C2([H])[H])C([H])([O-])[N+]1([H])C([H])([H])[H]

$$$$
50:0:1
     RDKit          3D

 61 67  0  0  1  0  0  0  0  0999 V2000
    8.4776   -3.3763    0.2274 C   0  0  0  0  0  0  0  0  0  0  0  0
    7.1701   -2.8452    0.0654 O   0  0  0  0  0  0  0  0  0  0  0  0
    6.1097   -3.3993    0.8594 C   0  0  2  0  0  0  0  0  0  0  0  0
    6.0369   -4.9198    0.7603 C   0  0  1  0  0  0  0  0  0  0  0  0
    6.9966   -5.5513    1.5896 O   0  0  0  0  0  0  0  0  0  0  0  0
    4.6769   -5.4157    1.1938 C   0  0  2  0  0  0  0  0  0  0  0  0
    3.6194   -5.0662    0.1387 C   0  0  1  0  0  0  0  0  0  0  0  0
    2.6049   -4.3994    0.9894 C   0  0  1  0  0  0  0  0  0  0  0  0
    2.7979   -4.5527    2.3818 O   0  0  0  0  0  0  0  0  0  0  0  0
    4.1012   -5.0257    2.6548 C   0  0  1  0  0  0  0  0  0  0  0  0
    3.8172   -6.3795    3.3757 C   0  0  0  0  0  0  0  0  0  0  0  0
    3.1033   -6.2320    4.5933 O   0  0  0  0  0  0  0  0  0  0  0  0
    4.7949   -4.0222    3.6963 C   0  0  0  0  0  0  0  0  0  0  0  0
    4.8788   -2.4532    3.5574 C   0  0  2  0  0  0  0  0  0  0  0  0
    4.3561   -1.5108    4.6557 C   0  0  1  0  0  0  0  0  0  0  0  0
    5.3478   -1.0509    5.4363 O   0  0  0  0  0  0  0  0  0  0  0  0
    4.1575   -0.4730    3.6334 N   0  0  2  0  0  0  0  0  0  0  0  0
    2.9505    0.3972    3.8406 C   0  0  0  0  0  0  0  0  0  0  0  0
    4.0547   -1.5460    2.6157 C   0  0  1  0  0  0  0  0  0  0  0  0
    4.7003   -1.2630    1.2243 C   0  0  2  0  0  0  0  0  0  0  0  0
    5.9715   -0.6571    1.3832 O   0  0  0  0  0  0  0  0  0  0  0  0
    3.9177   -0.3753    0.2262 C   0  0  0  0  0  0  0  0  0  0  0  0
    4.0838   -1.0578   -1.1759 C   0  0  0  0  0  0  0  0  0  0  0  0
    2.9940   -0.8767   -1.9134 F   0  0  0  0  0  0  0  0  0  0  0  0
    5.0767   -0.3997   -1.7840 F   0  0  0  0  0  0  0  0  0  0  0  0
    4.4948   -2.5428   -0.9890 C   0  0  2  0  0  0  0  0  0  0  0  0
    5.4963   -2.8397   -1.9421 O   0  0  0  0  0  0  0  0  0  0  0  0
    3.5092   -3.7574   -0.8061 C   0  0  1  0  0  0  0  0  0  0  0  0
    2.4072   -3.6886   -1.7122 O   0  0  0  0  0  0  0  0  0  0  0  0
    2.7633   -3.4783   -3.0878 C   0  0  0  0  0  0  0  0  0  0  0  0
    3.2258   -3.1117    0.4868 C   0  0  2  0  0  0  0  0  0  0  0  0
    4.7633   -2.6101    0.5058 C   0  0  1  0  0  0  0  0  0  0  0  0
    9.1965   -2.7287   -0.2748 H   0  0  0  0  0  0  0  0  0  0  0  0
    8.5575   -4.3642   -0.2269 H   0  0  0  0  0  0  0  0  0  0  0  0
    8.7533   -3.4475    1.2786 H   0  0  0  0  0  0  0  0  0  0  0  0
    6.4539   -3.1945    1.8531 H   0  0  0  0  0  0  0  0  0  0  0  0
    6.2057   -5.2292   -0.2732 H   0  0  0  0  0  0  0  0  0  0  0  0
    6.9685   -6.4769    1.4306 H   0  0  0  0  0  0  0  0  0  0  0  0
    4.7764   -6.5040    1.1520 H   0  0  0  0  0  0  0  0  0  0  0  0
    3.1775   -5.9614   -0.3107 H   0  0  0  0  0  0  0  0  0  0  0  0
    1.6031   -4.6234    0.6504 H   0  0  0  0  0  0  0  0  0  0  0  0
    3.2495   -7.0552    2.7313 H   0  0  0  0  0  0  0  0  0  0  0  0
    4.7588   -6.8827    3.6006 H   0  0  0  0  0  0  0  0  0  0  0  0
    2.9968   -7.0757    4.9836 H   0  0  0  0  0  0  0  0  0  0  0  0
    4.3322   -4.1963    4.6692 H   0  0  0  0  0  0  0  0  0  0  0  0
    5.8059   -4.3880    3.8583 H   0  0  0  0  0  0  0  0  0  0  0  0
    5.9273   -2.1872    3.4724 H   0  0  0  0  0  0  0  0  0  0  0  0
    3.4231   -1.8597    5.0661 H   0  0  0  0  0  0  0  0  0  0  0  0
    2.0820   -0.2357    3.9692 H   0  0  0  0  0  0  0  0  0  0  0  0
    2.8527    1.0330    2.9692 H   0  0  0  0  0  0  0  0  0  0  0  0
    3.1046    0.9914    4.7386 H   0  0  0  0  0  0  0  0  0  0  0  0
    3.0027   -1.8618    2.5931 H   0  0  0  0  0  0  0  0  0  0  0  0
    6.5459   -1.2243    1.8738 H   0  0  0  0  0  0  0  0  0  0  0  0
    2.8665   -0.3255    0.5108 H   0  0  0  0  0  0  0  0  0  0  0  0
    4.2601    0.6541    0.2338 H   0  0  0  0  0  0  0  0  0  0  0  0
    5.6519   -3.7658   -1.8736 H   0  0  0  0  0  0  0  0  0  0  0  0
    1.9134   -3.6927   -3.7324 H   0  0  0  0  0  0  0  0  0  0  0  0
    3.5598   -4.1569   -3.4008 H   0  0  0  0  0  0  0  0  0  0  0  0
    3.0815   -2.4632   -3.2929 H   0  0  0  0  0  0  0  0  0  0  0  0
    2.4456   -2.3652    0.3942 H   0  0  0  0  0  0  0  0  0  0  0  0
    5.0397    0.0153    3.6089 H   0  0  0  0  0  0  0  0  0  0  0  0
  1  2  1  0
  1 33  1  0
  1 34  1  0
  1 35  1  0
  2  3  1  0
  3 32  1  0
  3  4  1  0
  3 36  1  1
  4  5  1  0
  4  6  1  0
  4 37  1  6
  5 38  1  0
  6 10  1  0
  6  7  1  0
  6 39  1  1
  7 28  1  0
  7  8  1  0
  7 40  1  6
  8 31  1  0
  8  9  1  0
  8 41  1  6
  9 10  1  0
 10 11  1  1
 10 13  1  0
 11 12  1  0
 11 42  1  0
 11 43  1  0
 12 44  1  0
 13 14  1  0
 13 45  1  0
 13 46  1  0
 14 19  1  0
 14 15  1  0
 14 47  1  6
 15 16  1  0
 15 17  1  0
 15 48  1  1
 17 18  1  0
 17 19  1  0
 17 61  1  6
 18 49  1  0
 18 50  1  0
 18 51  1  0
 19 20  1  0
 19 52  1  6
 32 20  1  1
 20 21  1  1
 20 22  1  0
 21 53  1  0
 22 23  1  0
 22 54  1  0
 22 55  1  0
 23 24  1  0
 23 25  1  0
 23 26  1  0
 26 32  1  0
 26 27  1  6
 26 28  1  0
 27 56  1  0
 28 29  1  6
 28 31  1  0
 29 30  1  0
 30 57  1  0
 30 58  1  0
 30 59  1  0
 31 32  1  0
 31 60  1  6
M  CHG  2  16  -1  17   1
M  END
>  <i_m_ct_stereo_status>  (62) 
1

>  <s_m_source_file>  (62) 
/var/tmp/pbs.5076253.sched01/tmptd9uf136/47e5u2q_zc.sdf

>  <i_m_source_file_index>  (62) 
38

>  <i_lp_mmshare_version>  (62) 
48012

>  <i_f3d_flags>  (62) 
0

>  <s_epik_input>  (62) 
W0NIM11OMVtDQEhdKFtPSF0pW0NASF0oW0NAQEhdMVtDQF0yKFtDQF0zNDUpW09IXSlbQ0gyXVtDQF02KFtDSDJdW09IXSlbQ0BIXShbQ0BIXShbT0hdKVtDQEhdM09bQ0gzXSlbQ0BIXTdbQ0BASF0oTzYpW0NAQEhdNVtDQEBdNyhPW0NIM10pW0NAQF00KFtPSF0pQyhGKShGKVtDSDJdMg==

>  <s_epik_cmdline>  (62) 
J2VwaWtfcHl0aG9uJywgJy1waHQnLCAnMi4wJywgJy1waCcsICc3LjAnLCAnLXRuJywgJzgnLCAnLW1hJywgJzIwMCcsICctaW1hZScsICc8aW5maWxlLm1hZT4nLCAnLW9tYWUnLCAnPG91dGZpbGUubWFlPic=

>  <r_epik_Ionization_Penalty>  (62) 
0.0110988

>  <r_epik_Ionization_Penalty_Charging>  (62) 
0.010977

>  <r_epik_Ionization_Penalty_Neutral>  (62) 
0.00012182

>  <r_epik_State_Penalty>  (62) 
0.00942901

>  <r_epik_Charging_Adjusted_Penalty>  (62) 
0.020406

>  <i_epik_Tot_Q>  (62) 
0

>  <i_epik_Tot_abs_Q>  (62) 
2

>  <s_epik_Chemistry_Notes>  (62) 
This compound contains an acetal/aminal-like group ( X-CH(R)-Y where X, Y are N, S, or O) that may be acid/base labile, releasing an aldehyde.

>  <s_lp_Force_Field>  (62) 
OPLS3e

>  <r_lp_Energy>  (62) 
135.804

>  <b_lp_Chiralities_Consistent>  (62) 
1

>  <s_lp_Variant>  (62) 
50:0-1

>  <s_i_glide_gridfile>  (62) 
pfpi4k_grid

>  <i_i_glide_lignum>  (62) 
38

>  <i_i_glide_rotatable_bonds>  (62) 
7

>  <r_i_docking_score>  (62) 
-2.2137

>  <r_i_glide_ligand_efficiency>  (62) 
-0.069178

>  <r_i_glide_ligand_efficiency_sa>  (62) 
-0.219627

>  <r_i_glide_ligand_efficiency_ln>  (62) 
-0.495707

>  <r_i_glide_gscore>  (62) 
-2.2137

>  <r_i_glide_lipo>  (62) 
-0.68979

>  <r_i_glide_hbond>  (62) 
0

>  <r_i_glide_metal>  (62) 
-0

>  <r_i_glide_rewards>  (62) 
-0.278176

>  <r_i_glide_evdw>  (62) 
-19.9742

>  <r_i_glide_ecoul>  (62) 
-1.48931

>  <r_i_glide_erotb>  (62) 
0.0945636

>  <r_i_glide_esite>  (62) 
-0.118187

>  <r_i_glide_emodel>  (62) 
-18.2628

>  <r_i_glide_energy>  (62) 
-21.4635

>  <r_i_glide_einternal>  (62) 
8.59316

>  <r_i_glide_intrahb_reward>  (62) 
-0

>  <i_i_glide_confnum>  (62) 
2

>  <i_i_glide_posenum>  (62) 
15

>  <r_i_glide_eff_state_penalty>  (62) 
0

>  <ligand_id>  (62) 
50

>  <original_smiles>  (62) 
COC1C(O)C2C3C4OC2(CO)CC2C(O)N(C)C2C2(O)CC(F)(F)C5(O)C3(OC)C4C125

>  <smiles>  (62) 
[H]OC([H])([H])C12OC3([H])C4([H])C1([H])C([H])(O[H])C([H])(OC([H])([H])[H])C15C3([H])C4(OC([H])([H])[H])C1(O[H])C(F)(F)C([H])([H])C5(O[H])C1([H])C([H])(C2([H])[H])C([H])([O-])[N+]1([H])C([H])([H])[H]

$$$$
50:0:2
     RDKit          3D

 61 67  0  0  1  0  0  0  0  0999 V2000
    8.4581   -3.7828    0.6758 C   0  0  0  0  0  0  0  0  0  0  0  0
    7.2234   -3.1162    0.4706 O   0  0  0  0  0  0  0  0  0  0  0  0
    6.0434   -3.6401    1.0989 C   0  0  2  0  0  0  0  0  0  0  0  0
    5.9031   -5.1475    0.9082 C   0  0  1  0  0  0  0  0  0  0  0  0
    6.7158   -5.8937    1.7994 O   0  0  0  0  0  0  0  0  0  0  0  0
    4.4773   -5.5770    1.1440 C   0  0  2  0  0  0  0  0  0  0  0  0
    3.5937   -5.1191   -0.0127 C   0  0  1  0  0  0  0  0  0  0  0  0
    2.5033   -4.4406    0.7198 C   0  0  1  0  0  0  0  0  0  0  0  0
    2.4928   -4.6773    2.1104 O   0  0  0  0  0  0  0  0  0  0  0  0
    3.7296   -5.2304    2.5325 C   0  0  1  0  0  0  0  0  0  0  0  0
    3.2869   -6.5999    3.1389 C   0  0  0  0  0  0  0  0  0  0  0  0
    2.3372   -6.4629    4.1802 O   0  0  0  0  0  0  0  0  0  0  0  0
    4.3294   -4.3284    3.7118 C   0  0  0  0  0  0  0  0  0  0  0  0
    4.5214   -2.7531    3.6693 C   0  0  2  0  0  0  0  0  0  0  0  0
    3.8980   -1.8365    4.7419 C   0  0  1  0  0  0  0  0  0  0  0  0
    4.7967   -1.4673    5.6663 O   0  0  0  0  0  0  0  0  0  0  0  0
    3.8868   -0.7481    3.7647 N   0  0  2  0  0  0  0  0  0  0  0  0
    2.7049    0.1756    3.8595 C   0  0  0  0  0  0  0  0  0  0  0  0
    3.8802   -1.7471    2.6776 C   0  0  1  0  0  0  0  0  0  0  0  0
    4.7166   -1.4330    1.3900 C   0  0  2  0  0  0  0  0  0  0  0  0
    6.0124   -0.9443    1.7173 O   0  0  0  0  0  0  0  0  0  0  0  0
    4.1009   -0.4607    0.3520 C   0  0  0  0  0  0  0  0  0  0  0  0
    4.3862   -1.0832   -1.0557 C   0  0  0  0  0  0  0  0  0  0  0  0
    3.3799   -0.8345   -1.8887 F   0  0  0  0  0  0  0  0  0  0  0  0
    5.4590   -0.4593   -1.5339 F   0  0  0  0  0  0  0  0  0  0  0  0
    4.7266   -2.5907   -0.8908 C   0  0  2  0  0  0  0  0  0  0  0  0
    5.8318   -2.9070   -1.7211 O   0  0  0  0  0  0  0  0  0  0  0  0
    3.6797   -3.7635   -0.8945 C   0  0  1  0  0  0  0  0  0  0  0  0
    2.7046   -3.5758   -1.9283 O   0  0  0  0  0  0  0  0  0  0  0  0
    3.2562   -3.4867   -3.2471 C   0  0  0  0  0  0  0  0  0  0  0  0
    3.2457   -3.1630    0.3878 C   0  0  2  0  0  0  0  0  0  0  0  0
    4.7967   -2.7529    0.6217 C   0  0  1  0  0  0  0  0  0  0  0  0
    9.2726   -3.1540    0.3188 H   0  0  0  0  0  0  0  0  0  0  0  0
    8.4931   -4.7186    0.1175 H   0  0  0  0  0  0  0  0  0  0  0  0
    8.6252   -3.9905    1.7287 H   0  0  0  0  0  0  0  0  0  0  0  0
    6.2637   -3.4963    2.1367 H   0  0  0  0  0  0  0  0  0  0  0  0
    6.1763   -5.4104   -0.1140 H   0  0  0  0  0  0  0  0  0  0  0  0
    6.4696   -5.6629    2.6753 H   0  0  0  0  0  0  0  0  0  0  0  0
    4.5306   -6.6670    1.0526 H   0  0  0  0  0  0  0  0  0  0  0  0
    3.1925   -5.9730   -0.5519 H   0  0  0  0  0  0  0  0  0  0  0  0
    1.5482   -4.5915    0.2192 H   0  0  0  0  0  0  0  0  0  0  0  0
    2.8512   -7.2490    2.3742 H   0  0  0  0  0  0  0  0  0  0  0  0
    4.1557   -7.1301    3.5347 H   0  0  0  0  0  0  0  0  0  0  0  0
    2.0063   -7.3147    4.3946 H   0  0  0  0  0  0  0  0  0  0  0  0
    3.7329   -4.5217    4.5997 H   0  0  0  0  0  0  0  0  0  0  0  0
    5.2873   -4.7560    3.9866 H   0  0  0  0  0  0  0  0  0  0  0  0
    5.5984   -2.5563    3.7408 H   0  0  0  0  0  0  0  0  0  0  0  0
    2.9149   -2.1593    5.0121 H   0  0  0  0  0  0  0  0  0  0  0  0
    1.7820   -0.4120    3.8401 H   0  0  0  0  0  0  0  0  0  0  0  0
    2.7527    0.8640    3.0119 H   0  0  0  0  0  0  0  0  0  0  0  0
    2.7694    0.7242    4.8048 H   0  0  0  0  0  0  0  0  0  0  0  0
    2.8276   -2.0180    2.5002 H   0  0  0  0  0  0  0  0  0  0  0  0
    5.9796   -0.3430    2.4344 H   0  0  0  0  0  0  0  0  0  0  0  0
    3.0222   -0.3544    0.5063 H   0  0  0  0  0  0  0  0  0  0  0  0
    4.5074    0.5471    0.4416 H   0  0  0  0  0  0  0  0  0  0  0  0
    5.4604   -3.2526   -2.5170 H   0  0  0  0  0  0  0  0  0  0  0  0
    2.4736   -3.6063   -3.9896 H   0  0  0  0  0  0  0  0  0  0  0  0
    3.9943   -4.2676   -3.4202 H   0  0  0  0  0  0  0  0  0  0  0  0
    3.7501   -2.5352   -3.4318 H   0  0  0  0  0  0  0  0  0  0  0  0
    2.5182   -2.3717    0.2297 H   0  0  0  0  0  0  0  0  0  0  0  0
    4.7715   -0.3107    3.9314 H   0  0  0  0  0  0  0  0  0  0  0  0
  1  2  1  0
  1 33  1  0
  1 34  1  0
  1 35  1  0
  2  3  1  0
  3 32  1  0
  3  4  1  0
  3 36  1  1
  4  5  1  0
  4  6  1  0
  4 37  1  6
  5 38  1  0
  6 10  1  0
  6  7  1  0
  6 39  1  6
  7 28  1  0
  7  8  1  0
  7 40  1  6
  8 31  1  0
  8  9  1  0
  8 41  1  6
  9 10  1  0
 10 11  1  1
 10 13  1  0
 11 12  1  0
 11 42  1  0
 11 43  1  0
 12 44  1  0
 13 14  1  0
 13 45  1  0
 13 46  1  0
 14 19  1  0
 14 15  1  0
 14 47  1  1
 15 16  1  0
 15 17  1  0
 15 48  1  1
 17 18  1  0
 17 19  1  0
 17 61  1  6
 18 49  1  0
 18 50  1  0
 18 51  1  0
 19 20  1  0
 19 52  1  6
 32 20  1  1
 20 21  1  1
 20 22  1  0
 21 53  1  0
 22 23  1  0
 22 54  1  0
 22 55  1  0
 23 24  1  0
 23 25  1  0
 23 26  1  0
 26 32  1  0
 26 27  1  6
 26 28  1  0
 27 56  1  0
 28 29  1  6
 28 31  1  0
 29 30  1  0
 30 57  1  0
 30 58  1  0
 30 59  1  0
 31 32  1  0
 31 60  1  6
M  CHG  2  16  -1  17   1
M  END
>  <i_m_ct_stereo_status>  (63) 
1

>  <s_m_source_file>  (63) 
/var/tmp/pbs.5076253.sched01/tmptd9uf136/47e5u2q_zc.sdf

>  <i_m_source_file_index>  (63) 
38

>  <i_lp_mmshare_version>  (63) 
48012

>  <i_f3d_flags>  (63) 
0

>  <s_epik_input>  (63) 
W0NIM11OMVtDQEhdKFtPSF0pW0NASF0oW0NAQEhdMVtDQF0yKFtDQF0zNDUpW09IXSlbQ0gyXVtDQF02KFtDSDJdW09IXSlbQ0BIXShbQ0BIXShbT0hdKVtDQEhdM09bQ0gzXSlbQ0BIXTdbQ0BASF0oTzYpW0NAQEhdNVtDQEBdNyhPW0NIM10pW0NAQF00KFtPSF0pQyhGKShGKVtDSDJdMg==

>  <s_epik_cmdline>  (63) 
J2VwaWtfcHl0aG9uJywgJy1waHQnLCAnMi4wJywgJy1waCcsICc3LjAnLCAnLXRuJywgJzgnLCAnLW1hJywgJzIwMCcsICctaW1hZScsICc8aW5maWxlLm1hZT4nLCAnLW9tYWUnLCAnPG91dGZpbGUubWFlPic=

>  <r_epik_Ionization_Penalty>  (63) 
0.0110988

>  <r_epik_Ionization_Penalty_Charging>  (63) 
0.010977

>  <r_epik_Ionization_Penalty_Neutral>  (63) 
0.00012182

>  <r_epik_State_Penalty>  (63) 
0.00942901

>  <r_epik_Charging_Adjusted_Penalty>  (63) 
0.020406

>  <i_epik_Tot_Q>  (63) 
0

>  <i_epik_Tot_abs_Q>  (63) 
2

>  <s_epik_Chemistry_Notes>  (63) 
This compound contains an acetal/aminal-like group ( X-CH(R)-Y where X, Y are N, S, or O) that may be acid/base labile, releasing an aldehyde.

>  <s_lp_Force_Field>  (63) 
OPLS3e

>  <r_lp_Energy>  (63) 
135.804

>  <b_lp_Chiralities_Consistent>  (63) 
1

>  <s_lp_Variant>  (63) 
50:0-1

>  <s_i_glide_gridfile>  (63) 
pfpi4k_grid

>  <i_i_glide_lignum>  (63) 
38

>  <i_i_glide_rotatable_bonds>  (63) 
7

>  <r_i_docking_score>  (63) 
-1.98104

>  <r_i_glide_ligand_efficiency>  (63) 
-0.0619076

>  <r_i_glide_ligand_efficiency_sa>  (63) 
-0.196544

>  <r_i_glide_ligand_efficiency_ln>  (63) 
-0.44361

>  <r_i_glide_gscore>  (63) 
-1.98104

>  <r_i_glide_lipo>  (63) 
-0.611546

>  <r_i_glide_hbond>  (63) 
0

>  <r_i_glide_metal>  (63) 
-0

>  <r_i_glide_rewards>  (63) 
-0.262816

>  <r_i_glide_evdw>  (63) 
-19.256

>  <r_i_glide_ecoul>  (63) 
-0.940429

>  <r_i_glide_erotb>  (63) 
0.0945636

>  <r_i_glide_esite>  (63) 
-0.0973816

>  <r_i_glide_emodel>  (63) 
-16.406

>  <r_i_glide_energy>  (63) 
-20.1964

>  <r_i_glide_einternal>  (63) 
9.57771

>  <r_i_glide_intrahb_reward>  (63) 
-0

>  <i_i_glide_confnum>  (63) 
2

>  <i_i_glide_posenum>  (63) 
22

>  <r_i_glide_eff_state_penalty>  (63) 
0

>  <ligand_id>  (63) 
50

>  <original_smiles>  (63) 
COC1C(O)C2C3C4OC2(CO)CC2C(O)N(C)C2C2(O)CC(F)(F)C5(O)C3(OC)C4C125

>  <smiles>  (63) 
[H]OC([H])([H])C12OC3([H])C4([H])C1([H])C([H])(O[H])C([H])(OC([H])([H])[H])C15C3([H])C4(OC([H])([H])[H])C1(O[H])C(F)(F)C([H])([H])C5(O[H])C1([H])C([H])(C2([H])[H])C([H])([O-])[N+]1([H])C([H])([H])[H]

$$$$
50:1:0
     RDKit          3D

 62 68  0  0  1  0  0  0  0  0999 V2000
    7.7371   -1.5943    0.8604 C   0  0  0  0  0  0  0  0  0  0  0  0
    6.8081   -2.5206    1.3740 O   0  0  0  0  0  0  0  0  0  0  0  0
    5.4402   -2.1344    1.4195 C   0  0  2  0  0  0  0  0  0  0  0  0
    5.0408   -1.4835    2.7370 C   0  0  1  0  0  0  0  0  0  0  0  0
    5.4191   -0.1348    2.7323 O   0  0  0  0  0  0  0  0  0  0  0  0
    3.5394   -1.5141    2.9425 C   0  0  2  0  0  0  0  0  0  0  0  0
    3.0596   -2.9326    3.2078 C   0  0  1  0  0  0  0  0  0  0  0  0
    2.0434   -3.1545    2.1555 C   0  0  1  0  0  0  0  0  0  0  0  0
    1.7053   -1.9864    1.4702 O   0  0  0  0  0  0  0  0  0  0  0  0
    2.6044   -0.9491    1.8012 C   0  0  1  0  0  0  0  0  0  0  0  0
    1.6449    0.1630    2.3269 C   0  0  0  0  0  0  0  0  0  0  0  0
    1.0133   -0.1724    3.5355 O   0  0  0  0  0  0  0  0  0  0  0  0
    3.1882   -0.3738    0.4419 C   0  0  0  0  0  0  0  0  0  0  0  0
    3.6355   -1.2076   -0.8677 C   0  0  2  0  0  0  0  0  0  0  0  0
    3.0131   -1.1516   -2.2681 C   0  0  1  0  0  0  0  0  0  0  0  0
    3.5926   -0.3667   -3.2580 O   0  0  0  0  0  0  0  0  0  0  0  0
    3.6029   -2.4522   -2.5667 N   0  0  2  0  0  0  0  0  0  0  0  0
    2.7624   -3.2857   -3.4739 C   0  0  0  0  0  0  0  0  0  0  0  0
    3.5565   -2.7384   -1.1201 C   0  0  1  0  0  0  0  0  0  0  0  0
    4.7159   -3.6036   -0.5196 C   0  0  2  0  0  0  0  0  0  0  0  0
    5.9330   -3.2131   -1.1367 O   0  0  0  0  0  0  0  0  0  0  0  0
    4.6398   -5.1411   -0.6129 C   0  0  0  0  0  0  0  0  0  0  0  0
    5.0835   -5.7491    0.7460 C   0  0  0  0  0  0  0  0  0  0  0  0
    4.3795   -6.8407    1.0169 F   0  0  0  0  0  0  0  0  0  0  0  0
    6.3646   -6.0998    0.6219 F   0  0  0  0  0  0  0  0  0  0  0  0
    4.9435   -4.6572    1.8406 C   0  0  2  0  0  0  0  0  0  0  0  0
    6.0679   -4.7412    2.6588 O   0  0  0  0  0  0  0  0  0  0  0  0
    3.6745   -4.3125    2.6959 C   0  0  1  0  0  0  0  0  0  0  0  0
    2.9965   -5.4398    3.2168 O   0  0  0  0  0  0  0  0  0  0  0  0
    3.5338   -5.8144    4.4768 C   0  0  0  0  0  0  0  0  0  0  0  0
    3.1229   -3.8580    1.3916 C   0  0  2  0  0  0  0  0  0  0  0  0
    4.6283   -3.4140    0.9972 C   0  0  1  0  0  0  0  0  0  0  0  0
    8.7063   -2.0794    0.8709 H   0  0  0  0  0  0  0  0  0  0  0  0
    7.7853   -0.6556    1.4157 H   0  0  0  0  0  0  0  0  0  0  0  0
    7.5014   -1.3664   -0.1696 H   0  0  0  0  0  0  0  0  0  0  0  0
    5.3962   -1.3559    0.6740 H   0  0  0  0  0  0  0  0  0  0  0  0
    5.4960   -2.0014    3.5868 H   0  0  0  0  0  0  0  0  0  0  0  0
    6.3764   -0.0977    2.6980 H   0  0  0  0  0  0  0  0  0  0  0  0
    3.3608   -0.9298    3.8489 H   0  0  0  0  0  0  0  0  0  0  0  0
    2.5555   -3.0516    4.1562 H   0  0  0  0  0  0  0  0  0  0  0  0
    1.2342   -3.8020    2.5099 H   0  0  0  0  0  0  0  0  0  0  0  0
    2.1922    1.0997    2.4486 H   0  0  0  0  0  0  0  0  0  0  0  0
    0.8528    0.3745    1.5974 H   0  0  0  0  0  0  0  0  0  0  0  0
    0.5462   -0.9854    3.3695 H   0  0  0  0  0  0  0  0  0  0  0  0
    2.3234    0.1184    0.0695 H   0  0  0  0  0  0  0  0  0  0  0  0
    3.9348    0.4323    0.6311 H   0  0  0  0  0  0  0  0  0  0  0  0
    4.6328   -0.8697   -1.1241 H   0  0  0  0  0  0  0  0  0  0  0  0
    1.9274   -1.2253   -2.3304 H   0  0  0  0  0  0  0  0  0  0  0  0
    3.1701    0.4829   -3.2387 H   0  0  0  0  0  0  0  0  0  0  0  0
    1.7648   -3.3831   -3.0286 H   0  0  0  0  0  0  0  0  0  0  0  0
    3.2463   -4.2624   -3.5459 H   0  0  0  0  0  0  0  0  0  0  0  0
    2.6249   -2.8065   -4.4610 H   0  0  0  0  0  0  0  0  0  0  0  0
    2.5518   -3.1003   -0.9037 H   0  0  0  0  0  0  0  0  0  0  0  0
    6.2460   -2.4281   -0.6858 H   0  0  0  0  0  0  0  0  0  0  0  0
    3.6007   -5.4487   -0.6792 H   0  0  0  0  0  0  0  0  0  0  0  0
    5.1789   -5.5135   -1.4879 H   0  0  0  0  0  0  0  0  0  0  0  0
    6.8114   -4.6708    2.0734 H   0  0  0  0  0  0  0  0  0  0  0  0
    3.0013   -6.6872    4.8598 H   0  0  0  0  0  0  0  0  0  0  0  0
    3.4346   -5.0137    5.2153 H   0  0  0  0  0  0  0  0  0  0  0  0
    4.5933   -6.0883    4.4064 H   0  0  0  0  0  0  0  0  0  0  0  0
    2.6704   -4.7153    0.8903 H   0  0  0  0  0  0  0  0  0  0  0  0
    4.5458   -2.2730   -2.8865 H   0  0  0  0  0  0  0  0  0  0  0  0
  1  2  1  0
  1 33  1  0
  1 34  1  0
  1 35  1  0
  2  3  1  0
  3 32  1  0
  3  4  1  0
  3 36  1  6
  4  5  1  0
  4  6  1  0
  4 37  1  1
  5 38  1  0
  6 10  1  0
  6  7  1  0
  6 39  1  1
  7 28  1  0
  7  8  1  0
  7 40  1  1
  8 31  1  0
  8  9  1  0
  8 41  1  1
  9 10  1  0
 10 11  1  1
 10 13  1  0
 11 12  1  0
 11 42  1  0
 11 43  1  0
 12 44  1  0
 13 14  1  0
 13 45  1  0
 13 46  1  0
 14 19  1  0
 14 15  1  0
 14 47  1  6
 15 16  1  0
 15 17  1  0
 15 48  1  1
 16 49  1  0
 17 18  1  0
 17 19  1  0
 17 62  1  6
 18 50  1  0
 18 51  1  0
 18 52  1  0
 19 20  1  0
 19 53  1  6
 32 20  1  6
 20 21  1  6
 20 22  1  0
 21 54  1  0
 22 23  1  0
 22 55  1  0
 22 56  1  0
 23 24  1  0
 23 25  1  0
 23 26  1  0
 26 32  1  0
 26 27  1  1
 26 28  1  0
 27 57  1  0
 28 29  1  1
 28 31  1  0
 29 30  1  0
 30 58  1  0
 30 59  1  0
 30 60  1  0
 31 32  1  0
 31 61  1  6
M  CHG  1  17   1
M  END
>  <i_m_ct_stereo_status>  (64) 
1

>  <s_m_source_file>  (64) 
/var/tmp/pbs.5076253.sched01/tmptd9uf136/47e5u2q_zc.sdf

>  <i_m_source_file_index>  (64) 
39

>  <i_lp_mmshare_version>  (64) 
48012

>  <i_f3d_flags>  (64) 
0

>  <s_epik_input>  (64) 
W0NIM11OMVtDQEhdKFtPSF0pW0NASF0oW0NAQEhdMVtDQF0yKFtDQF0zNDUpW09IXSlbQ0gyXVtDQF02KFtDSDJdW09IXSlbQ0BIXShbQ0BIXShbT0hdKVtDQEhdM09bQ0gzXSlbQ0BIXTdbQ0BASF0oTzYpW0NAQEhdNVtDQEBdNyhPW0NIM10pW0NAQF00KFtPSF0pQyhGKShGKVtDSDJdMg==

>  <s_epik_cmdline>  (64) 
J2VwaWtfcHl0aG9uJywgJy1waHQnLCAnMi4wJywgJy1waCcsICc3LjAnLCAnLXRuJywgJzgnLCAnLW1hJywgJzIwMCcsICctaW1hZScsICc8aW5maWxlLm1hZT4nLCAnLW9tYWUnLCAnPG91dGZpbGUubWFlPic=

>  <r_epik_Ionization_Penalty>  (64) 
2.44513

>  <r_epik_Ionization_Penalty_Charging>  (64) 
0.0763188

>  <r_epik_Ionization_Penalty_Neutral>  (64) 
2.36881

>  <r_epik_State_Penalty>  (64) 
2.52524

>  <r_epik_Charging_Adjusted_Penalty>  (64) 
2.60156

>  <i_epik_Tot_Q>  (64) 
1

>  <i_epik_Tot_abs_Q>  (64) 
1

>  <s_epik_Chemistry_Notes>  (64) 
This compound contains an acetal/aminal-like group ( X-CH(R)-Y where X, Y are N, S, or O) that may be acid/base labile, releasing an aldehyde.

>  <s_lp_Force_Field>  (64) 
OPLS3e

>  <r_lp_Energy>  (64) 
137.136

>  <b_lp_Chiralities_Consistent>  (64) 
1

>  <s_lp_Variant>  (64) 
50:0-2

>  <s_i_glide_gridfile>  (64) 
pfpi4k_grid

>  <i_i_glide_lignum>  (64) 
39

>  <i_i_glide_rotatable_bonds>  (64) 
8

>  <r_i_docking_score>  (64) 
-3.00573

>  <r_i_glide_ligand_efficiency>  (64) 
-0.093929

>  <r_i_glide_ligand_efficiency_sa>  (64) 
-0.298206

>  <r_i_glide_ligand_efficiency_ln>  (64) 
-0.673064

>  <r_i_glide_gscore>  (64) 
-3.00573

>  <r_i_glide_lipo>  (64) 
-0.558229

>  <r_i_glide_hbond>  (64) 
-0.160529

>  <r_i_glide_metal>  (64) 
-0

>  <r_i_glide_rewards>  (64) 
-0.465359

>  <r_i_glide_evdw>  (64) 
-10.2298

>  <r_i_glide_ecoul>  (64) 
-8.78391

>  <r_i_glide_erotb>  (64) 
0.0941884

>  <r_i_glide_esite>  (64) 
-0.0867227

>  <r_i_glide_emodel>  (64) 
-17.4024

>  <r_i_glide_energy>  (64) 
-19.0137

>  <r_i_glide_einternal>  (64) 
5.41338

>  <r_i_glide_intrahb_reward>  (64) 
-0

>  <i_i_glide_confnum>  (64) 
4

>  <i_i_glide_posenum>  (64) 
12

>  <r_i_glide_eff_state_penalty>  (64) 
0

>  <ligand_id>  (64) 
50

>  <original_smiles>  (64) 
COC1C(O)C2C3C4OC2(CO)CC2C(O)N(C)C2C2(O)CC(F)(F)C5(O)C3(OC)C4C125

>  <smiles>  (64) 
[H]OC([H])([H])C12OC3([H])C4([H])C1([H])C([H])(O[H])C([H])(OC([H])([H])[H])C15C3([H])C4(OC([H])([H])[H])C1(O[H])C(F)(F)C([H])([H])C5(O[H])C1([H])C([H])(C2([H])[H])C([H])(O[H])[N+]1([H])C([H])([H])[H]

$$$$
50:1:1
     RDKit          3D

 62 68  0  0  1  0  0  0  0  0999 V2000
    7.9163   -2.0301    0.8350 C   0  0  0  0  0  0  0  0  0  0  0  0
    6.9518   -2.8088    1.5413 O   0  0  0  0  0  0  0  0  0  0  0  0
    5.5991   -2.3652    1.5221 C   0  0  2  0  0  0  0  0  0  0  0  0
    5.1582   -1.6985    2.8327 C   0  0  1  0  0  0  0  0  0  0  0  0
    5.5575   -0.3411    2.8667 O   0  0  0  0  0  0  0  0  0  0  0  0
    3.6465   -1.7140    2.9809 C   0  0  2  0  0  0  0  0  0  0  0  0
    3.1330   -3.1278    3.2395 C   0  0  1  0  0  0  0  0  0  0  0  0
    2.1348   -3.3115    2.1547 C   0  0  1  0  0  0  0  0  0  0  0  0
    1.8180   -2.1270    1.4719 O   0  0  0  0  0  0  0  0  0  0  0  0
    2.7398   -1.1190    1.8170 C   0  0  1  0  0  0  0  0  0  0  0  0
    1.8241    0.0254    2.3550 C   0  0  0  0  0  0  0  0  0  0  0  0
    1.1484   -0.3204    3.5468 O   0  0  0  0  0  0  0  0  0  0  0  0
    3.3161   -0.5513    0.4484 C   0  0  0  0  0  0  0  0  0  0  0  0
    3.8393   -1.3791   -0.8224 C   0  0  2  0  0  0  0  0  0  0  0  0
    3.2022   -1.2753   -2.2184 C   0  0  1  0  0  0  0  0  0  0  0  0
    3.8506   -0.4382   -3.1466 O   0  0  0  0  0  0  0  0  0  0  0  0
    3.8183   -2.5726   -2.5315 N   0  0  2  0  0  0  0  0  0  0  0  0
    2.9745   -3.3835   -3.4507 C   0  0  0  0  0  0  0  0  0  0  0  0
    3.7516   -2.9138   -1.0714 C   0  0  1  0  0  0  0  0  0  0  0  0
    4.8779   -3.8240   -0.4438 C   0  0  2  0  0  0  0  0  0  0  0  0
    6.1221   -3.4688   -1.0363 O   0  0  0  0  0  0  0  0  0  0  0  0
    4.7372   -5.3737   -0.5356 C   0  0  0  0  0  0  0  0  0  0  0  0
    5.1562   -5.9772    0.8399 C   0  0  0  0  0  0  0  0  0  0  0  0
    4.4329   -7.0684    1.0921 F   0  0  0  0  0  0  0  0  0  0  0  0
    6.4332   -6.3511    0.7214 F   0  0  0  0  0  0  0  0  0  0  0  0
    5.0213   -4.8836    1.9195 C   0  0  2  0  0  0  0  0  0  0  0  0
    6.1339   -4.9984    2.7880 O   0  0  0  0  0  0  0  0  0  0  0  0
    3.7272   -4.5167    2.7436 C   0  0  1  0  0  0  0  0  0  0  0  0
    3.0304   -5.6485    3.2612 O   0  0  0  0  0  0  0  0  0  0  0  0
    3.5584   -6.0539    4.5174 C   0  0  0  0  0  0  0  0  0  0  0  0
    3.2330   -4.0428    1.4192 C   0  0  2  0  0  0  0  0  0  0  0  0
    4.7551   -3.6259    1.0794 C   0  0  1  0  0  0  0  0  0  0  0  0
    8.8730   -2.5488    0.8702 H   0  0  0  0  0  0  0  0  0  0  0  0
    8.0332   -1.0391    1.2631 H   0  0  0  0  0  0  0  0  0  0  0  0
    7.6955   -1.9249   -0.2222 H   0  0  0  0  0  0  0  0  0  0  0  0
    5.6032   -1.5858    0.7914 H   0  0  0  0  0  0  0  0  0  0  0  0
    5.5872   -2.2151    3.6867 H   0  0  0  0  0  0  0  0  0  0  0  0
    4.9761    0.1405    2.3043 H   0  0  0  0  0  0  0  0  0  0  0  0
    3.4530   -1.1407    3.8926 H   0  0  0  0  0  0  0  0  0  0  0  0
    2.6271   -3.2174    4.1995 H   0  0  0  0  0  0  0  0  0  0  0  0
    1.2880   -3.9308    2.4441 H   0  0  0  0  0  0  0  0  0  0  0  0
    2.4133    0.9268    2.5248 H   0  0  0  0  0  0  0  0  0  0  0  0
    1.0555    0.2975    1.6267 H   0  0  0  0  0  0  0  0  0  0  0  0
    0.6009   -1.0581    3.3375 H   0  0  0  0  0  0  0  0  0  0  0  0
    2.4479   -0.0056    0.1032 H   0  0  0  0  0  0  0  0  0  0  0  0
    4.0104    0.2692    0.6443 H   0  0  0  0  0  0  0  0  0  0  0  0
    4.8901   -1.0665   -0.9942 H   0  0  0  0  0  0  0  0  0  0  0  0
    2.1092   -1.2707   -2.3413 H   0  0  0  0  0  0  0  0  0  0  0  0
    3.3517    0.3838   -3.1659 H   0  0  0  0  0  0  0  0  0  0  0  0
    1.9662   -3.5270   -3.0360 H   0  0  0  0  0  0  0  0  0  0  0  0
    3.5101   -4.3150   -3.5814 H   0  0  0  0  0  0  0  0  0  0  0  0
    2.8891   -2.9079   -4.4427 H   0  0  0  0  0  0  0  0  0  0  0  0
    2.7437   -3.2468   -0.8708 H   0  0  0  0  0  0  0  0  0  0  0  0
    6.1826   -3.8259   -1.9031 H   0  0  0  0  0  0  0  0  0  0  0  0
    3.7055   -5.6827   -0.6690 H   0  0  0  0  0  0  0  0  0  0  0  0
    5.3205   -5.7742   -1.3585 H   0  0  0  0  0  0  0  0  0  0  0  0
    6.8852   -5.1101    2.2259 H   0  0  0  0  0  0  0  0  0  0  0  0
    2.9951   -6.9087    4.8908 H   0  0  0  0  0  0  0  0  0  0  0  0
    3.4886   -5.2568    5.2599 H   0  0  0  0  0  0  0  0  0  0  0  0
    4.6026   -6.3654    4.4422 H   0  0  0  0  0  0  0  0  0  0  0  0
    2.7566   -4.8576    0.8725 H   0  0  0  0  0  0  0  0  0  0  0  0
    4.7598   -2.4541   -2.8392 H   0  0  0  0  0  0  0  0  0  0  0  0
  1  2  1  0
  1 33  1  0
  1 34  1  0
  1 35  1  0
  2  3  1  0
  3 32  1  0
  3  4  1  0
  3 36  1  6
  4  5  1  0
  4  6  1  0
  4 37  1  1
  5 38  1  0
  6 10  1  0
  6  7  1  0
  6 39  1  1
  7 28  1  0
  7  8  1  0
  7 40  1  1
  8 31  1  0
  8  9  1  0
  8 41  1  1
  9 10  1  0
 10 11  1  1
 10 13  1  0
 11 12  1  0
 11 42  1  0
 11 43  1  0
 12 44  1  0
 13 14  1  0
 13 45  1  0
 13 46  1  0
 14 19  1  0
 14 15  1  0
 14 47  1  6
 15 16  1  0
 15 17  1  0
 15 48  1  1
 16 49  1  0
 17 18  1  0
 17 19  1  0
 17 62  1  6
 18 50  1  0
 18 51  1  0
 18 52  1  0
 19 20  1  0
 19 53  1  6
 32 20  1  6
 20 21  1  6
 20 22  1  0
 21 54  1  0
 22 23  1  0
 22 55  1  0
 22 56  1  0
 23 24  1  0
 23 25  1  0
 23 26  1  0
 26 32  1  0
 26 27  1  1
 26 28  1  0
 27 57  1  0
 28 29  1  1
 28 31  1  0
 29 30  1  0
 30 58  1  0
 30 59  1  0
 30 60  1  0
 31 32  1  0
 31 61  1  6
M  CHG  1  17   1
M  END
>  <i_m_ct_stereo_status>  (65) 
1

>  <s_m_source_file>  (65) 
/var/tmp/pbs.5076253.sched01/tmptd9uf136/47e5u2q_zc.sdf

>  <i_m_source_file_index>  (65) 
39

>  <i_lp_mmshare_version>  (65) 
48012

>  <i_f3d_flags>  (65) 
0

>  <s_epik_input>  (65) 
W0NIM11OMVtDQEhdKFtPSF0pW0NASF0oW0NAQEhdMVtDQF0yKFtDQF0zNDUpW09IXSlbQ0gyXVtDQF02KFtDSDJdW09IXSlbQ0BIXShbQ0BIXShbT0hdKVtDQEhdM09bQ0gzXSlbQ0BIXTdbQ0BASF0oTzYpW0NAQEhdNVtDQEBdNyhPW0NIM10pW0NAQF00KFtPSF0pQyhGKShGKVtDSDJdMg==

>  <s_epik_cmdline>  (65) 
J2VwaWtfcHl0aG9uJywgJy1waHQnLCAnMi4wJywgJy1waCcsICc3LjAnLCAnLXRuJywgJzgnLCAnLW1hJywgJzIwMCcsICctaW1hZScsICc8aW5maWxlLm1hZT4nLCAnLW9tYWUnLCAnPG91dGZpbGUubWFlPic=

>  <r_epik_Ionization_Penalty>  (65) 
2.44513

>  <r_epik_Ionization_Penalty_Charging>  (65) 
0.0763188

>  <r_epik_Ionization_Penalty_Neutral>  (65) 
2.36881

>  <r_epik_State_Penalty>  (65) 
2.52524

>  <r_epik_Charging_Adjusted_Penalty>  (65) 
2.60156

>  <i_epik_Tot_Q>  (65) 
1

>  <i_epik_Tot_abs_Q>  (65) 
1

>  <s_epik_Chemistry_Notes>  (65) 
This compound contains an acetal/aminal-like group ( X-CH(R)-Y where X, Y are N, S, or O) that may be acid/base labile, releasing an aldehyde.

>  <s_lp_Force_Field>  (65) 
OPLS3e

>  <r_lp_Energy>  (65) 
137.136

>  <b_lp_Chiralities_Consistent>  (65) 
1

>  <s_lp_Variant>  (65) 
50:0-2

>  <s_i_glide_gridfile>  (65) 
pfpi4k_grid

>  <i_i_glide_lignum>  (65) 
39

>  <i_i_glide_rotatable_bonds>  (65) 
8

>  <r_i_docking_score>  (65) 
-2.84524

>  <r_i_glide_ligand_efficiency>  (65) 
-0.0889138

>  <r_i_glide_ligand_efficiency_sa>  (65) 
-0.282284

>  <r_i_glide_ligand_efficiency_ln>  (65) 
-0.637127

>  <r_i_glide_gscore>  (65) 
-2.84524

>  <r_i_glide_lipo>  (65) 
-0.583911

>  <r_i_glide_hbond>  (65) 
-0.0350622

>  <r_i_glide_metal>  (65) 
-0

>  <r_i_glide_rewards>  (65) 
-0.439919

>  <r_i_glide_evdw>  (65) 
-12.5239

>  <r_i_glide_ecoul>  (65) 
-7.77484

>  <r_i_glide_erotb>  (65) 
0.0941884

>  <r_i_glide_esite>  (65) 
-0.0881181

>  <r_i_glide_emodel>  (65) 
-17.7722

>  <r_i_glide_energy>  (65) 
-20.2987

>  <r_i_glide_einternal>  (65) 
6.19521

>  <r_i_glide_intrahb_reward>  (65) 
-0

>  <i_i_glide_confnum>  (65) 
4

>  <i_i_glide_posenum>  (65) 
24

>  <r_i_glide_eff_state_penalty>  (65) 
0

>  <ligand_id>  (65) 
50

>  <original_smiles>  (65) 
COC1C(O)C2C3C4OC2(CO)CC2C(O)N(C)C2C2(O)CC(F)(F)C5(O)C3(OC)C4C125

>  <smiles>  (65) 
[H]OC([H])([H])C12OC3([H])C4([H])C1([H])C([H])(O[H])C([H])(OC([H])([H])[H])C15C3([H])C4(OC([H])([H])[H])C1(O[H])C(F)(F)C([H])([H])C5(O[H])C1([H])C([H])(C2([H])[H])C([H])(O[H])[N+]1([H])C([H])([H])[H]

$$$$
50:1:2
     RDKit          3D

 62 68  0  0  1  0  0  0  0  0999 V2000
    7.9231   -1.9585    0.7929 C   0  0  0  0  0  0  0  0  0  0  0  0
    6.9451   -2.7135    1.4997 O   0  0  0  0  0  0  0  0  0  0  0  0
    5.5946   -2.2609    1.5148 C   0  0  2  0  0  0  0  0  0  0  0  0
    5.1671   -1.6041    2.8351 C   0  0  1  0  0  0  0  0  0  0  0  0
    5.5530   -0.2469    2.8738 O   0  0  0  0  0  0  0  0  0  0  0  0
    3.6557   -1.6072    2.9977 C   0  0  2  0  0  0  0  0  0  0  0  0
    3.1334   -3.0143    3.2522 C   0  0  1  0  0  0  0  0  0  0  0  0
    2.1360   -3.1932    2.1646 C   0  0  1  0  0  0  0  0  0  0  0  0
    1.8343   -2.0134    1.4736 O   0  0  0  0  0  0  0  0  0  0  0  0
    2.7457   -0.9981    1.8303 C   0  0  1  0  0  0  0  0  0  0  0  0
    1.8276    0.1339    2.3848 C   0  0  0  0  0  0  0  0  0  0  0  0
    1.1718   -0.1814    3.5954 O   0  0  0  0  0  0  0  0  0  0  0  0
    3.3097   -0.4126    0.4592 C   0  0  0  0  0  0  0  0  0  0  0  0
    3.8484   -1.2578   -0.7877 C   0  0  2  0  0  0  0  0  0  0  0  0
    3.2520   -1.1377   -2.1930 C   0  0  1  0  0  0  0  0  0  0  0  0
    3.8801   -0.3230   -3.1549 O   0  0  0  0  0  0  0  0  0  0  0  0
    3.8171   -2.4544   -2.5061 N   0  0  2  0  0  0  0  0  0  0  0  0
    2.9548   -3.2418   -3.4072 C   0  0  0  0  0  0  0  0  0  0  0  0
    3.7252   -2.7878   -1.0635 C   0  0  1  0  0  0  0  0  0  0  0  0
    4.8428   -3.7085   -0.4416 C   0  0  2  0  0  0  0  0  0  0  0  0
    6.0667   -3.4060   -1.0522 O   0  0  0  0  0  0  0  0  0  0  0  0
    4.7238   -5.2554   -0.5465 C   0  0  0  0  0  0  0  0  0  0  0  0
    5.1420   -5.8684    0.8259 C   0  0  0  0  0  0  0  0  0  0  0  0
    4.4212   -6.9552    1.0899 F   0  0  0  0  0  0  0  0  0  0  0  0
    6.4213   -6.2359    0.7102 F   0  0  0  0  0  0  0  0  0  0  0  0
    5.0141   -4.7794    1.9183 C   0  0  2  0  0  0  0  0  0  0  0  0
    6.1323   -4.8880    2.7770 O   0  0  0  0  0  0  0  0  0  0  0  0
    3.7339   -4.4042    2.7513 C   0  0  1  0  0  0  0  0  0  0  0  0
    3.0359   -5.5336    3.2622 O   0  0  0  0  0  0  0  0  0  0  0  0
    3.5710   -5.9537    4.5154 C   0  0  0  0  0  0  0  0  0  0  0  0
    3.2286   -3.9341    1.4329 C   0  0  2  0  0  0  0  0  0  0  0  0
    4.7477   -3.5236    1.0788 C   0  0  1  0  0  0  0  0  0  0  0  0
    8.8742   -2.4747    0.8862 H   0  0  0  0  0  0  0  0  0  0  0  0
    8.0524   -0.9519    1.1789 H   0  0  0  0  0  0  0  0  0  0  0  0
    7.7252   -1.9126   -0.2778 H   0  0  0  0  0  0  0  0  0  0  0  0
    5.6007   -1.4617    0.7990 H   0  0  0  0  0  0  0  0  0  0  0  0
    5.5913   -2.1135    3.7004 H   0  0  0  0  0  0  0  0  0  0  0  0
    5.1782    0.1463    3.6458 H   0  0  0  0  0  0  0  0  0  0  0  0
    3.4584   -1.0396    3.9112 H   0  0  0  0  0  0  0  0  0  0  0  0
    2.6300   -3.1126    4.2118 H   0  0  0  0  0  0  0  0  0  0  0  0
    1.2813   -3.8071    2.4589 H   0  0  0  0  0  0  0  0  0  0  0  0
    2.4196    1.0404    2.5327 H   0  0  0  0  0  0  0  0  0  0  0  0
    1.0512    0.4017    1.6651 H   0  0  0  0  0  0  0  0  0  0  0  0
    0.6372    0.5626    3.8163 H   0  0  0  0  0  0  0  0  0  0  0  0
    2.4824    0.1344    0.0836 H   0  0  0  0  0  0  0  0  0  0  0  0
    4.0308    0.3844    0.6909 H   0  0  0  0  0  0  0  0  0  0  0  0
    4.8673   -0.9454   -0.9764 H   0  0  0  0  0  0  0  0  0  0  0  0
    2.2109   -1.1415   -2.3350 H   0  0  0  0  0  0  0  0  0  0  0  0
    3.3612    0.4785   -3.1620 H   0  0  0  0  0  0  0  0  0  0  0  0
    1.9419   -3.3758   -3.0193 H   0  0  0  0  0  0  0  0  0  0  0  0
    3.4498   -4.2098   -3.3636 H   0  0  0  0  0  0  0  0  0  0  0  0
    2.8945   -2.8214   -4.4265 H   0  0  0  0  0  0  0  0  0  0  0  0
    2.7070   -3.1177   -0.8592 H   0  0  0  0  0  0  0  0  0  0  0  0
    6.3537   -2.5338   -0.7258 H   0  0  0  0  0  0  0  0  0  0  0  0
    3.7003   -5.5595   -0.7126 H   0  0  0  0  0  0  0  0  0  0  0  0
    5.3269   -5.6422   -1.3676 H   0  0  0  0  0  0  0  0  0  0  0  0
    6.8785   -5.0342    2.2219 H   0  0  0  0  0  0  0  0  0  0  0  0
    3.0078   -6.8075    4.8941 H   0  0  0  0  0  0  0  0  0  0  0  0
    3.5143   -5.1577    5.2636 H   0  0  0  0  0  0  0  0  0  0  0  0
    4.6140   -6.2699    4.4299 H   0  0  0  0  0  0  0  0  0  0  0  0
    2.7610   -4.7429    0.8773 H   0  0  0  0  0  0  0  0  0  0  0  0
    4.7623   -2.3827   -2.8053 H   0  0  0  0  0  0  0  0  0  0  0  0
  1  2  1  0
  1 33  1  0
  1 34  1  0
  1 35  1  0
  2  3  1  0
  3 32  1  0
  3  4  1  0
  3 36  1  6
  4  5  1  0
  4  6  1  0
  4 37  1  1
  5 38  1  0
  6 10  1  0
  6  7  1  0
  6 39  1  1
  7 28  1  0
  7  8  1  0
  7 40  1  1
  8 31  1  0
  8  9  1  0
  8 41  1  1
  9 10  1  0
 10 11  1  1
 10 13  1  0
 11 12  1  0
 11 42  1  0
 11 43  1  0
 12 44  1  0
 13 14  1  0
 13 45  1  0
 13 46  1  0
 14 19  1  0
 14 15  1  0
 14 47  1  6
 15 16  1  0
 15 17  1  0
 15 48  1  1
 16 49  1  0
 17 18  1  0
 17 19  1  0
 17 62  1  6
 18 50  1  0
 18 51  1  0
 18 52  1  0
 19 20  1  0
 19 53  1  6
 32 20  1  6
 20 21  1  6
 20 22  1  0
 21 54  1  0
 22 23  1  0
 22 55  1  0
 22 56  1  0
 23 24  1  0
 23 25  1  0
 23 26  1  0
 26 32  1  0
 26 27  1  1
 26 28  1  0
 27 57  1  0
 28 29  1  1
 28 31  1  0
 29 30  1  0
 30 58  1  0
 30 59  1  0
 30 60  1  0
 31 32  1  0
 31 61  1  6
M  CHG  1  17   1
M  END
>  <i_m_ct_stereo_status>  (66) 
1

>  <s_m_source_file>  (66) 
/var/tmp/pbs.5076253.sched01/tmptd9uf136/47e5u2q_zc.sdf

>  <i_m_source_file_index>  (66) 
39

>  <i_lp_mmshare_version>  (66) 
48012

>  <i_f3d_flags>  (66) 
0

>  <s_epik_input>  (66) 
W0NIM11OMVtDQEhdKFtPSF0pW0NASF0oW0NAQEhdMVtDQF0yKFtDQF0zNDUpW09IXSlbQ0gyXVtDQF02KFtDSDJdW09IXSlbQ0BIXShbQ0BIXShbT0hdKVtDQEhdM09bQ0gzXSlbQ0BIXTdbQ0BASF0oTzYpW0NAQEhdNVtDQEBdNyhPW0NIM10pW0NAQF00KFtPSF0pQyhGKShGKVtDSDJdMg==

>  <s_epik_cmdline>  (66) 
J2VwaWtfcHl0aG9uJywgJy1waHQnLCAnMi4wJywgJy1waCcsICc3LjAnLCAnLXRuJywgJzgnLCAnLW1hJywgJzIwMCcsICctaW1hZScsICc8aW5maWxlLm1hZT4nLCAnLW9tYWUnLCAnPG91dGZpbGUubWFlPic=

>  <r_epik_Ionization_Penalty>  (66) 
2.44513

>  <r_epik_Ionization_Penalty_Charging>  (66) 
0.0763188

>  <r_epik_Ionization_Penalty_Neutral>  (66) 
2.36881

>  <r_epik_State_Penalty>  (66) 
2.52524

>  <r_epik_Charging_Adjusted_Penalty>  (66) 
2.60156

>  <i_epik_Tot_Q>  (66) 
1

>  <i_epik_Tot_abs_Q>  (66) 
1

>  <s_epik_Chemistry_Notes>  (66) 
This compound contains an acetal/aminal-like group ( X-CH(R)-Y where X, Y are N, S, or O) that may be acid/base labile, releasing an aldehyde.

>  <s_lp_Force_Field>  (66) 
OPLS3e

>  <r_lp_Energy>  (66) 
137.136

>  <b_lp_Chiralities_Consistent>  (66) 
1

>  <s_lp_Variant>  (66) 
50:0-2

>  <s_i_glide_gridfile>  (66) 
pfpi4k_grid

>  <i_i_glide_lignum>  (66) 
39

>  <i_i_glide_rotatable_bonds>  (66) 
8

>  <r_i_docking_score>  (66) 
-2.68053

>  <r_i_glide_ligand_efficiency>  (66) 
-0.0837666

>  <r_i_glide_ligand_efficiency_sa>  (66) 
-0.265942

>  <r_i_glide_ligand_efficiency_ln>  (66) 
-0.600244

>  <r_i_glide_gscore>  (66) 
-2.68053

>  <r_i_glide_lipo>  (66) 
-0.572425

>  <r_i_glide_hbond>  (66) 
-0.0948246

>  <r_i_glide_metal>  (66) 
-0

>  <r_i_glide_rewards>  (66) 
-0.45046

>  <r_i_glide_evdw>  (66) 
-13.8684

>  <r_i_glide_ecoul>  (66) 
-5.91882

>  <r_i_glide_erotb>  (66) 
0.0941884

>  <r_i_glide_esite>  (66) 
-0.075766

>  <r_i_glide_emodel>  (66) 
-17.1174

>  <r_i_glide_energy>  (66) 
-19.7873

>  <r_i_glide_einternal>  (66) 
7.09398

>  <r_i_glide_intrahb_reward>  (66) 
-0

>  <i_i_glide_confnum>  (66) 
4

>  <i_i_glide_posenum>  (66) 
25

>  <r_i_glide_eff_state_penalty>  (66) 
0

>  <ligand_id>  (66) 
50

>  <original_smiles>  (66) 
COC1C(O)C2C3C4OC2(CO)CC2C(O)N(C)C2C2(O)CC(F)(F)C5(O)C3(OC)C4C125

>  <smiles>  (66) 
[H]OC([H])([H])C12OC3([H])C4([H])C1([H])C([H])(O[H])C([H])(OC([H])([H])[H])C15C3([H])C4(OC([H])([H])[H])C1(O[H])C(F)(F)C([H])([H])C5(O[H])C1([H])C([H])(C2([H])[H])C([H])(O[H])[N+]1([H])C([H])([H])[H]

$$$$
52:1:0
     RDKit          3D

 82 94  0  0  1  0  0  0  0  0999 V2000
    0.9533  -10.9593    5.0571 C   0  0  0  0  0  0  0  0  0  0  0  0
    2.0925   -9.9270    5.0070 C   0  0  1  0  0  0  0  0  0  0  0  0
    1.5373   -8.6350    4.7776 O   0  0  0  0  0  0  0  0  0  0  0  0
    0.5794   -8.1160    5.6679 C   0  0  2  0  0  0  0  0  0  0  0  0
    0.2667   -6.7418    5.5592 O   0  0  0  0  0  0  0  0  0  0  0  0
    1.3399   -7.0672    6.4158 C   0  0  2  0  0  0  0  0  0  0  0  0
    1.2287   -6.0775    7.5768 C   0  0  2  0  0  0  0  0  0  0  0  0
    2.3500   -5.0606    7.7947 C   0  0  0  0  0  0  0  0  0  0  0  0
    2.0360   -3.5866    7.9791 C   0  0  0  0  0  0  0  0  0  0  0  0
    0.8422   -2.9803    8.1375 C   0  0  0  0  0  0  0  0  0  0  0  0
    1.0564   -1.5703    8.4382 C   0  0  0  0  0  0  0  0  0  0  0  0
    0.1703   -0.7381    8.6308 O   0  0  0  0  0  0  0  0  0  0  0  0
    2.5441   -1.2839    8.4912 C   0  0  1  0  0  0  0  0  0  0  0  0
    3.4354   -2.0140    9.4783 C   0  0  0  0  0  0  0  0  0  0  0  0
    3.1678   -2.6107    8.1128 C   0  0  1  0  0  0  0  0  0  0  0  0
    4.2238   -2.6093    6.9999 C   0  0  1  0  0  0  0  0  0  0  0  0
    5.3281   -3.6585    7.0916 C   0  0  0  0  0  0  0  0  0  0  0  0
    5.7416   -3.8193    5.6316 C   0  0  0  0  0  0  0  0  0  0  0  0
    4.4497   -3.5585    4.8520 C   0  0  1  0  0  0  0  0  0  0  0  0
    4.6678   -2.8518    3.6858 O   0  0  0  0  0  0  0  0  0  0  0  0
    3.4216   -2.9922    3.0113 C   0  0  2  0  0  0  0  0  0  0  0  0
    2.9191   -4.3592    3.4554 C   0  0  2  0  0  0  0  0  0  0  0  0
    3.9038   -4.7529    4.4077 O   0  0  0  0  0  0  0  0  0  0  0  0
    2.9593   -4.8055    1.9991 C   0  0  1  0  0  0  0  0  0  0  0  0
    2.2126   -4.0310    1.0377 O   0  0  0  0  0  0  0  0  0  0  0  0
    3.4296   -3.4467    1.5622 C   0  0  1  0  0  0  0  0  0  0  0  0
    3.3215   -6.2244    1.5584 C   0  0  1  0  0  0  0  0  0  0  0  0
    4.7927   -6.5982    1.4222 C   0  0  0  0  0  0  0  0  0  0  0  0
    4.6696   -8.1073    1.3997 C   0  0  1  0  0  0  0  0  0  0  0  0
    5.8921   -8.7858    1.6188 O   0  0  0  0  0  0  0  0  0  0  0  0
    3.6097   -8.3101    2.4896 C   0  0  2  0  0  0  0  0  0  0  0  0
    4.2319   -8.1804    3.7359 O   0  0  0  0  0  0  0  0  0  0  0  0
    4.3375   -9.4188    4.3517 C   0  0  1  0  0  0  0  0  0  0  0  0
    4.2208   -9.3170    5.7501 O   0  0  0  0  0  0  0  0  0  0  0  0
    3.1117  -10.0582    6.1985 C   0  0  2  0  0  0  0  0  0  0  0  0
    3.4726  -11.4297    6.2797 O   0  0  0  0  0  0  0  0  0  0  0  0
    2.7602   -9.6769    7.6865 C   0  0  0  0  0  0  0  0  0  0  0  0
    2.7107   -8.2026    8.1657 C   0  0  1  0  0  0  0  0  0  0  0  0
    3.8538   -7.5199    7.7120 O   0  0  0  0  0  0  0  0  0  0  0  0
    1.4025   -7.5096    7.8526 C   0  0  2  0  0  0  0  0  0  0  0  0
    0.2262   -8.1990    8.5369 C   0  0  0  0  0  0  0  0  0  0  0  0
    3.1128  -10.1843    3.8786 C   0  0  2  0  0  0  0  0  0  0  0  0
    2.8836   -9.6779    2.4713 C   0  0  1  0  0  0  0  0  0  0  0  0
    1.5171   -9.6480    2.1298 O   0  0  0  0  0  0  0  0  0  0  0  0
    2.7069   -7.2538    2.3273 O   0  0  0  0  0  0  0  0  0  0  0  0
    3.6091   -2.8515    5.7372 O   0  0  0  0  0  0  0  0  0  0  0  0
    1.3395  -11.9715    5.0199 H   0  0  0  0  0  0  0  0  0  0  0  0
    0.2441  -10.8481    4.2372 H   0  0  0  0  0  0  0  0  0  0  0  0
    0.3998  -10.8710    5.9854 H   0  0  0  0  0  0  0  0  0  0  0  0
   -0.2321   -8.7096    6.0639 H   0  0  0  0  0  0  0  0  0  0  0  0
    0.2277   -5.7337    7.8099 H   0  0  0  0  0  0  0  0  0  0  0  0
    2.8769   -5.3650    8.6968 H   0  0  0  0  0  0  0  0  0  0  0  0
    3.0027   -5.1338    6.9401 H   0  0  0  0  0  0  0  0  0  0  0  0
   -0.1014   -3.4804    8.1515 H   0  0  0  0  0  0  0  0  0  0  0  0
    2.9314   -0.4047    7.9771 H   0  0  0  0  0  0  0  0  0  0  0  0
    4.4144   -1.5777    9.6741 H   0  0  0  0  0  0  0  0  0  0  0  0
    2.9456   -2.4673   10.3427 H   0  0  0  0  0  0  0  0  0  0  0  0
    4.6876   -1.6322    6.9665 H   0  0  0  0  0  0  0  0  0  0  0  0
    6.1773   -3.3161    7.6852 H   0  0  0  0  0  0  0  0  0  0  0  0
    4.9941   -4.6153    7.5040 H   0  0  0  0  0  0  0  0  0  0  0  0
    6.4795   -3.0641    5.3679 H   0  0  0  0  0  0  0  0  0  0  0  0
    6.1273   -4.8043    5.3906 H   0  0  0  0  0  0  0  0  0  0  0  0
    2.7170   -2.2221    3.2818 H   0  0  0  0  0  0  0  0  0  0  0  0
    1.9466   -4.2936    3.9068 H   0  0  0  0  0  0  0  0  0  0  0  0
    4.3208   -3.2588    0.9426 H   0  0  0  0  0  0  0  0  0  0  0  0
    2.9060   -6.3094    0.5681 H   0  0  0  0  0  0  0  0  0  0  0  0
    5.2356   -6.2407    0.4911 H   0  0  0  0  0  0  0  0  0  0  0  0
    5.3996   -6.2562    2.2708 H   0  0  0  0  0  0  0  0  0  0  0  0
    4.2514   -8.4566    0.4522 H   0  0  0  0  0  0  0  0  0  0  0  0
    5.7185   -9.7179    1.6614 H   0  0  0  0  0  0  0  0  0  0  0  0
    5.2720   -9.9141    4.0704 H   0  0  0  0  0  0  0  0  0  0  0  0
    2.7696  -11.8828    6.7490 H   0  0  0  0  0  0  0  0  0  0  0  0
    1.8623  -10.2026    7.9838 H   0  0  0  0  0  0  0  0  0  0  0  0
    3.5492  -10.1268    8.2895 H   0  0  0  0  0  0  0  0  0  0  0  0
    2.7449   -8.2082    9.2498 H   0  0  0  0  0  0  0  0  0  0  0  0
    3.9017   -7.6704    6.7756 H   0  0  0  0  0  0  0  0  0  0  0  0
    0.3993   -8.2258    9.6067 H   0  0  0  0  0  0  0  0  0  0  0  0
    0.0545   -9.2201    8.1844 H   0  0  0  0  0  0  0  0  0  0  0  0
   -0.7075   -7.6496    8.3748 H   0  0  0  0  0  0  0  0  0  0  0  0
    3.3408  -11.2434    3.8371 H   0  0  0  0  0  0  0  0  0  0  0  0
    3.3937  -10.3213    1.7563 H   0  0  0  0  0  0  0  0  0  0  0  0
    1.0611   -9.1605    2.8040 H   0  0  0  0  0  0  0  0  0  0  0  0
  2  1  1  1
  1 47  1  0
  1 48  1  0
  1 49  1  0
  2 35  1  0
  2 42  1  0
  2  3  1  0
  3  4  1  0
  4  6  1  0
  4  5  1  0
  4 50  1  1
  6  5  1  1
  6 40  1  0
  6  7  1  0
  7 40  1  0
  7  8  1  0
  7 51  1  1
  8  9  1  0
  8 52  1  0
  8 53  1  0
  9 15  1  0
  9 10  2  0
 10 11  1  0
 10 54  1  0
 11 12  2  0
 11 13  1  0
 13 15  1  0
 13 14  1  0
 13 55  1  6
 15 14  1  1
 14 56  1  0
 14 57  1  0
 15 16  1  0
 16 46  1  0
 16 17  1  0
 16 58  1  6
 17 18  1  0
 17 59  1  0
 17 60  1  0
 18 19  1  0
 18 61  1  0
 18 62  1  0
 19 23  1  0
 19 20  1  6
 19 46  1  0
 20 21  1  0
 21 26  1  0
 21 22  1  0
 21 63  1  6
 22 23  1  0
 22 24  1  0
 22 64  1  1
 24 26  1  0
 24 25  1  6
 24 27  1  0
 25 26  1  0
 26 65  1  6
 27 45  1  0
 27 28  1  0
 27 66  1  6
 28 29  1  0
 28 67  1  0
 28 68  1  0
 29 30  1  0
 29 31  1  0
 29 69  1  6
 30 70  1  0
 31 43  1  0
 31 32  1  1
 31 45  1  0
 32 33  1  0
 33 34  1  0
 33 42  1  0
 33 71  1  1
 34 35  1  0
 35 36  1  1
 35 37  1  0
 36 72  1  0
 37 38  1  0
 37 73  1  0
 37 74  1  0
 38 39  1  0
 38 40  1  0
 38 75  1  1
 39 76  1  0
 40 41  1  1
 41 77  1  0
 41 78  1  0
 41 79  1  0
 42 43  1  0
 42 80  1  6
 43 44  1  0
 43 81  1  6
 44 82  1  0
M  END
>  <i_m_ct_stereo_status>  (67) 
1

>  <s_m_source_file>  (67) 
/var/tmp/pbs.5076253.sched01/tmptd9uf136/47e5u2q_zc.sdf

>  <i_m_source_file_index>  (67) 
42

>  <i_lp_mmshare_version>  (67) 
48012

>  <i_f3d_flags>  (67) 
0

>  <s_epik_input>  (67) 
TzFbQ0BIXShDMTIzKU9bQ0BdNChbQ0gzXSlbQ0BAXTUoW09IXSlPW0NASF02W0NAQEhdNFtDQEBIXShbT0hdKVtDQEBdNyhPNilbQ0BIXShbT0hdKVtDSDJdW0NAQEhdKE83KVtDQF04OVtDQEBIXTFbQ0BIXShbQ0BASF05TzgpT1tDQEBdNChPMSlbQ0gyXVtDSDJdW0NAQEhdKE80KVtDQF0xNEMoPVtDSF1DKD1PKVtDQEhdMVtDSDJdNClbQ0gyXVtDQEBIXTJbQ0BdMyhbQ0gzXSlbQ0BASF0oW0NIMl01KVtPSF0=

>  <s_epik_cmdline>  (67) 
J2VwaWtfcHl0aG9uJywgJy1waHQnLCAnMi4wJywgJy1waCcsICc3LjAnLCAnLXRuJywgJzgnLCAnLW1hJywgJzIwMCcsICctaW1hZScsICc8aW5maWxlLm1hZT4nLCAnLW9tYWUnLCAnPG91dGZpbGUubWFlPic=

>  <r_lp_tautomer_probability>  (67) 
1

>  <r_epik_Ionization_Penalty>  (67) 
1.46132e-05

>  <r_epik_Ionization_Penalty_Charging>  (67) 
0

>  <r_epik_Ionization_Penalty_Neutral>  (67) 
1.46132e-05

>  <r_epik_State_Penalty>  (67) 
-0

>  <r_epik_Charging_Adjusted_Penalty>  (67) 
0

>  <i_epik_Tot_Q>  (67) 
0

>  <i_epik_Tot_abs_Q>  (67) 
0

>  <s_epik_Chemistry_Notes>  (67) 
This compound contains an acetal/aminal-like group ( X-CH(R)-Y where X, Y are N, S, or O) that may be acid/base labile, releasing an aldehyde.

>  <s_lp_Force_Field>  (67) 
OPLS3e

>  <r_lp_Energy>  (67) 
55.8862

>  <b_lp_Chiralities_Consistent>  (67) 
1

>  <s_lp_Variant>  (67) 
52:0-2

>  <s_i_glide_gridfile>  (67) 
pfpi4k_grid

>  <i_i_glide_lignum>  (67) 
42

>  <i_i_glide_rotatable_bonds>  (67) 
4

>  <r_i_docking_score>  (67) 
-3.40451

>  <r_i_glide_ligand_efficiency>  (67) 
-0.074011

>  <r_i_glide_ligand_efficiency_sa>  (67) 
-0.265185

>  <r_i_glide_ligand_efficiency_ln>  (67) 
-0.705065

>  <r_i_glide_gscore>  (67) 
-3.40451

>  <r_i_glide_lipo>  (67) 
-0.161483

>  <r_i_glide_hbond>  (67) 
-0.0208619

>  <r_i_glide_metal>  (67) 
-0

>  <r_i_glide_rewards>  (67) 
-1.01011

>  <r_i_glide_evdw>  (67) 
-24.545

>  <r_i_glide_ecoul>  (67) 
-5.87015

>  <r_i_glide_erotb>  (67) 
0

>  <r_i_glide_esite>  (67) 
-0.104283

>  <r_i_glide_emodel>  (67) 
-47.2626

>  <r_i_glide_energy>  (67) 
-30.4151

>  <r_i_glide_einternal>  (67) 
2.18151

>  <r_i_glide_intrahb_reward>  (67) 
-1

>  <i_i_glide_confnum>  (67) 
2

>  <i_i_glide_posenum>  (67) 
7

>  <r_i_glide_eff_state_penalty>  (67) 
0

>  <ligand_id>  (67) 
52

>  <original_smiles>  (67) 
CC12OC3OC34C3CC5=CC(=O)C6CC56C5CCC6(OC7C(O6)C6(OC76)C6CC(O)C7(OC(OC1(O)CC(O)C34C)C2C7O)O6)O5

>  <smiles>  (67) 
[H]OC1([H])C([H])([H])C2([H])OC13OC1([H])OC4(O[H])C([H])([H])C([H])(O[H])C5(C([H])([H])[H])C([H])(C([H])([H])C6=C([H])C(=O)C7([H])C([H])([H])C67C6([H])OC7(OC8([H])C([H])(O7)C27OC87[H])C([H])([H])C6([H])[H])C52OC2([H])OC4(C([H])([H])[H])C1([H])C3([H])O[H]

$$$$
52:1:1
     RDKit          3D

 82 94  0  0  1  0  0  0  0  0999 V2000
    3.1067  -11.1527    3.2412 C   0  0  0  0  0  0  0  0  0  0  0  0
    3.9253   -9.9578    3.7459 C   0  0  1  0  0  0  0  0  0  0  0  0
    3.3293   -8.7395    3.2890 O   0  0  0  0  0  0  0  0  0  0  0  0
    1.9744   -8.4727    3.5708 C   0  0  2  0  0  0  0  0  0  0  0  0
    1.5053   -7.1455    3.3194 O   0  0  0  0  0  0  0  0  0  0  0  0
    2.0688   -7.3833    4.6233 C   0  0  2  0  0  0  0  0  0  0  0  0
    1.2159   -6.5549    5.5800 C   0  0  2  0  0  0  0  0  0  0  0  0
    1.8961   -5.3947    6.3152 C   0  0  0  0  0  0  0  0  0  0  0  0
    1.2669   -4.0086    6.3357 C   0  0  0  0  0  0  0  0  0  0  0  0
    0.0589   -3.6270    5.8867 C   0  0  0  0  0  0  0  0  0  0  0  0
   -0.1838   -2.2252    6.2659 C   0  0  0  0  0  0  0  0  0  0  0  0
   -1.2027   -1.5892    6.0473 O   0  0  0  0  0  0  0  0  0  0  0  0
    1.0209   -1.7186    7.0317 C   0  0  1  0  0  0  0  0  0  0  0  0
    1.4381   -2.3855    8.3314 C   0  0  0  0  0  0  0  0  0  0  0  0
    1.9851   -2.8886    7.0147 C   0  0  1  0  0  0  0  0  0  0  0  0
    3.4202   -2.6038    6.5628 C   0  0  1  0  0  0  0  0  0  0  0  0
    4.5311   -3.4610    7.1649 C   0  0  0  0  0  0  0  0  0  0  0  0
    5.6050   -3.3989    6.0768 C   0  0  0  0  0  0  0  0  0  0  0  0
    4.7997   -3.2857    4.7765 C   0  0  1  0  0  0  0  0  0  0  0  0
    5.3726   -2.4162    3.8700 O   0  0  0  0  0  0  0  0  0  0  0  0
    4.6680   -2.7173    2.6646 C   0  0  2  0  0  0  0  0  0  0  0  0
    4.3086   -4.1909    2.8030 C   0  0  2  0  0  0  0  0  0  0  0  0
    4.7911   -4.4990    4.1011 O   0  0  0  0  0  0  0  0  0  0  0  0
    5.1352   -4.4768    1.5521 C   0  0  1  0  0  0  0  0  0  0  0  0
    4.8297   -3.7268    0.3686 O   0  0  0  0  0  0  0  0  0  0  0  0
    5.4838   -3.0200    1.4217 C   0  0  1  0  0  0  0  0  0  0  0  0
    5.9452   -5.7583    1.3255 C   0  0  1  0  0  0  0  0  0  0  0  0
    7.3421   -5.8693    1.9384 C   0  0  0  0  0  0  0  0  0  0  0  0
    7.5407   -7.3703    1.8625 C   0  0  1  0  0  0  0  0  0  0  0  0
    8.6128   -7.8439    2.6752 O   0  0  0  0  0  0  0  0  0  0  0  0
    6.1476   -7.8547    2.2897 C   0  0  2  0  0  0  0  0  0  0  0  0
    6.0407   -7.7555    3.6805 O   0  0  0  0  0  0  0  0  0  0  0  0
    6.0718   -9.0207    4.2561 C   0  0  1  0  0  0  0  0  0  0  0  0
    5.2933   -9.0906    5.4313 O   0  0  0  0  0  0  0  0  0  0  0  0
    4.2667  -10.0261    5.2741 C   0  0  2  0  0  0  0  0  0  0  0  0
    4.7936  -11.3344    5.5105 O   0  0  0  0  0  0  0  0  0  0  0  0
    3.1643   -9.8759    6.3943 C   0  0  0  0  0  0  0  0  0  0  0  0
    2.5909   -8.4817    6.7983 C   0  0  1  0  0  0  0  0  0  0  0  0
    3.6290   -7.5545    7.0027 O   0  0  0  0  0  0  0  0  0  0  0  0
    1.4928   -7.9664    5.8769 C   0  0  2  0  0  0  0  0  0  0  0  0
    0.2831   -8.8920    5.8762 C   0  0  0  0  0  0  0  0  0  0  0  0
    5.3830   -9.9163    3.2380 C   0  0  2  0  0  0  0  0  0  0  0  0
    5.7724   -9.3081    1.9004 C   0  0  1  0  0  0  0  0  0  0  0  0
    4.7953   -9.4355    0.8773 O   0  0  0  0  0  0  0  0  0  0  0  0
    5.2548   -6.9379    1.7155 O   0  0  0  0  0  0  0  0  0  0  0  0
    3.5136   -2.8608    5.1644 O   0  0  0  0  0  0  0  0  0  0  0  0
    3.6471  -12.0857    3.3706 H   0  0  0  0  0  0  0  0  0  0  0  0
    2.8861  -11.0587    2.1788 H   0  0  0  0  0  0  0  0  0  0  0  0
    2.1663  -11.2523    3.7764 H   0  0  0  0  0  0  0  0  0  0  0  0
    1.2092   -9.2086    3.5169 H   0  0  0  0  0  0  0  0  0  0  0  0
    0.1933   -6.3898    5.2870 H   0  0  0  0  0  0  0  0  0  0  0  0
    1.9732   -5.6912    7.3601 H   0  0  0  0  0  0  0  0  0  0  0  0
    2.8859   -5.2813    5.8859 H   0  0  0  0  0  0  0  0  0  0  0  0
   -0.6483   -4.2740    5.4303 H   0  0  0  0  0  0  0  0  0  0  0  0
    1.4307   -0.7348    6.7793 H   0  0  0  0  0  0  0  0  0  0  0  0
    2.1008   -1.8273    8.9856 H   0  0  0  0  0  0  0  0  0  0  0  0
    0.6935   -3.0024    8.8410 H   0  0  0  0  0  0  0  0  0  0  0  0
    3.6509   -1.5602    6.7536 H   0  0  0  0  0  0  0  0  0  0  0  0
    4.9030   -3.0534    8.1062 H   0  0  0  0  0  0  0  0  0  0  0  0
    4.2264   -4.4952    7.3490 H   0  0  0  0  0  0  0  0  0  0  0  0
    6.2395   -2.5218    6.2054 H   0  0  0  0  0  0  0  0  0  0  0  0
    6.2304   -4.2862    6.0565 H   0  0  0  0  0  0  0  0  0  0  0  0
    3.7799   -2.1001    2.5445 H   0  0  0  0  0  0  0  0  0  0  0  0
    3.2372   -4.3448    2.7341 H   0  0  0  0  0  0  0  0  0  0  0  0
    6.5093   -2.6506    1.3075 H   0  0  0  0  0  0  0  0  0  0  0  0
    6.0733   -5.8262    0.2564 H   0  0  0  0  0  0  0  0  0  0  0  0
    8.0987   -5.3524    1.3518 H   0  0  0  0  0  0  0  0  0  0  0  0
    7.3792   -5.5209    2.9754 H   0  0  0  0  0  0  0  0  0  0  0  0
    7.7202   -7.7070    0.8423 H   0  0  0  0  0  0  0  0  0  0  0  0
    9.4173   -7.8582    2.1822 H   0  0  0  0  0  0  0  0  0  0  0  0
    7.1079   -9.3239    4.4421 H   0  0  0  0  0  0  0  0  0  0  0  0
    4.0843  -11.8799    5.7941 H   0  0  0  0  0  0  0  0  0  0  0  0
    2.3795  -10.6095    6.2022 H   0  0  0  0  0  0  0  0  0  0  0  0
    3.6345  -10.2400    7.3049 H   0  0  0  0  0  0  0  0  0  0  0  0
    2.0999   -8.5998    7.7635 H   0  0  0  0  0  0  0  0  0  0  0  0
    4.2470   -7.9365    7.6067 H   0  0  0  0  0  0  0  0  0  0  0  0
   -0.0881   -8.9878    6.8888 H   0  0  0  0  0  0  0  0  0  0  0  0
    0.5148   -9.8915    5.5025 H   0  0  0  0  0  0  0  0  0  0  0  0
   -0.5256   -8.4993    5.2429 H   0  0  0  0  0  0  0  0  0  0  0  0
    5.8034  -10.9157    3.2990 H   0  0  0  0  0  0  0  0  0  0  0  0
    6.6768   -9.7965    1.5418 H   0  0  0  0  0  0  0  0  0  0  0  0
    4.5986  -10.3805    0.7493 H   0  0  0  0  0  0  0  0  0  0  0  0
  2  1  1  6
  1 47  1  0
  1 48  1  0
  1 49  1  0
  2 35  1  0
  2 42  1  0
  2  3  1  0
  3  4  1  0
  4  6  1  0
  4  5  1  0
  4 50  1  1
  6  5  1  6
  6 40  1  0
  6  7  1  0
  7 40  1  0
  7  8  1  0
  7 51  1  6
  8  9  1  0
  8 52  1  0
  8 53  1  0
  9 15  1  0
  9 10  2  0
 10 11  1  0
 10 54  1  0
 11 12  2  0
 11 13  1  0
 13 15  1  0
 13 14  1  0
 13 55  1  1
 15 14  1  1
 14 56  1  0
 14 57  1  0
 15 16  1  0
 16 46  1  0
 16 17  1  0
 16 58  1  6
 17 18  1  0
 17 59  1  0
 17 60  1  0
 18 19  1  0
 18 61  1  0
 18 62  1  0
 19 23  1  0
 19 20  1  6
 19 46  1  0
 20 21  1  0
 21 26  1  0
 21 22  1  0
 21 63  1  6
 22 23  1  0
 22 24  1  0
 22 64  1  6
 24 26  1  0
 24 25  1  6
 24 27  1  0
 25 26  1  0
 26 65  1  6
 27 45  1  0
 27 28  1  0
 27 66  1  6
 28 29  1  0
 28 67  1  0
 28 68  1  0
 29 30  1  0
 29 31  1  0
 29 69  1  6
 30 70  1  0
 31 43  1  0
 31 32  1  1
 31 45  1  0
 32 33  1  0
 33 34  1  0
 33 42  1  0
 33 71  1  1
 34 35  1  0
 35 36  1  6
 35 37  1  0
 36 72  1  0
 37 38  1  0
 37 73  1  0
 37 74  1  0
 38 39  1  0
 38 40  1  0
 38 75  1  1
 39 76  1  0
 40 41  1  6
 41 77  1  0
 41 78  1  0
 41 79  1  0
 42 43  1  0
 42 80  1  6
 43 44  1  0
 43 81  1  6
 44 82  1  0
M  END
>  <i_m_ct_stereo_status>  (68) 
1

>  <s_m_source_file>  (68) 
/var/tmp/pbs.5076253.sched01/tmptd9uf136/47e5u2q_zc.sdf

>  <i_m_source_file_index>  (68) 
42

>  <i_lp_mmshare_version>  (68) 
48012

>  <i_f3d_flags>  (68) 
0

>  <s_epik_input>  (68) 
TzFbQ0BIXShDMTIzKU9bQ0BdNChbQ0gzXSlbQ0BAXTUoW09IXSlPW0NASF02W0NAQEhdNFtDQEBIXShbT0hdKVtDQEBdNyhPNilbQ0BIXShbT0hdKVtDSDJdW0NAQEhdKE83KVtDQF04OVtDQEBIXTFbQ0BIXShbQ0BASF05TzgpT1tDQEBdNChPMSlbQ0gyXVtDSDJdW0NAQEhdKE80KVtDQF0xNEMoPVtDSF1DKD1PKVtDQEhdMVtDSDJdNClbQ0gyXVtDQEBIXTJbQ0BdMyhbQ0gzXSlbQ0BASF0oW0NIMl01KVtPSF0=

>  <s_epik_cmdline>  (68) 
J2VwaWtfcHl0aG9uJywgJy1waHQnLCAnMi4wJywgJy1waCcsICc3LjAnLCAnLXRuJywgJzgnLCAnLW1hJywgJzIwMCcsICctaW1hZScsICc8aW5maWxlLm1hZT4nLCAnLW9tYWUnLCAnPG91dGZpbGUubWFlPic=

>  <r_lp_tautomer_probability>  (68) 
1

>  <r_epik_Ionization_Penalty>  (68) 
1.46132e-05

>  <r_epik_Ionization_Penalty_Charging>  (68) 
0

>  <r_epik_Ionization_Penalty_Neutral>  (68) 
1.46132e-05

>  <r_epik_State_Penalty>  (68) 
-0

>  <r_epik_Charging_Adjusted_Penalty>  (68) 
0

>  <i_epik_Tot_Q>  (68) 
0

>  <i_epik_Tot_abs_Q>  (68) 
0

>  <s_epik_Chemistry_Notes>  (68) 
This compound contains an acetal/aminal-like group ( X-CH(R)-Y where X, Y are N, S, or O) that may be acid/base labile, releasing an aldehyde.

>  <s_lp_Force_Field>  (68) 
OPLS3e

>  <r_lp_Energy>  (68) 
55.8862

>  <b_lp_Chiralities_Consistent>  (68) 
1

>  <s_lp_Variant>  (68) 
52:0-2

>  <s_i_glide_gridfile>  (68) 
pfpi4k_grid

>  <i_i_glide_lignum>  (68) 
42

>  <i_i_glide_rotatable_bonds>  (68) 
4

>  <r_i_docking_score>  (68) 
-3.26354

>  <r_i_glide_ligand_efficiency>  (68) 
-0.0709466

>  <r_i_glide_ligand_efficiency_sa>  (68) 
-0.254205

>  <r_i_glide_ligand_efficiency_ln>  (68) 
-0.675872

>  <r_i_glide_gscore>  (68) 
-3.26354

>  <r_i_glide_lipo>  (68) 
-0.271916

>  <r_i_glide_hbond>  (68) 
-0.00110317

>  <r_i_glide_metal>  (68) 
-0

>  <r_i_glide_rewards>  (68) 
-0.079697

>  <r_i_glide_evdw>  (68) 
-28.4542

>  <r_i_glide_ecoul>  (68) 
-9.60996

>  <r_i_glide_erotb>  (68) 
0

>  <r_i_glide_esite>  (68) 
-0.0466216

>  <r_i_glide_emodel>  (68) 
-44.8562

>  <r_i_glide_energy>  (68) 
-38.0642

>  <r_i_glide_einternal>  (68) 
3.19648

>  <r_i_glide_intrahb_reward>  (68) 
-0

>  <i_i_glide_confnum>  (68) 
2

>  <i_i_glide_posenum>  (68) 
6

>  <r_i_glide_eff_state_penalty>  (68) 
0

>  <ligand_id>  (68) 
52

>  <original_smiles>  (68) 
CC12OC3OC34C3CC5=CC(=O)C6CC56C5CCC6(OC7C(O6)C6(OC76)C6CC(O)C7(OC(OC1(O)CC(O)C34C)C2C7O)O6)O5

>  <smiles>  (68) 
[H]OC1([H])C([H])([H])C2([H])OC13OC1([H])OC4(O[H])C([H])([H])C([H])(O[H])C5(C([H])([H])[H])C([H])(C([H])([H])C6=C([H])C(=O)C7([H])C([H])([H])C67C6([H])OC7(OC8([H])C([H])(O7)C27OC87[H])C([H])([H])C6([H])[H])C52OC2([H])OC4(C([H])([H])[H])C1([H])C3([H])O[H]

$$$$
52:1:2
     RDKit          3D

 82 94  0  0  1  0  0  0  0  0999 V2000
    3.3794   -9.7130    3.6667 C   0  0  0  0  0  0  0  0  0  0  0  0
    4.0509   -8.3429    3.8497 C   0  0  1  0  0  0  0  0  0  0  0  0
    3.2233   -7.3094    3.2993 O   0  0  0  0  0  0  0  0  0  0  0  0
    1.8856   -7.1911    3.7252 C   0  0  2  0  0  0  0  0  0  0  0  0
    1.1835   -6.0031    3.3370 O   0  0  0  0  0  0  0  0  0  0  0  0
    1.9338   -5.9178    4.5539 C   0  0  2  0  0  0  0  0  0  0  0  0
    1.0898   -5.0475    5.4766 C   0  0  2  0  0  0  0  0  0  0  0  0
    1.6629   -3.6997    5.9174 C   0  0  0  0  0  0  0  0  0  0  0  0
    0.8394   -2.4255    5.7987 C   0  0  0  0  0  0  0  0  0  0  0  0
   -0.4679   -2.2813    5.4845 C   0  0  0  0  0  0  0  0  0  0  0  0
   -0.8611   -0.8889    5.6714 C   0  0  0  0  0  0  0  0  0  0  0  0
   -2.0113   -0.4541    5.5286 O   0  0  0  0  0  0  0  0  0  0  0  0
    0.3227   -0.0954    6.1522 C   0  0  1  0  0  0  0  0  0  0  0  0
    0.9978   -0.4603    7.4650 C   0  0  0  0  0  0  0  0  0  0  0  0
    1.4514   -1.1195    6.1712 C   0  0  1  0  0  0  0  0  0  0  0  0
    2.7619   -0.7341    5.4719 C   0  0  1  0  0  0  0  0  0  0  0  0
    4.0545   -1.3164    6.0465 C   0  0  0  0  0  0  0  0  0  0  0  0
    4.9773   -1.3110    4.8289 C   0  0  0  0  0  0  0  0  0  0  0  0
    4.0315   -1.5401    3.6489 C   0  0  1  0  0  0  0  0  0  0  0  0
    4.3871   -0.7994    2.5321 O   0  0  0  0  0  0  0  0  0  0  0  0
    3.5626   -1.3824    1.5222 C   0  0  2  0  0  0  0  0  0  0  0  0
    3.4378   -2.8366    1.9531 C   0  0  2  0  0  0  0  0  0  0  0  0
    4.1133   -2.8583    3.2031 O   0  0  0  0  0  0  0  0  0  0  0  0
    4.1284   -3.2430    0.6547 C   0  0  1  0  0  0  0  0  0  0  0  0
    3.5679   -2.7717   -0.5811 O   0  0  0  0  0  0  0  0  0  0  0  0
    4.2304   -1.7994    0.2272 C   0  0  1  0  0  0  0  0  0  0  0  0
    5.0865   -4.4313    0.5320 C   0  0  1  0  0  0  0  0  0  0  0  0
    6.5443   -4.2457    0.9472 C   0  0  0  0  0  0  0  0  0  0  0  0
    6.9649   -5.6993    1.0740 C   0  0  1  0  0  0  0  0  0  0  0  0
    8.1962   -5.8734    1.7585 O   0  0  0  0  0  0  0  0  0  0  0  0
    5.7234   -6.2781    1.7709 C   0  0  2  0  0  0  0  0  0  0  0  0
    5.7867   -5.9338    3.1274 O   0  0  0  0  0  0  0  0  0  0  0  0
    6.0721   -7.0539    3.8950 C   0  0  1  0  0  0  0  0  0  0  0  0
    5.4415   -7.0001    5.1515 O   0  0  0  0  0  0  0  0  0  0  0  0
    4.5837   -8.0882    5.3069 C   0  0  2  0  0  0  0  0  0  0  0  0
    5.3538   -9.2372    5.6749 O   0  0  0  0  0  0  0  0  0  0  0  0
    3.6124   -7.8879    6.5326 C   0  0  0  0  0  0  0  0  0  0  0  0
    2.9014   -6.5248    6.7739 C   0  0  1  0  0  0  0  0  0  0  0  0
    3.8238   -5.4748    6.6486 O   0  0  0  0  0  0  0  0  0  0  0  0
    1.6343   -6.3335    5.9467 C   0  0  2  0  0  0  0  0  0  0  0  0
    0.5880   -7.3932    6.2848 C   0  0  0  0  0  0  0  0  0  0  0  0
    5.4157   -8.2059    3.1435 C   0  0  2  0  0  0  0  0  0  0  0  0
    5.5402   -7.8166    1.6807 C   0  0  1  0  0  0  0  0  0  0  0  0
    4.5027   -8.2978    0.8383 O   0  0  0  0  0  0  0  0  0  0  0  0
    4.6322   -5.6019    1.2024 O   0  0  0  0  0  0  0  0  0  0  0  0
    2.7481   -1.1891    4.1217 O   0  0  0  0  0  0  0  0  0  0  0  0
    4.0740  -10.5245    3.8700 H   0  0  0  0  0  0  0  0  0  0  0  0
    3.0137   -9.8549    2.6489 H   0  0  0  0  0  0  0  0  0  0  0  0
    2.5418   -9.8356    4.3491 H   0  0  0  0  0  0  0  0  0  0  0  0
    1.2454   -8.0249    3.9179 H   0  0  0  0  0  0  0  0  0  0  0  0
    0.0276   -5.0754    5.3112 H   0  0  0  0  0  0  0  0  0  0  0  0
    1.9121   -3.7950    6.9755 H   0  0  0  0  0  0  0  0  0  0  0  0
    2.5646   -3.5314    5.3378 H   0  0  0  0  0  0  0  0  0  0  0  0
   -1.1481   -3.0505    5.2628 H   0  0  0  0  0  0  0  0  0  0  0  0
    0.5445    0.8678    5.6835 H   0  0  0  0  0  0  0  0  0  0  0  0
    1.6346    0.2897    7.9144 H   0  0  0  0  0  0  0  0  0  0  0  0
    0.4259   -1.0648    8.1698 H   0  0  0  0  0  0  0  0  0  0  0  0
    2.8456    0.3465    5.4732 H   0  0  0  0  0  0  0  0  0  0  0  0
    4.4575   -0.6953    6.8514 H   0  0  0  0  0  0  0  0  0  0  0  0
    3.9319   -2.3295    6.4466 H   0  0  0  0  0  0  0  0  0  0  0  0
    5.4729   -0.3433    4.7295 H   0  0  0  0  0  0  0  0  0  0  0  0
    5.7214   -2.1006    4.8722 H   0  0  0  0  0  0  0  0  0  0  0  0
    2.5878   -0.9109    1.4586 H   0  0  0  0  0  0  0  0  0  0  0  0
    2.3998   -3.1241    2.0605 H   0  0  0  0  0  0  0  0  0  0  0  0
    5.1743   -1.3364   -0.0866 H   0  0  0  0  0  0  0  0  0  0  0  0
    5.1008   -4.6727   -0.5170 H   0  0  0  0  0  0  0  0  0  0  0  0
    7.1380   -3.7521    0.1807 H   0  0  0  0  0  0  0  0  0  0  0  0
    6.6525   -3.7076    1.8972 H   0  0  0  0  0  0  0  0  0  0  0  0
    7.0465   -6.1641    0.0899 H   0  0  0  0  0  0  0  0  0  0  0  0
    8.4668   -6.7792    1.7052 H   0  0  0  0  0  0  0  0  0  0  0  0
    7.1575   -7.1788    3.9930 H   0  0  0  0  0  0  0  0  0  0  0  0
    4.7672   -9.9708    5.7192 H   0  0  0  0  0  0  0  0  0  0  0  0
    2.9369   -8.7462    6.5897 H   0  0  0  0  0  0  0  0  0  0  0  0
    4.2439   -8.0002    7.4090 H   0  0  0  0  0  0  0  0  0  0  0  0
    2.5496   -6.5085    7.8079 H   0  0  0  0  0  0  0  0  0  0  0  0
    4.2238   -5.5457    5.7874 H   0  0  0  0  0  0  0  0  0  0  0  0
    0.3537   -7.3510    7.3468 H   0  0  0  0  0  0  0  0  0  0  0  0
    0.9229   -8.4114    6.0498 H   0  0  0  0  0  0  0  0  0  0  0  0
   -0.3479   -7.2351    5.7148 H   0  0  0  0  0  0  0  0  0  0  0  0
    5.9986   -9.1098    3.3103 H   0  0  0  0  0  0  0  0  0  0  0  0
    6.4686   -8.2300    1.2906 H   0  0  0  0  0  0  0  0  0  0  0  0
    4.4427   -9.2412    0.9180 H   0  0  0  0  0  0  0  0  0  0  0  0
  2  1  1  1
  1 47  1  0
  1 48  1  0
  1 49  1  0
  2 35  1  0
  2 42  1  0
  2  3  1  0
  3  4  1  0
  4  6  1  0
  4  5  1  0
  4 50  1  1
  6  5  1  6
  6 40  1  0
  6  7  1  0
  7 40  1  0
  7  8  1  0
  7 51  1  6
  8  9  1  0
  8 52  1  0
  8 53  1  0
  9 15  1  0
  9 10  2  0
 10 11  1  0
 10 54  1  0
 11 12  2  0
 11 13  1  0
 13 15  1  0
 13 14  1  0
 13 55  1  6
 15 14  1  1
 14 56  1  0
 14 57  1  0
 15 16  1  0
 16 46  1  0
 16 17  1  0
 16 58  1  6
 17 18  1  0
 17 59  1  0
 17 60  1  0
 18 19  1  0
 18 61  1  0
 18 62  1  0
 19 23  1  0
 19 20  1  6
 19 46  1  0
 20 21  1  0
 21 26  1  0
 21 22  1  0
 21 63  1  6
 22 23  1  0
 22 24  1  0
 22 64  1  1
 24 26  1  0
 24 25  1  6
 24 27  1  0
 25 26  1  0
 26 65  1  6
 27 45  1  0
 27 28  1  0
 27 66  1  6
 28 29  1  0
 28 67  1  0
 28 68  1  0
 29 30  1  0
 29 31  1  0
 29 69  1  6
 30 70  1  0
 31 43  1  0
 31 32  1  1
 31 45  1  0
 32 33  1  0
 33 34  1  0
 33 42  1  0
 33 71  1  1
 34 35  1  0
 35 36  1  1
 35 37  1  0
 36 72  1  0
 37 38  1  0
 37 73  1  0
 37 74  1  0
 38 39  1  0
 38 40  1  0
 38 75  1  1
 39 76  1  0
 40 41  1  6
 41 77  1  0
 41 78  1  0
 41 79  1  0
 42 43  1  0
 42 80  1  6
 43 44  1  0
 43 81  1  6
 44 82  1  0
M  END
>  <i_m_ct_stereo_status>  (69) 
1

>  <s_m_source_file>  (69) 
/var/tmp/pbs.5076253.sched01/tmptd9uf136/47e5u2q_zc.sdf

>  <i_m_source_file_index>  (69) 
42

>  <i_lp_mmshare_version>  (69) 
48012

>  <i_f3d_flags>  (69) 
0

>  <s_epik_input>  (69) 
TzFbQ0BIXShDMTIzKU9bQ0BdNChbQ0gzXSlbQ0BAXTUoW09IXSlPW0NASF02W0NAQEhdNFtDQEBIXShbT0hdKVtDQEBdNyhPNilbQ0BIXShbT0hdKVtDSDJdW0NAQEhdKE83KVtDQF04OVtDQEBIXTFbQ0BIXShbQ0BASF05TzgpT1tDQEBdNChPMSlbQ0gyXVtDSDJdW0NAQEhdKE80KVtDQF0xNEMoPVtDSF1DKD1PKVtDQEhdMVtDSDJdNClbQ0gyXVtDQEBIXTJbQ0BdMyhbQ0gzXSlbQ0BASF0oW0NIMl01KVtPSF0=

>  <s_epik_cmdline>  (69) 
J2VwaWtfcHl0aG9uJywgJy1waHQnLCAnMi4wJywgJy1waCcsICc3LjAnLCAnLXRuJywgJzgnLCAnLW1hJywgJzIwMCcsICctaW1hZScsICc8aW5maWxlLm1hZT4nLCAnLW9tYWUnLCAnPG91dGZpbGUubWFlPic=

>  <r_lp_tautomer_probability>  (69) 
1

>  <r_epik_Ionization_Penalty>  (69) 
1.46132e-05

>  <r_epik_Ionization_Penalty_Charging>  (69) 
0

>  <r_epik_Ionization_Penalty_Neutral>  (69) 
1.46132e-05

>  <r_epik_State_Penalty>  (69) 
-0

>  <r_epik_Charging_Adjusted_Penalty>  (69) 
0

>  <i_epik_Tot_Q>  (69) 
0

>  <i_epik_Tot_abs_Q>  (69) 
0

>  <s_epik_Chemistry_Notes>  (69) 
This compound contains an acetal/aminal-like group ( X-CH(R)-Y where X, Y are N, S, or O) that may be acid/base labile, releasing an aldehyde.

>  <s_lp_Force_Field>  (69) 
OPLS3e

>  <r_lp_Energy>  (69) 
55.8862

>  <b_lp_Chiralities_Consistent>  (69) 
1

>  <s_lp_Variant>  (69) 
52:0-2

>  <s_i_glide_gridfile>  (69) 
pfpi4k_grid

>  <i_i_glide_lignum>  (69) 
42

>  <i_i_glide_rotatable_bonds>  (69) 
4

>  <r_i_docking_score>  (69) 
-2.94276

>  <r_i_glide_ligand_efficiency>  (69) 
-0.0639731

>  <r_i_glide_ligand_efficiency_sa>  (69) 
-0.229219

>  <r_i_glide_ligand_efficiency_ln>  (69) 
-0.609439

>  <r_i_glide_gscore>  (69) 
-2.94276

>  <r_i_glide_lipo>  (69) 
-0.368872

>  <r_i_glide_hbond>  (69) 
-0.0242674

>  <r_i_glide_metal>  (69) 
-0

>  <r_i_glide_rewards>  (69) 
-0.582342

>  <r_i_glide_evdw>  (69) 
-32.0289

>  <r_i_glide_ecoul>  (69) 
-2.10887

>  <r_i_glide_erotb>  (69) 
0

>  <r_i_glide_esite>  (69) 
-0.0495072

>  <r_i_glide_emodel>  (69) 
-45.4783

>  <r_i_glide_energy>  (69) 
-34.1377

>  <r_i_glide_einternal>  (69) 
2.38015

>  <r_i_glide_intrahb_reward>  (69) 
-0.5

>  <i_i_glide_confnum>  (69) 
1

>  <i_i_glide_posenum>  (69) 
40

>  <r_i_glide_eff_state_penalty>  (69) 
0

>  <ligand_id>  (69) 
52

>  <original_smiles>  (69) 
CC12OC3OC34C3CC5=CC(=O)C6CC56C5CCC6(OC7C(O6)C6(OC76)C6CC(O)C7(OC(OC1(O)CC(O)C34C)C2C7O)O6)O5

>  <smiles>  (69) 
[H]OC1([H])C([H])([H])C2([H])OC13OC1([H])OC4(O[H])C([H])([H])C([H])(O[H])C5(C([H])([H])[H])C([H])(C([H])([H])C6=C([H])C(=O)C7([H])C([H])([H])C67C6([H])OC7(OC8([H])C([H])(O7)C27OC87[H])C([H])([H])C6([H])[H])C52OC2([H])OC4(C([H])([H])[H])C1([H])C3([H])O[H]

$$$$
55:0:0
     RDKit          3D

 91104  0  0  1  0  0  0  0  0999 V2000
   -0.3969   -5.4295    7.1466 C   0  0  0  0  0  0  0  0  0  0  0  0
    0.4806   -6.5334    7.1385 O   0  0  0  0  0  0  0  0  0  0  0  0
    1.0040   -6.8070    5.8434 C   0  0  2  0  0  0  0  0  0  0  0  0
    2.0009   -7.9722    5.8528 C   0  0  1  0  0  0  0  0  0  0  0  0
    2.3104   -8.1981    4.4801 O   0  0  0  0  0  0  0  0  0  0  0  0
    2.8964   -6.9496    4.1577 C   0  0  1  0  0  0  0  0  0  0  0  0
    2.7267   -6.3156    2.6738 C   0  0  1  0  0  0  0  0  0  0  0  0
    3.6766   -6.8536    1.7693 O   0  0  0  0  0  0  0  0  0  0  0  0
    1.3186   -6.4813    2.0909 C   0  0  1  0  0  0  0  0  0  0  0  0
    0.5985   -7.8431    2.1868 C   0  0  0  0  0  0  0  0  0  0  0  0
    0.6080   -5.5174    2.8199 O   0  0  0  0  0  0  0  0  0  0  0  0
    1.4433   -4.4865    3.2304 C   0  0  1  0  0  0  0  0  0  0  0  0
    1.4657   -4.3668    4.5858 O   0  0  0  0  0  0  0  0  0  0  0  0
    2.6267   -4.6301    5.3685 C   0  0  2  0  0  0  0  0  0  0  0  0
    2.5371   -3.3224    6.2748 C   0  0  0  0  0  0  0  0  0  0  0  0
    2.8581   -2.0076    5.3916 C   0  0  1  0  0  0  0  0  0  0  0  0
    4.2757   -1.8403    5.0770 O   0  0  0  0  0  0  0  0  0  0  0  0
    4.6468   -1.4630    3.7337 C   0  0  2  0  0  0  0  0  0  0  0  0
    5.5330   -2.3580    3.1179 O   0  0  0  0  0  0  0  0  0  0  0  0
    5.1740   -0.0185    3.6613 C   0  0  0  0  0  0  0  0  0  0  0  0
    4.2602    0.1329    2.4575 C   0  0  0  0  0  0  0  0  0  0  0  0
    3.5810    1.2752    2.3673 F   0  0  0  0  0  0  0  0  0  0  0  0
    5.0355   -0.0395    1.3859 F   0  0  0  0  0  0  0  0  0  0  0  0
    3.4042   -1.0797    2.9056 C   0  0  1  0  0  0  0  0  0  0  0  0
    2.9232   -2.0796    1.6775 C   0  0  1  0  0  0  0  0  0  0  0  0
    1.5485   -1.8277    1.5905 O   0  0  0  0  0  0  0  0  0  0  0  0
    3.2698   -1.7088    0.2462 C   0  0  1  0  0  0  0  0  0  0  0  0
    4.4234   -2.2682   -0.4100 O   0  0  0  0  0  0  0  0  0  0  0  0
    3.1628   -2.9356   -0.6404 C   0  0  2  0  0  0  0  0  0  0  0  0
    2.5245   -2.9702   -2.0223 C   0  0  0  0  0  0  0  0  0  0  0  0
    3.4448   -3.4544   -2.9696 O   0  0  0  0  0  0  0  0  0  0  0  0
    2.8909   -4.0489    0.2133 O   0  0  0  0  0  0  0  0  0  0  0  0
    3.1859   -3.6775    1.5570 C   0  0  2  0  0  0  0  0  0  0  0  0
    2.8585   -4.7412    2.6934 C   0  0  2  0  0  0  0  0  0  0  0  0
    4.0107   -4.5154    3.5001 O   0  0  0  0  0  0  0  0  0  0  0  0
    4.0122   -4.5565    4.7746 C   0  0  0  0  0  0  0  0  0  0  0  0
    5.0325   -4.5734    5.4586 O   0  0  0  0  0  0  0  0  0  0  0  0
    2.2415   -0.6900    3.9617 C   0  0  2  0  0  0  0  0  0  0  0  0
    1.9866   -2.0530    4.2272 O   0  0  0  0  0  0  0  0  0  0  0  0
    1.2167    0.3795    3.5658 C   0  0  1  0  0  0  0  0  0  0  0  0
   -0.2325    0.1023    4.0287 C   0  0  0  0  0  0  0  0  0  0  0  0
   -0.3830   -0.4746    5.4724 C   0  0  0  0  0  0  0  0  0  0  0  0
   -1.6028    0.2525    6.1026 C   0  0  0  0  0  0  0  0  0  0  0  0
   -0.7885   -1.9677    5.4446 C   0  0  0  0  0  0  0  0  0  0  0  0
    0.9477   -0.2696    6.2876 C   0  0  2  0  0  0  0  0  0  0  0  0
    1.1747    1.2108    6.4548 C   0  0  0  0  0  0  0  0  0  0  0  0
    0.6544    1.9212    7.3097 O   0  0  0  0  0  0  0  0  0  0  0  0
    2.2397    1.6133    5.4782 C   0  0  2  0  0  0  0  0  0  0  0  0
    2.9345    2.9511    5.7500 C   0  0  0  0  0  0  0  0  0  0  0  0
    4.0370    3.1667    4.8972 O   0  0  0  0  0  0  0  0  0  0  0  0
    1.6778    1.6252    4.1643 O   0  0  0  0  0  0  0  0  0  0  0  0
    3.1072    0.5434    5.6846 O   0  0  0  0  0  0  0  0  0  0  0  0
    2.2867   -0.5977    5.5280 C   0  0  1  0  0  0  0  0  0  0  0  0
    2.3406   -6.1687    5.4383 C   0  0  1  0  0  0  0  0  0  0  0  0
    2.9704   -7.0372    6.3973 O   0  0  0  0  0  0  0  0  0  0  0  0
   -0.6857   -5.1732    8.1661 H   0  0  0  0  0  0  0  0  0  0  0  0
   -1.2894   -5.6169    6.5554 H   0  0  0  0  0  0  0  0  0  0  0  0
    0.0814   -4.5676    6.7150 H   0  0  0  0  0  0  0  0  0  0  0  0
    0.2443   -6.8918    5.0647 H   0  0  0  0  0  0  0  0  0  0  0  0
    1.7487   -8.8447    6.4567 H   0  0  0  0  0  0  0  0  0  0  0  0
    3.9648   -7.1299    4.2894 H   0  0  0  0  0  0  0  0  0  0  0  0
    4.5282   -6.8076    2.1768 H   0  0  0  0  0  0  0  0  0  0  0  0
    1.3582   -6.1912    1.0365 H   0  0  0  0  0  0  0  0  0  0  0  0
    1.2179   -8.6683    1.8313 H   0  0  0  0  0  0  0  0  0  0  0  0
   -0.3174   -7.8399    1.5959 H   0  0  0  0  0  0  0  0  0  0  0  0
    0.2841   -8.0771    3.2021 H   0  0  0  0  0  0  0  0  0  0  0  0
    0.9429   -3.6065    2.8695 H   0  0  0  0  0  0  0  0  0  0  0  0
    1.5739   -3.2017    6.7539 H   0  0  0  0  0  0  0  0  0  0  0  0
    3.2517   -3.4003    7.0937 H   0  0  0  0  0  0  0  0  0  0  0  0
    5.1340   -3.2091    3.1567 H   0  0  0  0  0  0  0  0  0  0  0  0
    4.9558    0.6484    4.4847 H   0  0  0  0  0  0  0  0  0  0  0  0
    6.2394    0.0600    3.4167 H   0  0  0  0  0  0  0  0  0  0  0  0
    1.3828   -1.4551    0.7213 H   0  0  0  0  0  0  0  0  0  0  0  0
    3.0052   -0.7269   -0.1287 H   0  0  0  0  0  0  0  0  0  0  0  0
    1.6767   -3.6566   -1.9958 H   0  0  0  0  0  0  0  0  0  0  0  0
    2.1685   -1.9945   -2.3248 H   0  0  0  0  0  0  0  0  0  0  0  0
    3.5241   -4.3806   -2.8131 H   0  0  0  0  0  0  0  0  0  0  0  0
    4.2693   -3.7518    1.4613 H   0  0  0  0  0  0  0  0  0  0  0  0
    1.1968    0.5358    2.4856 H   0  0  0  0  0  0  0  0  0  0  0  0
   -0.7970    1.0332    3.9201 H   0  0  0  0  0  0  0  0  0  0  0  0
   -0.6897   -0.5849    3.3193 H   0  0  0  0  0  0  0  0  0  0  0  0
   -1.6778    0.0312    7.1600 H   0  0  0  0  0  0  0  0  0  0  0  0
   -2.5362   -0.0193    5.5989 H   0  0  0  0  0  0  0  0  0  0  0  0
   -1.5366    1.3404    6.0400 H   0  0  0  0  0  0  0  0  0  0  0  0
   -0.7268   -2.4090    6.4411 H   0  0  0  0  0  0  0  0  0  0  0  0
   -0.1928   -2.5729    4.7720 H   0  0  0  0  0  0  0  0  0  0  0  0
   -1.8127   -2.0949    5.1045 H   0  0  0  0  0  0  0  0  0  0  0  0
    0.8914   -0.7355    7.2805 H   0  0  0  0  0  0  0  0  0  0  0  0
    2.2243    3.7608    5.5948 H   0  0  0  0  0  0  0  0  0  0  0  0
    3.2723    2.9957    6.7849 H   0  0  0  0  0  0  0  0  0  0  0  0
    3.7562    3.0343    4.0007 H   0  0  0  0  0  0  0  0  0  0  0  0
  1  2  1  0
  1 56  1  0
  1 57  1  0
  1 58  1  0
  2  3  1  0
  3 54  1  0
  3  4  1  0
  3 59  1  6
  4 55  1  0
  4  5  1  0
  4 60  1  1
  5  6  1  0
  6 54  1  0
  6  7  1  0
  6 61  1  1
  7 34  1  0
  7  8  1  6
  7  9  1  0
  8 62  1  0
  9 10  1  0
  9 11  1  0
  9 63  1  6
 10 64  1  0
 10 65  1  0
 10 66  1  0
 11 12  1  0
 12 34  1  0
 12 13  1  0
 12 67  1  6
 13 14  1  0
 14 36  1  0
 14 15  1  1
 14 54  1  0
 15 16  1  0
 15 68  1  0
 15 69  1  0
 16 39  1  0
 16 53  1  0
 16 17  1  6
 17 18  1  0
 18 24  1  0
 18 19  1  6
 18 20  1  0
 19 70  1  0
 20 21  1  0
 20 71  1  0
 20 72  1  0
 21 22  1  0
 21 23  1  0
 24 21  1  6
 24 25  1  0
 24 38  1  0
 25 33  1  0
 25 26  1  6
 25 27  1  0
 26 73  1  0
 27 29  1  0
 27 28  1  0
 27 74  1  6
 28 29  1  0
 29 30  1  6
 29 32  1  0
 30 31  1  0
 30 75  1  0
 30 76  1  0
 31 77  1  0
 32 33  1  0
 33 34  1  0
 33 78  1  6
 34 35  1  1
 35 36  1  0
 36 37  2  0
 38 53  1  0
 38 39  1  1
 38 40  1  0
 40 51  1  0
 40 41  1  0
 40 79  1  6
 41 42  1  0
 41 80  1  0
 41 81  1  0
 42 43  1  0
 42 44  1  0
 42 45  1  0
 43 82  1  0
 43 83  1  0
 43 84  1  0
 44 85  1  0
 44 86  1  0
 44 87  1  0
 45 53  1  0
 45 46  1  0
 45 88  1  1
 46 47  2  0
 46 48  1  0
 48 49  1  1
 48 51  1  0
 48 52  1  0
 49 50  1  0
 49 89  1  0
 49 90  1  0
 50 91  1  0
 53 52  1  6
 54 55  1  1
M  END
>  <i_m_ct_stereo_status>  (70) 
1

>  <s_m_source_file>  (70) 
/var/tmp/pbs.5076253.sched01/tmptd9uf136/47e5u2q_zc.sdf

>  <i_m_source_file_index>  (70) 
45

>  <i_lp_mmshare_version>  (70) 
48012

>  <i_f3d_flags>  (70) 
0

>  <s_epik_input>  (70) 
W0NIM11PW0NAQEhdMVtDQEhdKE8yKU9bQ0BIXShbQ0BAXTEyW0NAQF0zNDUpW0NAXTYoW09IXSlbQ0BdKE9DNT1PKShbQ0BIXShPMylPW0NAQEhdNltDSDNdKVtDQEBIXTdbQ0BdKFtPSF0pKFtDQEBIXThbQ0BAXShPOCkoTzcpW0NIMl1bT0hdKVtDQF0xOVtDQF0yM1tDQF01KFtDQF0oTzIpKFtDSDJdNClPW0NAXTkoW09IXSlbQ0gyXUMxKEYpRilbQ0BASF0xQyhbQ0gzXSkoW0NIM10pW0NIMl1bQ0BIXTNPW0NAXShPNSkoQzE9TylbQ0gyXVtPSF0=

>  <s_epik_cmdline>  (70) 
J2VwaWtfcHl0aG9uJywgJy1waHQnLCAnMi4wJywgJy1waCcsICc3LjAnLCAnLXRuJywgJzgnLCAnLW1hJywgJzIwMCcsICctaW1hZScsICc8aW5maWxlLm1hZT4nLCAnLW9tYWUnLCAnPG91dGZpbGUubWFlPic=

>  <r_epik_Ionization_Penalty>  (70) 
0.00492244

>  <r_epik_Ionization_Penalty_Charging>  (70) 
0

>  <r_epik_Ionization_Penalty_Neutral>  (70) 
0.00492244

>  <r_epik_State_Penalty>  (70) 
0.0031969

>  <r_epik_Charging_Adjusted_Penalty>  (70) 
0.0031969

>  <i_epik_Tot_Q>  (70) 
0

>  <i_epik_Tot_abs_Q>  (70) 
0

>  <s_epik_Chemistry_Notes>  (70) 
This compound has an ester and may undergo hydrolysis at high or low pH. This compound contains an acetal/aminal-like group ( X-CH(R)-Y where X, Y are N, S, or O) that may be acid/base labile, releasing an aldehyde.

>  <s_lp_Force_Field>  (70) 
OPLS3e

>  <r_lp_Energy>  (70) 
225.627

>  <b_lp_Chiralities_Consistent>  (70) 
1

>  <s_lp_Variant>  (70) 
55:0-1

>  <s_i_glide_gridfile>  (70) 
pfpi4k_grid

>  <i_i_glide_lignum>  (70) 
45

>  <i_i_glide_rotatable_bonds>  (70) 
8

>  <r_i_docking_score>  (70) 
-3.69859

>  <r_i_glide_ligand_efficiency>  (70) 
-0.067247

>  <r_i_glide_ligand_efficiency_sa>  (70) 
-0.255737

>  <r_i_glide_ligand_efficiency_ln>  (70) 
-0.738634

>  <r_i_glide_gscore>  (70) 
-3.69859

>  <r_i_glide_lipo>  (70) 
-0.171461

>  <r_i_glide_hbond>  (70) 
-0.0581921

>  <r_i_glide_metal>  (70) 
-0

>  <r_i_glide_rewards>  (70) 
-0.710922

>  <r_i_glide_evdw>  (70) 
-22.0292

>  <r_i_glide_ecoul>  (70) 
-11.0836

>  <r_i_glide_erotb>  (70) 
0.0491786

>  <r_i_glide_esite>  (70) 
-0.0431984

>  <r_i_glide_emodel>  (70) 
-39.7689

>  <r_i_glide_energy>  (70) 
-33.1127

>  <r_i_glide_einternal>  (70) 
11.5344

>  <r_i_glide_intrahb_reward>  (70) 
-0.5

>  <i_i_glide_confnum>  (70) 
1

>  <i_i_glide_posenum>  (70) 
19

>  <r_i_glide_eff_state_penalty>  (70) 
0

>  <ligand_id>  (70) 
55

>  <original_smiles>  (70) 
COC1C2OC3C4(O)C(C)OC5OC6(CC78OC9(O)CC(F)(F)C9(C9(O)C%10OC%10(CO)OC9C54OC6=O)C4(O7)C5CC(C)(C)C6C(=O)C(CO)(O5)OC684)C13O2

>  <smiles>  (70) 
[H]OC([H])([H])C12OC3([H])C([H])([H])C(C([H])([H])[H])(C([H])([H])[H])C([H])(C1=O)C1(O2)C24OC5(O[H])C([H])([H])C(F)(F)C5(C5(O[H])C6([H])OC6(C([H])([H])O[H])OC5([H])C56OC(=O)C7(OC5([H])OC([H])(C([H])([H])[H])C6(O[H])C5([H])OC6([H])OC57C6([H])OC([H])([H])[H])C2([H])[H])C31O4

$$$$
55:0:1
     RDKit          3D

 91104  0  0  1  0  0  0  0  0999 V2000
   -1.6443   -3.7802   10.0724 C   0  0  0  0  0  0  0  0  0  0  0  0
   -0.6378   -3.1930    9.2517 O   0  0  0  0  0  0  0  0  0  0  0  0
    0.0189   -4.1512    8.4220 C   0  0  2  0  0  0  0  0  0  0  0  0
    0.9387   -5.1272    9.1697 C   0  0  1  0  0  0  0  0  0  0  0  0
    1.3976   -6.0432    8.1827 O   0  0  0  0  0  0  0  0  0  0  0  0
    2.0981   -5.1396    7.3456 C   0  0  1  0  0  0  0  0  0  0  0  0
    2.1577   -5.3863    5.7495 C   0  0  1  0  0  0  0  0  0  0  0  0
    3.1592   -6.3333    5.4423 O   0  0  0  0  0  0  0  0  0  0  0  0
    0.8364   -5.8517    5.1389 C   0  0  1  0  0  0  0  0  0  0  0  0
    0.0162   -6.9574    5.8298 C   0  0  0  0  0  0  0  0  0  0  0  0
    0.0996   -4.6519    5.1266 O   0  0  0  0  0  0  0  0  0  0  0  0
    0.9553   -3.5523    5.0455 C   0  0  1  0  0  0  0  0  0  0  0  0
    0.8070   -2.7431    6.1335 O   0  0  0  0  0  0  0  0  0  0  0  0
    1.8259   -2.5453    7.1053 C   0  0  2  0  0  0  0  0  0  0  0  0
    1.6912   -0.9658    7.1621 C   0  0  0  0  0  0  0  0  0  0  0  0
    2.2387   -0.3003    5.7795 C   0  0  1  0  0  0  0  0  0  0  0  0
    3.6977   -0.2821    5.6491 O   0  0  0  0  0  0  0  0  0  0  0  0
    4.2936   -0.6915    4.3940 C   0  0  2  0  0  0  0  0  0  0  0  0
    5.2195   -1.7429    4.5077 O   0  0  0  0  0  0  0  0  0  0  0  0
    4.9243    0.4924    3.6445 C   0  0  0  0  0  0  0  0  0  0  0  0
    4.2107   -0.0160    2.4047 C   0  0  0  0  0  0  0  0  0  0  0  0
    3.6928    0.9211    1.6130 F   0  0  0  0  0  0  0  0  0  0  0  0
    5.1113   -0.7356    1.7333 F   0  0  0  0  0  0  0  0  0  0  0  0
    3.2014   -0.8162    3.2934 C   0  0  1  0  0  0  0  0  0  0  0  0
    2.8102   -2.3193    2.7116 C   0  0  1  0  0  0  0  0  0  0  0  0
    1.4737   -2.1842    2.2758 O   0  0  0  0  0  0  0  0  0  0  0  0
    3.3764   -2.7612    1.3762 C   0  0  1  0  0  0  0  0  0  0  0  0
    4.5166   -3.6347    1.2891 O   0  0  0  0  0  0  0  0  0  0  0  0
    3.2166   -4.2520    1.2748 C   0  0  2  0  0  0  0  0  0  0  0  0
    2.8228   -5.0845    0.0663 C   0  0  0  0  0  0  0  0  0  0  0  0
    1.8317   -4.4497   -0.7106 O   0  0  0  0  0  0  0  0  0  0  0  0
    2.7975   -4.7624    2.5400 O   0  0  0  0  0  0  0  0  0  0  0  0
    2.9531   -3.7332    3.5015 C   0  0  2  0  0  0  0  0  0  0  0  0
    2.4027   -4.0418    4.9531 C   0  0  2  0  0  0  0  0  0  0  0  0
    3.4493   -3.4082    5.6739 O   0  0  0  0  0  0  0  0  0  0  0  0
    3.2788   -2.7721    6.7710 C   0  0  0  0  0  0  0  0  0  0  0  0
    4.1905   -2.4155    7.5150 O   0  0  0  0  0  0  0  0  0  0  0  0
    1.9363    0.0645    3.7985 C   0  0  2  0  0  0  0  0  0  0  0  0
    1.5426   -0.9626    4.6826 O   0  0  0  0  0  0  0  0  0  0  0  0
    1.0517    0.7431    2.7471 C   0  0  1  0  0  0  0  0  0  0  0  0
   -0.4584    0.7591    3.0778 C   0  0  0  0  0  0  0  0  0  0  0  0
   -0.8436    1.0182    4.5667 C   0  0  0  0  0  0  0  0  0  0  0  0
   -2.0831    1.9596    4.5556 C   0  0  0  0  0  0  0  0  0  0  0  0
   -1.3570   -0.2713    5.2534 C   0  0  0  0  0  0  0  0  0  0  0  0
    0.3733    1.6235    5.3435 C   0  0  2  0  0  0  0  0  0  0  0  0
    0.6591    2.9786    4.7448 C   0  0  0  0  0  0  0  0  0  0  0  0
    0.0755    4.0069    5.0486 O   0  0  0  0  0  0  0  0  0  0  0  0
    1.8621    2.8203    3.8505 C   0  0  2  0  0  0  0  0  0  0  0  0
    2.6483    4.0867    3.4506 C   0  0  0  0  0  0  0  0  0  0  0  0
    1.8305    5.0931    2.8768 O   0  0  0  0  0  0  0  0  0  0  0  0
    1.5275    2.1113    2.6609 O   0  0  0  0  0  0  0  0  0  0  0  0
    2.6381    2.0293    4.7009 O   0  0  0  0  0  0  0  0  0  0  0  0
    1.7666    0.9681    5.0702 C   0  0  1  0  0  0  0  0  0  0  0  0
    1.4309   -3.8134    7.9318 C   0  0  1  0  0  0  0  0  0  0  0  0
    1.8765   -4.0304    9.2797 O   0  0  0  0  0  0  0  0  0  0  0  0
   -2.1551   -3.0091   10.6468 H   0  0  0  0  0  0  0  0  0  0  0  0
   -1.2254   -4.4735   10.8000 H   0  0  0  0  0  0  0  0  0  0  0  0
   -2.3896   -4.3081    9.4746 H   0  0  0  0  0  0  0  0  0  0  0  0
   -0.6224   -4.6237    7.6760 H   0  0  0  0  0  0  0  0  0  0  0  0
    0.5788   -5.5578   10.1038 H   0  0  0  0  0  0  0  0  0  0  0  0
    3.1263   -5.2109    7.7097 H   0  0  0  0  0  0  0  0  0  0  0  0
    2.9522   -7.1331    5.9044 H   0  0  0  0  0  0  0  0  0  0  0  0
    1.0284   -6.1613    4.1099 H   0  0  0  0  0  0  0  0  0  0  0  0
    0.6186   -7.8364    6.0590 H   0  0  0  0  0  0  0  0  0  0  0  0
   -0.8143   -7.2775    5.1994 H   0  0  0  0  0  0  0  0  0  0  0  0
   -0.4345   -6.6110    6.7561 H   0  0  0  0  0  0  0  0  0  0  0  0
    0.5693   -3.0195    4.1949 H   0  0  0  0  0  0  0  0  0  0  0  0
    0.6650   -0.6816    7.3682 H   0  0  0  0  0  0  0  0  0  0  0  0
    2.2740   -0.5767    7.9943 H   0  0  0  0  0  0  0  0  0  0  0  0
    4.7610   -2.4758    4.9082 H   0  0  0  0  0  0  0  0  0  0  0  0
    4.6296    1.4793    3.9606 H   0  0  0  0  0  0  0  0  0  0  0  0
    6.0129    0.4464    3.5626 H   0  0  0  0  0  0  0  0  0  0  0  0
    1.4593   -1.6019    1.5269 H   0  0  0  0  0  0  0  0  0  0  0  0
    3.2023   -2.1405    0.4974 H   0  0  0  0  0  0  0  0  0  0  0  0
    3.7040   -5.2869   -0.5339 H   0  0  0  0  0  0  0  0  0  0  0  0
    2.4287   -6.0388    0.4094 H   0  0  0  0  0  0  0  0  0  0  0  0
    1.9374   -4.7607   -1.6040 H   0  0  0  0  0  0  0  0  0  0  0  0
    4.0294   -3.8388    3.6227 H   0  0  0  0  0  0  0  0  0  0  0  0
    1.1864    0.3039    1.7589 H   0  0  0  0  0  0  0  0  0  0  0  0
   -0.9453    1.4752    2.4025 H   0  0  0  0  0  0  0  0  0  0  0  0
   -0.8611   -0.2114    2.8042 H   0  0  0  0  0  0  0  0  0  0  0  0
   -2.3790    2.2545    5.5660 H   0  0  0  0  0  0  0  0  0  0  0  0
   -2.9354    1.4855    4.0704 H   0  0  0  0  0  0  0  0  0  0  0  0
   -1.9250    2.8677    3.9680 H   0  0  0  0  0  0  0  0  0  0  0  0
   -1.4527   -0.1272    6.3295 H   0  0  0  0  0  0  0  0  0  0  0  0
   -0.7210   -1.1322    5.0928 H   0  0  0  0  0  0  0  0  0  0  0  0
   -2.3382   -0.5698    4.8763 H   0  0  0  0  0  0  0  0  0  0  0  0
    0.1618    1.7571    6.4032 H   0  0  0  0  0  0  0  0  0  0  0  0
    3.1332    4.5029    4.3319 H   0  0  0  0  0  0  0  0  0  0  0  0
    3.4283    3.8100    2.7420 H   0  0  0  0  0  0  0  0  0  0  0  0
    1.3106    4.7229    2.1729 H   0  0  0  0  0  0  0  0  0  0  0  0
  1  2  1  0
  1 56  1  0
  1 57  1  0
  1 58  1  0
  2  3  1  0
  3 54  1  0
  3  4  1  0
  3 59  1  6
  4 55  1  0
  4  5  1  0
  4 60  1  1
  5  6  1  0
  6 54  1  0
  6  7  1  0
  6 61  1  1
  7 34  1  0
  7  8  1  1
  7  9  1  0
  8 62  1  0
  9 10  1  0
  9 11  1  0
  9 63  1  6
 10 64  1  0
 10 65  1  0
 10 66  1  0
 11 12  1  0
 12 34  1  0
 12 13  1  0
 12 67  1  6
 13 14  1  0
 14 36  1  0
 14 15  1  1
 14 54  1  0
 15 16  1  0
 15 68  1  0
 15 69  1  0
 16 39  1  0
 16 53  1  0
 16 17  1  6
 17 18  1  0
 18 24  1  0
 18 19  1  1
 18 20  1  0
 19 70  1  0
 20 21  1  0
 20 71  1  0
 20 72  1  0
 21 22  1  0
 21 23  1  0
 24 21  1  6
 24 25  1  0
 24 38  1  0
 25 33  1  0
 25 26  1  6
 25 27  1  0
 26 73  1  0
 27 29  1  0
 27 28  1  0
 27 74  1  6
 28 29  1  0
 29 30  1  6
 29 32  1  0
 30 31  1  0
 30 75  1  0
 30 76  1  0
 31 77  1  0
 32 33  1  0
 33 34  1  0
 33 78  1  1
 34 35  1  1
 35 36  1  0
 36 37  2  0
 38 53  1  0
 38 39  1  1
 38 40  1  0
 40 51  1  0
 40 41  1  0
 40 79  1  6
 41 42  1  0
 41 80  1  0
 41 81  1  0
 42 43  1  0
 42 44  1  0
 42 45  1  0
 43 82  1  0
 43 83  1  0
 43 84  1  0
 44 85  1  0
 44 86  1  0
 44 87  1  0
 45 53  1  0
 45 46  1  0
 45 88  1  1
 46 47  2  0
 46 48  1  0
 48 49  1  6
 48 51  1  0
 48 52  1  0
 49 50  1  0
 49 89  1  0
 49 90  1  0
 50 91  1  0
 53 52  1  6
 54 55  1  1
M  END
>  <i_m_ct_stereo_status>  (71) 
1

>  <s_m_source_file>  (71) 
/var/tmp/pbs.5076253.sched01/tmptd9uf136/47e5u2q_zc.sdf

>  <i_m_source_file_index>  (71) 
45

>  <i_lp_mmshare_version>  (71) 
48012

>  <i_f3d_flags>  (71) 
0

>  <s_epik_input>  (71) 
W0NIM11PW0NAQEhdMVtDQEhdKE8yKU9bQ0BIXShbQ0BAXTEyW0NAQF0zNDUpW0NAXTYoW09IXSlbQ0BdKE9DNT1PKShbQ0BIXShPMylPW0NAQEhdNltDSDNdKVtDQEBIXTdbQ0BdKFtPSF0pKFtDQEBIXThbQ0BAXShPOCkoTzcpW0NIMl1bT0hdKVtDQF0xOVtDQF0yM1tDQF01KFtDQF0oTzIpKFtDSDJdNClPW0NAXTkoW09IXSlbQ0gyXUMxKEYpRilbQ0BASF0xQyhbQ0gzXSkoW0NIM10pW0NIMl1bQ0BIXTNPW0NAXShPNSkoQzE9TylbQ0gyXVtPSF0=

>  <s_epik_cmdline>  (71) 
J2VwaWtfcHl0aG9uJywgJy1waHQnLCAnMi4wJywgJy1waCcsICc3LjAnLCAnLXRuJywgJzgnLCAnLW1hJywgJzIwMCcsICctaW1hZScsICc8aW5maWxlLm1hZT4nLCAnLW9tYWUnLCAnPG91dGZpbGUubWFlPic=

>  <r_epik_Ionization_Penalty>  (71) 
0.00492244

>  <r_epik_Ionization_Penalty_Charging>  (71) 
0

>  <r_epik_Ionization_Penalty_Neutral>  (71) 
0.00492244

>  <r_epik_State_Penalty>  (71) 
0.0031969

>  <r_epik_Charging_Adjusted_Penalty>  (71) 
0.0031969

>  <i_epik_Tot_Q>  (71) 
0

>  <i_epik_Tot_abs_Q>  (71) 
0

>  <s_epik_Chemistry_Notes>  (71) 
This compound has an ester and may undergo hydrolysis at high or low pH. This compound contains an acetal/aminal-like group ( X-CH(R)-Y where X, Y are N, S, or O) that may be acid/base labile, releasing an aldehyde.

>  <s_lp_Force_Field>  (71) 
OPLS3e

>  <r_lp_Energy>  (71) 
225.627

>  <b_lp_Chiralities_Consistent>  (71) 
1

>  <s_lp_Variant>  (71) 
55:0-1

>  <s_i_glide_gridfile>  (71) 
pfpi4k_grid

>  <i_i_glide_lignum>  (71) 
45

>  <i_i_glide_rotatable_bonds>  (71) 
8

>  <r_i_docking_score>  (71) 
-3.66153

>  <r_i_glide_ligand_efficiency>  (71) 
-0.0665733

>  <r_i_glide_ligand_efficiency_sa>  (71) 
-0.253175

>  <r_i_glide_ligand_efficiency_ln>  (71) 
-0.731234

>  <r_i_glide_gscore>  (71) 
-3.66153

>  <r_i_glide_lipo>  (71) 
-0.061891

>  <r_i_glide_hbond>  (71) 
-0.153586

>  <r_i_glide_metal>  (71) 
-0

>  <r_i_glide_rewards>  (71) 
-0.765431

>  <r_i_glide_evdw>  (71) 
-24.3212

>  <r_i_glide_ecoul>  (71) 
-9.96912

>  <r_i_glide_erotb>  (71) 
0.0702551

>  <r_i_glide_esite>  (71) 
-0.0394511

>  <r_i_glide_emodel>  (71) 
-46.0533

>  <r_i_glide_energy>  (71) 
-34.2903

>  <r_i_glide_einternal>  (71) 
1.75804

>  <r_i_glide_intrahb_reward>  (71) 
-0.5

>  <i_i_glide_confnum>  (71) 
1

>  <i_i_glide_posenum>  (71) 
10

>  <r_i_glide_eff_state_penalty>  (71) 
0

>  <ligand_id>  (71) 
55

>  <original_smiles>  (71) 
COC1C2OC3C4(O)C(C)OC5OC6(CC78OC9(O)CC(F)(F)C9(C9(O)C%10OC%10(CO)OC9C54OC6=O)C4(O7)C5CC(C)(C)C6C(=O)C(CO)(O5)OC684)C13O2

>  <smiles>  (71) 
[H]OC([H])([H])C12OC3([H])C([H])([H])C(C([H])([H])[H])(C([H])([H])[H])C([H])(C1=O)C1(O2)C24OC5(O[H])C([H])([H])C(F)(F)C5(C5(O[H])C6([H])OC6(C([H])([H])O[H])OC5([H])C56OC(=O)C7(OC5([H])OC([H])(C([H])([H])[H])C6(O[H])C5([H])OC6([H])OC57C6([H])OC([H])([H])[H])C2([H])[H])C31O4

$$$$
55:0:2
     RDKit          3D

 91104  0  0  1  0  0  0  0  0999 V2000
   -1.6275   -3.6852   10.1207 C   0  0  0  0  0  0  0  0  0  0  0  0
   -0.6310   -3.1084    9.2799 O   0  0  0  0  0  0  0  0  0  0  0  0
    0.0141   -4.0819    8.4599 C   0  0  2  0  0  0  0  0  0  0  0  0
    0.9325   -5.0560    9.2121 C   0  0  1  0  0  0  0  0  0  0  0  0
    1.3845   -5.9806    8.2281 O   0  0  0  0  0  0  0  0  0  0  0  0
    2.0821   -5.0870    7.3840 C   0  0  1  0  0  0  0  0  0  0  0  0
    2.1327   -5.3505    5.7890 C   0  0  1  0  0  0  0  0  0  0  0  0
    3.1269   -6.3062    5.4795 O   0  0  0  0  0  0  0  0  0  0  0  0
    0.8058   -5.8091    5.1853 C   0  0  1  0  0  0  0  0  0  0  0  0
   -0.0151   -6.9052    5.8889 C   0  0  0  0  0  0  0  0  0  0  0  0
    0.0747   -4.6058    5.1648 O   0  0  0  0  0  0  0  0  0  0  0  0
    0.9367   -3.5127    5.0762 C   0  0  1  0  0  0  0  0  0  0  0  0
    0.7955   -2.6936    6.1563 O   0  0  0  0  0  0  0  0  0  0  0  0
    1.8276   -2.4921    7.1151 C   0  0  2  0  0  0  0  0  0  0  0  0
    1.6975   -0.9088    7.1623 C   0  0  0  0  0  0  0  0  0  0  0  0
    2.2371   -0.2592    5.7737 C   0  0  1  0  0  0  0  0  0  0  0  0
    3.6964   -0.2367    5.6344 O   0  0  0  0  0  0  0  0  0  0  0  0
    4.2938   -0.6665    4.3874 C   0  0  2  0  0  0  0  0  0  0  0  0
    5.2247   -1.7152    4.5274 O   0  0  0  0  0  0  0  0  0  0  0  0
    4.9213    0.5062    3.6215 C   0  0  0  0  0  0  0  0  0  0  0  0
    4.1960   -0.0162    2.3924 C   0  0  0  0  0  0  0  0  0  0  0  0
    3.6817    0.9169    1.5943 F   0  0  0  0  0  0  0  0  0  0  0  0
    5.0925   -0.7443    1.7279 F   0  0  0  0  0  0  0  0  0  0  0  0
    3.1952   -0.8017    3.2943 C   0  0  1  0  0  0  0  0  0  0  0  0
    2.7871   -2.3023    2.7272 C   0  0  1  0  0  0  0  0  0  0  0  0
    1.4517   -2.1717    2.2912 O   0  0  0  0  0  0  0  0  0  0  0  0
    3.3456   -2.7570    1.3898 C   0  0  1  0  0  0  0  0  0  0  0  0
    4.4861   -3.6364    1.3050 O   0  0  0  0  0  0  0  0  0  0  0  0
    3.1872   -4.2561    1.2991 C   0  0  2  0  0  0  0  0  0  0  0  0
    2.7960   -5.0899    0.0961 C   0  0  0  0  0  0  0  0  0  0  0  0
    1.8522   -4.4199   -0.7160 O   0  0  0  0  0  0  0  0  0  0  0  0
    2.7628   -4.7527    2.5638 O   0  0  0  0  0  0  0  0  0  0  0  0
    2.9322   -3.7127    3.5232 C   0  0  2  0  0  0  0  0  0  0  0  0
    2.3796   -4.0131    4.9827 C   0  0  2  0  0  0  0  0  0  0  0  0
    3.4312   -3.4006    5.7124 O   0  0  0  0  0  0  0  0  0  0  0  0
    3.2748   -2.7306    6.7802 C   0  0  0  0  0  0  0  0  0  0  0  0
    4.1813   -2.3698    7.5268 O   0  0  0  0  0  0  0  0  0  0  0  0
    1.9316    0.0880    3.7910 C   0  0  2  0  0  0  0  0  0  0  0  0
    1.5336   -0.9255    4.6847 O   0  0  0  0  0  0  0  0  0  0  0  0
    1.0420    0.7626    2.7389 C   0  0  1  0  0  0  0  0  0  0  0  0
   -0.4688    0.7871    3.0733 C   0  0  0  0  0  0  0  0  0  0  0  0
   -0.8479    1.0590    4.5613 C   0  0  0  0  0  0  0  0  0  0  0  0
   -2.0791    2.0104    4.5517 C   0  0  0  0  0  0  0  0  0  0  0  0
   -1.3617   -0.2209    5.2647 C   0  0  0  0  0  0  0  0  0  0  0  0
    0.3774    1.6749    5.3258 C   0  0  2  0  0  0  0  0  0  0  0  0
    0.6733    3.0108    4.7148 C   0  0  0  0  0  0  0  0  0  0  0  0
    0.0852    4.0544    5.0238 O   0  0  0  0  0  0  0  0  0  0  0  0
    1.8689    2.8551    3.8208 C   0  0  2  0  0  0  0  0  0  0  0  0
    2.6595    4.1073    3.4055 C   0  0  0  0  0  0  0  0  0  0  0  0
    1.8407    5.1339    2.8796 O   0  0  0  0  0  0  0  0  0  0  0  0
    1.5208    2.1296    2.6423 O   0  0  0  0  0  0  0  0  0  0  0  0
    2.6346    2.0572    4.6737 O   0  0  0  0  0  0  0  0  0  0  0  0
    1.7684    1.0027    5.0562 C   0  0  1  0  0  0  0  0  0  0  0  0
    1.4266   -3.7507    7.9596 C   0  0  1  0  0  0  0  0  0  0  0  0
    1.8764   -3.9611    9.3088 O   0  0  0  0  0  0  0  0  0  0  0  0
   -2.1282   -2.9050   10.6937 H   0  0  0  0  0  0  0  0  0  0  0  0
   -1.2028   -4.3708   10.8547 H   0  0  0  0  0  0  0  0  0  0  0  0
   -2.3817   -4.2236    9.5401 H   0  0  0  0  0  0  0  0  0  0  0  0
   -0.6326   -4.5539    7.7204 H   0  0  0  0  0  0  0  0  0  0  0  0
    0.5754   -5.4775   10.1477 H   0  0  0  0  0  0  0  0  0  0  0  0
    3.1128   -5.1605    7.7399 H   0  0  0  0  0  0  0  0  0  0  0  0
    2.9156   -7.1017    5.9487 H   0  0  0  0  0  0  0  0  0  0  0  0
    0.9931   -6.1317    4.1584 H   0  0  0  0  0  0  0  0  0  0  0  0
    0.5857   -7.7844    6.1241 H   0  0  0  0  0  0  0  0  0  0  0  0
   -0.8466   -7.2271    5.2612 H   0  0  0  0  0  0  0  0  0  0  0  0
   -0.4617   -6.5481    6.8134 H   0  0  0  0  0  0  0  0  0  0  0  0
    0.5529   -2.9833    4.2223 H   0  0  0  0  0  0  0  0  0  0  0  0
    0.6695   -0.6120    7.3758 H   0  0  0  0  0  0  0  0  0  0  0  0
    2.2883   -0.5126    7.9884 H   0  0  0  0  0  0  0  0  0  0  0  0
    5.4715   -2.0035    3.6604 H   0  0  0  0  0  0  0  0  0  0  0  0
    4.6249    1.4990    3.9312 H   0  0  0  0  0  0  0  0  0  0  0  0
    6.0112    0.4629    3.5349 H   0  0  0  0  0  0  0  0  0  0  0  0
    1.4344   -1.6020    1.5316 H   0  0  0  0  0  0  0  0  0  0  0  0
    3.1718   -2.1487    0.5064 H   0  0  0  0  0  0  0  0  0  0  0  0
    3.6761   -5.3535   -0.4772 H   0  0  0  0  0  0  0  0  0  0  0  0
    2.3341   -6.0138    0.4389 H   0  0  0  0  0  0  0  0  0  0  0  0
    1.9559   -4.7664   -1.5997 H   0  0  0  0  0  0  0  0  0  0  0  0
    4.0115   -3.8179    3.6495 H   0  0  0  0  0  0  0  0  0  0  0  0
    1.1694    0.3166    1.7514 H   0  0  0  0  0  0  0  0  0  0  0  0
   -0.9509    1.5036    2.3985 H   0  0  0  0  0  0  0  0  0  0  0  0
   -0.8814   -0.1782    2.8085 H   0  0  0  0  0  0  0  0  0  0  0  0
   -2.3748    2.3134    5.5576 H   0  0  0  0  0  0  0  0  0  0  0  0
   -2.9417    1.5338    4.0874 H   0  0  0  0  0  0  0  0  0  0  0  0
   -1.9232    2.9113    3.9526 H   0  0  0  0  0  0  0  0  0  0  0  0
   -1.4499   -0.0662    6.3408 H   0  0  0  0  0  0  0  0  0  0  0  0
   -0.7291   -1.0838    5.1083 H   0  0  0  0  0  0  0  0  0  0  0  0
   -2.3446   -0.5183    4.8955 H   0  0  0  0  0  0  0  0  0  0  0  0
    0.1727    1.8088    6.3939 H   0  0  0  0  0  0  0  0  0  0  0  0
    3.1808    4.5078    4.2749 H   0  0  0  0  0  0  0  0  0  0  0  0
    3.4129    3.8305    2.6707 H   0  0  0  0  0  0  0  0  0  0  0  0
    1.2967    4.7815    2.1760 H   0  0  0  0  0  0  0  0  0  0  0  0
  1  2  1  0
  1 56  1  0
  1 57  1  0
  1 58  1  0
  2  3  1  0
  3 54  1  0
  3  4  1  0
  3 59  1  6
  4 55  1  0
  4  5  1  0
  4 60  1  1
  5  6  1  0
  6 54  1  0
  6  7  1  0
  6 61  1  1
  7 34  1  0
  7  8  1  1
  7  9  1  0
  8 62  1  0
  9 10  1  0
  9 11  1  0
  9 63  1  6
 10 64  1  0
 10 65  1  0
 10 66  1  0
 11 12  1  0
 12 34  1  0
 12 13  1  0
 12 67  1  6
 13 14  1  0
 14 36  1  0
 14 15  1  1
 14 54  1  0
 15 16  1  0
 15 68  1  0
 15 69  1  0
 16 39  1  0
 16 53  1  0
 16 17  1  6
 17 18  1  0
 18 24  1  0
 18 19  1  1
 18 20  1  0
 19 70  1  0
 20 21  1  0
 20 71  1  0
 20 72  1  0
 21 22  1  0
 21 23  1  0
 24 21  1  6
 24 25  1  0
 24 38  1  0
 25 33  1  0
 25 26  1  6
 25 27  1  0
 26 73  1  0
 27 29  1  0
 27 28  1  0
 27 74  1  6
 28 29  1  0
 29 30  1  6
 29 32  1  0
 30 31  1  0
 30 75  1  0
 30 76  1  0
 31 77  1  0
 32 33  1  0
 33 34  1  0
 33 78  1  1
 34 35  1  1
 35 36  1  0
 36 37  2  0
 38 53  1  0
 38 39  1  1
 38 40  1  0
 40 51  1  0
 40 41  1  0
 40 79  1  6
 41 42  1  0
 41 80  1  0
 41 81  1  0
 42 43  1  0
 42 44  1  0
 42 45  1  0
 43 82  1  0
 43 83  1  0
 43 84  1  0
 44 85  1  0
 44 86  1  0
 44 87  1  0
 45 53  1  0
 45 46  1  0
 45 88  1  1
 46 47  2  0
 46 48  1  0
 48 49  1  6
 48 51  1  0
 48 52  1  0
 49 50  1  0
 49 89  1  0
 49 90  1  0
 50 91  1  0
 53 52  1  6
 54 55  1  1
M  END
>  <i_m_ct_stereo_status>  (72) 
1

>  <s_m_source_file>  (72) 
/var/tmp/pbs.5076253.sched01/tmptd9uf136/47e5u2q_zc.sdf

>  <i_m_source_file_index>  (72) 
45

>  <i_lp_mmshare_version>  (72) 
48012

>  <i_f3d_flags>  (72) 
0

>  <s_epik_input>  (72) 
W0NIM11PW0NAQEhdMVtDQEhdKE8yKU9bQ0BIXShbQ0BAXTEyW0NAQF0zNDUpW0NAXTYoW09IXSlbQ0BdKE9DNT1PKShbQ0BIXShPMylPW0NAQEhdNltDSDNdKVtDQEBIXTdbQ0BdKFtPSF0pKFtDQEBIXThbQ0BAXShPOCkoTzcpW0NIMl1bT0hdKVtDQF0xOVtDQF0yM1tDQF01KFtDQF0oTzIpKFtDSDJdNClPW0NAXTkoW09IXSlbQ0gyXUMxKEYpRilbQ0BASF0xQyhbQ0gzXSkoW0NIM10pW0NIMl1bQ0BIXTNPW0NAXShPNSkoQzE9TylbQ0gyXVtPSF0=

>  <s_epik_cmdline>  (72) 
J2VwaWtfcHl0aG9uJywgJy1waHQnLCAnMi4wJywgJy1waCcsICc3LjAnLCAnLXRuJywgJzgnLCAnLW1hJywgJzIwMCcsICctaW1hZScsICc8aW5maWxlLm1hZT4nLCAnLW9tYWUnLCAnPG91dGZpbGUubWFlPic=

>  <r_epik_Ionization_Penalty>  (72) 
0.00492244

>  <r_epik_Ionization_Penalty_Charging>  (72) 
0

>  <r_epik_Ionization_Penalty_Neutral>  (72) 
0.00492244

>  <r_epik_State_Penalty>  (72) 
0.0031969

>  <r_epik_Charging_Adjusted_Penalty>  (72) 
0.0031969

>  <i_epik_Tot_Q>  (72) 
0

>  <i_epik_Tot_abs_Q>  (72) 
0

>  <s_epik_Chemistry_Notes>  (72) 
This compound has an ester and may undergo hydrolysis at high or low pH. This compound contains an acetal/aminal-like group ( X-CH(R)-Y where X, Y are N, S, or O) that may be acid/base labile, releasing an aldehyde.

>  <s_lp_Force_Field>  (72) 
OPLS3e

>  <r_lp_Energy>  (72) 
225.627

>  <b_lp_Chiralities_Consistent>  (72) 
1

>  <s_lp_Variant>  (72) 
55:0-1

>  <s_i_glide_gridfile>  (72) 
pfpi4k_grid

>  <i_i_glide_lignum>  (72) 
45

>  <i_i_glide_rotatable_bonds>  (72) 
8

>  <r_i_docking_score>  (72) 
-3.1875

>  <r_i_glide_ligand_efficiency>  (72) 
-0.0579545

>  <r_i_glide_ligand_efficiency_sa>  (72) 
-0.220398

>  <r_i_glide_ligand_efficiency_ln>  (72) 
-0.636566

>  <r_i_glide_gscore>  (72) 
-3.1875

>  <r_i_glide_lipo>  (72) 
-0.0577901

>  <r_i_glide_hbond>  (72) 
-0.153274

>  <r_i_glide_metal>  (72) 
-0

>  <r_i_glide_rewards>  (72) 
-0.265478

>  <r_i_glide_evdw>  (72) 
-24.4418

>  <r_i_glide_ecoul>  (72) 
-10.1187

>  <r_i_glide_erotb>  (72) 
0.0702551

>  <r_i_glide_esite>  (72) 
-0.0413185

>  <r_i_glide_emodel>  (72) 
-39.8758

>  <r_i_glide_energy>  (72) 
-34.5605

>  <r_i_glide_einternal>  (72) 
2.70136

>  <r_i_glide_intrahb_reward>  (72) 
-0

>  <i_i_glide_confnum>  (72) 
1

>  <i_i_glide_posenum>  (72) 
13

>  <r_i_glide_eff_state_penalty>  (72) 
0

>  <ligand_id>  (72) 
55

>  <original_smiles>  (72) 
COC1C2OC3C4(O)C(C)OC5OC6(CC78OC9(O)CC(F)(F)C9(C9(O)C%10OC%10(CO)OC9C54OC6=O)C4(O7)C5CC(C)(C)C6C(=O)C(CO)(O5)OC684)C13O2

>  <smiles>  (72) 
[H]OC([H])([H])C12OC3([H])C([H])([H])C(C([H])([H])[H])(C([H])([H])[H])C([H])(C1=O)C1(O2)C24OC5(O[H])C([H])([H])C(F)(F)C5(C5(O[H])C6([H])OC6(C([H])([H])O[H])OC5([H])C56OC(=O)C7(OC5([H])OC([H])(C([H])([H])[H])C6(O[H])C5([H])OC6([H])OC57C6([H])OC([H])([H])[H])C2([H])[H])C31O4

$$$$
58:0:0
     RDKit          3D

 96110  0  0  1  0  0  0  0  0999 V2000
    2.1911   -6.2332   10.4917 C   0  0  0  0  0  0  0  0  0  0  0  0
    2.2575   -5.2326    9.3327 C   0  0  1  0  0  0  0  0  0  0  0  0
    3.6052   -5.1583    8.8038 O   0  0  0  0  0  0  0  0  0  0  0  0
    3.9141   -3.9112    8.1205 C   0  0  2  0  0  0  0  0  0  0  0  0
    3.2645   -2.8515    8.6774 O   0  0  0  0  0  0  0  0  0  0  0  0
    1.9458   -3.2450    8.5663 C   0  0  2  0  0  0  0  0  0  0  0  0
    1.1883   -4.1616    6.9137 C   0  0  0  0  0  0  0  0  0  0  0  0
    2.0495   -5.1251    6.8556 C   0  0  2  0  0  0  0  0  0  0  0  0
    1.0747   -5.3002    8.2835 C   0  0  2  0  0  0  0  0  0  0  0  0
    0.1475   -3.8768    8.7222 O   0  0  0  0  0  0  0  0  0  0  0  0
    0.9714   -2.4638    8.4269 C   0  0  2  0  0  0  0  0  0  0  0  0
    1.8600   -1.6906    7.0246 C   0  0  1  0  0  0  0  0  0  0  0  0
    0.9455   -0.6303    6.1706 C   0  0  1  0  0  0  0  0  0  0  0  0
   -0.0138   -1.6320    5.8320 O   0  0  0  0  0  0  0  0  0  0  0  0
   -0.1425    0.3850    7.0399 C   0  0  1  0  0  0  0  0  0  0  0  0
   -0.1881    0.0896    8.4179 O   0  0  0  0  0  0  0  0  0  0  0  0
   -0.1713    2.0529    6.9863 C   0  0  2  0  0  0  0  0  0  0  0  0
   -0.9560    2.4617    5.6107 C   0  0  1  0  0  0  0  0  0  0  0  0
    0.0464    2.8404    4.8064 O   0  0  0  0  0  0  0  0  0  0  0  0
    0.1473    3.3580    3.5549 C   0  0  2  0  0  0  0  0  0  0  0  0
   -0.2974    2.4344    2.6696 O   0  0  0  0  0  0  0  0  0  0  0  0
   -1.6525    2.2143    3.0385 C   0  0  1  0  0  0  0  0  0  0  0  0
   -1.5662    1.5321    4.4746 C   0  0  1  0  0  0  0  0  0  0  0  0
   -0.8802    0.2834    4.2364 O   0  0  0  0  0  0  0  0  0  0  0  0
    0.4869    0.1105    3.7354 C   0  0  1  0  0  0  0  0  0  0  0  0
    0.6955    0.0735    2.1827 C   0  0  0  0  0  0  0  0  0  0  0  0
    1.3330   -1.0939    1.6790 O   0  0  0  0  0  0  0  0  0  0  0  0
    1.6892    0.1380    4.7929 C   0  0  2  0  0  0  0  0  0  0  0  0
    2.0411    1.1330    5.8035 C   0  0  0  0  0  0  0  0  0  0  0  0
    2.1754    2.5492    5.5859 O   0  0  0  0  0  0  0  0  0  0  0  0
    2.9669    3.7145    5.4503 C   0  0  0  0  0  0  0  0  0  0  0  0
    4.1509    4.0473    5.5311 O   0  0  0  0  0  0  0  0  0  0  0  0
    1.9266    4.5108    5.0153 C   0  0  1  0  0  0  0  0  0  0  0  0
    0.6695    4.9858    5.6402 O   0  0  0  0  0  0  0  0  0  0  0  0
    1.4222    4.4865    6.6690 C   0  0  1  0  0  0  0  0  0  0  0  0
    1.1381    3.1078    7.6148 C   0  0  1  0  0  0  0  0  0  0  0  0
    0.6006    3.6167    8.8273 O   0  0  0  0  0  0  0  0  0  0  0  0
    2.7989    2.4731    8.0501 C   0  0  0  0  0  0  0  0  0  0  0  0
    3.5585    3.6114    8.7838 C   0  0  0  0  0  0  0  0  0  0  0  0
    2.6641    1.3499    9.1143 C   0  0  0  0  0  0  0  0  0  0  0  0
    4.0465    1.9237    7.0997 O   0  0  0  0  0  0  0  0  0  0  0  0
    4.3869    1.3249    5.5766 C   0  0  0  0  0  0  0  0  0  0  0  0
    3.1310    0.9795    4.2545 C   0  0  1  0  0  0  0  0  0  0  0  0
    3.9224    0.1660    3.1771 C   0  0  0  0  0  0  0  0  0  0  0  0
    3.5897    0.4549    1.8457 O   0  0  0  0  0  0  0  0  0  0  0  0
    2.6022    2.2614    3.3559 O   0  0  0  0  0  0  0  0  0  0  0  0
    1.7161    3.6100    3.5679 C   0  0  1  0  0  0  0  0  0  0  0  0
    2.0229    4.4752    2.4948 O   0  0  0  0  0  0  0  0  0  0  0  0
   -2.0812    3.6786    2.9485 C   0  0  1  0  0  0  0  0  0  0  0  0
   -2.0765    4.5435    4.0876 O   0  0  0  0  0  0  0  0  0  0  0  0
   -0.8647    4.4700    3.3254 C   0  0  1  0  0  0  0  0  0  0  0  0
    3.4731   -1.7684    6.4131 C   0  0  0  0  0  0  0  0  0  0  0  0
    3.9564   -3.1596    5.8516 O   0  0  0  0  0  0  0  0  0  0  0  0
    3.2425   -3.8992    6.7360 C   0  0  2  0  0  0  0  0  0  0  0  0
    2.5713   -2.6517    6.2512 O   0  0  0  0  0  0  0  0  0  0  0  0
    1.9818   -3.9946    9.7902 O   0  0  0  0  0  0  0  0  0  0  0  0
    2.9264   -5.9656   11.2465 H   0  0  0  0  0  0  0  0  0  0  0  0
    2.3979   -7.2429   10.1377 H   0  0  0  0  0  0  0  0  0  0  0  0
    1.2040   -6.2081   10.9474 H   0  0  0  0  0  0  0  0  0  0  0  0
    4.9948   -3.7636    8.0763 H   0  0  0  0  0  0  0  0  0  0  0  0
    0.0982   -4.3873    6.6892 H   0  0  0  0  0  0  0  0  0  0  0  0
    1.0145   -3.8063    5.8836 H   0  0  0  0  0  0  0  0  0  0  0  0
    1.8848   -5.7492    5.9682 H   0  0  0  0  0  0  0  0  0  0  0  0
    0.5334   -6.2510    8.3567 H   0  0  0  0  0  0  0  0  0  0  0  0
    0.9651   -1.8266    9.3236 H   0  0  0  0  0  0  0  0  0  0  0  0
    0.4285   -2.2586    5.2773 H   0  0  0  0  0  0  0  0  0  0  0  0
   -1.1540    0.1199    6.7233 H   0  0  0  0  0  0  0  0  0  0  0  0
    0.5720    0.4611    8.8393 H   0  0  0  0  0  0  0  0  0  0  0  0
   -0.9747    2.2742    7.6900 H   0  0  0  0  0  0  0  0  0  0  0  0
   -1.6030    3.2943    5.8679 H   0  0  0  0  0  0  0  0  0  0  0  0
   -2.2003    1.6206    2.3011 H   0  0  0  0  0  0  0  0  0  0  0  0
   -2.5768    1.2723    4.7857 H   0  0  0  0  0  0  0  0  0  0  0  0
    0.3574   -0.9620    3.7188 H   0  0  0  0  0  0  0  0  0  0  0  0
   -0.2776    0.1204    1.7026 H   0  0  0  0  0  0  0  0  0  0  0  0
    1.2454    0.9189    1.7931 H   0  0  0  0  0  0  0  0  0  0  0  0
    1.2848   -1.0567    0.7196 H   0  0  0  0  0  0  0  0  0  0  0  0
    1.7704    1.1261    6.8057 H   0  0  0  0  0  0  0  0  0  0  0  0
    2.6854    0.5266    6.4128 H   0  0  0  0  0  0  0  0  0  0  0  0
    1.8194    5.3092    7.2874 H   0  0  0  0  0  0  0  0  0  0  0  0
    1.2084    4.2386    9.2007 H   0  0  0  0  0  0  0  0  0  0  0  0
    3.0115    4.0058    9.6392 H   0  0  0  0  0  0  0  0  0  0  0  0
    3.7884    4.4477    8.1272 H   0  0  0  0  0  0  0  0  0  0  0  0
    4.5188    3.2647    9.1698 H   0  0  0  0  0  0  0  0  0  0  0  0
    1.9145    1.5847    9.8696 H   0  0  0  0  0  0  0  0  0  0  0  0
    3.6016    1.1891    9.6476 H   0  0  0  0  0  0  0  0  0  0  0  0
    2.4138    0.3858    8.6848 H   0  0  0  0  0  0  0  0  0  0  0  0
    5.1790    1.9394    5.1554 H   0  0  0  0  0  0  0  0  0  0  0  0
    4.9509    0.4151    5.7936 H   0  0  0  0  0  0  0  0  0  0  0  0
    4.9784    0.4074    3.2757 H   0  0  0  0  0  0  0  0  0  0  0  0
    3.8135   -0.9011    3.3635 H   0  0  0  0  0  0  0  0  0  0  0  0
    3.4958    1.3912    1.7679 H   0  0  0  0  0  0  0  0  0  0  0  0
    1.3245    4.3831    1.8338 H   0  0  0  0  0  0  0  0  0  0  0  0
   -2.6757    4.0106    2.0962 H   0  0  0  0  0  0  0  0  0  0  0  0
   -0.5994    5.3288    2.7094 H   0  0  0  0  0  0  0  0  0  0  0  0
    3.6822   -1.0665    5.5928 H   0  0  0  0  0  0  0  0  0  0  0  0
    4.1619   -1.3689    7.1720 H   0  0  0  0  0  0  0  0  0  0  0  0
  2  1  1  1
  1 57  1  0
  1 58  1  0
  1 59  1  0
  2  9  1  0
  2 56  1  0
  2  3  1  0
  3  4  1  0
  4 54  1  0
  4  5  1  0
  4 60  1  6
  6  5  1  6
  6 11  1  0
  6  7  1  0
  6 56  1  0
  7  8  1  0
  7 61  1  0
  7 62  1  0
  8 54  1  0
  8  9  1  0
  8 63  1  6
  9 10  1  0
  9 64  1  6
 10 11  1  0
 11 12  1  0
 11 65  1  1
 12 55  1  0
 12 13  1  0
 12 52  1  1
 13 28  1  0
 13 14  1  6
 13 15  1  0
 14 66  1  0
 15 16  1  0
 15 17  1  0
 15 67  1  6
 16 68  1  0
 17 36  1  0
 17 18  1  0
 17 69  1  1
 18 23  1  0
 18 19  1  0
 18 70  1  1
 20 19  1  1
 20 47  1  0
 20 51  1  0
 20 21  1  0
 21 22  1  0
 22 23  1  0
 22 49  1  0
 22 71  1  6
 23 24  1  0
 23 72  1  1
 24 25  1  0
 25 26  1  0
 25 28  1  0
 25 73  1  1
 26 27  1  0
 26 74  1  0
 26 75  1  0
 27 76  1  0
 28 43  1  0
 28 29  1  6
 29 30  1  0
 29 77  1  0
 29 78  1  0
 30 31  1  0
 31 32  2  0
 31 33  1  0
 33 35  1  0
 33 47  1  0
 33 34  1  6
 34 35  1  0
 35 36  1  0
 35 79  1  1
 36 37  1  1
 36 38  1  0
 37 80  1  0
 38 39  1  0
 38 40  1  0
 38 41  1  0
 39 81  1  0
 39 82  1  0
 39 83  1  0
 40 84  1  0
 40 85  1  0
 40 86  1  0
 41 42  1  0
 42 43  1  0
 42 87  1  0
 42 88  1  0
 43 44  1  6
 43 46  1  0
 44 45  1  0
 44 89  1  0
 44 90  1  0
 45 91  1  0
 46 47  1  0
 47 48  1  6
 48 92  1  0
 49 51  1  0
 49 50  1  0
 49 93  1  6
 50 51  1  0
 51 94  1  6
 52 53  1  0
 52 95  1  0
 52 96  1  0
 54 53  1  6
 54 55  1  0
M  END
>  <i_m_ct_stereo_status>  (73) 
1

>  <s_m_source_file>  (73) 
/var/tmp/pbs.5076253.sched01/tmp0k8q0ypy/944rjgrua_.sdf

>  <i_m_source_file_index>  (73) 
6

>  <i_lp_mmshare_version>  (73) 
48012

>  <i_f3d_flags>  (73) 
2

>  <s_epik_input>  (73) 
W0NIMl0xW0NAQEhdMltDSF0oTzMpW0NAQF0oTzQpKFtDSDNdKU9bQ0BIXShPNSlbQ0BAXTIoTzYpT1tDSDJdW0NAQF02KFtDQEBIXTNDMTQ1KVtDQEBdKFtPSF0pKFtDQEhdN1tPSF0pW0NAXShbQ0gyXU9DOD1PKShbQ0BAXShPOSkoW0NIMl1bT0hdKVtDSDJdT0MxKFtDSDNdKVtDSDNdKVtDQEhdKFtDSDJdW09IXSlPW0NAQEhdKFtDQEBIXShPMilbQ0BASF0zW0NASF00TzMpW0NAQEhdKE8zKVtDQEhdN1tDQEBdMShbT0hdKVtDQEhdKE8xKUMxOFtDQF05KFtDQF0yMzQpW09IXQ==

>  <s_epik_cmdline>  (73) 
J2VwaWtfcHl0aG9uJywgJy1waHQnLCAnMi4wJywgJy1waCcsICc3LjAnLCAnLXRuJywgJzgnLCAnLW1hJywgJzIwMCcsICctaW1hZScsICc8aW5maWxlLm1hZT4nLCAnLW9tYWUnLCAnPG91dGZpbGUubWFlPic=

>  <r_epik_Ionization_Penalty>  (73) 
0.00744865

>  <r_epik_Ionization_Penalty_Charging>  (73) 
0

>  <r_epik_Ionization_Penalty_Neutral>  (73) 
0.00744865

>  <r_epik_State_Penalty>  (73) 
0.00554874

>  <r_epik_Charging_Adjusted_Penalty>  (73) 
0.00554874

>  <i_epik_Tot_Q>  (73) 
0

>  <i_epik_Tot_abs_Q>  (73) 
0

>  <s_epik_Chemistry_Notes>  (73) 
This compound has an ester and may undergo hydrolysis at high or low pH. This compound contains an acetal/aminal-like group ( X-CH(R)-Y where X, Y are N, S, or O) that may be acid/base labile, releasing an aldehyde.

>  <s_lp_Force_Field>  (73) 
OPLS3e

>  <r_lp_Energy>  (73) 
1671.68

>  <b_lp_Chiralities_Consistent>  (73) 
0

>  <s_lp_Variant>  (73) 
58:0-1

>  <s_i_glide_gridfile>  (73) 
pfpi4k_grid

>  <i_i_glide_lignum>  (73) 
6

>  <i_i_glide_rotatable_bonds>  (73) 
9

>  <r_i_docking_score>  (73) 
-3.30296

>  <r_i_glide_ligand_efficiency>  (73) 
-0.0589815

>  <r_i_glide_ligand_efficiency_sa>  (73) 
-0.225655

>  <r_i_glide_ligand_efficiency_ln>  (73) 
-0.65726

>  <r_i_glide_gscore>  (73) 
-3.30296

>  <r_i_glide_lipo>  (73) 
-0.00372156

>  <r_i_glide_hbond>  (73) 
-0.122801

>  <r_i_glide_metal>  (73) 
-0

>  <r_i_glide_rewards>  (73) 
0

>  <r_i_glide_evdw>  (73) 
-19.8805

>  <r_i_glide_ecoul>  (73) 
-14.2567

>  <r_i_glide_erotb>  (73) 
0.102888

>  <r_i_glide_esite>  (73) 
-0.146802

>  <r_i_glide_emodel>  (73) 
-36.0943

>  <r_i_glide_energy>  (73) 
-34.1372

>  <r_i_glide_einternal>  (73) 
12.044

>  <r_i_glide_intrahb_reward>  (73) 
-0

>  <i_i_glide_confnum>  (73) 
2

>  <i_i_glide_posenum>  (73) 
19

>  <r_i_glide_eff_state_penalty>  (73) 
0

>  <ligand_id>  (73) 
58

>  <original_smiles>  (73) 
CC12OC3OC4(CC5C1OC4C1(C4(O)C(O)C6C7OC89OC(C7OC(CO)C47COC(=O)C4%10OC4C6(O)C(C)(C)OCC7(CO)OC8%10O)C4OC49)COC35O1)O2

>  <smiles>  (73) 
[H]OC([H])([H])C1([H])OC2([H])C3([H])OC4(OC2([H])C2([H])C([H])(O[H])C(O[H])(C56OC7(OC5([H])[H])C5([H])OC8(C([H])([H])[H])OC9(O5)C([H])([H])C7([H])C8([H])OC96[H])C15C([H])([H])OC(=O)C16OC1([H])C2(O[H])C(C([H])([H])[H])(C([H])([H])[H])OC([H])([H])C5(C([H])([H])O[H])OC46O[H])C1([H])OC31[H]

$$$$
58:0:1
     RDKit          3D

 96110  0  0  1  0  0  0  0  0999 V2000
    2.0123   -6.4122   10.4455 C   0  0  0  0  0  0  0  0  0  0  0  0
    2.1108   -5.4097    9.3068 C   0  0  1  0  0  0  0  0  0  0  0  0
    3.4559   -5.3706    8.7723 O   0  0  0  0  0  0  0  0  0  0  0  0
    3.8056   -4.1263    8.1041 C   0  0  2  0  0  0  0  0  0  0  0  0
    3.1970   -3.0466    8.6850 O   0  0  0  0  0  0  0  0  0  0  0  0
    1.8583   -3.4030    8.5570 C   0  0  2  0  0  0  0  0  0  0  0  0
    1.0818   -4.3058    6.8963 C   0  0  0  0  0  0  0  0  0  0  0  0
    1.9251   -5.2858    6.8318 C   0  0  2  0  0  0  0  0  0  0  0  0
    0.9318   -5.4184    8.2632 C   0  0  2  0  0  0  0  0  0  0  0  0
    0.0522   -3.9484    8.7001 O   0  0  0  0  0  0  0  0  0  0  0  0
    0.9369   -2.5833    8.4271 C   0  0  2  0  0  0  0  0  0  0  0  0
    1.8632   -1.8337    7.0263 C   0  0  1  0  0  0  0  0  0  0  0  0
    0.9893   -0.7454    6.1695 C   0  0  1  0  0  0  0  0  0  0  0  0
   -0.0059   -1.7019    5.8581 O   0  0  0  0  0  0  0  0  0  0  0  0
   -0.0528    0.3048    7.0406 C   0  0  1  0  0  0  0  0  0  0  0  0
   -0.1281    0.0097    8.4145 O   0  0  0  0  0  0  0  0  0  0  0  0
   -0.0233    1.9713    6.9906 C   0  0  2  0  0  0  0  0  0  0  0  0
   -0.8226    2.4166    5.6296 C   0  0  1  0  0  0  0  0  0  0  0  0
    0.1965    2.7884    4.8452 O   0  0  0  0  0  0  0  0  0  0  0  0
    0.3149    3.2805    3.5715 C   0  0  2  0  0  0  0  0  0  0  0  0
   -0.1520    2.3571    2.6931 O   0  0  0  0  0  0  0  0  0  0  0  0
   -1.5158    2.2119    3.0697 C   0  0  1  0  0  0  0  0  0  0  0  0
   -1.4544    1.5138    4.4954 C   0  0  1  0  0  0  0  0  0  0  0  0
   -0.8267    0.2378    4.2800 O   0  0  0  0  0  0  0  0  0  0  0  0
    0.5234    0.0029    3.7556 C   0  0  1  0  0  0  0  0  0  0  0  0
    0.6874   -0.0511    2.1883 C   0  0  0  0  0  0  0  0  0  0  0  0
    1.3808   -1.1618    1.6666 O   0  0  0  0  0  0  0  0  0  0  0  0
    1.7411   -0.0171    4.7893 C   0  0  2  0  0  0  0  0  0  0  0  0
    2.1319    0.9626    5.7798 C   0  0  0  0  0  0  0  0  0  0  0  0
    2.3026    2.3733    5.5714 O   0  0  0  0  0  0  0  0  0  0  0  0
    3.1322    3.5111    5.4298 C   0  0  0  0  0  0  0  0  0  0  0  0
    4.3233    3.8163    5.5356 O   0  0  0  0  0  0  0  0  0  0  0  0
    2.1379    4.3638    5.0009 C   0  0  1  0  0  0  0  0  0  0  0  0
    0.9080    4.8781    5.6741 O   0  0  0  0  0  0  0  0  0  0  0  0
    1.6654    4.3334    6.6635 C   0  0  1  0  0  0  0  0  0  0  0  0
    1.3362    2.9736    7.6157 C   0  0  1  0  0  0  0  0  0  0  0  0
    0.8576    3.5281    8.8168 O   0  0  0  0  0  0  0  0  0  0  0  0
    2.9610    2.2695    8.0341 C   0  0  0  0  0  0  0  0  0  0  0  0
    3.7697    3.3749    8.7593 C   0  0  0  0  0  0  0  0  0  0  0  0
    2.7877    1.1586    9.0978 C   0  0  0  0  0  0  0  0  0  0  0  0
    4.1750    1.6925    7.0711 O   0  0  0  0  0  0  0  0  0  0  0  0
    4.4815    1.0803    5.5591 C   0  0  0  0  0  0  0  0  0  0  0  0
    3.2117    0.7826    4.2556 C   0  0  1  0  0  0  0  0  0  0  0  0
    4.0058   -0.0653    3.2220 C   0  0  0  0  0  0  0  0  0  0  0  0
    3.6896    0.1316    1.8643 O   0  0  0  0  0  0  0  0  0  0  0  0
    2.7239    2.0757    3.3387 O   0  0  0  0  0  0  0  0  0  0  0  0
    1.8838    3.4645    3.5532 C   0  0  1  0  0  0  0  0  0  0  0  0
    2.2121    4.3197    2.4788 O   0  0  0  0  0  0  0  0  0  0  0  0
   -1.9053    3.6854    2.9966 C   0  0  1  0  0  0  0  0  0  0  0  0
   -1.8495    4.5310    4.1344 O   0  0  0  0  0  0  0  0  0  0  0  0
   -0.6504    4.4252    3.3646 C   0  0  1  0  0  0  0  0  0  0  0  0
    3.4647   -2.0283    6.3759 C   0  0  0  0  0  0  0  0  0  0  0  0
    3.9015   -3.4604    5.8585 O   0  0  0  0  0  0  0  0  0  0  0  0
    3.1147   -4.0758    6.7201 C   0  0  2  0  0  0  0  0  0  0  0  0
    2.4933   -2.8146    6.2298 O   0  0  0  0  0  0  0  0  0  0  0  0
    1.8726   -4.1647    9.7882 O   0  0  0  0  0  0  0  0  0  0  0  0
    2.7570   -6.1793   11.2121 H   0  0  0  0  0  0  0  0  0  0  0  0
    2.1786   -7.4276   10.0982 H   0  0  0  0  0  0  0  0  0  0  0  0
    1.0282   -6.3487   10.9111 H   0  0  0  0  0  0  0  0  0  0  0  0
    4.8929   -4.0278    8.0608 H   0  0  0  0  0  0  0  0  0  0  0  0
   -0.0218   -4.5154    6.6719 H   0  0  0  0  0  0  0  0  0  0  0  0
    0.8837   -3.9385    5.8723 H   0  0  0  0  0  0  0  0  0  0  0  0
    1.7346   -5.8806    5.9408 H   0  0  0  0  0  0  0  0  0  0  0  0
    0.3543   -6.3343    8.3170 H   0  0  0  0  0  0  0  0  0  0  0  0
    0.9514   -1.9491    9.3071 H   0  0  0  0  0  0  0  0  0  0  0  0
    0.3975   -2.3329    5.2882 H   0  0  0  0  0  0  0  0  0  0  0  0
   -1.0639    0.0815    6.7120 H   0  0  0  0  0  0  0  0  0  0  0  0
    0.6535    0.3209    8.8430 H   0  0  0  0  0  0  0  0  0  0  0  0
   -0.7946    2.2208    7.7045 H   0  0  0  0  0  0  0  0  0  0  0  0
   -1.4398    3.2737    5.8946 H   0  0  0  0  0  0  0  0  0  0  0  0
   -2.0776    1.6521    2.3115 H   0  0  0  0  0  0  0  0  0  0  0  0
   -2.4734    1.3239    4.7898 H   0  0  0  0  0  0  0  0  0  0  0  0
    0.3602   -1.0642    3.7304 H   0  0  0  0  0  0  0  0  0  0  0  0
   -0.3135    0.0505    1.7290 H   0  0  0  0  0  0  0  0  0  0  0  0
    1.2537    0.7697    1.7751 H   0  0  0  0  0  0  0  0  0  0  0  0
    1.2566   -1.1193    0.7056 H   0  0  0  0  0  0  0  0  0  0  0  0
    1.8861    0.9723    6.7729 H   0  0  0  0  0  0  0  0  0  0  0  0
    2.7710    0.3324    6.3995 H   0  0  0  0  0  0  0  0  0  0  0  0
    2.1202    5.1018    7.2778 H   0  0  0  0  0  0  0  0  0  0  0  0
    0.6634    2.8413    9.4298 H   0  0  0  0  0  0  0  0  0  0  0  0
    3.2427    3.7954    9.6156 H   0  0  0  0  0  0  0  0  0  0  0  0
    4.0336    4.2020    8.1053 H   0  0  0  0  0  0  0  0  0  0  0  0
    4.7137    2.9872    9.1433 H   0  0  0  0  0  0  0  0  0  0  0  0
    2.0649    1.4292    9.8712 H   0  0  0  0  0  0  0  0  0  0  0  0
    3.7254    0.9658    9.6202 H   0  0  0  0  0  0  0  0  0  0  0  0
    2.4918    0.2002    8.6787 H   0  0  0  0  0  0  0  0  0  0  0  0
    5.2685    1.6892    5.1097 H   0  0  0  0  0  0  0  0  0  0  0  0
    5.0142    0.1491    5.7593 H   0  0  0  0  0  0  0  0  0  0  0  0
    5.0614    0.1978    3.2920 H   0  0  0  0  0  0  0  0  0  0  0  0
    3.8643   -1.1226    3.4284 H   0  0  0  0  0  0  0  0  0  0  0  0
    2.7757   -0.0906    1.7271 H   0  0  0  0  0  0  0  0  0  0  0  0
    1.5616    4.1728    1.7893 H   0  0  0  0  0  0  0  0  0  0  0  0
   -2.4305    4.0498    2.1257 H   0  0  0  0  0  0  0  0  0  0  0  0
   -0.3432    5.2668    2.7748 H   0  0  0  0  0  0  0  0  0  0  0  0
    3.7157   -1.3530    5.5344 H   0  0  0  0  0  0  0  0  0  0  0  0
    4.1545   -1.6422    7.1374 H   0  0  0  0  0  0  0  0  0  0  0  0
  2  1  1  1
  1 57  1  0
  1 58  1  0
  1 59  1  0
  2  9  1  0
  2 56  1  0
  2  3  1  0
  3  4  1  0
  4 54  1  0
  4  5  1  0
  4 60  1  6
  6  5  1  6
  6 11  1  0
  6  7  1  0
  6 56  1  0
  7  8  1  0
  7 61  1  0
  7 62  1  0
  8 54  1  0
  8  9  1  0
  8 63  1  6
  9 10  1  0
  9 64  1  6
 10 11  1  0
 11 12  1  0
 11 65  1  1
 12 55  1  0
 12 13  1  0
 12 52  1  1
 13 28  1  0
 13 14  1  6
 13 15  1  0
 14 66  1  0
 15 16  1  0
 15 17  1  0
 15 67  1  6
 16 68  1  0
 17 36  1  0
 17 18  1  0
 17 69  1  1
 18 23  1  0
 18 19  1  0
 18 70  1  1
 20 19  1  1
 20 47  1  0
 20 51  1  0
 20 21  1  0
 21 22  1  0
 22 23  1  0
 22 49  1  0
 22 71  1  6
 23 24  1  0
 23 72  1  1
 24 25  1  0
 25 26  1  0
 25 28  1  0
 25 73  1  1
 26 27  1  0
 26 74  1  0
 26 75  1  0
 27 76  1  0
 28 43  1  0
 28 29  1  6
 29 30  1  0
 29 77  1  0
 29 78  1  0
 30 31  1  0
 31 32  2  0
 31 33  1  0
 33 35  1  0
 33 47  1  0
 33 34  1  6
 34 35  1  0
 35 36  1  0
 35 79  1  1
 36 37  1  1
 36 38  1  0
 37 80  1  0
 38 39  1  0
 38 40  1  0
 38 41  1  0
 39 81  1  0
 39 82  1  0
 39 83  1  0
 40 84  1  0
 40 85  1  0
 40 86  1  0
 41 42  1  0
 42 43  1  0
 42 87  1  0
 42 88  1  0
 43 44  1  6
 43 46  1  0
 44 45  1  0
 44 89  1  0
 44 90  1  0
 45 91  1  0
 46 47  1  0
 47 48  1  6
 48 92  1  0
 49 51  1  0
 49 50  1  0
 49 93  1  6
 50 51  1  0
 51 94  1  6
 52 53  1  0
 52 95  1  0
 52 96  1  0
 54 53  1  6
 54 55  1  0
M  END
>  <i_m_ct_stereo_status>  (74) 
1

>  <s_m_source_file>  (74) 
/var/tmp/pbs.5076253.sched01/tmp0k8q0ypy/944rjgrua_.sdf

>  <i_m_source_file_index>  (74) 
6

>  <i_lp_mmshare_version>  (74) 
48012

>  <i_f3d_flags>  (74) 
2

>  <s_epik_input>  (74) 
W0NIMl0xW0NAQEhdMltDSF0oTzMpW0NAQF0oTzQpKFtDSDNdKU9bQ0BIXShPNSlbQ0BAXTIoTzYpT1tDSDJdW0NAQF02KFtDQEBIXTNDMTQ1KVtDQEBdKFtPSF0pKFtDQEhdN1tPSF0pW0NAXShbQ0gyXU9DOD1PKShbQ0BAXShPOSkoW0NIMl1bT0hdKVtDSDJdT0MxKFtDSDNdKVtDSDNdKVtDQEhdKFtDSDJdW09IXSlPW0NAQEhdKFtDQEBIXShPMilbQ0BASF0zW0NASF00TzMpW0NAQEhdKE8zKVtDQEhdN1tDQEBdMShbT0hdKVtDQEhdKE8xKUMxOFtDQF05KFtDQF0yMzQpW09IXQ==

>  <s_epik_cmdline>  (74) 
J2VwaWtfcHl0aG9uJywgJy1waHQnLCAnMi4wJywgJy1waCcsICc3LjAnLCAnLXRuJywgJzgnLCAnLW1hJywgJzIwMCcsICctaW1hZScsICc8aW5maWxlLm1hZT4nLCAnLW9tYWUnLCAnPG91dGZpbGUubWFlPic=

>  <r_epik_Ionization_Penalty>  (74) 
0.00744865

>  <r_epik_Ionization_Penalty_Charging>  (74) 
0

>  <r_epik_Ionization_Penalty_Neutral>  (74) 
0.00744865

>  <r_epik_State_Penalty>  (74) 
0.00554874

>  <r_epik_Charging_Adjusted_Penalty>  (74) 
0.00554874

>  <i_epik_Tot_Q>  (74) 
0

>  <i_epik_Tot_abs_Q>  (74) 
0

>  <s_epik_Chemistry_Notes>  (74) 
This compound has an ester and may undergo hydrolysis at high or low pH. This compound contains an acetal/aminal-like group ( X-CH(R)-Y where X, Y are N, S, or O) that may be acid/base labile, releasing an aldehyde.

>  <s_lp_Force_Field>  (74) 
OPLS3e

>  <r_lp_Energy>  (74) 
1671.68

>  <b_lp_Chiralities_Consistent>  (74) 
0

>  <s_lp_Variant>  (74) 
58:0-1

>  <s_i_glide_gridfile>  (74) 
pfpi4k_grid

>  <i_i_glide_lignum>  (74) 
6

>  <i_i_glide_rotatable_bonds>  (74) 
9

>  <r_i_docking_score>  (74) 
-3.19801

>  <r_i_glide_ligand_efficiency>  (74) 
-0.0571073

>  <r_i_glide_ligand_efficiency_sa>  (74) 
-0.218485

>  <r_i_glide_ligand_efficiency_ln>  (74) 
-0.636375

>  <r_i_glide_gscore>  (74) 
-3.19801

>  <r_i_glide_lipo>  (74) 
-0.019549

>  <r_i_glide_hbond>  (74) 
-0.12236

>  <r_i_glide_metal>  (74) 
-0

>  <r_i_glide_rewards>  (74) 
0

>  <r_i_glide_evdw>  (74) 
-22.2395

>  <r_i_glide_ecoul>  (74) 
-12.7916

>  <r_i_glide_erotb>  (74) 
0.102888

>  <r_i_glide_esite>  (74) 
-0.128282

>  <r_i_glide_emodel>  (74) 
-35.7613

>  <r_i_glide_energy>  (74) 
-35.031

>  <r_i_glide_einternal>  (74) 
12.0308

>  <r_i_glide_intrahb_reward>  (74) 
-0

>  <i_i_glide_confnum>  (74) 
3

>  <i_i_glide_posenum>  (74) 
15

>  <r_i_glide_eff_state_penalty>  (74) 
0

>  <ligand_id>  (74) 
58

>  <original_smiles>  (74) 
CC12OC3OC4(CC5C1OC4C1(C4(O)C(O)C6C7OC89OC(C7OC(CO)C47COC(=O)C4%10OC4C6(O)C(C)(C)OCC7(CO)OC8%10O)C4OC49)COC35O1)O2

>  <smiles>  (74) 
[H]OC([H])([H])C1([H])OC2([H])C3([H])OC4(OC2([H])C2([H])C([H])(O[H])C(O[H])(C56OC7(OC5([H])[H])C5([H])OC8(C([H])([H])[H])OC9(O5)C([H])([H])C7([H])C8([H])OC96[H])C15C([H])([H])OC(=O)C16OC1([H])C2(O[H])C(C([H])([H])[H])(C([H])([H])[H])OC([H])([H])C5(C([H])([H])O[H])OC46O[H])C1([H])OC31[H]

$$$$
60:0:0
     RDKit          3D

 94102  0  0  1  0  0  0  0  0999 V2000
    2.6186   -3.0709    0.0800 C   0  0  0  0  0  0  0  0  0  0  0  0
    4.0113   -3.6947    0.0949 C   0  0  2  0  0  0  0  0  0  0  0  0
    3.9220   -5.2092    0.3369 C   0  0  0  0  0  0  0  0  0  0  0  0
    5.3066   -5.8614    0.3830 C   0  0  0  0  0  0  0  0  0  0  0  0
    6.1628   -5.2126    1.5024 C   0  0  2  0  0  0  0  0  0  0  0  0
    6.2713   -3.6960    1.2524 C   0  0  0  0  0  0  0  0  0  0  0  0
    4.8752   -3.0552    1.1876 C   0  0  0  0  0  0  0  0  0  0  0  0
    7.4695   -5.7033    1.4659 O   0  0  0  0  0  0  0  0  0  0  0  0
    7.6140   -7.0907    1.7346 C   0  0  0  0  0  0  0  0  0  0  0  0
    6.9400   -7.4394    3.0561 C   0  0  2  0  0  0  0  0  0  0  0  0
    7.8589   -7.8190    4.0959 O   0  0  0  0  0  0  0  0  0  0  0  0
    7.3747   -9.2693    3.9803 O   0  0  0  0  0  0  0  0  0  0  0  0
    6.3925   -8.8010    3.1201 C   0  0  0  0  0  0  0  0  0  0  0  0
    5.1037   -8.9301    3.3012 C   0  0  0  0  0  0  0  0  0  0  0  0
    4.4414   -7.5622    3.2258 C   0  0  1  0  0  0  0  0  0  0  0  0
    3.5078   -7.2913    4.2670 O   0  0  0  0  0  0  0  0  0  0  0  0
    2.3043   -7.9897    4.1795 C   0  0  2  0  0  0  0  0  0  0  0  0
    1.5811   -7.6063    3.0426 O   0  0  0  0  0  0  0  0  0  0  0  0
    0.3558   -8.3007    2.8145 C   0  0  1  0  0  0  0  0  0  0  0  0
    0.5837   -9.7946    2.4994 C   0  0  0  0  0  0  0  0  0  0  0  0
   -0.5846   -8.0219    3.9995 C   0  0  1  0  0  0  0  0  0  0  0  0
   -1.8673   -8.6067    3.8618 O   0  0  0  0  0  0  0  0  0  0  0  0
    0.0709   -8.3645    5.3378 C   0  0  1  0  0  0  0  0  0  0  0  0
    0.2081   -9.7786    5.4829 O   0  0  0  0  0  0  0  0  0  0  0  0
    1.4551   -7.6790    5.4450 C   0  0  1  0  0  0  0  0  0  0  0  0
    2.1418   -8.1575    6.6012 O   0  0  0  0  0  0  0  0  0  0  0  0
    1.5384   -7.9407    7.8368 C   0  0  2  0  0  0  0  0  0  0  0  0
    1.4126   -6.5636    8.0337 O   0  0  0  0  0  0  0  0  0  0  0  0
    1.0337   -6.1792    9.3128 C   0  0  1  0  0  0  0  0  0  0  0  0
    0.2059   -7.0654   10.0058 O   0  0  0  0  0  0  0  0  0  0  0  0
    0.8468   -7.9513   10.9082 C   0  0  2  0  0  0  0  0  0  0  0  0
   -0.3307   -8.5699   11.6893 C   0  0  0  0  0  0  0  0  0  0  0  0
    1.6950   -7.2958   11.8466 O   0  0  0  0  0  0  0  0  0  0  0  0
    1.7967   -5.8237   11.5122 O   0  0  0  0  0  0  0  0  0  0  0  0
    2.2445   -5.7096   10.1762 C   0  0  2  0  0  0  0  0  0  0  0  0
    2.6064   -4.2457    9.8376 C   0  0  1  0  0  0  0  0  0  0  0  0
    1.7673   -3.1779   10.5560 C   0  0  0  0  0  0  0  0  0  0  0  0
    4.0944   -4.1283   10.1739 C   0  0  0  0  0  0  0  0  0  0  0  0
    4.6822   -5.4601    9.7279 C   0  0  0  0  0  0  0  0  0  0  0  0
    3.5942   -6.5050   10.0249 C   0  0  2  0  0  0  0  0  0  0  0  0
    3.6971   -7.6955    9.0546 C   0  0  0  0  0  0  0  0  0  0  0  0
    2.4498   -8.5712    8.9023 C   0  0  1  0  0  0  0  0  0  0  0  0
    1.6517   -9.0390   10.1498 C   0  0  1  0  0  0  0  0  0  0  0  0
    2.5564   -9.8478   11.0931 C   0  0  0  0  0  0  0  0  0  0  0  0
    5.6758   -6.6281    3.4132 C   0  0  2  0  0  0  0  0  0  0  0  0
    5.5695   -5.3719    2.7580 O   0  0  0  0  0  0  0  0  0  0  0  0
    2.1203   -3.2261    1.0374 H   0  0  0  0  0  0  0  0  0  0  0  0
    1.9982   -3.5152   -0.6985 H   0  0  0  0  0  0  0  0  0  0  0  0
    2.6570   -1.9982   -0.0976 H   0  0  0  0  0  0  0  0  0  0  0  0
    4.4848   -3.5184   -0.8730 H   0  0  0  0  0  0  0  0  0  0  0  0
    3.3664   -5.4215    1.2522 H   0  0  0  0  0  0  0  0  0  0  0  0
    3.3529   -5.6623   -0.4693 H   0  0  0  0  0  0  0  0  0  0  0  0
    5.2090   -6.9352    0.5180 H   0  0  0  0  0  0  0  0  0  0  0  0
    5.8135   -5.7132   -0.5699 H   0  0  0  0  0  0  0  0  0  0  0  0
    6.8464   -3.2472    2.0562 H   0  0  0  0  0  0  0  0  0  0  0  0
    6.8197   -3.5283    0.3240 H   0  0  0  0  0  0  0  0  0  0  0  0
    4.9757   -1.9861    1.0020 H   0  0  0  0  0  0  0  0  0  0  0  0
    4.3783   -3.1503    2.1538 H   0  0  0  0  0  0  0  0  0  0  0  0
    7.2433   -7.7022    0.9119 H   0  0  0  0  0  0  0  0  0  0  0  0
    8.6740   -7.3086    1.8173 H   0  0  0  0  0  0  0  0  0  0  0  0
    4.6299   -9.7620    3.8094 H   0  0  0  0  0  0  0  0  0  0  0  0
    3.9814   -7.4742    2.2439 H   0  0  0  0  0  0  0  0  0  0  0  0
    2.5375   -9.0505    4.1443 H   0  0  0  0  0  0  0  0  0  0  0  0
   -0.0952   -7.8299    1.9415 H   0  0  0  0  0  0  0  0  0  0  0  0
   -0.3639  -10.3072    2.3434 H   0  0  0  0  0  0  0  0  0  0  0  0
    1.1258  -10.3408    3.2687 H   0  0  0  0  0  0  0  0  0  0  0  0
    1.1582   -9.9022    1.5932 H   0  0  0  0  0  0  0  0  0  0  0  0
   -0.7766   -6.9468    4.0080 H   0  0  0  0  0  0  0  0  0  0  0  0
   -1.8436   -9.5269    4.1384 H   0  0  0  0  0  0  0  0  0  0  0  0
   -0.5796   -7.9626    6.1140 H   0  0  0  0  0  0  0  0  0  0  0  0
   -0.6205  -10.2118    5.4048 H   0  0  0  0  0  0  0  0  0  0  0  0
    1.3243   -6.5950    5.4893 H   0  0  0  0  0  0  0  0  0  0  0  0
    0.5659   -8.4314    7.8764 H   0  0  0  0  0  0  0  0  0  0  0  0
    0.3776   -5.3259    9.1340 H   0  0  0  0  0  0  0  0  0  0  0  0
   -0.9434   -7.8035   12.1647 H   0  0  0  0  0  0  0  0  0  0  0  0
   -0.0022   -9.2622   12.4615 H   0  0  0  0  0  0  0  0  0  0  0  0
   -0.9852   -9.1162   11.0117 H   0  0  0  0  0  0  0  0  0  0  0  0
    2.5062   -4.1202    8.7590 H   0  0  0  0  0  0  0  0  0  0  0  0
    1.8807   -3.2360   11.6404 H   0  0  0  0  0  0  0  0  0  0  0  0
    0.7055   -3.2875   10.3256 H   0  0  0  0  0  0  0  0  0  0  0  0
    2.0763   -2.1803   10.2429 H   0  0  0  0  0  0  0  0  0  0  0  0
    4.5670   -3.2832    9.6724 H   0  0  0  0  0  0  0  0  0  0  0  0
    4.2399   -4.0123   11.2518 H   0  0  0  0  0  0  0  0  0  0  0  0
    4.8832   -5.4032    8.6576 H   0  0  0  0  0  0  0  0  0  0  0  0
    5.6287   -5.6907   10.2197 H   0  0  0  0  0  0  0  0  0  0  0  0
    3.8399   -6.9068   11.0086 H   0  0  0  0  0  0  0  0  0  0  0  0
    4.0171   -7.3679    8.0625 H   0  0  0  0  0  0  0  0  0  0  0  0
    4.5129   -8.3362    9.3870 H   0  0  0  0  0  0  0  0  0  0  0  0
    2.7826   -9.5031    8.4462 H   0  0  0  0  0  0  0  0  0  0  0  0
    0.9095   -9.7388    9.7640 H   0  0  0  0  0  0  0  0  0  0  0  0
    3.3314   -9.2215   11.5345 H   0  0  0  0  0  0  0  0  0  0  0  0
    3.0522  -10.6443   10.5466 H   0  0  0  0  0  0  0  0  0  0  0  0
    1.9941  -10.3012   11.9080 H   0  0  0  0  0  0  0  0  0  0  0  0
    5.7301   -6.4069    4.4792 H   0  0  0  0  0  0  0  0  0  0  0  0
  1  2  1  0
  1 47  1  0
  1 48  1  0
  1 49  1  0
  2  7  1  0
  2  3  1  0
  2 50  1  6
  3  4  1  0
  3 51  1  0
  3 52  1  0
  4  5  1  0
  4 53  1  0
  4 54  1  0
  5 46  1  1
  5  6  1  0
  5  8  1  0
  6  7  1  0
  6 55  1  0
  6 56  1  0
  7 57  1  0
  7 58  1  0
  8  9  1  0
  9 10  1  0
  9 59  1  0
  9 60  1  0
 10 13  1  0
 10 45  1  0
 10 11  1  1
 11 12  1  0
 12 13  1  0
 13 14  2  0
 14 15  1  0
 14 61  1  0
 15 16  1  0
 15 45  1  0
 15 62  1  6
 16 17  1  0
 17 25  1  0
 17 18  1  0
 17 63  1  6
 18 19  1  0
 19 20  1  0
 19 21  1  0
 19 64  1  6
 20 65  1  0
 20 66  1  0
 20 67  1  0
 21 22  1  0
 21 23  1  0
 21 68  1  1
 22 69  1  0
 23 24  1  0
 23 25  1  0
 23 70  1  1
 24 71  1  0
 25 26  1  0
 25 72  1  1
 26 27  1  0
 27 42  1  0
 27 28  1  0
 27 73  1  6
 28 29  1  0
 29 35  1  0
 29 30  1  0
 29 74  1  6
 30 31  1  0
 31 43  1  0
 31 32  1  1
 31 33  1  0
 32 75  1  0
 32 76  1  0
 32 77  1  0
 33 34  1  0
 35 34  1  1
 35 40  1  0
 35 36  1  0
 36 37  1  0
 36 38  1  0
 36 78  1  6
 37 79  1  0
 37 80  1  0
 37 81  1  0
 38 39  1  0
 38 82  1  0
 38 83  1  0
 39 40  1  0
 39 84  1  0
 39 85  1  0
 40 41  1  0
 40 86  1  1
 41 42  1  0
 41 87  1  0
 41 88  1  0
 42 43  1  0
 42 89  1  6
 43 44  1  0
 43 90  1  6
 44 91  1  0
 44 92  1  0
 44 93  1  0
 45 46  1  0
 45 94  1  1
M  END
>  <i_m_ct_stereo_status>  (75) 
1

>  <s_m_source_file>  (75) 
/var/tmp/pbs.5076253.sched01/tmp0k8q0ypy/944rjgrua_.sdf

>  <i_m_source_file_index>  (75) 
8

>  <i_lp_mmshare_version>  (75) 
48012

>  <i_f3d_flags>  (75) 
0

>  <s_epik_input>  (75) 
W0NIMl0xW0NIMl1bQ0BIXShbQ0gzXSlbQ0gyXVtDSDJdW0NAQF0xMk9bQ0gyXVtDQEBdMzRDKE9PMyk9W0NIXVtDQEhdKFtDQEBIXTRPMilPW0NAQEhdNU9bQ0BASF0oW0NIM10pW0NAQEhdKFtPSF0pW0NAQEhdKFtPSF0pW0NASF01T1tDQEhdKE9bQ0BASF02W0NAXTc4OSlbQ0BIXShbQ0BASF0oW0NIM10pW0NAQF0oTzYpKFtDSDNdKU9PNylbQ0gyXVtDQEhdOVtDSDJdW0NIMl1bQ0BASF04W0NIM10=

>  <s_epik_cmdline>  (75) 
J2VwaWtfcHl0aG9uJywgJy1waHQnLCAnMi4wJywgJy1waCcsICc3LjAnLCAnLXRuJywgJzgnLCAnLW1hJywgJzIwMCcsICctaW1hZScsICc8aW5maWxlLm1hZT4nLCAnLW9tYWUnLCAnPG91dGZpbGUubWFlPic=

>  <r_lp_tautomer_probability>  (75) 
1

>  <r_epik_Ionization_Penalty>  (75) 
8.20875e-07

>  <r_epik_Ionization_Penalty_Charging>  (75) 
0

>  <r_epik_Ionization_Penalty_Neutral>  (75) 
8.20875e-07

>  <r_epik_State_Penalty>  (75) 
-0

>  <r_epik_Charging_Adjusted_Penalty>  (75) 
0

>  <i_epik_Tot_Q>  (75) 
0

>  <i_epik_Tot_abs_Q>  (75) 
0

>  <s_epik_Chemistry_Notes>  (75) 
This compound contains an acetal/aminal-like group ( X-CH(R)-Y where X, Y are N, S, or O) that may be acid/base labile, releasing an aldehyde.

>  <s_lp_Force_Field>  (75) 
OPLS3e

>  <r_lp_Energy>  (75) 
88.6539

>  <b_lp_Chiralities_Consistent>  (75) 
1

>  <s_lp_Variant>  (75) 
60:0-1

>  <s_i_glide_gridfile>  (75) 
pfpi4k_grid

>  <i_i_glide_lignum>  (75) 
8

>  <i_i_glide_rotatable_bonds>  (75) 
6

>  <r_i_docking_score>  (75) 
-3.31847

>  <r_i_glide_ligand_efficiency>  (75) 
-0.0721407

>  <r_i_glide_ligand_efficiency_sa>  (75) 
-0.258484

>  <r_i_glide_ligand_efficiency_ln>  (75) 
-0.687248

>  <r_i_glide_gscore>  (75) 
-3.31847

>  <r_i_glide_lipo>  (75) 
-0.357718

>  <r_i_glide_hbond>  (75) 
-0.288

>  <r_i_glide_metal>  (75) 
-0

>  <r_i_glide_rewards>  (75) 
-0.101303

>  <r_i_glide_evdw>  (75) 
-28.8564

>  <r_i_glide_ecoul>  (75) 
-7.61849

>  <r_i_glide_erotb>  (75) 
0.0471461

>  <r_i_glide_esite>  (75) 
-0.033007

>  <r_i_glide_emodel>  (75) 
-43.7024

>  <r_i_glide_energy>  (75) 
-36.4749

>  <r_i_glide_einternal>  (75) 
1.29271

>  <r_i_glide_intrahb_reward>  (75) 
-0

>  <i_i_glide_confnum>  (75) 
4

>  <i_i_glide_posenum>  (75) 
2

>  <r_i_glide_eff_state_penalty>  (75) 
0

>  <ligand_id>  (75) 
60

>  <original_smiles>  (75) 
CC1CCC2(CC1)OCC13OOC1=CC(OC1OC(C)C(O)C(O)C1OC1OC4OC5(C)OOC46C(C)CCC6CC1C5C)C3O2

>  <smiles>  (75) 
[H]OC1([H])C([H])(C([H])([H])[H])OC([H])(OC2([H])C([H])=C3OOC34C([H])([H])OC3(OC24[H])C([H])([H])C([H])([H])C([H])(C([H])([H])[H])C([H])([H])C3([H])[H])C([H])(OC2([H])OC3([H])OC4(C([H])([H])[H])OOC35C([H])(C([H])([H])[H])C([H])([H])C([H])([H])C5([H])C([H])([H])C2([H])C4([H])C([H])([H])[H])C1([H])O[H]

$$$$
60:0:1
     RDKit          3D

 94102  0  0  1  0  0  0  0  0999 V2000
    5.1844   -3.4261   -2.9271 C   0  0  0  0  0  0  0  0  0  0  0  0
    5.3055   -2.4371   -1.7567 C   0  0  2  0  0  0  0  0  0  0  0  0
    5.9057   -3.1219   -0.5181 C   0  0  0  0  0  0  0  0  0  0  0  0
    6.0082   -2.1634    0.6825 C   0  0  0  0  0  0  0  0  0  0  0  0
    4.6036   -1.5866    1.0148 C   0  0  2  0  0  0  0  0  0  0  0  0
    4.0266   -0.8779   -0.2082 C   0  0  0  0  0  0  0  0  0  0  0  0
    3.9362   -1.8339   -1.4101 C   0  0  0  0  0  0  0  0  0  0  0  0
    4.7014   -0.5924    2.0004 O   0  0  0  0  0  0  0  0  0  0  0  0
    5.1567   -1.0340    3.2612 C   0  0  0  0  0  0  0  0  0  0  0  0
    4.2880   -2.1928    3.7355 C   0  0  2  0  0  0  0  0  0  0  0  0
    3.5013   -1.8798    4.8999 O   0  0  0  0  0  0  0  0  0  0  0  0
    4.4582   -2.7169    5.7448 O   0  0  0  0  0  0  0  0  0  0  0  0
    5.0083   -3.1404    4.5610 C   0  0  0  0  0  0  0  0  0  0  0  0
    5.0940   -4.3983    4.1368 C   0  0  0  0  0  0  0  0  0  0  0  0
    4.5121   -4.4946    2.7469 C   0  0  1  0  0  0  0  0  0  0  0  0
    3.5955   -5.5746    2.5915 O   0  0  0  0  0  0  0  0  0  0  0  0
    4.1351   -6.8616    2.7134 C   0  0  2  0  0  0  0  0  0  0  0  0
    4.1000   -7.5557    1.4930 O   0  0  0  0  0  0  0  0  0  0  0  0
    4.6621   -8.8724    1.5334 C   0  0  1  0  0  0  0  0  0  0  0  0
    6.2005   -8.8600    1.7358 C   0  0  0  0  0  0  0  0  0  0  0  0
    3.8672   -9.7173    2.5559 C   0  0  1  0  0  0  0  0  0  0  0  0
    4.3414  -11.0442    2.6735 O   0  0  0  0  0  0  0  0  0  0  0  0
    3.7602   -9.0670    3.9332 C   0  0  1  0  0  0  0  0  0  0  0  0
    5.0315   -9.1310    4.5808 O   0  0  0  0  0  0  0  0  0  0  0  0
    3.2831   -7.6113    3.7797 C   0  0  1  0  0  0  0  0  0  0  0  0
    3.4474   -6.9427    5.0194 O   0  0  0  0  0  0  0  0  0  0  0  0
    2.5432   -7.2398    6.0267 C   0  0  2  0  0  0  0  0  0  0  0  0
    1.3688   -6.5198    5.7951 O   0  0  0  0  0  0  0  0  0  0  0  0
    0.4364   -6.5749    6.8154 C   0  0  1  0  0  0  0  0  0  0  0  0
    0.4569   -7.7312    7.6051 O   0  0  0  0  0  0  0  0  0  0  0  0
    1.1901   -7.6631    8.8174 C   0  0  2  0  0  0  0  0  0  0  0  0
    0.7877   -8.9538    9.5613 C   0  0  0  0  0  0  0  0  0  0  0  0
    0.8240   -6.5565    9.6414 O   0  0  0  0  0  0  0  0  0  0  0  0
   -0.1580   -5.6863    8.9085 O   0  0  0  0  0  0  0  0  0  0  0  0
    0.4279   -5.2858    7.6897 C   0  0  2  0  0  0  0  0  0  0  0  0
   -0.4007   -4.1828    6.9961 C   0  0  1  0  0  0  0  0  0  0  0  0
   -1.9117   -4.2625    7.2421 C   0  0  0  0  0  0  0  0  0  0  0  0
    0.1951   -2.8730    7.5126 C   0  0  0  0  0  0  0  0  0  0  0  0
    1.6862   -3.1521    7.5680 C   0  0  0  0  0  0  0  0  0  0  0  0
    1.8168   -4.6231    7.9992 C   0  0  2  0  0  0  0  0  0  0  0  0
    3.1123   -5.2455    7.4315 C   0  0  0  0  0  0  0  0  0  0  0  0
    3.1831   -6.7734    7.3436 C   0  0  1  0  0  0  0  0  0  0  0  0
    2.7236   -7.6379    8.5501 C   0  0  1  0  0  0  0  0  0  0  0  0
    3.5299   -7.2905    9.8095 C   0  0  0  0  0  0  0  0  0  0  0  0
    3.7304   -3.1492    2.6477 C   0  0  2  0  0  0  0  0  0  0  0  0
    3.6917   -2.5975    1.3471 O   0  0  0  0  0  0  0  0  0  0  0  0
    4.5254   -4.2560   -2.6788 H   0  0  0  0  0  0  0  0  0  0  0  0
    6.1552   -3.8479   -3.1863 H   0  0  0  0  0  0  0  0  0  0  0  0
    4.7826   -2.9550   -3.8246 H   0  0  0  0  0  0  0  0  0  0  0  0
    5.9694   -1.6305   -2.0600 H   0  0  0  0  0  0  0  0  0  0  0  0
    5.3031   -3.9903   -0.2509 H   0  0  0  0  0  0  0  0  0  0  0  0
    6.9001   -3.4985   -0.7546 H   0  0  0  0  0  0  0  0  0  0  0  0
    6.4333   -2.6854    1.5342 H   0  0  0  0  0  0  0  0  0  0  0  0
    6.6760   -1.3291    0.4636 H   0  0  0  0  0  0  0  0  0  0  0  0
    3.0377   -0.5060    0.0600 H   0  0  0  0  0  0  0  0  0  0  0  0
    4.6464   -0.0115   -0.4327 H   0  0  0  0  0  0  0  0  0  0  0  0
    3.5411   -1.2886   -2.2651 H   0  0  0  0  0  0  0  0  0  0  0  0
    3.2183   -2.6265   -1.1989 H   0  0  0  0  0  0  0  0  0  0  0  0
    6.2111   -1.3070    3.2392 H   0  0  0  0  0  0  0  0  0  0  0  0
    5.0705   -0.2241    3.9853 H   0  0  0  0  0  0  0  0  0  0  0  0
    5.2036   -5.2590    4.7740 H   0  0  0  0  0  0  0  0  0  0  0  0
    5.3299   -4.5755    2.0362 H   0  0  0  0  0  0  0  0  0  0  0  0
    5.1798   -6.8010    3.0044 H   0  0  0  0  0  0  0  0  0  0  0  0
    4.4563   -9.3117    0.5600 H   0  0  0  0  0  0  0  0  0  0  0  0
    6.6028   -9.8739    1.7919 H   0  0  0  0  0  0  0  0  0  0  0  0
    6.5056   -8.3558    2.6590 H   0  0  0  0  0  0  0  0  0  0  0  0
    6.7054   -8.3880    0.8907 H   0  0  0  0  0  0  0  0  0  0  0  0
    2.8443   -9.7948    2.1894 H   0  0  0  0  0  0  0  0  0  0  0  0
    4.2137  -11.4823    1.8292 H   0  0  0  0  0  0  0  0  0  0  0  0
    3.0504   -9.6536    4.5204 H   0  0  0  0  0  0  0  0  0  0  0  0
    5.3625   -9.9807    4.4584 H   0  0  0  0  0  0  0  0  0  0  0  0
    2.2516   -7.5802    3.4297 H   0  0  0  0  0  0  0  0  0  0  0  0
    2.3280   -8.3013    6.0577 H   0  0  0  0  0  0  0  0  0  0  0  0
   -0.5088   -6.6507    6.2757 H   0  0  0  0  0  0  0  0  0  0  0  0
   -0.2899   -9.0047    9.6950 H   0  0  0  0  0  0  0  0  0  0  0  0
    1.2574   -9.0314   10.5390 H   0  0  0  0  0  0  0  0  0  0  0  0
    1.0783   -9.8326    8.9844 H   0  0  0  0  0  0  0  0  0  0  0  0
   -0.1954   -4.2423    5.9241 H   0  0  0  0  0  0  0  0  0  0  0  0
   -2.1563   -4.1716    8.3008 H   0  0  0  0  0  0  0  0  0  0  0  0
   -2.3151   -5.2114    6.8888 H   0  0  0  0  0  0  0  0  0  0  0  0
   -2.4179   -3.4657    6.6989 H   0  0  0  0  0  0  0  0  0  0  0  0
   -0.0290   -2.0365    6.8514 H   0  0  0  0  0  0  0  0  0  0  0  0
   -0.1743   -2.6430    8.5141 H   0  0  0  0  0  0  0  0  0  0  0  0
    2.0634   -3.0192    6.5566 H   0  0  0  0  0  0  0  0  0  0  0  0
    2.2274   -2.4665    8.2231 H   0  0  0  0  0  0  0  0  0  0  0  0
    1.9445   -4.6047    9.0852 H   0  0  0  0  0  0  0  0  0  0  0  0
    3.3193   -4.8564    6.4314 H   0  0  0  0  0  0  0  0  0  0  0  0
    3.9539   -4.8959    8.0331 H   0  0  0  0  0  0  0  0  0  0  0  0
    4.2379   -7.0233    7.2419 H   0  0  0  0  0  0  0  0  0  0  0  0
    2.9863   -8.6610    8.2755 H   0  0  0  0  0  0  0  0  0  0  0  0
    3.3117   -6.2823   10.1548 H   0  0  0  0  0  0  0  0  0  0  0  0
    4.5927   -7.3437    9.5995 H   0  0  0  0  0  0  0  0  0  0  0  0
    3.3130   -7.9759   10.6270 H   0  0  0  0  0  0  0  0  0  0  0  0
    2.6972   -3.3787    2.9216 H   0  0  0  0  0  0  0  0  0  0  0  0
  1  2  1  0
  1 47  1  0
  1 48  1  0
  1 49  1  0
  2  7  1  0
  2  3  1  0
  2 50  1  6
  3  4  1  0
  3 51  1  0
  3 52  1  0
  4  5  1  0
  4 53  1  0
  4 54  1  0
  5 46  1  1
  5  6  1  0
  5  8  1  0
  6  7  1  0
  6 55  1  0
  6 56  1  0
  7 57  1  0
  7 58  1  0
  8  9  1  0
  9 10  1  0
  9 59  1  0
  9 60  1  0
 10 13  1  0
 10 45  1  0
 10 11  1  1
 11 12  1  0
 12 13  1  0
 13 14  2  0
 14 15  1  0
 14 61  1  0
 15 16  1  0
 15 45  1  0
 15 62  1  6
 16 17  1  0
 17 25  1  0
 17 18  1  0
 17 63  1  1
 18 19  1  0
 19 20  1  0
 19 21  1  0
 19 64  1  6
 20 65  1  0
 20 66  1  0
 20 67  1  0
 21 22  1  0
 21 23  1  0
 21 68  1  6
 22 69  1  0
 23 24  1  0
 23 25  1  0
 23 70  1  1
 24 71  1  0
 25 26  1  0
 25 72  1  6
 26 27  1  0
 27 42  1  0
 27 28  1  0
 27 73  1  1
 28 29  1  0
 29 35  1  0
 29 30  1  0
 29 74  1  6
 30 31  1  0
 31 43  1  0
 31 32  1  1
 31 33  1  0
 32 75  1  0
 32 76  1  0
 32 77  1  0
 33 34  1  0
 35 34  1  1
 35 40  1  0
 35 36  1  0
 36 37  1  0
 36 38  1  0
 36 78  1  6
 37 79  1  0
 37 80  1  0
 37 81  1  0
 38 39  1  0
 38 82  1  0
 38 83  1  0
 39 40  1  0
 39 84  1  0
 39 85  1  0
 40 41  1  0
 40 86  1  1
 41 42  1  0
 41 87  1  0
 41 88  1  0
 42 43  1  0
 42 89  1  6
 43 44  1  0
 43 90  1  6
 44 91  1  0
 44 92  1  0
 44 93  1  0
 45 46  1  0
 45 94  1  1
M  END
>  <i_m_ct_stereo_status>  (76) 
1

>  <s_m_source_file>  (76) 
/var/tmp/pbs.5076253.sched01/tmp0k8q0ypy/944rjgrua_.sdf

>  <i_m_source_file_index>  (76) 
8

>  <i_lp_mmshare_version>  (76) 
48012

>  <i_f3d_flags>  (76) 
0

>  <s_epik_input>  (76) 
W0NIMl0xW0NIMl1bQ0BIXShbQ0gzXSlbQ0gyXVtDSDJdW0NAQF0xMk9bQ0gyXVtDQEBdMzRDKE9PMyk9W0NIXVtDQEhdKFtDQEBIXTRPMilPW0NAQEhdNU9bQ0BASF0oW0NIM10pW0NAQEhdKFtPSF0pW0NAQEhdKFtPSF0pW0NASF01T1tDQEhdKE9bQ0BASF02W0NAXTc4OSlbQ0BIXShbQ0BASF0oW0NIM10pW0NAQF0oTzYpKFtDSDNdKU9PNylbQ0gyXVtDQEhdOVtDSDJdW0NIMl1bQ0BASF04W0NIM10=

>  <s_epik_cmdline>  (76) 
J2VwaWtfcHl0aG9uJywgJy1waHQnLCAnMi4wJywgJy1waCcsICc3LjAnLCAnLXRuJywgJzgnLCAnLW1hJywgJzIwMCcsICctaW1hZScsICc8aW5maWxlLm1hZT4nLCAnLW9tYWUnLCAnPG91dGZpbGUubWFlPic=

>  <r_lp_tautomer_probability>  (76) 
1

>  <r_epik_Ionization_Penalty>  (76) 
8.20875e-07

>  <r_epik_Ionization_Penalty_Charging>  (76) 
0

>  <r_epik_Ionization_Penalty_Neutral>  (76) 
8.20875e-07

>  <r_epik_State_Penalty>  (76) 
-0

>  <r_epik_Charging_Adjusted_Penalty>  (76) 
0

>  <i_epik_Tot_Q>  (76) 
0

>  <i_epik_Tot_abs_Q>  (76) 
0

>  <s_epik_Chemistry_Notes>  (76) 
This compound contains an acetal/aminal-like group ( X-CH(R)-Y where X, Y are N, S, or O) that may be acid/base labile, releasing an aldehyde.

>  <s_lp_Force_Field>  (76) 
OPLS3e

>  <r_lp_Energy>  (76) 
88.6539

>  <b_lp_Chiralities_Consistent>  (76) 
1

>  <s_lp_Variant>  (76) 
60:0-1

>  <s_i_glide_gridfile>  (76) 
pfpi4k_grid

>  <i_i_glide_lignum>  (76) 
8

>  <i_i_glide_rotatable_bonds>  (76) 
6

>  <r_i_docking_score>  (76) 
-3.23441

>  <r_i_glide_ligand_efficiency>  (76) 
-0.0703133

>  <r_i_glide_ligand_efficiency_sa>  (76) 
-0.251936

>  <r_i_glide_ligand_efficiency_ln>  (76) 
-0.669839

>  <r_i_glide_gscore>  (76) 
-3.23441

>  <r_i_glide_lipo>  (76) 
-0.686508

>  <r_i_glide_hbond>  (76) 
-0.0595244

>  <r_i_glide_metal>  (76) 
-0

>  <r_i_glide_rewards>  (76) 
-0.0202541

>  <r_i_glide_evdw>  (76) 
-34.6463

>  <r_i_glide_ecoul>  (76) 
-5.08892

>  <r_i_glide_erotb>  (76) 
0.0471461

>  <r_i_glide_esite>  (76) 
-0.0196172

>  <r_i_glide_emodel>  (76) 
-44.7246

>  <r_i_glide_energy>  (76) 
-39.7352

>  <r_i_glide_einternal>  (76) 
5.06864

>  <r_i_glide_intrahb_reward>  (76) 
-0

>  <i_i_glide_confnum>  (76) 
1

>  <i_i_glide_posenum>  (76) 
10

>  <r_i_glide_eff_state_penalty>  (76) 
0

>  <ligand_id>  (76) 
60

>  <original_smiles>  (76) 
CC1CCC2(CC1)OCC13OOC1=CC(OC1OC(C)C(O)C(O)C1OC1OC4OC5(C)OOC46C(C)CCC6CC1C5C)C3O2

>  <smiles>  (76) 
[H]OC1([H])C([H])(C([H])([H])[H])OC([H])(OC2([H])C([H])=C3OOC34C([H])([H])OC3(OC24[H])C([H])([H])C([H])([H])C([H])(C([H])([H])[H])C([H])([H])C3([H])[H])C([H])(OC2([H])OC3([H])OC4(C([H])([H])[H])OOC35C([H])(C([H])([H])[H])C([H])([H])C([H])([H])C5([H])C([H])([H])C2([H])C4([H])C([H])([H])[H])C1([H])O[H]

$$$$
60:0:2
     RDKit          3D

 94102  0  0  1  0  0  0  0  0999 V2000
   -0.4085   -8.1007    4.8906 C   0  0  0  0  0  0  0  0  0  0  0  0
    0.7235   -8.2130    3.8609 C   0  0  2  0  0  0  0  0  0  0  0  0
    1.9300   -7.3642    4.2887 C   0  0  0  0  0  0  0  0  0  0  0  0
    3.0749   -7.3970    3.2609 C   0  0  0  0  0  0  0  0  0  0  0  0
    2.5620   -6.9337    1.8654 C   0  0  2  0  0  0  0  0  0  0  0  0
    1.3779   -7.8251    1.4374 C   0  0  0  0  0  0  0  0  0  0  0  0
    0.2395   -7.7782    2.4707 C   0  0  0  0  0  0  0  0  0  0  0  0
    3.5551   -7.0987    0.8868 O   0  0  0  0  0  0  0  0  0  0  0  0
    4.7265   -6.3151    1.0470 C   0  0  0  0  0  0  0  0  0  0  0  0
    4.3521   -4.8388    1.1972 C   0  0  2  0  0  0  0  0  0  0  0  0
    4.7704   -4.0145    0.0885 O   0  0  0  0  0  0  0  0  0  0  0  0
    5.8226   -3.3648    0.9800 O   0  0  0  0  0  0  0  0  0  0  0  0
    5.2538   -4.0440    2.0433 C   0  0  0  0  0  0  0  0  0  0  0  0
    4.7443   -3.4794    3.1284 C   0  0  0  0  0  0  0  0  0  0  0  0
    3.3225   -3.9739    3.2977 C   0  0  1  0  0  0  0  0  0  0  0  0
    2.3559   -2.9482    3.5650 O   0  0  0  0  0  0  0  0  0  0  0  0
    1.9473   -2.8900    4.9085 C   0  0  2  0  0  0  0  0  0  0  0  0
    1.3206   -4.1012    5.2769 O   0  0  0  0  0  0  0  0  0  0  0  0
    0.9168   -4.2336    6.6479 C   0  0  1  0  0  0  0  0  0  0  0  0
    2.1299   -4.1606    7.6286 C   0  0  0  0  0  0  0  0  0  0  0  0
   -0.1456   -3.1516    6.9084 C   0  0  1  0  0  0  0  0  0  0  0  0
   -0.5454   -3.1700    8.2770 O   0  0  0  0  0  0  0  0  0  0  0  0
    0.3507   -1.7715    6.5466 C   0  0  1  0  0  0  0  0  0  0  0  0
    1.3302   -1.3188    7.4599 O   0  0  0  0  0  0  0  0  0  0  0  0
    0.9069   -1.7341    5.1034 C   0  0  1  0  0  0  0  0  0  0  0  0
    1.5515   -0.4955    4.8294 O   0  0  0  0  0  0  0  0  0  0  0  0
    0.7611    0.5612    4.3780 C   0  0  2  0  0  0  0  0  0  0  0  0
    1.5613    1.4772    3.6613 O   0  0  0  0  0  0  0  0  0  0  0  0
    0.9716    2.7147    3.4067 C   0  0  1  0  0  0  0  0  0  0  0  0
   -0.3986    2.6624    3.1538 O   0  0  0  0  0  0  0  0  0  0  0  0
   -1.2774    3.0019    4.2220 C   0  0  2  0  0  0  0  0  0  0  0  0
   -2.6684    3.0880    3.5444 C   0  0  0  0  0  0  0  0  0  0  0  0
   -0.9733    4.2563    4.8553 O   0  0  0  0  0  0  0  0  0  0  0  0
    0.3092    4.8010    4.2950 O   0  0  0  0  0  0  0  0  0  0  0  0
    1.3427    3.8383    4.4383 C   0  0  2  0  0  0  0  0  0  0  0  0
    2.7210    4.4401    4.0973 C   0  0  1  0  0  0  0  0  0  0  0  0
    2.7028    5.5140    3.0078 C   0  0  0  0  0  0  0  0  0  0  0  0
    3.2612    4.9738    5.4268 C   0  0  0  0  0  0  0  0  0  0  0  0
    2.8412    3.9414    6.4514 C   0  0  0  0  0  0  0  0  0  0  0  0
    1.4612    3.4536    5.9578 C   0  0  2  0  0  0  0  0  0  0  0  0
    1.1986    2.0021    6.3901 C   0  0  0  0  0  0  0  0  0  0  0  0
    0.1327    1.2479    5.6072 C   0  0  1  0  0  0  0  0  0  0  0  0
   -1.2476    1.8791    5.3051 C   0  0  1  0  0  0  0  0  0  0  0  0
   -1.9644    2.2842    6.6100 C   0  0  0  0  0  0  0  0  0  0  0  0
    3.0068   -4.5487    1.8911 C   0  0  2  0  0  0  0  0  0  0  0  0
    2.0720   -5.6193    1.9011 O   0  0  0  0  0  0  0  0  0  0  0  0
   -0.7670   -7.0715    4.9708 H   0  0  0  0  0  0  0  0  0  0  0  0
   -0.0675   -8.4116    5.8805 H   0  0  0  0  0  0  0  0  0  0  0  0
   -1.2551   -8.7344    4.6161 H   0  0  0  0  0  0  0  0  0  0  0  0
    1.0381   -9.2560    3.8119 H   0  0  0  0  0  0  0  0  0  0  0  0
    1.6091   -6.3399    4.4468 H   0  0  0  0  0  0  0  0  0  0  0  0
    2.3063   -7.7158    5.2495 H   0  0  0  0  0  0  0  0  0  0  0  0
    3.8954   -6.7685    3.5949 H   0  0  0  0  0  0  0  0  0  0  0  0
    3.4719   -8.4091    3.1711 H   0  0  0  0  0  0  0  0  0  0  0  0
    0.9999   -7.4750    0.4780 H   0  0  0  0  0  0  0  0  0  0  0  0
    1.7202   -8.8527    1.2953 H   0  0  0  0  0  0  0  0  0  0  0  0
   -0.5673   -8.4393    2.1493 H   0  0  0  0  0  0  0  0  0  0  0  0
   -0.1875   -6.7763    2.5177 H   0  0  0  0  0  0  0  0  0  0  0  0
    5.3147   -6.6736    1.8883 H   0  0  0  0  0  0  0  0  0  0  0  0
    5.3437   -6.4588    0.1590 H   0  0  0  0  0  0  0  0  0  0  0  0
    5.0810   -2.5433    3.5541 H   0  0  0  0  0  0  0  0  0  0  0  0
    3.3583   -4.7336    4.0735 H   0  0  0  0  0  0  0  0  0  0  0  0
    2.8707   -2.7318    5.4772 H   0  0  0  0  0  0  0  0  0  0  0  0
    0.4160   -5.2045    6.7817 H   0  0  0  0  0  0  0  0  0  0  0  0
    1.7864   -4.1275    8.6760 H   0  0  0  0  0  0  0  0  0  0  0  0
    2.7612   -3.2764    7.4952 H   0  0  0  0  0  0  0  0  0  0  0  0
    2.7916   -5.0197    7.4700 H   0  0  0  0  0  0  0  0  0  0  0  0
   -1.0275   -3.3471    6.2999 H   0  0  0  0  0  0  0  0  0  0  0  0
    0.2110   -3.1137    8.8094 H   0  0  0  0  0  0  0  0  0  0  0  0
   -0.5527   -1.1992    6.6860 H   0  0  0  0  0  0  0  0  0  0  0  0
    2.1362   -1.8306    7.3855 H   0  0  0  0  0  0  0  0  0  0  0  0
    0.1200   -1.9515    4.3904 H   0  0  0  0  0  0  0  0  0  0  0  0
    0.0180    0.1776    3.6879 H   0  0  0  0  0  0  0  0  0  0  0  0
    1.3590    2.9882    2.4289 H   0  0  0  0  0  0  0  0  0  0  0  0
   -2.6564    3.8444    2.7557 H   0  0  0  0  0  0  0  0  0  0  0  0
   -3.4320    3.3275    4.2794 H   0  0  0  0  0  0  0  0  0  0  0  0
   -2.9486    2.1285    3.0909 H   0  0  0  0  0  0  0  0  0  0  0  0
    3.3780    3.6276    3.7844 H   0  0  0  0  0  0  0  0  0  0  0  0
    2.1047    6.3828    3.2826 H   0  0  0  0  0  0  0  0  0  0  0  0
    2.3010    5.1200    2.0764 H   0  0  0  0  0  0  0  0  0  0  0  0
    3.7112    5.8611    2.7982 H   0  0  0  0  0  0  0  0  0  0  0  0
    4.3371    5.1029    5.4114 H   0  0  0  0  0  0  0  0  0  0  0  0
    2.8080    5.9287    5.6775 H   0  0  0  0  0  0  0  0  0  0  0  0
    3.5591    3.1172    6.4454 H   0  0  0  0  0  0  0  0  0  0  0  0
    2.7990    4.3262    7.4725 H   0  0  0  0  0  0  0  0  0  0  0  0
    0.7211    4.0355    6.5148 H   0  0  0  0  0  0  0  0  0  0  0  0
    2.1190    1.4097    6.4043 H   0  0  0  0  0  0  0  0  0  0  0  0
    0.8925    2.0078    7.4396 H   0  0  0  0  0  0  0  0  0  0  0  0
   -0.1565    0.5449    6.3160 H   0  0  0  0  0  0  0  0  0  0  0  0
   -1.8287    1.0557    4.8918 H   0  0  0  0  0  0  0  0  0  0  0  0
   -1.4416    3.0887    7.1216 H   0  0  0  0  0  0  0  0  0  0  0  0
   -1.9980    1.4496    7.2993 H   0  0  0  0  0  0  0  0  0  0  0  0
   -2.9927    2.5981    6.4396 H   0  0  0  0  0  0  0  0  0  0  0  0
    2.5186   -3.7457    1.3330 H   0  0  0  0  0  0  0  0  0  0  0  0
  1  2  1  0
  1 47  1  0
  1 48  1  0
  1 49  1  0
  2  7  1  0
  2  3  1  0
  2 50  1  6
  3  4  1  0
  3 51  1  0
  3 52  1  0
  4  5  1  0
  4 53  1  0
  4 54  1  0
  5 46  1  1
  5  6  1  0
  5  8  1  0
  6  7  1  0
  6 55  1  0
  6 56  1  0
  7 57  1  0
  7 58  1  0
  8  9  1  0
  9 10  1  0
  9 59  1  0
  9 60  1  0
 10 13  1  0
 10 45  1  0
 10 11  1  6
 11 12  1  0
 12 13  1  0
 13 14  2  0
 14 15  1  0
 14 61  1  0
 15 16  1  0
 15 45  1  0
 15 62  1  1
 16 17  1  0
 17 25  1  0
 17 18  1  0
 17 63  1  1
 18 19  1  0
 19 20  1  0
 19 21  1  0
 19 64  1  6
 20 65  1  0
 20 66  1  0
 20 67  1  0
 21 22  1  0
 21 23  1  0
 21 68  1  6
 22 69  1  0
 23 24  1  0
 23 25  1  0
 23 70  1  6
 24 71  1  0
 25 26  1  0
 25 72  1  6
 26 27  1  0
 27 42  1  0
 27 28  1  0
 27 73  1  6
 28 29  1  0
 29 35  1  0
 29 30  1  0
 29 74  1  6
 30 31  1  0
 31 43  1  0
 31 32  1  6
 31 33  1  0
 32 75  1  0
 32 76  1  0
 32 77  1  0
 33 34  1  0
 35 34  1  1
 35 40  1  0
 35 36  1  0
 36 37  1  0
 36 38  1  0
 36 78  1  6
 37 79  1  0
 37 80  1  0
 37 81  1  0
 38 39  1  0
 38 82  1  0
 38 83  1  0
 39 40  1  0
 39 84  1  0
 39 85  1  0
 40 41  1  0
 40 86  1  1
 41 42  1  0
 41 87  1  0
 41 88  1  0
 42 43  1  0
 42 89  1  1
 43 44  1  0
 43 90  1  6
 44 91  1  0
 44 92  1  0
 44 93  1  0
 45 46  1  0
 45 94  1  6
M  END
>  <i_m_ct_stereo_status>  (77) 
1

>  <s_m_source_file>  (77) 
/var/tmp/pbs.5076253.sched01/tmp0k8q0ypy/944rjgrua_.sdf

>  <i_m_source_file_index>  (77) 
8

>  <i_lp_mmshare_version>  (77) 
48012

>  <i_f3d_flags>  (77) 
0

>  <s_epik_input>  (77) 
W0NIMl0xW0NIMl1bQ0BIXShbQ0gzXSlbQ0gyXVtDSDJdW0NAQF0xMk9bQ0gyXVtDQEBdMzRDKE9PMyk9W0NIXVtDQEhdKFtDQEBIXTRPMilPW0NAQEhdNU9bQ0BASF0oW0NIM10pW0NAQEhdKFtPSF0pW0NAQEhdKFtPSF0pW0NASF01T1tDQEhdKE9bQ0BASF02W0NAXTc4OSlbQ0BIXShbQ0BASF0oW0NIM10pW0NAQF0oTzYpKFtDSDNdKU9PNylbQ0gyXVtDQEhdOVtDSDJdW0NIMl1bQ0BASF04W0NIM10=

>  <s_epik_cmdline>  (77) 
J2VwaWtfcHl0aG9uJywgJy1waHQnLCAnMi4wJywgJy1waCcsICc3LjAnLCAnLXRuJywgJzgnLCAnLW1hJywgJzIwMCcsICctaW1hZScsICc8aW5maWxlLm1hZT4nLCAnLW9tYWUnLCAnPG91dGZpbGUubWFlPic=

>  <r_lp_tautomer_probability>  (77) 
1

>  <r_epik_Ionization_Penalty>  (77) 
8.20875e-07

>  <r_epik_Ionization_Penalty_Charging>  (77) 
0

>  <r_epik_Ionization_Penalty_Neutral>  (77) 
8.20875e-07

>  <r_epik_State_Penalty>  (77) 
-0

>  <r_epik_Charging_Adjusted_Penalty>  (77) 
0

>  <i_epik_Tot_Q>  (77) 
0

>  <i_epik_Tot_abs_Q>  (77) 
0

>  <s_epik_Chemistry_Notes>  (77) 
This compound contains an acetal/aminal-like group ( X-CH(R)-Y where X, Y are N, S, or O) that may be acid/base labile, releasing an aldehyde.

>  <s_lp_Force_Field>  (77) 
OPLS3e

>  <r_lp_Energy>  (77) 
88.6539

>  <b_lp_Chiralities_Consistent>  (77) 
1

>  <s_lp_Variant>  (77) 
60:0-1

>  <s_i_glide_gridfile>  (77) 
pfpi4k_grid

>  <i_i_glide_lignum>  (77) 
8

>  <i_i_glide_rotatable_bonds>  (77) 
6

>  <r_i_docking_score>  (77) 
-2.55101

>  <r_i_glide_ligand_efficiency>  (77) 
-0.0554567

>  <r_i_glide_ligand_efficiency_sa>  (77) 
-0.198704

>  <r_i_glide_ligand_efficiency_ln>  (77) 
-0.528308

>  <r_i_glide_gscore>  (77) 
-2.55101

>  <r_i_glide_lipo>  (77) 
-0.205091

>  <r_i_glide_hbond>  (77) 
0

>  <r_i_glide_metal>  (77) 
-0

>  <r_i_glide_rewards>  (77) 
-0.00145792

>  <r_i_glide_evdw>  (77) 
-37.5663

>  <r_i_glide_ecoul>  (77) 
-2.75838

>  <r_i_glide_erotb>  (77) 
0.0471461

>  <r_i_glide_esite>  (77) 
-0.0995334

>  <r_i_glide_emodel>  (77) 
-41.2306

>  <r_i_glide_energy>  (77) 
-40.3247

>  <r_i_glide_einternal>  (77) 
6.22192

>  <r_i_glide_intrahb_reward>  (77) 
-0

>  <i_i_glide_confnum>  (77) 
6

>  <i_i_glide_posenum>  (77) 
1

>  <r_i_glide_eff_state_penalty>  (77) 
0

>  <ligand_id>  (77) 
60

>  <original_smiles>  (77) 
CC1CCC2(CC1)OCC13OOC1=CC(OC1OC(C)C(O)C(O)C1OC1OC4OC5(C)OOC46C(C)CCC6CC1C5C)C3O2

>  <smiles>  (77) 
[H]OC1([H])C([H])(C([H])([H])[H])OC([H])(OC2([H])C([H])=C3OOC34C([H])([H])OC3(OC24[H])C([H])([H])C([H])([H])C([H])(C([H])([H])[H])C([H])([H])C3([H])[H])C([H])(OC2([H])OC3([H])OC4(C([H])([H])[H])OOC35C([H])(C([H])([H])[H])C([H])([H])C([H])([H])C5([H])C([H])([H])C2([H])C4([H])C([H])([H])[H])C1([H])O[H]

$$$$
62:0:0
     RDKit          3D

 61 69  0  0  1  0  0  0  0  0999 V2000
    1.0146   -5.8452   -0.2954 C   0  0  0  0  0  0  0  0  0  0  0  0
    1.8989   -5.4724    0.7675 O   0  0  0  0  0  0  0  0  0  0  0  0
    3.2136   -4.9984    0.4252 C   0  0  2  0  0  0  0  0  0  0  0  0
    4.1661   -5.5352    1.5521 C   0  0  2  0  0  0  0  0  0  0  0  0
    5.4241   -6.2600    1.0469 C   0  0  0  0  0  0  0  0  0  0  0  0
    4.6962   -7.5283    1.2057 O   0  0  0  0  0  0  0  0  0  0  0  0
    3.7168   -6.8895    2.0255 C   0  0  2  0  0  0  0  0  0  0  0  0
    4.1034   -7.1583    3.3749 O   0  0  0  0  0  0  0  0  0  0  0  0
    2.7574   -7.4979    3.0646 C   0  0  1  0  0  0  0  0  0  0  0  0
    1.7802   -6.7865    4.0169 C   0  0  2  0  0  0  0  0  0  0  0  0
    1.0771   -5.6949    3.3376 O   0  0  0  0  0  0  0  0  0  0  0  0
    1.5246   -4.6440    4.2067 C   0  0  1  0  0  0  0  0  0  0  0  0
    1.9907   -3.2994    3.6859 C   0  0  0  0  0  0  0  0  0  0  0  0
    2.1636   -3.3860    2.2709 O   0  0  0  0  0  0  0  0  0  0  0  0
    3.2871   -2.7884    1.6188 C   0  0  1  0  0  0  0  0  0  0  0  0
    3.0208   -1.2600    1.8048 C   0  0  0  0  0  0  0  0  0  0  0  0
    4.5661   -3.3184    2.2668 C   0  0  0  0  0  0  0  0  0  0  0  0
    5.8079   -2.9756    1.9666 C   0  0  0  0  0  0  0  0  0  0  0  0
    6.2534   -2.4256    0.6209 C   0  0  2  0  0  0  0  0  0  0  0  0
    7.5720   -1.9787    0.6846 O   0  0  0  0  0  0  0  0  0  0  0  0
    5.4506   -1.3218    0.1851 O   0  0  0  0  0  0  0  0  0  0  0  0
    4.4791   -1.4357   -0.8703 C   0  0  0  0  0  0  0  0  0  0  0  0
    4.2099   -2.9063   -1.0227 C   0  0  1  0  0  0  0  0  0  0  0  0
    3.9102   -3.6501   -2.3539 C   0  0  1  0  0  0  0  0  0  0  0  0
    4.0485   -2.9132   -3.5708 O   0  0  0  0  0  0  0  0  0  0  0  0
    2.9530   -2.0532   -3.8406 C   0  0  0  0  0  0  0  0  0  0  0  0
    5.0101   -4.5468   -2.0594 O   0  0  0  0  0  0  0  0  0  0  0  0
    5.6090   -3.4476   -1.3715 C   0  0  1  0  0  0  0  0  0  0  0  0
    6.6668   -2.8282   -2.2968 C   0  0  0  0  0  0  0  0  0  0  0  0
    6.1957   -3.6165   -0.1347 O   0  0  0  0  0  0  0  0  0  0  0  0
    3.2571   -3.4209    0.1730 C   0  0  1  0  0  0  0  0  0  0  0  0
    2.0559   -3.0783   -0.4354 O   0  0  0  0  0  0  0  0  0  0  0  0
    4.3822   -4.6268    2.6747 O   0  0  0  0  0  0  0  0  0  0  0  0
    1.3611   -4.8781    5.6180 O   0  0  0  0  0  0  0  0  0  0  0  0
    2.2961   -5.7007    4.8996 C   0  0  1  0  0  0  0  0  0  0  0  0
    0.0427   -6.1730    0.1161 H   0  0  0  0  0  0  0  0  0  0  0  0
    1.3891   -6.6304   -0.8295 H   0  0  0  0  0  0  0  0  0  0  0  0
    0.7982   -5.0534   -1.0298 H   0  0  0  0  0  0  0  0  0  0  0  0
    3.4743   -5.5399   -0.4663 H   0  0  0  0  0  0  0  0  0  0  0  0
    5.6748   -6.0895    0.0047 H   0  0  0  0  0  0  0  0  0  0  0  0
    6.3021   -6.1932    1.7063 H   0  0  0  0  0  0  0  0  0  0  0  0
    2.4959   -8.5257    2.7795 H   0  0  0  0  0  0  0  0  0  0  0  0
    1.0902   -7.4784    4.5080 H   0  0  0  0  0  0  0  0  0  0  0  0
    1.1741   -2.6134    3.8952 H   0  0  0  0  0  0  0  0  0  0  0  0
    2.8532   -2.9274    4.2421 H   0  0  0  0  0  0  0  0  0  0  0  0
    3.8408   -0.5961    1.5608 H   0  0  0  0  0  0  0  0  0  0  0  0
    2.7952   -1.0142    2.8376 H   0  0  0  0  0  0  0  0  0  0  0  0
    2.1526   -0.9319    1.2287 H   0  0  0  0  0  0  0  0  0  0  0  0
    6.5790   -3.5848    2.4185 H   0  0  0  0  0  0  0  0  0  0  0  0
    7.6688   -1.4967    1.4950 H   0  0  0  0  0  0  0  0  0  0  0  0
    3.5906   -0.8319   -0.6917 H   0  0  0  0  0  0  0  0  0  0  0  0
    4.9138   -1.0217   -1.7763 H   0  0  0  0  0  0  0  0  0  0  0  0
    2.9478   -4.1572   -2.3381 H   0  0  0  0  0  0  0  0  0  0  0  0
    3.1218   -1.5488   -4.7887 H   0  0  0  0  0  0  0  0  0  0  0  0
    2.8830   -1.2821   -3.0801 H   0  0  0  0  0  0  0  0  0  0  0  0
    1.9976   -2.5776   -3.8954 H   0  0  0  0  0  0  0  0  0  0  0  0
    7.5352   -3.4754   -2.3320 H   0  0  0  0  0  0  0  0  0  0  0  0
    7.0274   -1.8789   -1.9230 H   0  0  0  0  0  0  0  0  0  0  0  0
    6.3266   -2.6662   -3.3159 H   0  0  0  0  0  0  0  0  0  0  0  0
    1.8998   -2.1155   -0.4541 H   0  0  0  0  0  0  0  0  0  0  0  0
    3.3190   -5.6960    5.2503 H   0  0  0  0  0  0  0  0  0  0  0  0
  1  2  1  0
  1 36  1  0
  1 37  1  0
  1 38  1  0
  2  3  1  0
  3 31  1  0
  3  4  1  0
  3 39  1  6
  4  7  1  0
  4 33  1  0
  4  5  1  6
  5  6  1  0
  5 40  1  0
  5 41  1  0
  7  6  1  1
  7  9  1  0
  7  8  1  0
  8  9  1  0
  9 10  1  0
  9 42  1  6
 10 35  1  0
 10 11  1  0
 10 43  1  1
 11 12  1  0
 12 35  1  0
 12 13  1  0
 12 34  1  1
 13 14  1  0
 13 44  1  0
 13 45  1  0
 14 15  1  0
 15 31  1  0
 15 16  1  6
 15 17  1  0
 16 46  1  0
 16 47  1  0
 16 48  1  0
 17 18  2  3
 17 33  1  0
 18 19  1  0
 18 49  1  0
 19 30  1  0
 19 20  1  1
 19 21  1  0
 20 50  1  0
 21 22  1  0
 23 22  1  6
 22 51  1  0
 22 52  1  0
 23 28  1  0
 23 24  1  0
 23 31  1  0
 24 25  1  0
 24 27  1  0
 24 53  1  1
 25 26  1  0
 26 54  1  0
 26 55  1  0
 26 56  1  0
 27 28  1  0
 28 29  1  6
 28 30  1  0
 29 57  1  0
 29 58  1  0
 29 59  1  0
 31 32  1  6
 32 60  1  0
 34 35  1  0
 35 61  1  1
M  END
>  <i_m_ct_stereo_status>  (78) 
1

>  <s_m_source_file>  (78) 
/var/tmp/pbs.5076253.sched01/tmp0k8q0ypy/944rjgrua_.sdf

>  <i_m_source_file_index>  (78) 
9

>  <i_lp_mmshare_version>  (78) 
48012

>  <i_f3d_flags>  (78) 
0

>  <s_epik_input>  (78) 
W0NIM11PW0NASF0xT1tDQEBdKE8yKShbQ0gzXSlbQ0BAXTEoW0NAQF0zKFtPSF0pW0NAQEhdNE9bQ0gzXSlbQ0gyXU9bQ0BAXTIoW09IXSkvW0NIXT1DKE81KVxbQ0BdMyhbQ0gzXSlPW0NIMl1bQ0BdKE82KShPNylbQ0BASF03W0NAQEhdNltDQEhdKE84KVtDQF04KFtDQEBdNDU5KU9bQ0gyXTk=

>  <s_epik_cmdline>  (78) 
J2VwaWtfcHl0aG9uJywgJy1waHQnLCAnMi4wJywgJy1waCcsICc3LjAnLCAnLXRuJywgJzgnLCAnLW1hJywgJzIwMCcsICctaW1hZScsICc8aW5maWxlLm1hZT4nLCAnLW9tYWUnLCAnPG91dGZpbGUubWFlPic=

>  <r_epik_Ionization_Penalty>  (78) 
0.0313243

>  <r_epik_Ionization_Penalty_Charging>  (78) 
0

>  <r_epik_Ionization_Penalty_Neutral>  (78) 
0.0313243

>  <r_epik_State_Penalty>  (78) 
0.0234624

>  <r_epik_Charging_Adjusted_Penalty>  (78) 
0.0234624

>  <i_epik_Tot_Q>  (78) 
0

>  <i_epik_Tot_abs_Q>  (78) 
0

>  <s_epik_Chemistry_Notes>  (78) 
This compound contains an acetal/aminal-like group ( X-CH(R)-Y where X, Y are N, S, or O) that may be acid/base labile, releasing an aldehyde.

>  <s_lp_Force_Field>  (78) 
OPLS3e

>  <r_lp_Energy>  (78) 
107.231

>  <b_lp_Chiralities_Consistent>  (78) 
1

>  <s_lp_Variant>  (78) 
62:0-1

>  <s_i_glide_gridfile>  (78) 
pfpi4k_grid

>  <i_i_glide_lignum>  (78) 
9

>  <i_i_glide_rotatable_bonds>  (78) 
4

>  <r_i_docking_score>  (78) 
-2.40087

>  <r_i_glide_ligand_efficiency>  (78) 
-0.0685964

>  <r_i_glide_ligand_efficiency_sa>  (78) 
-0.224383

>  <r_i_glide_ligand_efficiency_ln>  (78) 
-0.527045

>  <r_i_glide_gscore>  (78) 
-2.40087

>  <r_i_glide_lipo>  (78) 
-0.347908

>  <r_i_glide_hbond>  (78) 
-0.0798959

>  <r_i_glide_metal>  (78) 
-0

>  <r_i_glide_rewards>  (78) 
-0.294072

>  <r_i_glide_evdw>  (78) 
-13.1577

>  <r_i_glide_ecoul>  (78) 
-6.54189

>  <r_i_glide_erotb>  (78) 
0

>  <r_i_glide_esite>  (78) 
-0.0398258

>  <r_i_glide_emodel>  (78) 
-20.4135

>  <r_i_glide_energy>  (78) 
-19.6996

>  <r_i_glide_einternal>  (78) 
4.19738

>  <r_i_glide_intrahb_reward>  (78) 
-0

>  <i_i_glide_confnum>  (78) 
1

>  <i_i_glide_posenum>  (78) 
15

>  <r_i_glide_eff_state_penalty>  (78) 
0

>  <ligand_id>  (78) 
62

>  <original_smiles>  (78) 
COC1C23COC24OC4C2OC4(COC5(C)C(=CC6(O)OCC7(C(OC)OC7(C)O6)C15O)O3)OC24

>  <smiles>  (78) 
[H]OC12OC([H])([H])C3(C([H])(OC([H])([H])[H])OC3(C([H])([H])[H])O1)C1(O[H])C([H])(OC([H])([H])[H])C34OC(=C2[H])C1(C([H])([H])[H])OC([H])([H])C12OC([H])(C1([H])O2)C1([H])OC13OC4([H])[H]

$$$$
62:0:1
     RDKit          3D

 61 69  0  0  1  0  0  0  0  0999 V2000
    1.6389   -6.4107    0.7241 C   0  0  0  0  0  0  0  0  0  0  0  0
    2.2357   -5.2340    1.2397 O   0  0  0  0  0  0  0  0  0  0  0  0
    3.5240   -4.8719    0.7092 C   0  0  2  0  0  0  0  0  0  0  0  0
    4.6293   -5.3839    1.7137 C   0  0  2  0  0  0  0  0  0  0  0  0
    5.7620   -6.1842    1.0493 C   0  0  0  0  0  0  0  0  0  0  0  0
    5.0274   -7.4025    1.4145 O   0  0  0  0  0  0  0  0  0  0  0  0
    4.2410   -6.6748    2.3475 C   0  0  0  0  0  0  0  0  0  0  0  0
    4.8215   -6.9078    3.6453 O   0  0  0  0  0  0  0  0  0  0  0  0
    3.4085   -7.1812    3.5447 C   0  0  1  0  0  0  0  0  0  0  0  0
    2.6259   -6.3831    4.5843 C   0  0  2  0  0  0  0  0  0  0  0  0
    1.8552   -5.2926    3.9798 O   0  0  0  0  0  0  0  0  0  0  0  0
    2.4985   -4.2349    4.6952 C   0  0  1  0  0  0  0  0  0  0  0  0
    2.9203   -2.9315    4.0340 C   0  0  0  0  0  0  0  0  0  0  0  0
    2.8324   -3.1031    2.6183 O   0  0  0  0  0  0  0  0  0  0  0  0
    3.8557   -2.5973    1.7443 C   0  0  1  0  0  0  0  0  0  0  0  0
    3.7072   -1.0497    1.8854 C   0  0  0  0  0  0  0  0  0  0  0  0
    5.2103   -3.1657    2.1967 C   0  0  0  0  0  0  0  0  0  0  0  0
    6.3988   -2.9030    1.6620 C   0  0  0  0  0  0  0  0  0  0  0  0
    6.6774   -2.4298    0.2821 C   0  0  2  0  0  0  0  0  0  0  0  0
    8.0229   -2.0484    0.1412 O   0  0  0  0  0  0  0  0  0  0  0  0
    5.8560   -1.3035   -0.1059 O   0  0  0  0  0  0  0  0  0  0  0  0
    4.7042   -1.4287   -0.9638 C   0  0  0  0  0  0  0  0  0  0  0  0
    4.3384   -2.8935   -0.9779 C   0  0  1  0  0  0  0  0  0  0  0  0
    3.8388   -3.6999   -2.1968 C   0  0  1  0  0  0  0  0  0  0  0  0
    3.7903   -3.0209   -3.4544 O   0  0  0  0  0  0  0  0  0  0  0  0
    2.6600   -2.1797   -3.6297 C   0  0  0  0  0  0  0  0  0  0  0  0
    4.9826   -4.6065   -2.0370 O   0  0  0  0  0  0  0  0  0  0  0  0
    5.6654   -3.5021   -1.4788 C   0  0  1  0  0  0  0  0  0  0  0  0
    6.5954   -3.0030   -2.5749 C   0  0  0  0  0  0  0  0  0  0  0  0
    6.4714   -3.6397   -0.3818 O   0  0  0  0  0  0  0  0  0  0  0  0
    3.5615   -3.3212    0.3785 C   0  0  1  0  0  0  0  0  0  0  0  0
    2.2262   -3.0245    0.0141 O   0  0  0  0  0  0  0  0  0  0  0  0
    5.0492   -4.4134    2.7136 O   0  0  0  0  0  0  0  0  0  0  0  0
    2.5404   -4.3852    6.1204 O   0  0  0  0  0  0  0  0  0  0  0  0
    3.3316   -5.2871    5.3171 C   0  0  1  0  0  0  0  0  0  0  0  0
    0.6982   -6.6029    1.2371 H   0  0  0  0  0  0  0  0  0  0  0  0
    2.2554   -7.2944    0.8830 H   0  0  0  0  0  0  0  0  0  0  0  0
    1.4254   -6.2831   -0.3351 H   0  0  0  0  0  0  0  0  0  0  0  0
    3.6277   -5.4268   -0.2115 H   0  0  0  0  0  0  0  0  0  0  0  0
    5.8393   -6.0854   -0.0221 H   0  0  0  0  0  0  0  0  0  0  0  0
    6.7372   -6.1256    1.5499 H   0  0  0  0  0  0  0  0  0  0  0  0
    3.0880   -8.2032    3.3718 H   0  0  0  0  0  0  0  0  0  0  0  0
    1.9967   -7.0087    5.2301 H   0  0  0  0  0  0  0  0  0  0  0  0
    2.1855   -2.1803    4.3166 H   0  0  0  0  0  0  0  0  0  0  0  0
    3.8812   -2.5846    4.4089 H   0  0  0  0  0  0  0  0  0  0  0  0
    4.5086   -0.4437    1.4782 H   0  0  0  0  0  0  0  0  0  0  0  0
    3.6721   -0.7365    2.9255 H   0  0  0  0  0  0  0  0  0  0  0  0
    2.7737   -0.7041    1.4361 H   0  0  0  0  0  0  0  0  0  0  0  0
    7.1946   -3.5476    2.0256 H   0  0  0  0  0  0  0  0  0  0  0  0
    8.5398   -2.6322    0.6712 H   0  0  0  0  0  0  0  0  0  0  0  0
    3.8821   -0.7697   -0.6830 H   0  0  0  0  0  0  0  0  0  0  0  0
    4.9900   -1.0851   -1.9579 H   0  0  0  0  0  0  0  0  0  0  0  0
    2.9004   -4.2035   -1.9811 H   0  0  0  0  0  0  0  0  0  0  0  0
    2.6868   -1.7312   -4.6226 H   0  0  0  0  0  0  0  0  0  0  0  0
    2.6699   -1.3632   -2.9129 H   0  0  0  0  0  0  0  0  0  0  0  0
    1.7150   -2.7154   -3.5374 H   0  0  0  0  0  0  0  0  0  0  0  0
    7.3910   -3.7323   -2.6910 H   0  0  0  0  0  0  0  0  0  0  0  0
    7.0703   -2.0683   -2.3028 H   0  0  0  0  0  0  0  0  0  0  0  0
    6.0990   -2.8685   -3.5263 H   0  0  0  0  0  0  0  0  0  0  0  0
    2.1454   -2.1027   -0.2217 H   0  0  0  0  0  0  0  0  0  0  0  0
    4.4076   -5.2830    5.4794 H   0  0  0  0  0  0  0  0  0  0  0  0
  1  2  1  0
  1 36  1  0
  1 37  1  0
  1 38  1  0
  2  3  1  0
  3 31  1  0
  3  4  1  0
  3 39  1  6
  4  7  1  0
  4 33  1  0
  4  5  1  6
  5  6  1  0
  5 40  1  0
  5 41  1  0
  6  7  1  0
  7  9  1  0
  7  8  1  0
  8  9  1  0
  9 10  1  0
  9 42  1  6
 10 35  1  0
 10 11  1  0
 10 43  1  1
 11 12  1  0
 12 35  1  0
 12 13  1  0
 12 34  1  1
 13 14  1  0
 13 44  1  0
 13 45  1  0
 14 15  1  0
 15 31  1  0
 15 16  1  6
 15 17  1  0
 16 46  1  0
 16 47  1  0
 16 48  1  0
 17 18  2  3
 17 33  1  0
 18 19  1  0
 18 49  1  0
 19 30  1  0
 19 20  1  1
 19 21  1  0
 20 50  1  0
 21 22  1  0
 23 22  1  6
 22 51  1  0
 22 52  1  0
 23 28  1  0
 23 24  1  0
 23 31  1  0
 24 25  1  0
 24 27  1  0
 24 53  1  1
 25 26  1  0
 26 54  1  0
 26 55  1  0
 26 56  1  0
 27 28  1  0
 28 29  1  6
 28 30  1  0
 29 57  1  0
 29 58  1  0
 29 59  1  0
 31 32  1  6
 32 60  1  0
 34 35  1  0
 35 61  1  1
M  END
>  <i_m_ct_stereo_status>  (79) 
1

>  <s_m_source_file>  (79) 
/var/tmp/pbs.5076253.sched01/tmp0k8q0ypy/944rjgrua_.sdf

>  <i_m_source_file_index>  (79) 
9

>  <i_lp_mmshare_version>  (79) 
48012

>  <i_f3d_flags>  (79) 
0

>  <s_epik_input>  (79) 
W0NIM11PW0NASF0xT1tDQEBdKE8yKShbQ0gzXSlbQ0BAXTEoW0NAQF0zKFtPSF0pW0NAQEhdNE9bQ0gzXSlbQ0gyXU9bQ0BAXTIoW09IXSkvW0NIXT1DKE81KVxbQ0BdMyhbQ0gzXSlPW0NIMl1bQ0BdKE82KShPNylbQ0BASF03W0NAQEhdNltDQEhdKE84KVtDQF04KFtDQEBdNDU5KU9bQ0gyXTk=

>  <s_epik_cmdline>  (79) 
J2VwaWtfcHl0aG9uJywgJy1waHQnLCAnMi4wJywgJy1waCcsICc3LjAnLCAnLXRuJywgJzgnLCAnLW1hJywgJzIwMCcsICctaW1hZScsICc8aW5maWxlLm1hZT4nLCAnLW9tYWUnLCAnPG91dGZpbGUubWFlPic=

>  <r_epik_Ionization_Penalty>  (79) 
0.0313243

>  <r_epik_Ionization_Penalty_Charging>  (79) 
0

>  <r_epik_Ionization_Penalty_Neutral>  (79) 
0.0313243

>  <r_epik_State_Penalty>  (79) 
0.0234624

>  <r_epik_Charging_Adjusted_Penalty>  (79) 
0.0234624

>  <i_epik_Tot_Q>  (79) 
0

>  <i_epik_Tot_abs_Q>  (79) 
0

>  <s_epik_Chemistry_Notes>  (79) 
This compound contains an acetal/aminal-like group ( X-CH(R)-Y where X, Y are N, S, or O) that may be acid/base labile, releasing an aldehyde.

>  <s_lp_Force_Field>  (79) 
OPLS3e

>  <r_lp_Energy>  (79) 
107.231

>  <b_lp_Chiralities_Consistent>  (79) 
1

>  <s_lp_Variant>  (79) 
62:0-1

>  <s_i_glide_gridfile>  (79) 
pfpi4k_grid

>  <i_i_glide_lignum>  (79) 
9

>  <i_i_glide_rotatable_bonds>  (79) 
4

>  <r_i_docking_score>  (79) 
-2.30267

>  <r_i_glide_ligand_efficiency>  (79) 
-0.0657907

>  <r_i_glide_ligand_efficiency_sa>  (79) 
-0.215206

>  <r_i_glide_ligand_efficiency_ln>  (79) 
-0.505488

>  <r_i_glide_gscore>  (79) 
-2.30267

>  <r_i_glide_lipo>  (79) 
-0.468067

>  <r_i_glide_hbond>  (79) 
-0.00173641

>  <r_i_glide_metal>  (79) 
-0

>  <r_i_glide_rewards>  (79) 
-0.263229

>  <r_i_glide_evdw>  (79) 
-18.0165

>  <r_i_glide_ecoul>  (79) 
-4.23455

>  <r_i_glide_erotb>  (79) 
0

>  <r_i_glide_esite>  (79) 
-0.0336332

>  <r_i_glide_emodel>  (79) 
-23.0017

>  <r_i_glide_energy>  (79) 
-22.2511

>  <r_i_glide_einternal>  (79) 
4.15385

>  <r_i_glide_intrahb_reward>  (79) 
-0

>  <i_i_glide_confnum>  (79) 
2

>  <i_i_glide_posenum>  (79) 
11

>  <r_i_glide_eff_state_penalty>  (79) 
0

>  <ligand_id>  (79) 
62

>  <original_smiles>  (79) 
COC1C23COC24OC4C2OC4(COC5(C)C(=CC6(O)OCC7(C(OC)OC7(C)O6)C15O)O3)OC24

>  <smiles>  (79) 
[H]OC12OC([H])([H])C3(C([H])(OC([H])([H])[H])OC3(C([H])([H])[H])O1)C1(O[H])C([H])(OC([H])([H])[H])C34OC(=C2[H])C1(C([H])([H])[H])OC([H])([H])C12OC([H])(C1([H])O2)C1([H])OC13OC4([H])[H]

$$$$
62:0:2
     RDKit          3D

 61 69  0  0  1  0  0  0  0  0999 V2000
    1.2740   -6.0868    0.9349 C   0  0  0  0  0  0  0  0  0  0  0  0
    2.0726   -5.0573    1.4998 O   0  0  0  0  0  0  0  0  0  0  0  0
    3.2660   -4.6690    0.7951 C   0  0  2  0  0  0  0  0  0  0  0  0
    4.4737   -5.5450    1.3431 C   0  0  2  0  0  0  0  0  0  0  0  0
    5.3093   -6.2218    0.2479 C   0  0  0  0  0  0  0  0  0  0  0  0
    4.5239   -7.4341    0.5016 O   0  0  0  0  0  0  0  0  0  0  0  0
    4.0843   -6.9128    1.7365 C   0  0  0  0  0  0  0  0  0  0  0  0
    4.8817   -7.5193    2.7789 O   0  0  0  0  0  0  0  0  0  0  0  0
    3.4533   -7.6385    2.9461 C   0  0  1  0  0  0  0  0  0  0  0  0
    3.0139   -7.0847    4.3077 C   0  0  2  0  0  0  0  0  0  0  0  0
    2.3128   -5.8019    4.2337 O   0  0  0  0  0  0  0  0  0  0  0  0
    3.2917   -5.0542    4.9613 C   0  0  1  0  0  0  0  0  0  0  0  0
    3.7751   -3.6791    4.5262 C   0  0  0  0  0  0  0  0  0  0  0  0
    3.3626   -3.4608    3.1770 O   0  0  0  0  0  0  0  0  0  0  0  0
    4.2286   -2.8206    2.2173 C   0  0  1  0  0  0  0  0  0  0  0  0
    4.3844   -1.3710    2.7782 C   0  0  0  0  0  0  0  0  0  0  0  0
    5.5146   -3.6248    2.1494 C   0  0  0  0  0  0  0  0  0  0  0  0
    6.6276   -3.3745    1.4218 C   0  0  0  0  0  0  0  0  0  0  0  0
    6.6261   -2.5522    0.1576 C   0  0  2  0  0  0  0  0  0  0  0  0
    7.9491   -2.2823   -0.2176 O   0  0  0  0  0  0  0  0  0  0  0  0
    5.9334   -1.3089    0.2937 O   0  0  0  0  0  0  0  0  0  0  0  0
    4.6108   -1.0523   -0.2519 C   0  0  0  0  0  0  0  0  0  0  0  0
    4.0144   -2.4123   -0.5231 C   0  0  1  0  0  0  0  0  0  0  0  0
    3.1225   -2.8337   -1.7310 C   0  0  1  0  0  0  0  0  0  0  0  0
    2.9384   -1.8384   -2.7211 O   0  0  0  0  0  0  0  0  0  0  0  0
    2.3046   -2.3486   -3.8834 C   0  0  0  0  0  0  0  0  0  0  0  0
    4.0980   -3.8623   -2.0729 O   0  0  0  0  0  0  0  0  0  0  0  0
    5.0728   -3.0018   -1.5077 C   0  0  1  0  0  0  0  0  0  0  0  0
    5.7744   -2.2969   -2.6814 C   0  0  0  0  0  0  0  0  0  0  0  0
    6.0907   -3.5080   -0.7270 O   0  0  0  0  0  0  0  0  0  0  0  0
    3.4810   -3.0837    0.8486 C   0  0  1  0  0  0  0  0  0  0  0  0
    2.2212   -2.4612    1.0010 O   0  0  0  0  0  0  0  0  0  0  0  0
    5.2624   -4.9382    2.3929 O   0  0  0  0  0  0  0  0  0  0  0  0
    3.6023   -5.5924    6.2475 O   0  0  0  0  0  0  0  0  0  0  0  0
    4.0517   -6.3187    5.0876 C   0  0  1  0  0  0  0  0  0  0  0  0
    0.4560   -6.2724    1.6330 H   0  0  0  0  0  0  0  0  0  0  0  0
    1.7751   -7.0451    0.8038 H   0  0  0  0  0  0  0  0  0  0  0  0
    0.8721   -5.8019   -0.0390 H   0  0  0  0  0  0  0  0  0  0  0  0
    3.0940   -4.9537   -0.2393 H   0  0  0  0  0  0  0  0  0  0  0  0
    5.1374   -5.8886   -0.7604 H   0  0  0  0  0  0  0  0  0  0  0  0
    6.3649   -6.3605    0.4810 H   0  0  0  0  0  0  0  0  0  0  0  0
    2.9890   -8.5506    2.6156 H   0  0  0  0  0  0  0  0  0  0  0  0
    2.4580   -7.8013    4.9374 H   0  0  0  0  0  0  0  0  0  0  0  0
    3.2887   -2.9076    5.1358 H   0  0  0  0  0  0  0  0  0  0  0  0
    4.8572   -3.5796    4.7038 H   0  0  0  0  0  0  0  0  0  0  0  0
    5.1648   -0.7630    2.3364 H   0  0  0  0  0  0  0  0  0  0  0  0
    4.6332   -1.3548    3.8348 H   0  0  0  0  0  0  0  0  0  0  0  0
    3.4521   -0.8179    2.6770 H   0  0  0  0  0  0  0  0  0  0  0  0
    7.3640   -4.1624    1.4105 H   0  0  0  0  0  0  0  0  0  0  0  0
    8.5096   -2.8516    0.2622 H   0  0  0  0  0  0  0  0  0  0  0  0
    3.9954   -0.4197    0.3958 H   0  0  0  0  0  0  0  0  0  0  0  0
    4.7087   -0.4712   -1.1643 H   0  0  0  0  0  0  0  0  0  0  0  0
    2.1741   -3.2784   -1.4318 H   0  0  0  0  0  0  0  0  0  0  0  0
    2.1455   -1.5356   -4.5918 H   0  0  0  0  0  0  0  0  0  0  0  0
    1.3386   -2.7847   -3.6336 H   0  0  0  0  0  0  0  0  0  0  0  0
    2.9117   -3.1193   -4.3625 H   0  0  0  0  0  0  0  0  0  0  0  0
    6.3970   -3.0291   -3.1980 H   0  0  0  0  0  0  0  0  0  0  0  0
    6.4219   -1.5104   -2.3089 H   0  0  0  0  0  0  0  0  0  0  0  0
    5.1115   -1.8528   -3.4222 H   0  0  0  0  0  0  0  0  0  0  0  0
    1.9967   -1.9126    0.2480 H   0  0  0  0  0  0  0  0  0  0  0  0
    5.1371   -6.4064    4.8729 H   0  0  0  0  0  0  0  0  0  0  0  0
  1  2  1  0
  1 36  1  0
  1 37  1  0
  1 38  1  0
  2  3  1  0
  3 31  1  0
  3  4  1  0
  3 39  1  6
  4  7  1  0
  4 33  1  0
  4  5  1  6
  5  6  1  0
  5 40  1  0
  5 41  1  0
  6  7  1  0
  7  9  1  0
  7  8  1  0
  8  9  1  0
  9 10  1  0
  9 42  1  6
 10 35  1  0
 10 11  1  0
 10 43  1  1
 11 12  1  0
 12 35  1  0
 12 13  1  0
 12 34  1  1
 13 14  1  0
 13 44  1  0
 13 45  1  0
 14 15  1  0
 15 31  1  0
 15 16  1  1
 15 17  1  0
 16 46  1  0
 16 47  1  0
 16 48  1  0
 17 18  2  3
 17 33  1  0
 18 19  1  0
 18 49  1  0
 19 30  1  0
 19 20  1  6
 19 21  1  0
 20 50  1  0
 21 22  1  0
 23 22  1  1
 22 51  1  0
 22 52  1  0
 23 28  1  0
 23 24  1  0
 23 31  1  0
 24 25  1  0
 24 27  1  0
 24 53  1  1
 25 26  1  0
 26 54  1  0
 26 55  1  0
 26 56  1  0
 27 28  1  0
 28 29  1  6
 28 30  1  0
 29 57  1  0
 29 58  1  0
 29 59  1  0
 31 32  1  1
 32 60  1  0
 34 35  1  0
 35 61  1  1
M  END
>  <i_m_ct_stereo_status>  (80) 
1

>  <s_m_source_file>  (80) 
/var/tmp/pbs.5076253.sched01/tmp0k8q0ypy/944rjgrua_.sdf

>  <i_m_source_file_index>  (80) 
9

>  <i_lp_mmshare_version>  (80) 
48012

>  <i_f3d_flags>  (80) 
0

>  <s_epik_input>  (80) 
W0NIM11PW0NASF0xT1tDQEBdKE8yKShbQ0gzXSlbQ0BAXTEoW0NAQF0zKFtPSF0pW0NAQEhdNE9bQ0gzXSlbQ0gyXU9bQ0BAXTIoW09IXSkvW0NIXT1DKE81KVxbQ0BdMyhbQ0gzXSlPW0NIMl1bQ0BdKE82KShPNylbQ0BASF03W0NAQEhdNltDQEhdKE84KVtDQF04KFtDQEBdNDU5KU9bQ0gyXTk=

>  <s_epik_cmdline>  (80) 
J2VwaWtfcHl0aG9uJywgJy1waHQnLCAnMi4wJywgJy1waCcsICc3LjAnLCAnLXRuJywgJzgnLCAnLW1hJywgJzIwMCcsICctaW1hZScsICc8aW5maWxlLm1hZT4nLCAnLW9tYWUnLCAnPG91dGZpbGUubWFlPic=

>  <r_epik_Ionization_Penalty>  (80) 
0.0313243

>  <r_epik_Ionization_Penalty_Charging>  (80) 
0

>  <r_epik_Ionization_Penalty_Neutral>  (80) 
0.0313243

>  <r_epik_State_Penalty>  (80) 
0.0234624

>  <r_epik_Charging_Adjusted_Penalty>  (80) 
0.0234624

>  <i_epik_Tot_Q>  (80) 
0

>  <i_epik_Tot_abs_Q>  (80) 
0

>  <s_epik_Chemistry_Notes>  (80) 
This compound contains an acetal/aminal-like group ( X-CH(R)-Y where X, Y are N, S, or O) that may be acid/base labile, releasing an aldehyde.

>  <s_lp_Force_Field>  (80) 
OPLS3e

>  <r_lp_Energy>  (80) 
107.231

>  <b_lp_Chiralities_Consistent>  (80) 
1

>  <s_lp_Variant>  (80) 
62:0-1

>  <s_i_glide_gridfile>  (80) 
pfpi4k_grid

>  <i_i_glide_lignum>  (80) 
9

>  <i_i_glide_rotatable_bonds>  (80) 
4

>  <r_i_docking_score>  (80) 
-2.10961

>  <r_i_glide_ligand_efficiency>  (80) 
-0.0602744

>  <r_i_glide_ligand_efficiency_sa>  (80) 
-0.197162

>  <r_i_glide_ligand_efficiency_ln>  (80) 
-0.463105

>  <r_i_glide_gscore>  (80) 
-2.10961

>  <r_i_glide_lipo>  (80) 
-0.496234

>  <r_i_glide_hbond>  (80) 
-0.0196476

>  <r_i_glide_metal>  (80) 
-0

>  <r_i_glide_rewards>  (80) 
-0.199362

>  <r_i_glide_evdw>  (80) 
-22.5977

>  <r_i_glide_ecoul>  (80) 
-1.63535

>  <r_i_glide_erotb>  (80) 
0

>  <r_i_glide_esite>  (80) 
-0.0191746

>  <r_i_glide_emodel>  (80) 
-24.8411

>  <r_i_glide_energy>  (80) 
-24.233

>  <r_i_glide_einternal>  (80) 
3.7405

>  <r_i_glide_intrahb_reward>  (80) 
-0

>  <i_i_glide_confnum>  (80) 
1

>  <i_i_glide_posenum>  (80) 
4

>  <r_i_glide_eff_state_penalty>  (80) 
0

>  <ligand_id>  (80) 
62

>  <original_smiles>  (80) 
COC1C23COC24OC4C2OC4(COC5(C)C(=CC6(O)OCC7(C(OC)OC7(C)O6)C15O)O3)OC24

>  <smiles>  (80) 
[H]OC12OC([H])([H])C3(C([H])(OC([H])([H])[H])OC3(C([H])([H])[H])O1)C1(O[H])C([H])(OC([H])([H])[H])C34OC(=C2[H])C1(C([H])([H])[H])OC([H])([H])C12OC([H])(C1([H])O2)C1([H])OC13OC4([H])[H]

$$$$
64:0:0
     RDKit          3D

103115  0  0  1  0  0  0  0  0999 V2000
    1.5684    0.5834    8.6174 O   0  0  0  0  0  0  0  0  0  0  0  0
    2.5696    0.0099    8.1742 C   0  0  0  0  0  0  0  0  0  0  0  0
    4.0360    0.0818    8.7524 C   0  0  2  0  0  0  0  0  0  0  0  0
    5.2999    0.6517    8.0406 C   0  0  1  0  0  0  0  0  0  0  0  0
    6.2963    1.3687    8.9516 C   0  0  0  0  0  0  0  0  0  0  0  0
    7.4216    1.8011    8.2099 O   0  0  0  0  0  0  0  0  0  0  0  0
    5.7167   -0.7798    7.5761 C   0  0  2  0  0  0  0  0  0  0  0  0
    5.4437   -1.2677    6.2293 O   0  0  0  0  0  0  0  0  0  0  0  0
    5.1511   -2.6584    6.0493 C   0  0  1  0  0  0  0  0  0  0  0  0
    6.2593   -3.4561    6.3774 O   0  0  0  0  0  0  0  0  0  0  0  0
    3.8948   -3.1198    6.8872 C   0  0  2  0  0  0  0  0  0  0  0  0
    2.5095   -3.2912    6.2079 C   0  0  1  0  0  0  0  0  0  0  0  0
    1.9211   -4.5803    6.2684 O   0  0  0  0  0  0  0  0  0  0  0  0
    0.7577   -4.6958    5.4836 C   0  0  2  0  0  0  0  0  0  0  0  0
    0.0746   -6.0334    5.9444 C   0  0  0  0  0  0  0  0  0  0  0  0
   -0.1858   -7.0844    4.8836 C   0  0  2  0  0  0  0  0  0  0  0  0
    1.0568   -7.6717    4.4097 O   0  0  0  0  0  0  0  0  0  0  0  0
    0.7143   -6.9325    3.2512 C   0  0  2  0  0  0  0  0  0  0  0  0
   -0.5714   -6.4633    3.6353 O   0  0  0  0  0  0  0  0  0  0  0  0
    1.5383   -6.2449    2.1900 C   0  0  2  0  0  0  0  0  0  0  0  0
    2.7937   -6.8761    1.6798 C   0  0  0  0  0  0  0  0  0  0  0  0
    3.7273   -6.9972    2.8948 C   0  0  0  0  0  0  0  0  0  0  0  0
    3.1894   -5.9974    3.9267 C   0  0  0  0  0  0  0  0  0  0  0  0
    1.7248   -5.8276    3.5959 C   0  0  2  0  0  0  0  0  0  0  0  0
    1.0557   -4.6818    4.1036 O   0  0  0  0  0  0  0  0  0  0  0  0
   -0.1938   -3.6867    5.7842 O   0  0  0  0  0  0  0  0  0  0  0  0
    0.2072   -2.3024    5.9588 C   0  0  2  0  0  0  0  0  0  0  0  0
    0.1057   -1.5322    4.6262 C   0  0  2  0  0  0  0  0  0  0  0  0
    1.3218   -1.4639    3.6994 C   0  0  0  0  0  0  0  0  0  0  0  0
    2.6067   -0.8301    4.2506 C   0  0  0  0  0  0  0  0  0  0  0  0
    2.5591   -0.1426    5.6411 C   0  0  1  0  0  0  0  0  0  0  0  0
    3.7260    0.6296    5.5361 O   0  0  0  0  0  0  0  0  0  0  0  0
    1.5241    1.0246    5.5436 C   0  0  0  0  0  0  0  0  0  0  0  0
    0.0457    0.6862    5.7946 C   0  0  1  0  0  0  0  0  0  0  0  0
   -0.8114    1.9640    5.9043 C   0  0  0  0  0  0  0  0  0  0  0  0
   -0.9564    2.6857    4.6155 N   0  0  0  0  0  0  0  0  0  0  0  0
   -0.9058    4.1539    4.7892 C   0  0  0  0  0  0  0  0  0  0  0  0
   -1.0288    4.8920    3.4454 C   0  0  0  0  0  0  0  0  0  0  0  0
   -2.2486    4.4317    2.7751 N   0  0  0  0  0  0  0  0  0  0  0  0
   -3.1899    5.3068    2.1530 C   0  0  0  0  0  0  0  0  0  0  0  0
   -4.5354    4.9121    2.0359 C   0  0  0  0  0  0  0  0  0  0  0  0
   -5.4717    5.8258    1.4808 C   0  0  0  0  0  0  0  0  0  0  0  0
   -5.0541    7.0329    1.0559 N   0  0  0  0  0  0  0  0  0  0  0  0
   -3.7667    7.4349    1.1071 C   0  0  0  0  0  0  0  0  0  0  0  0
   -2.7929    6.5500    1.6432 C   0  0  0  0  0  0  0  0  0  0  0  0
   -2.3278    2.9919    2.5581 C   0  0  0  0  0  0  0  0  0  0  0  0
   -2.1892    2.2744    3.8923 C   0  0  0  0  0  0  0  0  0  0  0  0
   -0.5270   -0.2302    4.8062 N   0  0  0  0  0  0  0  0  0  0  0  0
    2.4725   -1.0268    7.0128 C   0  0  1  0  0  0  0  0  0  0  0  0
    3.5302   -1.9703    7.7516 C   0  0  2  0  0  0  0  0  0  0  0  0
    4.6141   -1.2628    8.4594 C   0  0  2  0  0  0  0  0  0  0  0  0
    1.4937   -2.2514    6.8205 C   0  0  2  0  0  0  0  0  0  0  0  0
    0.9097   -2.6280    8.0807 O   0  0  0  0  0  0  0  0  0  0  0  0
    4.0796    0.3025    9.8226 H   0  0  0  0  0  0  0  0  0  0  0  0
    5.0537    1.3185    7.2370 H   0  0  0  0  0  0  0  0  0  0  0  0
    5.8412    2.2414    9.4268 H   0  0  0  0  0  0  0  0  0  0  0  0
    6.6391    0.7044    9.7551 H   0  0  0  0  0  0  0  0  0  0  0  0
    8.0552    2.1861    8.7982 H   0  0  0  0  0  0  0  0  0  0  0  0
    6.7063   -1.0691    7.9454 H   0  0  0  0  0  0  0  0  0  0  0  0
    4.9955   -2.8176    4.9905 H   0  0  0  0  0  0  0  0  0  0  0  0
    6.0520   -4.3486    6.1552 H   0  0  0  0  0  0  0  0  0  0  0  0
    4.1494   -3.9898    7.5004 H   0  0  0  0  0  0  0  0  0  0  0  0
    2.6901   -3.1465    5.1564 H   0  0  0  0  0  0  0  0  0  0  0  0
    0.6670   -6.4977    6.7293 H   0  0  0  0  0  0  0  0  0  0  0  0
   -0.8796   -5.8057    6.3891 H   0  0  0  0  0  0  0  0  0  0  0  0
   -0.8497   -7.9058    5.1242 H   0  0  0  0  0  0  0  0  0  0  0  0
    1.0129   -5.5809    1.5482 H   0  0  0  0  0  0  0  0  0  0  0  0
    2.5785   -7.8491    1.2251 H   0  0  0  0  0  0  0  0  0  0  0  0
    3.2255   -6.2323    0.9142 H   0  0  0  0  0  0  0  0  0  0  0  0
    3.6241   -7.9922    3.3016 H   0  0  0  0  0  0  0  0  0  0  0  0
    4.7713   -6.8358    2.6388 H   0  0  0  0  0  0  0  0  0  0  0  0
    3.3264   -6.3402    4.9564 H   0  0  0  0  0  0  0  0  0  0  0  0
    3.6837   -5.0278    3.8173 H   0  0  0  0  0  0  0  0  0  0  0  0
   -0.6285   -1.9151    6.5590 H   0  0  0  0  0  0  0  0  0  0  0  0
   -0.6059   -2.1151    4.0471 H   0  0  0  0  0  0  0  0  0  0  0  0
    1.5565   -2.4510    3.3118 H   0  0  0  0  0  0  0  0  0  0  0  0
    1.0236   -0.9107    2.8065 H   0  0  0  0  0  0  0  0  0  0  0  0
    3.4451   -1.5131    4.1672 H   0  0  0  0  0  0  0  0  0  0  0  0
    2.8634   -0.0801    3.4995 H   0  0  0  0  0  0  0  0  0  0  0  0
    3.7264    1.0878    4.7090 H   0  0  0  0  0  0  0  0  0  0  0  0
    1.7987    1.7849    6.2721 H   0  0  0  0  0  0  0  0  0  0  0  0
    1.6187    1.5359    4.5785 H   0  0  0  0  0  0  0  0  0  0  0  0
   -0.0301    0.2394    6.7863 H   0  0  0  0  0  0  0  0  0  0  0  0
   -1.7891    1.7311    6.3318 H   0  0  0  0  0  0  0  0  0  0  0  0
   -0.3475    2.6053    6.6615 H   0  0  0  0  0  0  0  0  0  0  0  0
   -1.7474    4.4508    5.4122 H   0  0  0  0  0  0  0  0  0  0  0  0
    0.0122    4.4744    5.2884 H   0  0  0  0  0  0  0  0  0  0  0  0
   -0.9736    5.9760    3.5991 H   0  0  0  0  0  0  0  0  0  0  0  0
   -0.1196    4.6705    2.8855 H   0  0  0  0  0  0  0  0  0  0  0  0
   -4.8849    3.9588    2.4010 H   0  0  0  0  0  0  0  0  0  0  0  0
   -6.5285    5.6057    1.3954 H   0  0  0  0  0  0  0  0  0  0  0  0
   -3.5293    8.4160    0.7350 H   0  0  0  0  0  0  0  0  0  0  0  0
   -1.7618    6.8687    1.6603 H   0  0  0  0  0  0  0  0  0  0  0  0
   -3.2321    2.6570    2.0360 H   0  0  0  0  0  0  0  0  0  0  0  0
   -1.4871    2.6466    1.9537 H   0  0  0  0  0  0  0  0  0  0  0  0
   -2.2025    1.2020    3.6873 H   0  0  0  0  0  0  0  0  0  0  0  0
   -3.0647    2.5304    4.4808 H   0  0  0  0  0  0  0  0  0  0  0  0
   -1.5070   -0.3755    5.0158 H   0  0  0  0  0  0  0  0  0  0  0  0
    3.0969   -2.4702    8.6233 H   0  0  0  0  0  0  0  0  0  0  0  0
    5.0095   -1.7540    9.3396 H   0  0  0  0  0  0  0  0  0  0  0  0
    1.4500   -2.2987    8.7807 H   0  0  0  0  0  0  0  0  0  0  0  0
   -5.7464    7.6748    0.6592 H   0  0  0  0  0  0  0  0  0  0  0  0
   -0.1821    2.4354    4.0208 H   0  0  0  0  0  0  0  0  0  0  0  0
  1  2  2  0
 49  2  1  1
  2  3  1  0
  3 51  1  0
  3  4  1  0
  3 54  1  1
  4  5  1  0
  4  7  1  0
  4 55  1  6
  5  6  1  0
  5 56  1  0
  5 57  1  0
  6 58  1  0
  7 51  1  0
  7  8  1  0
  7 59  1  1
  8  9  1  0
  9 10  1  0
  9 11  1  0
  9 60  1  6
 10 61  1  0
 11 50  1  0
 11 12  1  0
 11 62  1  1
 12 52  1  0
 12 13  1  0
 12 63  1  6
 14 13  1  1
 14 25  1  0
 14 15  1  0
 14 26  1  0
 15 16  1  0
 15 64  1  0
 15 65  1  0
 16 19  1  0
 16 17  1  0
 16 66  1  1
 18 17  1  1
 18 24  1  0
 18 19  1  0
 18 20  1  0
 20 24  1  0
 20 21  1  0
 20 67  1  6
 21 22  1  0
 21 68  1  0
 21 69  1  0
 22 23  1  0
 22 70  1  0
 22 71  1  0
 24 23  1  1
 23 72  1  0
 23 73  1  0
 24 25  1  0
 26 27  1  0
 27 52  1  0
 27 28  1  0
 27 74  1  1
 28 48  1  0
 28 29  1  0
 28 75  1  6
 29 30  1  0
 29 76  1  0
 29 77  1  0
 30 31  1  0
 30 78  1  0
 30 79  1  0
 31 32  1  1
 31 33  1  0
 31 49  1  0
 32 80  1  0
 33 34  1  0
 33 81  1  0
 33 82  1  0
 34 35  1  0
 34 48  1  0
 34 83  1  1
 35 36  1  0
 35 84  1  0
 35 85  1  0
 36 47  1  0
 36 37  1  0
 36103  1  0
 37 38  1  0
 37 86  1  0
 37 87  1  0
 38 39  1  0
 38 88  1  0
 38 89  1  0
 39 40  1  0
 39 46  1  0
 40 45  1  0
 40 41  2  0
 41 42  1  0
 41 90  1  0
 42 43  2  0
 42 91  1  0
 43 44  1  0
 43102  1  0
 44 45  2  0
 44 92  1  0
 45 93  1  0
 46 47  1  0
 46 94  1  0
 46 95  1  0
 47 96  1  0
 47 97  1  0
 48 98  1  0
 49 50  1  0
 49 52  1  0
 50 51  1  0
 50 99  1  1
 51100  1  1
 52 53  1  1
 53101  1  0
M  CHG  2  36   1  43   1
M  END
>  <i_m_ct_stereo_status>  (81) 
1

>  <s_m_source_file>  (81) 
/var/tmp/pbs.5076253.sched01/tmp0k8q0ypy/944rjgrua_.sdf

>  <i_m_source_file_index>  (81) 
14

>  <i_lp_mmshare_version>  (81) 
48012

>  <i_f3d_flags>  (81) 
0

>  <s_epik_input>  (81) 
W0NIMl0xW0NIMl1bQ0gyXVtDQEBIXTJbQ0BAXTEoTzMpQzIoTzQpT1tDQEhdNFtDSDJdW0NAQF0zNU9bQ0BASF02W0NAQEhdN1tDQEBIXThbQ0BAXTkoQyg9TylbQ0BIXTFbQ0BASF04W0NASF0oW0NAQEhdMVtDSDJdW09IXSlPW0NASF03W09IXSlbQ0BAXTEoW09IXSlbQ0gyXVtDSDJdW0NAQEhdKFtDQEBIXShPNSlbQ0BAXTY5W09IXSlbTkhdW0NAQEhdKFtDSDJdMSlbQ0gyXU4xW0NIMl1bQ0gyXU4oW0NIMl1bQ0gyXTEpYzFbY0hdW2NIXW5bY0hdW2NIXTE=

>  <s_epik_cmdline>  (81) 
J2VwaWtfcHl0aG9uJywgJy1waHQnLCAnMi4wJywgJy1waCcsICc3LjAnLCAnLXRuJywgJzgnLCAnLW1hJywgJzIwMCcsICctaW1hZScsICc8aW5maWxlLm1hZT4nLCAnLW9tYWUnLCAnPG91dGZpbGUubWFlPic=

>  <r_lp_tautomer_probability>  (81) 
1

>  <r_epik_Ionization_Penalty>  (81) 
0.130814

>  <r_epik_Ionization_Penalty_Charging>  (81) 
0.0152498

>  <r_epik_Ionization_Penalty_Neutral>  (81) 
0.115564

>  <r_epik_State_Penalty>  (81) 
0.430705

>  <r_epik_Charging_Adjusted_Penalty>  (81) 
0.445955

>  <i_epik_Tot_Q>  (81) 
2

>  <i_epik_Tot_abs_Q>  (81) 
2

>  <s_epik_Chemistry_Notes>  (81) 
This compound contains an acetal/aminal-like group ( X-CH(R)-Y where X, Y are N, S, or O) that may be acid/base labile, releasing an aldehyde.

>  <s_lp_Force_Field>  (81) 
OPLS3e

>  <r_lp_Energy>  (81) 
214.76

>  <b_lp_Chiralities_Consistent>  (81) 
1

>  <s_lp_Variant>  (81) 
64:0-1

>  <s_i_glide_gridfile>  (81) 
pfpi4k_grid

>  <i_i_glide_lignum>  (81) 
14

>  <i_i_glide_rotatable_bonds>  (81) 
8

>  <r_i_docking_score>  (81) 
-2.29018

>  <r_i_glide_ligand_efficiency>  (81) 
-0.043211

>  <r_i_glide_ligand_efficiency_sa>  (81) 
-0.162313

>  <r_i_glide_ligand_efficiency_ln>  (81) 
-0.460775

>  <r_i_glide_gscore>  (81) 
-2.29018

>  <r_i_glide_lipo>  (81) 
-0.204372

>  <r_i_glide_hbond>  (81) 
-0.114727

>  <r_i_glide_metal>  (81) 
-0

>  <r_i_glide_rewards>  (81) 
-0.0128534

>  <r_i_glide_evdw>  (81) 
-26.0755

>  <r_i_glide_ecoul>  (81) 
-4.20585

>  <r_i_glide_erotb>  (81) 
0.15813

>  <r_i_glide_esite>  (81) 
-0.181708

>  <r_i_glide_emodel>  (81) 
-28.2203

>  <r_i_glide_energy>  (81) 
-30.2814

>  <r_i_glide_einternal>  (81) 
10.4039

>  <r_i_glide_intrahb_reward>  (81) 
-0

>  <i_i_glide_confnum>  (81) 
4

>  <i_i_glide_posenum>  (81) 
30

>  <r_i_glide_eff_state_penalty>  (81) 
0

>  <ligand_id>  (81) 
64

>  <original_smiles>  (81) 
O=C1C2C(CO)C3OC(O)C4C5OC6(CC7OC8(O7)C7CCCC78O6)OC6C7CCC(O)(CC(CN8CCN(c9ccncc9)CC8)N7)C1(C4C32)C65O

>  <smiles>  (81) 
[H]OC([H])([H])C1([H])C2([H])OC([H])(O[H])C3([H])C4([H])OC5(OC6([H])C7([H])N([H])C([H])(C([H])([H])[N+]8([H])C([H])([H])C([H])([H])N(c9c([H])c([H])[n+]([H])c([H])c9[H])C([H])([H])C8([H])[H])C([H])([H])C(O[H])(C([H])([H])C7([H])[H])C7(C(=O)C1([H])C2([H])C37[H])C64O[H])OC12C([H])([H])C([H])([H])C([H])([H])C1([H])C21OC([H])(O1)C5([H])[H]

$$$$
64:0:1
     RDKit          3D

103115  0  0  1  0  0  0  0  0999 V2000
    2.2318   -0.3346    8.6010 O   0  0  0  0  0  0  0  0  0  0  0  0
    3.1570   -0.9211    8.0348 C   0  0  0  0  0  0  0  0  0  0  0  0
    4.6731   -0.8740    8.4273 C   0  0  2  0  0  0  0  0  0  0  0  0
    5.8541   -0.3276    7.5657 C   0  0  1  0  0  0  0  0  0  0  0  0
    6.9695    0.3663    8.3510 C   0  0  0  0  0  0  0  0  0  0  0  0
    8.0681    0.6531    7.5075 O   0  0  0  0  0  0  0  0  0  0  0  0
    6.1885   -1.7634    7.0540 C   0  0  2  0  0  0  0  0  0  0  0  0
    5.7471   -2.2403    5.7529 O   0  0  0  0  0  0  0  0  0  0  0  0
    5.4078   -3.6223    5.6109 C   0  0  1  0  0  0  0  0  0  0  0  0
    6.5269   -4.4457    5.8159 O   0  0  0  0  0  0  0  0  0  0  0  0
    4.2523   -4.0658    6.5834 C   0  0  2  0  0  0  0  0  0  0  0  0
    2.7945   -4.2134    6.0667 C   0  0  1  0  0  0  0  0  0  0  0  0
    2.1929   -5.4876    6.2009 O   0  0  0  0  0  0  0  0  0  0  0  0
    0.9455   -5.5754    5.5590 C   0  0  2  0  0  0  0  0  0  0  0  0
    0.3022   -6.9094    6.0948 C   0  0  0  0  0  0  0  0  0  0  0  0
   -0.1208   -7.9630    5.0711 C   0  0  2  0  0  0  0  0  0  0  0  0
    1.0334   -8.5733    4.4303 O   0  0  0  0  0  0  0  0  0  0  0  0
    0.5776   -7.7893    3.3430 C   0  0  2  0  0  0  0  0  0  0  0  0
   -0.6440   -7.3106    3.8951 O   0  0  0  0  0  0  0  0  0  0  0  0
    1.2898   -7.1105    2.1810 C   0  0  2  0  0  0  0  0  0  0  0  0
    2.4717   -7.7702    1.5423 C   0  0  0  0  0  0  0  0  0  0  0  0
    3.5383   -7.9208    2.6296 C   0  0  0  0  0  0  0  0  0  0  0  0
    3.1442   -6.9125    3.7138 C   0  0  0  0  0  0  0  0  0  0  0  0
    1.6576   -6.6951    3.5552 C   0  0  2  0  0  0  0  0  0  0  0  0
    1.0705   -5.5534    4.1566 O   0  0  0  0  0  0  0  0  0  0  0  0
    0.0520   -4.5567    5.9832 O   0  0  0  0  0  0  0  0  0  0  0  0
    0.4942   -3.1897    6.1074 C   0  0  2  0  0  0  0  0  0  0  0  0
    0.2477   -2.4040    4.8009 C   0  0  2  0  0  0  0  0  0  0  0  0
    1.3480   -2.3504    3.7315 C   0  0  0  0  0  0  0  0  0  0  0  0
    2.7013   -1.7424    4.1221 C   0  0  0  0  0  0  0  0  0  0  0  0
    2.8383   -1.0618    5.5151 C   0  0  1  0  0  0  0  0  0  0  0  0
    3.9988   -0.3111    5.2676 O   0  0  0  0  0  0  0  0  0  0  0  0
    1.8181    0.1239    5.5556 C   0  0  0  0  0  0  0  0  0  0  0  0
    0.3695   -0.1887    5.9796 C   0  0  1  0  0  0  0  0  0  0  0  0
   -0.4476    1.1079    6.1700 C   0  0  0  0  0  0  0  0  0  0  0  0
   -0.4955    1.9731    4.9660 N   0  0  0  0  0  0  0  0  0  0  0  0
   -0.6851    3.4042    5.3260 C   0  0  0  0  0  0  0  0  0  0  0  0
   -0.6932    4.3090    4.0792 C   0  0  0  0  0  0  0  0  0  0  0  0
   -1.6648    3.7918    3.1276 N   0  0  0  0  0  0  0  0  0  0  0  0
   -2.6031    4.6120    2.4885 C   0  0  0  0  0  0  0  0  0  0  0  0
   -3.9182    4.1328    2.2677 C   0  0  0  0  0  0  0  0  0  0  0  0
   -4.8588    4.9968    1.6887 C   0  0  0  0  0  0  0  0  0  0  0  0
   -4.5088    6.2458    1.3093 N   0  0  0  0  0  0  0  0  0  0  0  0
   -3.2674    6.7351    1.4601 C   0  0  0  0  0  0  0  0  0  0  0  0
   -2.2679    5.9089    2.0781 C   0  0  0  0  0  0  0  0  0  0  0  0
   -1.5207    2.3980    2.7358 C   0  0  0  0  0  0  0  0  0  0  0  0
   -1.5226    1.5269    3.9821 C   0  0  0  0  0  0  0  0  0  0  0  0
   -0.3356   -1.0906    5.0634 N   0  0  0  0  0  0  0  0  0  0  0  0
    2.9024   -1.9538    6.8869 C   0  0  1  0  0  0  0  0  0  0  0  0
    4.0233   -2.9179    7.4898 C   0  0  2  0  0  0  0  0  0  0  0  0
    5.1927   -2.2345    8.0681 C   0  0  2  0  0  0  0  0  0  0  0  0
    1.8822   -3.1647    6.8027 C   0  0  2  0  0  0  0  0  0  0  0  0
    1.4871   -3.5569    8.1281 O   0  0  0  0  0  0  0  0  0  0  0  0
    4.8415   -0.6498    9.4846 H   0  0  0  0  0  0  0  0  0  0  0  0
    5.5379    0.3532    6.7939 H   0  0  0  0  0  0  0  0  0  0  0  0
    6.6156    1.3016    8.7897 H   0  0  0  0  0  0  0  0  0  0  0  0
    7.3144   -0.2680    9.1747 H   0  0  0  0  0  0  0  0  0  0  0  0
    8.7513    1.0608    8.0152 H   0  0  0  0  0  0  0  0  0  0  0  0
    7.2135   -2.0692    7.2869 H   0  0  0  0  0  0  0  0  0  0  0  0
    5.1311   -3.7760    4.5730 H   0  0  0  0  0  0  0  0  0  0  0  0
    6.7540   -4.4146    6.7276 H   0  0  0  0  0  0  0  0  0  0  0  0
    4.5569   -4.9472    7.1472 H   0  0  0  0  0  0  0  0  0  0  0  0
    2.8481   -4.0670    5.0018 H   0  0  0  0  0  0  0  0  0  0  0  0
    0.9734   -7.3873    6.8072 H   0  0  0  0  0  0  0  0  0  0  0  0
   -0.5855   -6.6559    6.6558 H   0  0  0  0  0  0  0  0  0  0  0  0
   -0.7627   -8.7587    5.4206 H   0  0  0  0  0  0  0  0  0  0  0  0
    0.7068   -6.4339    1.5938 H   0  0  0  0  0  0  0  0  0  0  0  0
    2.1874   -8.7332    1.0985 H   0  0  0  0  0  0  0  0  0  0  0  0
    2.8401   -7.1209    0.7463 H   0  0  0  0  0  0  0  0  0  0  0  0
    3.4674   -8.9194    3.0404 H   0  0  0  0  0  0  0  0  0  0  0  0
    4.5437   -7.7792    2.2486 H   0  0  0  0  0  0  0  0  0  0  0  0
    3.3924   -7.2666    4.7182 H   0  0  0  0  0  0  0  0  0  0  0  0
    3.6577   -5.9624    3.5517 H   0  0  0  0  0  0  0  0  0  0  0  0
   -0.2487   -2.7920    6.8067 H   0  0  0  0  0  0  0  0  0  0  0  0
   -0.5459   -2.9597    4.3024 H   0  0  0  0  0  0  0  0  0  0  0  0
    1.5177   -3.3368    3.3109 H   0  0  0  0  0  0  0  0  0  0  0  0
    0.9531   -1.7884    2.8807 H   0  0  0  0  0  0  0  0  0  0  0  0
    3.5090   -2.4405    3.9364 H   0  0  0  0  0  0  0  0  0  0  0  0
    2.8797   -0.9951    3.3483 H   0  0  0  0  0  0  0  0  0  0  0  0
    3.9011    0.1573    4.4560 H   0  0  0  0  0  0  0  0  0  0  0  0
    2.1906    0.8839    6.2419 H   0  0  0  0  0  0  0  0  0  0  0  0
    1.8089    0.6250    4.5842 H   0  0  0  0  0  0  0  0  0  0  0  0
    0.4033   -0.6391    6.9721 H   0  0  0  0  0  0  0  0  0  0  0  0
   -1.4648    0.8832    6.4943 H   0  0  0  0  0  0  0  0  0  0  0  0
   -0.0010    1.6589    7.0030 H   0  0  0  0  0  0  0  0  0  0  0  0
   -1.6469    3.4982    5.8318 H   0  0  0  0  0  0  0  0  0  0  0  0
    0.0817    3.7459    6.0254 H   0  0  0  0  0  0  0  0  0  0  0  0
   -0.9283    5.3369    4.3719 H   0  0  0  0  0  0  0  0  0  0  0  0
    0.2995    4.3272    3.6222 H   0  0  0  0  0  0  0  0  0  0  0  0
   -4.2005    3.1440    2.5910 H   0  0  0  0  0  0  0  0  0  0  0  0
   -5.8967    4.7418    1.5545 H   0  0  0  0  0  0  0  0  0  0  0  0
   -3.0838    7.7305    1.1146 H   0  0  0  0  0  0  0  0  0  0  0  0
   -1.2621    6.2868    2.1629 H   0  0  0  0  0  0  0  0  0  0  0  0
   -2.3175    2.0651    2.0704 H   0  0  0  0  0  0  0  0  0  0  0  0
   -0.5868    2.2570    2.1868 H   0  0  0  0  0  0  0  0  0  0  0  0
   -1.3876    0.5060    3.6201 H   0  0  0  0  0  0  0  0  0  0  0  0
   -2.5064    1.5760    4.4482 H   0  0  0  0  0  0  0  0  0  0  0  0
   -1.2829   -1.2303    5.3945 H   0  0  0  0  0  0  0  0  0  0  0  0
    3.7012   -3.4111    8.4085 H   0  0  0  0  0  0  0  0  0  0  0  0
    5.6768   -2.7454    8.8958 H   0  0  0  0  0  0  0  0  0  0  0  0
    1.1232   -2.8064    8.5694 H   0  0  0  0  0  0  0  0  0  0  0  0
   -5.2228    6.8388    0.8844 H   0  0  0  0  0  0  0  0  0  0  0  0
    0.4025    1.9155    4.5032 H   0  0  0  0  0  0  0  0  0  0  0  0
  1  2  2  0
 49  2  1  1
  2  3  1  0
  3 51  1  0
  3  4  1  0
  3 54  1  1
  4  5  1  0
  4  7  1  0
  4 55  1  6
  5  6  1  0
  5 56  1  0
  5 57  1  0
  6 58  1  0
  7 51  1  0
  7  8  1  0
  7 59  1  1
  8  9  1  0
  9 10  1  0
  9 11  1  0
  9 60  1  6
 10 61  1  0
 11 50  1  0
 11 12  1  0
 11 62  1  1
 12 52  1  0
 12 13  1  0
 12 63  1  6
 14 13  1  1
 14 25  1  0
 14 15  1  0
 14 26  1  0
 15 16  1  0
 15 64  1  0
 15 65  1  0
 16 19  1  0
 16 17  1  0
 16 66  1  1
 18 17  1  1
 18 24  1  0
 18 19  1  0
 18 20  1  0
 20 24  1  0
 20 21  1  0
 20 67  1  6
 21 22  1  0
 21 68  1  0
 21 69  1  0
 22 23  1  0
 22 70  1  0
 22 71  1  0
 24 23  1  1
 23 72  1  0
 23 73  1  0
 24 25  1  0
 26 27  1  0
 27 52  1  0
 27 28  1  0
 27 74  1  1
 28 48  1  0
 28 29  1  0
 28 75  1  6
 29 30  1  0
 29 76  1  0
 29 77  1  0
 30 31  1  0
 30 78  1  0
 30 79  1  0
 31 32  1  6
 31 33  1  0
 31 49  1  0
 32 80  1  0
 33 34  1  0
 33 81  1  0
 33 82  1  0
 34 35  1  0
 34 48  1  0
 34 83  1  1
 35 36  1  0
 35 84  1  0
 35 85  1  0
 36 47  1  0
 36 37  1  0
 36103  1  0
 37 38  1  0
 37 86  1  0
 37 87  1  0
 38 39  1  0
 38 88  1  0
 38 89  1  0
 39 40  1  0
 39 46  1  0
 40 45  1  0
 40 41  2  0
 41 42  1  0
 41 90  1  0
 42 43  2  0
 42 91  1  0
 43 44  1  0
 43102  1  0
 44 45  2  0
 44 92  1  0
 45 93  1  0
 46 47  1  0
 46 94  1  0
 46 95  1  0
 47 96  1  0
 47 97  1  0
 48 98  1  0
 49 50  1  0
 49 52  1  0
 50 51  1  0
 50 99  1  1
 51100  1  1
 52 53  1  1
 53101  1  0
M  CHG  2  36   1  43   1
M  END
>  <i_m_ct_stereo_status>  (82) 
1

>  <s_m_source_file>  (82) 
/var/tmp/pbs.5076253.sched01/tmp0k8q0ypy/944rjgrua_.sdf

>  <i_m_source_file_index>  (82) 
14

>  <i_lp_mmshare_version>  (82) 
48012

>  <i_f3d_flags>  (82) 
0

>  <s_epik_input>  (82) 
W0NIMl0xW0NIMl1bQ0gyXVtDQEBIXTJbQ0BAXTEoTzMpQzIoTzQpT1tDQEhdNFtDSDJdW0NAQF0zNU9bQ0BASF02W0NAQEhdN1tDQEBIXThbQ0BAXTkoQyg9TylbQ0BIXTFbQ0BASF04W0NASF0oW0NAQEhdMVtDSDJdW09IXSlPW0NASF03W09IXSlbQ0BAXTEoW09IXSlbQ0gyXVtDSDJdW0NAQEhdKFtDQEBIXShPNSlbQ0BAXTY5W09IXSlbTkhdW0NAQEhdKFtDSDJdMSlbQ0gyXU4xW0NIMl1bQ0gyXU4oW0NIMl1bQ0gyXTEpYzFbY0hdW2NIXW5bY0hdW2NIXTE=

>  <s_epik_cmdline>  (82) 
J2VwaWtfcHl0aG9uJywgJy1waHQnLCAnMi4wJywgJy1waCcsICc3LjAnLCAnLXRuJywgJzgnLCAnLW1hJywgJzIwMCcsICctaW1hZScsICc8aW5maWxlLm1hZT4nLCAnLW9tYWUnLCAnPG91dGZpbGUubWFlPic=

>  <r_lp_tautomer_probability>  (82) 
1

>  <r_epik_Ionization_Penalty>  (82) 
0.130814

>  <r_epik_Ionization_Penalty_Charging>  (82) 
0.0152498

>  <r_epik_Ionization_Penalty_Neutral>  (82) 
0.115564

>  <r_epik_State_Penalty>  (82) 
0.430705

>  <r_epik_Charging_Adjusted_Penalty>  (82) 
0.445955

>  <i_epik_Tot_Q>  (82) 
2

>  <i_epik_Tot_abs_Q>  (82) 
2

>  <s_epik_Chemistry_Notes>  (82) 
This compound contains an acetal/aminal-like group ( X-CH(R)-Y where X, Y are N, S, or O) that may be acid/base labile, releasing an aldehyde.

>  <s_lp_Force_Field>  (82) 
OPLS3e

>  <r_lp_Energy>  (82) 
214.76

>  <b_lp_Chiralities_Consistent>  (82) 
1

>  <s_lp_Variant>  (82) 
64:0-1

>  <s_i_glide_gridfile>  (82) 
pfpi4k_grid

>  <i_i_glide_lignum>  (82) 
14

>  <i_i_glide_rotatable_bonds>  (82) 
8

>  <r_i_docking_score>  (82) 
-2.11688

>  <r_i_glide_ligand_efficiency>  (82) 
-0.0399412

>  <r_i_glide_ligand_efficiency_sa>  (82) 
-0.150031

>  <r_i_glide_ligand_efficiency_ln>  (82) 
-0.425907

>  <r_i_glide_gscore>  (82) 
-2.11688

>  <r_i_glide_lipo>  (82) 
-0.350948

>  <r_i_glide_hbond>  (82) 
0

>  <r_i_glide_metal>  (82) 
-0

>  <r_i_glide_rewards>  (82) 
-0.0113805

>  <r_i_glide_evdw>  (82) 
-25.5353

>  <r_i_glide_ecoul>  (82) 
-3.06034

>  <r_i_glide_erotb>  (82) 
0.15813

>  <r_i_glide_esite>  (82) 
-0.17687

>  <r_i_glide_emodel>  (82) 
-28.8507

>  <r_i_glide_energy>  (82) 
-28.5956

>  <r_i_glide_einternal>  (82) 
5.39718

>  <r_i_glide_intrahb_reward>  (82) 
-0

>  <i_i_glide_confnum>  (82) 
4

>  <i_i_glide_posenum>  (82) 
1

>  <r_i_glide_eff_state_penalty>  (82) 
0

>  <ligand_id>  (82) 
64

>  <original_smiles>  (82) 
O=C1C2C(CO)C3OC(O)C4C5OC6(CC7OC8(O7)C7CCCC78O6)OC6C7CCC(O)(CC(CN8CCN(c9ccncc9)CC8)N7)C1(C4C32)C65O

>  <smiles>  (82) 
[H]OC([H])([H])C1([H])C2([H])OC([H])(O[H])C3([H])C4([H])OC5(OC6([H])C7([H])N([H])C([H])(C([H])([H])[N+]8([H])C([H])([H])C([H])([H])N(c9c([H])c([H])[n+]([H])c([H])c9[H])C([H])([H])C8([H])[H])C([H])([H])C(O[H])(C([H])([H])C7([H])[H])C7(C(=O)C1([H])C2([H])C37[H])C64O[H])OC12C([H])([H])C([H])([H])C([H])([H])C1([H])C21OC([H])(O1)C5([H])[H]

$$$$
64:0:2
     RDKit          3D

103115  0  0  1  0  0  0  0  0999 V2000
    2.1702   -0.1481    8.5759 O   0  0  0  0  0  0  0  0  0  0  0  0
    3.1087   -0.7359    8.0354 C   0  0  0  0  0  0  0  0  0  0  0  0
    4.6211   -0.6953    8.4571 C   0  0  2  0  0  0  0  0  0  0  0  0
    5.8184   -0.1497    7.6170 C   0  0  1  0  0  0  0  0  0  0  0  0
    6.9262    0.5416    8.4181 C   0  0  0  0  0  0  0  0  0  0  0  0
    7.9727    0.9620    7.5620 O   0  0  0  0  0  0  0  0  0  0  0  0
    6.1580   -1.5858    7.1082 C   0  0  2  0  0  0  0  0  0  0  0  0
    5.7377   -2.0612    5.7996 O   0  0  0  0  0  0  0  0  0  0  0  0
    5.3973   -3.4441    5.6515 C   0  0  1  0  0  0  0  0  0  0  0  0
    6.5081   -4.2700    5.8731 O   0  0  0  0  0  0  0  0  0  0  0  0
    4.2203   -3.8816    6.6013 C   0  0  2  0  0  0  0  0  0  0  0  0
    2.7741   -4.0226    6.0564 C   0  0  1  0  0  0  0  0  0  0  0  0
    2.1674   -5.2930    6.1753 O   0  0  0  0  0  0  0  0  0  0  0  0
    0.9320   -5.3749    5.5144 C   0  0  2  0  0  0  0  0  0  0  0  0
    0.2801   -6.7093    6.0394 C   0  0  0  0  0  0  0  0  0  0  0  0
   -0.1344   -7.7490    4.9994 C   0  0  2  0  0  0  0  0  0  0  0  0
    1.0292   -8.3627    4.3914 O   0  0  0  0  0  0  0  0  0  0  0  0
    0.5945   -7.5899    3.2872 C   0  0  2  0  0  0  0  0  0  0  0  0
   -0.6333   -7.0910    3.8163 O   0  0  0  0  0  0  0  0  0  0  0  0
    1.3264   -6.9149    2.1514 C   0  0  2  0  0  0  0  0  0  0  0  0
    2.5162   -7.5772    1.5202 C   0  0  0  0  0  0  0  0  0  0  0  0
    3.5629   -7.7289    2.6293 C   0  0  0  0  0  0  0  0  0  0  0  0
    3.1564   -6.7236    3.7115 C   0  0  0  0  0  0  0  0  0  0  0  0
    1.6705   -6.5073    3.5208 C   0  0  2  0  0  0  0  0  0  0  0  0
    1.0818   -5.3553    4.1124 O   0  0  0  0  0  0  0  0  0  0  0  0
    0.0323   -4.3558    5.9217 O   0  0  0  0  0  0  0  0  0  0  0  0
    0.4739   -2.9898    6.0604 C   0  0  2  0  0  0  0  0  0  0  0  0
    0.2568   -2.2029    4.7504 C   0  0  2  0  0  0  0  0  0  0  0  0
    1.3760   -2.1525    3.7015 C   0  0  0  0  0  0  0  0  0  0  0  0
    2.7245   -1.5495    4.1166 C   0  0  0  0  0  0  0  0  0  0  0  0
    2.8382   -0.8706    5.5096 C   0  0  1  0  0  0  0  0  0  0  0  0
    4.0036   -0.1212    5.2882 O   0  0  0  0  0  0  0  0  0  0  0  0
    1.8217    0.3182    5.5323 C   0  0  0  0  0  0  0  0  0  0  0  0
    0.3670    0.0102    5.9321 C   0  0  1  0  0  0  0  0  0  0  0  0
   -0.4501    1.3050    6.1189 C   0  0  0  0  0  0  0  0  0  0  0  0
   -0.5316    2.1448    4.8904 N   0  0  0  0  0  0  0  0  0  0  0  0
   -0.6510    3.5913    5.2245 C   0  0  0  0  0  0  0  0  0  0  0  0
   -0.6933    4.4655    3.9614 C   0  0  0  0  0  0  0  0  0  0  0  0
   -1.7604    3.9619    3.0889 N   0  0  0  0  0  0  0  0  0  0  0  0
   -2.6881    4.7888    2.4894 C   0  0  0  0  0  0  0  0  0  0  0  0
   -4.0106    4.3312    2.2547 C   0  0  0  0  0  0  0  0  0  0  0  0
   -4.9572    5.2034    1.6786 C   0  0  0  0  0  0  0  0  0  0  0  0
   -4.5856    6.4417    1.3068 N   0  0  0  0  0  0  0  0  0  0  0  0
   -3.3278    6.9103    1.4385 C   0  0  0  0  0  0  0  0  0  0  0  0
   -2.3427    6.0921    2.0373 C   0  0  0  0  0  0  0  0  0  0  0  0
   -1.6556    2.5548    2.7106 C   0  0  0  0  0  0  0  0  0  0  0  0
   -1.6204    1.7044    3.9676 C   0  0  0  0  0  0  0  0  0  0  0  0
   -0.3262   -0.8868    5.0026 N   0  0  0  0  0  0  0  0  0  0  0  0
    2.8738   -1.7658    6.8824 C   0  0  1  0  0  0  0  0  0  0  0  0
    3.9809   -2.7352    7.5029 C   0  0  2  0  0  0  0  0  0  0  0  0
    5.1412   -2.0549    8.1009 C   0  0  2  0  0  0  0  0  0  0  0  0
    1.8493   -2.9741    6.7774 C   0  0  2  0  0  0  0  0  0  0  0  0
    1.4331   -3.3648    8.0955 O   0  0  0  0  0  0  0  0  0  0  0  0
    4.7799   -0.4815    9.5170 H   0  0  0  0  0  0  0  0  0  0  0  0
    5.5042    0.5305    6.8461 H   0  0  0  0  0  0  0  0  0  0  0  0
    6.5377    1.4064    8.9598 H   0  0  0  0  0  0  0  0  0  0  0  0
    7.3465   -0.1401    9.1634 H   0  0  0  0  0  0  0  0  0  0  0  0
    7.6319    1.5967    6.9494 H   0  0  0  0  0  0  0  0  0  0  0  0
    7.1764   -1.8948    7.3666 H   0  0  0  0  0  0  0  0  0  0  0  0
    5.1398   -3.5989    4.6066 H   0  0  0  0  0  0  0  0  0  0  0  0
    6.7083   -4.2559    6.7965 H   0  0  0  0  0  0  0  0  0  0  0  0
    4.5096   -4.7660    7.1716 H   0  0  0  0  0  0  0  0  0  0  0  0
    2.8465   -3.8731    4.9932 H   0  0  0  0  0  0  0  0  0  0  0  0
    0.9439   -7.1965    6.7573 H   0  0  0  0  0  0  0  0  0  0  0  0
   -0.6030   -6.4502    6.5979 H   0  0  0  0  0  0  0  0  0  0  0  0
   -0.7866   -8.5474    5.3264 H   0  0  0  0  0  0  0  0  0  0  0  0
    0.7497   -6.2350    1.5521 H   0  0  0  0  0  0  0  0  0  0  0  0
    2.2319   -8.5393    1.0792 H   0  0  0  0  0  0  0  0  0  0  0  0
    2.8882   -6.9339    0.7255 H   0  0  0  0  0  0  0  0  0  0  0  0
    3.4807   -8.7272    3.0378 H   0  0  0  0  0  0  0  0  0  0  0  0
    4.5768   -7.5885    2.2657 H   0  0  0  0  0  0  0  0  0  0  0  0
    3.3880   -7.0769    4.7189 H   0  0  0  0  0  0  0  0  0  0  0  0
    3.6605   -5.7712    3.5573 H   0  0  0  0  0  0  0  0  0  0  0  0
   -0.2772   -2.5904    6.7495 H   0  0  0  0  0  0  0  0  0  0  0  0
   -0.5260   -2.7569    4.2371 H   0  0  0  0  0  0  0  0  0  0  0  0
    1.5487   -3.1392    3.2825 H   0  0  0  0  0  0  0  0  0  0  0  0
    0.9980   -1.5862    2.8466 H   0  0  0  0  0  0  0  0  0  0  0  0
    3.5337   -2.2495    3.9452 H   0  0  0  0  0  0  0  0  0  0  0  0
    2.9188   -0.8004    3.3480 H   0  0  0  0  0  0  0  0  0  0  0  0
    3.9106    0.3692    4.4847 H   0  0  0  0  0  0  0  0  0  0  0  0
    2.1856    1.0741    6.2278 H   0  0  0  0  0  0  0  0  0  0  0  0
    1.8314    0.8238    4.5620 H   0  0  0  0  0  0  0  0  0  0  0  0
    0.3829   -0.4383    6.9260 H   0  0  0  0  0  0  0  0  0  0  0  0
   -1.4544    1.0831    6.4794 H   0  0  0  0  0  0  0  0  0  0  0  0
    0.0164    1.8699    6.9304 H   0  0  0  0  0  0  0  0  0  0  0  0
   -1.5864    3.7331    5.7688 H   0  0  0  0  0  0  0  0  0  0  0  0
    0.1582    3.9304    5.8762 H   0  0  0  0  0  0  0  0  0  0  0  0
   -0.8723    5.5044    4.2395 H   0  0  0  0  0  0  0  0  0  0  0  0
    0.2642    4.4364    3.4397 H   0  0  0  0  0  0  0  0  0  0  0  0
   -4.3046    3.3440    2.5704 H   0  0  0  0  0  0  0  0  0  0  0  0
   -5.9962    4.9461    1.5514 H   0  0  0  0  0  0  0  0  0  0  0  0
   -3.1308    7.9083    1.0697 H   0  0  0  0  0  0  0  0  0  0  0  0
   -1.3264    6.4461    2.1020 H   0  0  0  0  0  0  0  0  0  0  0  0
   -2.4817    2.2270    2.0763 H   0  0  0  0  0  0  0  0  0  0  0  0
   -0.7522    2.3780    2.1216 H   0  0  0  0  0  0  0  0  0  0  0  0
   -1.5401    0.6761    3.6193 H   0  0  0  0  0  0  0  0  0  0  0  0
   -2.5808    1.7994    4.4733 H   0  0  0  0  0  0  0  0  0  0  0  0
   -1.2810   -1.0196    5.3113 H   0  0  0  0  0  0  0  0  0  0  0  0
    3.6420   -3.2255    8.4164 H   0  0  0  0  0  0  0  0  0  0  0  0
    5.6136   -2.5648    8.9376 H   0  0  0  0  0  0  0  0  0  0  0  0
    1.0682   -2.6097    8.5332 H   0  0  0  0  0  0  0  0  0  0  0  0
   -5.2934    7.0568    0.8884 H   0  0  0  0  0  0  0  0  0  0  0  0
    0.3391    2.0484    4.3863 H   0  0  0  0  0  0  0  0  0  0  0  0
  1  2  2  0
 49  2  1  1
  2  3  1  0
  3 51  1  0
  3  4  1  0
  3 54  1  1
  4  5  1  0
  4  7  1  0
  4 55  1  6
  5  6  1  0
  5 56  1  0
  5 57  1  0
  6 58  1  0
  7 51  1  0
  7  8  1  0
  7 59  1  1
  8  9  1  0
  9 10  1  0
  9 11  1  0
  9 60  1  6
 10 61  1  0
 11 50  1  0
 11 12  1  0
 11 62  1  1
 12 52  1  0
 12 13  1  0
 12 63  1  6
 14 13  1  1
 14 25  1  0
 14 15  1  0
 14 26  1  0
 15 16  1  0
 15 64  1  0
 15 65  1  0
 16 19  1  0
 16 17  1  0
 16 66  1  1
 18 17  1  1
 18 24  1  0
 18 19  1  0
 18 20  1  0
 20 24  1  0
 20 21  1  0
 20 67  1  6
 21 22  1  0
 21 68  1  0
 21 69  1  0
 22 23  1  0
 22 70  1  0
 22 71  1  0
 24 23  1  1
 23 72  1  0
 23 73  1  0
 24 25  1  0
 26 27  1  0
 27 52  1  0
 27 28  1  0
 27 74  1  1
 28 48  1  0
 28 29  1  0
 28 75  1  6
 29 30  1  0
 29 76  1  0
 29 77  1  0
 30 31  1  0
 30 78  1  0
 30 79  1  0
 31 32  1  6
 31 33  1  0
 31 49  1  0
 32 80  1  0
 33 34  1  0
 33 81  1  0
 33 82  1  0
 34 35  1  0
 34 48  1  0
 34 83  1  1
 35 36  1  0
 35 84  1  0
 35 85  1  0
 36 47  1  0
 36 37  1  0
 36103  1  0
 37 38  1  0
 37 86  1  0
 37 87  1  0
 38 39  1  0
 38 88  1  0
 38 89  1  0
 39 40  1  0
 39 46  1  0
 40 45  1  0
 40 41  2  0
 41 42  1  0
 41 90  1  0
 42 43  2  0
 42 91  1  0
 43 44  1  0
 43102  1  0
 44 45  2  0
 44 92  1  0
 45 93  1  0
 46 47  1  0
 46 94  1  0
 46 95  1  0
 47 96  1  0
 47 97  1  0
 48 98  1  0
 49 50  1  0
 49 52  1  0
 50 51  1  0
 50 99  1  1
 51100  1  1
 52 53  1  1
 53101  1  0
M  CHG  2  36   1  43   1
M  END
>  <i_m_ct_stereo_status>  (83) 
1

>  <s_m_source_file>  (83) 
/var/tmp/pbs.5076253.sched01/tmp0k8q0ypy/944rjgrua_.sdf

>  <i_m_source_file_index>  (83) 
14

>  <i_lp_mmshare_version>  (83) 
48012

>  <i_f3d_flags>  (83) 
0

>  <s_epik_input>  (83) 
W0NIMl0xW0NIMl1bQ0gyXVtDQEBIXTJbQ0BAXTEoTzMpQzIoTzQpT1tDQEhdNFtDSDJdW0NAQF0zNU9bQ0BASF02W0NAQEhdN1tDQEBIXThbQ0BAXTkoQyg9TylbQ0BIXTFbQ0BASF04W0NASF0oW0NAQEhdMVtDSDJdW09IXSlPW0NASF03W09IXSlbQ0BAXTEoW09IXSlbQ0gyXVtDSDJdW0NAQEhdKFtDQEBIXShPNSlbQ0BAXTY5W09IXSlbTkhdW0NAQEhdKFtDSDJdMSlbQ0gyXU4xW0NIMl1bQ0gyXU4oW0NIMl1bQ0gyXTEpYzFbY0hdW2NIXW5bY0hdW2NIXTE=

>  <s_epik_cmdline>  (83) 
J2VwaWtfcHl0aG9uJywgJy1waHQnLCAnMi4wJywgJy1waCcsICc3LjAnLCAnLXRuJywgJzgnLCAnLW1hJywgJzIwMCcsICctaW1hZScsICc8aW5maWxlLm1hZT4nLCAnLW9tYWUnLCAnPG91dGZpbGUubWFlPic=

>  <r_lp_tautomer_probability>  (83) 
1

>  <r_epik_Ionization_Penalty>  (83) 
0.130814

>  <r_epik_Ionization_Penalty_Charging>  (83) 
0.0152498

>  <r_epik_Ionization_Penalty_Neutral>  (83) 
0.115564

>  <r_epik_State_Penalty>  (83) 
0.430705

>  <r_epik_Charging_Adjusted_Penalty>  (83) 
0.445955

>  <i_epik_Tot_Q>  (83) 
2

>  <i_epik_Tot_abs_Q>  (83) 
2

>  <s_epik_Chemistry_Notes>  (83) 
This compound contains an acetal/aminal-like group ( X-CH(R)-Y where X, Y are N, S, or O) that may be acid/base labile, releasing an aldehyde.

>  <s_lp_Force_Field>  (83) 
OPLS3e

>  <r_lp_Energy>  (83) 
214.76

>  <b_lp_Chiralities_Consistent>  (83) 
1

>  <s_lp_Variant>  (83) 
64:0-1

>  <s_i_glide_gridfile>  (83) 
pfpi4k_grid

>  <i_i_glide_lignum>  (83) 
14

>  <i_i_glide_rotatable_bonds>  (83) 
8

>  <r_i_docking_score>  (83) 
-1.99766

>  <r_i_glide_ligand_efficiency>  (83) 
-0.0376918

>  <r_i_glide_ligand_efficiency_sa>  (83) 
-0.141581

>  <r_i_glide_ligand_efficiency_ln>  (83) 
-0.401921

>  <r_i_glide_gscore>  (83) 
-1.99766

>  <r_i_glide_lipo>  (83) 
-0.233606

>  <r_i_glide_hbond>  (83) 
0

>  <r_i_glide_metal>  (83) 
-0

>  <r_i_glide_rewards>  (83) 
-0.0134601

>  <r_i_glide_evdw>  (83) 
-25.3554

>  <r_i_glide_ecoul>  (83) 
-3.09377

>  <r_i_glide_erotb>  (83) 
0.15813

>  <r_i_glide_esite>  (83) 
-0.176893

>  <r_i_glide_emodel>  (83) 
-28.5575

>  <r_i_glide_energy>  (83) 
-28.4491

>  <r_i_glide_einternal>  (83) 
5.28398

>  <r_i_glide_intrahb_reward>  (83) 
-0

>  <i_i_glide_confnum>  (83) 
4

>  <i_i_glide_posenum>  (83) 
11

>  <r_i_glide_eff_state_penalty>  (83) 
0

>  <ligand_id>  (83) 
64

>  <original_smiles>  (83) 
O=C1C2C(CO)C3OC(O)C4C5OC6(CC7OC8(O7)C7CCCC78O6)OC6C7CCC(O)(CC(CN8CCN(c9ccncc9)CC8)N7)C1(C4C32)C65O

>  <smiles>  (83) 
[H]OC([H])([H])C1([H])C2([H])OC([H])(O[H])C3([H])C4([H])OC5(OC6([H])C7([H])N([H])C([H])(C([H])([H])[N+]8([H])C([H])([H])C([H])([H])N(c9c([H])c([H])[n+]([H])c([H])c9[H])C([H])([H])C8([H])[H])C([H])([H])C(O[H])(C([H])([H])C7([H])[H])C7(C(=O)C1([H])C2([H])C37[H])C64O[H])OC12C([H])([H])C([H])([H])C([H])([H])C1([H])C21OC([H])(O1)C5([H])[H]

$$$$
65:0:0
     RDKit          3D

 72 81  0  0  1  0  0  0  0  0999 V2000
    6.4687   -8.0639    6.9592 C   0  0  0  0  0  0  0  0  0  0  0  0
    5.4118   -7.7375    6.0902 O   0  0  0  0  0  0  0  0  0  0  0  0
    5.6313   -7.9369    4.7422 C   0  0  2  0  0  0  0  0  0  0  0  0
    6.4864   -6.8893    4.3161 O   0  0  0  0  0  0  0  0  0  0  0  0
    7.2079   -6.9544    3.1344 C   0  0  0  0  0  0  0  0  0  0  0  0
    8.2795   -6.3254    3.0091 O   0  0  0  0  0  0  0  0  0  0  0  0
    6.6392   -7.7248    2.0495 C   0  0  0  0  0  0  0  0  0  0  0  0
    5.2780   -7.8848    2.0465 C   0  0  0  0  0  0  0  0  0  0  0  0
    4.6386   -9.2373    2.0118 C   0  0  2  0  0  0  0  0  0  0  0  0
    5.4818  -10.2526    1.5814 O   0  0  0  0  0  0  0  0  0  0  0  0
    3.4127   -9.0112    1.1594 C   0  0  0  0  0  0  0  0  0  0  0  0
    3.0812   -7.5693    1.5740 C   0  0  1  0  0  0  0  0  0  0  0  0
    1.5607   -7.3504    1.7028 C   0  0  0  0  0  0  0  0  0  0  0  0
    1.0007   -6.3294    1.2956 O   0  0  0  0  0  0  0  0  0  0  0  0
    4.1353   -7.1833    2.7123 C   0  0  2  0  0  0  0  0  0  0  0  0
    3.9999   -5.6527    3.0312 C   0  0  2  0  0  0  0  0  0  0  0  0
    5.1298   -4.9150    3.5672 O   0  0  0  0  0  0  0  0  0  0  0  0
    4.3513   -4.4499    4.6885 C   0  0  2  0  0  0  0  0  0  0  0  0
    4.2502   -3.0049    4.6903 O   0  0  0  0  0  0  0  0  0  0  0  0
    5.2900   -2.7891    5.5996 C   0  0  1  0  0  0  0  0  0  0  0  0
    5.7587   -1.5468    6.4265 C   0  0  2  0  0  0  0  0  0  0  0  0
    7.0721   -1.9440    6.9033 O   0  0  0  0  0  0  0  0  0  0  0  0
    7.0182   -3.2601    7.5186 C   0  0  2  0  0  0  0  0  0  0  0  0
    6.4449   -3.5399    8.7994 O   0  0  0  0  0  0  0  0  0  0  0  0
    5.5170   -3.0987    7.8328 C   0  0  1  0  0  0  0  0  0  0  0  0
    5.0906   -1.6640    7.7726 C   0  0  1  0  0  0  0  0  0  0  0  0
    5.5869   -0.7338    8.9048 C   0  0  0  0  0  0  0  0  0  0  0  0
    4.7457   -3.7187    6.6947 C   0  0  2  0  0  0  0  0  0  0  0  0
    4.8665   -4.9064    5.9582 O   0  0  0  0  0  0  0  0  0  0  0  0
    3.1055   -5.2392    4.2151 C   0  0  1  0  0  0  0  0  0  0  0  0
    2.1174   -4.3431    3.6860 O   0  0  0  0  0  0  0  0  0  0  0  0
    1.3292   -3.5788    4.4443 C   0  0  0  0  0  0  0  0  0  0  0  0
    0.5667   -2.5530    3.6232 C   0  0  0  0  0  0  0  0  0  0  0  0
    1.2224   -3.6481    5.6704 O   0  0  0  0  0  0  0  0  0  0  0  0
    2.5341   -6.3591    5.1077 C   0  0  1  0  0  0  0  0  0  0  0  0
    1.8200   -7.3846    4.4442 O   0  0  0  0  0  0  0  0  0  0  0  0
    3.0541   -7.8027    5.0217 C   0  0  2  0  0  0  0  0  0  0  0  0
    2.7940   -8.8361    6.1594 C   0  0  0  0  0  0  0  0  0  0  0  0
    2.9141   -8.2671    7.6153 C   0  0  0  0  0  0  0  0  0  0  0  0
    3.4866  -10.2127    5.9933 C   0  0  0  0  0  0  0  0  0  0  0  0
    4.2034   -8.0756    4.0097 C   0  0  2  0  0  0  0  0  0  0  0  0
    4.1677   -9.3735    3.3450 O   0  0  0  0  0  0  0  0  0  0  0  0
    6.1329   -7.8704    7.9773 H   0  0  0  0  0  0  0  0  0  0  0  0
    7.3924   -7.5007    6.8095 H   0  0  0  0  0  0  0  0  0  0  0  0
    6.6701   -9.1273    6.8833 H   0  0  0  0  0  0  0  0  0  0  0  0
    6.1995   -8.8606    4.6509 H   0  0  0  0  0  0  0  0  0  0  0  0
    7.2693   -8.4700    1.5727 H   0  0  0  0  0  0  0  0  0  0  0  0
    4.9533  -10.9657    1.1642 H   0  0  0  0  0  0  0  0  0  0  0  0
    3.6956   -9.0896    0.1016 H   0  0  0  0  0  0  0  0  0  0  0  0
    2.6488   -9.7514    1.4026 H   0  0  0  0  0  0  0  0  0  0  0  0
    3.3378   -6.9575    0.7121 H   0  0  0  0  0  0  0  0  0  0  0  0
    1.0130   -8.1775    2.1569 H   0  0  0  0  0  0  0  0  0  0  0  0
    3.6667   -5.0999    2.1575 H   0  0  0  0  0  0  0  0  0  0  0  0
    6.2076   -3.1649    5.1303 H   0  0  0  0  0  0  0  0  0  0  0  0
    5.7222   -0.5726    5.9479 H   0  0  0  0  0  0  0  0  0  0  0  0
    7.3275   -4.1148    6.9140 H   0  0  0  0  0  0  0  0  0  0  0  0
    4.0022   -1.5942    7.6962 H   0  0  0  0  0  0  0  0  0  0  0  0
    6.6522   -0.8427    9.0829 H   0  0  0  0  0  0  0  0  0  0  0  0
    5.0807   -0.9456    9.8468 H   0  0  0  0  0  0  0  0  0  0  0  0
    5.4002    0.3079    8.6588 H   0  0  0  0  0  0  0  0  0  0  0  0
    3.6823   -3.5402    6.8905 H   0  0  0  0  0  0  0  0  0  0  0  0
    0.8481   -2.6315    2.5710 H   0  0  0  0  0  0  0  0  0  0  0  0
    0.8394   -1.5608    3.9695 H   0  0  0  0  0  0  0  0  0  0  0  0
   -0.5155   -2.6605    3.7082 H   0  0  0  0  0  0  0  0  0  0  0  0
    2.0946   -6.0321    6.0496 H   0  0  0  0  0  0  0  0  0  0  0  0
    1.7368   -9.0706    6.0147 H   0  0  0  0  0  0  0  0  0  0  0  0
    3.8915   -7.8645    7.8549 H   0  0  0  0  0  0  0  0  0  0  0  0
    2.6804   -9.0745    8.3299 H   0  0  0  0  0  0  0  0  0  0  0  0
    2.1626   -7.4786    7.7877 H   0  0  0  0  0  0  0  0  0  0  0  0
    4.5747  -10.1450    5.9707 H   0  0  0  0  0  0  0  0  0  0  0  0
    3.1684  -10.7405    5.0927 H   0  0  0  0  0  0  0  0  0  0  0  0
    3.2369  -10.8729    6.8184 H   0  0  0  0  0  0  0  0  0  0  0  0
  1  2  1  0
  1 43  1  0
  1 44  1  0
  1 45  1  0
  2  3  1  0
  3 41  1  0
  3  4  1  0
  3 46  1  1
  4  5  1  0
  5  6  2  0
  5  7  1  0
  7  8  2  0
  7 47  1  0
 15  8  1  6
  8  9  1  0
  9 42  1  0
  9 10  1  6
  9 11  1  0
 10 48  1  0
 11 12  1  0
 11 49  1  0
 11 50  1  0
 12 13  1  0
 12 15  1  0
 12 51  1  6
 13 14  2  0
 13 52  1  0
 15 41  1  0
 15 16  1  0
 16 30  1  0
 16 17  1  0
 16 53  1  6
 18 17  1  6
 18 29  1  0
 18 19  1  0
 18 30  1  0
 19 20  1  0
 20 28  1  0
 20 21  1  0
 20 54  1  6
 21 26  1  0
 21 22  1  0
 21 55  1  6
 22 23  1  0
 23 25  1  0
 23 24  1  0
 23 56  1  6
 25 24  1  1
 25 26  1  0
 25 28  1  0
 26 27  1  0
 26 57  1  6
 27 58  1  0
 27 59  1  0
 27 60  1  0
 28 29  1  0
 28 61  1  1
 30 31  1  6
 30 35  1  0
 31 32  1  0
 32 33  1  0
 32 34  2  0
 33 62  1  0
 33 63  1  0
 33 64  1  0
 35 37  1  0
 35 36  1  0
 35 65  1  1
 36 37  1  0
 37 38  1  1
 37 41  1  0
 38 39  1  0
 38 40  1  0
 38 66  1  0
 39 67  1  0
 39 68  1  0
 39 69  1  0
 40 70  1  0
 40 71  1  0
 40 72  1  0
 41 42  1  6
M  END
>  <i_m_ct_stereo_status>  (84) 
1

>  <s_m_source_file>  (84) 
/var/tmp/pbs.5076253.sched01/tmp0k8q0ypy/944rjgrua_.sdf

>  <i_m_source_file_index>  (84) 
17

>  <i_lp_mmshare_version>  (84) 
48012

>  <i_f3d_flags>  (84) 
0

>  <s_epik_input>  (84) 
Tz1bQ0hdW0NAQEhdMVtDSDJdW0NAQF0oTzIpKFtPSF0pQzM9W0NIXUMoPU8pT1tDQEBIXShPW0NIM10pW0NAXTIoW0NAXTEzNClbQ0BAXTUoW0NIXShbQ0gzXSlbQ0gzXSlbQ0BIXShPNSlbQ0BAXTYoT0MoPU8pW0NIM10pW0NAQF03KE9bQ0BASF00NilPW0NASF04W0NAQEhdOU9bQ0BASF0xW0NAXShPMSkoW0NAQEhdOE83KVtDQEhdOVtDSDNd

>  <s_epik_cmdline>  (84) 
J2VwaWtfcHl0aG9uJywgJy1waHQnLCAnMi4wJywgJy1waCcsICc3LjAnLCAnLXRuJywgJzgnLCAnLW1hJywgJzIwMCcsICctaW1hZScsICc8aW5maWxlLm1hZT4nLCAnLW9tYWUnLCAnPG91dGZpbGUubWFlPic=

>  <r_lp_tautomer_probability>  (84) 
0.9999

>  <r_epik_Ionization_Penalty>  (84) 
0.0145633

>  <r_epik_Ionization_Penalty_Charging>  (84) 
0

>  <r_epik_Ionization_Penalty_Neutral>  (84) 
0.0145633

>  <r_epik_State_Penalty>  (84) 
0.00646859

>  <r_epik_Charging_Adjusted_Penalty>  (84) 
0.00646859

>  <i_epik_Tot_Q>  (84) 
0

>  <i_epik_Tot_abs_Q>  (84) 
0

>  <s_epik_Chemistry_Notes>  (84) 
This compound has an ester and may undergo hydrolysis at high or low pH. This compound contains an acetal/aminal-like group ( X-CH(R)-Y where X, Y are N, S, or O) that may be acid/base labile, releasing an aldehyde.

>  <s_lp_Force_Field>  (84) 
OPLS3e

>  <r_lp_Energy>  (84) 
168.23

>  <b_lp_Chiralities_Consistent>  (84) 
1

>  <s_lp_Variant>  (84) 
65:0-1

>  <s_i_glide_gridfile>  (84) 
pfpi4k_grid

>  <i_i_glide_lignum>  (84) 
17

>  <i_i_glide_rotatable_bonds>  (84) 
6

>  <r_i_docking_score>  (84) 
-2.60834

>  <r_i_glide_ligand_efficiency>  (84) 
-0.0621034

>  <r_i_glide_ligand_efficiency_sa>  (84) 
-0.215873

>  <r_i_glide_ligand_efficiency_ln>  (84) 
-0.550554

>  <r_i_glide_gscore>  (84) 
-2.60834

>  <r_i_glide_lipo>  (84) 
-0.207869

>  <r_i_glide_hbond>  (84) 
-0.142934

>  <r_i_glide_metal>  (84) 
-0

>  <r_i_glide_rewards>  (84) 
-0.0636538

>  <r_i_glide_evdw>  (84) 
-21.1053

>  <r_i_glide_ecoul>  (84) 
-7.52922

>  <r_i_glide_erotb>  (84) 
0.0600817

>  <r_i_glide_esite>  (84) 
-0.0693189

>  <r_i_glide_emodel>  (84) 
-29.1696

>  <r_i_glide_energy>  (84) 
-28.6346

>  <r_i_glide_einternal>  (84) 
6.62991

>  <r_i_glide_intrahb_reward>  (84) 
-0

>  <i_i_glide_confnum>  (84) 
1

>  <i_i_glide_posenum>  (84) 
6

>  <r_i_glide_eff_state_penalty>  (84) 
0

>  <ligand_id>  (84) 
65

>  <original_smiles>  (84) 
COC1OC(=O)C=C2C3(O)CC(C=O)C24C2OC5(OC6C7OC8OC8(C7C)C6O5)C2(OC(C)=O)C2OC2(C(C)C)C14O3

>  <smiles>  (84) 
[H]OC12OC34C([H])(OC([H])([H])[H])OC(=O)C([H])=C1C3(C1([H])OC3(OC5([H])C6([H])OC7([H])OC7(C5([H])O3)C6([H])C([H])([H])[H])C1(OC(=O)C([H])([H])[H])C1([H])OC14C([H])(C([H])([H])[H])C([H])([H])[H])C([H])(C([H])=O)C2([H])[H]

$$$$
65:0:1
     RDKit          3D

 72 81  0  0  1  0  0  0  0  0999 V2000
    6.2525   -4.7799    5.9943 C   0  0  0  0  0  0  0  0  0  0  0  0
    5.4216   -4.8049    4.8500 O   0  0  0  0  0  0  0  0  0  0  0  0
    5.1022   -3.5751    4.2946 C   0  0  2  0  0  0  0  0  0  0  0  0
    4.1313   -2.9848    5.1515 O   0  0  0  0  0  0  0  0  0  0  0  0
    3.7978   -1.6541    5.1002 C   0  0  0  0  0  0  0  0  0  0  0  0
    3.3475   -1.0683    6.0950 O   0  0  0  0  0  0  0  0  0  0  0  0
    3.9320   -0.9977    3.8020 C   0  0  0  0  0  0  0  0  0  0  0  0
    3.8692   -1.7322    2.6975 C   0  0  0  0  0  0  0  0  0  0  0  0
    4.9896   -1.7553    1.6933 C   0  0  2  0  0  0  0  0  0  0  0  0
    5.8259   -0.6519    1.7591 O   0  0  0  0  0  0  0  0  0  0  0  0
    4.2662   -1.8809    0.3745 C   0  0  0  0  0  0  0  0  0  0  0  0
    3.0887   -2.7649    0.7953 C   0  0  1  0  0  0  0  0  0  0  0  0
    2.6945   -3.7535   -0.3209 C   0  0  0  0  0  0  0  0  0  0  0  0
    1.9433   -4.7291   -0.1324 O   0  0  0  0  0  0  0  0  0  0  0  0
    3.3822   -3.1238    2.3354 C   0  0  2  0  0  0  0  0  0  0  0  0
    2.1228   -3.8049    2.9653 C   0  0  2  0  0  0  0  0  0  0  0  0
    1.8572   -3.7207    4.3881 O   0  0  0  0  0  0  0  0  0  0  0  0
    1.8075   -5.1632    4.5145 C   0  0  2  0  0  0  0  0  0  0  0  0
    0.5150   -5.6036    4.9564 O   0  0  0  0  0  0  0  0  0  0  0  0
    0.7890   -5.6773    6.3357 C   0  0  1  0  0  0  0  0  0  0  0  0
    0.0876   -6.3648    7.5610 C   0  0  2  0  0  0  0  0  0  0  0  0
    0.8183   -5.8498    8.7009 O   0  0  0  0  0  0  0  0  0  0  0  0
    2.2479   -6.0101    8.4993 C   0  0  2  0  0  0  0  0  0  0  0  0
    2.9646   -7.2233    8.6227 O   0  0  0  0  0  0  0  0  0  0  0  0
    2.0533   -7.1750    7.5558 C   0  0  1  0  0  0  0  0  0  0  0  0
    0.6602   -7.7541    7.6755 C   0  0  1  0  0  0  0  0  0  0  0  0
    0.3581   -8.5568    8.9667 C   0  0  0  0  0  0  0  0  0  0  0  0
    1.9979   -6.5814    6.1641 C   0  0  2  0  0  0  0  0  0  0  0  0
    2.7918   -5.6912    5.4143 O   0  0  0  0  0  0  0  0  0  0  0  0
    2.1289   -5.3431    3.0067 C   0  0  1  0  0  0  0  0  0  0  0  0
    1.0142   -5.8248    2.2789 O   0  0  0  0  0  0  0  0  0  0  0  0
    0.4651   -7.0678    2.2949 C   0  0  0  0  0  0  0  0  0  0  0  0
    1.1606   -8.1268    3.1798 C   0  0  0  0  0  0  0  0  0  0  0  0
   -0.4917   -7.3299    1.6506 O   0  0  0  0  0  0  0  0  0  0  0  0
    3.4380   -6.0444    2.5407 C   0  0  1  0  0  0  0  0  0  0  0  0
    3.9579   -5.6836    1.2583 O   0  0  0  0  0  0  0  0  0  0  0  0
    4.7736   -5.3181    2.3642 C   0  0  2  0  0  0  0  0  0  0  0  0
    6.1589   -6.0828    2.4412 C   0  0  0  0  0  0  0  0  0  0  0  0
    7.0290   -5.8821    1.1962 C   0  0  0  0  0  0  0  0  0  0  0  0
    5.9782   -7.6033    2.6816 C   0  0  0  0  0  0  0  0  0  0  0  0
    4.7435   -3.8177    2.7333 C   0  0  2  0  0  0  0  0  0  0  0  0
    5.6306   -2.9946    1.9495 O   0  0  0  0  0  0  0  0  0  0  0  0
    6.4764   -5.8041    6.2964 H   0  0  0  0  0  0  0  0  0  0  0  0
    5.7810   -4.2752    6.8366 H   0  0  0  0  0  0  0  0  0  0  0  0
    7.1970   -4.2936    5.7618 H   0  0  0  0  0  0  0  0  0  0  0  0
    6.0071   -2.9702    4.3618 H   0  0  0  0  0  0  0  0  0  0  0  0
    4.4620   -0.0401    3.8153 H   0  0  0  0  0  0  0  0  0  0  0  0
    6.3950   -0.6676    0.9894 H   0  0  0  0  0  0  0  0  0  0  0  0
    3.9206   -0.9002    0.0253 H   0  0  0  0  0  0  0  0  0  0  0  0
    4.9213   -2.3363   -0.3666 H   0  0  0  0  0  0  0  0  0  0  0  0
    2.2217   -2.0979    0.8223 H   0  0  0  0  0  0  0  0  0  0  0  0
    3.1327   -3.5046   -1.2827 H   0  0  0  0  0  0  0  0  0  0  0  0
    1.2165   -3.4452    2.4874 H   0  0  0  0  0  0  0  0  0  0  0  0
    1.0187   -4.6617    6.6706 H   0  0  0  0  0  0  0  0  0  0  0  0
   -0.9879   -6.2717    7.6555 H   0  0  0  0  0  0  0  0  0  0  0  0
    2.7950   -5.1360    8.1337 H   0  0  0  0  0  0  0  0  0  0  0  0
    0.3924   -8.3734    6.8226 H   0  0  0  0  0  0  0  0  0  0  0  0
    0.6777   -8.0395    9.8688 H   0  0  0  0  0  0  0  0  0  0  0  0
    0.8627   -9.5284    8.9593 H   0  0  0  0  0  0  0  0  0  0  0  0
   -0.7127   -8.7463    9.0595 H   0  0  0  0  0  0  0  0  0  0  0  0
    1.8065   -7.4519    5.5589 H   0  0  0  0  0  0  0  0  0  0  0  0
    2.0063   -7.7454    3.6866 H   0  0  0  0  0  0  0  0  0  0  0  0
    1.5300   -8.9656    2.6070 H   0  0  0  0  0  0  0  0  0  0  0  0
    0.4697   -8.4800    3.9316 H   0  0  0  0  0  0  0  0  0  0  0  0
    3.5573   -7.0716    2.8428 H   0  0  0  0  0  0  0  0  0  0  0  0
    6.7696   -5.7023    3.2741 H   0  0  0  0  0  0  0  0  0  0  0  0
    6.5338   -6.2277    0.2876 H   0  0  0  0  0  0  0  0  0  0  0  0
    7.9395   -6.4681    1.3160 H   0  0  0  0  0  0  0  0  0  0  0  0
    7.3161   -4.8390    1.0705 H   0  0  0  0  0  0  0  0  0  0  0  0
    5.4449   -8.0871    1.8579 H   0  0  0  0  0  0  0  0  0  0  0  0
    5.4293   -7.8150    3.6016 H   0  0  0  0  0  0  0  0  0  0  0  0
    6.9354   -8.1101    2.7804 H   0  0  0  0  0  0  0  0  0  0  0  0
  1  2  1  0
  1 43  1  0
  1 44  1  0
  1 45  1  0
  2  3  1  0
  3 41  1  0
  3  4  1  0
  3 46  1  6
  4  5  1  0
  5  6  2  0
  5  7  1  0
  7  8  2  0
  7 47  1  0
 15  8  1  1
  8  9  1  0
  9 42  1  0
  9 10  1  6
  9 11  1  0
 10 48  1  0
 11 12  1  0
 11 49  1  0
 11 50  1  0
 12 13  1  0
 12 15  1  0
 12 51  1  1
 13 14  2  0
 13 52  1  0
 15 41  1  0
 15 16  1  0
 16 30  1  0
 16 17  1  0
 16 53  1  6
 18 17  1  6
 18 29  1  0
 18 19  1  0
 18 30  1  0
 19 20  1  0
 20 28  1  0
 20 21  1  0
 20 54  1  1
 21 26  1  0
 21 22  1  0
 21 55  1  1
 22 23  1  0
 23 25  1  0
 23 24  1  0
 23 56  1  6
 25 24  1  6
 25 26  1  0
 25 28  1  0
 26 27  1  0
 26 57  1  6
 27 58  1  0
 27 59  1  0
 27 60  1  0
 28 29  1  0
 28 61  1  6
 30 31  1  6
 30 35  1  0
 31 32  1  0
 32 33  1  0
 32 34  2  0
 33 62  1  0
 33 63  1  0
 33 64  1  0
 35 37  1  0
 35 36  1  0
 35 65  1  6
 36 37  1  0
 37 38  1  6
 37 41  1  0
 38 39  1  0
 38 40  1  0
 38 66  1  0
 39 67  1  0
 39 68  1  0
 39 69  1  0
 40 70  1  0
 40 71  1  0
 40 72  1  0
 41 42  1  6
M  END
>  <i_m_ct_stereo_status>  (85) 
1

>  <s_m_source_file>  (85) 
/var/tmp/pbs.5076253.sched01/tmp0k8q0ypy/944rjgrua_.sdf

>  <i_m_source_file_index>  (85) 
17

>  <i_lp_mmshare_version>  (85) 
48012

>  <i_f3d_flags>  (85) 
0

>  <s_epik_input>  (85) 
Tz1bQ0hdW0NAQEhdMVtDSDJdW0NAQF0oTzIpKFtPSF0pQzM9W0NIXUMoPU8pT1tDQEBIXShPW0NIM10pW0NAXTIoW0NAXTEzNClbQ0BAXTUoW0NIXShbQ0gzXSlbQ0gzXSlbQ0BIXShPNSlbQ0BAXTYoT0MoPU8pW0NIM10pW0NAQF03KE9bQ0BASF00NilPW0NASF04W0NAQEhdOU9bQ0BASF0xW0NAXShPMSkoW0NAQEhdOE83KVtDQEhdOVtDSDNd

>  <s_epik_cmdline>  (85) 
J2VwaWtfcHl0aG9uJywgJy1waHQnLCAnMi4wJywgJy1waCcsICc3LjAnLCAnLXRuJywgJzgnLCAnLW1hJywgJzIwMCcsICctaW1hZScsICc8aW5maWxlLm1hZT4nLCAnLW9tYWUnLCAnPG91dGZpbGUubWFlPic=

>  <r_lp_tautomer_probability>  (85) 
0.9999

>  <r_epik_Ionization_Penalty>  (85) 
0.0145633

>  <r_epik_Ionization_Penalty_Charging>  (85) 
0

>  <r_epik_Ionization_Penalty_Neutral>  (85) 
0.0145633

>  <r_epik_State_Penalty>  (85) 
0.00646859

>  <r_epik_Charging_Adjusted_Penalty>  (85) 
0.00646859

>  <i_epik_Tot_Q>  (85) 
0

>  <i_epik_Tot_abs_Q>  (85) 
0

>  <s_epik_Chemistry_Notes>  (85) 
This compound has an ester and may undergo hydrolysis at high or low pH. This compound contains an acetal/aminal-like group ( X-CH(R)-Y where X, Y are N, S, or O) that may be acid/base labile, releasing an aldehyde.

>  <s_lp_Force_Field>  (85) 
OPLS3e

>  <r_lp_Energy>  (85) 
168.23

>  <b_lp_Chiralities_Consistent>  (85) 
1

>  <s_lp_Variant>  (85) 
65:0-1

>  <s_i_glide_gridfile>  (85) 
pfpi4k_grid

>  <i_i_glide_lignum>  (85) 
17

>  <i_i_glide_rotatable_bonds>  (85) 
6

>  <r_i_docking_score>  (85) 
-2.23703

>  <r_i_glide_ligand_efficiency>  (85) 
-0.0532626

>  <r_i_glide_ligand_efficiency_sa>  (85) 
-0.185142

>  <r_i_glide_ligand_efficiency_ln>  (85) 
-0.472179

>  <r_i_glide_gscore>  (85) 
-2.23703

>  <r_i_glide_lipo>  (85) 
-0.158066

>  <r_i_glide_hbond>  (85) 
-0.0779107

>  <r_i_glide_metal>  (85) 
-0

>  <r_i_glide_rewards>  (85) 
-0.129899

>  <r_i_glide_evdw>  (85) 
-23.6028

>  <r_i_glide_ecoul>  (85) 
-4.34972

>  <r_i_glide_erotb>  (85) 
0.0600817

>  <r_i_glide_esite>  (85) 
-0.0986386

>  <r_i_glide_emodel>  (85) 
-27.1535

>  <r_i_glide_energy>  (85) 
-27.9525

>  <r_i_glide_einternal>  (85) 
5.89451

>  <r_i_glide_intrahb_reward>  (85) 
-0

>  <i_i_glide_confnum>  (85) 
1

>  <i_i_glide_posenum>  (85) 
23

>  <r_i_glide_eff_state_penalty>  (85) 
0

>  <ligand_id>  (85) 
65

>  <original_smiles>  (85) 
COC1OC(=O)C=C2C3(O)CC(C=O)C24C2OC5(OC6C7OC8OC8(C7C)C6O5)C2(OC(C)=O)C2OC2(C(C)C)C14O3

>  <smiles>  (85) 
[H]OC12OC34C([H])(OC([H])([H])[H])OC(=O)C([H])=C1C3(C1([H])OC3(OC5([H])C6([H])OC7([H])OC7(C5([H])O3)C6([H])C([H])([H])[H])C1(OC(=O)C([H])([H])[H])C1([H])OC14C([H])(C([H])([H])[H])C([H])([H])[H])C([H])(C([H])=O)C2([H])[H]

$$$$
65:0:2
     RDKit          3D

 72 81  0  0  1  0  0  0  0  0999 V2000
    6.8396   -6.2510    4.1326 C   0  0  0  0  0  0  0  0  0  0  0  0
    5.5398   -6.6490    4.5623 O   0  0  0  0  0  0  0  0  0  0  0  0
    4.9453   -7.6470    3.8234 C   0  0  2  0  0  0  0  0  0  0  0  0
    4.5022   -7.0728    2.5952 O   0  0  0  0  0  0  0  0  0  0  0  0
    4.2131   -7.8019    1.4763 C   0  0  0  0  0  0  0  0  0  0  0  0
    4.3543   -7.3406    0.3624 O   0  0  0  0  0  0  0  0  0  0  0  0
    3.6377   -9.1293    1.7221 C   0  0  0  0  0  0  0  0  0  0  0  0
    3.0435   -9.3812    2.8762 C   0  0  0  0  0  0  0  0  0  0  0  0
    3.4807  -10.4733    3.7984 C   0  0  2  0  0  0  0  0  0  0  0  0
    4.2714  -11.4756    3.1826 O   0  0  0  0  0  0  0  0  0  0  0  0
    2.1937  -10.9806    4.4023 C   0  0  0  0  0  0  0  0  0  0  0  0
    1.4284   -9.6495    4.4802 C   0  0  1  0  0  0  0  0  0  0  0  0
    0.5682   -9.5776    5.7588 C   0  0  0  0  0  0  0  0  0  0  0  0
   -0.0361   -8.5570    6.1040 O   0  0  0  0  0  0  0  0  0  0  0  0
    2.4530   -8.5217    4.0058 C   0  0  2  0  0  0  0  0  0  0  0  0
    1.6813   -7.1602    3.8141 C   0  0  2  0  0  0  0  0  0  0  0  0
    2.1843   -6.1553    2.8626 O   0  0  0  0  0  0  0  0  0  0  0  0
    2.2186   -5.1445    3.8803 C   0  0  2  0  0  0  0  0  0  0  0  0
    1.3338   -4.0554    3.5718 O   0  0  0  0  0  0  0  0  0  0  0  0
    2.2907   -3.2219    3.0086 C   0  0  1  0  0  0  0  0  0  0  0  0
    2.3375   -1.7106    2.6208 C   0  0  2  0  0  0  0  0  0  0  0  0
    3.5524   -1.5801    1.8394 O   0  0  0  0  0  0  0  0  0  0  0  0
    4.6615   -2.2100    2.5220 C   0  0  2  0  0  0  0  0  0  0  0  0
    5.3555   -1.6249    3.6394 O   0  0  0  0  0  0  0  0  0  0  0  0
    4.0119   -1.9932    3.9010 C   0  0  1  0  0  0  0  0  0  0  0  0
    2.9153   -0.9742    3.8247 C   0  0  1  0  0  0  0  0  0  0  0  0
    3.3306    0.5126    3.6297 C   0  0  0  0  0  0  0  0  0  0  0  0
    3.2570   -3.2645    4.2135 C   0  0  2  0  0  0  0  0  0  0  0  0
    3.5337   -4.6335    4.1304 O   0  0  0  0  0  0  0  0  0  0  0  0
    1.7359   -6.1471    4.9725 C   0  0  1  0  0  0  0  0  0  0  0  0
    0.3769   -5.9037    5.3683 O   0  0  0  0  0  0  0  0  0  0  0  0
    0.0280   -4.9620    6.2764 C   0  0  0  0  0  0  0  0  0  0  0  0
   -1.4439   -5.0623    6.6686 C   0  0  0  0  0  0  0  0  0  0  0  0
    0.7735   -4.1219    6.7826 O   0  0  0  0  0  0  0  0  0  0  0  0
    2.6565   -6.4698    6.1576 C   0  0  1  0  0  0  0  0  0  0  0  0
    2.4402   -7.7313    6.7638 O   0  0  0  0  0  0  0  0  0  0  0  0
    3.6919   -7.6119    6.1024 C   0  0  2  0  0  0  0  0  0  0  0  0
    4.8779   -7.6800    7.1021 C   0  0  0  0  0  0  0  0  0  0  0  0
    5.5409   -6.3022    7.4315 C   0  0  0  0  0  0  0  0  0  0  0  0
    5.9485   -8.7714    6.8152 C   0  0  0  0  0  0  0  0  0  0  0  0
    3.8098   -8.3625    4.7384 C   0  0  2  0  0  0  0  0  0  0  0  0
    4.1469   -9.7717    4.8278 O   0  0  0  0  0  0  0  0  0  0  0  0
    7.1896   -5.4851    4.8118 H   0  0  0  0  0  0  0  0  0  0  0  0
    6.8708   -5.8331    3.1209 H   0  0  0  0  0  0  0  0  0  0  0  0
    7.5188   -7.0987    4.2079 H   0  0  0  0  0  0  0  0  0  0  0  0
    5.7333   -8.3912    3.5836 H   0  0  0  0  0  0  0  0  0  0  0  0
    4.0973   -9.9397    1.1527 H   0  0  0  0  0  0  0  0  0  0  0  0
    3.9865  -11.6153    2.2906 H   0  0  0  0  0  0  0  0  0  0  0  0
    1.6954  -11.7015    3.7469 H   0  0  0  0  0  0  0  0  0  0  0  0
    2.3848  -11.4481    5.3777 H   0  0  0  0  0  0  0  0  0  0  0  0
    0.6635   -9.7147    3.7100 H   0  0  0  0  0  0  0  0  0  0  0  0
    0.4662  -10.5430    6.2962 H   0  0  0  0  0  0  0  0  0  0  0  0
    0.6449   -7.3402    3.5216 H   0  0  0  0  0  0  0  0  0  0  0  0
    2.6726   -3.7360    2.1256 H   0  0  0  0  0  0  0  0  0  0  0  0
    1.4576   -1.2690    2.1589 H   0  0  0  0  0  0  0  0  0  0  0  0
    4.9440   -3.2132    2.2341 H   0  0  0  0  0  0  0  0  0  0  0  0
    2.2325   -1.0473    4.6935 H   0  0  0  0  0  0  0  0  0  0  0  0
    4.0504    0.6286    2.8351 H   0  0  0  0  0  0  0  0  0  0  0  0
    3.7764    0.9061    4.5363 H   0  0  0  0  0  0  0  0  0  0  0  0
    2.4709    1.1215    3.3897 H   0  0  0  0  0  0  0  0  0  0  0  0
    2.7289   -3.0969    5.1610 H   0  0  0  0  0  0  0  0  0  0  0  0
   -1.9474   -5.8380    6.0904 H   0  0  0  0  0  0  0  0  0  0  0  0
   -1.9430   -4.1183    6.4836 H   0  0  0  0  0  0  0  0  0  0  0  0
   -1.5498   -5.3074    7.7230 H   0  0  0  0  0  0  0  0  0  0  0  0
    2.8613   -5.6422    6.8334 H   0  0  0  0  0  0  0  0  0  0  0  0
    4.4216   -8.0139    8.0316 H   0  0  0  0  0  0  0  0  0  0  0  0
    5.9263   -5.7968    6.5542 H   0  0  0  0  0  0  0  0  0  0  0  0
    6.3680   -6.4364    8.1517 H   0  0  0  0  0  0  0  0  0  0  0  0
    4.8175   -5.6312    7.9125 H   0  0  0  0  0  0  0  0  0  0  0  0
    6.4398   -8.6312    5.8519 H   0  0  0  0  0  0  0  0  0  0  0  0
    5.5146   -9.7754    6.8269 H   0  0  0  0  0  0  0  0  0  0  0  0
    6.7347   -8.7716    7.5690 H   0  0  0  0  0  0  0  0  0  0  0  0
  1  2  1  0
  1 43  1  0
  1 44  1  0
  1 45  1  0
  2  3  1  0
  3 41  1  0
  3  4  1  0
  3 46  1  6
  4  5  1  0
  5  6  2  0
  5  7  1  0
  7  8  2  0
  7 47  1  0
 15  8  1  6
  8  9  1  0
  9 42  1  0
  9 10  1  6
  9 11  1  0
 10 48  1  0
 11 12  1  0
 11 49  1  0
 11 50  1  0
 12 13  1  0
 12 15  1  0
 12 51  1  6
 13 14  2  0
 13 52  1  0
 15 41  1  0
 15 16  1  0
 16 30  1  0
 16 17  1  0
 16 53  1  6
 18 17  1  6
 18 29  1  0
 18 19  1  0
 18 30  1  0
 19 20  1  0
 20 28  1  0
 20 21  1  0
 20 54  1  6
 21 26  1  0
 21 22  1  0
 21 55  1  6
 22 23  1  0
 23 25  1  0
 23 24  1  0
 23 56  1  6
 25 24  1  1
 25 26  1  0
 25 28  1  0
 26 27  1  0
 26 57  1  1
 27 58  1  0
 27 59  1  0
 27 60  1  0
 28 29  1  0
 28 61  1  1
 30 31  1  1
 30 35  1  0
 31 32  1  0
 32 33  1  0
 32 34  2  0
 33 62  1  0
 33 63  1  0
 33 64  1  0
 35 37  1  0
 35 36  1  0
 35 65  1  1
 36 37  1  0
 37 38  1  1
 37 41  1  0
 38 39  1  0
 38 40  1  0
 38 66  1  0
 39 67  1  0
 39 68  1  0
 39 69  1  0
 40 70  1  0
 40 71  1  0
 40 72  1  0
 41 42  1  1
M  END
>  <i_m_ct_stereo_status>  (86) 
1

>  <s_m_source_file>  (86) 
/var/tmp/pbs.5076253.sched01/tmp0k8q0ypy/944rjgrua_.sdf

>  <i_m_source_file_index>  (86) 
17

>  <i_lp_mmshare_version>  (86) 
48012

>  <i_f3d_flags>  (86) 
0

>  <s_epik_input>  (86) 
Tz1bQ0hdW0NAQEhdMVtDSDJdW0NAQF0oTzIpKFtPSF0pQzM9W0NIXUMoPU8pT1tDQEBIXShPW0NIM10pW0NAXTIoW0NAXTEzNClbQ0BAXTUoW0NIXShbQ0gzXSlbQ0gzXSlbQ0BIXShPNSlbQ0BAXTYoT0MoPU8pW0NIM10pW0NAQF03KE9bQ0BASF00NilPW0NASF04W0NAQEhdOU9bQ0BASF0xW0NAXShPMSkoW0NAQEhdOE83KVtDQEhdOVtDSDNd

>  <s_epik_cmdline>  (86) 
J2VwaWtfcHl0aG9uJywgJy1waHQnLCAnMi4wJywgJy1waCcsICc3LjAnLCAnLXRuJywgJzgnLCAnLW1hJywgJzIwMCcsICctaW1hZScsICc8aW5maWxlLm1hZT4nLCAnLW9tYWUnLCAnPG91dGZpbGUubWFlPic=

>  <r_lp_tautomer_probability>  (86) 
0.9999

>  <r_epik_Ionization_Penalty>  (86) 
0.0145633

>  <r_epik_Ionization_Penalty_Charging>  (86) 
0

>  <r_epik_Ionization_Penalty_Neutral>  (86) 
0.0145633

>  <r_epik_State_Penalty>  (86) 
0.00646859

>  <r_epik_Charging_Adjusted_Penalty>  (86) 
0.00646859

>  <i_epik_Tot_Q>  (86) 
0

>  <i_epik_Tot_abs_Q>  (86) 
0

>  <s_epik_Chemistry_Notes>  (86) 
This compound has an ester and may undergo hydrolysis at high or low pH. This compound contains an acetal/aminal-like group ( X-CH(R)-Y where X, Y are N, S, or O) that may be acid/base labile, releasing an aldehyde.

>  <s_lp_Force_Field>  (86) 
OPLS3e

>  <r_lp_Energy>  (86) 
168.23

>  <b_lp_Chiralities_Consistent>  (86) 
1

>  <s_lp_Variant>  (86) 
65:0-1

>  <s_i_glide_gridfile>  (86) 
pfpi4k_grid

>  <i_i_glide_lignum>  (86) 
17

>  <i_i_glide_rotatable_bonds>  (86) 
6

>  <r_i_docking_score>  (86) 
-1.91989

>  <r_i_glide_ligand_efficiency>  (86) 
-0.0457118

>  <r_i_glide_ligand_efficiency_sa>  (86) 
-0.158895

>  <r_i_glide_ligand_efficiency_ln>  (86) 
-0.40524

>  <r_i_glide_gscore>  (86) 
-1.91989

>  <r_i_glide_lipo>  (86) 
-0.0352035

>  <r_i_glide_hbond>  (86) 
0

>  <r_i_glide_metal>  (86) 
-0

>  <r_i_glide_rewards>  (86) 
-0.0856031

>  <r_i_glide_evdw>  (86) 
-23.3102

>  <r_i_glide_ecoul>  (86) 
-4.04897

>  <r_i_glide_erotb>  (86) 
0.0600817

>  <r_i_glide_esite>  (86) 
-0.0863145

>  <r_i_glide_emodel>  (86) 
-26.5863

>  <r_i_glide_energy>  (86) 
-27.3592

>  <r_i_glide_einternal>  (86) 
6.36634

>  <r_i_glide_intrahb_reward>  (86) 
-0

>  <i_i_glide_confnum>  (86) 
4

>  <i_i_glide_posenum>  (86) 
2

>  <r_i_glide_eff_state_penalty>  (86) 
0

>  <ligand_id>  (86) 
65

>  <original_smiles>  (86) 
COC1OC(=O)C=C2C3(O)CC(C=O)C24C2OC5(OC6C7OC8OC8(C7C)C6O5)C2(OC(C)=O)C2OC2(C(C)C)C14O3

>  <smiles>  (86) 
[H]OC12OC34C([H])(OC([H])([H])[H])OC(=O)C([H])=C1C3(C1([H])OC3(OC5([H])C6([H])OC7([H])OC7(C5([H])O3)C6([H])C([H])([H])[H])C1(OC(=O)C([H])([H])[H])C1([H])OC14C([H])(C([H])([H])[H])C([H])([H])[H])C([H])(C([H])=O)C2([H])[H]

$$$$
65:1:0
     RDKit          3D

 71 80  0  0  1  0  0  0  0  0999 V2000
    2.9529    3.9796    4.6583 C   0  0  0  0  0  0  0  0  0  0  0  0
    3.0575    2.6112    4.9983 O   0  0  0  0  0  0  0  0  0  0  0  0
    3.1117    1.7274    3.9199 C   0  0  2  0  0  0  0  0  0  0  0  0
    1.8054    1.6656    3.3596 O   0  0  0  0  0  0  0  0  0  0  0  0
    1.4644    1.0187    2.1812 C   0  0  0  0  0  0  0  0  0  0  0  0
    0.4522    1.3394    1.5651 O   0  0  0  0  0  0  0  0  0  0  0  0
    2.3195   -0.0883    1.7568 C   0  0  0  0  0  0  0  0  0  0  0  0
    3.0160   -0.7586    2.6841 C   0  0  0  0  0  0  0  0  0  0  0  0
    4.5055   -0.8844    2.5912 C   0  0  2  0  0  0  0  0  0  0  0  0
    5.0563   -0.7025    1.3010 O   0  0  0  0  0  0  0  0  0  0  0  0
    4.7960   -2.2200    3.2093 C   0  0  0  0  0  0  0  0  0  0  0  0
    3.7513   -2.2001    4.3003 C   0  0  0  0  0  0  0  0  0  0  0  0
    3.6384   -3.3117    5.1400 C   0  0  0  0  0  0  0  0  0  0  0  0
    4.2442   -4.4002    5.2617 O   0  0  0  0  0  0  0  0  0  0  0  0
    2.9015   -0.8840    4.1691 C   0  0  2  0  0  0  0  0  0  0  0  0
    1.5927   -0.9394    5.0282 C   0  0  2  0  0  0  0  0  0  0  0  0
    0.5689    0.0376    4.8001 O   0  0  0  0  0  0  0  0  0  0  0  0
    0.5372    0.4143    6.1958 C   0  0  2  0  0  0  0  0  0  0  0  0
   -0.7690    0.0807    6.7772 O   0  0  0  0  0  0  0  0  0  0  0  0
   -1.3071    1.3741    6.6230 C   0  0  1  0  0  0  0  0  0  0  0  0
   -2.5711    2.0828    7.2183 C   0  0  2  0  0  0  0  0  0  0  0  0
   -2.7076    3.2691    6.3941 O   0  0  0  0  0  0  0  0  0  0  0  0
   -1.4436    3.9785    6.3146 C   0  0  2  0  0  0  0  0  0  0  0  0
   -0.9048    4.7716    7.3560 O   0  0  0  0  0  0  0  0  0  0  0  0
   -0.9670    3.3822    7.6693 C   0  0  1  0  0  0  0  0  0  0  0  0
   -2.1189    2.8086    8.4549 C   0  0  1  0  0  0  0  0  0  0  0  0
   -3.1044    3.8274    9.0752 C   0  0  0  0  0  0  0  0  0  0  0  0
   -0.1765    2.1348    7.3179 C   0  0  2  0  0  0  0  0  0  0  0  0
    0.8371    1.8297    6.3940 O   0  0  0  0  0  0  0  0  0  0  0  0
    1.7251   -0.5254    6.5066 C   0  0  1  0  0  0  0  0  0  0  0  0
    1.3725   -1.6530    7.3187 O   0  0  0  0  0  0  0  0  0  0  0  0
    1.0172   -1.5615    8.6044 C   0  0  0  0  0  0  0  0  0  0  0  0
    0.8479   -2.9206    9.2734 C   0  0  0  0  0  0  0  0  0  0  0  0
    0.8157   -0.5228    9.2192 O   0  0  0  0  0  0  0  0  0  0  0  0
    3.0891    0.0574    6.9407 C   0  0  1  0  0  0  0  0  0  0  0  0
    4.2418   -0.7601    6.6887 O   0  0  0  0  0  0  0  0  0  0  0  0
    4.1623    0.4584    5.9274 C   0  0  2  0  0  0  0  0  0  0  0  0
    5.3597    1.4026    6.2276 C   0  0  0  0  0  0  0  0  0  0  0  0
    6.7438    0.7848    5.9362 C   0  0  0  0  0  0  0  0  0  0  0  0
    5.3348    1.9762    7.6560 C   0  0  0  0  0  0  0  0  0  0  0  0
    3.7917    0.3621    4.4221 C   0  0  2  0  0  0  0  0  0  0  0  0
    4.9189    0.0859    3.5265 O   0  0  0  0  0  0  0  0  0  0  0  0
    2.9411    4.5649    5.5785 H   0  0  0  0  0  0  0  0  0  0  0  0
    2.0360    4.2059    4.1118 H   0  0  0  0  0  0  0  0  0  0  0  0
    3.8140    4.2991    4.0681 H   0  0  0  0  0  0  0  0  0  0  0  0
    3.7786    2.1987    3.2027 H   0  0  0  0  0  0  0  0  0  0  0  0
    2.6243   -0.1063    0.7204 H   0  0  0  0  0  0  0  0  0  0  0  0
    4.6054    0.0250    0.8863 H   0  0  0  0  0  0  0  0  0  0  0  0
    4.5961   -3.0251    2.5009 H   0  0  0  0  0  0  0  0  0  0  0  0
    5.8157   -2.2677    3.5917 H   0  0  0  0  0  0  0  0  0  0  0  0
    2.7836   -3.0727    5.8080 H   0  0  0  0  0  0  0  0  0  0  0  0
    1.1124   -1.9067    4.9466 H   0  0  0  0  0  0  0  0  0  0  0  0
   -1.3698    1.5431    5.5355 H   0  0  0  0  0  0  0  0  0  0  0  0
   -3.4716    1.4899    7.2877 H   0  0  0  0  0  0  0  0  0  0  0  0
   -0.8213    3.8036    5.4259 H   0  0  0  0  0  0  0  0  0  0  0  0
   -1.7775    2.1210    9.2302 H   0  0  0  0  0  0  0  0  0  0  0  0
   -3.4301    4.6061    8.3854 H   0  0  0  0  0  0  0  0  0  0  0  0
   -2.6617    4.3456    9.9282 H   0  0  0  0  0  0  0  0  0  0  0  0
   -4.0047    3.3307    9.4403 H   0  0  0  0  0  0  0  0  0  0  0  0
    0.1042    1.6822    8.2685 H   0  0  0  0  0  0  0  0  0  0  0  0
    1.0525   -3.7367    8.5799 H   0  0  0  0  0  0  0  0  0  0  0  0
   -0.1663   -3.0318    9.6570 H   0  0  0  0  0  0  0  0  0  0  0  0
    1.5365   -3.0072   10.1142 H   0  0  0  0  0  0  0  0  0  0  0  0
    3.0937    0.5342    7.9165 H   0  0  0  0  0  0  0  0  0  0  0  0
    5.2882    2.2595    5.5652 H   0  0  0  0  0  0  0  0  0  0  0  0
    6.9591   -0.0603    6.5907 H   0  0  0  0  0  0  0  0  0  0  0  0
    7.5330    1.5272    6.0819 H   0  0  0  0  0  0  0  0  0  0  0  0
    6.8413    0.4424    4.9088 H   0  0  0  0  0  0  0  0  0  0  0  0
    5.4900    1.2001    8.4076 H   0  0  0  0  0  0  0  0  0  0  0  0
    4.3894    2.4787    7.8672 H   0  0  0  0  0  0  0  0  0  0  0  0
    6.1200    2.7241    7.7899 H   0  0  0  0  0  0  0  0  0  0  0  0
  1  2  1  0
  1 43  1  0
  1 44  1  0
  1 45  1  0
  2  3  1  0
  3 41  1  0
  3  4  1  0
  3 46  1  6
  4  5  1  0
  5  6  2  0
  5  7  1  0
  7  8  2  0
  7 47  1  0
  8 15  1  0
  8  9  1  0
  9 42  1  0
  9 10  1  6
  9 11  1  0
 10 48  1  0
 11 12  1  0
 11 49  1  0
 11 50  1  0
 12 13  2  0
 15 12  1  1
 13 14  1  0
 13 51  1  0
 15 41  1  0
 15 16  1  0
 16 30  1  0
 16 17  1  0
 16 52  1  1
 18 17  1  6
 18 29  1  0
 18 19  1  0
 18 30  1  0
 19 20  1  0
 20 28  1  0
 20 21  1  0
 20 53  1  6
 21 26  1  0
 21 22  1  0
 21 54  1  1
 22 23  1  0
 23 25  1  0
 23 24  1  0
 23 55  1  6
 25 24  1  1
 25 26  1  0
 25 28  1  0
 26 27  1  0
 26 56  1  1
 27 57  1  0
 27 58  1  0
 27 59  1  0
 28 29  1  0
 28 60  1  1
 30 31  1  1
 30 35  1  0
 31 32  1  0
 32 33  1  0
 32 34  2  0
 33 61  1  0
 33 62  1  0
 33 63  1  0
 35 37  1  0
 35 36  1  0
 35 64  1  1
 36 37  1  0
 37 38  1  1
 37 41  1  0
 38 39  1  0
 38 40  1  0
 38 65  1  0
 39 66  1  0
 39 67  1  0
 39 68  1  0
 40 69  1  0
 40 70  1  0
 40 71  1  0
 41 42  1  6
M  CHG  1  14  -1
M  END
>  <i_m_ct_stereo_status>  (87) 
1

>  <s_m_source_file>  (87) 
/var/tmp/pbs.5076253.sched01/tmp0k8q0ypy/944rjgrua_.sdf

>  <i_m_source_file_index>  (87) 
18

>  <i_lp_mmshare_version>  (87) 
48012

>  <i_f3d_flags>  (87) 
0

>  <s_epik_input>  (87) 
Tz1bQ0hdW0NAQEhdMVtDSDJdW0NAQF0oTzIpKFtPSF0pQzM9W0NIXUMoPU8pT1tDQEBIXShPW0NIM10pW0NAXTIoW0NAXTEzNClbQ0BAXTUoW0NIXShbQ0gzXSlbQ0gzXSlbQ0BIXShPNSlbQ0BAXTYoT0MoPU8pW0NIM10pW0NAQF03KE9bQ0BASF00NilPW0NASF04W0NAQEhdOU9bQ0BASF0xW0NAXShPMSkoW0NAQEhdOE83KVtDQEhdOVtDSDNd

>  <s_epik_cmdline>  (87) 
J2VwaWtfcHl0aG9uJywgJy1waHQnLCAnMi4wJywgJy1waCcsICc3LjAnLCAnLXRuJywgJzgnLCAnLW1hJywgJzIwMCcsICctaW1hZScsICc8aW5maWxlLm1hZT4nLCAnLW9tYWUnLCAnPG91dGZpbGUubWFlPic=

>  <r_epik_Ionization_Penalty>  (87) 
2.51737

>  <r_epik_Ionization_Penalty_Charging>  (87) 
2.51376

>  <r_epik_Ionization_Penalty_Neutral>  (87) 
0.00360895

>  <r_epik_State_Penalty>  (87) 
2.67971

>  <r_epik_Charging_Adjusted_Penalty>  (87) 
5.19347

>  <i_epik_Tot_Q>  (87) 
-1

>  <i_epik_Tot_abs_Q>  (87) 
1

>  <s_epik_Chemistry_Notes>  (87) 
This compound has an ester and may undergo hydrolysis at high or low pH. This compound contains an acetal/aminal-like group ( X-CH(R)-Y where X, Y are N, S, or O) that may be acid/base labile, releasing an aldehyde.

>  <s_lp_Force_Field>  (87) 
OPLS3e

>  <r_lp_Energy>  (87) 
162.778

>  <b_lp_Chiralities_Consistent>  (87) 
1

>  <s_lp_Variant>  (87) 
65:0-2

>  <s_i_glide_gridfile>  (87) 
pfpi4k_grid

>  <i_i_glide_lignum>  (87) 
18

>  <i_i_glide_rotatable_bonds>  (87) 
5

>  <r_i_docking_score>  (87) 
-1.84991

>  <r_i_glide_ligand_efficiency>  (87) 
-0.0440456

>  <r_i_glide_ligand_efficiency_sa>  (87) 
-0.153104

>  <r_i_glide_ligand_efficiency_ln>  (87) 
-0.390469

>  <r_i_glide_gscore>  (87) 
-1.84991

>  <r_i_glide_lipo>  (87) 
-0.262899

>  <r_i_glide_hbond>  (87) 
-0.0658141

>  <r_i_glide_metal>  (87) 
-0

>  <r_i_glide_rewards>  (87) 
-0.103272

>  <r_i_glide_evdw>  (87) 
-25.947

>  <r_i_glide_ecoul>  (87) 
-0.744363

>  <r_i_glide_erotb>  (87) 
0.0602724

>  <r_i_glide_esite>  (87) 
-0.0691985

>  <r_i_glide_emodel>  (87) 
-29.2122

>  <r_i_glide_energy>  (87) 
-26.6913

>  <r_i_glide_einternal>  (87) 
0.36344

>  <r_i_glide_intrahb_reward>  (87) 
-0

>  <i_i_glide_confnum>  (87) 
4

>  <i_i_glide_posenum>  (87) 
2

>  <r_i_glide_eff_state_penalty>  (87) 
0

>  <ligand_id>  (87) 
65

>  <original_smiles>  (87) 
COC1OC(=O)C=C2C3(O)CC(C=O)C24C2OC5(OC6C7OC8OC8(C7C)C6O5)C2(OC(C)=O)C2OC2(C(C)C)C14O3

>  <smiles>  (87) 
[H]OC12OC34C([H])(OC([H])([H])[H])OC(=O)C([H])=C1C3(C(=C([H])[O-])C2([H])[H])C1([H])OC2(OC3([H])C5([H])OC6([H])OC6(C3([H])O2)C5([H])C([H])([H])[H])C1(OC(=O)C([H])([H])[H])C1([H])OC14C([H])(C([H])([H])[H])C([H])([H])[H]

$$$$
65:1:1
     RDKit          3D

 71 80  0  0  1  0  0  0  0  0999 V2000
   -0.0186   -1.4274    6.6237 C   0  0  0  0  0  0  0  0  0  0  0  0
    0.0674   -0.0138    6.5508 O   0  0  0  0  0  0  0  0  0  0  0  0
   -0.2599    0.5672    5.3275 C   0  0  2  0  0  0  0  0  0  0  0  0
    0.7017    0.1660    4.3755 O   0  0  0  0  0  0  0  0  0  0  0  0
    0.5961    0.3566    3.0068 C   0  0  0  0  0  0  0  0  0  0  0  0
    1.1776   -0.3537    2.2166 O   0  0  0  0  0  0  0  0  0  0  0  0
   -0.1871    1.5283    2.5743 C   0  0  0  0  0  0  0  0  0  0  0  0
   -0.3205    2.5744    3.3814 C   0  0  0  0  0  0  0  0  0  0  0  0
   -1.6601    3.0520    3.8242 C   0  0  2  0  0  0  0  0  0  0  0  0
   -2.7246    2.7717    2.9507 O   0  0  0  0  0  0  0  0  0  0  0  0
   -1.4486    4.5231    4.0261 C   0  0  0  0  0  0  0  0  0  0  0  0
   -0.0601    4.5120    4.6097 C   0  0  0  0  0  0  0  0  0  0  0  0
    0.5756    5.6603    4.9865 C   0  0  0  0  0  0  0  0  0  0  0  0
    0.2115    6.8896    5.0031 O   0  0  0  0  0  0  0  0  0  0  0  0
    0.4128    3.0164    4.6285 C   0  0  2  0  0  0  0  0  0  0  0  0
    1.9601    2.9122    4.9088 C   0  0  2  0  0  0  0  0  0  0  0  0
    2.6615    1.6594    4.6630 O   0  0  0  0  0  0  0  0  0  0  0  0
    3.1897    1.6199    6.0098 C   0  0  2  0  0  0  0  0  0  0  0  0
    4.6322    1.7077    5.9874 O   0  0  0  0  0  0  0  0  0  0  0  0
    4.9057    0.3285    5.9714 C   0  0  1  0  0  0  0  0  0  0  0  0
    6.1836   -0.5131    6.3017 C   0  0  2  0  0  0  0  0  0  0  0  0
    5.7869   -1.8625    5.9264 O   0  0  0  0  0  0  0  0  0  0  0  0
    4.5150   -2.2407    6.5178 C   0  0  2  0  0  0  0  0  0  0  0  0
    4.3332   -2.5737    7.9007 O   0  0  0  0  0  0  0  0  0  0  0  0
    4.7280   -1.2434    7.6568 C   0  0  1  0  0  0  0  0  0  0  0  0
    6.1660   -0.8108    7.7849 C   0  0  1  0  0  0  0  0  0  0  0  0
    7.1721   -1.8520    8.3269 C   0  0  0  0  0  0  0  0  0  0  0  0
    4.0681    0.0377    7.2363 C   0  0  2  0  0  0  0  0  0  0  0  0
    2.8140    0.4273    6.7345 O   0  0  0  0  0  0  0  0  0  0  0  0
    2.3820    2.9000    6.4039 C   0  0  1  0  0  0  0  0  0  0  0  0
    3.2749    4.0085    6.6307 O   0  0  0  0  0  0  0  0  0  0  0  0
    4.0627    4.2059    7.7020 C   0  0  0  0  0  0  0  0  0  0  0  0
    4.1396    3.1084    8.7589 C   0  0  0  0  0  0  0  0  0  0  0  0
    4.7386    5.2703    7.8124 O   0  0  0  0  0  0  0  0  0  0  0  0
    1.2276    2.8863    7.4285 C   0  0  1  0  0  0  0  0  0  0  0  0
    0.1956    3.8782    7.2849 O   0  0  0  0  0  0  0  0  0  0  0  0
   -0.2306    2.5416    7.0375 C   0  0  2  0  0  0  0  0  0  0  0  0
   -1.2673    2.0271    8.0601 C   0  0  0  0  0  0  0  0  0  0  0  0
   -2.5142    2.9200    8.1157 C   0  0  0  0  0  0  0  0  0  0  0  0
   -0.7001    1.8161    9.4874 C   0  0  0  0  0  0  0  0  0  0  0  0
   -0.4641    2.1443    5.5705 C   0  0  2  0  0  0  0  0  0  0  0  0
   -1.8053    2.4783    5.1014 O   0  0  0  0  0  0  0  0  0  0  0  0
    0.2803   -1.7540    7.6209 H   0  0  0  0  0  0  0  0  0  0  0  0
    0.6340   -1.9256    5.9068 H   0  0  0  0  0  0  0  0  0  0  0  0
   -1.0464   -1.7425    6.4583 H   0  0  0  0  0  0  0  0  0  0  0  0
   -1.2211    0.1213    5.0565 H   0  0  0  0  0  0  0  0  0  0  0  0
   -0.9046    1.3825    1.7658 H   0  0  0  0  0  0  0  0  0  0  0  0
   -2.8029    1.8354    2.8791 H   0  0  0  0  0  0  0  0  0  0  0  0
   -1.4159    5.0777    3.0822 H   0  0  0  0  0  0  0  0  0  0  0  0
   -2.1566    4.9324    4.7468 H   0  0  0  0  0  0  0  0  0  0  0  0
    1.5719    5.3994    5.3230 H   0  0  0  0  0  0  0  0  0  0  0  0
    2.5318    3.6619    4.3588 H   0  0  0  0  0  0  0  0  0  0  0  0
    4.4930   -0.1076    5.0522 H   0  0  0  0  0  0  0  0  0  0  0  0
    7.1301   -0.1694    5.8909 H   0  0  0  0  0  0  0  0  0  0  0  0
    3.6091   -2.0888    5.9397 H   0  0  0  0  0  0  0  0  0  0  0  0
    6.2718    0.1099    8.3807 H   0  0  0  0  0  0  0  0  0  0  0  0
    7.0396   -2.8056    7.8367 H   0  0  0  0  0  0  0  0  0  0  0  0
    7.0334   -2.0118    9.3968 H   0  0  0  0  0  0  0  0  0  0  0  0
    8.1913   -1.5265    8.1685 H   0  0  0  0  0  0  0  0  0  0  0  0
    4.2979    0.7121    8.0647 H   0  0  0  0  0  0  0  0  0  0  0  0
    3.4175    2.3030    8.5546 H   0  0  0  0  0  0  0  0  0  0  0  0
    3.8898    3.4607    9.7628 H   0  0  0  0  0  0  0  0  0  0  0  0
    5.1647    2.7078    8.7796 H   0  0  0  0  0  0  0  0  0  0  0  0
    1.5323    2.6581    8.4357 H   0  0  0  0  0  0  0  0  0  0  0  0
   -1.6193    1.0475    7.7236 H   0  0  0  0  0  0  0  0  0  0  0  0
   -2.2702    3.9135    8.4949 H   0  0  0  0  0  0  0  0  0  0  0  0
   -3.2575    2.4831    8.7815 H   0  0  0  0  0  0  0  0  0  0  0  0
   -2.9859    3.0372    7.1391 H   0  0  0  0  0  0  0  0  0  0  0  0
   -0.3974    2.7605    9.9421 H   0  0  0  0  0  0  0  0  0  0  0  0
    0.1522    1.1374    9.4948 H   0  0  0  0  0  0  0  0  0  0  0  0
   -1.4416    1.3755   10.1499 H   0  0  0  0  0  0  0  0  0  0  0  0
  1  2  1  0
  1 43  1  0
  1 44  1  0
  1 45  1  0
  2  3  1  0
  3 41  1  0
  3  4  1  0
  3 46  1  6
  4  5  1  0
  5  6  2  0
  5  7  1  0
  7  8  2  0
  7 47  1  0
  8 15  1  0
  8  9  1  0
  9 42  1  0
  9 10  1  6
  9 11  1  0
 10 48  1  0
 11 12  1  0
 11 49  1  0
 11 50  1  0
 12 13  2  0
 15 12  1  1
 13 14  1  0
 13 51  1  0
 15 41  1  0
 15 16  1  0
 16 30  1  0
 16 17  1  0
 16 52  1  6
 18 17  1  6
 18 29  1  0
 18 19  1  0
 18 30  1  0
 19 20  1  0
 20 28  1  0
 20 21  1  0
 20 53  1  6
 21 26  1  0
 21 22  1  0
 21 54  1  6
 22 23  1  0
 23 25  1  0
 23 24  1  0
 23 55  1  6
 25 24  1  1
 25 26  1  0
 25 28  1  0
 26 27  1  0
 26 56  1  1
 27 57  1  0
 27 58  1  0
 27 59  1  0
 28 29  1  0
 28 60  1  1
 30 31  1  1
 30 35  1  0
 31 32  1  0
 32 33  1  0
 32 34  2  0
 33 61  1  0
 33 62  1  0
 33 63  1  0
 35 37  1  0
 35 36  1  0
 35 64  1  1
 36 37  1  0
 37 38  1  1
 37 41  1  0
 38 39  1  0
 38 40  1  0
 38 65  1  0
 39 66  1  0
 39 67  1  0
 39 68  1  0
 40 69  1  0
 40 70  1  0
 40 71  1  0
 41 42  1  6
M  CHG  1  14  -1
M  END
>  <i_m_ct_stereo_status>  (88) 
1

>  <s_m_source_file>  (88) 
/var/tmp/pbs.5076253.sched01/tmp0k8q0ypy/944rjgrua_.sdf

>  <i_m_source_file_index>  (88) 
18

>  <i_lp_mmshare_version>  (88) 
48012

>  <i_f3d_flags>  (88) 
0

>  <s_epik_input>  (88) 
Tz1bQ0hdW0NAQEhdMVtDSDJdW0NAQF0oTzIpKFtPSF0pQzM9W0NIXUMoPU8pT1tDQEBIXShPW0NIM10pW0NAXTIoW0NAXTEzNClbQ0BAXTUoW0NIXShbQ0gzXSlbQ0gzXSlbQ0BIXShPNSlbQ0BAXTYoT0MoPU8pW0NIM10pW0NAQF03KE9bQ0BASF00NilPW0NASF04W0NAQEhdOU9bQ0BASF0xW0NAXShPMSkoW0NAQEhdOE83KVtDQEhdOVtDSDNd

>  <s_epik_cmdline>  (88) 
J2VwaWtfcHl0aG9uJywgJy1waHQnLCAnMi4wJywgJy1waCcsICc3LjAnLCAnLXRuJywgJzgnLCAnLW1hJywgJzIwMCcsICctaW1hZScsICc8aW5maWxlLm1hZT4nLCAnLW9tYWUnLCAnPG91dGZpbGUubWFlPic=

>  <r_epik_Ionization_Penalty>  (88) 
2.51737

>  <r_epik_Ionization_Penalty_Charging>  (88) 
2.51376

>  <r_epik_Ionization_Penalty_Neutral>  (88) 
0.00360895

>  <r_epik_State_Penalty>  (88) 
2.67971

>  <r_epik_Charging_Adjusted_Penalty>  (88) 
5.19347

>  <i_epik_Tot_Q>  (88) 
-1

>  <i_epik_Tot_abs_Q>  (88) 
1

>  <s_epik_Chemistry_Notes>  (88) 
This compound has an ester and may undergo hydrolysis at high or low pH. This compound contains an acetal/aminal-like group ( X-CH(R)-Y where X, Y are N, S, or O) that may be acid/base labile, releasing an aldehyde.

>  <s_lp_Force_Field>  (88) 
OPLS3e

>  <r_lp_Energy>  (88) 
162.778

>  <b_lp_Chiralities_Consistent>  (88) 
1

>  <s_lp_Variant>  (88) 
65:0-2

>  <s_i_glide_gridfile>  (88) 
pfpi4k_grid

>  <i_i_glide_lignum>  (88) 
18

>  <i_i_glide_rotatable_bonds>  (88) 
5

>  <r_i_docking_score>  (88) 
-1.6486

>  <r_i_glide_ligand_efficiency>  (88) 
-0.0392523

>  <r_i_glide_ligand_efficiency_sa>  (88) 
-0.136442

>  <r_i_glide_ligand_efficiency_ln>  (88) 
-0.347976

>  <r_i_glide_gscore>  (88) 
-1.6486

>  <r_i_glide_lipo>  (88) 
-0.162657

>  <r_i_glide_hbond>  (88) 
-0.043518

>  <r_i_glide_metal>  (88) 
-0

>  <r_i_glide_rewards>  (88) 
0

>  <r_i_glide_evdw>  (88) 
-23.1043

>  <r_i_glide_ecoul>  (88) 
-1.73841

>  <r_i_glide_erotb>  (88) 
0.0602724

>  <r_i_glide_esite>  (88) 
-0.0867174

>  <r_i_glide_emodel>  (88) 
-24.3434

>  <r_i_glide_energy>  (88) 
-24.8427

>  <r_i_glide_einternal>  (88) 
4.89303

>  <r_i_glide_intrahb_reward>  (88) 
-0

>  <i_i_glide_confnum>  (88) 
1

>  <i_i_glide_posenum>  (88) 
5

>  <r_i_glide_eff_state_penalty>  (88) 
0

>  <ligand_id>  (88) 
65

>  <original_smiles>  (88) 
COC1OC(=O)C=C2C3(O)CC(C=O)C24C2OC5(OC6C7OC8OC8(C7C)C6O5)C2(OC(C)=O)C2OC2(C(C)C)C14O3

>  <smiles>  (88) 
[H]OC12OC34C([H])(OC([H])([H])[H])OC(=O)C([H])=C1C3(C(=C([H])[O-])C2([H])[H])C1([H])OC2(OC3([H])C5([H])OC6([H])OC6(C3([H])O2)C5([H])C([H])([H])[H])C1(OC(=O)C([H])([H])[H])C1([H])OC14C([H])(C([H])([H])[H])C([H])([H])[H]

$$$$
65:1:2
     RDKit          3D

 71 80  0  0  1  0  0  0  0  0999 V2000
    1.5897   -4.7157    7.3949 C   0  0  0  0  0  0  0  0  0  0  0  0
    2.3607   -4.2777    6.2949 O   0  0  0  0  0  0  0  0  0  0  0  0
    2.1455   -2.9636    5.8785 C   0  0  2  0  0  0  0  0  0  0  0  0
    0.8945   -2.9340    5.1952 O   0  0  0  0  0  0  0  0  0  0  0  0
    0.2488   -1.7816    4.7657 C   0  0  0  0  0  0  0  0  0  0  0  0
   -0.9769   -1.7527    4.6271 O   0  0  0  0  0  0  0  0  0  0  0  0
    1.0858   -0.6228    4.4670 C   0  0  0  0  0  0  0  0  0  0  0  0
    2.3752   -0.8071    4.1484 C   0  0  0  0  0  0  0  0  0  0  0  0
    3.4716   -0.1737    4.9464 C   0  0  2  0  0  0  0  0  0  0  0  0
    3.0968    0.9505    5.7055 O   0  0  0  0  0  0  0  0  0  0  0  0
    4.5421    0.0922    3.9328 C   0  0  0  0  0  0  0  0  0  0  0  0
    4.3773   -1.1495    3.0880 C   0  0  0  0  0  0  0  0  0  0  0  0
    5.1505   -1.3376    1.9645 C   0  0  0  0  0  0  0  0  0  0  0  0
    6.0907   -0.6930    1.3984 O   0  0  0  0  0  0  0  0  0  0  0  0
    3.1613   -1.9802    3.6589 C   0  0  2  0  0  0  0  0  0  0  0  0
    2.6920   -3.0883    2.6594 C   0  0  2  0  0  0  0  0  0  0  0  0
    1.4304   -3.7361    2.8927 O   0  0  0  0  0  0  0  0  0  0  0  0
    2.0312   -5.0473    2.8357 C   0  0  2  0  0  0  0  0  0  0  0  0
    1.5263   -5.7866    1.6811 O   0  0  0  0  0  0  0  0  0  0  0  0
    0.5665   -6.5129    2.4007 C   0  0  1  0  0  0  0  0  0  0  0  0
   -0.3284   -7.7527    2.0637 C   0  0  2  0  0  0  0  0  0  0  0  0
   -1.3538   -7.6920    3.0945 O   0  0  0  0  0  0  0  0  0  0  0  0
   -0.7613   -7.5611    4.4202 C   0  0  2  0  0  0  0  0  0  0  0  0
   -0.0789   -8.6001    5.1149 O   0  0  0  0  0  0  0  0  0  0  0  0
    0.5748   -8.1850    3.9255 C   0  0  1  0  0  0  0  0  0  0  0  0
    0.3990   -8.9328    2.6306 C   0  0  1  0  0  0  0  0  0  0  0  0
   -0.3807  -10.2501    2.7119 C   0  0  0  0  0  0  0  0  0  0  0  0
    1.4783   -7.0460    3.5083 C   0  0  2  0  0  0  0  0  0  0  0  0
    1.8057   -5.7998    4.0605 O   0  0  0  0  0  0  0  0  0  0  0  0
    3.4417   -4.4324    2.7278 C   0  0  1  0  0  0  0  0  0  0  0  0
    4.0453   -4.6583    1.4511 O   0  0  0  0  0  0  0  0  0  0  0  0
    4.5096   -5.8434    1.0600 C   0  0  0  0  0  0  0  0  0  0  0  0
    5.1425   -5.7873   -0.3215 C   0  0  0  0  0  0  0  0  0  0  0  0
    4.4498   -6.8872    1.6975 O   0  0  0  0  0  0  0  0  0  0  0  0
    4.4437   -4.6015    3.8840 C   0  0  1  0  0  0  0  0  0  0  0  0
    5.4440   -3.5935    3.9681 O   0  0  0  0  0  0  0  0  0  0  0  0
    4.5135   -3.6118    5.0535 C   0  0  2  0  0  0  0  0  0  0  0  0
    5.2024   -3.8973    6.4148 C   0  0  0  0  0  0  0  0  0  0  0  0
    6.3661   -2.9443    6.7553 C   0  0  0  0  0  0  0  0  0  0  0  0
    5.6648   -5.3586    6.5623 C   0  0  0  0  0  0  0  0  0  0  0  0
    3.4593   -2.4856    5.0908 C   0  0  2  0  0  0  0  0  0  0  0  0
    3.9234   -1.2543    5.7315 O   0  0  0  0  0  0  0  0  0  0  0  0
    1.8630   -5.7456    7.6282 H   0  0  0  0  0  0  0  0  0  0  0  0
    0.5208   -4.6947    7.1825 H   0  0  0  0  0  0  0  0  0  0  0  0
    1.8013   -4.1032    8.2707 H   0  0  0  0  0  0  0  0  0  0  0  0
    2.0600   -2.3744    6.7953 H   0  0  0  0  0  0  0  0  0  0  0  0
    0.7706    0.3203    4.8895 H   0  0  0  0  0  0  0  0  0  0  0  0
    3.8936    1.3788    5.9666 H   0  0  0  0  0  0  0  0  0  0  0  0
    4.3035    0.9810    3.3506 H   0  0  0  0  0  0  0  0  0  0  0  0
    5.5226    0.1689    4.4030 H   0  0  0  0  0  0  0  0  0  0  0  0
    4.8144   -2.2788    1.5186 H   0  0  0  0  0  0  0  0  0  0  0  0
    2.6651   -2.7181    1.6404 H   0  0  0  0  0  0  0  0  0  0  0  0
   -0.1496   -5.7686    2.7602 H   0  0  0  0  0  0  0  0  0  0  0  0
   -0.7201   -7.8471    1.0529 H   0  0  0  0  0  0  0  0  0  0  0  0
   -0.7228   -6.5566    4.8545 H   0  0  0  0  0  0  0  0  0  0  0  0
    1.3531   -9.1049    2.1257 H   0  0  0  0  0  0  0  0  0  0  0  0
   -1.3116  -10.1682    3.2716 H   0  0  0  0  0  0  0  0  0  0  0  0
    0.2152  -11.0281    3.1992 H   0  0  0  0  0  0  0  0  0  0  0  0
   -0.6357  -10.6251    1.7201 H   0  0  0  0  0  0  0  0  0  0  0  0
    2.3889   -7.4855    3.0988 H   0  0  0  0  0  0  0  0  0  0  0  0
    5.1015   -4.7859   -0.7507 H   0  0  0  0  0  0  0  0  0  0  0  0
    4.6155   -6.4659   -0.9925 H   0  0  0  0  0  0  0  0  0  0  0  0
    6.1884   -6.0868   -0.2681 H   0  0  0  0  0  0  0  0  0  0  0  0
    4.8181   -5.6085    4.0390 H   0  0  0  0  0  0  0  0  0  0  0  0
    4.4670   -3.7302    7.2003 H   0  0  0  0  0  0  0  0  0  0  0  0
    7.2025   -3.0651    6.0739 H   0  0  0  0  0  0  0  0  0  0  0  0
    6.7401   -3.1438    7.7622 H   0  0  0  0  0  0  0  0  0  0  0  0
    6.0648   -1.8988    6.7376 H   0  0  0  0  0  0  0  0  0  0  0  0
    6.4769   -5.5999    5.8738 H   0  0  0  0  0  0  0  0  0  0  0  0
    4.8425   -6.0521    6.3822 H   0  0  0  0  0  0  0  0  0  0  0  0
    6.0250   -5.5543    7.5731 H   0  0  0  0  0  0  0  0  0  0  0  0
  1  2  1  0
  1 43  1  0
  1 44  1  0
  1 45  1  0
  2  3  1  0
  3 41  1  0
  3  4  1  0
  3 46  1  1
  4  5  1  0
  5  6  2  0
  5  7  1  0
  7  8  2  0
  7 47  1  0
  8 15  1  0
  8  9  1  0
  9 42  1  0
  9 10  1  1
  9 11  1  0
 10 48  1  0
 11 12  1  0
 11 49  1  0
 11 50  1  0
 12 13  2  0
 15 12  1  6
 13 14  1  0
 13 51  1  0
 15 41  1  0
 15 16  1  0
 16 30  1  0
 16 17  1  0
 16 52  1  6
 18 17  1  1
 18 29  1  0
 18 19  1  0
 18 30  1  0
 19 20  1  0
 20 28  1  0
 20 21  1  0
 20 53  1  1
 21 26  1  0
 21 22  1  0
 21 54  1  6
 22 23  1  0
 23 25  1  0
 23 24  1  0
 23 55  1  1
 25 24  1  1
 25 26  1  0
 25 28  1  0
 26 27  1  0
 26 56  1  6
 27 57  1  0
 27 58  1  0
 27 59  1  0
 28 29  1  0
 28 60  1  6
 30 31  1  6
 30 35  1  0
 31 32  1  0
 32 33  1  0
 32 34  2  0
 33 61  1  0
 33 62  1  0
 33 63  1  0
 35 37  1  0
 35 36  1  0
 35 64  1  1
 36 37  1  0
 37 38  1  1
 37 41  1  0
 38 39  1  0
 38 40  1  0
 38 65  1  0
 39 66  1  0
 39 67  1  0
 39 68  1  0
 40 69  1  0
 40 70  1  0
 40 71  1  0
 41 42  1  1
M  CHG  1  14  -1
M  END
>  <i_m_ct_stereo_status>  (89) 
1

>  <s_m_source_file>  (89) 
/var/tmp/pbs.5076253.sched01/tmp0k8q0ypy/944rjgrua_.sdf

>  <i_m_source_file_index>  (89) 
18

>  <i_lp_mmshare_version>  (89) 
48012

>  <i_f3d_flags>  (89) 
0

>  <s_epik_input>  (89) 
Tz1bQ0hdW0NAQEhdMVtDSDJdW0NAQF0oTzIpKFtPSF0pQzM9W0NIXUMoPU8pT1tDQEBIXShPW0NIM10pW0NAXTIoW0NAXTEzNClbQ0BAXTUoW0NIXShbQ0gzXSlbQ0gzXSlbQ0BIXShPNSlbQ0BAXTYoT0MoPU8pW0NIM10pW0NAQF03KE9bQ0BASF00NilPW0NASF04W0NAQEhdOU9bQ0BASF0xW0NAXShPMSkoW0NAQEhdOE83KVtDQEhdOVtDSDNd

>  <s_epik_cmdline>  (89) 
J2VwaWtfcHl0aG9uJywgJy1waHQnLCAnMi4wJywgJy1waCcsICc3LjAnLCAnLXRuJywgJzgnLCAnLW1hJywgJzIwMCcsICctaW1hZScsICc8aW5maWxlLm1hZT4nLCAnLW9tYWUnLCAnPG91dGZpbGUubWFlPic=

>  <r_epik_Ionization_Penalty>  (89) 
2.51737

>  <r_epik_Ionization_Penalty_Charging>  (89) 
2.51376

>  <r_epik_Ionization_Penalty_Neutral>  (89) 
0.00360895

>  <r_epik_State_Penalty>  (89) 
2.67971

>  <r_epik_Charging_Adjusted_Penalty>  (89) 
5.19347

>  <i_epik_Tot_Q>  (89) 
-1

>  <i_epik_Tot_abs_Q>  (89) 
1

>  <s_epik_Chemistry_Notes>  (89) 
This compound has an ester and may undergo hydrolysis at high or low pH. This compound contains an acetal/aminal-like group ( X-CH(R)-Y where X, Y are N, S, or O) that may be acid/base labile, releasing an aldehyde.

>  <s_lp_Force_Field>  (89) 
OPLS3e

>  <r_lp_Energy>  (89) 
162.778

>  <b_lp_Chiralities_Consistent>  (89) 
1

>  <s_lp_Variant>  (89) 
65:0-2

>  <s_i_glide_gridfile>  (89) 
pfpi4k_grid

>  <i_i_glide_lignum>  (89) 
18

>  <i_i_glide_rotatable_bonds>  (89) 
5

>  <r_i_docking_score>  (89) 
-1.34685

>  <r_i_glide_ligand_efficiency>  (89) 
-0.032068

>  <r_i_glide_ligand_efficiency_sa>  (89) 
-0.111469

>  <r_i_glide_ligand_efficiency_ln>  (89) 
-0.284286

>  <r_i_glide_gscore>  (89) 
-1.34685

>  <r_i_glide_lipo>  (89) 
-0.215483

>  <r_i_glide_hbond>  (89) 
-0.0746734

>  <r_i_glide_metal>  (89) 
-0

>  <r_i_glide_rewards>  (89) 
-0.0970879

>  <r_i_glide_evdw>  (89) 
-25.4788

>  <r_i_glide_ecoul>  (89) 
2.10847

>  <r_i_glide_erotb>  (89) 
0.0602724

>  <r_i_glide_esite>  (89) 
-0.0622152

>  <r_i_glide_emodel>  (89) 
-25.1649

>  <r_i_glide_energy>  (89) 
-23.3703

>  <r_i_glide_einternal>  (89) 
0.105544

>  <r_i_glide_intrahb_reward>  (89) 
-0

>  <i_i_glide_confnum>  (89) 
4

>  <i_i_glide_posenum>  (89) 
25

>  <r_i_glide_eff_state_penalty>  (89) 
0

>  <ligand_id>  (89) 
65

>  <original_smiles>  (89) 
COC1OC(=O)C=C2C3(O)CC(C=O)C24C2OC5(OC6C7OC8OC8(C7C)C6O5)C2(OC(C)=O)C2OC2(C(C)C)C14O3

>  <smiles>  (89) 
[H]OC12OC34C([H])(OC([H])([H])[H])OC(=O)C([H])=C1C3(C(=C([H])[O-])C2([H])[H])C1([H])OC2(OC3([H])C5([H])OC6([H])OC6(C3([H])O2)C5([H])C([H])([H])[H])C1(OC(=O)C([H])([H])[H])C1([H])OC14C([H])(C([H])([H])[H])C([H])([H])[H]

$$$$
70:0:0
     RDKit          3D

 54 59  0  0  1  0  0  0  0  0999 V2000
   -0.0928    5.7230    3.4908 C   0  0  0  0  0  0  0  0  0  0  0  0
   -1.0801    4.8198    3.9798 O   0  0  0  0  0  0  0  0  0  0  0  0
   -0.5589    3.5733    4.4598 C   0  0  2  0  0  0  0  0  0  0  0  0
   -1.6947    2.5106    4.6462 C   0  0  1  0  0  0  0  0  0  0  0  0
   -2.8316    2.8707    3.9051 O   0  0  0  0  0  0  0  0  0  0  0  0
   -2.7250    2.8609    2.4786 C   0  0  0  0  0  0  0  0  0  0  0  0
   -1.2939    1.0341    4.3015 C   0  0  0  0  0  0  0  0  0  0  0  0
   -0.8817    0.2033    5.5503 C   0  0  1  0  0  0  0  0  0  0  0  0
   -0.1792   -1.0930    5.1809 C   0  0  0  0  0  0  0  0  0  0  0  0
   -0.2026   -2.3028    5.9304 C   0  0  0  0  0  0  0  0  0  0  0  0
    0.5434   -3.2143    5.2388 C   0  0  0  0  0  0  0  0  0  0  0  0
    1.0308   -2.6667    4.0963 O   0  0  0  0  0  0  0  0  0  0  0  0
    0.5911   -1.3811    4.0825 C   0  0  0  0  0  0  0  0  0  0  0  0
   -0.1687    1.0391    6.6638 C   0  0  2  0  0  0  0  0  0  0  0  0
   -0.5008    0.4172    7.8959 O   0  0  0  0  0  0  0  0  0  0  0  0
   -0.7054    2.5353    6.6731 C   0  0  2  0  0  0  0  0  0  0  0  0
   -1.9682    2.5327    6.0078 O   0  0  0  0  0  0  0  0  0  0  0  0
    0.0772    3.6718    5.8716 C   0  0  2  0  0  0  0  0  0  0  0  0
   -0.4627    4.8514    6.4545 O   0  0  0  0  0  0  0  0  0  0  0  0
    1.6885    3.8949    5.9035 C   0  0  1  0  0  0  0  0  0  0  0  0
    1.9866    4.6583    7.0808 O   0  0  0  0  0  0  0  0  0  0  0  0
    3.2217    5.3649    7.0503 C   0  0  0  0  0  0  0  0  0  0  0  0
    2.6697    2.6211    5.8545 C   0  0  2  0  0  0  0  0  0  0  0  0
    3.8617    2.8849    5.1419 O   0  0  0  0  0  0  0  0  0  0  0  0
    1.9336    1.5264    5.2238 C   0  0  0  0  0  0  0  0  0  0  0  0
    1.3399    1.1116    6.5536 C   0  0  2  0  0  0  0  0  0  0  0  0
    2.4355    0.3915    7.2169 N   0  0  0  0  0  0  0  0  0  0  0  0
    2.8855    1.8526    7.2115 C   0  0  2  0  0  0  0  0  0  0  0  0
    1.5863    2.0854    7.6165 O   0  0  0  0  0  0  0  0  0  0  0  0
   -0.5861    6.5252    2.9437 H   0  0  0  0  0  0  0  0  0  0  0  0
    0.6186    5.2481    2.8170 H   0  0  0  0  0  0  0  0  0  0  0  0
    0.4751    6.1750    4.3033 H   0  0  0  0  0  0  0  0  0  0  0  0
    0.1084    3.2241    3.6764 H   0  0  0  0  0  0  0  0  0  0  0  0
   -3.7259    2.8688    2.0442 H   0  0  0  0  0  0  0  0  0  0  0  0
   -2.2232    1.9736    2.0917 H   0  0  0  0  0  0  0  0  0  0  0  0
   -2.1978    3.7355    2.0978 H   0  0  0  0  0  0  0  0  0  0  0  0
   -2.1677    0.5234    3.8933 H   0  0  0  0  0  0  0  0  0  0  0  0
   -0.5467    1.0355    3.5094 H   0  0  0  0  0  0  0  0  0  0  0  0
   -1.8305   -0.1149    5.9773 H   0  0  0  0  0  0  0  0  0  0  0  0
   -0.7032   -2.4989    6.8646 H   0  0  0  0  0  0  0  0  0  0  0  0
    0.8121   -4.2462    5.4066 H   0  0  0  0  0  0  0  0  0  0  0  0
    0.9074   -0.8262    3.2098 H   0  0  0  0  0  0  0  0  0  0  0  0
   -0.0577    0.9157    8.5717 H   0  0  0  0  0  0  0  0  0  0  0  0
   -0.8496    2.8461    7.7096 H   0  0  0  0  0  0  0  0  0  0  0  0
   -0.0445    4.9582    7.2967 H   0  0  0  0  0  0  0  0  0  0  0  0
    1.9162    4.5295    5.0431 H   0  0  0  0  0  0  0  0  0  0  0  0
    3.3031    5.9986    7.9359 H   0  0  0  0  0  0  0  0  0  0  0  0
    3.2850    6.0107    6.1720 H   0  0  0  0  0  0  0  0  0  0  0  0
    4.0812    4.6916    7.0548 H   0  0  0  0  0  0  0  0  0  0  0  0
    3.6401    3.1376    4.2548 H   0  0  0  0  0  0  0  0  0  0  0  0
    1.2512    1.7706    4.4325 H   0  0  0  0  0  0  0  0  0  0  0  0
    2.5824    0.7539    4.8188 H   0  0  0  0  0  0  0  0  0  0  0  0
    2.9836   -0.2556    6.6732 H   0  0  0  0  0  0  0  0  0  0  0  0
    3.6481    2.1047    7.9466 H   0  0  0  0  0  0  0  0  0  0  0  0
  1  2  1  0
  1 30  1  0
  1 31  1  0
  1 32  1  0
  2  3  1  0
  3 18  1  0
  3  4  1  0
  3 33  1  6
  4 17  1  0
  4  5  1  6
  4  7  1  0
  5  6  1  0
  6 34  1  0
  6 35  1  0
  6 36  1  0
  7  8  1  0
  7 37  1  0
  7 38  1  0
  8  9  1  0
  8 14  1  0
  8 39  1  1
  9 13  2  0
  9 10  1  0
 10 11  2  0
 10 40  1  0
 11 12  1  0
 11 41  1  0
 12 13  1  0
 13 42  1  0
 14 26  1  0
 14 15  1  1
 14 16  1  0
 15 43  1  0
 16 17  1  0
 16 18  1  0
 16 44  1  1
 18 19  1  1
 18 20  1  0
 19 45  1  0
 20 21  1  0
 20 23  1  0
 20 46  1  6
 21 22  1  0
 22 47  1  0
 22 48  1  0
 22 49  1  0
 23 28  1  0
 23 24  1  6
 23 25  1  0
 24 50  1  0
 25 26  1  0
 25 51  1  0
 25 52  1  0
 26 29  1  1
 26 27  1  0
 27 28  1  0
 27 53  1  0
 28 29  1  0
 28 54  1  1
M  END
>  <i_m_ct_stereo_status>  (90) 
1

>  <s_m_source_file>  (90) 
/var/tmp/pbs.5076253.sched01/tmp0k8q0ypy/944rjgrua_.sdf

>  <i_m_source_file_index>  (90) 
23

>  <i_lp_mmshare_version>  (90) 
48012

>  <i_f3d_flags>  (90) 
0

>  <s_epik_input>  (90) 
W05IXTFbQ0BIXShPMilbQ0BAXShbT0hdKShbQ0gyXTMpW0NASF0oT1tDSDNdKVtDQF0oW09IXSkoW0NAQEhdNFtDQEBdNShbQ0BdMTIzKVtPSF0pW0NASF0oT1tDSDNdKVtDQEBdKE80KShPW0NIM10pW0NIMl1bQ0BIXTVjNltjSF1bY0hdb1tjSF02

>  <s_epik_cmdline>  (90) 
J2VwaWtfcHl0aG9uJywgJy1waHQnLCAnMi4wJywgJy1waCcsICc3LjAnLCAnLXRuJywgJzgnLCAnLW1hJywgJzIwMCcsICctaW1hZScsICc8aW5maWxlLm1hZT4nLCAnLW9tYWUnLCAnPG91dGZpbGUubWFlPic=

>  <r_lp_tautomer_probability>  (90) 
1

>  <r_epik_Ionization_Penalty>  (90) 
0.000227002

>  <r_epik_Ionization_Penalty_Charging>  (90) 
0

>  <r_epik_Ionization_Penalty_Neutral>  (90) 
0.000227002

>  <r_epik_State_Penalty>  (90) 
-0

>  <r_epik_Charging_Adjusted_Penalty>  (90) 
0

>  <i_epik_Tot_Q>  (90) 
0

>  <i_epik_Tot_abs_Q>  (90) 
0

>  <s_epik_Chemistry_Notes>  (90) 
This compound contains an acetal/aminal-like group ( X-CH(R)-Y where X, Y are N, S, or O) that may be acid/base labile, releasing an aldehyde.

>  <s_lp_Force_Field>  (90) 
OPLS3e

>  <r_lp_Energy>  (90) 
120.948

>  <b_lp_Chiralities_Consistent>  (90) 
1

>  <s_lp_Variant>  (90) 
70:0-1

>  <s_i_glide_gridfile>  (90) 
pfpi4k_grid

>  <i_i_glide_lignum>  (90) 
23

>  <i_i_glide_rotatable_bonds>  (90) 
7

>  <r_i_docking_score>  (90) 
-2.58643

>  <r_i_glide_ligand_efficiency>  (90) 
-0.0891872

>  <r_i_glide_ligand_efficiency_sa>  (90) 
-0.274011

>  <r_i_glide_ligand_efficiency_ln>  (90) 
-0.592227

>  <r_i_glide_gscore>  (90) 
-2.58643

>  <r_i_glide_lipo>  (90) 
-0.0128516

>  <r_i_glide_hbond>  (90) 
-0.127458

>  <r_i_glide_metal>  (90) 
-0

>  <r_i_glide_rewards>  (90) 
-0.60407

>  <r_i_glide_evdw>  (90) 
-17.8637

>  <r_i_glide_ecoul>  (90) 
-7.00521

>  <r_i_glide_erotb>  (90) 
0.116449

>  <r_i_glide_esite>  (90) 
-0.0145324

>  <r_i_glide_emodel>  (90) 
-28.4128

>  <r_i_glide_energy>  (90) 
-24.8689

>  <r_i_glide_einternal>  (90) 
2.45585

>  <r_i_glide_intrahb_reward>  (90) 
-0

>  <i_i_glide_confnum>  (90) 
1

>  <i_i_glide_posenum>  (90) 
37

>  <r_i_glide_eff_state_penalty>  (90) 
0

>  <ligand_id>  (90) 
70

>  <original_smiles>  (90) 
COC1C2(OC)CC(c3ccoc3)C3(O)C(O2)C1(O)C(OC)C1(O)CC32NC1O2

>  <smiles>  (90) 
[H]OC12C3([H])OC(N3[H])(C1([H])[H])C1(O[H])C3([H])OC(OC([H])([H])[H])(C([H])([H])C1([H])c1c([H])oc([H])c1[H])C([H])(OC([H])([H])[H])C3(O[H])C2([H])OC([H])([H])[H]

$$$$
70:0:1
     RDKit          3D

 54 59  0  0  1  0  0  0  0  0999 V2000
   -0.5812    6.1332    2.9944 C   0  0  0  0  0  0  0  0  0  0  0  0
   -1.2067    4.9044    3.3427 O   0  0  0  0  0  0  0  0  0  0  0  0
   -0.3227    3.8068    3.6012 C   0  0  2  0  0  0  0  0  0  0  0  0
   -0.9986    2.4214    3.3311 C   0  0  1  0  0  0  0  0  0  0  0  0
   -2.0954    2.5585    2.4821 O   0  0  0  0  0  0  0  0  0  0  0  0
   -3.3298    2.9425    3.0655 C   0  0  0  0  0  0  0  0  0  0  0  0
   -0.0379    1.3884    2.6578 C   0  0  0  0  0  0  0  0  0  0  0  0
    0.6056    0.4002    3.6814 C   0  0  1  0  0  0  0  0  0  0  0  0
    1.7914   -0.3717    3.1127 C   0  0  0  0  0  0  0  0  0  0  0  0
    2.5999   -1.3317    3.7972 C   0  0  0  0  0  0  0  0  0  0  0  0
    3.5163   -1.7948    2.8943 C   0  0  0  0  0  0  0  0  0  0  0  0
    3.3333   -1.2088    1.6867 O   0  0  0  0  0  0  0  0  0  0  0  0
    2.2871   -0.3565    1.8346 C   0  0  0  0  0  0  0  0  0  0  0  0
    0.8729    1.0362    5.0913 C   0  0  2  0  0  0  0  0  0  0  0  0
    0.7243   -0.0173    6.0347 O   0  0  0  0  0  0  0  0  0  0  0  0
   -0.1930    2.1674    5.4188 C   0  0  2  0  0  0  0  0  0  0  0  0
   -1.3246    1.9145    4.5897 O   0  0  0  0  0  0  0  0  0  0  0  0
    0.1402    3.6944    5.0751 C   0  0  2  0  0  0  0  0  0  0  0  0
   -0.8433    4.3913    5.8263 O   0  0  0  0  0  0  0  0  0  0  0  0
    1.5322    4.4511    5.4501 C   0  0  1  0  0  0  0  0  0  0  0  0
    1.4406    4.8597    6.8223 O   0  0  0  0  0  0  0  0  0  0  0  0
    2.3074    5.9240    7.1979 C   0  0  0  0  0  0  0  0  0  0  0  0
    2.9302    3.6845    5.2398 C   0  0  2  0  0  0  0  0  0  0  0  0
    3.9636    4.5737    4.8775 O   0  0  0  0  0  0  0  0  0  0  0  0
    2.7175    2.6566    4.2165 C   0  0  0  0  0  0  0  0  0  0  0  0
    2.2445    1.6677    5.2625 C   0  0  2  0  0  0  0  0  0  0  0  0
    3.4919    1.2007    5.8880 N   0  0  0  0  0  0  0  0  0  0  0  0
    3.3495    2.6527    6.3534 C   0  0  2  0  0  0  0  0  0  0  0  0
    2.0388    2.2869    6.5685 O   0  0  0  0  0  0  0  0  0  0  0  0
   -1.3723    6.7940    2.6311 H   0  0  0  0  0  0  0  0  0  0  0  0
    0.1452    6.0795    2.1858 H   0  0  0  0  0  0  0  0  0  0  0  0
   -0.0979    6.5820    3.8620 H   0  0  0  0  0  0  0  0  0  0  0  0
    0.4827    3.9363    2.8860 H   0  0  0  0  0  0  0  0  0  0  0  0
   -4.0470    3.1745    2.2800 H   0  0  0  0  0  0  0  0  0  0  0  0
   -3.2438    3.7972    3.7187 H   0  0  0  0  0  0  0  0  0  0  0  0
   -3.7567    2.1496    3.6784 H   0  0  0  0  0  0  0  0  0  0  0  0
   -0.6207    0.7994    1.9502 H   0  0  0  0  0  0  0  0  0  0  0  0
    0.6857    1.9191    2.0403 H   0  0  0  0  0  0  0  0  0  0  0  0
   -0.1603   -0.3633    3.8320 H   0  0  0  0  0  0  0  0  0  0  0  0
    2.5369   -1.6681    4.8175 H   0  0  0  0  0  0  0  0  0  0  0  0
    4.3098   -2.5206    2.9497 H   0  0  0  0  0  0  0  0  0  0  0  0
    2.0147    0.1506    0.9188 H   0  0  0  0  0  0  0  0  0  0  0  0
    1.4490   -0.6127    5.9135 H   0  0  0  0  0  0  0  0  0  0  0  0
   -0.4870    2.0731    6.4679 H   0  0  0  0  0  0  0  0  0  0  0  0
   -0.5701    4.3322    6.7291 H   0  0  0  0  0  0  0  0  0  0  0  0
    1.5483    5.3606    4.8429 H   0  0  0  0  0  0  0  0  0  0  0  0
    2.0880    6.2348    8.2208 H   0  0  0  0  0  0  0  0  0  0  0  0
    2.1686    6.7902    6.5480 H   0  0  0  0  0  0  0  0  0  0  0  0
    3.3582    5.6297    7.1730 H   0  0  0  0  0  0  0  0  0  0  0  0
    3.7106    4.9947    4.0678 H   0  0  0  0  0  0  0  0  0  0  0  0
    2.0508    2.8727    3.4061 H   0  0  0  0  0  0  0  0  0  0  0  0
    3.6363    2.3228    3.7398 H   0  0  0  0  0  0  0  0  0  0  0  0
    4.2800    0.9968    5.2974 H   0  0  0  0  0  0  0  0  0  0  0  0
    3.9063    2.8990    7.2571 H   0  0  0  0  0  0  0  0  0  0  0  0
  1  2  1  0
  1 30  1  0
  1 31  1  0
  1 32  1  0
  2  3  1  0
  3 18  1  0
  3  4  1  0
  3 33  1  6
  4 17  1  0
  4  5  1  6
  4  7  1  0
  5  6  1  0
  6 34  1  0
  6 35  1  0
  6 36  1  0
  7  8  1  0
  7 37  1  0
  7 38  1  0
  8  9  1  0
  8 14  1  0
  8 39  1  1
  9 13  2  0
  9 10  1  0
 10 11  2  0
 10 40  1  0
 11 12  1  0
 11 41  1  0
 12 13  1  0
 13 42  1  0
 14 26  1  0
 14 15  1  1
 14 16  1  0
 15 43  1  0
 16 17  1  0
 16 18  1  0
 16 44  1  1
 18 19  1  1
 18 20  1  0
 19 45  1  0
 20 21  1  0
 20 23  1  0
 20 46  1  6
 21 22  1  0
 22 47  1  0
 22 48  1  0
 22 49  1  0
 23 28  1  0
 23 24  1  6
 23 25  1  0
 24 50  1  0
 25 26  1  0
 25 51  1  0
 25 52  1  0
 26 29  1  1
 26 27  1  0
 27 28  1  0
 27 53  1  0
 28 29  1  0
 28 54  1  1
M  END
>  <i_m_ct_stereo_status>  (91) 
1

>  <s_m_source_file>  (91) 
/var/tmp/pbs.5076253.sched01/tmp0k8q0ypy/944rjgrua_.sdf

>  <i_m_source_file_index>  (91) 
23

>  <i_lp_mmshare_version>  (91) 
48012

>  <i_f3d_flags>  (91) 
0

>  <s_epik_input>  (91) 
W05IXTFbQ0BIXShPMilbQ0BAXShbT0hdKShbQ0gyXTMpW0NASF0oT1tDSDNdKVtDQF0oW09IXSkoW0NAQEhdNFtDQEBdNShbQ0BdMTIzKVtPSF0pW0NASF0oT1tDSDNdKVtDQEBdKE80KShPW0NIM10pW0NIMl1bQ0BIXTVjNltjSF1bY0hdb1tjSF02

>  <s_epik_cmdline>  (91) 
J2VwaWtfcHl0aG9uJywgJy1waHQnLCAnMi4wJywgJy1waCcsICc3LjAnLCAnLXRuJywgJzgnLCAnLW1hJywgJzIwMCcsICctaW1hZScsICc8aW5maWxlLm1hZT4nLCAnLW9tYWUnLCAnPG91dGZpbGUubWFlPic=

>  <r_lp_tautomer_probability>  (91) 
1

>  <r_epik_Ionization_Penalty>  (91) 
0.000227002

>  <r_epik_Ionization_Penalty_Charging>  (91) 
0

>  <r_epik_Ionization_Penalty_Neutral>  (91) 
0.000227002

>  <r_epik_State_Penalty>  (91) 
-0

>  <r_epik_Charging_Adjusted_Penalty>  (91) 
0

>  <i_epik_Tot_Q>  (91) 
0

>  <i_epik_Tot_abs_Q>  (91) 
0

>  <s_epik_Chemistry_Notes>  (91) 
This compound contains an acetal/aminal-like group ( X-CH(R)-Y where X, Y are N, S, or O) that may be acid/base labile, releasing an aldehyde.

>  <s_lp_Force_Field>  (91) 
OPLS3e

>  <r_lp_Energy>  (91) 
120.948

>  <b_lp_Chiralities_Consistent>  (91) 
1

>  <s_lp_Variant>  (91) 
70:0-1

>  <s_i_glide_gridfile>  (91) 
pfpi4k_grid

>  <i_i_glide_lignum>  (91) 
23

>  <i_i_glide_rotatable_bonds>  (91) 
7

>  <r_i_docking_score>  (91) 
-2.33416

>  <r_i_glide_ligand_efficiency>  (91) 
-0.0804883

>  <r_i_glide_ligand_efficiency_sa>  (91) 
-0.247286

>  <r_i_glide_ligand_efficiency_ln>  (91) 
-0.534464

>  <r_i_glide_gscore>  (91) 
-2.33416

>  <r_i_glide_lipo>  (91) 
0

>  <r_i_glide_hbond>  (91) 
-0.16

>  <r_i_glide_metal>  (91) 
-0

>  <r_i_glide_rewards>  (91) 
-0.60407

>  <r_i_glide_evdw>  (91) 
-16.6032

>  <r_i_glide_ecoul>  (91) 
-5.36592

>  <r_i_glide_erotb>  (91) 
0.116449

>  <r_i_glide_esite>  (91) 
-0.0514898

>  <r_i_glide_emodel>  (91) 
-25.5682

>  <r_i_glide_energy>  (91) 
-21.9691

>  <r_i_glide_einternal>  (91) 
0.916228

>  <r_i_glide_intrahb_reward>  (91) 
-0

>  <i_i_glide_confnum>  (91) 
3

>  <i_i_glide_posenum>  (91) 
34

>  <r_i_glide_eff_state_penalty>  (91) 
0

>  <ligand_id>  (91) 
70

>  <original_smiles>  (91) 
COC1C2(OC)CC(c3ccoc3)C3(O)C(O2)C1(O)C(OC)C1(O)CC32NC1O2

>  <smiles>  (91) 
[H]OC12C3([H])OC(N3[H])(C1([H])[H])C1(O[H])C3([H])OC(OC([H])([H])[H])(C([H])([H])C1([H])c1c([H])oc([H])c1[H])C([H])(OC([H])([H])[H])C3(O[H])C2([H])OC([H])([H])[H]

$$$$
70:0:2
     RDKit          3D

 54 59  0  0  1  0  0  0  0  0999 V2000
   -0.5672    6.0811    3.1297 C   0  0  0  0  0  0  0  0  0  0  0  0
   -1.2435    4.8740    3.4657 O   0  0  0  0  0  0  0  0  0  0  0  0
   -0.4042    3.7219    3.6042 C   0  0  2  0  0  0  0  0  0  0  0  0
   -1.1415    2.3983    3.2301 C   0  0  1  0  0  0  0  0  0  0  0  0
   -2.2540    2.6634    2.4457 O   0  0  0  0  0  0  0  0  0  0  0  0
   -3.4652    3.0025    3.0774 C   0  0  0  0  0  0  0  0  0  0  0  0
   -0.2485    1.4037    2.4200 C   0  0  0  0  0  0  0  0  0  0  0  0
    0.3615    0.2933    3.3253 C   0  0  1  0  0  0  0  0  0  0  0  0
    1.4854   -0.4845    2.6572 C   0  0  0  0  0  0  0  0  0  0  0  0
    1.7729   -1.8686    2.8387 C   0  0  0  0  0  0  0  0  0  0  0  0
    2.8477   -2.1563    2.0469 C   0  0  0  0  0  0  0  0  0  0  0  0
    3.2642   -1.0488    1.3802 O   0  0  0  0  0  0  0  0  0  0  0  0
    2.4263   -0.0497    1.7574 C   0  0  0  0  0  0  0  0  0  0  0  0
    0.6860    0.7648    4.7823 C   0  0  2  0  0  0  0  0  0  0  0  0
    0.5033   -0.3857    5.5991 O   0  0  0  0  0  0  0  0  0  0  0  0
   -0.3194    1.9083    5.2540 C   0  0  2  0  0  0  0  0  0  0  0  0
   -1.4719    1.7881    4.4341 O   0  0  0  0  0  0  0  0  0  0  0  0
    0.0762    3.4464    5.0475 C   0  0  2  0  0  0  0  0  0  0  0  0
   -0.8533    4.1203    5.8798 O   0  0  0  0  0  0  0  0  0  0  0  0
    1.5062    4.0954    5.4614 C   0  0  1  0  0  0  0  0  0  0  0  0
    1.4505    4.3701    6.8684 O   0  0  0  0  0  0  0  0  0  0  0  0
    2.3265    5.3962    7.3181 C   0  0  0  0  0  0  0  0  0  0  0  0
    2.8630    3.2887    5.1576 C   0  0  2  0  0  0  0  0  0  0  0  0
    3.9232    4.1723    4.8706 O   0  0  0  0  0  0  0  0  0  0  0  0
    2.5903    2.3842    4.0382 C   0  0  0  0  0  0  0  0  0  0  0  0
    2.0867    1.3081    4.9840 C   0  0  2  0  0  0  0  0  0  0  0  0
    3.3134    0.7233    5.5387 N   0  0  0  0  0  0  0  0  0  0  0  0
    3.2474    2.1241    6.1514 C   0  0  2  0  0  0  0  0  0  0  0  0
    1.9257    1.8013    6.3513 O   0  0  0  0  0  0  0  0  0  0  0  0
   -1.3153    6.8244    2.8645 H   0  0  0  0  0  0  0  0  0  0  0  0
    0.0802    6.0048    2.2590 H   0  0  0  0  0  0  0  0  0  0  0  0
    0.0252    6.4567    3.9644 H   0  0  0  0  0  0  0  0  0  0  0  0
    0.3907    3.8765    2.8831 H   0  0  0  0  0  0  0  0  0  0  0  0
   -4.1574    3.3813    2.3293 H   0  0  0  0  0  0  0  0  0  0  0  0
   -3.3214    3.7455    3.8389 H   0  0  0  0  0  0  0  0  0  0  0  0
   -3.9056    2.1508    3.5725 H   0  0  0  0  0  0  0  0  0  0  0  0
   -0.8788    0.9143    1.6763 H   0  0  0  0  0  0  0  0  0  0  0  0
    0.4838    1.9583    1.8349 H   0  0  0  0  0  0  0  0  0  0  0  0
   -0.4459   -0.4352    3.4158 H   0  0  0  0  0  0  0  0  0  0  0  0
    1.2522   -2.5857    3.4537 H   0  0  0  0  0  0  0  0  0  0  0  0
    3.4053   -3.0556    1.8411 H   0  0  0  0  0  0  0  0  0  0  0  0
    2.6343    0.8952    1.2766 H   0  0  0  0  0  0  0  0  0  0  0  0
    1.1665   -1.0172    5.3543 H   0  0  0  0  0  0  0  0  0  0  0  0
   -0.5991    1.7252    6.2923 H   0  0  0  0  0  0  0  0  0  0  0  0
   -0.5234    4.0224    6.7621 H   0  0  0  0  0  0  0  0  0  0  0  0
    1.5520    5.0603    4.9411 H   0  0  0  0  0  0  0  0  0  0  0  0
    2.1388    5.5965    8.3750 H   0  0  0  0  0  0  0  0  0  0  0  0
    2.1550    6.3223    6.7648 H   0  0  0  0  0  0  0  0  0  0  0  0
    3.3772    5.1141    7.2207 H   0  0  0  0  0  0  0  0  0  0  0  0
    3.6865    4.6664    4.0966 H   0  0  0  0  0  0  0  0  0  0  0  0
    1.9254    2.7113    3.2616 H   0  0  0  0  0  0  0  0  0  0  0  0
    3.4852    2.0680    3.5157 H   0  0  0  0  0  0  0  0  0  0  0  0
    4.0819    0.5380    4.9153 H   0  0  0  0  0  0  0  0  0  0  0  0
    3.8232    2.2534    7.0644 H   0  0  0  0  0  0  0  0  0  0  0  0
  1  2  1  0
  1 30  1  0
  1 31  1  0
  1 32  1  0
  2  3  1  0
  3 18  1  0
  3  4  1  0
  3 33  1  6
  4 17  1  0
  4  5  1  6
  4  7  1  0
  5  6  1  0
  6 34  1  0
  6 35  1  0
  6 36  1  0
  7  8  1  0
  7 37  1  0
  7 38  1  0
  8  9  1  0
  8 14  1  0
  8 39  1  1
  9 13  2  0
  9 10  1  0
 10 11  2  0
 10 40  1  0
 11 12  1  0
 11 41  1  0
 12 13  1  0
 13 42  1  0
 14 26  1  0
 14 15  1  1
 14 16  1  0
 15 43  1  0
 16 17  1  0
 16 18  1  0
 16 44  1  1
 18 19  1  1
 18 20  1  0
 19 45  1  0
 20 21  1  0
 20 23  1  0
 20 46  1  6
 21 22  1  0
 22 47  1  0
 22 48  1  0
 22 49  1  0
 23 28  1  0
 23 24  1  6
 23 25  1  0
 24 50  1  0
 25 26  1  0
 25 51  1  0
 25 52  1  0
 26 29  1  1
 26 27  1  0
 27 28  1  0
 27 53  1  0
 28 29  1  0
 28 54  1  1
M  END
>  <i_m_ct_stereo_status>  (92) 
1

>  <s_m_source_file>  (92) 
/var/tmp/pbs.5076253.sched01/tmp0k8q0ypy/944rjgrua_.sdf

>  <i_m_source_file_index>  (92) 
23

>  <i_lp_mmshare_version>  (92) 
48012

>  <i_f3d_flags>  (92) 
0

>  <s_epik_input>  (92) 
W05IXTFbQ0BIXShPMilbQ0BAXShbT0hdKShbQ0gyXTMpW0NASF0oT1tDSDNdKVtDQF0oW09IXSkoW0NAQEhdNFtDQEBdNShbQ0BdMTIzKVtPSF0pW0NASF0oT1tDSDNdKVtDQEBdKE80KShPW0NIM10pW0NIMl1bQ0BIXTVjNltjSF1bY0hdb1tjSF02

>  <s_epik_cmdline>  (92) 
J2VwaWtfcHl0aG9uJywgJy1waHQnLCAnMi4wJywgJy1waCcsICc3LjAnLCAnLXRuJywgJzgnLCAnLW1hJywgJzIwMCcsICctaW1hZScsICc8aW5maWxlLm1hZT4nLCAnLW9tYWUnLCAnPG91dGZpbGUubWFlPic=

>  <r_lp_tautomer_probability>  (92) 
1

>  <r_epik_Ionization_Penalty>  (92) 
0.000227002

>  <r_epik_Ionization_Penalty_Charging>  (92) 
0

>  <r_epik_Ionization_Penalty_Neutral>  (92) 
0.000227002

>  <r_epik_State_Penalty>  (92) 
-0

>  <r_epik_Charging_Adjusted_Penalty>  (92) 
0

>  <i_epik_Tot_Q>  (92) 
0

>  <i_epik_Tot_abs_Q>  (92) 
0

>  <s_epik_Chemistry_Notes>  (92) 
This compound contains an acetal/aminal-like group ( X-CH(R)-Y where X, Y are N, S, or O) that may be acid/base labile, releasing an aldehyde.

>  <s_lp_Force_Field>  (92) 
OPLS3e

>  <r_lp_Energy>  (92) 
120.948

>  <b_lp_Chiralities_Consistent>  (92) 
1

>  <s_lp_Variant>  (92) 
70:0-1

>  <s_i_glide_gridfile>  (92) 
pfpi4k_grid

>  <i_i_glide_lignum>  (92) 
23

>  <i_i_glide_rotatable_bonds>  (92) 
7

>  <r_i_docking_score>  (92) 
-2.29251

>  <r_i_glide_ligand_efficiency>  (92) 
-0.0790519

>  <r_i_glide_ligand_efficiency_sa>  (92) 
-0.242873

>  <r_i_glide_ligand_efficiency_ln>  (92) 
-0.524926

>  <r_i_glide_gscore>  (92) 
-2.29251

>  <r_i_glide_lipo>  (92) 
0

>  <r_i_glide_hbond>  (92) 
-0.16

>  <r_i_glide_metal>  (92) 
-0

>  <r_i_glide_rewards>  (92) 
-0.60407

>  <r_i_glide_evdw>  (92) 
-16.531

>  <r_i_glide_ecoul>  (92) 
-5.10637

>  <r_i_glide_erotb>  (92) 
0.116449

>  <r_i_glide_esite>  (92) 
-0.0523794

>  <r_i_glide_emodel>  (92) 
-25.1757

>  <r_i_glide_energy>  (92) 
-21.6374

>  <r_i_glide_einternal>  (92) 
1.01594

>  <r_i_glide_intrahb_reward>  (92) 
-0

>  <i_i_glide_confnum>  (92) 
1

>  <i_i_glide_posenum>  (92) 
15

>  <r_i_glide_eff_state_penalty>  (92) 
0

>  <ligand_id>  (92) 
70

>  <original_smiles>  (92) 
COC1C2(OC)CC(c3ccoc3)C3(O)C(O2)C1(O)C(OC)C1(O)CC32NC1O2

>  <smiles>  (92) 
[H]OC12C3([H])OC(N3[H])(C1([H])[H])C1(O[H])C3([H])OC(OC([H])([H])[H])(C([H])([H])C1([H])c1c([H])oc([H])c1[H])C([H])(OC([H])([H])[H])C3(O[H])C2([H])OC([H])([H])[H]

$$$$
71:0:0
     RDKit          3D

 63 71  0  0  1  0  0  0  0  0999 V2000
   -0.6869   -6.0131    5.8527 C   0  0  0  0  0  0  0  0  0  0  0  0
    0.2329   -6.8706    4.9866 C   0  0  2  0  0  0  0  0  0  0  0  0
    1.7067   -6.6562    5.3635 C   0  0  0  0  0  0  0  0  0  0  0  0
    2.6125   -6.9166    4.1467 C   0  0  2  0  0  0  0  0  0  0  0  0
    3.8577   -6.1970    4.2111 O   0  0  0  0  0  0  0  0  0  0  0  0
    3.4735   -5.3616    3.0734 C   0  0  1  0  0  0  0  0  0  0  0  0
    3.0631   -4.0517    3.5549 O   0  0  0  0  0  0  0  0  0  0  0  0
    3.8945   -2.9093    3.4700 C   0  0  1  0  0  0  0  0  0  0  0  0
    3.5837   -1.9899    4.4937 O   0  0  0  0  0  0  0  0  0  0  0  0
    5.3604   -3.3879    3.6869 C   0  0  0  0  0  0  0  0  0  0  0  0
    5.8081   -4.6205    2.8353 C   0  0  0  0  0  0  0  0  0  0  0  0
    4.6966   -5.3893    2.0948 C   0  0  1  0  0  0  0  0  0  0  0  0
    5.2742   -6.7908    1.7894 C   0  0  0  0  0  0  0  0  0  0  0  0
    4.2199   -4.9453    0.7862 O   0  0  0  0  0  0  0  0  0  0  0  0
    5.3262   -4.5546   -0.2283 O   0  0  0  0  0  0  0  0  0  0  0  0
    4.9105   -3.3908   -1.0340 C   0  0  1  0  0  0  0  0  0  0  0  0
    6.1658   -2.7486   -1.6098 C   0  0  0  0  0  0  0  0  0  0  0  0
    4.1981   -3.7375   -2.1927 O   0  0  0  0  0  0  0  0  0  0  0  0
    4.0710   -2.4122   -0.1761 C   0  0  2  0  0  0  0  0  0  0  0  0
    2.7714   -2.9485    0.0168 O   0  0  0  0  0  0  0  0  0  0  0  0
    2.5539   -2.9847    1.4800 O   0  0  0  0  0  0  0  0  0  0  0  0
    3.6336   -2.2727    2.0728 C   0  0  1  0  0  0  0  0  0  0  0  0
    3.2943   -0.8134    1.7139 C   0  0  1  0  0  0  0  0  0  0  0  0
    3.8500    0.1866    2.5669 O   0  0  0  0  0  0  0  0  0  0  0  0
    3.9975   -0.8990    0.3079 C   0  0  1  0  0  0  0  0  0  0  0  0
    5.2990   -1.0454    0.8081 O   0  0  0  0  0  0  0  0  0  0  0  0
    4.7722   -2.3370    1.1303 C   0  0  2  0  0  0  0  0  0  0  0  0
    2.2257   -6.2342    2.8218 C   0  0  1  0  0  0  0  0  0  0  0  0
    2.0284   -7.1061    1.5511 C   0  0  0  0  0  0  0  0  0  0  0  0
    0.6443   -7.2766    1.2570 O   0  0  0  0  0  0  0  0  0  0  0  0
   -0.0943   -7.6251    2.4248 C   0  0  2  0  0  0  0  0  0  0  0  0
   -0.3605   -9.0872    2.6690 C   0  0  0  0  0  0  0  0  0  0  0  0
   -1.1326   -6.7107    2.7553 O   0  0  0  0  0  0  0  0  0  0  0  0
    0.0836   -6.5534    3.4963 C   0  0  1  0  0  0  0  0  0  0  0  0
    0.9905   -5.5573    3.0439 O   0  0  0  0  0  0  0  0  0  0  0  0
   -0.5080   -4.9371    5.7579 H   0  0  0  0  0  0  0  0  0  0  0  0
   -0.5594   -6.2821    6.8963 H   0  0  0  0  0  0  0  0  0  0  0  0
   -1.7275   -6.2078    5.6041 H   0  0  0  0  0  0  0  0  0  0  0  0
   -0.0416   -7.9202    5.1376 H   0  0  0  0  0  0  0  0  0  0  0  0
    1.8079   -5.6168    5.6764 H   0  0  0  0  0  0  0  0  0  0  0  0
    1.9733   -7.2514    6.2276 H   0  0  0  0  0  0  0  0  0  0  0  0
    2.7501   -7.9808    3.9829 H   0  0  0  0  0  0  0  0  0  0  0  0
    4.0674   -1.1903    4.3261 H   0  0  0  0  0  0  0  0  0  0  0  0
    6.0012   -2.5389    3.4773 H   0  0  0  0  0  0  0  0  0  0  0  0
    5.4753   -3.6427    4.7382 H   0  0  0  0  0  0  0  0  0  0  0  0
    6.6355   -4.4085    2.1647 H   0  0  0  0  0  0  0  0  0  0  0  0
    6.2600   -5.2970    3.5532 H   0  0  0  0  0  0  0  0  0  0  0  0
    5.5650   -7.3422    2.6870 H   0  0  0  0  0  0  0  0  0  0  0  0
    6.1768   -6.6905    1.1863 H   0  0  0  0  0  0  0  0  0  0  0  0
    4.5995   -7.4236    1.2172 H   0  0  0  0  0  0  0  0  0  0  0  0
    6.6948   -3.4510   -2.2469 H   0  0  0  0  0  0  0  0  0  0  0  0
    6.8426   -2.4310   -0.8185 H   0  0  0  0  0  0  0  0  0  0  0  0
    5.8980   -1.8798   -2.2173 H   0  0  0  0  0  0  0  0  0  0  0  0
    3.5885   -4.4382   -1.9804 H   0  0  0  0  0  0  0  0  0  0  0  0
    2.2158   -0.6446    1.6362 H   0  0  0  0  0  0  0  0  0  0  0  0
    3.7925    1.0229    2.1331 H   0  0  0  0  0  0  0  0  0  0  0  0
    3.9059   -0.1147   -0.4260 H   0  0  0  0  0  0  0  0  0  0  0  0
    5.6320   -2.9473    1.2689 H   0  0  0  0  0  0  0  0  0  0  0  0
    2.5192   -6.6746    0.6735 H   0  0  0  0  0  0  0  0  0  0  0  0
    2.4077   -8.1162    1.7088 H   0  0  0  0  0  0  0  0  0  0  0  0
   -0.6749   -9.5537    1.7272 H   0  0  0  0  0  0  0  0  0  0  0  0
   -1.1619   -9.2249    3.3803 H   0  0  0  0  0  0  0  0  0  0  0  0
    0.5189   -9.6025    3.0301 H   0  0  0  0  0  0  0  0  0  0  0  0
  1  2  1  0
  1 36  1  0
  1 37  1  0
  1 38  1  0
  2 34  1  0
  2  3  1  0
  2 39  1  6
  3  4  1  0
  3 40  1  0
  3 41  1  0
  4 28  1  0
  4  5  1  0
  4 42  1  6
  6  5  1  1
  6 12  1  0
  6  7  1  0
  6 28  1  0
  7  8  1  0
  8 22  1  0
  8  9  1  1
  8 10  1  0
  9 43  1  0
 10 11  1  0
 10 44  1  0
 10 45  1  0
 11 12  1  0
 11 46  1  0
 11 47  1  0
 12 13  1  6
 12 14  1  0
 13 48  1  0
 13 49  1  0
 13 50  1  0
 14 15  1  0
 15 16  1  0
 16 17  1  0
 16 18  1  6
 16 19  1  0
 17 51  1  0
 17 52  1  0
 17 53  1  0
 18 54  1  0
 19 25  1  0
 19 27  1  0
 19 20  1  1
 20 21  1  0
 22 21  1  6
 22 27  1  0
 22 23  1  0
 23 24  1  0
 23 25  1  0
 23 55  1  6
 24 56  1  0
 25 26  1  0
 25 57  1  6
 26 27  1  0
 27 58  1  1
 28 35  1  0
 28 29  1  6
 29 30  1  0
 29 59  1  0
 29 60  1  0
 30 31  1  0
 31 34  1  0
 31 32  1  1
 31 33  1  0
 32 61  1  0
 32 62  1  0
 32 63  1  0
 34 33  1  1
 34 35  1  0
M  END
>  <i_m_ct_stereo_status>  (93) 
1

>  <s_m_source_file>  (93) 
/var/tmp/pbs.5076253.sched01/tmp0k8q0ypy/944rjgrua_.sdf

>  <i_m_source_file_index>  (93) 
24

>  <i_lp_mmshare_version>  (93) 
48012

>  <i_f3d_flags>  (93) 
0

>  <s_epik_input>  (93) 
W0NIMl0xT1tDQEBdKE8yKShbQ0gzXSlbQ0BdMihPMylbQ0BIXShbQ0gzXSlbQ0gyXVtDQEhdKE80KVtDQEBdMTNbQ0BdNDVbQ0BdNihbQ0gzXSlbQ0gyXVtDSDJdW0NAQF0oTzUpKFtPSF0pW0NAQF03OFtDQEhdOVtDQF0oT083KShbQ0BdKE9PNikoW0NIM10pW09IXSlbQ0BIXShPOSlbQ0BASF04W09IXQ==

>  <s_epik_cmdline>  (93) 
J2VwaWtfcHl0aG9uJywgJy1waHQnLCAnMi4wJywgJy1waCcsICc3LjAnLCAnLXRuJywgJzgnLCAnLW1hJywgJzIwMCcsICctaW1hZScsICc8aW5maWxlLm1hZT4nLCAnLW9tYWUnLCAnPG91dGZpbGUubWFlPic=

>  <r_lp_tautomer_probability>  (93) 
1

>  <r_epik_Ionization_Penalty>  (93) 
0.00226867

>  <r_epik_Ionization_Penalty_Charging>  (93) 
0

>  <r_epik_Ionization_Penalty_Neutral>  (93) 
0.00226867

>  <r_epik_State_Penalty>  (93) 
-0

>  <r_epik_Charging_Adjusted_Penalty>  (93) 
0

>  <i_epik_Tot_Q>  (93) 
0

>  <i_epik_Tot_abs_Q>  (93) 
0

>  <s_lp_Force_Field>  (93) 
OPLS3e

>  <r_lp_Energy>  (93) 
146.59

>  <b_lp_Chiralities_Consistent>  (93) 
1

>  <s_lp_Variant>  (93) 
71:0-1

>  <s_i_glide_gridfile>  (93) 
pfpi4k_grid

>  <i_i_glide_lignum>  (93) 
24

>  <i_i_glide_rotatable_bonds>  (93) 
3

>  <r_i_docking_score>  (93) 
-3.26922

>  <r_i_glide_ligand_efficiency>  (93) 
-0.0934064

>  <r_i_glide_ligand_efficiency_sa>  (93) 
-0.305538

>  <r_i_glide_ligand_efficiency_ln>  (93) 
-0.717667

>  <r_i_glide_gscore>  (93) 
-3.26922

>  <r_i_glide_lipo>  (93) 
-0.135477

>  <r_i_glide_hbond>  (93) 
-0.16

>  <r_i_glide_metal>  (93) 
-0

>  <r_i_glide_rewards>  (93) 
-0.570394

>  <r_i_glide_evdw>  (93) 
-25.0836

>  <r_i_glide_ecoul>  (93) 
-6.86039

>  <r_i_glide_erotb>  (93) 
0

>  <r_i_glide_esite>  (93) 
-0.120116

>  <r_i_glide_emodel>  (93) 
-42.4809

>  <r_i_glide_energy>  (93) 
-31.9439

>  <r_i_glide_einternal>  (93) 
2.70423

>  <r_i_glide_intrahb_reward>  (93) 
-0.5

>  <i_i_glide_confnum>  (93) 
1

>  <i_i_glide_posenum>  (93) 
28

>  <r_i_glide_eff_state_penalty>  (93) 
0

>  <ligand_id>  (93) 
71

>  <original_smiles>  (93) 
CC1CC2OC3(OC4(O)CCC3(C)OOC(C)(O)C35OOC46C(O)C3OC56)C23COC2(C)OC12O3

>  <smiles>  (93) 
[H]OC1([H])C2([H])OC3([H])C24OOC13C1(O[H])OC2(OC3([H])C([H])([H])C([H])(C([H])([H])[H])C56OC5(C([H])([H])[H])OC([H])([H])C32O6)C(C([H])([H])[H])(OOC4(O[H])C([H])([H])[H])C([H])([H])C1([H])[H]

$$$$
71:0:1
     RDKit          3D

 63 71  0  0  1  0  0  0  0  0999 V2000
   -0.0977   -6.4537    6.0813 C   0  0  0  0  0  0  0  0  0  0  0  0
    0.5816   -7.2266    4.9621 C   0  0  2  0  0  0  0  0  0  0  0  0
    2.1222   -7.1545    5.0638 C   0  0  0  0  0  0  0  0  0  0  0  0
    2.7578   -7.2999    3.6805 C   0  0  2  0  0  0  0  0  0  0  0  0
    4.0523   -6.6573    3.5925 O   0  0  0  0  0  0  0  0  0  0  0  0
    3.5278   -5.6735    2.6507 C   0  0  1  0  0  0  0  0  0  0  0  0
    3.2868   -4.4223    3.3349 O   0  0  0  0  0  0  0  0  0  0  0  0
    4.1748   -3.3366    3.2448 C   0  0  1  0  0  0  0  0  0  0  0  0
    4.1223   -2.5741    4.4398 O   0  0  0  0  0  0  0  0  0  0  0  0
    5.6065   -3.8912    3.1024 C   0  0  0  0  0  0  0  0  0  0  0  0
    5.8274   -5.0198    2.0485 C   0  0  0  0  0  0  0  0  0  0  0  0
    4.5382   -5.6184    1.4537 C   0  0  1  0  0  0  0  0  0  0  0  0
    4.9310   -6.9901    0.8865 C   0  0  0  0  0  0  0  0  0  0  0  0
    3.8598   -4.9834    0.3218 O   0  0  0  0  0  0  0  0  0  0  0  0
    4.7939   -4.5081   -0.8240 O   0  0  0  0  0  0  0  0  0  0  0  0
    4.3192   -3.2315   -1.3960 C   0  0  1  0  0  0  0  0  0  0  0  0
    5.4997   -2.5803   -2.1166 C   0  0  0  0  0  0  0  0  0  0  0  0
    3.3417   -3.4002   -2.3976 O   0  0  0  0  0  0  0  0  0  0  0  0
    3.7587   -2.3119   -0.2689 C   0  0  2  0  0  0  0  0  0  0  0  0
    2.4963   -2.8368    0.1150 O   0  0  0  0  0  0  0  0  0  0  0  0
    2.5133   -2.9999    1.5794 O   0  0  0  0  0  0  0  0  0  0  0  0
    3.7452   -2.4652    2.0275 C   0  0  1  0  0  0  0  0  0  0  0  0
    3.4862   -0.9449    1.9227 C   0  0  1  0  0  0  0  0  0  0  0  0
    4.2349   -0.0699    2.7688 O   0  0  0  0  0  0  0  0  0  0  0  0
    3.9269   -0.8680    0.4063 C   0  0  1  0  0  0  0  0  0  0  0  0
    5.2700   -1.1834    0.6452 O   0  0  0  0  0  0  0  0  0  0  0  0
    4.6911   -2.4724    0.8740 C   0  0  2  0  0  0  0  0  0  0  0  0
    2.1815   -6.4162    2.5579 C   0  0  1  0  0  0  0  0  0  0  0  0
    1.6744   -7.0970    1.2657 C   0  0  0  0  0  0  0  0  0  0  0  0
    0.2510   -7.1190    1.2209 O   0  0  0  0  0  0  0  0  0  0  0  0
   -0.2784   -7.5753    2.4564 C   0  0  2  0  0  0  0  0  0  0  0  0
   -0.6180   -9.0631    2.5444 C   0  0  0  0  0  0  0  0  0  0  0  0
   -1.1645   -6.6658    3.0989 O   0  0  0  0  0  0  0  0  0  0  0  0
    0.1753   -6.6903    3.5872 C   0  0  1  0  0  0  0  0  0  0  0  0
    1.0580   -5.7024    3.0928 O   0  0  0  0  0  0  0  0  0  0  0  0
    0.2115   -5.4115    6.1332 H   0  0  0  0  0  0  0  0  0  0  0  0
    0.1108   -6.9239    7.0402 H   0  0  0  0  0  0  0  0  0  0  0  0
   -1.1697   -6.4357    5.8975 H   0  0  0  0  0  0  0  0  0  0  0  0
    0.2646   -8.2647    5.0098 H   0  0  0  0  0  0  0  0  0  0  0  0
    2.3581   -6.1776    5.4732 H   0  0  0  0  0  0  0  0  0  0  0  0
    2.4934   -7.8801    5.7786 H   0  0  0  0  0  0  0  0  0  0  0  0
    2.7848   -8.3377    3.3562 H   0  0  0  0  0  0  0  0  0  0  0  0
    3.3147   -2.0948    4.4541 H   0  0  0  0  0  0  0  0  0  0  0  0
    6.2105   -3.0174    2.8369 H   0  0  0  0  0  0  0  0  0  0  0  0
    5.9543   -4.2477    4.0657 H   0  0  0  0  0  0  0  0  0  0  0  0
    6.5511   -4.7681    1.2709 H   0  0  0  0  0  0  0  0  0  0  0  0
    6.3622   -5.8104    2.5823 H   0  0  0  0  0  0  0  0  0  0  0  0
    5.3433   -7.6741    1.6321 H   0  0  0  0  0  0  0  0  0  0  0  0
    5.7088   -6.7973    0.1487 H   0  0  0  0  0  0  0  0  0  0  0  0
    4.1228   -7.5034    0.3687 H   0  0  0  0  0  0  0  0  0  0  0  0
    5.8448   -3.2264   -2.9178 H   0  0  0  0  0  0  0  0  0  0  0  0
    6.3365   -2.4146   -1.4398 H   0  0  0  0  0  0  0  0  0  0  0  0
    5.2113   -1.6195   -2.5491 H   0  0  0  0  0  0  0  0  0  0  0  0
    3.0521   -4.3221   -2.3651 H   0  0  0  0  0  0  0  0  0  0  0  0
    2.4247   -0.7187    2.0740 H   0  0  0  0  0  0  0  0  0  0  0  0
    4.0604    0.8218    2.5086 H   0  0  0  0  0  0  0  0  0  0  0  0
    3.8335    0.0497   -0.1702 H   0  0  0  0  0  0  0  0  0  0  0  0
    5.5059   -3.1468    0.7553 H   0  0  0  0  0  0  0  0  0  0  0  0
    2.0312   -6.5795    0.3754 H   0  0  0  0  0  0  0  0  0  0  0  0
    2.0007   -8.1405    1.2196 H   0  0  0  0  0  0  0  0  0  0  0  0
   -1.1523   -9.3674    1.6576 H   0  0  0  0  0  0  0  0  0  0  0  0
   -1.2634   -9.2522    3.3892 H   0  0  0  0  0  0  0  0  0  0  0  0
    0.2830   -9.6625    2.6418 H   0  0  0  0  0  0  0  0  0  0  0  0
  1  2  1  0
  1 36  1  0
  1 37  1  0
  1 38  1  0
  2 34  1  0
  2  3  1  0
  2 39  1  6
  3  4  1  0
  3 40  1  0
  3 41  1  0
  4 28  1  0
  4  5  1  0
  4 42  1  6
  6  5  1  1
  6 12  1  0
  6  7  1  0
  6 28  1  0
  7  8  1  0
  8 22  1  0
  8  9  1  1
  8 10  1  0
  9 43  1  0
 10 11  1  0
 10 44  1  0
 10 45  1  0
 11 12  1  0
 11 46  1  0
 11 47  1  0
 12 13  1  6
 12 14  1  0
 13 48  1  0
 13 49  1  0
 13 50  1  0
 14 15  1  0
 15 16  1  0
 16 17  1  0
 16 18  1  6
 16 19  1  0
 17 51  1  0
 17 52  1  0
 17 53  1  0
 18 54  1  0
 19 25  1  0
 19 27  1  0
 19 20  1  1
 20 21  1  0
 22 21  1  6
 22 27  1  0
 22 23  1  0
 23 24  1  0
 23 25  1  0
 23 55  1  6
 24 56  1  0
 25 26  1  0
 25 57  1  6
 26 27  1  0
 27 58  1  6
 28 35  1  0
 28 29  1  6
 29 30  1  0
 29 59  1  0
 29 60  1  0
 30 31  1  0
 31 34  1  0
 31 32  1  1
 31 33  1  0
 32 61  1  0
 32 62  1  0
 32 63  1  0
 34 33  1  1
 34 35  1  0
M  END
>  <i_m_ct_stereo_status>  (94) 
1

>  <s_m_source_file>  (94) 
/var/tmp/pbs.5076253.sched01/tmp0k8q0ypy/944rjgrua_.sdf

>  <i_m_source_file_index>  (94) 
24

>  <i_lp_mmshare_version>  (94) 
48012

>  <i_f3d_flags>  (94) 
0

>  <s_epik_input>  (94) 
W0NIMl0xT1tDQEBdKE8yKShbQ0gzXSlbQ0BdMihPMylbQ0BIXShbQ0gzXSlbQ0gyXVtDQEhdKE80KVtDQEBdMTNbQ0BdNDVbQ0BdNihbQ0gzXSlbQ0gyXVtDSDJdW0NAQF0oTzUpKFtPSF0pW0NAQF03OFtDQEhdOVtDQF0oT083KShbQ0BdKE9PNikoW0NIM10pW09IXSlbQ0BIXShPOSlbQ0BASF04W09IXQ==

>  <s_epik_cmdline>  (94) 
J2VwaWtfcHl0aG9uJywgJy1waHQnLCAnMi4wJywgJy1waCcsICc3LjAnLCAnLXRuJywgJzgnLCAnLW1hJywgJzIwMCcsICctaW1hZScsICc8aW5maWxlLm1hZT4nLCAnLW9tYWUnLCAnPG91dGZpbGUubWFlPic=

>  <r_lp_tautomer_probability>  (94) 
1

>  <r_epik_Ionization_Penalty>  (94) 
0.00226867

>  <r_epik_Ionization_Penalty_Charging>  (94) 
0

>  <r_epik_Ionization_Penalty_Neutral>  (94) 
0.00226867

>  <r_epik_State_Penalty>  (94) 
-0

>  <r_epik_Charging_Adjusted_Penalty>  (94) 
0

>  <i_epik_Tot_Q>  (94) 
0

>  <i_epik_Tot_abs_Q>  (94) 
0

>  <s_lp_Force_Field>  (94) 
OPLS3e

>  <r_lp_Energy>  (94) 
146.59

>  <b_lp_Chiralities_Consistent>  (94) 
1

>  <s_lp_Variant>  (94) 
71:0-1

>  <s_i_glide_gridfile>  (94) 
pfpi4k_grid

>  <i_i_glide_lignum>  (94) 
24

>  <i_i_glide_rotatable_bonds>  (94) 
3

>  <r_i_docking_score>  (94) 
-2.94459

>  <r_i_glide_ligand_efficiency>  (94) 
-0.0841312

>  <r_i_glide_ligand_efficiency_sa>  (94) 
-0.275199

>  <r_i_glide_ligand_efficiency_ln>  (94) 
-0.646403

>  <r_i_glide_gscore>  (94) 
-2.94459

>  <r_i_glide_lipo>  (94) 
-0.253763

>  <r_i_glide_hbond>  (94) 
-0.158821

>  <r_i_glide_metal>  (94) 
-0

>  <r_i_glide_rewards>  (94) 
-0.00449577

>  <r_i_glide_evdw>  (94) 
-26.123

>  <r_i_glide_ecoul>  (94) 
-7.31951

>  <r_i_glide_erotb>  (94) 
0

>  <r_i_glide_esite>  (94) 
-0.123436

>  <r_i_glide_emodel>  (94) 
-37.751

>  <r_i_glide_energy>  (94) 
-33.4425

>  <r_i_glide_einternal>  (94) 
2.28399

>  <r_i_glide_intrahb_reward>  (94) 
-0

>  <i_i_glide_confnum>  (94) 
2

>  <i_i_glide_posenum>  (94) 
36

>  <r_i_glide_eff_state_penalty>  (94) 
0

>  <ligand_id>  (94) 
71

>  <original_smiles>  (94) 
CC1CC2OC3(OC4(O)CCC3(C)OOC(C)(O)C35OOC46C(O)C3OC56)C23COC2(C)OC12O3

>  <smiles>  (94) 
[H]OC1([H])C2([H])OC3([H])C24OOC13C1(O[H])OC2(OC3([H])C([H])([H])C([H])(C([H])([H])[H])C56OC5(C([H])([H])[H])OC([H])([H])C32O6)C(C([H])([H])[H])(OOC4(O[H])C([H])([H])[H])C([H])([H])C1([H])[H]

$$$$
71:0:2
     RDKit          3D

 63 71  0  0  1  0  0  0  0  0999 V2000
   -1.1386    1.8567    2.4889 C   0  0  0  0  0  0  0  0  0  0  0  0
   -0.1518    1.4988    3.6040 C   0  0  2  0  0  0  0  0  0  0  0  0
    1.3124    1.8349    3.2238 C   0  0  0  0  0  0  0  0  0  0  0  0
    2.2918    0.9652    4.0310 C   0  0  2  0  0  0  0  0  0  0  0  0
    3.5665    0.7669    3.3784 O   0  0  0  0  0  0  0  0  0  0  0  0
    3.2913   -0.6544    3.1881 C   0  0  1  0  0  0  0  0  0  0  0  0
    2.8962   -0.9040    1.8060 O   0  0  0  0  0  0  0  0  0  0  0  0
    3.7572   -1.4778    0.8358 C   0  0  1  0  0  0  0  0  0  0  0  0
    3.4187   -1.0594   -0.4579 O   0  0  0  0  0  0  0  0  0  0  0  0
    5.2012   -0.9441    1.1230 C   0  0  0  0  0  0  0  0  0  0  0  0
    5.6594   -1.0637    2.6064 C   0  0  0  0  0  0  0  0  0  0  0  0
    4.5745   -1.4216    3.6544 C   0  0  1  0  0  0  0  0  0  0  0  0
    5.1097   -0.9833    5.0441 C   0  0  0  0  0  0  0  0  0  0  0  0
    4.1592   -2.8088    3.8706 O   0  0  0  0  0  0  0  0  0  0  0  0
    5.3135   -3.8340    4.0168 O   0  0  0  0  0  0  0  0  0  0  0  0
    4.9674   -5.1270    3.3931 C   0  0  1  0  0  0  0  0  0  0  0  0
    6.2860   -5.8497    3.1107 C   0  0  0  0  0  0  0  0  0  0  0  0
    4.2356   -5.9806    4.2444 O   0  0  0  0  0  0  0  0  0  0  0  0
    4.1163   -4.9065    2.1221 C   0  0  2  0  0  0  0  0  0  0  0  0
    2.7887   -4.5820    2.4696 O   0  0  0  0  0  0  0  0  0  0  0  0
    2.5173   -3.2711    1.8372 O   0  0  0  0  0  0  0  0  0  0  0  0
    3.5850   -3.0255    0.9274 C   0  0  1  0  0  0  0  0  0  0  0  0
    3.3032   -4.0546   -0.1901 C   0  0  1  0  0  0  0  0  0  0  0  0
    3.8392   -3.8134   -1.4878 O   0  0  0  0  0  0  0  0  0  0  0  0
    4.0552   -5.2204    0.5618 C   0  0  1  0  0  0  0  0  0  0  0  0
    5.3256   -4.6414    0.4570 O   0  0  0  0  0  0  0  0  0  0  0  0
    4.7577   -3.7600    1.4309 C   0  0  2  0  0  0  0  0  0  0  0  0
    2.0223   -0.5489    4.0765 C   0  0  1  0  0  0  0  0  0  0  0  0
    1.8656   -1.2471    5.4514 C   0  0  0  0  0  0  0  0  0  0  0  0
    0.4966   -1.5319    5.7257 O   0  0  0  0  0  0  0  0  0  0  0  0
   -0.3344   -0.4256    5.4424 C   0  0  2  0  0  0  0  0  0  0  0  0
   -0.6447    0.4728    6.6260 C   0  0  0  0  0  0  0  0  0  0  0  0
   -1.3579   -0.6933    4.4757 O   0  0  0  0  0  0  0  0  0  0  0  0
   -0.2028    0.0143    3.9836 C   0  0  1  0  0  0  0  0  0  0  0  0
    0.8000   -0.7812    3.3716 O   0  0  0  0  0  0  0  0  0  0  0  0
   -0.9358    1.3088    1.5717 H   0  0  0  0  0  0  0  0  0  0  0  0
   -1.0678    2.9156    2.2616 H   0  0  0  0  0  0  0  0  0  0  0  0
   -2.1679    1.6629    2.7825 H   0  0  0  0  0  0  0  0  0  0  0  0
   -0.4333    2.0800    4.4830 H   0  0  0  0  0  0  0  0  0  0  0  0
    1.4333    1.6251    2.1653 H   0  0  0  0  0  0  0  0  0  0  0  0
    1.5019    2.8991    3.3349 H   0  0  0  0  0  0  0  0  0  0  0  0
    2.4291    1.3572    5.0378 H   0  0  0  0  0  0  0  0  0  0  0  0
    2.4501   -1.0587   -0.5322 H   0  0  0  0  0  0  0  0  0  0  0  0
    5.9035   -1.4532    0.4662 H   0  0  0  0  0  0  0  0  0  0  0  0
    5.2220    0.1068    0.8437 H   0  0  0  0  0  0  0  0  0  0  0  0
    6.5375   -1.6953    2.7012 H   0  0  0  0  0  0  0  0  0  0  0  0
    6.0544   -0.0789    2.8627 H   0  0  0  0  0  0  0  0  0  0  0  0
    5.3413    0.0843    5.0954 H   0  0  0  0  0  0  0  0  0  0  0  0
    6.0334   -1.5093    5.2786 H   0  0  0  0  0  0  0  0  0  0  0  0
    4.4438   -1.2217    5.8692 H   0  0  0  0  0  0  0  0  0  0  0  0
    6.8409   -6.0229    4.0318 H   0  0  0  0  0  0  0  0  0  0  0  0
    6.9204   -5.2608    2.4509 H   0  0  0  0  0  0  0  0  0  0  0  0
    6.1013   -6.8109    2.6326 H   0  0  0  0  0  0  0  0  0  0  0  0
    3.4354   -5.5301    4.4649 H   0  0  0  0  0  0  0  0  0  0  0  0
    2.2366   -4.2523   -0.3074 H   0  0  0  0  0  0  0  0  0  0  0  0
    3.6024   -4.5414   -2.0468 H   0  0  0  0  0  0  0  0  0  0  0  0
    3.9911   -6.2523    0.2157 H   0  0  0  0  0  0  0  0  0  0  0  0
    5.5793   -3.2779    1.9023 H   0  0  0  0  0  0  0  0  0  0  0  0
    2.4189   -2.1868    5.5055 H   0  0  0  0  0  0  0  0  0  0  0  0
    2.2231   -0.6007    6.2573 H   0  0  0  0  0  0  0  0  0  0  0  0
   -0.8410   -0.1386    7.5021 H   0  0  0  0  0  0  0  0  0  0  0  0
   -1.4986    1.1215    6.4420 H   0  0  0  0  0  0  0  0  0  0  0  0
    0.2244    1.0900    6.8551 H   0  0  0  0  0  0  0  0  0  0  0  0
  1  2  1  0
  1 36  1  0
  1 37  1  0
  1 38  1  0
  2 34  1  0
  2  3  1  0
  2 39  1  1
  3  4  1  0
  3 40  1  0
  3 41  1  0
  4 28  1  0
  4  5  1  0
  4 42  1  1
  6  5  1  6
  6 12  1  0
  6  7  1  0
  6 28  1  0
  7  8  1  0
  8 22  1  0
  8  9  1  6
  8 10  1  0
  9 43  1  0
 10 11  1  0
 10 44  1  0
 10 45  1  0
 11 12  1  0
 11 46  1  0
 11 47  1  0
 12 13  1  1
 12 14  1  0
 13 48  1  0
 13 49  1  0
 13 50  1  0
 14 15  1  0
 15 16  1  0
 16 17  1  0
 16 18  1  1
 16 19  1  0
 17 51  1  0
 17 52  1  0
 17 53  1  0
 18 54  1  0
 19 25  1  0
 19 27  1  0
 19 20  1  1
 20 21  1  0
 22 21  1  1
 22 27  1  0
 22 23  1  0
 23 24  1  0
 23 25  1  0
 23 55  1  6
 24 56  1  0
 25 26  1  0
 25 57  1  1
 26 27  1  0
 27 58  1  1
 28 35  1  0
 28 29  1  1
 29 30  1  0
 29 59  1  0
 29 60  1  0
 30 31  1  0
 31 34  1  0
 31 32  1  1
 31 33  1  0
 32 61  1  0
 32 62  1  0
 32 63  1  0
 34 33  1  6
 34 35  1  0
M  END
>  <i_m_ct_stereo_status>  (95) 
1

>  <s_m_source_file>  (95) 
/var/tmp/pbs.5076253.sched01/tmp0k8q0ypy/944rjgrua_.sdf

>  <i_m_source_file_index>  (95) 
24

>  <i_lp_mmshare_version>  (95) 
48012

>  <i_f3d_flags>  (95) 
0

>  <s_epik_input>  (95) 
W0NIMl0xT1tDQEBdKE8yKShbQ0gzXSlbQ0BdMihPMylbQ0BIXShbQ0gzXSlbQ0gyXVtDQEhdKE80KVtDQEBdMTNbQ0BdNDVbQ0BdNihbQ0gzXSlbQ0gyXVtDSDJdW0NAQF0oTzUpKFtPSF0pW0NAQF03OFtDQEhdOVtDQF0oT083KShbQ0BdKE9PNikoW0NIM10pW09IXSlbQ0BIXShPOSlbQ0BASF04W09IXQ==

>  <s_epik_cmdline>  (95) 
J2VwaWtfcHl0aG9uJywgJy1waHQnLCAnMi4wJywgJy1waCcsICc3LjAnLCAnLXRuJywgJzgnLCAnLW1hJywgJzIwMCcsICctaW1hZScsICc8aW5maWxlLm1hZT4nLCAnLW9tYWUnLCAnPG91dGZpbGUubWFlPic=

>  <r_lp_tautomer_probability>  (95) 
1

>  <r_epik_Ionization_Penalty>  (95) 
0.00226867

>  <r_epik_Ionization_Penalty_Charging>  (95) 
0

>  <r_epik_Ionization_Penalty_Neutral>  (95) 
0.00226867

>  <r_epik_State_Penalty>  (95) 
-0

>  <r_epik_Charging_Adjusted_Penalty>  (95) 
0

>  <i_epik_Tot_Q>  (95) 
0

>  <i_epik_Tot_abs_Q>  (95) 
0

>  <s_lp_Force_Field>  (95) 
OPLS3e

>  <r_lp_Energy>  (95) 
146.59

>  <b_lp_Chiralities_Consistent>  (95) 
1

>  <s_lp_Variant>  (95) 
71:0-1

>  <s_i_glide_gridfile>  (95) 
pfpi4k_grid

>  <i_i_glide_lignum>  (95) 
24

>  <i_i_glide_rotatable_bonds>  (95) 
3

>  <r_i_docking_score>  (95) 
-2.67193

>  <r_i_glide_ligand_efficiency>  (95) 
-0.0763409

>  <r_i_glide_ligand_efficiency_sa>  (95) 
-0.249716

>  <r_i_glide_ligand_efficiency_ln>  (95) 
-0.586548

>  <r_i_glide_gscore>  (95) 
-2.67193

>  <r_i_glide_lipo>  (95) 
-0.378906

>  <r_i_glide_hbond>  (95) 
0

>  <r_i_glide_metal>  (95) 
-0

>  <r_i_glide_rewards>  (95) 
-0.0051233

>  <r_i_glide_evdw>  (95) 
-26.3626

>  <r_i_glide_ecoul>  (95) 
-5.96972

>  <r_i_glide_erotb>  (95) 
0

>  <r_i_glide_esite>  (95) 
-0.0743169

>  <r_i_glide_emodel>  (95) 
-37.5873

>  <r_i_glide_energy>  (95) 
-32.3323

>  <r_i_glide_einternal>  (95) 
0.878613

>  <r_i_glide_intrahb_reward>  (95) 
-0

>  <i_i_glide_confnum>  (95) 
1

>  <i_i_glide_posenum>  (95) 
7

>  <r_i_glide_eff_state_penalty>  (95) 
0

>  <ligand_id>  (95) 
71

>  <original_smiles>  (95) 
CC1CC2OC3(OC4(O)CCC3(C)OOC(C)(O)C35OOC46C(O)C3OC56)C23COC2(C)OC12O3

>  <smiles>  (95) 
[H]OC1([H])C2([H])OC3([H])C24OOC13C1(O[H])OC2(OC3([H])C([H])([H])C([H])(C([H])([H])[H])C56OC5(C([H])([H])[H])OC([H])([H])C32O6)C(C([H])([H])[H])(OOC4(O[H])C([H])([H])[H])C([H])([H])C1([H])[H]

$$$$
74:1:0
     RDKit          3D

100111  0  0  1  0  0  0  0  0999 V2000
   -4.8349    3.8039    1.7779 C   0  0  0  0  0  0  0  0  0  0  0  0
   -3.6375    3.9689    2.5153 O   0  0  0  0  0  0  0  0  0  0  0  0
   -2.9929    2.7873    2.9633 C   0  0  0  0  0  0  0  0  0  0  0  0
   -1.8340    3.0528    3.9630 C   0  0  1  0  0  0  0  0  0  0  0  0
   -1.9883    2.5489    5.2305 O   0  0  0  0  0  0  0  0  0  0  0  0
   -1.8046    1.1448    5.2858 C   0  0  2  0  0  0  0  0  0  0  0  0
   -1.9364    0.6515    6.7201 C   0  0  1  0  0  0  0  0  0  0  0  0
   -0.7397   -0.2510    6.4602 C   0  0  2  0  0  0  0  0  0  0  0  0
    0.2008   -0.0273    7.4867 O   0  0  0  0  0  0  0  0  0  0  0  0
   -0.1101    1.1266    8.2330 C   0  0  2  0  0  0  0  0  0  0  0  0
   -1.6012    1.4427    7.9833 C   0  0  1  0  0  0  0  0  0  0  0  0
   -2.0488    2.9126    8.0372 C   0  0  0  0  0  0  0  0  0  0  0  0
    0.9692    2.2196    8.1707 C   0  0  1  0  0  0  0  0  0  0  0  0
    0.5967    2.5447    9.5352 O   0  0  0  0  0  0  0  0  0  0  0  0
    0.4758    1.1140    9.6600 C   0  0  1  0  0  0  0  0  0  0  0  0
   -0.3140    0.7214   10.8974 C   0  0  0  0  0  0  0  0  0  0  0  0
   -0.5731   -0.6576   10.9028 O   0  0  0  0  0  0  0  0  0  0  0  0
    1.9924    0.8538    9.6883 C   0  0  1  0  0  0  0  0  0  0  0  0
    2.2537   -0.5201    9.5704 O   0  0  0  0  0  0  0  0  0  0  0  0
    2.4094    1.7009    8.4691 C   0  0  2  0  0  0  0  0  0  0  0  0
    3.4499    2.8138    8.8426 C   0  0  0  0  0  0  0  0  0  0  0  0
    3.1685    4.0904    8.3061 O   0  0  0  0  0  0  0  0  0  0  0  0
    3.0293    0.8621    7.4590 O   0  0  0  0  0  0  0  0  0  0  0  0
    3.0042    1.2025    6.0905 C   0  0  2  0  0  0  0  0  0  0  0  0
    2.9835    2.5875    5.9613 O   0  0  0  0  0  0  0  0  0  0  0  0
    1.8330    0.5628    5.5466 O   0  0  0  0  0  0  0  0  0  0  0  0
    0.8439    0.9721    4.5279 C   0  0  1  0  0  0  0  0  0  0  0  0
    0.7277    2.5205    4.3983 C   0  0  0  0  0  0  0  0  0  0  0  0
   -0.3747    3.1122    3.5307 C   0  0  2  0  0  0  0  0  0  0  0  0
   -1.0747    4.3541    4.0071 C   0  0  1  0  0  0  0  0  0  0  0  0
   -1.4839    5.1663    2.9385 O   0  0  0  0  0  0  0  0  0  0  0  0
   -0.5307    6.1158    2.5531 C   0  0  0  0  0  0  0  0  0  0  0  0
    1.1301    0.2218    3.1473 C   0  0  1  0  0  0  0  0  0  0  0  0
    0.1839    0.5958    2.1521 O   0  0  0  0  0  0  0  0  0  0  0  0
    0.6453    1.3505    1.0628 C   0  0  0  0  0  0  0  0  0  0  0  0
    2.5657    0.4477    2.7818 C   0  0  0  0  0  0  0  0  0  0  0  0
    3.5694    0.0120    3.5366 C   0  0  0  0  0  0  0  0  0  0  0  0
    4.1934    1.1243    4.0989 O   0  0  0  0  0  0  0  0  0  0  0  0
    4.4187    0.7662    5.4248 C   0  0  1  0  0  0  0  0  0  0  0  0
    5.4095    0.0218    6.4353 C   0  0  0  0  0  0  0  0  0  0  0  0
    5.2673   -1.5769    6.5007 C   0  0  2  0  0  0  0  0  0  0  0  0
    5.0081   -1.9952    5.0884 O   0  0  0  0  0  0  0  0  0  0  0  0
    3.9428   -1.4028    4.2304 C   0  0  1  0  0  0  0  0  0  0  0  0
    2.7444   -2.0179    5.0684 C   0  0  0  0  0  0  0  0  0  0  0  0
    2.7966   -2.1715    6.6002 C   0  0  2  0  0  0  0  0  0  0  0  0
    4.1115   -2.0202    7.3340 C   0  0  1  0  0  0  0  0  0  0  0  0
    3.4396   -3.3687    7.2839 C   0  0  0  0  0  0  0  0  0  0  0  0
    2.7751   -3.8803    8.5451 C   0  0  0  0  0  0  0  0  0  0  0  0
    4.0453   -4.5367    6.5378 C   0  0  0  0  0  0  0  0  0  0  0  0
    4.9087   -0.2747    4.4120 C   0  0  0  0  0  0  0  0  0  0  0  0
    6.0671   -0.2308    3.8672 O   0  0  0  0  0  0  0  0  0  0  0  0
   -0.4938    0.3814    5.0841 C   0  0  2  0  0  0  0  0  0  0  0  0
   -5.1762    4.7933    1.4735 H   0  0  0  0  0  0  0  0  0  0  0  0
   -5.6084    3.3625    2.3987 H   0  0  0  0  0  0  0  0  0  0  0  0
   -4.6697    3.2023    0.8888 H   0  0  0  0  0  0  0  0  0  0  0  0
   -3.7239    2.1419    3.4578 H   0  0  0  0  0  0  0  0  0  0  0  0
   -2.5992    2.2347    2.1185 H   0  0  0  0  0  0  0  0  0  0  0  0
   -2.4773    0.6287    4.6151 H   0  0  0  0  0  0  0  0  0  0  0  0
   -2.9019    0.1361    6.7789 H   0  0  0  0  0  0  0  0  0  0  0  0
   -1.0299   -1.2941    6.3908 H   0  0  0  0  0  0  0  0  0  0  0  0
   -2.1474    0.9399    8.7859 H   0  0  0  0  0  0  0  0  0  0  0  0
   -1.4783    3.5425    7.3630 H   0  0  0  0  0  0  0  0  0  0  0  0
   -1.9238    3.3276    9.0364 H   0  0  0  0  0  0  0  0  0  0  0  0
   -3.1064    3.0193    7.7738 H   0  0  0  0  0  0  0  0  0  0  0  0
    0.8239    3.0292    7.4843 H   0  0  0  0  0  0  0  0  0  0  0  0
    0.2321    0.9707   11.7999 H   0  0  0  0  0  0  0  0  0  0  0  0
   -1.2530    1.2852   10.9487 H   0  0  0  0  0  0  0  0  0  0  0  0
   -1.1552   -0.8026   11.6500 H   0  0  0  0  0  0  0  0  0  0  0  0
    2.4127    1.2370   10.6188 H   0  0  0  0  0  0  0  0  0  0  0  0
    3.1383   -0.6805    9.8941 H   0  0  0  0  0  0  0  0  0  0  0  0
    3.4873    2.9768    9.9155 H   0  0  0  0  0  0  0  0  0  0  0  0
    4.4565    2.5110    8.5403 H   0  0  0  0  0  0  0  0  0  0  0  0
    3.1776    4.0414    7.3515 H   0  0  0  0  0  0  0  0  0  0  0  0
    2.1227    2.8717    6.2427 H   0  0  0  0  0  0  0  0  0  0  0  0
    0.6353    2.9456    5.3798 H   0  0  0  0  0  0  0  0  0  0  0  0
    1.6309    2.9097    3.9320 H   0  0  0  0  0  0  0  0  0  0  0  0
   -0.1416    3.1131    2.5013 H   0  0  0  0  0  0  0  0  0  0  0  0
   -0.7944    4.8462    4.9379 H   0  0  0  0  0  0  0  0  0  0  0  0
   -1.0522    6.6407    1.7718 H   0  0  0  0  0  0  0  0  0  0  0  0
    0.4208    5.7340    2.1928 H   0  0  0  0  0  0  0  0  0  0  0  0
   -0.3421    6.7043    3.4269 H   0  0  0  0  0  0  0  0  0  0  0  0
    0.9534   -0.8490    3.1925 H   0  0  0  0  0  0  0  0  0  0  0  0
   -0.2011    1.6903    0.4865 H   0  0  0  0  0  0  0  0  0  0  0  0
    1.2937    0.7379    0.4423 H   0  0  0  0  0  0  0  0  0  0  0  0
    1.1623    2.2523    1.3878 H   0  0  0  0  0  0  0  0  0  0  0  0
    2.7295    1.4925    2.5842 H   0  0  0  0  0  0  0  0  0  0  0  0
    6.4429    0.3006    6.2081 H   0  0  0  0  0  0  0  0  0  0  0  0
    5.3086    0.4357    7.4353 H   0  0  0  0  0  0  0  0  0  0  0  0
    6.1874   -2.0277    6.8779 H   0  0  0  0  0  0  0  0  0  0  0  0
    1.7642   -1.6487    4.8260 H   0  0  0  0  0  0  0  0  0  0  0  0
    2.6694   -3.0370    4.7012 H   0  0  0  0  0  0  0  0  0  0  0  0
    1.9453   -1.7256    7.0926 H   0  0  0  0  0  0  0  0  0  0  0  0
    4.1102   -1.5387    8.3019 H   0  0  0  0  0  0  0  0  0  0  0  0
    3.5167   -4.3548    9.1836 H   0  0  0  0  0  0  0  0  0  0  0  0
    2.0056   -4.6082    8.2956 H   0  0  0  0  0  0  0  0  0  0  0  0
    2.3144   -3.0655    9.0934 H   0  0  0  0  0  0  0  0  0  0  0  0
    4.7982   -5.0156    7.1658 H   0  0  0  0  0  0  0  0  0  0  0  0
    4.5213   -4.2300    5.6071 H   0  0  0  0  0  0  0  0  0  0  0  0
    3.2640   -5.2591    6.2918 H   0  0  0  0  0  0  0  0  0  0  0  0
   -0.7883   -0.4246    4.4172 H   0  0  0  0  0  0  0  0  0  0  0  0
  1  2  1  0
  1 53  1  0
  1 54  1  0
  1 55  1  0
  2  3  1  0
  4  3  1  6
  3 56  1  0
  3 57  1  0
  4 29  1  0
  4 30  1  0
  4  5  1  0
  5  6  1  0
  6 52  1  0
  6  7  1  0
  6 58  1  6
  7 11  1  0
  7  8  1  0
  7 59  1  1
  8 52  1  0
  8  9  1  0
  8 60  1  6
 10  9  1  6
 10 15  1  0
 10 11  1  0
 10 13  1  0
 11 12  1  0
 11 61  1  1
 12 62  1  0
 12 63  1  0
 12 64  1  0
 13 20  1  0
 13 14  1  0
 13 65  1  6
 14 15  1  0
 15 16  1  1
 15 18  1  0
 16 17  1  0
 16 66  1  0
 16 67  1  0
 17 68  1  0
 18 19  1  0
 18 20  1  0
 18 69  1  1
 19 70  1  0
 20 21  1  1
 20 23  1  0
 21 22  1  0
 21 71  1  0
 21 72  1  0
 22 73  1  0
 23 24  1  0
 24 39  1  0
 24 25  1  1
 24 26  1  0
 25 74  1  0
 26 27  1  0
 27 28  1  6
 27 33  1  0
 27 52  1  0
 28 29  1  0
 28 75  1  0
 28 76  1  0
 29 30  1  0
 29 77  1  6
 30 31  1  0
 30 78  1  1
 31 32  1  0
 32 79  1  0
 32 80  1  0
 32 81  1  0
 33 34  1  0
 33 36  1  0
 33 82  1  1
 34 35  1  0
 35 83  1  0
 35 84  1  0
 35 85  1  0
 36 37  2  3
 36 86  1  0
 37 43  1  0
 37 38  1  0
 38 39  1  0
 39 50  1  0
 39 40  1  1
 40 41  1  0
 40 87  1  0
 40 88  1  0
 41 46  1  0
 41 42  1  0
 41 89  1  1
 42 43  1  0
 43 44  1  6
 43 50  1  0
 44 45  1  0
 44 90  1  0
 44 91  1  0
 45 47  1  0
 45 46  1  0
 45 92  1  1
 46 47  1  0
 46 93  1  1
 47 48  1  0
 47 49  1  0
 48 94  1  0
 48 95  1  0
 48 96  1  0
 49 97  1  0
 49 98  1  0
 49 99  1  0
 50 51  2  0
 52100  1  6
M  END
>  <i_m_ct_stereo_status>  (96) 
1

>  <s_m_source_file>  (96) 
/var/tmp/pbs.5076253.sched01/tmp0k8q0ypy/944rjgrua_.sdf

>  <i_m_source_file_index>  (96) 
28

>  <i_lp_mmshare_version>  (96) 
48012

>  <i_f3d_flags>  (96) 
0

>  <s_epik_input>  (96) 
W0NIM11PW0NAQEhdMVtDQEBIXShbQ0gyXTIpW0NAQF0xKFtDSDJdT1tDSDNdKU9bQ0BIXShbQ0BASF0oW0NAQEhdM080KVtDQEBIXTVbQ0gzXSlbQ0BIXTNbQ0BAXTIoTzYpW0NAQEhdKE9bQ0gzXSkvW0NIXT1DKFtDQF03KEM4PU8pT1tDQEBIXShbQ0gyXTkpW0NASF0xW0NAQEhdKFtDSDJdNylDMShbQ0gzXSlbQ0gzXSlcT1tDQEBdODlbQ0BdNihbT0hdKU9bQ0BdKFtDQEhdMVtDQF0yNDUpKFtDSDJdW09IXSlbQ0BIXShbT0hdKVtDQF0yKE8xKVtDSDJdW09IXQ==

>  <s_epik_cmdline>  (96) 
J2VwaWtfcHl0aG9uJywgJy1waHQnLCAnMi4wJywgJy1waCcsICc3LjAnLCAnLXRuJywgJzgnLCAnLW1hJywgJzIwMCcsICctaW1hZScsICc8aW5maWxlLm1hZT4nLCAnLW9tYWUnLCAnPG91dGZpbGUubWFlPic=

>  <r_lp_tautomer_probability>  (96) 
1

>  <r_epik_Ionization_Penalty>  (96) 
0.106119

>  <r_epik_Ionization_Penalty_Charging>  (96) 
0

>  <r_epik_Ionization_Penalty_Neutral>  (96) 
0.106119

>  <r_epik_State_Penalty>  (96) 
0.0959491

>  <r_epik_Charging_Adjusted_Penalty>  (96) 
0.0959491

>  <i_epik_Tot_Q>  (96) 
0

>  <i_epik_Tot_abs_Q>  (96) 
0

>  <s_lp_Force_Field>  (96) 
OPLS3e

>  <r_lp_Energy>  (96) 
413.553

>  <b_lp_Chiralities_Consistent>  (96) 
1

>  <s_lp_Variant>  (96) 
74:0-2

>  <s_i_glide_gridfile>  (96) 
pfpi4k_grid

>  <i_i_glide_lignum>  (96) 
28

>  <i_i_glide_rotatable_bonds>  (96) 
10

>  <r_i_docking_score>  (96) 
-2.62498

>  <r_i_glide_ligand_efficiency>  (96) 
-0.0504804

>  <r_i_glide_ligand_efficiency_sa>  (96) 
-0.188419

>  <r_i_glide_ligand_efficiency_ln>  (96) 
-0.530166

>  <r_i_glide_gscore>  (96) 
-2.62498

>  <r_i_glide_lipo>  (96) 
-0.348926

>  <r_i_glide_hbond>  (96) 
-0.16

>  <r_i_glide_metal>  (96) 
-0

>  <r_i_glide_rewards>  (96) 
-0.0946699

>  <r_i_glide_evdw>  (96) 
-18.0977

>  <r_i_glide_ecoul>  (96) 
-8.2463

>  <r_i_glide_erotb>  (96) 
0.120447

>  <r_i_glide_esite>  (96) 
0

>  <r_i_glide_emodel>  (96) 
-22.5164

>  <r_i_glide_energy>  (96) 
-26.344

>  <r_i_glide_einternal>  (96) 
11.9222

>  <r_i_glide_intrahb_reward>  (96) 
-0

>  <i_i_glide_confnum>  (96) 
5

>  <i_i_glide_posenum>  (96) 
19

>  <r_i_glide_eff_state_penalty>  (96) 
0

>  <ligand_id>  (96) 
74

>  <original_smiles>  (96) 
COCC12OC3C4C5OC6(C4C)C4OC6(CO)C(O)C4(CO)OC4(O)OC(CC1C2OC)(C(OC)C=C1OC42CC4OC1(CC1C4C1(C)C)C2=O)C35

>  <smiles>  (96) 
[H]OC([H])([H])C12OC3(O[H])OC4(C([H])(OC([H])([H])[H])C([H])=C5OC36C(=O)C53OC([H])(C6([H])[H])C5([H])C([H])(C3([H])[H])C5(C([H])([H])[H])C([H])([H])[H])C([H])([H])C3([H])C([H])(OC([H])([H])[H])C3(C([H])([H])OC([H])([H])[H])OC3([H])C5([H])C([H])(OC6(C1([H])OC6(C([H])([H])O[H])C2([H])O[H])C5([H])C([H])([H])[H])C34[H]

$$$$
74:1:1
     RDKit          3D

100111  0  0  1  0  0  0  0  0999 V2000
    7.6995   -0.9876    7.3296 C   0  0  0  0  0  0  0  0  0  0  0  0
    6.3462   -1.2042    7.7169 O   0  0  0  0  0  0  0  0  0  0  0  0
    6.1307   -2.1586    8.7723 C   0  0  0  0  0  0  0  0  0  0  0  0
    6.3218   -3.6353    8.3601 C   0  0  1  0  0  0  0  0  0  0  0  0
    5.4343   -4.5821    8.9275 O   0  0  0  0  0  0  0  0  0  0  0  0
    4.0944   -4.5338    8.4699 C   0  0  2  0  0  0  0  0  0  0  0  0
    3.2240   -5.6767    9.0085 C   0  0  1  0  0  0  0  0  0  0  0  0
    2.7139   -5.9069    7.5948 C   0  0  2  0  0  0  0  0  0  0  0  0
    2.8865   -7.2818    7.3095 O   0  0  0  0  0  0  0  0  0  0  0  0
    3.6889   -7.9226    8.2723 C   0  0  2  0  0  0  0  0  0  0  0  0
    3.7070   -7.0256    9.5229 C   0  0  1  0  0  0  0  0  0  0  0  0
    4.9890   -7.0178   10.3931 C   0  0  0  0  0  0  0  0  0  0  0  0
    4.9541   -8.5623    7.6712 C   0  0  1  0  0  0  0  0  0  0  0  0
    4.8262   -9.5843    8.7123 O   0  0  0  0  0  0  0  0  0  0  0  0
    3.4054   -9.4357    8.4120 C   0  0  1  0  0  0  0  0  0  0  0  0
    2.5094  -10.0417    9.4986 C   0  0  0  0  0  0  0  0  0  0  0  0
    1.2453   -9.4333    9.4952 O   0  0  0  0  0  0  0  0  0  0  0  0
    3.4725  -10.1831    7.0814 C   0  0  1  0  0  0  0  0  0  0  0  0
    2.2641  -10.1002    6.3835 O   0  0  0  0  0  0  0  0  0  0  0  0
    4.6800   -9.4648    6.4377 C   0  0  2  0  0  0  0  0  0  0  0  0
    5.8368  -10.4682    6.1174 C   0  0  0  0  0  0  0  0  0  0  0  0
    5.3947  -11.5316    5.3007 O   0  0  0  0  0  0  0  0  0  0  0  0
    4.3201   -8.7792    5.2037 O   0  0  0  0  0  0  0  0  0  0  0  0
    5.0029   -7.6308    4.7460 C   0  0  2  0  0  0  0  0  0  0  0  0
    6.3476   -7.7177    5.1164 O   0  0  0  0  0  0  0  0  0  0  0  0
    4.2974   -6.4953    5.2759 O   0  0  0  0  0  0  0  0  0  0  0  0
    4.7033   -5.1845    5.8335 C   0  0  1  0  0  0  0  0  0  0  0  0
    6.2037   -5.2306    6.2999 C   0  0  0  0  0  0  0  0  0  0  0  0
    6.8042   -4.0179    6.9961 C   0  0  2  0  0  0  0  0  0  0  0  0
    7.6937   -4.2534    8.1910 C   0  0  1  0  0  0  0  0  0  0  0  0
    8.7354   -3.3062    8.4065 O   0  0  0  0  0  0  0  0  0  0  0  0
    9.2242   -3.3242    9.7469 C   0  0  0  0  0  0  0  0  0  0  0  0
    4.4444   -4.0638    4.7198 C   0  0  1  0  0  0  0  0  0  0  0  0
    4.9468   -2.8010    5.1641 O   0  0  0  0  0  0  0  0  0  0  0  0
    4.6221   -1.6741    4.3531 C   0  0  0  0  0  0  0  0  0  0  0  0
    5.1129   -4.4816    3.4541 C   0  0  0  0  0  0  0  0  0  0  0  0
    4.7299   -5.5741    2.7589 C   0  0  0  0  0  0  0  0  0  0  0  0
    5.7647   -6.5203    2.8087 O   0  0  0  0  0  0  0  0  0  0  0  0
    5.0967   -7.7135    3.1149 C   0  0  1  0  0  0  0  0  0  0  0  0
    4.3247   -8.9933    2.5072 C   0  0  0  0  0  0  0  0  0  0  0  0
    2.7730   -8.7622    2.1441 C   0  0  2  0  0  0  0  0  0  0  0  0
    2.7000   -7.3623    1.6206 O   0  0  0  0  0  0  0  0  0  0  0  0
    3.2940   -6.1743    2.3246 C   0  0  1  0  0  0  0  0  0  0  0  0
    2.2134   -6.2254    3.4850 C   0  0  0  0  0  0  0  0  0  0  0  0
    1.6665   -7.5364    4.0574 C   0  0  2  0  0  0  0  0  0  0  0  0
    1.8763   -8.8530    3.3401 C   0  0  1  0  0  0  0  0  0  0  0  0
    0.4920   -8.2756    3.4501 C   0  0  0  0  0  0  0  0  0  0  0  0
   -0.4831   -8.9525    4.3910 C   0  0  0  0  0  0  0  0  0  0  0  0
   -0.2709   -7.7837    2.2243 C   0  0  0  0  0  0  0  0  0  0  0  0
    4.4825   -6.9676    1.9442 C   0  0  0  0  0  0  0  0  0  0  0  0
    4.8726   -7.1107    0.7032 O   0  0  0  0  0  0  0  0  0  0  0  0
    3.7086   -4.8874    7.0198 C   0  0  2  0  0  0  0  0  0  0  0  0
    7.7214   -0.1633    6.5975 H   0  0  0  0  0  0  0  0  0  0  0  0
    8.1560   -1.8521    6.8888 H   0  0  0  0  0  0  0  0  0  0  0  0
    8.2774   -0.6436    8.1934 H   0  0  0  0  0  0  0  0  0  0  0  0
    6.7383   -1.9148    9.6478 H   0  0  0  0  0  0  0  0  0  0  0  0
    5.1120   -2.0265    9.1385 H   0  0  0  0  0  0  0  0  0  0  0  0
    3.6170   -3.6031    8.7559 H   0  0  0  0  0  0  0  0  0  0  0  0
    2.4284   -5.2627    9.6226 H   0  0  0  0  0  0  0  0  0  0  0  0
    1.6756   -5.6057    7.4566 H   0  0  0  0  0  0  0  0  0  0  0  0
    2.9320   -7.3887   10.2091 H   0  0  0  0  0  0  0  0  0  0  0  0
    5.8707   -6.8111    9.7959 H   0  0  0  0  0  0  0  0  0  0  0  0
    5.1191   -7.9922   10.8523 H   0  0  0  0  0  0  0  0  0  0  0  0
    4.9143   -6.2731   11.1862 H   0  0  0  0  0  0  0  0  0  0  0  0
    5.8993   -8.0354    7.7257 H   0  0  0  0  0  0  0  0  0  0  0  0
    2.4020  -11.1102    9.3340 H   0  0  0  0  0  0  0  0  0  0  0  0
    2.9682   -9.9210   10.4792 H   0  0  0  0  0  0  0  0  0  0  0  0
    1.3716   -8.5023    9.5985 H   0  0  0  0  0  0  0  0  0  0  0  0
    3.6782  -11.2365    7.2651 H   0  0  0  0  0  0  0  0  0  0  0  0
    1.7015  -10.7642    6.7746 H   0  0  0  0  0  0  0  0  0  0  0  0
    6.6857  -10.0139    5.6195 H   0  0  0  0  0  0  0  0  0  0  0  0
    6.2316  -10.8924    7.0358 H   0  0  0  0  0  0  0  0  0  0  0  0
    4.6299  -11.9259    5.6995 H   0  0  0  0  0  0  0  0  0  0  0  0
    6.3860   -7.7170    6.0570 H   0  0  0  0  0  0  0  0  0  0  0  0
    6.3075   -6.0850    6.9787 H   0  0  0  0  0  0  0  0  0  0  0  0
    6.8473   -5.4109    5.4452 H   0  0  0  0  0  0  0  0  0  0  0  0
    7.0655   -3.2097    6.3485 H   0  0  0  0  0  0  0  0  0  0  0  0
    7.8959   -5.2924    8.4929 H   0  0  0  0  0  0  0  0  0  0  0  0
    9.9930   -2.5713    9.9024 H   0  0  0  0  0  0  0  0  0  0  0  0
    9.6710   -4.2714   10.0641 H   0  0  0  0  0  0  0  0  0  0  0  0
    8.4605   -3.1013   10.4935 H   0  0  0  0  0  0  0  0  0  0  0  0
    3.3867   -3.8700    4.5201 H   0  0  0  0  0  0  0  0  0  0  0  0
    5.0101   -0.7659    4.8163 H   0  0  0  0  0  0  0  0  0  0  0  0
    3.5423   -1.5544    4.2502 H   0  0  0  0  0  0  0  0  0  0  0  0
    5.0650   -1.7515    3.3594 H   0  0  0  0  0  0  0  0  0  0  0  0
    6.1705   -4.4081    3.5725 H   0  0  0  0  0  0  0  0  0  0  0  0
    4.8515   -9.3827    1.6266 H   0  0  0  0  0  0  0  0  0  0  0  0
    4.4019   -9.8497    3.1683 H   0  0  0  0  0  0  0  0  0  0  0  0
    2.4399   -9.4774    1.3964 H   0  0  0  0  0  0  0  0  0  0  0  0
    2.4034   -5.5765    4.3127 H   0  0  0  0  0  0  0  0  0  0  0  0
    1.3432   -5.7394    3.0441 H   0  0  0  0  0  0  0  0  0  0  0  0
    1.7469   -7.5882    5.1332 H   0  0  0  0  0  0  0  0  0  0  0  0
    2.0579   -9.7420    3.9205 H   0  0  0  0  0  0  0  0  0  0  0  0
   -0.9376   -9.8008    3.8821 H   0  0  0  0  0  0  0  0  0  0  0  0
   -1.2741   -8.2706    4.7053 H   0  0  0  0  0  0  0  0  0  0  0  0
    0.0142   -9.3213    5.2836 H   0  0  0  0  0  0  0  0  0  0  0  0
   -0.7346   -8.6344    1.7197 H   0  0  0  0  0  0  0  0  0  0  0  0
    0.3718   -7.2866    1.5162 H   0  0  0  0  0  0  0  0  0  0  0  0
   -1.0499   -7.0852    2.5344 H   0  0  0  0  0  0  0  0  0  0  0  0
    3.0718   -4.0617    6.7257 H   0  0  0  0  0  0  0  0  0  0  0  0
  1  2  1  0
  1 53  1  0
  1 54  1  0
  1 55  1  0
  2  3  1  0
  4  3  1  6
  3 56  1  0
  3 57  1  0
  4 29  1  0
  4 30  1  0
  4  5  1  0
  5  6  1  0
  6 52  1  0
  6  7  1  0
  6 58  1  1
  7 11  1  0
  7  8  1  0
  7 59  1  1
  8 52  1  0
  8  9  1  0
  8 60  1  1
 10  9  1  6
 10 15  1  0
 10 11  1  0
 10 13  1  0
 11 12  1  0
 11 61  1  1
 12 62  1  0
 12 63  1  0
 12 64  1  0
 13 20  1  0
 13 14  1  0
 13 65  1  6
 14 15  1  0
 15 16  1  1
 15 18  1  0
 16 17  1  0
 16 66  1  0
 16 67  1  0
 17 68  1  0
 18 19  1  0
 18 20  1  0
 18 69  1  1
 19 70  1  0
 20 21  1  6
 20 23  1  0
 21 22  1  0
 21 71  1  0
 21 72  1  0
 22 73  1  0
 23 24  1  0
 24 39  1  0
 24 25  1  1
 24 26  1  0
 25 74  1  0
 26 27  1  0
 27 28  1  1
 27 33  1  0
 27 52  1  0
 28 29  1  0
 28 75  1  0
 28 76  1  0
 29 30  1  0
 29 77  1  6
 30 31  1  0
 30 78  1  1
 31 32  1  0
 32 79  1  0
 32 80  1  0
 32 81  1  0
 33 34  1  0
 33 36  1  0
 33 82  1  6
 34 35  1  0
 35 83  1  0
 35 84  1  0
 35 85  1  0
 36 37  2  3
 36 86  1  0
 37 43  1  0
 37 38  1  0
 38 39  1  0
 39 50  1  0
 39 40  1  6
 40 41  1  0
 40 87  1  0
 40 88  1  0
 41 46  1  0
 41 42  1  0
 41 89  1  6
 42 43  1  0
 43 44  1  6
 43 50  1  0
 44 45  1  0
 44 90  1  0
 44 91  1  0
 45 47  1  0
 45 46  1  0
 45 92  1  1
 46 47  1  0
 46 93  1  1
 47 48  1  0
 47 49  1  0
 48 94  1  0
 48 95  1  0
 48 96  1  0
 49 97  1  0
 49 98  1  0
 49 99  1  0
 50 51  2  0
 52100  1  6
M  END
>  <i_m_ct_stereo_status>  (97) 
1

>  <s_m_source_file>  (97) 
/var/tmp/pbs.5076253.sched01/tmp0k8q0ypy/944rjgrua_.sdf

>  <i_m_source_file_index>  (97) 
28

>  <i_lp_mmshare_version>  (97) 
48012

>  <i_f3d_flags>  (97) 
0

>  <s_epik_input>  (97) 
W0NIM11PW0NAQEhdMVtDQEBIXShbQ0gyXTIpW0NAQF0xKFtDSDJdT1tDSDNdKU9bQ0BIXShbQ0BASF0oW0NAQEhdM080KVtDQEBIXTVbQ0gzXSlbQ0BIXTNbQ0BAXTIoTzYpW0NAQEhdKE9bQ0gzXSkvW0NIXT1DKFtDQF03KEM4PU8pT1tDQEBIXShbQ0gyXTkpW0NASF0xW0NAQEhdKFtDSDJdNylDMShbQ0gzXSlbQ0gzXSlcT1tDQEBdODlbQ0BdNihbT0hdKU9bQ0BdKFtDQEhdMVtDQF0yNDUpKFtDSDJdW09IXSlbQ0BIXShbT0hdKVtDQF0yKE8xKVtDSDJdW09IXQ==

>  <s_epik_cmdline>  (97) 
J2VwaWtfcHl0aG9uJywgJy1waHQnLCAnMi4wJywgJy1waCcsICc3LjAnLCAnLXRuJywgJzgnLCAnLW1hJywgJzIwMCcsICctaW1hZScsICc8aW5maWxlLm1hZT4nLCAnLW9tYWUnLCAnPG91dGZpbGUubWFlPic=

>  <r_lp_tautomer_probability>  (97) 
1

>  <r_epik_Ionization_Penalty>  (97) 
0.106119

>  <r_epik_Ionization_Penalty_Charging>  (97) 
0

>  <r_epik_Ionization_Penalty_Neutral>  (97) 
0.106119

>  <r_epik_State_Penalty>  (97) 
0.0959491

>  <r_epik_Charging_Adjusted_Penalty>  (97) 
0.0959491

>  <i_epik_Tot_Q>  (97) 
0

>  <i_epik_Tot_abs_Q>  (97) 
0

>  <s_lp_Force_Field>  (97) 
OPLS3e

>  <r_lp_Energy>  (97) 
413.553

>  <b_lp_Chiralities_Consistent>  (97) 
1

>  <s_lp_Variant>  (97) 
74:0-2

>  <s_i_glide_gridfile>  (97) 
pfpi4k_grid

>  <i_i_glide_lignum>  (97) 
28

>  <i_i_glide_rotatable_bonds>  (97) 
10

>  <r_i_docking_score>  (97) 
-1.87372

>  <r_i_glide_ligand_efficiency>  (97) 
-0.036033

>  <r_i_glide_ligand_efficiency_sa>  (97) 
-0.134494

>  <r_i_glide_ligand_efficiency_ln>  (97) 
-0.378433

>  <r_i_glide_gscore>  (97) 
-1.87372

>  <r_i_glide_lipo>  (97) 
-0.166784

>  <r_i_glide_hbond>  (97) 
0

>  <r_i_glide_metal>  (97) 
-0

>  <r_i_glide_rewards>  (97) 
-0.0491029

>  <r_i_glide_evdw>  (97) 
-21.4177

>  <r_i_glide_ecoul>  (97) 
-4.71594

>  <r_i_glide_erotb>  (97) 
0.120447

>  <r_i_glide_esite>  (97) 
0

>  <r_i_glide_emodel>  (97) 
-26.2873

>  <r_i_glide_energy>  (97) 
-26.1336

>  <r_i_glide_einternal>  (97) 
2.02417

>  <r_i_glide_intrahb_reward>  (97) 
-0

>  <i_i_glide_confnum>  (97) 
1

>  <i_i_glide_posenum>  (97) 
12

>  <r_i_glide_eff_state_penalty>  (97) 
0

>  <ligand_id>  (97) 
74

>  <original_smiles>  (97) 
COCC12OC3C4C5OC6(C4C)C4OC6(CO)C(O)C4(CO)OC4(O)OC(CC1C2OC)(C(OC)C=C1OC42CC4OC1(CC1C4C1(C)C)C2=O)C35

>  <smiles>  (97) 
[H]OC([H])([H])C12OC3(O[H])OC4(C([H])(OC([H])([H])[H])C([H])=C5OC36C(=O)C53OC([H])(C6([H])[H])C5([H])C([H])(C3([H])[H])C5(C([H])([H])[H])C([H])([H])[H])C([H])([H])C3([H])C([H])(OC([H])([H])[H])C3(C([H])([H])OC([H])([H])[H])OC3([H])C5([H])C([H])(OC6(C1([H])OC6(C([H])([H])O[H])C2([H])O[H])C5([H])C([H])([H])[H])C34[H]

$$$$
74:3:0
     RDKit          3D

 99110  0  0  1  0  0  0  0  0999 V2000
   -1.9507    1.1133    6.8233 C   0  0  0  0  0  0  0  0  0  0  0  0
   -0.9875    0.1750    7.2689 O   0  0  0  0  0  0  0  0  0  0  0  0
   -0.5347   -0.6982    6.2582 C   0  0  0  0  0  0  0  0  0  0  0  0
    0.5350   -1.6573    6.8253 C   0  0  1  0  0  0  0  0  0  0  0  0
    0.0736   -2.9152    7.2558 O   0  0  0  0  0  0  0  0  0  0  0  0
   -0.3284   -3.8148    6.2287 C   0  0  2  0  0  0  0  0  0  0  0  0
   -0.6723   -5.2340    6.7090 C   0  0  1  0  0  0  0  0  0  0  0  0
    0.1364   -5.7890    5.5480 C   0  0  2  0  0  0  0  0  0  0  0  0
    1.0236   -6.7352    6.1144 O   0  0  0  0  0  0  0  0  0  0  0  0
    1.0826   -6.6603    7.5204 C   0  0  2  0  0  0  0  0  0  0  0  0
   -0.1791   -5.8974    7.9847 C   0  0  1  0  0  0  0  0  0  0  0  0
   -0.0308   -5.0169    9.2195 C   0  0  0  0  0  0  0  0  0  0  0  0
    2.5127   -6.4093    8.0426 C   0  0  1  0  0  0  0  0  0  0  0  0
    2.0983   -7.2127    9.1740 O   0  0  0  0  0  0  0  0  0  0  0  0
    1.4808   -8.0106    8.1552 C   0  0  1  0  0  0  0  0  0  0  0  0
    0.4664   -9.0120    8.7133 C   0  0  0  0  0  0  0  0  0  0  0  0
    1.0563  -10.1750    9.2879 O   0  0  0  0  0  0  0  0  0  0  0  0
    2.7650   -8.6124    7.5841 C   0  0  1  0  0  0  0  0  0  0  0  0
    2.4978   -9.3258    6.4119 O   0  0  0  0  0  0  0  0  0  0  0  0
    3.5967   -7.3375    7.4256 C   0  0  2  0  0  0  0  0  0  0  0  0
    4.9101   -7.3915    8.2574 C   0  0  0  0  0  0  0  0  0  0  0  0
    5.6738   -8.5400    7.9450 O   0  0  0  0  0  0  0  0  0  0  0  0
    3.9165   -7.0474    6.0345 O   0  0  0  0  0  0  0  0  0  0  0  0
    4.1426   -5.7636    5.5035 C   0  0  2  0  0  0  0  0  0  0  0  0
    4.6022   -5.0017    6.4767 O   0  0  0  0  0  0  0  0  0  0  0  0
    2.8818   -5.2843    4.9919 O   0  0  0  0  0  0  0  0  0  0  0  0
    2.1728   -3.9882    4.9974 C   0  0  1  0  0  0  0  0  0  0  0  0
    2.6609   -3.0303    6.1296 C   0  0  0  0  0  0  0  0  0  0  0  0
    1.9499   -1.6883    6.3276 C   0  0  2  0  0  0  0  0  0  0  0  0
    1.6652   -1.1987    7.7232 C   0  0  1  0  0  0  0  0  0  0  0  0
    1.6488    0.2071    7.9025 O   0  0  0  0  0  0  0  0  0  0  0  0
    2.9057    0.7636    8.2278 C   0  0  0  0  0  0  0  0  0  0  0  0
    2.3195   -3.3342    3.5554 C   0  0  1  0  0  0  0  0  0  0  0  0
    1.7510   -2.0268    3.5339 O   0  0  0  0  0  0  0  0  0  0  0  0
    1.8260   -1.3296    2.2958 C   0  0  0  0  0  0  0  0  0  0  0  0
    3.7896   -3.3129    3.2494 C   0  0  0  0  0  0  0  0  0  0  0  0
    4.5411   -4.3984    3.0277 C   0  0  0  0  0  0  0  0  0  0  0  0
    5.5111   -4.4672    4.0454 O   0  0  0  0  0  0  0  0  0  0  0  0
    5.4123   -5.7977    4.4865 C   0  0  1  0  0  0  0  0  0  0  0  0
    5.9289   -7.3053    4.2402 C   0  0  0  0  0  0  0  0  0  0  0  0
    5.1978   -8.1225    3.0539 C   0  0  2  0  0  0  0  0  0  0  0  0
    4.9259   -7.1197    1.9738 O   0  0  0  0  0  0  0  0  0  0  0  0
    4.2751   -5.7989    2.2241 C   0  0  1  0  0  0  0  0  0  0  0  0
    2.8709   -6.4592    2.5025 C   0  0  0  0  0  0  0  0  0  0  0  0
    2.7225   -7.8012    3.2463 C   0  0  2  0  0  0  0  0  0  0  0  0
    3.8929   -8.7022    3.4657 C   0  0  1  0  0  0  0  0  0  0  0  0
    2.7739   -9.1446    2.5478 C   0  0  0  0  0  0  0  0  0  0  0  0
    1.8381  -10.2571    3.0117 C   0  0  0  0  0  0  0  0  0  0  0  0
    2.9968   -9.2918    1.0643 C   0  0  0  0  0  0  0  0  0  0  0  0
    5.5502   -5.6983    2.9731 C   0  0  0  0  0  0  0  0  0  0  0  0
    6.6690   -5.6008    2.3782 O   0  0  0  0  0  0  0  0  0  0  0  0
    0.6578   -4.3815    5.1823 C   0  0  2  0  0  0  0  0  0  0  0  0
   -2.2490    1.7665    7.6440 H   0  0  0  0  0  0  0  0  0  0  0  0
   -2.8466    0.5993    6.4811 H   0  0  0  0  0  0  0  0  0  0  0  0
   -1.5585    1.7393    6.0200 H   0  0  0  0  0  0  0  0  0  0  0  0
   -1.3767   -1.2453    5.8397 H   0  0  0  0  0  0  0  0  0  0  0  0
   -0.0854   -0.1253    5.4576 H   0  0  0  0  0  0  0  0  0  0  0  0
   -1.2145   -3.4326    5.7094 H   0  0  0  0  0  0  0  0  0  0  0  0
   -1.7263   -5.4205    6.5343 H   0  0  0  0  0  0  0  0  0  0  0  0
   -0.4961   -6.2280    4.7673 H   0  0  0  0  0  0  0  0  0  0  0  0
   -0.9152   -6.6461    8.2525 H   0  0  0  0  0  0  0  0  0  0  0  0
    0.7964   -4.3124    9.1273 H   0  0  0  0  0  0  0  0  0  0  0  0
    0.1667   -5.6360   10.0961 H   0  0  0  0  0  0  0  0  0  0  0  0
   -0.9476   -4.4570    9.4078 H   0  0  0  0  0  0  0  0  0  0  0  0
    2.7761   -5.3936    8.3029 H   0  0  0  0  0  0  0  0  0  0  0  0
   -0.1732   -8.5483    9.4741 H   0  0  0  0  0  0  0  0  0  0  0  0
   -0.1990   -9.3351    7.9088 H   0  0  0  0  0  0  0  0  0  0  0  0
    1.1684  -10.8659    8.6273 H   0  0  0  0  0  0  0  0  0  0  0  0
    3.2259   -9.2826    8.3043 H   0  0  0  0  0  0  0  0  0  0  0  0
    2.0171  -10.1148    6.6420 H   0  0  0  0  0  0  0  0  0  0  0  0
    5.5476   -6.5162    8.1350 H   0  0  0  0  0  0  0  0  0  0  0  0
    4.6827   -7.4388    9.3239 H   0  0  0  0  0  0  0  0  0  0  0  0
    5.1176   -9.3044    8.0276 H   0  0  0  0  0  0  0  0  0  0  0  0
    2.5842   -3.5555    7.0766 H   0  0  0  0  0  0  0  0  0  0  0  0
    3.7110   -2.7767    6.0011 H   0  0  0  0  0  0  0  0  0  0  0  0
    2.2448   -0.9099    5.6372 H   0  0  0  0  0  0  0  0  0  0  0  0
    1.9873   -1.8057    8.5830 H   0  0  0  0  0  0  0  0  0  0  0  0
    2.7934    1.8304    8.4359 H   0  0  0  0  0  0  0  0  0  0  0  0
    3.5894    0.6481    7.3870 H   0  0  0  0  0  0  0  0  0  0  0  0
    3.3362    0.2931    9.1143 H   0  0  0  0  0  0  0  0  0  0  0  0
    1.8053   -3.8655    2.7612 H   0  0  0  0  0  0  0  0  0  0  0  0
    1.2900   -0.3838    2.3765 H   0  0  0  0  0  0  0  0  0  0  0  0
    1.3731   -1.8986    1.4844 H   0  0  0  0  0  0  0  0  0  0  0  0
    2.8564   -1.0977    2.0257 H   0  0  0  0  0  0  0  0  0  0  0  0
    4.2731   -2.5727    3.8729 H   0  0  0  0  0  0  0  0  0  0  0  0
    7.0020   -7.3293    4.0603 H   0  0  0  0  0  0  0  0  0  0  0  0
    5.8625   -7.9054    5.1459 H   0  0  0  0  0  0  0  0  0  0  0  0
    5.8219   -8.9210    2.6804 H   0  0  0  0  0  0  0  0  0  0  0  0
    2.1021   -5.8083    2.8874 H   0  0  0  0  0  0  0  0  0  0  0  0
    2.4795   -6.6664    1.5091 H   0  0  0  0  0  0  0  0  0  0  0  0
    2.0149   -7.7561    4.0555 H   0  0  0  0  0  0  0  0  0  0  0  0
    3.9452   -9.2615    4.3876 H   0  0  0  0  0  0  0  0  0  0  0  0
    2.2840  -11.2343    2.8408 H   0  0  0  0  0  0  0  0  0  0  0  0
    0.8898  -10.2076    2.4837 H   0  0  0  0  0  0  0  0  0  0  0  0
    1.6403  -10.1653    4.0741 H   0  0  0  0  0  0  0  0  0  0  0  0
    3.4534  -10.2407    0.8780 H   0  0  0  0  0  0  0  0  0  0  0  0
    3.6686   -8.5399    0.6638 H   0  0  0  0  0  0  0  0  0  0  0  0
    2.0510   -9.2380    0.5366 H   0  0  0  0  0  0  0  0  0  0  0  0
    0.1496   -4.1970    4.2442 H   0  0  0  0  0  0  0  0  0  0  0  0
  1  2  1  0
  1 53  1  0
  1 54  1  0
  1 55  1  0
  2  3  1  0
  4  3  1  6
  3 56  1  0
  3 57  1  0
  4 29  1  0
  4 30  1  0
  4  5  1  0
  5  6  1  0
  6 52  1  0
  6  7  1  0
  6 58  1  6
  7 11  1  0
  7  8  1  0
  7 59  1  6
  8 52  1  0
  8  9  1  0
  8 60  1  6
 10  9  1  6
 10 15  1  0
 10 11  1  0
 10 13  1  0
 11 12  1  0
 11 61  1  1
 12 62  1  0
 12 63  1  0
 12 64  1  0
 13 20  1  0
 13 14  1  0
 13 65  1  1
 14 15  1  0
 15 16  1  1
 15 18  1  0
 16 17  1  0
 16 66  1  0
 16 67  1  0
 17 68  1  0
 18 19  1  0
 18 20  1  0
 18 69  1  1
 19 70  1  0
 20 21  1  1
 20 23  1  0
 21 22  1  0
 21 71  1  0
 21 72  1  0
 22 73  1  0
 23 24  1  0
 24 39  1  0
 24 25  1  1
 24 26  1  0
 26 27  1  0
 27 28  1  1
 27 33  1  0
 27 52  1  0
 28 29  1  0
 28 74  1  0
 28 75  1  0
 29 30  1  0
 29 76  1  6
 30 31  1  0
 30 77  1  1
 31 32  1  0
 32 78  1  0
 32 79  1  0
 32 80  1  0
 33 34  1  0
 33 36  1  0
 33 81  1  6
 34 35  1  0
 35 82  1  0
 35 83  1  0
 35 84  1  0
 36 37  2  3
 36 85  1  0
 37 43  1  0
 37 38  1  0
 38 39  1  0
 39 50  1  0
 39 40  1  1
 40 41  1  0
 40 86  1  0
 40 87  1  0
 41 46  1  0
 41 42  1  0
 41 88  1  6
 42 43  1  0
 43 44  1  6
 43 50  1  0
 44 45  1  0
 44 89  1  0
 44 90  1  0
 45 47  1  0
 45 46  1  0
 45 91  1  1
 46 47  1  0
 46 92  1  1
 47 48  1  0
 47 49  1  0
 48 93  1  0
 48 94  1  0
 48 95  1  0
 49 96  1  0
 49 97  1  0
 49 98  1  0
 50 51  2  0
 52 99  1  6
M  CHG  1  25  -1
M  END
>  <i_m_ct_stereo_status>  (98) 
1

>  <s_m_source_file>  (98) 
/var/tmp/pbs.5076253.sched01/tmp0k8q0ypy/944rjgrua_.sdf

>  <i_m_source_file_index>  (98) 
30

>  <i_lp_mmshare_version>  (98) 
48012

>  <i_f3d_flags>  (98) 
0

>  <s_epik_input>  (98) 
W0NIM11PW0NAQEhdMVtDQEBIXShbQ0gyXTIpW0NAQF0xKFtDSDJdT1tDSDNdKU9bQ0BIXShbQ0BASF0oW0NAQEhdM080KVtDQEBIXTVbQ0gzXSlbQ0BIXTNbQ0BAXTIoTzYpW0NAQEhdKE9bQ0gzXSkvW0NIXT1DKFtDQF03KEM4PU8pT1tDQEBIXShbQ0gyXTkpW0NASF0xW0NAQEhdKFtDSDJdNylDMShbQ0gzXSlbQ0gzXSlcT1tDQEBdODlbQ0BdNihbT0hdKU9bQ0BdKFtDQEhdMVtDQF0yNDUpKFtDSDJdW09IXSlbQ0BIXShbT0hdKVtDQF0yKE8xKVtDSDJdW09IXQ==

>  <s_epik_cmdline>  (98) 
J2VwaWtfcHl0aG9uJywgJy1waHQnLCAnMi4wJywgJy1waCcsICc3LjAnLCAnLXRuJywgJzgnLCAnLW1hJywgJzIwMCcsICctaW1hZScsICc8aW5maWxlLm1hZT4nLCAnLW9tYWUnLCAnPG91dGZpbGUubWFlPic=

>  <r_lp_tautomer_probability>  (98) 
1

>  <r_epik_Ionization_Penalty>  (98) 
1.07135

>  <r_epik_Ionization_Penalty_Charging>  (98) 
1.07135

>  <r_epik_Ionization_Penalty_Neutral>  (98) 
7.87286e-06

>  <r_epik_State_Penalty>  (98) 
1.12595

>  <r_epik_Charging_Adjusted_Penalty>  (98) 
2.1973

>  <i_epik_Tot_Q>  (98) 
-1

>  <i_epik_Tot_abs_Q>  (98) 
1

>  <s_lp_Force_Field>  (98) 
OPLS3e

>  <r_lp_Energy>  (98) 
418.256

>  <b_lp_Chiralities_Consistent>  (98) 
1

>  <s_lp_Variant>  (98) 
74:0-4

>  <s_i_glide_gridfile>  (98) 
pfpi4k_grid

>  <i_i_glide_lignum>  (98) 
30

>  <i_i_glide_rotatable_bonds>  (98) 
9

>  <r_i_docking_score>  (98) 
-2.31671

>  <r_i_glide_ligand_efficiency>  (98) 
-0.0445521

>  <r_i_glide_ligand_efficiency_sa>  (98) 
-0.166291

>  <r_i_glide_ligand_efficiency_ln>  (98) 
-0.467904

>  <r_i_glide_gscore>  (98) 
-2.31671

>  <r_i_glide_lipo>  (98) 
-0.171681

>  <r_i_glide_hbond>  (98) 
-0.106617

>  <r_i_glide_metal>  (98) 
-0

>  <r_i_glide_rewards>  (98) 
-0.00850929

>  <r_i_glide_evdw>  (98) 
-20.553

>  <r_i_glide_ecoul>  (98) 
-7.48673

>  <r_i_glide_erotb>  (98) 
0.120759

>  <r_i_glide_esite>  (98) 
0

>  <r_i_glide_emodel>  (98) 
-30.564

>  <r_i_glide_energy>  (98) 
-28.0397

>  <r_i_glide_einternal>  (98) 
3.07372

>  <r_i_glide_intrahb_reward>  (98) 
-0

>  <i_i_glide_confnum>  (98) 
6

>  <i_i_glide_posenum>  (98) 
35

>  <r_i_glide_eff_state_penalty>  (98) 
0

>  <ligand_id>  (98) 
74

>  <original_smiles>  (98) 
COCC12OC3C4C5OC6(C4C)C4OC6(CO)C(O)C4(CO)OC4(O)OC(CC1C2OC)(C(OC)C=C1OC42CC4OC1(CC1C4C1(C)C)C2=O)C35

>  <smiles>  (98) 
[H]OC([H])([H])C12OC3([O-])OC4(C([H])(OC([H])([H])[H])C([H])=C5OC36C(=O)C53OC([H])(C6([H])[H])C5([H])C([H])(C3([H])[H])C5(C([H])([H])[H])C([H])([H])[H])C([H])([H])C3([H])C([H])(OC([H])([H])[H])C3(C([H])([H])OC([H])([H])[H])OC3([H])C5([H])C([H])(OC6(C1([H])OC6(C([H])([H])O[H])C2([H])O[H])C5([H])C([H])([H])[H])C34[H]

$$$$
74:3:1
     RDKit          3D

 99110  0  0  1  0  0  0  0  0999 V2000
    2.2147    2.3541    2.6015 C   0  0  0  0  0  0  0  0  0  0  0  0
    2.6858    1.1679    3.2261 O   0  0  0  0  0  0  0  0  0  0  0  0
    3.2649    1.4199    4.4942 C   0  0  0  0  0  0  0  0  0  0  0  0
    3.7172    0.1086    5.1582 C   0  0  1  0  0  0  0  0  0  0  0  0
    2.7719   -0.5127    6.0049 O   0  0  0  0  0  0  0  0  0  0  0  0
    1.6396   -1.0706    5.3483 C   0  0  2  0  0  0  0  0  0  0  0  0
    0.7020   -1.8660    6.2815 C   0  0  1  0  0  0  0  0  0  0  0  0
    0.6755   -2.9871    5.2517 C   0  0  2  0  0  0  0  0  0  0  0  0
    0.9709   -4.1773    5.9685 O   0  0  0  0  0  0  0  0  0  0  0  0
    1.4724   -3.9240    7.2692 C   0  0  2  0  0  0  0  0  0  0  0  0
    1.0683   -2.4838    7.6246 C   0  0  1  0  0  0  0  0  0  0  0  0
    2.0394   -1.7010    8.5104 C   0  0  0  0  0  0  0  0  0  0  0  0
    2.8654   -4.5439    7.5110 C   0  0  1  0  0  0  0  0  0  0  0  0
    2.4172   -4.7241    8.8765 O   0  0  0  0  0  0  0  0  0  0  0  0
    1.1833   -5.0952    8.2407 C   0  0  1  0  0  0  0  0  0  0  0  0
   -0.0204   -5.1023    9.1967 C   0  0  0  0  0  0  0  0  0  0  0  0
   -0.1707   -6.3064    9.9283 O   0  0  0  0  0  0  0  0  0  0  0  0
    1.6565   -6.4491    7.7147 C   0  0  1  0  0  0  0  0  0  0  0  0
    0.6884   -6.9824    6.8462 O   0  0  0  0  0  0  0  0  0  0  0  0
    2.9866   -6.0250    7.0746 C   0  0  2  0  0  0  0  0  0  0  0  0
    4.1984   -6.7648    7.7132 C   0  0  0  0  0  0  0  0  0  0  0  0
    4.0509   -8.1683    7.6208 O   0  0  0  0  0  0  0  0  0  0  0  0
    3.0012   -6.2371    5.6337 O   0  0  0  0  0  0  0  0  0  0  0  0
    3.7610   -5.4907    4.7137 C   0  0  2  0  0  0  0  0  0  0  0  0
    4.8344   -5.0391    5.3493 O   0  0  0  0  0  0  0  0  0  0  0  0
    2.9233   -4.4207    4.2427 O   0  0  0  0  0  0  0  0  0  0  0  0
    3.1173   -2.9848    3.9380 C   0  0  1  0  0  0  0  0  0  0  0  0
    4.3680   -2.3744    4.6551 C   0  0  0  0  0  0  0  0  0  0  0  0
    4.6431   -0.8809    4.5106 C   0  0  2  0  0  0  0  0  0  0  0  0
    5.1088   -0.1003    5.7212 C   0  0  1  0  0  0  0  0  0  0  0  0
    5.9457    1.0232    5.4980 O   0  0  0  0  0  0  0  0  0  0  0  0
    7.2950    0.6944    5.2259 C   0  0  0  0  0  0  0  0  0  0  0  0
    3.2067   -2.8187    2.3592 C   0  0  1  0  0  0  0  0  0  0  0  0
    3.5219   -1.4736    2.0144 O   0  0  0  0  0  0  0  0  0  0  0  0
    3.5528   -1.1775    0.6255 C   0  0  0  0  0  0  0  0  0  0  0  0
    4.2619   -3.7705    1.8810 C   0  0  0  0  0  0  0  0  0  0  0  0
    4.1507   -5.1051    1.9138 C   0  0  0  0  0  0  0  0  0  0  0  0
    5.1381   -5.6083    2.7752 O   0  0  0  0  0  0  0  0  0  0  0  0
    4.4219   -6.4871    3.6002 C   0  0  1  0  0  0  0  0  0  0  0  0
    3.8852   -7.9987    3.7611 C   0  0  0  0  0  0  0  0  0  0  0  0
    2.5193   -8.3473    2.9822 C   0  0  2  0  0  0  0  0  0  0  0  0
    2.5842   -7.5894    1.6922 O   0  0  0  0  0  0  0  0  0  0  0  0
    2.9177   -6.1343    1.6055 C   0  0  1  0  0  0  0  0  0  0  0  0
    1.5347   -5.7149    2.2489 C   0  0  0  0  0  0  0  0  0  0  0  0
    0.8545   -6.5144    3.3772 C   0  0  2  0  0  0  0  0  0  0  0  0
    1.2978   -7.9053    3.7132 C   0  0  1  0  0  0  0  0  0  0  0  0
   -0.0784   -7.6913    3.1181 C   0  0  0  0  0  0  0  0  0  0  0  0
   -1.2967   -7.8667    4.0129 C   0  0  0  0  0  0  0  0  0  0  0  0
   -0.4156   -8.1894    1.7305 C   0  0  0  0  0  0  0  0  0  0  0  0
    4.1749   -6.7425    2.1148 C   0  0  0  0  0  0  0  0  0  0  0  0
    4.9198   -7.4643    1.3867 O   0  0  0  0  0  0  0  0  0  0  0  0
    1.7766   -2.2976    4.4079 C   0  0  2  0  0  0  0  0  0  0  0  0
    1.7798    2.1166    1.6304 H   0  0  0  0  0  0  0  0  0  0  0  0
    3.0133    3.0802    2.4448 H   0  0  0  0  0  0  0  0  0  0  0  0
    1.4414    2.8312    3.2032 H   0  0  0  0  0  0  0  0  0  0  0  0
    4.1133    2.0783    4.3293 H   0  0  0  0  0  0  0  0  0  0  0  0
    2.5813    1.9399    5.1657 H   0  0  0  0  0  0  0  0  0  0  0  0
    1.0542   -0.2880    4.8506 H   0  0  0  0  0  0  0  0  0  0  0  0
   -0.2658   -1.3688    6.3108 H   0  0  0  0  0  0  0  0  0  0  0  0
   -0.2800   -3.0572    4.7251 H   0  0  0  0  0  0  0  0  0  0  0  0
    0.1459   -2.5462    8.2001 H   0  0  0  0  0  0  0  0  0  0  0  0
    3.0496   -1.7017    8.1087 H   0  0  0  0  0  0  0  0  0  0  0  0
    2.0860   -2.1472    9.5023 H   0  0  0  0  0  0  0  0  0  0  0  0
    1.7157   -0.6664    8.6253 H   0  0  0  0  0  0  0  0  0  0  0  0
    3.7266   -3.8941    7.4236 H   0  0  0  0  0  0  0  0  0  0  0  0
    0.0224   -4.2678    9.9010 H   0  0  0  0  0  0  0  0  0  0  0  0
   -0.9330   -4.9811    8.6132 H   0  0  0  0  0  0  0  0  0  0  0  0
    0.6215   -6.4480   10.4306 H   0  0  0  0  0  0  0  0  0  0  0  0
    1.8304   -7.1427    8.5356 H   0  0  0  0  0  0  0  0  0  0  0  0
    1.0376   -7.7817    6.4806 H   0  0  0  0  0  0  0  0  0  0  0  0
    5.1578   -6.4941    7.2783 H   0  0  0  0  0  0  0  0  0  0  0  0
    4.2804   -6.5167    8.7698 H   0  0  0  0  0  0  0  0  0  0  0  0
    3.2360   -8.4251    8.0300 H   0  0  0  0  0  0  0  0  0  0  0  0
    4.2784   -2.5767    5.7180 H   0  0  0  0  0  0  0  0  0  0  0  0
    5.2815   -2.8639    4.3271 H   0  0  0  0  0  0  0  0  0  0  0  0
    5.1182   -0.5865    3.5831 H   0  0  0  0  0  0  0  0  0  0  0  0
    5.2664   -0.6301    6.6651 H   0  0  0  0  0  0  0  0  0  0  0  0
    7.8858    1.6058    5.1226 H   0  0  0  0  0  0  0  0  0  0  0  0
    7.3701    0.1479    4.2862 H   0  0  0  0  0  0  0  0  0  0  0  0
    7.7303    0.0999    6.0299 H   0  0  0  0  0  0  0  0  0  0  0  0
    2.2768   -3.0245    1.8366 H   0  0  0  0  0  0  0  0  0  0  0  0
    3.7113   -0.1075    0.4861 H   0  0  0  0  0  0  0  0  0  0  0  0
    2.6140   -1.4433    0.1411 H   0  0  0  0  0  0  0  0  0  0  0  0
    4.3685   -1.6973    0.1223 H   0  0  0  0  0  0  0  0  0  0  0  0
    5.2309   -3.4028    2.1834 H   0  0  0  0  0  0  0  0  0  0  0  0
    4.6539   -8.7179    3.4721 H   0  0  0  0  0  0  0  0  0  0  0  0
    3.7536   -8.2620    4.8076 H   0  0  0  0  0  0  0  0  0  0  0  0
    2.4396   -9.4150    2.7882 H   0  0  0  0  0  0  0  0  0  0  0  0
    1.4182   -4.6758    2.5017 H   0  0  0  0  0  0  0  0  0  0  0  0
    0.8446   -5.8145    1.4174 H   0  0  0  0  0  0  0  0  0  0  0  0
    0.5749   -5.8968    4.2197 H   0  0  0  0  0  0  0  0  0  0  0  0
    1.2893   -8.2264    4.7446 H   0  0  0  0  0  0  0  0  0  0  0  0
   -1.5636   -8.9213    4.0884 H   0  0  0  0  0  0  0  0  0  0  0  0
   -2.1510   -7.3180    3.6192 H   0  0  0  0  0  0  0  0  0  0  0  0
   -1.0903   -7.5010    5.0146 H   0  0  0  0  0  0  0  0  0  0  0  0
   -0.6784   -9.2471    1.7667 H   0  0  0  0  0  0  0  0  0  0  0  0
    0.4203   -8.0649    1.0502 H   0  0  0  0  0  0  0  0  0  0  0  0
   -1.2540   -7.6358    1.3211 H   0  0  0  0  0  0  0  0  0  0  0  0
    1.2238   -1.9908    3.5202 H   0  0  0  0  0  0  0  0  0  0  0  0
  1  2  1  0
  1 53  1  0
  1 54  1  0
  1 55  1  0
  2  3  1  0
  4  3  1  6
  3 56  1  0
  3 57  1  0
  4 29  1  0
  4 30  1  0
  4  5  1  0
  5  6  1  0
  6 52  1  0
  6  7  1  0
  6 58  1  6
  7 11  1  0
  7  8  1  0
  7 59  1  1
  8 52  1  0
  8  9  1  0
  8 60  1  6
 10  9  1  6
 10 15  1  0
 10 11  1  0
 10 13  1  0
 11 12  1  0
 11 61  1  1
 12 62  1  0
 12 63  1  0
 12 64  1  0
 13 20  1  0
 13 14  1  0
 13 65  1  1
 14 15  1  0
 15 16  1  1
 15 18  1  0
 16 17  1  0
 16 66  1  0
 16 67  1  0
 17 68  1  0
 18 19  1  0
 18 20  1  0
 18 69  1  1
 19 70  1  0
 20 21  1  1
 20 23  1  0
 21 22  1  0
 21 71  1  0
 21 72  1  0
 22 73  1  0
 23 24  1  0
 24 39  1  0
 24 25  1  1
 24 26  1  0
 26 27  1  0
 27 28  1  1
 27 33  1  0
 27 52  1  0
 28 29  1  0
 28 74  1  0
 28 75  1  0
 29 30  1  0
 29 76  1  6
 30 31  1  0
 30 77  1  1
 31 32  1  0
 32 78  1  0
 32 79  1  0
 32 80  1  0
 33 34  1  0
 33 36  1  0
 33 81  1  6
 34 35  1  0
 35 82  1  0
 35 83  1  0
 35 84  1  0
 36 37  2  3
 36 85  1  0
 37 43  1  0
 37 38  1  0
 38 39  1  0
 39 50  1  0
 39 40  1  1
 40 41  1  0
 40 86  1  0
 40 87  1  0
 41 46  1  0
 41 42  1  0
 41 88  1  6
 42 43  1  0
 43 44  1  6
 43 50  1  0
 44 45  1  0
 44 89  1  0
 44 90  1  0
 45 47  1  0
 45 46  1  0
 45 91  1  1
 46 47  1  0
 46 92  1  1
 47 48  1  0
 47 49  1  0
 48 93  1  0
 48 94  1  0
 48 95  1  0
 49 96  1  0
 49 97  1  0
 49 98  1  0
 50 51  2  0
 52 99  1  6
M  CHG  1  25  -1
M  END
>  <i_m_ct_stereo_status>  (99) 
1

>  <s_m_source_file>  (99) 
/var/tmp/pbs.5076253.sched01/tmp0k8q0ypy/944rjgrua_.sdf

>  <i_m_source_file_index>  (99) 
30

>  <i_lp_mmshare_version>  (99) 
48012

>  <i_f3d_flags>  (99) 
0

>  <s_epik_input>  (99) 
W0NIM11PW0NAQEhdMVtDQEBIXShbQ0gyXTIpW0NAQF0xKFtDSDJdT1tDSDNdKU9bQ0BIXShbQ0BASF0oW0NAQEhdM080KVtDQEBIXTVbQ0gzXSlbQ0BIXTNbQ0BAXTIoTzYpW0NAQEhdKE9bQ0gzXSkvW0NIXT1DKFtDQF03KEM4PU8pT1tDQEBIXShbQ0gyXTkpW0NASF0xW0NAQEhdKFtDSDJdNylDMShbQ0gzXSlbQ0gzXSlcT1tDQEBdODlbQ0BdNihbT0hdKU9bQ0BdKFtDQEhdMVtDQF0yNDUpKFtDSDJdW09IXSlbQ0BIXShbT0hdKVtDQF0yKE8xKVtDSDJdW09IXQ==

>  <s_epik_cmdline>  (99) 
J2VwaWtfcHl0aG9uJywgJy1waHQnLCAnMi4wJywgJy1waCcsICc3LjAnLCAnLXRuJywgJzgnLCAnLW1hJywgJzIwMCcsICctaW1hZScsICc8aW5maWxlLm1hZT4nLCAnLW9tYWUnLCAnPG91dGZpbGUubWFlPic=

>  <r_lp_tautomer_probability>  (99) 
1

>  <r_epik_Ionization_Penalty>  (99) 
1.07135

>  <r_epik_Ionization_Penalty_Charging>  (99) 
1.07135

>  <r_epik_Ionization_Penalty_Neutral>  (99) 
7.87286e-06

>  <r_epik_State_Penalty>  (99) 
1.12595

>  <r_epik_Charging_Adjusted_Penalty>  (99) 
2.1973

>  <i_epik_Tot_Q>  (99) 
-1

>  <i_epik_Tot_abs_Q>  (99) 
1

>  <s_lp_Force_Field>  (99) 
OPLS3e

>  <r_lp_Energy>  (99) 
418.256

>  <b_lp_Chiralities_Consistent>  (99) 
1

>  <s_lp_Variant>  (99) 
74:0-4

>  <s_i_glide_gridfile>  (99) 
pfpi4k_grid

>  <i_i_glide_lignum>  (99) 
30

>  <i_i_glide_rotatable_bonds>  (99) 
9

>  <r_i_docking_score>  (99) 
-2.27483

>  <r_i_glide_ligand_efficiency>  (99) 
-0.0437468

>  <r_i_glide_ligand_efficiency_sa>  (99) 
-0.163285

>  <r_i_glide_ligand_efficiency_ln>  (99) 
-0.459447

>  <r_i_glide_gscore>  (99) 
-2.27483

>  <r_i_glide_lipo>  (99) 
-0.315303

>  <r_i_glide_hbond>  (99) 
0

>  <r_i_glide_metal>  (99) 
-0

>  <r_i_glide_rewards>  (99) 
-0.0270177

>  <r_i_glide_evdw>  (99) 
-26.0786

>  <r_i_glide_ecoul>  (99) 
-4.99561

>  <r_i_glide_erotb>  (99) 
0.120759

>  <r_i_glide_esite>  (99) 
0

>  <r_i_glide_emodel>  (99) 
-34.0077

>  <r_i_glide_energy>  (99) 
-31.0742

>  <r_i_glide_einternal>  (99) 
2.57071

>  <r_i_glide_intrahb_reward>  (99) 
-0

>  <i_i_glide_confnum>  (99) 
4

>  <i_i_glide_posenum>  (99) 
15

>  <r_i_glide_eff_state_penalty>  (99) 
0

>  <ligand_id>  (99) 
74

>  <original_smiles>  (99) 
COCC12OC3C4C5OC6(C4C)C4OC6(CO)C(O)C4(CO)OC4(O)OC(CC1C2OC)(C(OC)C=C1OC42CC4OC1(CC1C4C1(C)C)C2=O)C35

>  <smiles>  (99) 
[H]OC([H])([H])C12OC3([O-])OC4(C([H])(OC([H])([H])[H])C([H])=C5OC36C(=O)C53OC([H])(C6([H])[H])C5([H])C([H])(C3([H])[H])C5(C([H])([H])[H])C([H])([H])[H])C([H])([H])C3([H])C([H])(OC([H])([H])[H])C3(C([H])([H])OC([H])([H])[H])OC3([H])C5([H])C([H])(OC6(C1([H])OC6(C([H])([H])O[H])C2([H])O[H])C5([H])C([H])([H])[H])C34[H]

$$$$
74:3:2
     RDKit          3D

 99110  0  0  1  0  0  0  0  0999 V2000
   -1.9307    1.2725    6.8189 C   0  0  0  0  0  0  0  0  0  0  0  0
   -0.9934    0.3143    7.2766 O   0  0  0  0  0  0  0  0  0  0  0  0
   -0.5884   -0.6042    6.2741 C   0  0  0  0  0  0  0  0  0  0  0  0
    0.5403   -1.5018    6.7892 C   0  0  1  0  0  0  0  0  0  0  0  0
    0.1572   -2.7767    7.2755 O   0  0  0  0  0  0  0  0  0  0  0  0
   -0.2705   -3.7072    6.2876 C   0  0  2  0  0  0  0  0  0  0  0  0
   -0.5180   -5.1297    6.8218 C   0  0  1  0  0  0  0  0  0  0  0  0
    0.2438   -5.6777    5.6239 C   0  0  2  0  0  0  0  0  0  0  0  0
    1.2150   -6.5666    6.1458 O   0  0  0  0  0  0  0  0  0  0  0  0
    1.3436   -6.4553    7.5529 C   0  0  2  0  0  0  0  0  0  0  0  0
    0.0864   -5.7454    8.0679 C   0  0  1  0  0  0  0  0  0  0  0  0
    0.2666   -4.8270    9.2842 C   0  0  0  0  0  0  0  0  0  0  0  0
    2.7933   -6.1399    7.9904 C   0  0  1  0  0  0  0  0  0  0  0  0
    2.4906   -6.9495    9.1516 O   0  0  0  0  0  0  0  0  0  0  0  0
    1.8240   -7.7816    8.1831 C   0  0  1  0  0  0  0  0  0  0  0  0
    0.8925   -8.8054    8.8481 C   0  0  0  0  0  0  0  0  0  0  0  0
    0.2073   -9.5703    7.8752 O   0  0  0  0  0  0  0  0  0  0  0  0
    3.1065   -8.3385    7.5758 C   0  0  1  0  0  0  0  0  0  0  0  0
    2.8625   -9.1022    6.4239 O   0  0  0  0  0  0  0  0  0  0  0  0
    3.8765   -7.0285    7.3343 C   0  0  2  0  0  0  0  0  0  0  0  0
    5.2419   -7.0118    8.0832 C   0  0  0  0  0  0  0  0  0  0  0  0
    6.0369   -8.1337    7.7439 O   0  0  0  0  0  0  0  0  0  0  0  0
    4.1002   -6.7648    5.9176 O   0  0  0  0  0  0  0  0  0  0  0  0
    4.2468   -5.4718    5.3602 C   0  0  2  0  0  0  0  0  0  0  0  0
    4.7294   -4.6732    6.2761 O   0  0  0  0  0  0  0  0  0  0  0  0
    2.9354   -5.0709    4.8926 O   0  0  0  0  0  0  0  0  0  0  0  0
    2.1640   -3.8094    4.9203 C   0  0  1  0  0  0  0  0  0  0  0  0
    2.6794   -2.7975    6.0005 C   0  0  0  0  0  0  0  0  0  0  0  0
    1.9288   -1.4906    6.2035 C   0  0  2  0  0  0  0  0  0  0  0  0
    1.7084   -0.9759    7.6093 C   0  0  1  0  0  0  0  0  0  0  0  0
    1.6392    0.4327    7.7673 O   0  0  0  0  0  0  0  0  0  0  0  0
    2.8897    1.0491    7.9963 C   0  0  0  0  0  0  0  0  0  0  0  0
    2.2073   -3.1797    3.4589 C   0  0  1  0  0  0  0  0  0  0  0  0
    1.5764   -1.9007    3.4428 O   0  0  0  0  0  0  0  0  0  0  0  0
    1.5208   -1.2469    2.1793 C   0  0  0  0  0  0  0  0  0  0  0  0
    3.6476   -3.0987    3.0555 C   0  0  0  0  0  0  0  0  0  0  0  0
    4.4309   -4.1653    2.8169 C   0  0  0  0  0  0  0  0  0  0  0  0
    5.4508   -4.1749    3.7775 O   0  0  0  0  0  0  0  0  0  0  0  0
    5.4441   -5.4964    4.2439 C   0  0  1  0  0  0  0  0  0  0  0  0
    6.0159   -6.9862    4.0039 C   0  0  0  0  0  0  0  0  0  0  0  0
    5.2529   -7.8582    2.8852 C   0  0  2  0  0  0  0  0  0  0  0  0
    4.8820   -6.8911    1.8060 O   0  0  0  0  0  0  0  0  0  0  0  0
    4.1835   -5.5931    2.0624 C   0  0  1  0  0  0  0  0  0  0  0  0
    2.8264   -6.3114    2.4405 C   0  0  0  0  0  0  0  0  0  0  0  0
    2.7763   -7.6370    3.2186 C   0  0  2  0  0  0  0  0  0  0  0  0
    4.0000   -8.4854    3.3912 C   0  0  1  0  0  0  0  0  0  0  0  0
    2.8536   -9.0004    2.5483 C   0  0  0  0  0  0  0  0  0  0  0  0
    1.9945  -10.1314    3.0946 C   0  0  0  0  0  0  0  0  0  0  0  0
    3.0005   -9.1730    1.0531 C   0  0  0  0  0  0  0  0  0  0  0  0
    5.5054   -5.4140    2.7250 C   0  0  0  0  0  0  0  0  0  0  0  0
    6.5806   -5.2813    2.0649 O   0  0  0  0  0  0  0  0  0  0  0  0
    0.6812   -4.2562    5.1951 C   0  0  2  0  0  0  0  0  0  0  0  0
   -2.1946    1.9494    7.6336 H   0  0  0  0  0  0  0  0  0  0  0  0
   -2.8449    0.7854    6.4796 H   0  0  0  0  0  0  0  0  0  0  0  0
   -1.5246    1.8730    6.0025 H   0  0  0  0  0  0  0  0  0  0  0  0
   -1.4490   -1.1899    5.9538 H   0  0  0  0  0  0  0  0  0  0  0  0
   -0.2256   -0.0626    5.4016 H   0  0  0  0  0  0  0  0  0  0  0  0
   -1.1980   -3.3722    5.8230 H   0  0  0  0  0  0  0  0  0  0  0  0
   -1.5756   -5.3673    6.7231 H   0  0  0  0  0  0  0  0  0  0  0  0
   -0.4015   -6.1722    4.8958 H   0  0  0  0  0  0  0  0  0  0  0  0
   -0.6066   -6.5174    8.3926 H   0  0  0  0  0  0  0  0  0  0  0  0
    1.0547   -4.0919    9.1278 H   0  0  0  0  0  0  0  0  0  0  0  0
    0.5417   -5.4155   10.1595 H   0  0  0  0  0  0  0  0  0  0  0  0
   -0.6599   -4.2994    9.5159 H   0  0  0  0  0  0  0  0  0  0  0  0
    3.0350   -5.1046    8.2273 H   0  0  0  0  0  0  0  0  0  0  0  0
    1.4413   -9.4721    9.5149 H   0  0  0  0  0  0  0  0  0  0  0  0
    0.1448   -8.3156    9.4731 H   0  0  0  0  0  0  0  0  0  0  0  0
    0.6767  -10.3801    7.7048 H   0  0  0  0  0  0  0  0  0  0  0  0
    3.6117   -8.9758    8.2994 H   0  0  0  0  0  0  0  0  0  0  0  0
    2.3410   -9.8479    6.6735 H   0  0  0  0  0  0  0  0  0  0  0  0
    5.8276   -6.1123    7.9069 H   0  0  0  0  0  0  0  0  0  0  0  0
    5.0821   -7.0487    9.1603 H   0  0  0  0  0  0  0  0  0  0  0  0
    5.5275   -8.9175    7.8751 H   0  0  0  0  0  0  0  0  0  0  0  0
    2.6863   -3.3080    6.9604 H   0  0  0  0  0  0  0  0  0  0  0  0
    3.7084   -2.5074    5.7975 H   0  0  0  0  0  0  0  0  0  0  0  0
    2.1634   -0.7087    5.4870 H   0  0  0  0  0  0  0  0  0  0  0  0
    2.1085   -1.5397    8.4547 H   0  0  0  0  0  0  0  0  0  0  0  0
    2.7421    2.1146    8.1859 H   0  0  0  0  0  0  0  0  0  0  0  0
    3.5249    0.9427    7.1168 H   0  0  0  0  0  0  0  0  0  0  0  0
    3.3932    0.6200    8.8637 H   0  0  0  0  0  0  0  0  0  0  0  0
    1.6696   -3.7547    2.7098 H   0  0  0  0  0  0  0  0  0  0  0  0
    0.9537   -0.3184    2.2732 H   0  0  0  0  0  0  0  0  0  0  0  0
    1.0194   -1.8593    1.4353 H   0  0  0  0  0  0  0  0  0  0  0  0
    2.5147   -0.9875    1.8094 H   0  0  0  0  0  0  0  0  0  0  0  0
    4.1361   -2.3262    3.6333 H   0  0  0  0  0  0  0  0  0  0  0  0
    7.0812   -6.9644    3.7678 H   0  0  0  0  0  0  0  0  0  0  0  0
    6.0298   -7.5608    4.9269 H   0  0  0  0  0  0  0  0  0  0  0  0
    5.8951   -8.6408    2.4890 H   0  0  0  0  0  0  0  0  0  0  0  0
    2.0602   -5.6824    2.8533 H   0  0  0  0  0  0  0  0  0  0  0  0
    2.3883   -6.5530    1.4740 H   0  0  0  0  0  0  0  0  0  0  0  0
    2.1151   -7.5960    4.0754 H   0  0  0  0  0  0  0  0  0  0  0  0
    4.1400   -9.0187    4.3211 H   0  0  0  0  0  0  0  0  0  0  0  0
    2.4671  -11.0959    2.9142 H   0  0  0  0  0  0  0  0  0  0  0  0
    1.0129  -10.1340    2.6239 H   0  0  0  0  0  0  0  0  0  0  0  0
    1.8520  -10.0255    4.1671 H   0  0  0  0  0  0  0  0  0  0  0  0
    3.4793  -10.1236    0.8467 H   0  0  0  0  0  0  0  0  0  0  0  0
    3.6079   -8.3970    0.6006 H   0  0  0  0  0  0  0  0  0  0  0  0
    2.0174   -9.1580    0.5901 H   0  0  0  0  0  0  0  0  0  0  0  0
    0.1151   -4.1149    4.2771 H   0  0  0  0  0  0  0  0  0  0  0  0
  1  2  1  0
  1 53  1  0
  1 54  1  0
  1 55  1  0
  2  3  1  0
  4  3  1  6
  3 56  1  0
  3 57  1  0
  4 29  1  0
  4 30  1  0
  4  5  1  0
  5  6  1  0
  6 52  1  0
  6  7  1  0
  6 58  1  6
  7 11  1  0
  7  8  1  0
  7 59  1  6
  8 52  1  0
  8  9  1  0
  8 60  1  6
 10  9  1  6
 10 15  1  0
 10 11  1  0
 10 13  1  0
 11 12  1  0
 11 61  1  1
 12 62  1  0
 12 63  1  0
 12 64  1  0
 13 20  1  0
 13 14  1  0
 13 65  1  1
 14 15  1  0
 15 16  1  1
 15 18  1  0
 16 17  1  0
 16 66  1  0
 16 67  1  0
 17 68  1  0
 18 19  1  0
 18 20  1  0
 18 69  1  1
 19 70  1  0
 20 21  1  1
 20 23  1  0
 21 22  1  0
 21 71  1  0
 21 72  1  0
 22 73  1  0
 23 24  1  0
 24 39  1  0
 24 25  1  1
 24 26  1  0
 26 27  1  0
 27 28  1  1
 27 33  1  0
 27 52  1  0
 28 29  1  0
 28 74  1  0
 28 75  1  0
 29 30  1  0
 29 76  1  6
 30 31  1  0
 30 77  1  1
 31 32  1  0
 32 78  1  0
 32 79  1  0
 32 80  1  0
 33 34  1  0
 33 36  1  0
 33 81  1  6
 34 35  1  0
 35 82  1  0
 35 83  1  0
 35 84  1  0
 36 37  2  3
 36 85  1  0
 37 43  1  0
 37 38  1  0
 38 39  1  0
 39 50  1  0
 39 40  1  1
 40 41  1  0
 40 86  1  0
 40 87  1  0
 41 46  1  0
 41 42  1  0
 41 88  1  6
 42 43  1  0
 43 44  1  6
 43 50  1  0
 44 45  1  0
 44 89  1  0
 44 90  1  0
 45 47  1  0
 45 46  1  0
 45 91  1  1
 46 47  1  0
 46 92  1  1
 47 48  1  0
 47 49  1  0
 48 93  1  0
 48 94  1  0
 48 95  1  0
 49 96  1  0
 49 97  1  0
 49 98  1  0
 50 51  2  0
 52 99  1  6
M  CHG  1  25  -1
M  END
>  <i_m_ct_stereo_status>  (100) 
1

>  <s_m_source_file>  (100) 
/var/tmp/pbs.5076253.sched01/tmp0k8q0ypy/944rjgrua_.sdf

>  <i_m_source_file_index>  (100) 
30

>  <i_lp_mmshare_version>  (100) 
48012

>  <i_f3d_flags>  (100) 
0

>  <s_epik_input>  (100) 
W0NIM11PW0NAQEhdMVtDQEBIXShbQ0gyXTIpW0NAQF0xKFtDSDJdT1tDSDNdKU9bQ0BIXShbQ0BASF0oW0NAQEhdM080KVtDQEBIXTVbQ0gzXSlbQ0BIXTNbQ0BAXTIoTzYpW0NAQEhdKE9bQ0gzXSkvW0NIXT1DKFtDQF03KEM4PU8pT1tDQEBIXShbQ0gyXTkpW0NASF0xW0NAQEhdKFtDSDJdNylDMShbQ0gzXSlbQ0gzXSlcT1tDQEBdODlbQ0BdNihbT0hdKU9bQ0BdKFtDQEhdMVtDQF0yNDUpKFtDSDJdW09IXSlbQ0BIXShbT0hdKVtDQF0yKE8xKVtDSDJdW09IXQ==

>  <s_epik_cmdline>  (100) 
J2VwaWtfcHl0aG9uJywgJy1waHQnLCAnMi4wJywgJy1waCcsICc3LjAnLCAnLXRuJywgJzgnLCAnLW1hJywgJzIwMCcsICctaW1hZScsICc8aW5maWxlLm1hZT4nLCAnLW9tYWUnLCAnPG91dGZpbGUubWFlPic=

>  <r_lp_tautomer_probability>  (100) 
1

>  <r_epik_Ionization_Penalty>  (100) 
1.07135

>  <r_epik_Ionization_Penalty_Charging>  (100) 
1.07135

>  <r_epik_Ionization_Penalty_Neutral>  (100) 
7.87286e-06

>  <r_epik_State_Penalty>  (100) 
1.12595

>  <r_epik_Charging_Adjusted_Penalty>  (100) 
2.1973

>  <i_epik_Tot_Q>  (100) 
-1

>  <i_epik_Tot_abs_Q>  (100) 
1

>  <s_lp_Force_Field>  (100) 
OPLS3e

>  <r_lp_Energy>  (100) 
418.256

>  <b_lp_Chiralities_Consistent>  (100) 
1

>  <s_lp_Variant>  (100) 
74:0-4

>  <s_i_glide_gridfile>  (100) 
pfpi4k_grid

>  <i_i_glide_lignum>  (100) 
30

>  <i_i_glide_rotatable_bonds>  (100) 
9

>  <r_i_docking_score>  (100) 
-2.04467

>  <r_i_glide_ligand_efficiency>  (100) 
-0.0393205

>  <r_i_glide_ligand_efficiency_sa>  (100) 
-0.146764

>  <r_i_glide_ligand_efficiency_ln>  (100) 
-0.41296

>  <r_i_glide_gscore>  (100) 
-2.04467

>  <r_i_glide_lipo>  (100) 
-0.123967

>  <r_i_glide_hbond>  (100) 
-0.113754

>  <r_i_glide_metal>  (100) 
-0

>  <r_i_glide_rewards>  (100) 
-0.0128431

>  <r_i_glide_evdw>  (100) 
-21.8437

>  <r_i_glide_ecoul>  (100) 
-5.48453

>  <r_i_glide_erotb>  (100) 
0.120759

>  <r_i_glide_esite>  (100) 
0

>  <r_i_glide_emodel>  (100) 
-30.141

>  <r_i_glide_energy>  (100) 
-27.3282

>  <r_i_glide_einternal>  (100) 
1.72789

>  <r_i_glide_intrahb_reward>  (100) 
-0

>  <i_i_glide_confnum>  (100) 
6

>  <i_i_glide_posenum>  (100) 
11

>  <r_i_glide_eff_state_penalty>  (100) 
0

>  <ligand_id>  (100) 
74

>  <original_smiles>  (100) 
COCC12OC3C4C5OC6(C4C)C4OC6(CO)C(O)C4(CO)OC4(O)OC(CC1C2OC)(C(OC)C=C1OC42CC4OC1(CC1C4C1(C)C)C2=O)C35

>  <smiles>  (100) 
[H]OC([H])([H])C12OC3([O-])OC4(C([H])(OC([H])([H])[H])C([H])=C5OC36C(=O)C53OC([H])(C6([H])[H])C5([H])C([H])(C3([H])[H])C5(C([H])([H])[H])C([H])([H])[H])C([H])([H])C3([H])C([H])(OC([H])([H])[H])C3(C([H])([H])OC([H])([H])[H])OC3([H])C5([H])C([H])(OC6(C1([H])OC6(C([H])([H])O[H])C2([H])O[H])C5([H])C([H])([H])[H])C34[H]

$$$$
76:0:0
     RDKit          3D

 84 96  0  0  1  0  0  0  0  0999 V2000
   -1.2254   -7.5401    3.2837 C   0  0  0  0  0  0  0  0  0  0  0  0
   -0.1901   -7.5222    2.1368 C   0  0  2  0  0  0  0  0  0  0  0  0
    0.7564   -8.5332    2.2725 O   0  0  0  0  0  0  0  0  0  0  0  0
    1.7460   -8.3423    3.2711 C   0  0  0  0  0  0  0  0  0  0  0  0
    2.4164   -6.9676    3.0848 C   0  0  1  0  0  0  0  0  0  0  0  0
    3.2291   -6.9364    1.9216 O   0  0  0  0  0  0  0  0  0  0  0  0
    4.3190   -6.0838    1.9038 C   0  0  0  0  0  0  0  0  0  0  0  0
    5.4725   -6.3780    2.5221 C   0  0  0  0  0  0  0  0  0  0  0  0
    5.6751   -7.3015    3.6793 C   0  0  0  0  0  0  0  0  0  0  0  0
    5.8547   -6.4800    4.9659 C   0  0  1  0  0  0  0  0  0  0  0  0
    6.8228   -5.4076    4.8504 O   0  0  0  0  0  0  0  0  0  0  0  0
    5.5279   -5.0214    5.2915 C   0  0  2  0  0  0  0  0  0  0  0  0
    5.2962   -4.4251    6.6641 C   0  0  2  0  0  0  0  0  0  0  0  0
    4.9146   -5.1902    7.9183 C   0  0  0  0  0  0  0  0  0  0  0  0
    3.5542   -4.5777    8.3530 C   0  0  2  0  0  0  0  0  0  0  0  0
    2.6845   -5.1448    7.3842 O   0  0  0  0  0  0  0  0  0  0  0  0
    2.6970   -4.4121    6.1610 C   0  0  1  0  0  0  0  0  0  0  0  0
    1.4331   -3.5727    6.3029 C   0  0  2  0  0  0  0  0  0  0  0  0
    0.2710   -4.4294    6.4235 O   0  0  0  0  0  0  0  0  0  0  0  0
    0.2214   -3.3770    5.4748 C   0  0  1  0  0  0  0  0  0  0  0  0
   -0.4194   -2.1047    5.9861 C   0  0  1  0  0  0  0  0  0  0  0  0
   -1.8032   -2.2706    6.0608 O   0  0  0  0  0  0  0  0  0  0  0  0
    0.2154   -1.8373    7.2151 O   0  0  0  0  0  0  0  0  0  0  0  0
    1.5303   -2.3171    7.1449 C   0  0  1  0  0  0  0  0  0  0  0  0
    2.1677   -2.5687    8.3633 O   0  0  0  0  0  0  0  0  0  0  0  0
    3.5102   -2.9824    8.2096 C   0  0  2  0  0  0  0  0  0  0  0  0
    4.0654   -2.5636    6.9489 O   0  0  0  0  0  0  0  0  0  0  0  0
    4.0656   -3.6900    6.0811 C   0  0  1  0  0  0  0  0  0  0  0  0
    4.6580   -3.8725    4.7040 C   0  0  0  0  0  0  0  0  0  0  0  0
    5.4168   -2.7154    4.3091 O   0  0  0  0  0  0  0  0  0  0  0  0
    4.3828   -3.1317    3.4024 C   0  0  1  0  0  0  0  0  0  0  0  0
    4.8469   -3.5823    2.0316 C   0  0  2  0  0  0  0  0  0  0  0  0
    5.3031   -2.5833    0.9401 C   0  0  1  0  0  0  0  0  0  0  0  0
    6.6058   -1.8595    1.2778 C   0  0  0  0  0  0  0  0  0  0  0  0
    5.6388   -3.5819   -0.0134 O   0  0  0  0  0  0  0  0  0  0  0  0
    4.5434   -4.4461   -0.1412 C   0  0  2  0  0  0  0  0  0  0  0  0
    4.9361   -5.6594   -0.7159 O   0  0  0  0  0  0  0  0  0  0  0  0
    3.6504   -3.7081   -1.1554 C   0  0  0  0  0  0  0  0  0  0  0  0
    3.3336   -2.2714   -0.7370 C   0  0  0  0  0  0  0  0  0  0  0  0
    4.3304   -1.5972    0.2322 C   0  0  1  0  0  0  0  0  0  0  0  0
    3.6215   -0.5859    1.1507 C   0  0  0  0  0  0  0  0  0  0  0  0
    4.0128   -4.6780    1.3256 C   0  0  1  0  0  0  0  0  0  0  0  0
    2.4857   -4.4269    1.4565 C   0  0  0  0  0  0  0  0  0  0  0  0
    1.9099   -4.6620    2.7444 O   0  0  0  0  0  0  0  0  0  0  0  0
    1.3210   -5.9111    2.9568 C   0  0  1  0  0  0  0  0  0  0  0  0
    0.3798   -6.2564    1.9701 O   0  0  0  0  0  0  0  0  0  0  0  0
   -0.7630   -7.4348    4.2642 H   0  0  0  0  0  0  0  0  0  0  0  0
   -1.7790   -8.4808    3.2683 H   0  0  0  0  0  0  0  0  0  0  0  0
   -1.9405   -6.7295    3.1502 H   0  0  0  0  0  0  0  0  0  0  0  0
   -0.7106   -7.7549    1.2038 H   0  0  0  0  0  0  0  0  0  0  0  0
    1.2871   -8.4375    4.2578 H   0  0  0  0  0  0  0  0  0  0  0  0
    2.4722   -9.1543    3.1989 H   0  0  0  0  0  0  0  0  0  0  0  0
    2.9912   -6.7557    3.9816 H   0  0  0  0  0  0  0  0  0  0  0  0
    6.3640   -5.7937    2.3810 H   0  0  0  0  0  0  0  0  0  0  0  0
    4.8447   -7.9916    3.7899 H   0  0  0  0  0  0  0  0  0  0  0  0
    6.5689   -7.9015    3.5168 H   0  0  0  0  0  0  0  0  0  0  0  0
    6.0188   -7.1045    5.8365 H   0  0  0  0  0  0  0  0  0  0  0  0
    6.0662   -3.6803    6.8871 H   0  0  0  0  0  0  0  0  0  0  0  0
    4.8209   -6.2657    7.7566 H   0  0  0  0  0  0  0  0  0  0  0  0
    5.6483   -5.0493    8.7114 H   0  0  0  0  0  0  0  0  0  0  0  0
    3.2418   -4.8839    9.3454 H   0  0  0  0  0  0  0  0  0  0  0  0
    2.5791   -5.1047    5.3415 H   0  0  0  0  0  0  0  0  0  0  0  0
    0.1096   -3.6904    4.4435 H   0  0  0  0  0  0  0  0  0  0  0  0
   -0.2390   -1.2632    5.3140 H   0  0  0  0  0  0  0  0  0  0  0  0
   -1.9768   -3.1787    6.3005 H   0  0  0  0  0  0  0  0  0  0  0  0
    2.0653   -1.5113    6.6349 H   0  0  0  0  0  0  0  0  0  0  0  0
    4.0760   -2.5244    9.0231 H   0  0  0  0  0  0  0  0  0  0  0  0
    3.4840   -2.5208    3.4052 H   0  0  0  0  0  0  0  0  0  0  0  0
    5.8190   -3.9633    2.2894 H   0  0  0  0  0  0  0  0  0  0  0  0
    6.4653   -1.1223    2.0721 H   0  0  0  0  0  0  0  0  0  0  0  0
    7.0291   -1.3494    0.4139 H   0  0  0  0  0  0  0  0  0  0  0  0
    7.3502   -2.5895    1.5947 H   0  0  0  0  0  0  0  0  0  0  0  0
    4.3312   -5.8516   -1.4156 H   0  0  0  0  0  0  0  0  0  0  0  0
    4.1949   -3.6831   -2.1045 H   0  0  0  0  0  0  0  0  0  0  0  0
    2.7335   -4.2599   -1.3459 H   0  0  0  0  0  0  0  0  0  0  0  0
    3.2621   -1.6576   -1.6313 H   0  0  0  0  0  0  0  0  0  0  0  0
    2.3269   -2.2603   -0.3354 H   0  0  0  0  0  0  0  0  0  0  0  0
    4.9641   -0.9925   -0.4241 H   0  0  0  0  0  0  0  0  0  0  0  0
    2.8474   -1.0363    1.7715 H   0  0  0  0  0  0  0  0  0  0  0  0
    3.1191    0.1571    0.5387 H   0  0  0  0  0  0  0  0  0  0  0  0
    4.3193   -0.0499    1.7947 H   0  0  0  0  0  0  0  0  0  0  0  0
    2.2767   -3.3779    1.3296 H   0  0  0  0  0  0  0  0  0  0  0  0
    1.9297   -4.9493    0.6808 H   0  0  0  0  0  0  0  0  0  0  0  0
    0.7916   -5.8313    3.8988 H   0  0  0  0  0  0  0  0  0  0  0  0
  1  2  1  0
  1 47  1  0
  1 48  1  0
  1 49  1  0
  2 46  1  0
  2  3  1  0
  2 50  1  6
  3  4  1  0
  4  5  1  0
  4 51  1  0
  4 52  1  0
  5 45  1  0
  5  6  1  0
  5 53  1  1
  6  7  1  0
  7 42  1  0
  7  8  2  3
  8  9  1  0
  8 54  1  0
  9 10  1  0
  9 55  1  0
  9 56  1  0
 10 12  1  0
 10 11  1  0
 10 57  1  1
 12 11  1  6
 12 29  1  0
 12 13  1  0
 13 28  1  0
 13 14  1  0
 13 58  1  1
 14 15  1  0
 14 59  1  0
 14 60  1  0
 15 26  1  0
 15 16  1  0
 15 61  1  1
 16 17  1  0
 17 28  1  0
 17 18  1  0
 17 62  1  6
 18 20  1  0
 18 24  1  0
 18 19  1  1
 19 20  1  0
 20 21  1  0
 20 63  1  6
 21 22  1  0
 21 23  1  0
 21 64  1  6
 22 65  1  0
 23 24  1  0
 24 25  1  0
 24 66  1  6
 25 26  1  0
 26 27  1  0
 26 67  1  1
 27 28  1  0
 28 29  1  6
 29 31  1  0
 29 30  1  0
 30 31  1  0
 31 32  1  0
 31 68  1  6
 32 42  1  0
 32 33  1  0
 32 69  1  1
 33 40  1  0
 33 34  1  1
 33 35  1  0
 34 70  1  0
 34 71  1  0
 34 72  1  0
 35 36  1  0
 36 37  1  6
 36 38  1  0
 36 42  1  0
 37 73  1  0
 38 39  1  0
 38 74  1  0
 38 75  1  0
 39 40  1  0
 39 76  1  0
 39 77  1  0
 40 41  1  0
 40 78  1  6
 41 79  1  0
 41 80  1  0
 41 81  1  0
 42 43  1  6
 43 44  1  0
 43 82  1  0
 43 83  1  0
 44 45  1  0
 45 46  1  0
 45 84  1  1
M  END
>  <i_m_ct_stereo_status>  (101) 
1

>  <s_m_source_file>  (101) 
/var/tmp/pbs.5076253.sched01/tmp0k8q0ypy/944rjgrua_.sdf

>  <i_m_source_file_index>  (101) 
32

>  <i_lp_mmshare_version>  (101) 
48012

>  <i_f3d_flags>  (101) 
0

>  <s_epik_input>  (101) 
W0NIMl0xT1tDQEBIXShbQ0gzXSlPW0NASF0oT1tDSDJdMilbQ0BASF0xTy9DKD1bQ0hdXFtDSDJdW0NASF0zTzQpW0NAXTIoQzUoW09IXSlPW0NAQF02KFtDSDNdKVtDQEhdKFtDSDNdKVtDSDJdW0NIMl01KVtDQEBIXTZbQ0BIXShPNylbQ0BdNyhbQ0BAXTM0OClbQ0BAXTE5W0NASF04W0NIMl1bQ0BIXTJbQ0BASF0oTzEpT1tDQEhdMVtDQF0zKFtDQEBIXTlPMilbQ0BASF0oTzMpW0NASF0oTzEpW09IXQ==

>  <s_epik_cmdline>  (101) 
J2VwaWtfcHl0aG9uJywgJy1waHQnLCAnMi4wJywgJy1waCcsICc3LjAnLCAnLXRuJywgJzgnLCAnLW1hJywgJzIwMCcsICctaW1hZScsICc8aW5maWxlLm1hZT4nLCAnLW9tYWUnLCAnPG91dGZpbGUubWFlPic=

>  <r_lp_tautomer_probability>  (101) 
1

>  <r_epik_Ionization_Penalty>  (101) 
1.39393e-05

>  <r_epik_Ionization_Penalty_Charging>  (101) 
0

>  <r_epik_Ionization_Penalty_Neutral>  (101) 
1.39393e-05

>  <r_epik_State_Penalty>  (101) 
-0

>  <r_epik_Charging_Adjusted_Penalty>  (101) 
0

>  <i_epik_Tot_Q>  (101) 
0

>  <i_epik_Tot_abs_Q>  (101) 
0

>  <s_epik_Chemistry_Notes>  (101) 
This compound contains an acetal/aminal-like group ( X-CH(R)-Y where X, Y are N, S, or O) that may be acid/base labile, releasing an aldehyde.

>  <s_lp_Force_Field>  (101) 
OPLS3e

>  <r_lp_Energy>  (101) 
149.013

>  <b_lp_Chiralities_Consistent>  (101) 
1

>  <s_lp_Variant>  (101) 
76:0-1

>  <s_i_glide_gridfile>  (101) 
pfpi4k_grid

>  <i_i_glide_lignum>  (101) 
32

>  <i_i_glide_rotatable_bonds>  (101) 
2

>  <r_i_docking_score>  (101) 
-3.25159

>  <r_i_glide_ligand_efficiency>  (101) 
-0.0706867

>  <r_i_glide_ligand_efficiency_sa>  (101) 
-0.253274

>  <r_i_glide_ligand_efficiency_ln>  (101) 
-0.673396

>  <r_i_glide_gscore>  (101) 
-3.25159

>  <r_i_glide_lipo>  (101) 
-0.222326

>  <r_i_glide_hbond>  (101) 
-0.210621

>  <r_i_glide_metal>  (101) 
-0

>  <r_i_glide_rewards>  (101) 
0

>  <r_i_glide_evdw>  (101) 
-26.4264

>  <r_i_glide_ecoul>  (101) 
-9.03503

>  <r_i_glide_erotb>  (101) 
0

>  <r_i_glide_esite>  (101) 
-0.142066

>  <r_i_glide_emodel>  (101) 
-41.2907

>  <r_i_glide_energy>  (101) 
-35.4614

>  <r_i_glide_einternal>  (101) 
2.23257

>  <r_i_glide_intrahb_reward>  (101) 
-0

>  <i_i_glide_confnum>  (101) 
2

>  <i_i_glide_posenum>  (101) 
11

>  <r_i_glide_eff_state_penalty>  (101) 
0

>  <ligand_id>  (101) 
76

>  <original_smiles>  (101) 
CC1OCC2OC3=CCC4OC45C4CC6OC7C89OC8C(O)OC9OC6OC74C54OC4C4C5(C)OC(O)(CCC5C)C34COC2O1

>  <smiles>  (101) 
[H]OC1([H])OC2([H])OC3([H])OC45C([H])(OC3([H])C([H])([H])C4([H])C34OC3([H])C([H])([H])C([H])=C3OC6([H])C([H])([H])OC([H])(C([H])([H])[H])OC6([H])OC([H])([H])C36C3(O[H])OC(C([H])([H])[H])(C([H])(C([H])([H])[H])C([H])([H])C3([H])[H])C6([H])C3([H])OC345)C23OC13[H]

$$$$
76:0:1
     RDKit          3D

 84 96  0  0  1  0  0  0  0  0999 V2000
   -1.2204   -8.4754    3.7048 C   0  0  0  0  0  0  0  0  0  0  0  0
   -0.2394   -8.3222    2.5242 C   0  0  2  0  0  0  0  0  0  0  0  0
    0.7640   -9.2884    2.5494 O   0  0  0  0  0  0  0  0  0  0  0  0
    1.7850   -9.0991    3.5171 C   0  0  0  0  0  0  0  0  0  0  0  0
    2.3668   -7.6774    3.4023 C   0  0  1  0  0  0  0  0  0  0  0  0
    3.1314   -7.5246    2.2149 O   0  0  0  0  0  0  0  0  0  0  0  0
    4.1555   -6.5967    2.2135 C   0  0  0  0  0  0  0  0  0  0  0  0
    5.3572   -6.8583    2.7593 C   0  0  0  0  0  0  0  0  0  0  0  0
    5.6646   -7.8360    3.8436 C   0  0  0  0  0  0  0  0  0  0  0  0
    5.8669   -7.0871    5.1691 C   0  0  1  0  0  0  0  0  0  0  0  0
    6.7384   -5.9254    5.0798 O   0  0  0  0  0  0  0  0  0  0  0  0
    5.4378   -5.6782    5.6078 C   0  0  2  0  0  0  0  0  0  0  0  0
    5.2422   -5.1976    7.0293 C   0  0  2  0  0  0  0  0  0  0  0  0
    4.9624   -6.0602    8.2445 C   0  0  0  0  0  0  0  0  0  0  0  0
    3.5872   -5.5693    8.7779 C   0  0  2  0  0  0  0  0  0  0  0  0
    2.7166   -6.1314    7.8042 O   0  0  0  0  0  0  0  0  0  0  0  0
    2.6251   -5.3221    6.6313 C   0  0  1  0  0  0  0  0  0  0  0  0
    1.3243   -4.5627    6.8768 C   0  0  2  0  0  0  0  0  0  0  0  0
    0.2242   -5.4909    7.0138 O   0  0  0  0  0  0  0  0  0  0  0  0
    0.0580   -4.4029    6.1226 C   0  0  1  0  0  0  0  0  0  0  0  0
   -0.6337   -3.2183    6.7390 C   0  0  1  0  0  0  0  0  0  0  0  0
   -2.0034   -3.4761    6.8741 O   0  0  0  0  0  0  0  0  0  0  0  0
    0.0453   -2.9719    7.9560 O   0  0  0  0  0  0  0  0  0  0  0  0
    1.3898   -3.3641    7.8041 C   0  0  1  0  0  0  0  0  0  0  0  0
    2.0871   -3.6502    8.9811 O   0  0  0  0  0  0  0  0  0  0  0  0
    3.4425   -3.9723    8.7419 C   0  0  2  0  0  0  0  0  0  0  0  0
    3.9179   -3.4445    7.4912 O   0  0  0  0  0  0  0  0  0  0  0  0
    3.9460   -4.5046    6.5463 C   0  0  1  0  0  0  0  0  0  0  0  0
    4.4885   -4.5501    5.1382 C   0  0  0  0  0  0  0  0  0  0  0  0
    5.1604   -3.3222    4.7764 O   0  0  0  0  0  0  0  0  0  0  0  0
    4.1154   -3.7455    3.8990 C   0  0  1  0  0  0  0  0  0  0  0  0
    4.5426   -4.0842    2.4895 C   0  0  2  0  0  0  0  0  0  0  0  0
    4.8907   -2.9928    1.4464 C   0  0  1  0  0  0  0  0  0  0  0  0
    6.1672   -2.2076    1.7817 C   0  0  0  0  0  0  0  0  0  0  0  0
    5.2470   -3.9067    0.4144 O   0  0  0  0  0  0  0  0  0  0  0  0
    4.1948   -4.8180    0.2807 C   0  0  2  0  0  0  0  0  0  0  0  0
    4.6081   -5.9791   -0.3876 O   0  0  0  0  0  0  0  0  0  0  0  0
    3.2009   -4.0706   -0.6438 C   0  0  0  0  0  0  0  0  0  0  0  0
    2.8170   -2.6906   -0.1045 C   0  0  0  0  0  0  0  0  0  0  0  0
    3.8217   -2.0248    0.8506 C   0  0  1  0  0  0  0  0  0  0  0  0
    3.0964   -1.1106    1.8577 C   0  0  0  0  0  0  0  0  0  0  0  0
    3.7414   -5.1802    1.7456 C   0  0  1  0  0  0  0  0  0  0  0  0
    2.2080   -5.0329    1.9490 C   0  0  0  0  0  0  0  0  0  0  0  0
    1.7043   -5.3860    3.2393 O   0  0  0  0  0  0  0  0  0  0  0  0
    1.2025   -6.6812    3.3954 C   0  0  1  0  0  0  0  0  0  0  0  0
    0.2485   -7.0139    2.4225 O   0  0  0  0  0  0  0  0  0  0  0  0
   -0.7239   -8.4143    4.6711 H   0  0  0  0  0  0  0  0  0  0  0  0
   -1.7110   -9.4467    3.6428 H   0  0  0  0  0  0  0  0  0  0  0  0
   -1.9894   -7.7052    3.6536 H   0  0  0  0  0  0  0  0  0  0  0  0
   -0.7942   -8.5209    1.6060 H   0  0  0  0  0  0  0  0  0  0  0  0
    1.3835   -9.2829    4.5146 H   0  0  0  0  0  0  0  0  0  0  0  0
    2.5585   -9.8518    3.3689 H   0  0  0  0  0  0  0  0  0  0  0  0
    2.9704   -7.4817    4.2858 H   0  0  0  0  0  0  0  0  0  0  0  0
    6.1983   -6.2075    2.6268 H   0  0  0  0  0  0  0  0  0  0  0  0
    4.8832   -8.5844    3.9477 H   0  0  0  0  0  0  0  0  0  0  0  0
    6.5837   -8.3680    3.6040 H   0  0  0  0  0  0  0  0  0  0  0  0
    6.1032   -7.7506    5.9969 H   0  0  0  0  0  0  0  0  0  0  0  0
    5.9750   -4.4163    7.2670 H   0  0  0  0  0  0  0  0  0  0  0  0
    4.9312   -7.1228    8.0101 H   0  0  0  0  0  0  0  0  0  0  0  0
    5.7272   -5.9258    9.0098 H   0  0  0  0  0  0  0  0  0  0  0  0
    3.3437   -5.9597    9.7615 H   0  0  0  0  0  0  0  0  0  0  0  0
    2.5108   -5.9658    5.7662 H   0  0  0  0  0  0  0  0  0  0  0  0
   -0.0676   -4.6514    5.0731 H   0  0  0  0  0  0  0  0  0  0  0  0
   -0.5325   -2.3323    6.1136 H   0  0  0  0  0  0  0  0  0  0  0  0
   -2.0971   -4.3419    7.2486 H   0  0  0  0  0  0  0  0  0  0  0  0
    1.8530   -2.5035    7.3196 H   0  0  0  0  0  0  0  0  0  0  0  0
    4.0216   -3.5278    9.5575 H   0  0  0  0  0  0  0  0  0  0  0  0
    3.1859   -3.1930    3.9882 H   0  0  0  0  0  0  0  0  0  0  0  0
    5.5496   -4.4179    2.6751 H   0  0  0  0  0  0  0  0  0  0  0  0
    6.0092   -1.5322    2.6247 H   0  0  0  0  0  0  0  0  0  0  0  0
    6.5183   -1.6132    0.9357 H   0  0  0  0  0  0  0  0  0  0  0  0
    6.9768   -2.8884    2.0380 H   0  0  0  0  0  0  0  0  0  0  0  0
    4.3697   -5.8894   -1.2983 H   0  0  0  0  0  0  0  0  0  0  0  0
    3.7049   -3.9352   -1.6045 H   0  0  0  0  0  0  0  0  0  0  0  0
    2.3117   -4.6703   -0.8437 H   0  0  0  0  0  0  0  0  0  0  0  0
    2.7017   -2.0403   -0.9712 H   0  0  0  0  0  0  0  0  0  0  0  0
    1.8167   -2.7045    0.3183 H   0  0  0  0  0  0  0  0  0  0  0  0
    4.3846   -1.3451    0.2084 H   0  0  0  0  0  0  0  0  0  0  0  0
    2.3840   -1.6559    2.4780 H   0  0  0  0  0  0  0  0  0  0  0  0
    2.5230   -0.3554    1.3166 H   0  0  0  0  0  0  0  0  0  0  0  0
    3.7914   -0.5823    2.5116 H   0  0  0  0  0  0  0  0  0  0  0  0
    1.9318   -3.9889    1.9016 H   0  0  0  0  0  0  0  0  0  0  0  0
    1.6526   -5.5410    1.1641 H   0  0  0  0  0  0  0  0  0  0  0  0
    0.7056   -6.7010    4.3654 H   0  0  0  0  0  0  0  0  0  0  0  0
  1  2  1  0
  1 47  1  0
  1 48  1  0
  1 49  1  0
  2 46  1  0
  2  3  1  0
  2 50  1  6
  3  4  1  0
  4  5  1  0
  4 51  1  0
  4 52  1  0
  5 45  1  0
  5  6  1  0
  5 53  1  1
  6  7  1  0
  7 42  1  0
  7  8  2  3
  8  9  1  0
  8 54  1  0
  9 10  1  0
  9 55  1  0
  9 56  1  0
 10 12  1  0
 10 11  1  0
 10 57  1  1
 12 11  1  6
 12 29  1  0
 12 13  1  0
 13 28  1  0
 13 14  1  0
 13 58  1  1
 14 15  1  0
 14 59  1  0
 14 60  1  0
 15 26  1  0
 15 16  1  0
 15 61  1  1
 16 17  1  0
 17 28  1  0
 17 18  1  0
 17 62  1  6
 18 20  1  0
 18 24  1  0
 18 19  1  1
 19 20  1  0
 20 21  1  0
 20 63  1  6
 21 22  1  0
 21 23  1  0
 21 64  1  6
 22 65  1  0
 23 24  1  0
 24 25  1  0
 24 66  1  6
 25 26  1  0
 26 27  1  0
 26 67  1  1
 27 28  1  0
 28 29  1  6
 29 31  1  0
 29 30  1  0
 30 31  1  0
 31 32  1  0
 31 68  1  6
 32 42  1  0
 32 33  1  0
 32 69  1  1
 33 40  1  0
 33 34  1  1
 33 35  1  0
 34 70  1  0
 34 71  1  0
 34 72  1  0
 35 36  1  0
 36 37  1  6
 36 38  1  0
 36 42  1  0
 37 73  1  0
 38 39  1  0
 38 74  1  0
 38 75  1  0
 39 40  1  0
 39 76  1  0
 39 77  1  0
 40 41  1  0
 40 78  1  6
 41 79  1  0
 41 80  1  0
 41 81  1  0
 42 43  1  6
 43 44  1  0
 43 82  1  0
 43 83  1  0
 44 45  1  0
 45 46  1  0
 45 84  1  1
M  END
>  <i_m_ct_stereo_status>  (102) 
1

>  <s_m_source_file>  (102) 
/var/tmp/pbs.5076253.sched01/tmp0k8q0ypy/944rjgrua_.sdf

>  <i_m_source_file_index>  (102) 
32

>  <i_lp_mmshare_version>  (102) 
48012

>  <i_f3d_flags>  (102) 
0

>  <s_epik_input>  (102) 
W0NIMl0xT1tDQEBIXShbQ0gzXSlPW0NASF0oT1tDSDJdMilbQ0BASF0xTy9DKD1bQ0hdXFtDSDJdW0NASF0zTzQpW0NAXTIoQzUoW09IXSlPW0NAQF02KFtDSDNdKVtDQEhdKFtDSDNdKVtDSDJdW0NIMl01KVtDQEBIXTZbQ0BIXShPNylbQ0BdNyhbQ0BAXTM0OClbQ0BAXTE5W0NASF04W0NIMl1bQ0BIXTJbQ0BASF0oTzEpT1tDQEhdMVtDQF0zKFtDQEBIXTlPMilbQ0BASF0oTzMpW0NASF0oTzEpW09IXQ==

>  <s_epik_cmdline>  (102) 
J2VwaWtfcHl0aG9uJywgJy1waHQnLCAnMi4wJywgJy1waCcsICc3LjAnLCAnLXRuJywgJzgnLCAnLW1hJywgJzIwMCcsICctaW1hZScsICc8aW5maWxlLm1hZT4nLCAnLW9tYWUnLCAnPG91dGZpbGUubWFlPic=

>  <r_lp_tautomer_probability>  (102) 
1

>  <r_epik_Ionization_Penalty>  (102) 
1.39393e-05

>  <r_epik_Ionization_Penalty_Charging>  (102) 
0

>  <r_epik_Ionization_Penalty_Neutral>  (102) 
1.39393e-05

>  <r_epik_State_Penalty>  (102) 
-0

>  <r_epik_Charging_Adjusted_Penalty>  (102) 
0

>  <i_epik_Tot_Q>  (102) 
0

>  <i_epik_Tot_abs_Q>  (102) 
0

>  <s_epik_Chemistry_Notes>  (102) 
This compound contains an acetal/aminal-like group ( X-CH(R)-Y where X, Y are N, S, or O) that may be acid/base labile, releasing an aldehyde.

>  <s_lp_Force_Field>  (102) 
OPLS3e

>  <r_lp_Energy>  (102) 
149.013

>  <b_lp_Chiralities_Consistent>  (102) 
1

>  <s_lp_Variant>  (102) 
76:0-1

>  <s_i_glide_gridfile>  (102) 
pfpi4k_grid

>  <i_i_glide_lignum>  (102) 
32

>  <i_i_glide_rotatable_bonds>  (102) 
2

>  <r_i_docking_score>  (102) 
-2.83182

>  <r_i_glide_ligand_efficiency>  (102) 
-0.0615612

>  <r_i_glide_ligand_efficiency_sa>  (102) 
-0.220577

>  <r_i_glide_ligand_efficiency_ln>  (102) 
-0.586462

>  <r_i_glide_gscore>  (102) 
-2.83182

>  <r_i_glide_lipo>  (102) 
-0.15721

>  <r_i_glide_hbond>  (102) 
-0.0046107

>  <r_i_glide_metal>  (102) 
-0

>  <r_i_glide_rewards>  (102) 
-0.0291253

>  <r_i_glide_evdw>  (102) 
-25.345

>  <r_i_glide_ecoul>  (102) 
-8.45983

>  <r_i_glide_erotb>  (102) 
0

>  <r_i_glide_esite>  (102) 
-0.104645

>  <r_i_glide_emodel>  (102) 
-39.2586

>  <r_i_glide_energy>  (102) 
-33.8048

>  <r_i_glide_einternal>  (102) 
0.98077

>  <r_i_glide_intrahb_reward>  (102) 
-0

>  <i_i_glide_confnum>  (102) 
2

>  <i_i_glide_posenum>  (102) 
30

>  <r_i_glide_eff_state_penalty>  (102) 
0

>  <ligand_id>  (102) 
76

>  <original_smiles>  (102) 
CC1OCC2OC3=CCC4OC45C4CC6OC7C89OC8C(O)OC9OC6OC74C54OC4C4C5(C)OC(O)(CCC5C)C34COC2O1

>  <smiles>  (102) 
[H]OC1([H])OC2([H])OC3([H])OC45C([H])(OC3([H])C([H])([H])C4([H])C34OC3([H])C([H])([H])C([H])=C3OC6([H])C([H])([H])OC([H])(C([H])([H])[H])OC6([H])OC([H])([H])C36C3(O[H])OC(C([H])([H])[H])(C([H])(C([H])([H])[H])C([H])([H])C3([H])[H])C6([H])C3([H])OC345)C23OC13[H]

$$$$
76:0:2
     RDKit          3D

 84 96  0  0  1  0  0  0  0  0999 V2000
    4.2171   -3.5555   -0.2138 C   0  0  0  0  0  0  0  0  0  0  0  0
    2.7754   -3.9097    0.2098 C   0  0  2  0  0  0  0  0  0  0  0  0
    2.2222   -2.9193    1.0228 O   0  0  0  0  0  0  0  0  0  0  0  0
    2.6752   -2.8866    2.3685 C   0  0  0  0  0  0  0  0  0  0  0  0
    2.5671   -4.2870    3.0080 C   0  0  1  0  0  0  0  0  0  0  0  0
    1.2150   -4.6572    3.2245 O   0  0  0  0  0  0  0  0  0  0  0  0
    0.9277   -5.5280    4.2640 C   0  0  0  0  0  0  0  0  0  0  0  0
    0.8610   -5.1247    5.5374 C   0  0  0  0  0  0  0  0  0  0  0  0
    1.5300   -3.9379    6.1513 C   0  0  0  0  0  0  0  0  0  0  0  0
    2.7562   -4.4005    6.9551 C   0  0  1  0  0  0  0  0  0  0  0  0
    2.4988   -5.5111    7.8551 O   0  0  0  0  0  0  0  0  0  0  0  0
    3.5608   -5.7016    6.9244 C   0  0  2  0  0  0  0  0  0  0  0  0
    4.9941   -5.8913    7.3757 C   0  0  2  0  0  0  0  0  0  0  0  0
    6.0465   -4.8051    7.5184 C   0  0  0  0  0  0  0  0  0  0  0  0
    7.1818   -5.2298    6.5470 C   0  0  2  0  0  0  0  0  0  0  0  0
    6.5877   -4.9124    5.2981 O   0  0  0  0  0  0  0  0  0  0  0  0
    5.7230   -5.9446    4.8345 C   0  0  1  0  0  0  0  0  0  0  0  0
    6.6171   -6.6632    3.8395 C   0  0  2  0  0  0  0  0  0  0  0  0
    7.0157   -5.7456    2.7951 O   0  0  0  0  0  0  0  0  0  0  0  0
    6.5023   -7.0076    2.4067 C   0  0  1  0  0  0  0  0  0  0  0  0
    7.5508   -8.0709    2.1682 C   0  0  1  0  0  0  0  0  0  0  0  0
    8.1807   -7.8162    0.9552 O   0  0  0  0  0  0  0  0  0  0  0  0
    8.3868   -8.0419    3.2962 O   0  0  0  0  0  0  0  0  0  0  0  0
    7.6230   -7.6535    4.3995 C   0  0  1  0  0  0  0  0  0  0  0  0
    8.3149   -7.1061    5.4840 O   0  0  0  0  0  0  0  0  0  0  0  0
    7.4848   -6.8020    6.5838 C   0  0  2  0  0  0  0  0  0  0  0  0
    6.2644   -7.5639    6.5664 O   0  0  0  0  0  0  0  0  0  0  0  0
    5.2304   -6.7145    6.0860 C   0  0  1  0  0  0  0  0  0  0  0  0
    3.7407   -6.9250    5.9928 C   0  0  0  0  0  0  0  0  0  0  0  0
    3.3533   -8.1670    6.5945 O   0  0  0  0  0  0  0  0  0  0  0  0
    2.9347   -7.9748    5.2387 C   0  0  1  0  0  0  0  0  0  0  0  0
    1.4377   -7.9154    5.0022 C   0  0  2  0  0  0  0  0  0  0  0  0
    0.5472   -9.1787    5.0255 C   0  0  1  0  0  0  0  0  0  0  0  0
    0.4561   -9.8081    6.4289 C   0  0  0  0  0  0  0  0  0  0  0  0
   -0.6666   -8.4734    4.8133 O   0  0  0  0  0  0  0  0  0  0  0  0
   -0.5140   -7.6576    3.6985 C   0  0  2  0  0  0  0  0  0  0  0  0
   -1.4978   -6.6790    3.6989 O   0  0  0  0  0  0  0  0  0  0  0  0
   -0.7997   -8.6044    2.5122 C   0  0  0  0  0  0  0  0  0  0  0  0
    0.0980   -9.8563    2.5306 C   0  0  0  0  0  0  0  0  0  0  0  0
    0.6357  -10.2868    3.9193 C   0  0  1  0  0  0  0  0  0  0  0  0
    1.9933  -11.0035    3.7800 C   0  0  0  0  0  0  0  0  0  0  0  0
    0.9217   -7.0195    3.8438 C   0  0  1  0  0  0  0  0  0  0  0  0
    1.7830   -7.1765    2.5551 C   0  0  0  0  0  0  0  0  0  0  0  0
    3.0813   -6.5777    2.6023 O   0  0  0  0  0  0  0  0  0  0  0  0
    3.2085   -5.2986    2.0606 C   0  0  1  0  0  0  0  0  0  0  0  0
    2.6770   -5.1921    0.7686 O   0  0  0  0  0  0  0  0  0  0  0  0
    4.8784   -3.4096    0.6392 H   0  0  0  0  0  0  0  0  0  0  0  0
    4.2074   -2.6344   -0.7998 H   0  0  0  0  0  0  0  0  0  0  0  0
    4.6182   -4.3513   -0.8425 H   0  0  0  0  0  0  0  0  0  0  0  0
    2.1633   -3.9280   -0.6963 H   0  0  0  0  0  0  0  0  0  0  0  0
    3.7016   -2.5143    2.3847 H   0  0  0  0  0  0  0  0  0  0  0  0
    2.0776   -2.1540    2.9139 H   0  0  0  0  0  0  0  0  0  0  0  0
    3.1385   -4.2725    3.9338 H   0  0  0  0  0  0  0  0  0  0  0  0
    0.4894   -5.7604    6.3264 H   0  0  0  0  0  0  0  0  0  0  0  0
    1.8250   -3.2124    5.3980 H   0  0  0  0  0  0  0  0  0  0  0  0
    0.8389   -3.4304    6.8223 H   0  0  0  0  0  0  0  0  0  0  0  0
    3.2738   -3.5730    7.4280 H   0  0  0  0  0  0  0  0  0  0  0  0
    5.0353   -6.5762    8.2278 H   0  0  0  0  0  0  0  0  0  0  0  0
    5.6771   -3.8085    7.2678 H   0  0  0  0  0  0  0  0  0  0  0  0
    6.4380   -4.7562    8.5349 H   0  0  0  0  0  0  0  0  0  0  0  0
    8.0962   -4.6603    6.6736 H   0  0  0  0  0  0  0  0  0  0  0  0
    4.8993   -5.4893    4.3098 H   0  0  0  0  0  0  0  0  0  0  0  0
    5.6010   -6.9828    1.8160 H   0  0  0  0  0  0  0  0  0  0  0  0
    7.1146   -9.0681    2.0899 H   0  0  0  0  0  0  0  0  0  0  0  0
    9.1177   -7.8623    1.0807 H   0  0  0  0  0  0  0  0  0  0  0  0
    7.1519   -8.5902    4.7236 H   0  0  0  0  0  0  0  0  0  0  0  0
    8.0518   -7.0472    7.4839 H   0  0  0  0  0  0  0  0  0  0  0  0
    3.4940   -8.5299    4.4897 H   0  0  0  0  0  0  0  0  0  0  0  0
    1.1276   -7.5205    5.9531 H   0  0  0  0  0  0  0  0  0  0  0  0
    1.4049  -10.2692    6.6871 H   0  0  0  0  0  0  0  0  0  0  0  0
   -0.3198  -10.5718    6.4798 H   0  0  0  0  0  0  0  0  0  0  0  0
    0.2294   -9.0877    7.2133 H   0  0  0  0  0  0  0  0  0  0  0  0
   -2.3313   -7.1239    3.7369 H   0  0  0  0  0  0  0  0  0  0  0  0
   -1.8455   -8.9220    2.5879 H   0  0  0  0  0  0  0  0  0  0  0  0
   -0.7109   -8.0783    1.5623 H   0  0  0  0  0  0  0  0  0  0  0  0
   -0.4961  -10.6714    2.1290 H   0  0  0  0  0  0  0  0  0  0  0  0
    0.9008   -9.7871    1.7959 H   0  0  0  0  0  0  0  0  0  0  0  0
   -0.0536  -11.0674    4.2530 H   0  0  0  0  0  0  0  0  0  0  0  0
    2.7613  -10.3798    3.3242 H   0  0  0  0  0  0  0  0  0  0  0  0
    1.8840  -11.8734    3.1342 H   0  0  0  0  0  0  0  0  0  0  0  0
    2.3649  -11.3699    4.7359 H   0  0  0  0  0  0  0  0  0  0  0  0
    2.0371   -8.2146    2.4081 H   0  0  0  0  0  0  0  0  0  0  0  0
    1.2356   -6.8651    1.6662 H   0  0  0  0  0  0  0  0  0  0  0  0
    4.2731   -5.1082    1.9942 H   0  0  0  0  0  0  0  0  0  0  0  0
  1  2  1  0
  1 47  1  0
  1 48  1  0
  1 49  1  0
  2 46  1  0
  2  3  1  0
  2 50  1  6
  3  4  1  0
  4  5  1  0
  4 51  1  0
  4 52  1  0
  5 45  1  0
  5  6  1  0
  5 53  1  1
  6  7  1  0
  7 42  1  0
  7  8  2  3
  8  9  1  0
  8 54  1  0
  9 10  1  0
  9 55  1  0
  9 56  1  0
 10 12  1  0
 10 11  1  0
 10 57  1  1
 12 11  1  1
 12 29  1  0
 12 13  1  0
 13 28  1  0
 13 14  1  0
 13 58  1  1
 14 15  1  0
 14 59  1  0
 14 60  1  0
 15 26  1  0
 15 16  1  0
 15 61  1  1
 16 17  1  0
 17 28  1  0
 17 18  1  0
 17 62  1  6
 18 20  1  0
 18 24  1  0
 18 19  1  6
 19 20  1  0
 20 21  1  0
 20 63  1  6
 21 22  1  0
 21 23  1  0
 21 64  1  6
 22 65  1  0
 23 24  1  0
 24 25  1  0
 24 66  1  1
 25 26  1  0
 26 27  1  0
 26 67  1  1
 27 28  1  0
 28 29  1  6
 29 31  1  0
 29 30  1  0
 30 31  1  0
 31 32  1  0
 31 68  1  6
 32 42  1  0
 32 33  1  0
 32 69  1  1
 33 40  1  0
 33 34  1  1
 33 35  1  0
 34 70  1  0
 34 71  1  0
 34 72  1  0
 35 36  1  0
 36 37  1  1
 36 38  1  0
 36 42  1  0
 37 73  1  0
 38 39  1  0
 38 74  1  0
 38 75  1  0
 39 40  1  0
 39 76  1  0
 39 77  1  0
 40 41  1  0
 40 78  1  1
 41 79  1  0
 41 80  1  0
 41 81  1  0
 42 43  1  6
 43 44  1  0
 43 82  1  0
 43 83  1  0
 44 45  1  0
 45 46  1  0
 45 84  1  6
M  END
>  <i_m_ct_stereo_status>  (103) 
1

>  <s_m_source_file>  (103) 
/var/tmp/pbs.5076253.sched01/tmp0k8q0ypy/944rjgrua_.sdf

>  <i_m_source_file_index>  (103) 
32

>  <i_lp_mmshare_version>  (103) 
48012

>  <i_f3d_flags>  (103) 
0

>  <s_epik_input>  (103) 
W0NIMl0xT1tDQEBIXShbQ0gzXSlPW0NASF0oT1tDSDJdMilbQ0BASF0xTy9DKD1bQ0hdXFtDSDJdW0NASF0zTzQpW0NAXTIoQzUoW09IXSlPW0NAQF02KFtDSDNdKVtDQEhdKFtDSDNdKVtDSDJdW0NIMl01KVtDQEBIXTZbQ0BIXShPNylbQ0BdNyhbQ0BAXTM0OClbQ0BAXTE5W0NASF04W0NIMl1bQ0BIXTJbQ0BASF0oTzEpT1tDQEhdMVtDQF0zKFtDQEBIXTlPMilbQ0BASF0oTzMpW0NASF0oTzEpW09IXQ==

>  <s_epik_cmdline>  (103) 
J2VwaWtfcHl0aG9uJywgJy1waHQnLCAnMi4wJywgJy1waCcsICc3LjAnLCAnLXRuJywgJzgnLCAnLW1hJywgJzIwMCcsICctaW1hZScsICc8aW5maWxlLm1hZT4nLCAnLW9tYWUnLCAnPG91dGZpbGUubWFlPic=

>  <r_lp_tautomer_probability>  (103) 
1

>  <r_epik_Ionization_Penalty>  (103) 
1.39393e-05

>  <r_epik_Ionization_Penalty_Charging>  (103) 
0

>  <r_epik_Ionization_Penalty_Neutral>  (103) 
1.39393e-05

>  <r_epik_State_Penalty>  (103) 
-0

>  <r_epik_Charging_Adjusted_Penalty>  (103) 
0

>  <i_epik_Tot_Q>  (103) 
0

>  <i_epik_Tot_abs_Q>  (103) 
0

>  <s_epik_Chemistry_Notes>  (103) 
This compound contains an acetal/aminal-like group ( X-CH(R)-Y where X, Y are N, S, or O) that may be acid/base labile, releasing an aldehyde.

>  <s_lp_Force_Field>  (103) 
OPLS3e

>  <r_lp_Energy>  (103) 
149.013

>  <b_lp_Chiralities_Consistent>  (103) 
1

>  <s_lp_Variant>  (103) 
76:0-1

>  <s_i_glide_gridfile>  (103) 
pfpi4k_grid

>  <i_i_glide_lignum>  (103) 
32

>  <i_i_glide_rotatable_bonds>  (103) 
2

>  <r_i_docking_score>  (103) 
-2.31552

>  <r_i_glide_ligand_efficiency>  (103) 
-0.0503374

>  <r_i_glide_ligand_efficiency_sa>  (103) 
-0.180361

>  <r_i_glide_ligand_efficiency_ln>  (103) 
-0.479538

>  <r_i_glide_gscore>  (103) 
-2.31552

>  <r_i_glide_lipo>  (103) 
-0.136755

>  <r_i_glide_hbond>  (103) 
0

>  <r_i_glide_metal>  (103) 
-0

>  <r_i_glide_rewards>  (103) 
-0.00208416

>  <r_i_glide_evdw>  (103) 
-29.2768

>  <r_i_glide_ecoul>  (103) 
-4.16429

>  <r_i_glide_erotb>  (103) 
0

>  <r_i_glide_esite>  (103) 
-0.088197

>  <r_i_glide_emodel>  (103) 
-37.3337

>  <r_i_glide_energy>  (103) 
-33.4411

>  <r_i_glide_einternal>  (103) 
2.12994

>  <r_i_glide_intrahb_reward>  (103) 
-0

>  <i_i_glide_confnum>  (103) 
2

>  <i_i_glide_posenum>  (103) 
27

>  <r_i_glide_eff_state_penalty>  (103) 
0

>  <ligand_id>  (103) 
76

>  <original_smiles>  (103) 
CC1OCC2OC3=CCC4OC45C4CC6OC7C89OC8C(O)OC9OC6OC74C54OC4C4C5(C)OC(O)(CCC5C)C34COC2O1

>  <smiles>  (103) 
[H]OC1([H])OC2([H])OC3([H])OC45C([H])(OC3([H])C([H])([H])C4([H])C34OC3([H])C([H])([H])C([H])=C3OC6([H])C([H])([H])OC([H])(C([H])([H])[H])OC6([H])OC([H])([H])C36C3(O[H])OC(C([H])([H])[H])(C([H])(C([H])([H])[H])C([H])([H])C3([H])[H])C6([H])C3([H])OC345)C23OC13[H]

$$$$
76:1:0
     RDKit          3D

 84 96  0  0  1  0  0  0  0  0999 V2000
   -2.5529    2.9433    5.7995 C   0  0  0  0  0  0  0  0  0  0  0  0
   -1.0166    2.9380    5.9469 C   0  0  2  0  0  0  0  0  0  0  0  0
   -0.4305    4.0041    5.2625 O   0  0  0  0  0  0  0  0  0  0  0  0
   -0.3639    3.8679    3.8490 C   0  0  0  0  0  0  0  0  0  0  0  0
    0.2862    2.5315    3.4537 C   0  0  1  0  0  0  0  0  0  0  0  0
    1.7138    2.6150    3.6149 O   0  0  0  0  0  0  0  0  0  0  0  0
    2.3741    1.4345    3.4140 C   0  0  0  0  0  0  0  0  0  0  0  0
    2.5835    1.0493    2.1303 C   0  0  0  0  0  0  0  0  0  0  0  0
    2.8368   -0.3557    1.6402 C   0  0  0  0  0  0  0  0  0  0  0  0
    4.2050   -0.7198    1.0610 C   0  0  1  0  0  0  0  0  0  0  0  0
    5.4499   -0.3104    1.7019 O   0  0  0  0  0  0  0  0  0  0  0  0
    5.0291   -1.6523    1.9003 C   0  0  2  0  0  0  0  0  0  0  0  0
    5.6343   -2.9810    1.5049 C   0  0  2  0  0  0  0  0  0  0  0  0
    5.5584   -3.6808    0.1605 C   0  0  0  0  0  0  0  0  0  0  0  0
    4.7734   -4.9973    0.4293 C   0  0  2  0  0  0  0  0  0  0  0  0
    3.4591   -4.4851    0.5975 O   0  0  0  0  0  0  0  0  0  0  0  0
    3.2319   -4.0028    1.9237 C   0  0  1  0  0  0  0  0  0  0  0  0
    2.5052   -5.1759    2.5671 C   0  0  2  0  0  0  0  0  0  0  0  0
    1.3113   -5.4839    1.8287 O   0  0  0  0  0  0  0  0  0  0  0  0
    1.1909   -5.3246    3.2307 C   0  0  1  0  0  0  0  0  0  0  0  0
    1.2759   -6.6105    4.0080 C   0  0  1  0  0  0  0  0  0  0  0  0
    0.0610   -7.3168    3.8978 O   0  0  0  0  0  0  0  0  0  0  0  0
    2.3986   -7.2831    3.4659 O   0  0  0  0  0  0  0  0  0  0  0  0
    3.3487   -6.3225    3.0639 C   0  0  1  0  0  0  0  0  0  0  0  0
    4.2797   -6.7284    2.0970 O   0  0  0  0  0  0  0  0  0  0  0  0
    5.2251   -5.7203    1.7902 C   0  0  2  0  0  0  0  0  0  0  0  0
    5.3690   -4.7665    2.8546 O   0  0  0  0  0  0  0  0  0  0  0  0
    4.6225   -3.6086    2.5111 C   0  0  1  0  0  0  0  0  0  0  0  0
    4.5534   -2.2546    3.1844 C   0  0  1  0  0  0  0  0  0  0  0  0
    5.4026   -2.1423    4.3295 O   0  0  0  0  0  0  0  0  0  0  0  0
    4.0465   -1.6603    4.4727 C   0  0  1  0  0  0  0  0  0  0  0  0
    3.9672   -0.1494    4.7078 C   0  0  2  0  0  0  0  0  0  0  0  0
    4.7732    0.3275    5.9479 C   0  0  1  0  0  0  0  0  0  0  0  0
    6.2566    0.6340    5.6658 C   0  0  0  0  0  0  0  0  0  0  0  0
    4.1745    1.5934    6.1307 O   0  0  0  0  0  0  0  0  0  0  0  0
    2.7962    1.4484    6.0560 C   0  0  2  0  0  0  0  0  0  0  0  0
    2.2233    2.7317    6.0551 O   0  0  0  0  0  0  0  0  0  0  0  0
    2.3764    0.8018    7.4095 C   0  0  0  0  0  0  0  0  0  0  0  0
    3.0922   -0.5338    7.6451 C   0  0  0  0  0  0  0  0  0  0  0  0
    4.5820   -0.4120    7.3097 C   0  0  1  0  0  0  0  0  0  0  0  0
    5.3035   -1.7651    7.4948 C   0  0  0  0  0  0  0  0  0  0  0  0
    2.5650    0.5897    4.7137 C   0  0  1  0  0  0  0  0  0  0  0  0
    1.2785   -0.3098    4.7819 C   0  0  0  0  0  0  0  0  0  0  0  0
    0.1542    0.1383    4.0085 O   0  0  0  0  0  0  0  0  0  0  0  0
   -0.4047    1.3952    4.2781 C   0  0  1  0  0  0  0  0  0  0  0  0
   -0.4555    1.6936    5.6442 O   0  0  0  0  0  0  0  0  0  0  0  0
   -2.8678    2.8675    4.7597 H   0  0  0  0  0  0  0  0  0  0  0  0
   -2.9596    3.8616    6.2191 H   0  0  0  0  0  0  0  0  0  0  0  0
   -2.9775    2.1112    6.3608 H   0  0  0  0  0  0  0  0  0  0  0  0
   -0.7790    3.1047    6.9982 H   0  0  0  0  0  0  0  0  0  0  0  0
   -1.3638    3.9568    3.4259 H   0  0  0  0  0  0  0  0  0  0  0  0
    0.2063    4.7014    3.4419 H   0  0  0  0  0  0  0  0  0  0  0  0
    0.0698    2.3468    2.4003 H   0  0  0  0  0  0  0  0  0  0  0  0
    2.3625    1.7443    1.3354 H   0  0  0  0  0  0  0  0  0  0  0  0
    2.5425   -1.0403    2.4266 H   0  0  0  0  0  0  0  0  0  0  0  0
    2.1071   -0.5614    0.8750 H   0  0  0  0  0  0  0  0  0  0  0  0
    4.2774   -0.8044   -0.0204 H   0  0  0  0  0  0  0  0  0  0  0  0
    6.6468   -3.0587    1.9124 H   0  0  0  0  0  0  0  0  0  0  0  0
    5.0731   -3.0774   -0.6045 H   0  0  0  0  0  0  0  0  0  0  0  0
    6.5550   -3.9243   -0.2082 H   0  0  0  0  0  0  0  0  0  0  0  0
    4.7985   -5.6908   -0.4057 H   0  0  0  0  0  0  0  0  0  0  0  0
    2.5548   -3.1514    1.8671 H   0  0  0  0  0  0  0  0  0  0  0  0
    0.6104   -4.4691    3.5704 H   0  0  0  0  0  0  0  0  0  0  0  0
    1.4615   -6.4182    5.0683 H   0  0  0  0  0  0  0  0  0  0  0  0
    0.1602   -8.1378    4.3476 H   0  0  0  0  0  0  0  0  0  0  0  0
    3.8709   -6.0684    3.9892 H   0  0  0  0  0  0  0  0  0  0  0  0
    6.1827   -6.2276    1.6460 H   0  0  0  0  0  0  0  0  0  0  0  0
    3.4041   -2.2849    5.0842 H   0  0  0  0  0  0  0  0  0  0  0  0
    4.5081    0.2927    3.8791 H   0  0  0  0  0  0  0  0  0  0  0  0
    6.8316   -0.2562    5.4587 H   0  0  0  0  0  0  0  0  0  0  0  0
    6.7247    1.1345    6.5148 H   0  0  0  0  0  0  0  0  0  0  0  0
    6.3709    1.2933    4.8096 H   0  0  0  0  0  0  0  0  0  0  0  0
    2.2967    3.0630    5.1693 H   0  0  0  0  0  0  0  0  0  0  0  0
    2.6635    1.5003    8.1970 H   0  0  0  0  0  0  0  0  0  0  0  0
    1.2925    0.7041    7.4754 H   0  0  0  0  0  0  0  0  0  0  0  0
    2.9766   -0.8174    8.6898 H   0  0  0  0  0  0  0  0  0  0  0  0
    2.6369   -1.3342    7.0654 H   0  0  0  0  0  0  0  0  0  0  0  0
    5.0184    0.2428    8.0670 H   0  0  0  0  0  0  0  0  0  0  0  0
    4.8513   -2.5679    6.9134 H   0  0  0  0  0  0  0  0  0  0  0  0
    5.2493   -2.0709    8.5413 H   0  0  0  0  0  0  0  0  0  0  0  0
    6.3623   -1.7133    7.2390 H   0  0  0  0  0  0  0  0  0  0  0  0
    1.4844   -1.2837    4.3432 H   0  0  0  0  0  0  0  0  0  0  0  0
    0.9309   -0.5423    5.7831 H   0  0  0  0  0  0  0  0  0  0  0  0
   -1.4365    1.3012    3.9293 H   0  0  0  0  0  0  0  0  0  0  0  0
  1  2  1  0
  1 47  1  0
  1 48  1  0
  1 49  1  0
  2 46  1  0
  2  3  1  0
  2 50  1  1
  3  4  1  0
  4  5  1  0
  4 51  1  0
  4 52  1  0
  5 45  1  0
  5  6  1  0
  5 53  1  6
  6  7  1  0
  7 42  1  0
  7  8  2  3
  8  9  1  0
  8 54  1  0
  9 10  1  0
  9 55  1  0
  9 56  1  0
 10 12  1  0
 10 11  1  0
 10 57  1  6
 12 11  1  1
 12 29  1  0
 12 13  1  0
 13 28  1  0
 13 14  1  0
 13 58  1  1
 14 15  1  0
 14 59  1  0
 14 60  1  0
 15 26  1  0
 15 16  1  0
 15 61  1  6
 16 17  1  0
 17 28  1  0
 17 18  1  0
 17 62  1  6
 18 20  1  0
 18 24  1  0
 18 19  1  6
 19 20  1  0
 20 21  1  0
 20 63  1  6
 21 22  1  0
 21 23  1  0
 21 64  1  1
 22 65  1  0
 23 24  1  0
 24 25  1  0
 24 66  1  1
 25 26  1  0
 26 27  1  0
 26 67  1  6
 28 27  1  1
 28 29  1  0
 29 31  1  0
 29 30  1  1
 30 31  1  0
 31 32  1  0
 31 68  1  1
 32 42  1  0
 32 33  1  0
 32 69  1  6
 33 40  1  0
 33 34  1  6
 33 35  1  0
 34 70  1  0
 34 71  1  0
 34 72  1  0
 35 36  1  0
 36 37  1  6
 36 38  1  0
 36 42  1  0
 37 73  1  0
 38 39  1  0
 38 74  1  0
 38 75  1  0
 39 40  1  0
 39 76  1  0
 39 77  1  0
 40 41  1  0
 40 78  1  1
 41 79  1  0
 41 80  1  0
 41 81  1  0
 42 43  1  1
 43 44  1  0
 43 82  1  0
 43 83  1  0
 44 45  1  0
 45 46  1  0
 45 84  1  6
M  END
>  <i_m_ct_stereo_status>  (104) 
1

>  <s_m_source_file>  (104) 
/var/tmp/pbs.5076253.sched01/tmp0k8q0ypy/944rjgrua_.sdf

>  <i_m_source_file_index>  (104) 
33

>  <i_lp_mmshare_version>  (104) 
48012

>  <i_f3d_flags>  (104) 
0

>  <s_epik_input>  (104) 
W0NIMl0xT1tDQEBIXShbQ0gzXSlPW0NASF0oT1tDSDJdMilbQ0BASF0xTy9DKD1bQ0hdXFtDSDJdW0NASF0zTzQpW0NAXTIoQzUoW09IXSlPW0NAQF02KFtDSDNdKVtDQEhdKFtDSDNdKVtDSDJdW0NIMl01KVtDQEBIXTZbQ0BIXShPNylbQ0BdNyhbQ0BAXTM0OClbQ0BAXTE5W0NASF04W0NIMl1bQ0BIXTJbQ0BASF0oTzEpT1tDQEhdMVtDQF0zKFtDQEBIXTlPMilbQ0BASF0oTzMpW0NASF0oTzEpW09IXQ==

>  <s_epik_cmdline>  (104) 
J2VwaWtfcHl0aG9uJywgJy1waHQnLCAnMi4wJywgJy1waCcsICc3LjAnLCAnLXRuJywgJzgnLCAnLW1hJywgJzIwMCcsICctaW1hZScsICc8aW5maWxlLm1hZT4nLCAnLW9tYWUnLCAnPG91dGZpbGUubWFlPic=

>  <r_lp_tautomer_probability>  (104) 
1

>  <r_epik_Ionization_Penalty>  (104) 
1.39393e-05

>  <r_epik_Ionization_Penalty_Charging>  (104) 
0

>  <r_epik_Ionization_Penalty_Neutral>  (104) 
1.39393e-05

>  <r_epik_State_Penalty>  (104) 
-0

>  <r_epik_Charging_Adjusted_Penalty>  (104) 
0

>  <i_epik_Tot_Q>  (104) 
0

>  <i_epik_Tot_abs_Q>  (104) 
0

>  <s_epik_Chemistry_Notes>  (104) 
This compound contains an acetal/aminal-like group ( X-CH(R)-Y where X, Y are N, S, or O) that may be acid/base labile, releasing an aldehyde.

>  <s_lp_Force_Field>  (104) 
OPLS3e

>  <r_lp_Energy>  (104) 
139.99

>  <b_lp_Chiralities_Consistent>  (104) 
1

>  <s_lp_Variant>  (104) 
76:0-2

>  <s_i_glide_gridfile>  (104) 
pfpi4k_grid

>  <i_i_glide_lignum>  (104) 
33

>  <i_i_glide_rotatable_bonds>  (104) 
2

>  <r_i_docking_score>  (104) 
-3.7135

>  <r_i_glide_ligand_efficiency>  (104) 
-0.0807283

>  <r_i_glide_ligand_efficiency_sa>  (104) 
-0.289253

>  <r_i_glide_ligand_efficiency_ln>  (104) 
-0.769057

>  <r_i_glide_gscore>  (104) 
-3.7135

>  <r_i_glide_lipo>  (104) 
-0.614206

>  <r_i_glide_hbond>  (104) 
-0.284209

>  <r_i_glide_metal>  (104) 
-0

>  <r_i_glide_rewards>  (104) 
-0.552125

>  <r_i_glide_evdw>  (104) 
-32.4486

>  <r_i_glide_ecoul>  (104) 
-4.08055

>  <r_i_glide_erotb>  (104) 
0

>  <r_i_glide_esite>  (104) 
-0.0284491

>  <r_i_glide_emodel>  (104) 
-50.0009

>  <r_i_glide_energy>  (104) 
-36.5291

>  <r_i_glide_einternal>  (104) 
0.331616

>  <r_i_glide_intrahb_reward>  (104) 
-0.5

>  <i_i_glide_confnum>  (104) 
1

>  <i_i_glide_posenum>  (104) 
36

>  <r_i_glide_eff_state_penalty>  (104) 
0

>  <ligand_id>  (104) 
76

>  <original_smiles>  (104) 
CC1OCC2OC3=CCC4OC45C4CC6OC7C89OC8C(O)OC9OC6OC74C54OC4C4C5(C)OC(O)(CCC5C)C34COC2O1

>  <smiles>  (104) 
[H]OC1([H])OC2([H])OC3([H])OC45C([H])(OC3([H])C([H])([H])C4([H])C34OC3([H])C([H])([H])C([H])=C3OC6([H])C([H])([H])OC([H])(C([H])([H])[H])OC6([H])OC([H])([H])C36C3(O[H])OC(C([H])([H])[H])(C([H])(C([H])([H])[H])C([H])([H])C3([H])[H])C6([H])C3([H])OC345)C23OC13[H]

$$$$
76:1:1
     RDKit          3D

 84 96  0  0  1  0  0  0  0  0999 V2000
   -1.1376   -8.9820    2.8881 C   0  0  0  0  0  0  0  0  0  0  0  0
    0.2813   -8.4927    2.5156 C   0  0  2  0  0  0  0  0  0  0  0  0
    1.2735   -9.2504    3.1351 O   0  0  0  0  0  0  0  0  0  0  0  0
    1.4656   -9.0034    4.5185 C   0  0  0  0  0  0  0  0  0  0  0  0
    1.6946   -7.5028    4.7625 C   0  0  1  0  0  0  0  0  0  0  0  0
    3.0421   -7.1403    4.4005 O   0  0  0  0  0  0  0  0  0  0  0  0
    3.3037   -5.7947    4.4583 C   0  0  0  0  0  0  0  0  0  0  0  0
    3.5361   -5.2604    5.6777 C   0  0  0  0  0  0  0  0  0  0  0  0
    3.3662   -3.8103    6.0818 C   0  0  0  0  0  0  0  0  0  0  0  0
    4.5976   -2.9747    6.4256 C   0  0  1  0  0  0  0  0  0  0  0  0
    5.8124   -3.0269    5.6196 O   0  0  0  0  0  0  0  0  0  0  0  0
    4.9573   -1.9084    5.4308 C   0  0  2  0  0  0  0  0  0  0  0  0
    5.1510   -0.4254    5.6746 C   0  0  2  0  0  0  0  0  0  0  0  0
    5.0226    0.3237    6.9883 C   0  0  0  0  0  0  0  0  0  0  0  0
    3.8218    1.2923    6.7921 C   0  0  2  0  0  0  0  0  0  0  0  0
    2.7415    0.3699    6.8478 O   0  0  0  0  0  0  0  0  0  0  0  0
    2.5123   -0.2708    5.5883 C   0  0  1  0  0  0  0  0  0  0  0  0
    1.3547    0.5407    5.0211 C   0  0  2  0  0  0  0  0  0  0  0  0
    0.2306    0.4963    5.9202 O   0  0  0  0  0  0  0  0  0  0  0  0
   -0.0140    0.2020    4.5564 C   0  0  1  0  0  0  0  0  0  0  0  0
   -0.4495    1.3935    3.7369 C   0  0  1  0  0  0  0  0  0  0  0  0
   -1.7964    1.7091    3.9900 O   0  0  0  0  0  0  0  0  0  0  0  0
    0.4482    2.4263    4.0787 O   0  0  0  0  0  0  0  0  0  0  0  0
    1.7032    1.8587    4.3666 C   0  0  1  0  0  0  0  0  0  0  0  0
    2.5695    2.6255    5.1599 O   0  0  0  0  0  0  0  0  0  0  0  0
    3.8267    2.0044    5.3537 C   0  0  2  0  0  0  0  0  0  0  0  0
    4.1355    1.0594    4.3209 O   0  0  0  0  0  0  0  0  0  0  0  0
    3.8660   -0.2418    4.8111 C   0  0  1  0  0  0  0  0  0  0  0  0
    4.1630   -1.5946    4.2041 C   0  0  1  0  0  0  0  0  0  0  0  0
    4.8487   -1.5354    2.9549 O   0  0  0  0  0  0  0  0  0  0  0  0
    3.7104   -2.4286    3.0397 C   0  0  1  0  0  0  0  0  0  0  0  0
    4.0977   -3.9018    2.8729 C   0  0  2  0  0  0  0  0  0  0  0  0
    4.8437   -4.2018    1.5400 C   0  0  1  0  0  0  0  0  0  0  0  0
    6.3656   -3.9968    1.6105 C   0  0  0  0  0  0  0  0  0  0  0  0
    4.6767   -5.6035    1.4980 O   0  0  0  0  0  0  0  0  0  0  0  0
    3.3473   -5.8956    1.7766 C   0  0  2  0  0  0  0  0  0  0  0  0
    3.2231   -7.2889    1.9025 O   0  0  0  0  0  0  0  0  0  0  0  0
    2.5662   -5.5291    0.4845 C   0  0  0  0  0  0  0  0  0  0  0  0
    2.7723   -4.0629    0.0876 C   0  0  0  0  0  0  0  0  0  0  0  0
    4.2474   -3.6778    0.1936 C   0  0  1  0  0  0  0  0  0  0  0  0
    4.4517   -2.1838   -0.1444 C   0  0  0  0  0  0  0  0  0  0  0  0
    3.0327   -5.0510    3.1098 C   0  0  1  0  0  0  0  0  0  0  0  0
    1.5315   -4.6140    3.2171 C   0  0  0  0  0  0  0  0  0  0  0  0
    0.7189   -5.3302    4.1608 O   0  0  0  0  0  0  0  0  0  0  0  0
    0.5665   -6.7145    4.0186 C   0  0  1  0  0  0  0  0  0  0  0  0
    0.4309   -7.1133    2.6889 O   0  0  0  0  0  0  0  0  0  0  0  0
   -1.3232   -8.9364    3.9601 H   0  0  0  0  0  0  0  0  0  0  0  0
   -1.2625  -10.0179    2.5725 H   0  0  0  0  0  0  0  0  0  0  0  0
   -1.8889   -8.3812    2.3764 H   0  0  0  0  0  0  0  0  0  0  0  0
    0.4340   -8.6513    1.4507 H   0  0  0  0  0  0  0  0  0  0  0  0
    0.6121   -9.3756    5.0845 H   0  0  0  0  0  0  0  0  0  0  0  0
    2.3227   -9.5784    4.8640 H   0  0  0  0  0  0  0  0  0  0  0  0
    1.5685   -7.3090    5.8276 H   0  0  0  0  0  0  0  0  0  0  0  0
    3.6764   -5.9259    6.5164 H   0  0  0  0  0  0  0  0  0  0  0  0
    2.7703   -3.3294    5.3164 H   0  0  0  0  0  0  0  0  0  0  0  0
    2.7121   -3.7765    6.9508 H   0  0  0  0  0  0  0  0  0  0  0  0
    4.7893   -2.7787    7.4799 H   0  0  0  0  0  0  0  0  0  0  0  0
    6.0218   -0.0622    5.1144 H   0  0  0  0  0  0  0  0  0  0  0  0
    4.8658   -0.3380    7.8358 H   0  0  0  0  0  0  0  0  0  0  0  0
    5.9236    0.8992    7.1954 H   0  0  0  0  0  0  0  0  0  0  0  0
    3.7263    2.0251    7.5903 H   0  0  0  0  0  0  0  0  0  0  0  0
    2.1673   -1.2880    5.7750 H   0  0  0  0  0  0  0  0  0  0  0  0
   -0.3274   -0.8184    4.3262 H   0  0  0  0  0  0  0  0  0  0  0  0
   -0.3425    1.1969    2.6684 H   0  0  0  0  0  0  0  0  0  0  0  0
   -2.3250    1.3222    3.3071 H   0  0  0  0  0  0  0  0  0  0  0  0
    2.1566    1.7143    3.3852 H   0  0  0  0  0  0  0  0  0  0  0  0
    4.5772    2.8032    5.3325 H   0  0  0  0  0  0  0  0  0  0  0  0
    2.8392   -2.0819    2.4943 H   0  0  0  0  0  0  0  0  0  0  0  0
    4.8608   -4.0761    3.6243 H   0  0  0  0  0  0  0  0  0  0  0  0
    6.6299   -2.9447    1.7010 H   0  0  0  0  0  0  0  0  0  0  0  0
    6.8590   -4.3897    0.7199 H   0  0  0  0  0  0  0  0  0  0  0  0
    6.7875   -4.5277    2.4637 H   0  0  0  0  0  0  0  0  0  0  0  0
    3.5697   -7.5248    2.7545 H   0  0  0  0  0  0  0  0  0  0  0  0
    2.9701   -6.1602   -0.3118 H   0  0  0  0  0  0  0  0  0  0  0  0
    1.5134   -5.7988    0.5705 H   0  0  0  0  0  0  0  0  0  0  0  0
    2.4319   -3.9225   -0.9373 H   0  0  0  0  0  0  0  0  0  0  0  0
    2.1738   -3.3963    0.7011 H   0  0  0  0  0  0  0  0  0  0  0  0
    4.7691   -4.2218   -0.5953 H   0  0  0  0  0  0  0  0  0  0  0  0
    3.8365   -1.5246    0.4678 H   0  0  0  0  0  0  0  0  0  0  0  0
    4.1620   -2.0016   -1.1808 H   0  0  0  0  0  0  0  0  0  0  0  0
    5.4917   -1.8702   -0.0444 H   0  0  0  0  0  0  0  0  0  0  0  0
    1.4521   -3.5819    3.5644 H   0  0  0  0  0  0  0  0  0  0  0  0
    1.0182   -4.6233    2.2710 H   0  0  0  0  0  0  0  0  0  0  0  0
   -0.3861   -6.9319    4.5098 H   0  0  0  0  0  0  0  0  0  0  0  0
  1  2  1  0
  1 47  1  0
  1 48  1  0
  1 49  1  0
  2 46  1  0
  2  3  1  0
  2 50  1  6
  3  4  1  0
  4  5  1  0
  4 51  1  0
  4 52  1  0
  5 45  1  0
  5  6  1  0
  5 53  1  1
  6  7  1  0
  7 42  1  0
  7  8  2  3
  8  9  1  0
  8 54  1  0
  9 10  1  0
  9 55  1  0
  9 56  1  0
 10 12  1  0
 10 11  1  0
 10 57  1  1
 12 11  1  6
 12 29  1  0
 12 13  1  0
 13 28  1  0
 13 14  1  0
 13 58  1  6
 14 15  1  0
 14 59  1  0
 14 60  1  0
 15 26  1  0
 15 16  1  0
 15 61  1  1
 16 17  1  0
 17 28  1  0
 17 18  1  0
 17 62  1  1
 18 20  1  0
 18 24  1  0
 18 19  1  1
 19 20  1  0
 20 21  1  0
 20 63  1  1
 21 22  1  0
 21 23  1  0
 21 64  1  6
 22 65  1  0
 23 24  1  0
 24 25  1  0
 24 66  1  6
 25 26  1  0
 26 27  1  0
 26 67  1  1
 28 27  1  6
 28 29  1  0
 29 31  1  0
 29 30  1  6
 30 31  1  0
 31 32  1  0
 31 68  1  6
 32 42  1  0
 32 33  1  0
 32 69  1  1
 33 40  1  0
 33 34  1  1
 33 35  1  0
 34 70  1  0
 34 71  1  0
 34 72  1  0
 35 36  1  0
 36 37  1  1
 36 38  1  0
 36 42  1  0
 37 73  1  0
 38 39  1  0
 38 74  1  0
 38 75  1  0
 39 40  1  0
 39 76  1  0
 39 77  1  0
 40 41  1  0
 40 78  1  6
 41 79  1  0
 41 80  1  0
 41 81  1  0
 42 43  1  6
 43 44  1  0
 43 82  1  0
 43 83  1  0
 44 45  1  0
 45 46  1  0
 45 84  1  1
M  END
>  <i_m_ct_stereo_status>  (105) 
1

>  <s_m_source_file>  (105) 
/var/tmp/pbs.5076253.sched01/tmp0k8q0ypy/944rjgrua_.sdf

>  <i_m_source_file_index>  (105) 
33

>  <i_lp_mmshare_version>  (105) 
48012

>  <i_f3d_flags>  (105) 
0

>  <s_epik_input>  (105) 
W0NIMl0xT1tDQEBIXShbQ0gzXSlPW0NASF0oT1tDSDJdMilbQ0BASF0xTy9DKD1bQ0hdXFtDSDJdW0NASF0zTzQpW0NAXTIoQzUoW09IXSlPW0NAQF02KFtDSDNdKVtDQEhdKFtDSDNdKVtDSDJdW0NIMl01KVtDQEBIXTZbQ0BIXShPNylbQ0BdNyhbQ0BAXTM0OClbQ0BAXTE5W0NASF04W0NIMl1bQ0BIXTJbQ0BASF0oTzEpT1tDQEhdMVtDQF0zKFtDQEBIXTlPMilbQ0BASF0oTzMpW0NASF0oTzEpW09IXQ==

>  <s_epik_cmdline>  (105) 
J2VwaWtfcHl0aG9uJywgJy1waHQnLCAnMi4wJywgJy1waCcsICc3LjAnLCAnLXRuJywgJzgnLCAnLW1hJywgJzIwMCcsICctaW1hZScsICc8aW5maWxlLm1hZT4nLCAnLW9tYWUnLCAnPG91dGZpbGUubWFlPic=

>  <r_lp_tautomer_probability>  (105) 
1

>  <r_epik_Ionization_Penalty>  (105) 
1.39393e-05

>  <r_epik_Ionization_Penalty_Charging>  (105) 
0

>  <r_epik_Ionization_Penalty_Neutral>  (105) 
1.39393e-05

>  <r_epik_State_Penalty>  (105) 
-0

>  <r_epik_Charging_Adjusted_Penalty>  (105) 
0

>  <i_epik_Tot_Q>  (105) 
0

>  <i_epik_Tot_abs_Q>  (105) 
0

>  <s_epik_Chemistry_Notes>  (105) 
This compound contains an acetal/aminal-like group ( X-CH(R)-Y where X, Y are N, S, or O) that may be acid/base labile, releasing an aldehyde.

>  <s_lp_Force_Field>  (105) 
OPLS3e

>  <r_lp_Energy>  (105) 
139.99

>  <b_lp_Chiralities_Consistent>  (105) 
1

>  <s_lp_Variant>  (105) 
76:0-2

>  <s_i_glide_gridfile>  (105) 
pfpi4k_grid

>  <i_i_glide_lignum>  (105) 
33

>  <i_i_glide_rotatable_bonds>  (105) 
2

>  <r_i_docking_score>  (105) 
-3.26687

>  <r_i_glide_ligand_efficiency>  (105) 
-0.0710189

>  <r_i_glide_ligand_efficiency_sa>  (105) 
-0.254464

>  <r_i_glide_ligand_efficiency_ln>  (105) 
-0.676561

>  <r_i_glide_gscore>  (105) 
-3.26687

>  <r_i_glide_lipo>  (105) 
-0.172355

>  <r_i_glide_hbond>  (105) 
0

>  <r_i_glide_metal>  (105) 
-0

>  <r_i_glide_rewards>  (105) 
-0.528164

>  <r_i_glide_evdw>  (105) 
-32.234

>  <r_i_glide_ecoul>  (105) 
-5.73195

>  <r_i_glide_erotb>  (105) 
0

>  <r_i_glide_esite>  (105) 
-0.0948586

>  <r_i_glide_emodel>  (105) 
-49.4486

>  <r_i_glide_energy>  (105) 
-37.9659

>  <r_i_glide_einternal>  (105) 
2.11058

>  <r_i_glide_intrahb_reward>  (105) 
-0.5

>  <i_i_glide_confnum>  (105) 
2

>  <i_i_glide_posenum>  (105) 
35

>  <r_i_glide_eff_state_penalty>  (105) 
0

>  <ligand_id>  (105) 
76

>  <original_smiles>  (105) 
CC1OCC2OC3=CCC4OC45C4CC6OC7C89OC8C(O)OC9OC6OC74C54OC4C4C5(C)OC(O)(CCC5C)C34COC2O1

>  <smiles>  (105) 
[H]OC1([H])OC2([H])OC3([H])OC45C([H])(OC3([H])C([H])([H])C4([H])C34OC3([H])C([H])([H])C([H])=C3OC6([H])C([H])([H])OC([H])(C([H])([H])[H])OC6([H])OC([H])([H])C36C3(O[H])OC(C([H])([H])[H])(C([H])(C([H])([H])[H])C([H])([H])C3([H])[H])C6([H])C3([H])OC345)C23OC13[H]

$$$$
76:1:2
     RDKit          3D

 84 96  0  0  1  0  0  0  0  0999 V2000
   -1.7765   -8.6712    3.2327 C   0  0  0  0  0  0  0  0  0  0  0  0
   -0.3045   -8.3615    2.8914 C   0  0  2  0  0  0  0  0  0  0  0  0
    0.5795   -9.1765    3.6005 O   0  0  0  0  0  0  0  0  0  0  0  0
    0.7372   -8.8743    4.9779 C   0  0  0  0  0  0  0  0  0  0  0  0
    1.1077   -7.3925    5.1573 C   0  0  1  0  0  0  0  0  0  0  0  0
    2.4993   -7.1845    4.8439 O   0  0  0  0  0  0  0  0  0  0  0  0
    2.8934   -5.8711    4.8434 C   0  0  0  0  0  0  0  0  0  0  0  0
    3.1295   -5.2947    6.0419 C   0  0  0  0  0  0  0  0  0  0  0  0
    3.0992   -3.8137    6.3593 C   0  0  0  0  0  0  0  0  0  0  0  0
    4.3995   -3.0909    6.7136 C   0  0  1  0  0  0  0  0  0  0  0  0
    5.6373   -3.2952    5.9669 O   0  0  0  0  0  0  0  0  0  0  0  0
    4.8990   -2.1172    5.6870 C   0  0  2  0  0  0  0  0  0  0  0  0
    5.2251   -0.6493    5.8645 C   0  0  2  0  0  0  0  0  0  0  0  0
    5.1188    0.1801    7.1310 C   0  0  0  0  0  0  0  0  0  0  0  0
    4.0307    1.2496    6.8284 C   0  0  2  0  0  0  0  0  0  0  0  0
    2.8610    0.4436    6.8786 O   0  0  0  0  0  0  0  0  0  0  0  0
    2.6215   -0.2398    5.6441 C   0  0  1  0  0  0  0  0  0  0  0  0
    1.5761    0.6495    4.9838 C   0  0  2  0  0  0  0  0  0  0  0  0
    0.4201    0.7686    5.8334 O   0  0  0  0  0  0  0  0  0  0  0  0
    0.1997    0.4270    4.4769 C   0  0  1  0  0  0  0  0  0  0  0  0
   -0.0739    1.6026    3.5727 C   0  0  1  0  0  0  0  0  0  0  0  0
   -1.3978    2.0574    3.7357 O   0  0  0  0  0  0  0  0  0  0  0  0
    0.9073    2.5635    3.9078 O   0  0  0  0  0  0  0  0  0  0  0  0
    2.0850    1.8867    4.2789 C   0  0  1  0  0  0  0  0  0  0  0  0
    2.9897    2.6070    5.0715 O   0  0  0  0  0  0  0  0  0  0  0  0
    4.1678    1.8758    5.3577 C   0  0  2  0  0  0  0  0  0  0  0  0
    4.4257    0.8510    4.3899 O   0  0  0  0  0  0  0  0  0  0  0  0
    4.0037   -0.3878    4.9314 C   0  0  1  0  0  0  0  0  0  0  0  0
    4.1887   -1.7960    4.4117 C   0  0  1  0  0  0  0  0  0  0  0  0
    4.9250   -1.8764    3.1935 O   0  0  0  0  0  0  0  0  0  0  0  0
    3.7014   -2.6464    3.2715 C   0  0  1  0  0  0  0  0  0  0  0  0
    3.9428   -4.1580    3.2009 C   0  0  2  0  0  0  0  0  0  0  0  0
    4.7069   -4.6078    1.9221 C   0  0  1  0  0  0  0  0  0  0  0  0
    6.2362   -4.5492    2.0503 C   0  0  0  0  0  0  0  0  0  0  0  0
    4.3994   -5.9857    1.9459 O   0  0  0  0  0  0  0  0  0  0  0  0
    3.0389   -6.1257    2.1775 C   0  0  2  0  0  0  0  0  0  0  0  0
    2.7651   -7.4884    2.3706 O   0  0  0  0  0  0  0  0  0  0  0  0
    2.3548   -5.7571    0.8288 C   0  0  0  0  0  0  0  0  0  0  0  0
    2.7238   -4.3427    0.3685 C   0  0  0  0  0  0  0  0  0  0  0  0
    4.2242   -4.1020    0.5237 C   0  0  1  0  0  0  0  0  0  0  0  0
    4.5932   -2.6571    0.1183 C   0  0  0  0  0  0  0  0  0  0  0  0
    2.7564   -5.1803    3.4463 C   0  0  1  0  0  0  0  0  0  0  0  0
    1.3068   -4.5907    3.4543 C   0  0  0  0  0  0  0  0  0  0  0  0
    0.3919   -5.1704    4.3987 O   0  0  0  0  0  0  0  0  0  0  0  0
    0.1025   -6.5387    4.3168 C   0  0  1  0  0  0  0  0  0  0  0  0
   -0.0181   -6.9953    3.0014 O   0  0  0  0  0  0  0  0  0  0  0  0
   -1.9912   -8.5519    4.2928 H   0  0  0  0  0  0  0  0  0  0  0  0
   -1.9928   -9.7065    2.9651 H   0  0  0  0  0  0  0  0  0  0  0  0
   -2.4406   -8.0278    2.6567 H   0  0  0  0  0  0  0  0  0  0  0  0
   -0.1414   -8.6185    1.8433 H   0  0  0  0  0  0  0  0  0  0  0  0
   -0.1722   -9.1286    5.5228 H   0  0  0  0  0  0  0  0  0  0  0  0
    1.5154   -9.5113    5.3948 H   0  0  0  0  0  0  0  0  0  0  0  0
    0.9558   -7.1286    6.2043 H   0  0  0  0  0  0  0  0  0  0  0  0
    3.1647   -5.9220    6.9219 H   0  0  0  0  0  0  0  0  0  0  0  0
    2.5838   -3.3186    5.5451 H   0  0  0  0  0  0  0  0  0  0  0  0
    2.4156   -3.6654    7.1934 H   0  0  0  0  0  0  0  0  0  0  0  0
    4.5595   -2.8520    7.7648 H   0  0  0  0  0  0  0  0  0  0  0  0
    6.1511   -0.4042    5.3295 H   0  0  0  0  0  0  0  0  0  0  0  0
    4.8607   -0.4153    8.0037 H   0  0  0  0  0  0  0  0  0  0  0  0
    6.0642    0.6745    7.3504 H   0  0  0  0  0  0  0  0  0  0  0  0
    3.9779    2.0315    7.5821 H   0  0  0  0  0  0  0  0  0  0  0  0
    2.1688   -1.2049    5.8683 H   0  0  0  0  0  0  0  0  0  0  0  0
   -0.2080   -0.5695    4.2853 H   0  0  0  0  0  0  0  0  0  0  0  0
    0.0522    1.3242    2.5245 H   0  0  0  0  0  0  0  0  0  0  0  0
   -1.5734    2.6656    3.0418 H   0  0  0  0  0  0  0  0  0  0  0  0
    2.5586    1.6452    3.3268 H   0  0  0  0  0  0  0  0  0  0  0  0
    4.9947    2.5941    5.3362 H   0  0  0  0  0  0  0  0  0  0  0  0
    2.8907   -2.2467    2.6712 H   0  0  0  0  0  0  0  0  0  0  0  0
    4.6526   -4.3643    3.9958 H   0  0  0  0  0  0  0  0  0  0  0  0
    6.5963   -3.5225    2.0741 H   0  0  0  0  0  0  0  0  0  0  0  0
    6.7220   -5.0472    1.2097 H   0  0  0  0  0  0  0  0  0  0  0  0
    6.5805   -5.0495    2.9567 H   0  0  0  0  0  0  0  0  0  0  0  0
    3.0398   -7.7053    3.2525 H   0  0  0  0  0  0  0  0  0  0  0  0
    2.7325   -6.4591    0.0889 H   0  0  0  0  0  0  0  0  0  0  0  0
    1.2776   -5.9187    0.8816 H   0  0  0  0  0  0  0  0  0  0  0  0
    2.4434   -4.2289   -0.6782 H   0  0  0  0  0  0  0  0  0  0  0  0
    2.1708   -3.5852    0.9172 H   0  0  0  0  0  0  0  0  0  0  0  0
    4.7214   -4.7380   -0.2111 H   0  0  0  0  0  0  0  0  0  0  0  0
    4.0238   -1.9059    0.6650 H   0  0  0  0  0  0  0  0  0  0  0  0
    4.3686   -2.5061   -0.9390 H   0  0  0  0  0  0  0  0  0  0  0  0
    5.6544   -2.4432    0.2497 H   0  0  0  0  0  0  0  0  0  0  0  0
    1.3197   -3.5406    3.7499 H   0  0  0  0  0  0  0  0  0  0  0  0
    0.8274   -4.5883    2.4851 H   0  0  0  0  0  0  0  0  0  0  0  0
   -0.8864   -6.6280    4.7774 H   0  0  0  0  0  0  0  0  0  0  0  0
  1  2  1  0
  1 47  1  0
  1 48  1  0
  1 49  1  0
  2 46  1  0
  2  3  1  0
  2 50  1  6
  3  4  1  0
  4  5  1  0
  4 51  1  0
  4 52  1  0
  5 45  1  0
  5  6  1  0
  5 53  1  1
  6  7  1  0
  7 42  1  0
  7  8  2  3
  8  9  1  0
  8 54  1  0
  9 10  1  0
  9 55  1  0
  9 56  1  0
 10 12  1  0
 10 11  1  0
 10 57  1  1
 12 11  1  6
 12 29  1  0
 12 13  1  0
 13 28  1  0
 13 14  1  0
 13 58  1  6
 14 15  1  0
 14 59  1  0
 14 60  1  0
 15 26  1  0
 15 16  1  0
 15 61  1  1
 16 17  1  0
 17 28  1  0
 17 18  1  0
 17 62  1  1
 18 20  1  0
 18 24  1  0
 18 19  1  1
 19 20  1  0
 20 21  1  0
 20 63  1  1
 21 22  1  0
 21 23  1  0
 21 64  1  6
 22 65  1  0
 23 24  1  0
 24 25  1  0
 24 66  1  6
 25 26  1  0
 26 27  1  0
 26 67  1  1
 28 27  1  6
 28 29  1  0
 29 31  1  0
 29 30  1  6
 30 31  1  0
 31 32  1  0
 31 68  1  6
 32 42  1  0
 32 33  1  0
 32 69  1  1
 33 40  1  0
 33 34  1  1
 33 35  1  0
 34 70  1  0
 34 71  1  0
 34 72  1  0
 35 36  1  0
 36 37  1  1
 36 38  1  0
 36 42  1  0
 37 73  1  0
 38 39  1  0
 38 74  1  0
 38 75  1  0
 39 40  1  0
 39 76  1  0
 39 77  1  0
 40 41  1  0
 40 78  1  6
 41 79  1  0
 41 80  1  0
 41 81  1  0
 42 43  1  6
 43 44  1  0
 43 82  1  0
 43 83  1  0
 44 45  1  0
 45 46  1  0
 45 84  1  1
M  END
>  <i_m_ct_stereo_status>  (106) 
1

>  <s_m_source_file>  (106) 
/var/tmp/pbs.5076253.sched01/tmp0k8q0ypy/944rjgrua_.sdf

>  <i_m_source_file_index>  (106) 
33

>  <i_lp_mmshare_version>  (106) 
48012

>  <i_f3d_flags>  (106) 
0

>  <s_epik_input>  (106) 
W0NIMl0xT1tDQEBIXShbQ0gzXSlPW0NASF0oT1tDSDJdMilbQ0BASF0xTy9DKD1bQ0hdXFtDSDJdW0NASF0zTzQpW0NAXTIoQzUoW09IXSlPW0NAQF02KFtDSDNdKVtDQEhdKFtDSDNdKVtDSDJdW0NIMl01KVtDQEBIXTZbQ0BIXShPNylbQ0BdNyhbQ0BAXTM0OClbQ0BAXTE5W0NASF04W0NIMl1bQ0BIXTJbQ0BASF0oTzEpT1tDQEhdMVtDQF0zKFtDQEBIXTlPMilbQ0BASF0oTzMpW0NASF0oTzEpW09IXQ==

>  <s_epik_cmdline>  (106) 
J2VwaWtfcHl0aG9uJywgJy1waHQnLCAnMi4wJywgJy1waCcsICc3LjAnLCAnLXRuJywgJzgnLCAnLW1hJywgJzIwMCcsICctaW1hZScsICc8aW5maWxlLm1hZT4nLCAnLW9tYWUnLCAnPG91dGZpbGUubWFlPic=

>  <r_lp_tautomer_probability>  (106) 
1

>  <r_epik_Ionization_Penalty>  (106) 
1.39393e-05

>  <r_epik_Ionization_Penalty_Charging>  (106) 
0

>  <r_epik_Ionization_Penalty_Neutral>  (106) 
1.39393e-05

>  <r_epik_State_Penalty>  (106) 
-0

>  <r_epik_Charging_Adjusted_Penalty>  (106) 
0

>  <i_epik_Tot_Q>  (106) 
0

>  <i_epik_Tot_abs_Q>  (106) 
0

>  <s_epik_Chemistry_Notes>  (106) 
This compound contains an acetal/aminal-like group ( X-CH(R)-Y where X, Y are N, S, or O) that may be acid/base labile, releasing an aldehyde.

>  <s_lp_Force_Field>  (106) 
OPLS3e

>  <r_lp_Energy>  (106) 
139.99

>  <b_lp_Chiralities_Consistent>  (106) 
1

>  <s_lp_Variant>  (106) 
76:0-2

>  <s_i_glide_gridfile>  (106) 
pfpi4k_grid

>  <i_i_glide_lignum>  (106) 
33

>  <i_i_glide_rotatable_bonds>  (106) 
2

>  <r_i_docking_score>  (106) 
-2.75272

>  <r_i_glide_ligand_efficiency>  (106) 
-0.0598418

>  <r_i_glide_ligand_efficiency_sa>  (106) 
-0.214416

>  <r_i_glide_ligand_efficiency_ln>  (106) 
-0.570082

>  <r_i_glide_gscore>  (106) 
-2.75272

>  <r_i_glide_lipo>  (106) 
-0.130636

>  <r_i_glide_hbond>  (106) 
-0.0162157

>  <r_i_glide_metal>  (106) 
-0

>  <r_i_glide_rewards>  (106) 
-0.505269

>  <r_i_glide_evdw>  (106) 
-32.9704

>  <r_i_glide_ecoul>  (106) 
-2.30183

>  <r_i_glide_erotb>  (106) 
0

>  <r_i_glide_esite>  (106) 
-0.106807

>  <r_i_glide_emodel>  (106) 
-46.3516

>  <r_i_glide_energy>  (106) 
-35.2722

>  <r_i_glide_einternal>  (106) 
0.364876

>  <r_i_glide_intrahb_reward>  (106) 
-0.5

>  <i_i_glide_confnum>  (106) 
2

>  <i_i_glide_posenum>  (106) 
2

>  <r_i_glide_eff_state_penalty>  (106) 
0

>  <ligand_id>  (106) 
76

>  <original_smiles>  (106) 
CC1OCC2OC3=CCC4OC45C4CC6OC7C89OC8C(O)OC9OC6OC74C54OC4C4C5(C)OC(O)(CCC5C)C34COC2O1

>  <smiles>  (106) 
[H]OC1([H])OC2([H])OC3([H])OC45C([H])(OC3([H])C([H])([H])C4([H])C34OC3([H])C([H])([H])C([H])=C3OC6([H])C([H])([H])OC([H])(C([H])([H])[H])OC6([H])OC([H])([H])C36C3(O[H])OC(C([H])([H])[H])(C([H])(C([H])([H])[H])C([H])([H])C3([H])[H])C6([H])C3([H])OC345)C23OC13[H]

$$$$
78:0:0
     RDKit          3D

 95106  0  0  1  0  0  0  0  0999 V2000
    1.8453   -4.1369    3.8761 C   0  0  0  0  0  0  0  0  0  0  0  0
    1.8016   -4.4763    5.2612 O   0  0  0  0  0  0  0  0  0  0  0  0
    2.9504   -5.1850    5.7317 C   0  0  2  0  0  0  0  0  0  0  0  0
    2.8997   -6.6222    5.1291 C   0  0  1  0  0  0  0  0  0  0  0  0
    3.5788   -6.6325    3.8826 O   0  0  0  0  0  0  0  0  0  0  0  0
    3.3740   -7.8074    3.1692 C   0  0  1  0  0  0  0  0  0  0  0  0
    3.9380   -7.7334    1.8961 O   0  0  0  0  0  0  0  0  0  0  0  0
    3.3702   -6.7302    1.0709 C   0  0  0  0  0  0  0  0  0  0  0  0
    4.0003   -9.0213    3.9481 C   0  0  1  0  0  0  0  0  0  0  0  0
    5.3033   -9.2950    3.4467 O   0  0  0  0  0  0  0  0  0  0  0  0
    4.1137   -8.7902    5.3052 O   0  0  0  0  0  0  0  0  0  0  0  0
    3.4984   -7.7259    6.0247 C   0  0  1  0  0  0  0  0  0  0  0  0
    4.7366   -7.1208    6.8177 C   0  0  1  0  0  0  0  0  0  0  0  0
    5.8825   -7.0171    5.9985 O   0  0  0  0  0  0  0  0  0  0  0  0
    6.1741   -5.7787    5.3304 C   0  0  0  0  0  0  0  0  0  0  0  0
    4.5208   -5.9128    7.4910 O   0  0  0  0  0  0  0  0  0  0  0  0
    3.3896   -5.0698    7.2594 C   0  0  2  0  0  0  0  0  0  0  0  0
    2.4155   -5.2759    8.4826 C   0  0  2  0  0  0  0  0  0  0  0  0
    3.0730   -4.8429    9.8347 C   0  0  0  0  0  0  0  0  0  0  0  0
    3.7146   -3.8742   10.2396 O   0  0  0  0  0  0  0  0  0  0  0  0
    2.7345   -5.9968   10.4762 O   0  0  0  0  0  0  0  0  0  0  0  0
    2.5994   -6.6232    9.1869 C   0  0  1  0  0  0  0  0  0  0  0  0
    1.5226   -7.4906    9.0206 O   0  0  0  0  0  0  0  0  0  0  0  0
    1.2777   -7.8019    7.6630 C   0  0  1  0  0  0  0  0  0  0  0  0
    0.4149   -6.7485    6.9713 C   0  0  0  0  0  0  0  0  0  0  0  0
    0.2165   -5.4403    7.2880 C   0  0  0  0  0  0  0  0  0  0  0  0
   -1.1381   -4.9249    7.0962 C   0  0  2  0  0  0  0  0  0  0  0  0
   -1.4916   -3.5577    7.3543 O   0  0  0  0  0  0  0  0  0  0  0  0
   -1.4364   -4.4513    8.4860 C   0  0  2  0  0  0  0  0  0  0  0  0
   -0.1629   -4.4322    9.3496 C   0  0  2  0  0  0  0  0  0  0  0  0
   -0.2936   -5.5419   10.4151 C   0  0  0  0  0  0  0  0  0  0  0  0
   -0.3641   -3.1759    9.9904 O   0  0  0  0  0  0  0  0  0  0  0  0
    0.8979   -2.7034   10.6601 O   0  0  0  0  0  0  0  0  0  0  0  0
    1.4844   -1.7706    9.7812 C   0  0  1  0  0  0  0  0  0  0  0  0
    2.1335   -2.3067    8.6503 O   0  0  0  0  0  0  0  0  0  0  0  0
    1.2955   -3.0611    7.7957 C   0  0  0  0  0  0  0  0  0  0  0  0
    1.0195   -4.5504    8.2807 C   0  0  1  0  0  0  0  0  0  0  0  0
    0.8691   -0.4058    9.6418 C   0  0  2  0  0  0  0  0  0  0  0  0
    0.9422    0.3868    8.3888 C   0  0  0  0  0  0  0  0  0  0  0  0
    1.9760    1.1892    8.0939 C   0  0  0  0  0  0  0  0  0  0  0  0
    2.0802    1.9549    6.7836 C   0  0  0  0  0  0  0  0  0  0  0  0
    3.1336    1.3593    9.0713 C   0  0  0  0  0  0  0  0  0  0  0  0
    3.4196    0.0748    9.8864 C   0  0  0  0  0  0  0  0  0  0  0  0
    2.1615   -0.5819   10.4450 C   0  0  2  0  0  0  0  0  0  0  0  0
    2.3831   -8.5677    6.8298 C   0  0  2  0  0  0  0  0  0  0  0  0
    3.0264   -9.4460    7.7492 O   0  0  0  0  0  0  0  0  0  0  0  0
    1.6065   -9.6163    5.9741 C   0  0  1  0  0  0  0  0  0  0  0  0
    1.0660   -9.1473    4.7311 O   0  0  0  0  0  0  0  0  0  0  0  0
    1.8613  -10.3518    4.6390 C   0  0  2  0  0  0  0  0  0  0  0  0
    1.0928  -11.6707    4.4808 C   0  0  0  0  0  0  0  0  0  0  0  0
    0.6063  -11.8746    3.1840 O   0  0  0  0  0  0  0  0  0  0  0  0
    3.1774  -10.3033    3.8277 C   0  0  1  0  0  0  0  0  0  0  0  0
    2.9783  -10.6280    2.4729 O   0  0  0  0  0  0  0  0  0  0  0  0
    1.0329   -3.4469    3.6615 H   0  0  0  0  0  0  0  0  0  0  0  0
    1.7062   -5.0186    3.2580 H   0  0  0  0  0  0  0  0  0  0  0  0
    2.7693   -3.6505    3.5613 H   0  0  0  0  0  0  0  0  0  0  0  0
    3.7518   -4.6035    5.2677 H   0  0  0  0  0  0  0  0  0  0  0  0
    1.8674   -6.8665    4.9103 H   0  0  0  0  0  0  0  0  0  0  0  0
    2.2965   -7.9619    3.0320 H   0  0  0  0  0  0  0  0  0  0  0  0
    3.8240   -6.7751    0.0814 H   0  0  0  0  0  0  0  0  0  0  0  0
    3.5547   -5.7355    1.4774 H   0  0  0  0  0  0  0  0  0  0  0  0
    2.2948   -6.8724    0.9551 H   0  0  0  0  0  0  0  0  0  0  0  0
    5.5898  -10.1115    3.8083 H   0  0  0  0  0  0  0  0  0  0  0  0
    5.0700   -7.8582    7.5619 H   0  0  0  0  0  0  0  0  0  0  0  0
    7.0902   -5.8340    4.7444 H   0  0  0  0  0  0  0  0  0  0  0  0
    6.2703   -4.9734    6.0520 H   0  0  0  0  0  0  0  0  0  0  0  0
    5.4241   -5.4788    4.6139 H   0  0  0  0  0  0  0  0  0  0  0  0
    3.8226   -4.0712    7.3621 H   0  0  0  0  0  0  0  0  0  0  0  0
    3.5227   -7.1725    8.9957 H   0  0  0  0  0  0  0  0  0  0  0  0
    0.5264   -8.5555    7.8924 H   0  0  0  0  0  0  0  0  0  0  0  0
   -0.3346   -7.2263    6.3479 H   0  0  0  0  0  0  0  0  0  0  0  0
   -1.8612   -5.5090    6.5256 H   0  0  0  0  0  0  0  0  0  0  0  0
   -2.3950   -4.6658    8.9561 H   0  0  0  0  0  0  0  0  0  0  0  0
   -0.3412   -6.5317    9.9761 H   0  0  0  0  0  0  0  0  0  0  0  0
   -1.2234   -5.4371   10.9735 H   0  0  0  0  0  0  0  0  0  0  0  0
    0.5034   -5.5421   11.1511 H   0  0  0  0  0  0  0  0  0  0  0  0
    0.4188   -2.4656    7.5892 H   0  0  0  0  0  0  0  0  0  0  0  0
    1.8666   -2.9848    6.8875 H   0  0  0  0  0  0  0  0  0  0  0  0
   -0.0309   -0.1851   10.2128 H   0  0  0  0  0  0  0  0  0  0  0  0
    0.1203    0.2745    7.6991 H   0  0  0  0  0  0  0  0  0  0  0  0
    2.2045    3.0220    6.9597 H   0  0  0  0  0  0  0  0  0  0  0  0
    1.1905    1.8072    6.1714 H   0  0  0  0  0  0  0  0  0  0  0  0
    2.9365    1.6070    6.2046 H   0  0  0  0  0  0  0  0  0  0  0  0
    4.0334    1.6611    8.5369 H   0  0  0  0  0  0  0  0  0  0  0  0
    2.8790    2.1885    9.7343 H   0  0  0  0  0  0  0  0  0  0  0  0
    3.9233   -0.6466    9.2439 H   0  0  0  0  0  0  0  0  0  0  0  0
    4.1088    0.2977   10.7025 H   0  0  0  0  0  0  0  0  0  0  0  0
    2.0428   -0.4780   11.5245 H   0  0  0  0  0  0  0  0  0  0  0  0
    2.5399  -10.2607    7.7924 H   0  0  0  0  0  0  0  0  0  0  0  0
    0.8491  -10.1328    6.5644 H   0  0  0  0  0  0  0  0  0  0  0  0
    1.7381  -12.5075    4.7557 H   0  0  0  0  0  0  0  0  0  0  0  0
    0.2292  -11.7047    5.1417 H   0  0  0  0  0  0  0  0  0  0  0  0
    0.0310  -11.1540    2.9572 H   0  0  0  0  0  0  0  0  0  0  0  0
    3.7750  -11.1134    4.2559 H   0  0  0  0  0  0  0  0  0  0  0  0
    3.7250  -11.0927    2.1200 H   0  0  0  0  0  0  0  0  0  0  0  0
  1  2  1  0
  1 54  1  0
  1 55  1  0
  1 56  1  0
  2  3  1  0
  3 17  1  0
  3  4  1  0
  3 57  1  6
  4 12  1  0
  4  5  1  0
  4 58  1  6
  5  6  1  0
  6  7  1  0
  6  9  1  0
  6 59  1  6
  7  8  1  0
  8 60  1  0
  8 61  1  0
  8 62  1  0
  9 52  1  0
  9 10  1  6
  9 11  1  0
 10 63  1  0
 12 11  1  6
 12 45  1  0
 12 13  1  0
 13 14  1  0
 13 16  1  0
 13 64  1  1
 14 15  1  0
 15 65  1  0
 15 66  1  0
 15 67  1  0
 16 17  1  0
 17 18  1  0
 17 68  1  6
 18 22  1  0
 18 37  1  0
 18 19  1  1
 19 20  2  0
 19 21  1  0
 21 22  1  0
 22 23  1  0
 22 69  1  6
 23 24  1  0
 24 25  1  0
 24 45  1  0
 24 70  1  1
 25 26  2  0
 25 71  1  0
 26 37  1  0
 26 27  1  0
 27 29  1  0
 27 28  1  0
 27 72  1  6
 28 29  1  0
 29 30  1  0
 29 73  1  1
 30 37  1  0
 30 31  1  1
 30 32  1  0
 31 74  1  0
 31 75  1  0
 31 76  1  0
 32 33  1  0
 34 33  1  1
 34 44  1  0
 34 35  1  0
 34 38  1  0
 35 36  1  0
 37 36  1  6
 36 77  1  0
 36 78  1  0
 38 44  1  0
 38 39  1  0
 38 79  1  1
 39 40  2  0
 39 80  1  0
 40 41  1  0
 40 42  1  0
 41 81  1  0
 41 82  1  0
 41 83  1  0
 42 43  1  0
 42 84  1  0
 42 85  1  0
 43 44  1  0
 43 86  1  0
 43 87  1  0
 44 88  1  1
 45 46  1  1
 45 47  1  0
 46 89  1  0
 47 49  1  0
 47 48  1  0
 47 90  1  1
 48 49  1  0
 49 50  1  1
 49 52  1  0
 50 51  1  0
 50 91  1  0
 50 92  1  0
 51 93  1  0
 52 53  1  0
 52 94  1  1
 53 95  1  0
M  END
>  <i_m_ct_stereo_status>  (107) 
1

>  <s_m_source_file>  (107) 
/var/tmp/pbs.5076253.sched01/tmp0k8q0ypy/944rjgrua_.sdf

>  <i_m_source_file_index>  (107) 
36

>  <i_lp_mmshare_version>  (107) 
48012

>  <i_f3d_flags>  (107) 
0

>  <s_epik_input>  (107) 
W0NIM11PW0NASF0oTzEpW0NAXShPMikoW09IXSlbQ0BIXShbT0hdKVtDQEBdKE8zKShbQ0gyXVtPSF0pW0NASF0zW0NAXTQoW09IXSlbQ0BASF0oT1tDQEBIXTVPQzY9TylbQ0hdPUMoW0NAXTc4W0NAXTU2W0NASF0oW0NAQEhdKFtDQEBIXTFbQ0BdMjQ5KU9bQ0gzXSlPW0NAQEhdOU9bQ0gzXSlbQ0BIXTFbQ0BIXShPMSlbQ0BdNyhbQ0gzXSlPT1tDQEBdMShPW0NIMl04KVtDQEhdMltDQEBIXTFbQ0gyXVtDSDJdQyg9W0NIXTIpW0NIM10=

>  <s_epik_cmdline>  (107) 
J2VwaWtfcHl0aG9uJywgJy1waHQnLCAnMi4wJywgJy1waCcsICc3LjAnLCAnLXRuJywgJzgnLCAnLW1hJywgJzIwMCcsICctaW1hZScsICc8aW5maWxlLm1hZT4nLCAnLW9tYWUnLCAnPG91dGZpbGUubWFlPic=

>  <r_epik_Ionization_Penalty>  (107) 
0.000532455

>  <r_epik_Ionization_Penalty_Charging>  (107) 
0

>  <r_epik_Ionization_Penalty_Neutral>  (107) 
0.000532455

>  <r_epik_State_Penalty>  (107) 
0.000229283

>  <r_epik_Charging_Adjusted_Penalty>  (107) 
0.000229283

>  <i_epik_Tot_Q>  (107) 
0

>  <i_epik_Tot_abs_Q>  (107) 
0

>  <s_epik_Chemistry_Notes>  (107) 
This compound has an ester and may undergo hydrolysis at high or low pH. This compound contains an acetal/aminal-like group ( X-CH(R)-Y where X, Y are N, S, or O) that may be acid/base labile, releasing an aldehyde.

>  <s_lp_Force_Field>  (107) 
OPLS3e

>  <r_lp_Energy>  (107) 
149.073

>  <b_lp_Chiralities_Consistent>  (107) 
1

>  <s_lp_Variant>  (107) 
78:0-1

>  <s_i_glide_gridfile>  (107) 
pfpi4k_grid

>  <i_i_glide_lignum>  (107) 
36

>  <i_i_glide_rotatable_bonds>  (107) 
8

>  <r_i_docking_score>  (107) 
-2.03013

>  <r_i_glide_ligand_efficiency>  (107) 
-0.0383043

>  <r_i_glide_ligand_efficiency_sa>  (107) 
-0.143882

>  <r_i_glide_ligand_efficiency_ln>  (107) 
-0.408452

>  <r_i_glide_gscore>  (107) 
-2.03013

>  <r_i_glide_lipo>  (107) 
-0.119737

>  <r_i_glide_hbond>  (107) 
-0.0501187

>  <r_i_glide_metal>  (107) 
-0

>  <r_i_glide_rewards>  (107) 
0

>  <r_i_glide_evdw>  (107) 
-21.7658

>  <r_i_glide_ecoul>  (107) 
-5.35614

>  <r_i_glide_erotb>  (107) 
0.0383642

>  <r_i_glide_esite>  (107) 
-0.00692349

>  <r_i_glide_emodel>  (107) 
-23.9717

>  <r_i_glide_energy>  (107) 
-27.122

>  <r_i_glide_einternal>  (107) 
9.93778

>  <r_i_glide_intrahb_reward>  (107) 
-0

>  <i_i_glide_confnum>  (107) 
2

>  <i_i_glide_posenum>  (107) 
14

>  <r_i_glide_eff_state_penalty>  (107) 
0

>  <ligand_id>  (107) 
78

>  <original_smiles>  (107) 
COC1C2OC(OC)C3(O)OC24C(OC)OC1C12C(=O)OC1OC(C=C1C5OC5C5(C)OOC6(OCC152)C1C=C(C)CCC16)C4(O)C1OC1(CO)C3O

>  <smiles>  (107) 
[H]OC([H])([H])C12OC1([H])C1(O[H])C3([H])OC4([H])OC(=O)C4(C4([H])OC([H])(OC([H])([H])[H])C15OC(O[H])(C([H])(OC([H])([H])[H])OC5([H])C4([H])OC([H])([H])[H])C2([H])O[H])C12C(=C3[H])C3([H])OC3([H])C1(C([H])([H])[H])OOC1(OC2([H])[H])C2([H])C([H])=C(C([H])([H])[H])C([H])([H])C([H])([H])C12[H]

$$$$
78:0:1
     RDKit          3D

 95106  0  0  1  0  0  0  0  0999 V2000
    2.1258   -4.1952    3.6474 C   0  0  0  0  0  0  0  0  0  0  0  0
    1.9982   -4.4190    5.0513 O   0  0  0  0  0  0  0  0  0  0  0  0
    3.0999   -5.1211    5.6373 C   0  0  2  0  0  0  0  0  0  0  0  0
    3.0227   -6.6025    5.1508 C   0  0  1  0  0  0  0  0  0  0  0  0
    3.7616   -6.7082    3.9496 O   0  0  0  0  0  0  0  0  0  0  0  0
    3.6052   -7.9349    3.3122 C   0  0  1  0  0  0  0  0  0  0  0  0
    4.1737   -7.9491    2.0345 O   0  0  0  0  0  0  0  0  0  0  0  0
    5.3605   -7.1708    1.8689 C   0  0  0  0  0  0  0  0  0  0  0  0
    4.1372   -9.1237    4.2123 C   0  0  1  0  0  0  0  0  0  0  0  0
    5.4444   -9.5041    3.8099 O   0  0  0  0  0  0  0  0  0  0  0  0
    4.1828   -8.7829    5.5510 O   0  0  0  0  0  0  0  0  0  0  0  0
    3.5578   -7.6501    6.1498 C   0  0  1  0  0  0  0  0  0  0  0  0
    4.7705   -7.0146    6.9588 C   0  0  1  0  0  0  0  0  0  0  0  0
    5.9609   -7.0084    6.1964 O   0  0  0  0  0  0  0  0  0  0  0  0
    6.3277   -5.8339    5.4485 C   0  0  0  0  0  0  0  0  0  0  0  0
    4.5577   -5.7524    7.5257 O   0  0  0  0  0  0  0  0  0  0  0  0
    3.4645   -4.8995    7.1732 C   0  0  2  0  0  0  0  0  0  0  0  0
    2.4247   -4.9883    8.3532 C   0  0  2  0  0  0  0  0  0  0  0  0
    3.0244   -4.4639    9.6984 C   0  0  0  0  0  0  0  0  0  0  0  0
    3.6725   -3.4891   10.0611 O   0  0  0  0  0  0  0  0  0  0  0  0
    2.6152   -5.5596   10.4078 O   0  0  0  0  0  0  0  0  0  0  0  0
    2.5282   -6.2786    9.1639 C   0  0  1  0  0  0  0  0  0  0  0  0
    1.4345   -7.1263    9.0061 O   0  0  0  0  0  0  0  0  0  0  0  0
    1.2539   -7.5366    7.6663 C   0  0  1  0  0  0  0  0  0  0  0  0
    0.4541   -6.5176    6.8514 C   0  0  0  0  0  0  0  0  0  0  0  0
    0.2929   -5.1825    7.0585 C   0  0  0  0  0  0  0  0  0  0  0  0
   -1.0436   -4.6560    6.7501 C   0  0  2  0  0  0  0  0  0  0  0  0
   -1.3847   -3.2685    6.8824 O   0  0  0  0  0  0  0  0  0  0  0  0
   -1.3938   -4.0693    8.0792 C   0  0  2  0  0  0  0  0  0  0  0  0
   -0.1682   -4.0106    9.0114 C   0  0  2  0  0  0  0  0  0  0  0  0
   -0.3922   -5.0304   10.1468 C   0  0  0  0  0  0  0  0  0  0  0  0
   -0.3617   -2.7036    9.5460 O   0  0  0  0  0  0  0  0  0  0  0  0
    0.8794   -2.2141   10.2426 O   0  0  0  0  0  0  0  0  0  0  0  0
    1.5389   -1.3674    9.3268 C   0  0  1  0  0  0  0  0  0  0  0  0
    2.2298   -2.0093    8.2772 O   0  0  0  0  0  0  0  0  0  0  0  0
    1.4114   -2.8018    7.4386 C   0  0  0  0  0  0  0  0  0  0  0  0
    1.0620   -4.2408    8.0167 C   0  0  1  0  0  0  0  0  0  0  0  0
    0.9748   -0.0027    9.0508 C   0  0  2  0  0  0  0  0  0  0  0  0
    1.1365    0.6884    7.7462 C   0  0  0  0  0  0  0  0  0  0  0  0
    2.2076    1.4377    7.4505 C   0  0  0  0  0  0  0  0  0  0  0  0
    2.4045    2.0989    6.0935 C   0  0  0  0  0  0  0  0  0  0  0  0
    3.3175    1.6524    8.4733 C   0  0  0  0  0  0  0  0  0  0  0  0
    3.5218    0.4275    9.3978 C   0  0  0  0  0  0  0  0  0  0  0  0
    2.2155   -0.1506    9.9338 C   0  0  2  0  0  0  0  0  0  0  0  0
    2.3773   -8.3925    6.9569 C   0  0  2  0  0  0  0  0  0  0  0  0
    2.9478   -9.2099    7.9705 O   0  0  0  0  0  0  0  0  0  0  0  0
    1.6111   -9.4839    6.1390 C   0  0  1  0  0  0  0  0  0  0  0  0
    1.1531   -9.0956    4.8426 O   0  0  0  0  0  0  0  0  0  0  0  0
    1.9065  -10.3206    4.8886 C   0  0  2  0  0  0  0  0  0  0  0  0
    1.1046  -11.6266    4.7671 C   0  0  0  0  0  0  0  0  0  0  0  0
    0.6012  -11.8642    3.4772 O   0  0  0  0  0  0  0  0  0  0  0  0
    3.2617  -10.3833    4.1491 C   0  0  1  0  0  0  0  0  0  0  0  0
    3.1067  -10.8181    2.8174 O   0  0  0  0  0  0  0  0  0  0  0  0
    1.3495   -3.5015    3.3346 H   0  0  0  0  0  0  0  0  0  0  0  0
    1.9916   -5.1194    3.0920 H   0  0  0  0  0  0  0  0  0  0  0  0
    3.0812   -3.7629    3.3462 H   0  0  0  0  0  0  0  0  0  0  0  0
    3.9400   -4.6048    5.1744 H   0  0  0  0  0  0  0  0  0  0  0  0
    1.9950   -6.8374    4.8938 H   0  0  0  0  0  0  0  0  0  0  0  0
    2.5373   -8.0866    3.1150 H   0  0  0  0  0  0  0  0  0  0  0  0
    5.7287   -7.2851    0.8508 H   0  0  0  0  0  0  0  0  0  0  0  0
    6.1663   -7.4576    2.5435 H   0  0  0  0  0  0  0  0  0  0  0  0
    5.1548   -6.1128    2.0234 H   0  0  0  0  0  0  0  0  0  0  0  0
    5.6657  -10.3126    4.2475 H   0  0  0  0  0  0  0  0  0  0  0  0
    5.0425   -7.7021    7.7723 H   0  0  0  0  0  0  0  0  0  0  0  0
    7.2797   -5.9624    4.9303 H   0  0  0  0  0  0  0  0  0  0  0  0
    6.4123   -4.9768    6.1138 H   0  0  0  0  0  0  0  0  0  0  0  0
    5.6298   -5.5760    4.6737 H   0  0  0  0  0  0  0  0  0  0  0  0
    3.9242   -3.9077    7.2228 H   0  0  0  0  0  0  0  0  0  0  0  0
    3.4422   -6.8674    9.0664 H   0  0  0  0  0  0  0  0  0  0  0  0
    0.4667   -8.2495    7.9076 H   0  0  0  0  0  0  0  0  0  0  0  0
   -0.2790   -7.0195    6.2333 H   0  0  0  0  0  0  0  0  0  0  0  0
   -1.7422   -5.3044    6.2245 H   0  0  0  0  0  0  0  0  0  0  0  0
   -2.3801   -4.2394    8.5207 H   0  0  0  0  0  0  0  0  0  0  0  0
   -0.4567   -6.0476    9.7790 H   0  0  0  0  0  0  0  0  0  0  0  0
   -1.3458   -4.8620   10.6441 H   0  0  0  0  0  0  0  0  0  0  0  0
    0.3656   -4.9973   10.9216 H   0  0  0  0  0  0  0  0  0  0  0  0
    0.5597   -2.2040    7.1412 H   0  0  0  0  0  0  0  0  0  0  0  0
    2.0300   -2.8103    6.5590 H   0  0  0  0  0  0  0  0  0  0  0  0
    0.0545    0.2873    9.5532 H   0  0  0  0  0  0  0  0  0  0  0  0
    0.3459    0.5456    7.0267 H   0  0  0  0  0  0  0  0  0  0  0  0
    2.5525    3.1729    6.1948 H   0  0  0  0  0  0  0  0  0  0  0  0
    1.5439    1.9283    5.4466 H   0  0  0  0  0  0  0  0  0  0  0  0
    3.2787    1.6837    5.5904 H   0  0  0  0  0  0  0  0  0  0  0  0
    4.2525    1.8860    7.9663 H   0  0  0  0  0  0  0  0  0  0  0  0
    3.0557    2.5378    9.0564 H   0  0  0  0  0  0  0  0  0  0  0  0
    4.0356   -0.3547    8.8400 H   0  0  0  0  0  0  0  0  0  0  0  0
    4.1728    0.6931   10.2317 H   0  0  0  0  0  0  0  0  0  0  0  0
    2.0432    0.0399   10.9951 H   0  0  0  0  0  0  0  0  0  0  0  0
    2.4688  -10.0294    8.0067 H   0  0  0  0  0  0  0  0  0  0  0  0
    0.8099   -9.9315    6.7303 H   0  0  0  0  0  0  0  0  0  0  0  0
    1.7423  -12.4686    5.0508 H   0  0  0  0  0  0  0  0  0  0  0  0
    0.2436  -11.6271    5.4323 H   0  0  0  0  0  0  0  0  0  0  0  0
   -0.0184  -11.1750    3.2713 H   0  0  0  0  0  0  0  0  0  0  0  0
    3.8122  -11.1738    4.6701 H   0  0  0  0  0  0  0  0  0  0  0  0
    3.9411  -11.1065    2.4764 H   0  0  0  0  0  0  0  0  0  0  0  0
  1  2  1  0
  1 54  1  0
  1 55  1  0
  1 56  1  0
  2  3  1  0
  3 17  1  0
  3  4  1  0
  3 57  1  6
  4 12  1  0
  4  5  1  0
  4 58  1  6
  5  6  1  0
  6  7  1  0
  6  9  1  0
  6 59  1  6
  7  8  1  0
  8 60  1  0
  8 61  1  0
  8 62  1  0
  9 52  1  0
  9 10  1  6
  9 11  1  0
 10 63  1  0
 12 11  1  6
 12 45  1  0
 12 13  1  0
 13 14  1  0
 13 16  1  0
 13 64  1  1
 14 15  1  0
 15 65  1  0
 15 66  1  0
 15 67  1  0
 16 17  1  0
 17 18  1  0
 17 68  1  6
 18 22  1  0
 18 37  1  0
 18 19  1  1
 19 20  2  0
 19 21  1  0
 21 22  1  0
 22 23  1  0
 22 69  1  6
 23 24  1  0
 24 25  1  0
 24 45  1  0
 24 70  1  1
 25 26  2  0
 25 71  1  0
 26 37  1  0
 26 27  1  0
 27 29  1  0
 27 28  1  0
 27 72  1  6
 28 29  1  0
 29 30  1  0
 29 73  1  1
 30 37  1  0
 30 31  1  1
 30 32  1  0
 31 74  1  0
 31 75  1  0
 31 76  1  0
 32 33  1  0
 34 33  1  1
 34 44  1  0
 34 35  1  0
 34 38  1  0
 35 36  1  0
 37 36  1  6
 36 77  1  0
 36 78  1  0
 38 44  1  0
 38 39  1  0
 38 79  1  1
 39 40  2  0
 39 80  1  0
 40 41  1  0
 40 42  1  0
 41 81  1  0
 41 82  1  0
 41 83  1  0
 42 43  1  0
 42 84  1  0
 42 85  1  0
 43 44  1  0
 43 86  1  0
 43 87  1  0
 44 88  1  1
 45 46  1  1
 45 47  1  0
 46 89  1  0
 47 49  1  0
 47 48  1  0
 47 90  1  1
 48 49  1  0
 49 50  1  1
 49 52  1  0
 50 51  1  0
 50 91  1  0
 50 92  1  0
 51 93  1  0
 52 53  1  0
 52 94  1  1
 53 95  1  0
M  END
>  <i_m_ct_stereo_status>  (108) 
1

>  <s_m_source_file>  (108) 
/var/tmp/pbs.5076253.sched01/tmp0k8q0ypy/944rjgrua_.sdf

>  <i_m_source_file_index>  (108) 
36

>  <i_lp_mmshare_version>  (108) 
48012

>  <i_f3d_flags>  (108) 
0

>  <s_epik_input>  (108) 
W0NIM11PW0NASF0oTzEpW0NAXShPMikoW09IXSlbQ0BIXShbT0hdKVtDQEBdKE8zKShbQ0gyXVtPSF0pW0NASF0zW0NAXTQoW09IXSlbQ0BASF0oT1tDQEBIXTVPQzY9TylbQ0hdPUMoW0NAXTc4W0NAXTU2W0NASF0oW0NAQEhdKFtDQEBIXTFbQ0BdMjQ5KU9bQ0gzXSlPW0NAQEhdOU9bQ0gzXSlbQ0BIXTFbQ0BIXShPMSlbQ0BdNyhbQ0gzXSlPT1tDQEBdMShPW0NIMl04KVtDQEhdMltDQEBIXTFbQ0gyXVtDSDJdQyg9W0NIXTIpW0NIM10=

>  <s_epik_cmdline>  (108) 
J2VwaWtfcHl0aG9uJywgJy1waHQnLCAnMi4wJywgJy1waCcsICc3LjAnLCAnLXRuJywgJzgnLCAnLW1hJywgJzIwMCcsICctaW1hZScsICc8aW5maWxlLm1hZT4nLCAnLW9tYWUnLCAnPG91dGZpbGUubWFlPic=

>  <r_epik_Ionization_Penalty>  (108) 
0.000532455

>  <r_epik_Ionization_Penalty_Charging>  (108) 
0

>  <r_epik_Ionization_Penalty_Neutral>  (108) 
0.000532455

>  <r_epik_State_Penalty>  (108) 
0.000229283

>  <r_epik_Charging_Adjusted_Penalty>  (108) 
0.000229283

>  <i_epik_Tot_Q>  (108) 
0

>  <i_epik_Tot_abs_Q>  (108) 
0

>  <s_epik_Chemistry_Notes>  (108) 
This compound has an ester and may undergo hydrolysis at high or low pH. This compound contains an acetal/aminal-like group ( X-CH(R)-Y where X, Y are N, S, or O) that may be acid/base labile, releasing an aldehyde.

>  <s_lp_Force_Field>  (108) 
OPLS3e

>  <r_lp_Energy>  (108) 
149.073

>  <b_lp_Chiralities_Consistent>  (108) 
1

>  <s_lp_Variant>  (108) 
78:0-1

>  <s_i_glide_gridfile>  (108) 
pfpi4k_grid

>  <i_i_glide_lignum>  (108) 
36

>  <i_i_glide_rotatable_bonds>  (108) 
8

>  <r_i_docking_score>  (108) 
-1.88328

>  <r_i_glide_ligand_efficiency>  (108) 
-0.0355335

>  <r_i_glide_ligand_efficiency_sa>  (108) 
-0.133474

>  <r_i_glide_ligand_efficiency_ln>  (108) 
-0.378907

>  <r_i_glide_gscore>  (108) 
-1.88328

>  <r_i_glide_lipo>  (108) 
-0.0582326

>  <r_i_glide_hbond>  (108) 
-0.16

>  <r_i_glide_metal>  (108) 
-0

>  <r_i_glide_rewards>  (108) 
0

>  <r_i_glide_evdw>  (108) 
-21.3786

>  <r_i_glide_ecoul>  (108) 
-4.18433

>  <r_i_glide_erotb>  (108) 
0.0383642

>  <r_i_glide_esite>  (108) 
-0.00682902

>  <r_i_glide_emodel>  (108) 
-20.0957

>  <r_i_glide_energy>  (108) 
-25.5629

>  <r_i_glide_einternal>  (108) 
14.0247

>  <r_i_glide_intrahb_reward>  (108) 
-0

>  <i_i_glide_confnum>  (108) 
2

>  <i_i_glide_posenum>  (108) 
20

>  <r_i_glide_eff_state_penalty>  (108) 
0

>  <ligand_id>  (108) 
78

>  <original_smiles>  (108) 
COC1C2OC(OC)C3(O)OC24C(OC)OC1C12C(=O)OC1OC(C=C1C5OC5C5(C)OOC6(OCC152)C1C=C(C)CCC16)C4(O)C1OC1(CO)C3O

>  <smiles>  (108) 
[H]OC([H])([H])C12OC1([H])C1(O[H])C3([H])OC4([H])OC(=O)C4(C4([H])OC([H])(OC([H])([H])[H])C15OC(O[H])(C([H])(OC([H])([H])[H])OC5([H])C4([H])OC([H])([H])[H])C2([H])O[H])C12C(=C3[H])C3([H])OC3([H])C1(C([H])([H])[H])OOC1(OC2([H])[H])C2([H])C([H])=C(C([H])([H])[H])C([H])([H])C([H])([H])C12[H]

$$$$
78:0:2
     RDKit          3D

 95106  0  0  1  0  0  0  0  0999 V2000
    1.2621   -5.6824    2.7862 C   0  0  0  0  0  0  0  0  0  0  0  0
    1.7502   -4.9803    3.9278 O   0  0  0  0  0  0  0  0  0  0  0  0
    3.1706   -4.9812    4.0581 C   0  0  2  0  0  0  0  0  0  0  0  0
    3.6352   -6.4520    4.2658 C   0  0  1  0  0  0  0  0  0  0  0  0
    3.8861   -7.0485    2.9975 O   0  0  0  0  0  0  0  0  0  0  0  0
    4.0793   -8.4132    3.0913 C   0  0  1  0  0  0  0  0  0  0  0  0
    4.2047   -9.0107    1.8362 O   0  0  0  0  0  0  0  0  0  0  0  0
    2.9678   -9.2717    1.1960 C   0  0  0  0  0  0  0  0  0  0  0  0
    5.3615   -8.7271    3.9338 C   0  0  1  0  0  0  0  0  0  0  0  0
    6.4462   -8.9481    3.0495 O   0  0  0  0  0  0  0  0  0  0  0  0
    5.7058   -7.7200    4.8116 O   0  0  0  0  0  0  0  0  0  0  0  0
    4.8736   -6.6297    5.1657 C   0  0  1  0  0  0  0  0  0  0  0  0
    5.8499   -5.3995    4.9292 C   0  0  1  0  0  0  0  0  0  0  0  0
    6.5680   -5.5429    3.7224 O   0  0  0  0  0  0  0  0  0  0  0  0
    6.0639   -4.9243    2.5249 C   0  0  0  0  0  0  0  0  0  0  0  0
    5.2871   -4.1220    5.0102 O   0  0  0  0  0  0  0  0  0  0  0  0
    3.8781   -3.8773    4.9747 C   0  0  2  0  0  0  0  0  0  0  0  0
    3.4446   -3.5397    6.4587 C   0  0  2  0  0  0  0  0  0  0  0  0
    4.1517   -2.2457    6.9934 C   0  0  0  0  0  0  0  0  0  0  0  0
    4.3669   -1.1118    6.5826 O   0  0  0  0  0  0  0  0  0  0  0  0
    4.5422   -2.8430    8.1575 O   0  0  0  0  0  0  0  0  0  0  0  0
    4.3920   -4.1088    7.5084 C   0  0  1  0  0  0  0  0  0  0  0  0
    3.8405   -5.1464    8.2692 O   0  0  0  0  0  0  0  0  0  0  0  0
    3.4171   -6.2437    7.4804 C   0  0  1  0  0  0  0  0  0  0  0  0
    2.0164   -6.0463    6.8989 C   0  0  0  0  0  0  0  0  0  0  0  0
    1.3326   -4.8978    6.6379 C   0  0  0  0  0  0  0  0  0  0  0  0
   -0.1074   -4.9341    6.8852 C   0  0  2  0  0  0  0  0  0  0  0  0
   -0.9730   -3.7994    6.6675 O   0  0  0  0  0  0  0  0  0  0  0  0
   -0.2196   -3.8222    7.8870 C   0  0  2  0  0  0  0  0  0  0  0  0
    1.0754   -2.9939    7.9460 C   0  0  2  0  0  0  0  0  0  0  0  0
    1.7369   -3.2567    9.3173 C   0  0  0  0  0  0  0  0  0  0  0  0
    0.5033   -1.6866    7.9757 O   0  0  0  0  0  0  0  0  0  0  0  0
    1.5246   -0.6333    7.6836 O   0  0  0  0  0  0  0  0  0  0  0  0
    1.3814   -0.2945    6.3235 C   0  0  1  0  0  0  0  0  0  0  0  0
    1.8944   -1.2239    5.3953 O   0  0  0  0  0  0  0  0  0  0  0  0
    1.3039   -2.5107    5.4633 C   0  0  0  0  0  0  0  0  0  0  0  0
    1.8681   -3.4350    6.6267 C   0  0  1  0  0  0  0  0  0  0  0  0
    0.1990    0.5292    5.8902 C   0  0  2  0  0  0  0  0  0  0  0  0
   -0.4161    0.4159    4.5446 C   0  0  0  0  0  0  0  0  0  0  0  0
    0.0316    1.1054    3.4803 C   0  0  0  0  0  0  0  0  0  0  0  0
   -0.5559    0.9488    2.0883 C   0  0  0  0  0  0  0  0  0  0  0  0
    1.1858    2.0868    3.6155 C   0  0  0  0  0  0  0  0  0  0  0  0
    2.2188    1.6476    4.6823 C   0  0  0  0  0  0  0  0  0  0  0  0
    1.5831    1.1744    5.9856 C   0  0  2  0  0  0  0  0  0  0  0  0
    4.4920   -7.0723    6.6696 C   0  0  2  0  0  0  0  0  0  0  0  0
    5.6715   -7.0520    7.4672 O   0  0  0  0  0  0  0  0  0  0  0  0
    4.0989   -8.5749    6.8413 C   0  0  1  0  0  0  0  0  0  0  0  0
    3.1084   -9.0764    5.9310 O   0  0  0  0  0  0  0  0  0  0  0  0
    4.3039   -9.8790    6.0269 C   0  0  2  0  0  0  0  0  0  0  0  0
    4.1971  -11.1737    6.8530 C   0  0  0  0  0  0  0  0  0  0  0  0
    3.8264  -12.3293    6.1215 O   0  0  0  0  0  0  0  0  0  0  0  0
    5.2192   -9.9897    4.7761 C   0  0  1  0  0  0  0  0  0  0  0  0
    4.8917  -11.0683    3.9178 O   0  0  0  0  0  0  0  0  0  0  0  0
    0.2103   -5.4666    2.6770 H   0  0  0  0  0  0  0  0  0  0  0  0
    1.3539   -6.7569    2.9237 H   0  0  0  0  0  0  0  0  0  0  0  0
    1.7586   -5.4172    1.8490 H   0  0  0  0  0  0  0  0  0  0  0  0
    3.4515   -4.6289    3.0734 H   0  0  0  0  0  0  0  0  0  0  0  0
    2.8158   -7.0120    4.7057 H   0  0  0  0  0  0  0  0  0  0  0  0
    3.2001   -8.8540    3.5794 H   0  0  0  0  0  0  0  0  0  0  0  0
    3.1414   -9.7514    0.2327 H   0  0  0  0  0  0  0  0  0  0  0  0
    2.4009   -8.3560    1.0308 H   0  0  0  0  0  0  0  0  0  0  0  0
    2.3609   -9.9546    1.7890 H   0  0  0  0  0  0  0  0  0  0  0  0
    6.1975   -9.6749    2.5056 H   0  0  0  0  0  0  0  0  0  0  0  0
    6.6650   -5.4454    5.6610 H   0  0  0  0  0  0  0  0  0  0  0  0
    6.7239   -5.0968    1.6742 H   0  0  0  0  0  0  0  0  0  0  0  0
    5.9539   -3.8493    2.6720 H   0  0  0  0  0  0  0  0  0  0  0  0
    5.1216   -5.3015    2.1983 H   0  0  0  0  0  0  0  0  0  0  0  0
    3.8186   -2.9509    4.4070 H   0  0  0  0  0  0  0  0  0  0  0  0
    5.3816   -4.4221    7.1744 H   0  0  0  0  0  0  0  0  0  0  0  0
    3.1811   -6.8640    8.3461 H   0  0  0  0  0  0  0  0  0  0  0  0
    1.4338   -6.9580    6.9993 H   0  0  0  0  0  0  0  0  0  0  0  0
   -0.5892   -5.8961    7.0674 H   0  0  0  0  0  0  0  0  0  0  0  0
   -0.8147   -3.9394    8.7903 H   0  0  0  0  0  0  0  0  0  0  0  0
    2.0257   -4.2956    9.4522 H   0  0  0  0  0  0  0  0  0  0  0  0
    1.0375   -3.0642   10.1297 H   0  0  0  0  0  0  0  0  0  0  0  0
    2.6038   -2.6301    9.5105 H   0  0  0  0  0  0  0  0  0  0  0  0
    0.2323   -2.3818    5.4457 H   0  0  0  0  0  0  0  0  0  0  0  0
    1.5300   -2.8525    4.4699 H   0  0  0  0  0  0  0  0  0  0  0  0
   -0.5287    0.8202    6.6487 H   0  0  0  0  0  0  0  0  0  0  0  0
   -1.2418   -0.2734    4.4448 H   0  0  0  0  0  0  0  0  0  0  0  0
   -0.8874    1.9042    1.6882 H   0  0  0  0  0  0  0  0  0  0  0  0
   -1.4133    0.2807    2.1094 H   0  0  0  0  0  0  0  0  0  0  0  0
    0.1829    0.5347    1.3993 H   0  0  0  0  0  0  0  0  0  0  0  0
    1.6805    2.2196    2.6544 H   0  0  0  0  0  0  0  0  0  0  0  0
    0.7576    3.0580    3.8701 H   0  0  0  0  0  0  0  0  0  0  0  0
    2.8165    0.8293    4.2772 H   0  0  0  0  0  0  0  0  0  0  0  0
    2.9119    2.4654    4.8841 H   0  0  0  0  0  0  0  0  0  0  0  0
    1.7100    1.8654    6.8194 H   0  0  0  0  0  0  0  0  0  0  0  0
    6.0228   -6.1853    7.5074 H   0  0  0  0  0  0  0  0  0  0  0  0
    3.8378   -8.7957    7.8767 H   0  0  0  0  0  0  0  0  0  0  0  0
    5.1610  -11.3875    7.3208 H   0  0  0  0  0  0  0  0  0  0  0  0
    3.4791  -11.0473    7.6707 H   0  0  0  0  0  0  0  0  0  0  0  0
    3.0817  -12.7498    6.5421 H   0  0  0  0  0  0  0  0  0  0  0  0
    6.2078  -10.2131    5.1820 H   0  0  0  0  0  0  0  0  0  0  0  0
    3.9878  -10.9780    3.6820 H   0  0  0  0  0  0  0  0  0  0  0  0
  1  2  1  0
  1 54  1  0
  1 55  1  0
  1 56  1  0
  2  3  1  0
  3 17  1  0
  3  4  1  0
  3 57  1  6
  4 12  1  0
  4  5  1  0
  4 58  1  1
  5  6  1  0
  6  7  1  0
  6  9  1  0
  6 59  1  1
  7  8  1  0
  8 60  1  0
  8 61  1  0
  8 62  1  0
  9 52  1  0
  9 10  1  6
  9 11  1  0
 10 63  1  0
 12 11  1  6
 12 45  1  0
 12 13  1  0
 13 14  1  0
 13 16  1  0
 13 64  1  1
 14 15  1  0
 15 65  1  0
 15 66  1  0
 15 67  1  0
 16 17  1  0
 17 18  1  0
 17 68  1  6
 18 22  1  0
 18 37  1  0
 18 19  1  6
 19 20  2  0
 19 21  1  0
 21 22  1  0
 22 23  1  0
 22 69  1  6
 23 24  1  0
 24 25  1  0
 24 45  1  0
 24 70  1  1
 25 26  2  0
 25 71  1  0
 26 37  1  0
 26 27  1  0
 27 29  1  0
 27 28  1  0
 27 72  1  1
 28 29  1  0
 29 30  1  0
 29 73  1  1
 30 37  1  0
 30 31  1  1
 30 32  1  0
 31 74  1  0
 31 75  1  0
 31 76  1  0
 32 33  1  0
 34 33  1  1
 34 44  1  0
 34 35  1  0
 34 38  1  0
 35 36  1  0
 37 36  1  6
 36 77  1  0
 36 78  1  0
 38 44  1  0
 38 39  1  0
 38 79  1  1
 39 40  2  0
 39 80  1  0
 40 41  1  0
 40 42  1  0
 41 81  1  0
 41 82  1  0
 41 83  1  0
 42 43  1  0
 42 84  1  0
 42 85  1  0
 43 44  1  0
 43 86  1  0
 43 87  1  0
 44 88  1  1
 45 46  1  1
 45 47  1  0
 46 89  1  0
 47 49  1  0
 47 48  1  0
 47 90  1  1
 48 49  1  0
 49 50  1  1
 49 52  1  0
 50 51  1  0
 50 91  1  0
 50 92  1  0
 51 93  1  0
 52 53  1  0
 52 94  1  1
 53 95  1  0
M  END
>  <i_m_ct_stereo_status>  (109) 
1

>  <s_m_source_file>  (109) 
/var/tmp/pbs.5076253.sched01/tmp0k8q0ypy/944rjgrua_.sdf

>  <i_m_source_file_index>  (109) 
36

>  <i_lp_mmshare_version>  (109) 
48012

>  <i_f3d_flags>  (109) 
0

>  <s_epik_input>  (109) 
W0NIM11PW0NASF0oTzEpW0NAXShPMikoW09IXSlbQ0BIXShbT0hdKVtDQEBdKE8zKShbQ0gyXVtPSF0pW0NASF0zW0NAXTQoW09IXSlbQ0BASF0oT1tDQEBIXTVPQzY9TylbQ0hdPUMoW0NAXTc4W0NAXTU2W0NASF0oW0NAQEhdKFtDQEBIXTFbQ0BdMjQ5KU9bQ0gzXSlPW0NAQEhdOU9bQ0gzXSlbQ0BIXTFbQ0BIXShPMSlbQ0BdNyhbQ0gzXSlPT1tDQEBdMShPW0NIMl04KVtDQEhdMltDQEBIXTFbQ0gyXVtDSDJdQyg9W0NIXTIpW0NIM10=

>  <s_epik_cmdline>  (109) 
J2VwaWtfcHl0aG9uJywgJy1waHQnLCAnMi4wJywgJy1waCcsICc3LjAnLCAnLXRuJywgJzgnLCAnLW1hJywgJzIwMCcsICctaW1hZScsICc8aW5maWxlLm1hZT4nLCAnLW9tYWUnLCAnPG91dGZpbGUubWFlPic=

>  <r_epik_Ionization_Penalty>  (109) 
0.000532455

>  <r_epik_Ionization_Penalty_Charging>  (109) 
0

>  <r_epik_Ionization_Penalty_Neutral>  (109) 
0.000532455

>  <r_epik_State_Penalty>  (109) 
0.000229283

>  <r_epik_Charging_Adjusted_Penalty>  (109) 
0.000229283

>  <i_epik_Tot_Q>  (109) 
0

>  <i_epik_Tot_abs_Q>  (109) 
0

>  <s_epik_Chemistry_Notes>  (109) 
This compound has an ester and may undergo hydrolysis at high or low pH. This compound contains an acetal/aminal-like group ( X-CH(R)-Y where X, Y are N, S, or O) that may be acid/base labile, releasing an aldehyde.

>  <s_lp_Force_Field>  (109) 
OPLS3e

>  <r_lp_Energy>  (109) 
149.073

>  <b_lp_Chiralities_Consistent>  (109) 
1

>  <s_lp_Variant>  (109) 
78:0-1

>  <s_i_glide_gridfile>  (109) 
pfpi4k_grid

>  <i_i_glide_lignum>  (109) 
36

>  <i_i_glide_rotatable_bonds>  (109) 
8

>  <r_i_docking_score>  (109) 
-1.62949

>  <r_i_glide_ligand_efficiency>  (109) 
-0.030745

>  <r_i_glide_ligand_efficiency_sa>  (109) 
-0.115487

>  <r_i_glide_ligand_efficiency_ln>  (109) 
-0.327845

>  <r_i_glide_gscore>  (109) 
-1.62949

>  <r_i_glide_lipo>  (109) 
-0.0253699

>  <r_i_glide_hbond>  (109) 
0

>  <r_i_glide_metal>  (109) 
-0

>  <r_i_glide_rewards>  (109) 
0

>  <r_i_glide_evdw>  (109) 
-22.4503

>  <r_i_glide_ecoul>  (109) 
-3.4501

>  <r_i_glide_erotb>  (109) 
0.0383642

>  <r_i_glide_esite>  (109) 
-0.00245129

>  <r_i_glide_emodel>  (109) 
-20.4489

>  <r_i_glide_energy>  (109) 
-25.9004

>  <r_i_glide_einternal>  (109) 
12.6837

>  <r_i_glide_intrahb_reward>  (109) 
-0

>  <i_i_glide_confnum>  (109) 
2

>  <i_i_glide_posenum>  (109) 
2

>  <r_i_glide_eff_state_penalty>  (109) 
0

>  <ligand_id>  (109) 
78

>  <original_smiles>  (109) 
COC1C2OC(OC)C3(O)OC24C(OC)OC1C12C(=O)OC1OC(C=C1C5OC5C5(C)OOC6(OCC152)C1C=C(C)CCC16)C4(O)C1OC1(CO)C3O

>  <smiles>  (109) 
[H]OC([H])([H])C12OC1([H])C1(O[H])C3([H])OC4([H])OC(=O)C4(C4([H])OC([H])(OC([H])([H])[H])C15OC(O[H])(C([H])(OC([H])([H])[H])OC5([H])C4([H])OC([H])([H])[H])C2([H])O[H])C12C(=C3[H])C3([H])OC3([H])C1(C([H])([H])[H])OOC1(OC2([H])[H])C2([H])C([H])=C(C([H])([H])[H])C([H])([H])C([H])([H])C12[H]

$$$$
79:0:0
     RDKit          3D

 78 87  0  0  1  0  0  0  0  0999 V2000
    1.7506    2.1246    2.0272 C   0  0  0  0  0  0  0  0  0  0  0  0
    2.4261    1.0644    1.3481 O   0  0  0  0  0  0  0  0  0  0  0  0
    2.5155   -0.1876    1.9575 C   0  0  2  0  0  0  0  0  0  0  0  0
    1.3225   -0.5389    2.6094 O   0  0  0  0  0  0  0  0  0  0  0  0
    1.3582   -1.1416    3.9030 C   0  0  1  0  0  0  0  0  0  0  0  0
   -0.0180   -1.0302    4.5416 C   0  0  0  0  0  0  0  0  0  0  0  0
    1.9580   -2.5293    3.8405 C   0  0  0  0  0  0  0  0  0  0  0  0
    1.4995   -3.7940    3.7984 C   0  0  0  0  0  0  0  0  0  0  0  0
    2.4307   -4.9735    4.1465 C   0  0  2  0  0  0  0  0  0  0  0  0
    3.9172   -4.5379    4.4211 C   0  0  1  0  0  0  0  0  0  0  0  0
    4.6716   -4.3653    3.2299 O   0  0  0  0  0  0  0  0  0  0  0  0
    4.8886   -5.4535    2.4232 C   0  0  1  0  0  0  0  0  0  0  0  0
    5.4547   -6.6622    3.2093 C   0  0  0  0  0  0  0  0  0  0  0  0
    4.4833   -7.3169    4.0017 O   0  0  0  0  0  0  0  0  0  0  0  0
    3.1755   -7.5939    3.5312 C   0  0  2  0  0  0  0  0  0  0  0  0
    2.5523   -8.5559    4.3781 O   0  0  0  0  0  0  0  0  0  0  0  0
    2.6652   -9.9495    4.0438 C   0  0  2  0  0  0  0  0  0  0  0  0
    2.5403  -10.9177    5.1973 C   0  0  0  0  0  0  0  0  0  0  0  0
    1.1996  -11.2940    5.2753 O   0  0  0  0  0  0  0  0  0  0  0  0
    3.6167  -10.3365    3.0242 O   0  0  0  0  0  0  0  0  0  0  0  0
    2.2441  -10.1971    2.6062 C   0  0  2  0  0  0  0  0  0  0  0  0
    2.0343   -9.0631    1.6287 C   0  0  0  0  0  0  0  0  0  0  0  0
    2.9922   -7.9093    2.0071 C   0  0  2  0  0  0  0  0  0  0  0  0
    4.1028   -8.3056    1.2185 O   0  0  0  0  0  0  0  0  0  0  0  0
    2.6347   -6.4258    1.8772 C   0  0  2  0  0  0  0  0  0  0  0  0
    1.6017   -6.1559    0.9527 O   0  0  0  0  0  0  0  0  0  0  0  0
    3.8334   -5.7146    1.5330 O   0  0  0  0  0  0  0  0  0  0  0  0
    2.2156   -6.3464    3.3845 C   0  0  2  0  0  0  0  0  0  0  0  0
    0.7165   -6.7130    3.6808 C   0  0  0  0  0  0  0  0  0  0  0  0
    0.3997   -6.8302    5.0642 O   0  0  0  0  0  0  0  0  0  0  0  0
    4.0560   -3.1312    5.0772 C   0  0  2  0  0  0  0  0  0  0  0  0
    5.4013   -2.6418    5.6503 C   0  0  0  0  0  0  0  0  0  0  0  0
    4.9006   -3.1875    6.9721 C   0  0  1  0  0  0  0  0  0  0  0  0
    5.4124   -4.5647    7.4510 C   0  0  0  0  0  0  0  0  0  0  0  0
    5.0853   -2.3191    8.0849 O   0  0  0  0  0  0  0  0  0  0  0  0
    4.3749   -1.0908    8.1852 C   0  0  0  0  0  0  0  0  0  0  0  0
    3.5481   -3.2797    6.4486 O   0  0  0  0  0  0  0  0  0  0  0  0
    3.3280   -2.0723    4.2442 C   0  0  1  0  0  0  0  0  0  0  0  0
    4.1026   -1.5942    3.1294 O   0  0  0  0  0  0  0  0  0  0  0  0
    3.7742   -0.2273    2.8738 C   0  0  2  0  0  0  0  0  0  0  0  0
    3.4847    0.3240    4.2901 C   0  0  0  0  0  0  0  0  0  0  0  0
    2.6200   -0.8163    4.7513 C   0  0  1  0  0  0  0  0  0  0  0  0
    1.7524    2.9725    1.3427 H   0  0  0  0  0  0  0  0  0  0  0  0
    2.2214    2.4711    2.9242 H   0  0  0  0  0  0  0  0  0  0  0  0
    0.7061    1.8632    2.2181 H   0  0  0  0  0  0  0  0  0  0  0  0
    2.6357   -0.8978    1.1292 H   0  0  0  0  0  0  0  0  0  0  0  0
   -0.0437   -1.5199    5.5150 H   0  0  0  0  0  0  0  0  0  0  0  0
   -0.7914   -1.4665    3.9199 H   0  0  0  0  0  0  0  0  0  0  0  0
   -0.2758    0.0126    4.6943 H   0  0  0  0  0  0  0  0  0  0  0  0
    0.4438   -3.9525    3.6093 H   0  0  0  0  0  0  0  0  0  0  0  0
    2.1052   -5.1418    5.1630 H   0  0  0  0  0  0  0  0  0  0  0  0
    4.3298   -5.2813    5.0615 H   0  0  0  0  0  0  0  0  0  0  0  0
    5.6803   -5.0642    1.7820 H   0  0  0  0  0  0  0  0  0  0  0  0
    5.9300   -7.3499    2.5198 H   0  0  0  0  0  0  0  0  0  0  0  0
    6.2585   -6.3173    3.8762 H   0  0  0  0  0  0  0  0  0  0  0  0
    3.1647  -11.8070    5.0987 H   0  0  0  0  0  0  0  0  0  0  0  0
    2.8498  -10.4137    6.1019 H   0  0  0  0  0  0  0  0  0  0  0  0
    1.0753  -11.6871    6.1661 H   0  0  0  0  0  0  0  0  0  0  0  0
    1.6634  -11.1050    2.4807 H   0  0  0  0  0  0  0  0  0  0  0  0
    2.2079   -9.4591    0.6143 H   0  0  0  0  0  0  0  0  0  0  0  0
    0.9795   -8.7849    1.6535 H   0  0  0  0  0  0  0  0  0  0  0  0
    4.2245   -9.2187    1.4185 H   0  0  0  0  0  0  0  0  0  0  0  0
    2.0391   -6.1259    0.1173 H   0  0  0  0  0  0  0  0  0  0  0  0
    0.0294   -6.0004    3.2192 H   0  0  0  0  0  0  0  0  0  0  0  0
    0.4208   -7.6769    3.2648 H   0  0  0  0  0  0  0  0  0  0  0  0
    0.7776   -7.6476    5.3620 H   0  0  0  0  0  0  0  0  0  0  0  0
    6.2808   -3.1248    5.2386 H   0  0  0  0  0  0  0  0  0  0  0  0
    5.4938   -1.5581    5.6211 H   0  0  0  0  0  0  0  0  0  0  0  0
    4.8124   -4.9296    8.3059 H   0  0  0  0  0  0  0  0  0  0  0  0
    6.4422   -4.4485    7.8226 H   0  0  0  0  0  0  0  0  0  0  0  0
    5.4478   -5.3439    6.6933 H   0  0  0  0  0  0  0  0  0  0  0  0
    4.8406   -0.4458    8.9527 H   0  0  0  0  0  0  0  0  0  0  0  0
    3.3481   -1.2878    8.5144 H   0  0  0  0  0  0  0  0  0  0  0  0
    4.3470   -0.5015    7.2627 H   0  0  0  0  0  0  0  0  0  0  0  0
    4.6128    0.2466    2.3651 H   0  0  0  0  0  0  0  0  0  0  0  0
    4.4423    0.3281    4.8519 H   0  0  0  0  0  0  0  0  0  0  0  0
    2.9934    1.2895    4.3973 H   0  0  0  0  0  0  0  0  0  0  0  0
    2.4006   -0.8321    5.8126 H   0  0  0  0  0  0  0  0  0  0  0  0
  1  2  1  0
  1 43  1  0
  1 44  1  0
  1 45  1  0
  2  3  1  0
  3 40  1  0
  3  4  1  0
  3 46  1  6
  4  5  1  0
  5 42  1  0
  5  6  1  1
  5  7  1  0
  6 47  1  0
  6 48  1  0
  6 49  1  0
  7 38  1  0
  7  8  2  0
  8  9  1  0
  8 50  1  0
  9 28  1  0
  9 10  1  0
  9 51  1  1
 10 11  1  0
 10 31  1  0
 10 52  1  1
 11 12  1  0
 12 27  1  0
 12 13  1  0
 12 53  1  6
 13 14  1  0
 13 54  1  0
 13 55  1  0
 14 15  1  0
 15 23  1  0
 15 28  1  0
 15 16  1  1
 16 17  1  0
 17 21  1  0
 17 18  1  1
 17 20  1  0
 18 19  1  0
 18 56  1  0
 18 57  1  0
 19 58  1  0
 20 21  1  0
 21 22  1  0
 21 59  1  1
 22 23  1  0
 22 60  1  0
 22 61  1  0
 23 24  1  6
 23 25  1  0
 24 62  1  0
 25 26  1  6
 25 27  1  0
 25 28  1  0
 26 63  1  0
 28 29  1  6
 29 30  1  0
 29 64  1  0
 29 65  1  0
 30 66  1  0
 31 37  1  1
 31 32  1  0
 31 38  1  0
 32 33  1  0
 32 67  1  0
 32 68  1  0
 33 34  1  0
 33 35  1  1
 33 37  1  0
 34 69  1  0
 34 70  1  0
 34 71  1  0
 35 36  1  0
 36 72  1  0
 36 73  1  0
 36 74  1  0
 38 42  1  0
 38 39  1  6
 39 40  1  0
 40 41  1  0
 40 75  1  6
 41 42  1  0
 41 76  1  0
 41 77  1  0
 42 78  1  1
M  END
>  <i_m_ct_stereo_status>  (110) 
1

>  <s_m_source_file>  (110) 
/var/tmp/pbs.5076253.sched01/tmp0k8q0ypy/944rjgrua_.sdf

>  <i_m_source_file_index>  (110) 
37

>  <i_lp_mmshare_version>  (110) 
48012

>  <i_f3d_flags>  (110) 
1

>  <s_epik_input>  (110) 
W0NIM11PW0NASF0oTzEpW0NASF0oTzIpW0NIMl1bQ0BIXTNbQ0BdMShbQ0gzXSlDKD1bQ0hdNClDMjNbQ0BdNShbQ0gyXVtDQEBdKE81KShbQ0gzXSlPW0NIM10pW0NASF0oT1tDQEhdKE82KVtDSDJdTzcpW0NAQEhdNFtDQEBdOChbQ0gyXVtPSF0pW0NAXTYoW09IXSlbQ0BdKFtDQEBdNzg5KShbT0hdKVtDSDJdW0NAQEhdMVtDQF0oTzkpKE8xKVtDSDJdW09IXQ==

>  <s_epik_cmdline>  (110) 
J2VwaWtfcHl0aG9uJywgJy1waHQnLCAnMi4wJywgJy1waCcsICc3LjAnLCAnLXRuJywgJzgnLCAnLW1hJywgJzIwMCcsICctaW1hZScsICc8aW5maWxlLm1hZT4nLCAnLW9tYWUnLCAnPG91dGZpbGUubWFlPic=

>  <r_epik_Ionization_Penalty>  (110) 
0.00113255

>  <r_epik_Ionization_Penalty_Charging>  (110) 
0

>  <r_epik_Ionization_Penalty_Neutral>  (110) 
0.00113255

>  <r_epik_State_Penalty>  (110) 
0.000668363

>  <r_epik_Charging_Adjusted_Penalty>  (110) 
0.000668363

>  <i_epik_Tot_Q>  (110) 
0

>  <i_epik_Tot_abs_Q>  (110) 
0

>  <s_epik_Chemistry_Notes>  (110) 
This compound contains an acetal/aminal-like group ( X-CH(R)-Y where X, Y are N, S, or O) that may be acid/base labile, releasing an aldehyde.

>  <s_lp_Force_Field>  (110) 
OPLS3e

>  <r_lp_Energy>  (110) 
92.9992

>  <b_lp_Chiralities_Consistent>  (110) 
1

>  <s_lp_Variant>  (110) 
79:0-1

>  <s_i_glide_gridfile>  (110) 
pfpi4k_grid

>  <i_i_glide_lignum>  (110) 
37

>  <i_i_glide_rotatable_bonds>  (110) 
8

>  <r_i_docking_score>  (110) 
-3.26665

>  <r_i_glide_ligand_efficiency>  (110) 
-0.0777773

>  <r_i_glide_ligand_efficiency_sa>  (110) 
-0.270356

>  <r_i_glide_ligand_efficiency_ln>  (110) 
-0.689505

>  <r_i_glide_gscore>  (110) 
-3.26665

>  <r_i_glide_lipo>  (110) 
-0.154401

>  <r_i_glide_hbond>  (110) 
0

>  <r_i_glide_metal>  (110) 
-0

>  <r_i_glide_rewards>  (110) 
-1

>  <r_i_glide_evdw>  (110) 
-21.625

>  <r_i_glide_ecoul>  (110) 
-6.56408

>  <r_i_glide_erotb>  (110) 
0.0040361

>  <r_i_glide_esite>  (110) 
-0.0504188

>  <r_i_glide_emodel>  (110) 
-39.9888

>  <r_i_glide_energy>  (110) 
-28.1891

>  <r_i_glide_einternal>  (110) 
8.19627

>  <r_i_glide_intrahb_reward>  (110) 
-1

>  <i_i_glide_confnum>  (110) 
1

>  <i_i_glide_posenum>  (110) 
3

>  <r_i_glide_eff_state_penalty>  (110) 
0

>  <ligand_id>  (110) 
79

>  <original_smiles>  (110) 
COC1OC2(C)C3=CC4C(OC5COC67OC8(CO)OC8CC6(O)C(O)(O5)C47CO)C4(CC(C)(OC)O4)C34OC1CC24

>  <smiles>  (110) 
[H]OC([H])([H])C12OC1([H])C([H])([H])C1(O[H])C3(O[H])OC4([H])OC5([H])C([H])(C([H])=C6C7(C([H])([H])[H])OC([H])(OC([H])([H])[H])C8([H])OC6(C7([H])C8([H])[H])C56OC(OC([H])([H])[H])(C([H])([H])[H])C6([H])[H])C3(C([H])([H])O[H])C1(OC4([H])[H])O2

$$$$
79:0:1
     RDKit          3D

 78 87  0  0  1  0  0  0  0  0999 V2000
   -0.8157    0.0725    6.7197 C   0  0  0  0  0  0  0  0  0  0  0  0
   -1.3938   -1.0722    6.0855 O   0  0  0  0  0  0  0  0  0  0  0  0
   -0.5469   -2.1301    5.7146 C   0  0  2  0  0  0  0  0  0  0  0  0
    0.3308   -2.4739    6.7645 O   0  0  0  0  0  0  0  0  0  0  0  0
    1.7153   -2.8010    6.4691 C   0  0  1  0  0  0  0  0  0  0  0  0
    2.5052   -2.7201    7.7715 C   0  0  0  0  0  0  0  0  0  0  0  0
    1.8448   -4.0744    5.6741 C   0  0  0  0  0  0  0  0  0  0  0  0
    2.1249   -5.3554    5.9368 C   0  0  0  0  0  0  0  0  0  0  0  0
    2.5713   -6.2986    4.7841 C   0  0  2  0  0  0  0  0  0  0  0  0
    2.5291   -5.6371    3.3557 C   0  0  1  0  0  0  0  0  0  0  0  0
    1.2283   -5.6430    2.8061 O   0  0  0  0  0  0  0  0  0  0  0  0
    0.6289   -6.8451    2.5153 C   0  0  1  0  0  0  0  0  0  0  0  0
    1.5746   -7.7492    1.6831 C   0  0  0  0  0  0  0  0  0  0  0  0
    2.6243   -8.3279    2.4395 O   0  0  0  0  0  0  0  0  0  0  0  0
    2.4093   -8.8853    3.7374 C   0  0  2  0  0  0  0  0  0  0  0  0
    3.5227   -9.7021    4.0938 O   0  0  0  0  0  0  0  0  0  0  0  0
    3.4485  -11.1044    3.8298 C   0  0  2  0  0  0  0  0  0  0  0  0
    4.7765  -11.8011    3.6417 C   0  0  0  0  0  0  0  0  0  0  0  0
    5.1994  -12.3023    4.8937 O   0  0  0  0  0  0  0  0  0  0  0  0
    2.4097  -11.5755    2.9591 O   0  0  0  0  0  0  0  0  0  0  0  0
    2.1638  -11.7120    4.3599 C   0  0  2  0  0  0  0  0  0  0  0  0
    1.0243  -10.8623    4.8529 C   0  0  0  0  0  0  0  0  0  0  0  0
    1.0226   -9.5450    4.0402 C   0  0  2  0  0  0  0  0  0  0  0  0
    0.1976   -9.9492    2.9653 O   0  0  0  0  0  0  0  0  0  0  0  0
    0.6399   -8.2009    4.6484 C   0  0  2  0  0  0  0  0  0  0  0  0
   -0.1173   -8.3328    5.8162 O   0  0  0  0  0  0  0  0  0  0  0  0
   -0.0285   -7.4349    3.6268 O   0  0  0  0  0  0  0  0  0  0  0  0
    2.1445   -7.8288    4.8895 C   0  0  2  0  0  0  0  0  0  0  0  0
    2.7267   -8.3016    6.2608 C   0  0  0  0  0  0  0  0  0  0  0  0
    4.1419   -8.1753    6.3508 O   0  0  0  0  0  0  0  0  0  0  0  0
    2.8434   -4.1139    3.3632 C   0  0  2  0  0  0  0  0  0  0  0  0
    3.1061   -3.3328    2.0510 C   0  0  0  0  0  0  0  0  0  0  0  0
    4.5654   -3.6654    2.2577 C   0  0  1  0  0  0  0  0  0  0  0  0
    5.2359   -4.8631    1.5513 C   0  0  0  0  0  0  0  0  0  0  0  0
    5.3714   -2.4886    2.1357 O   0  0  0  0  0  0  0  0  0  0  0  0
    5.4239   -1.9074    0.8418 C   0  0  0  0  0  0  0  0  0  0  0  0
    4.2934   -4.0137    3.6664 O   0  0  0  0  0  0  0  0  0  0  0  0
    1.9271   -3.3590    4.3612 C   0  0  1  0  0  0  0  0  0  0  0  0
    0.6468   -3.0439    3.8174 O   0  0  0  0  0  0  0  0  0  0  0  0
    0.1789   -1.8058    4.3794 C   0  0  2  0  0  0  0  0  0  0  0  0
    1.4863   -1.0084    4.5927 C   0  0  0  0  0  0  0  0  0  0  0  0
    2.2885   -2.1235    5.1836 C   0  0  1  0  0  0  0  0  0  0  0  0
   -1.6531    0.7180    7.0760 H   0  0  0  0  0  0  0  0  0  0  0  0
   -0.1769    0.6182    6.1021 H   0  0  0  0  0  0  0  0  0  0  0  0
   -0.3102   -0.2340    7.6432 H   0  0  0  0  0  0  0  0  0  0  0  0
   -1.1852   -2.9927    5.5828 H   0  0  0  0  0  0  0  0  0  0  0  0
    3.5493   -2.9834    7.6060 H   0  0  0  0  0  0  0  0  0  0  0  0
    2.1041   -3.3823    8.5346 H   0  0  0  0  0  0  0  0  0  0  0  0
    2.4884   -1.7148    8.1722 H   0  0  0  0  0  0  0  0  0  0  0  0
    2.1341   -5.6866    6.9737 H   0  0  0  0  0  0  0  0  0  0  0  0
    3.6334   -6.2814    4.9784 H   0  0  0  0  0  0  0  0  0  0  0  0
    3.2462   -6.1478    2.7779 H   0  0  0  0  0  0  0  0  0  0  0  0
   -0.1750   -6.5324    1.8609 H   0  0  0  0  0  0  0  0  0  0  0  0
    0.9993   -8.5292    1.2124 H   0  0  0  0  0  0  0  0  0  0  0  0
    2.0143   -7.1750    0.8670 H   0  0  0  0  0  0  0  0  0  0  0  0
    4.7475  -12.6424    2.9280 H   0  0  0  0  0  0  0  0  0  0  0  0
    5.5012  -11.1000    3.2449 H   0  0  0  0  0  0  0  0  0  0  0  0
    4.4859  -12.8052    5.2639 H   0  0  0  0  0  0  0  0  0  0  0  0
    2.2509  -12.6989    4.8086 H   0  0  0  0  0  0  0  0  0  0  0  0
    0.0933  -11.4521    4.7619 H   0  0  0  0  0  0  0  0  0  0  0  0
    1.1420  -10.7142    5.9295 H   0  0  0  0  0  0  0  0  0  0  0  0
    0.7073  -10.6040    2.5051 H   0  0  0  0  0  0  0  0  0  0  0  0
   -0.7814   -8.9773    5.6223 H   0  0  0  0  0  0  0  0  0  0  0  0
    2.2598   -7.7913    7.1025 H   0  0  0  0  0  0  0  0  0  0  0  0
    2.5399   -9.3529    6.4668 H   0  0  0  0  0  0  0  0  0  0  0  0
    4.5102   -8.8626    5.8113 H   0  0  0  0  0  0  0  0  0  0  0  0
    2.6388   -3.7478    1.1587 H   0  0  0  0  0  0  0  0  0  0  0  0
    2.8934   -2.2784    2.1752 H   0  0  0  0  0  0  0  0  0  0  0  0
    6.2330   -5.0650    1.9924 H   0  0  0  0  0  0  0  0  0  0  0  0
    5.4281   -4.6312    0.5046 H   0  0  0  0  0  0  0  0  0  0  0  0
    4.6611   -5.7460    1.5301 H   0  0  0  0  0  0  0  0  0  0  0  0
    6.2485   -1.1869    0.7085 H   0  0  0  0  0  0  0  0  0  0  0  0
    4.4877   -1.3836    0.6177 H   0  0  0  0  0  0  0  0  0  0  0  0
    5.5631   -2.6222    0.0232 H   0  0  0  0  0  0  0  0  0  0  0  0
   -0.5258   -1.3537    3.6758 H   0  0  0  0  0  0  0  0  0  0  0  0
    1.8923   -0.7689    3.5883 H   0  0  0  0  0  0  0  0  0  0  0  0
    1.4585   -0.1331    5.2226 H   0  0  0  0  0  0  0  0  0  0  0  0
    3.3476   -1.9611    5.2758 H   0  0  0  0  0  0  0  0  0  0  0  0
  1  2  1  0
  1 43  1  0
  1 44  1  0
  1 45  1  0
  2  3  1  0
  3 40  1  0
  3  4  1  0
  3 46  1  6
  4  5  1  0
  5 42  1  0
  5  6  1  1
  5  7  1  0
  6 47  1  0
  6 48  1  0
  6 49  1  0
  7 38  1  0
  7  8  2  0
  8  9  1  0
  8 50  1  0
  9 28  1  0
  9 10  1  0
  9 51  1  1
 10 11  1  0
 10 31  1  0
 10 52  1  6
 11 12  1  0
 12 27  1  0
 12 13  1  0
 12 53  1  6
 13 14  1  0
 13 54  1  0
 13 55  1  0
 14 15  1  0
 15 23  1  0
 15 28  1  0
 15 16  1  1
 16 17  1  0
 17 21  1  0
 17 18  1  6
 17 20  1  0
 18 19  1  0
 18 56  1  0
 18 57  1  0
 19 58  1  0
 20 21  1  0
 21 22  1  0
 21 59  1  6
 22 23  1  0
 22 60  1  0
 22 61  1  0
 23 24  1  6
 23 25  1  0
 24 62  1  0
 25 26  1  1
 25 27  1  0
 25 28  1  0
 26 63  1  0
 28 29  1  1
 29 30  1  0
 29 64  1  0
 29 65  1  0
 30 66  1  0
 31 37  1  1
 31 32  1  0
 31 38  1  0
 32 33  1  0
 32 67  1  0
 32 68  1  0
 33 34  1  0
 33 35  1  1
 33 37  1  0
 34 69  1  0
 34 70  1  0
 34 71  1  0
 35 36  1  0
 36 72  1  0
 36 73  1  0
 36 74  1  0
 38 42  1  0
 38 39  1  6
 39 40  1  0
 40 41  1  0
 40 75  1  6
 41 42  1  0
 41 76  1  0
 41 77  1  0
 42 78  1  1
M  END
>  <i_m_ct_stereo_status>  (111) 
1

>  <s_m_source_file>  (111) 
/var/tmp/pbs.5076253.sched01/tmp0k8q0ypy/944rjgrua_.sdf

>  <i_m_source_file_index>  (111) 
37

>  <i_lp_mmshare_version>  (111) 
48012

>  <i_f3d_flags>  (111) 
1

>  <s_epik_input>  (111) 
W0NIM11PW0NASF0oTzEpW0NASF0oTzIpW0NIMl1bQ0BIXTNbQ0BdMShbQ0gzXSlDKD1bQ0hdNClDMjNbQ0BdNShbQ0gyXVtDQEBdKE81KShbQ0gzXSlPW0NIM10pW0NASF0oT1tDQEhdKE82KVtDSDJdTzcpW0NAQEhdNFtDQEBdOChbQ0gyXVtPSF0pW0NAXTYoW09IXSlbQ0BdKFtDQEBdNzg5KShbT0hdKVtDSDJdW0NAQEhdMVtDQF0oTzkpKE8xKVtDSDJdW09IXQ==

>  <s_epik_cmdline>  (111) 
J2VwaWtfcHl0aG9uJywgJy1waHQnLCAnMi4wJywgJy1waCcsICc3LjAnLCAnLXRuJywgJzgnLCAnLW1hJywgJzIwMCcsICctaW1hZScsICc8aW5maWxlLm1hZT4nLCAnLW9tYWUnLCAnPG91dGZpbGUubWFlPic=

>  <r_epik_Ionization_Penalty>  (111) 
0.00113255

>  <r_epik_Ionization_Penalty_Charging>  (111) 
0

>  <r_epik_Ionization_Penalty_Neutral>  (111) 
0.00113255

>  <r_epik_State_Penalty>  (111) 
0.000668363

>  <r_epik_Charging_Adjusted_Penalty>  (111) 
0.000668363

>  <i_epik_Tot_Q>  (111) 
0

>  <i_epik_Tot_abs_Q>  (111) 
0

>  <s_epik_Chemistry_Notes>  (111) 
This compound contains an acetal/aminal-like group ( X-CH(R)-Y where X, Y are N, S, or O) that may be acid/base labile, releasing an aldehyde.

>  <s_lp_Force_Field>  (111) 
OPLS3e

>  <r_lp_Energy>  (111) 
92.9992

>  <b_lp_Chiralities_Consistent>  (111) 
1

>  <s_lp_Variant>  (111) 
79:0-1

>  <s_i_glide_gridfile>  (111) 
pfpi4k_grid

>  <i_i_glide_lignum>  (111) 
37

>  <i_i_glide_rotatable_bonds>  (111) 
8

>  <r_i_docking_score>  (111) 
-3.07849

>  <r_i_glide_ligand_efficiency>  (111) 
-0.0732973

>  <r_i_glide_ligand_efficiency_sa>  (111) 
-0.254783

>  <r_i_glide_ligand_efficiency_ln>  (111) 
-0.649789

>  <r_i_glide_gscore>  (111) 
-3.07849

>  <r_i_glide_lipo>  (111) 
-0.136289

>  <r_i_glide_hbond>  (111) 
-0.0499819

>  <r_i_glide_metal>  (111) 
-0

>  <r_i_glide_rewards>  (111) 
-1.02764

>  <r_i_glide_evdw>  (111) 
-24.6849

>  <r_i_glide_ecoul>  (111) 
-3.25936

>  <r_i_glide_erotb>  (111) 
0.0040361

>  <r_i_glide_esite>  (111) 
-0.145466

>  <r_i_glide_emodel>  (111) 
-39.2353

>  <r_i_glide_energy>  (111) 
-27.9443

>  <r_i_glide_einternal>  (111) 
7.72537

>  <r_i_glide_intrahb_reward>  (111) 
-1

>  <i_i_glide_confnum>  (111) 
1

>  <i_i_glide_posenum>  (111) 
24

>  <r_i_glide_eff_state_penalty>  (111) 
0

>  <ligand_id>  (111) 
79

>  <original_smiles>  (111) 
COC1OC2(C)C3=CC4C(OC5COC67OC8(CO)OC8CC6(O)C(O)(O5)C47CO)C4(CC(C)(OC)O4)C34OC1CC24

>  <smiles>  (111) 
[H]OC([H])([H])C12OC1([H])C([H])([H])C1(O[H])C3(O[H])OC4([H])OC5([H])C([H])(C([H])=C6C7(C([H])([H])[H])OC([H])(OC([H])([H])[H])C8([H])OC6(C7([H])C8([H])[H])C56OC(OC([H])([H])[H])(C([H])([H])[H])C6([H])[H])C3(C([H])([H])O[H])C1(OC4([H])[H])O2

$$$$
79:0:2
     RDKit          3D

 78 87  0  0  1  0  0  0  0  0999 V2000
    1.1785    1.4729    1.7085 C   0  0  0  0  0  0  0  0  0  0  0  0
    2.3075    1.2100    2.5270 O   0  0  0  0  0  0  0  0  0  0  0  0
    2.4117   -0.1063    2.9397 C   0  0  2  0  0  0  0  0  0  0  0  0
    1.2371   -0.4905    3.6214 O   0  0  0  0  0  0  0  0  0  0  0  0
    1.2973   -1.2438    4.8313 C   0  0  1  0  0  0  0  0  0  0  0  0
   -0.0742   -1.2879    5.4844 C   0  0  0  0  0  0  0  0  0  0  0  0
    1.9734   -2.5932    4.6445 C   0  0  0  0  0  0  0  0  0  0  0  0
    1.5585   -3.8588    4.4813 C   0  0  0  0  0  0  0  0  0  0  0  0
    2.5566   -5.0273    4.6923 C   0  0  2  0  0  0  0  0  0  0  0  0
    4.0196   -4.5616    5.0090 C   0  0  1  0  0  0  0  0  0  0  0  0
    4.7544   -4.2332    3.8387 O   0  0  0  0  0  0  0  0  0  0  0  0
    5.0195   -5.2393    2.9328 C   0  0  1  0  0  0  0  0  0  0  0  0
    5.6618   -6.4986    3.5842 C   0  0  0  0  0  0  0  0  0  0  0  0
    4.7211   -7.2669    4.3157 O   0  0  0  0  0  0  0  0  0  0  0  0
    3.4139   -7.5583    3.8238 C   0  0  2  0  0  0  0  0  0  0  0  0
    2.8395   -8.6288    4.5787 O   0  0  0  0  0  0  0  0  0  0  0  0
    3.0098   -9.9752    4.0887 C   0  0  2  0  0  0  0  0  0  0  0  0
    2.9355  -11.0717    5.1523 C   0  0  0  0  0  0  0  0  0  0  0  0
    1.5865  -11.4227    5.2809 O   0  0  0  0  0  0  0  0  0  0  0  0
    3.9765  -10.1932    3.0566 O   0  0  0  0  0  0  0  0  0  0  0  0
    2.6020  -10.1015    2.6455 C   0  0  2  0  0  0  0  0  0  0  0  0
    2.3127   -8.8955    1.7742 C   0  0  0  0  0  0  0  0  0  0  0  0
    3.2255   -7.7388    2.2704 C   0  0  2  0  0  0  0  0  0  0  0  0
    4.3372   -8.0001    1.4377 O   0  0  0  0  0  0  0  0  0  0  0  0
    2.8086   -6.2694    2.2934 C   0  0  2  0  0  0  0  0  0  0  0  0
    1.7539   -5.9924    1.4082 O   0  0  0  0  0  0  0  0  0  0  0  0
    3.9806   -5.4862    2.0120 O   0  0  0  0  0  0  0  0  0  0  0  0
    2.3955   -6.3397    3.8069 C   0  0  2  0  0  0  0  0  0  0  0  0
    0.9266   -6.8107    4.0706 C   0  0  0  0  0  0  0  0  0  0  0  0
    0.6268   -7.0559    5.4366 O   0  0  0  0  0  0  0  0  0  0  0  0
    4.1107   -3.2245    5.8067 C   0  0  2  0  0  0  0  0  0  0  0  0
    5.4255   -2.7493    6.4469 C   0  0  0  0  0  0  0  0  0  0  0  0
    4.9611   -3.4849    7.7019 C   0  0  1  0  0  0  0  0  0  0  0  0
    5.5630   -4.8874    8.0343 C   0  0  0  0  0  0  0  0  0  0  0  0
    5.0386   -2.5735    8.8046 O   0  0  0  0  0  0  0  0  0  0  0  0
    4.5946   -3.0600   10.0709 C   0  0  0  0  0  0  0  0  0  0  0  0
    3.6212   -3.5935    7.1378 O   0  0  0  0  0  0  0  0  0  0  0  0
    3.3198   -2.1058    5.0811 C   0  0  1  0  0  0  0  0  0  0  0  0
    4.0871   -1.5127    4.0223 O   0  0  0  0  0  0  0  0  0  0  0  0
    3.6712   -0.1549    3.8515 C   0  0  2  0  0  0  0  0  0  0  0  0
    3.3135    0.3064    5.2629 C   0  0  0  0  0  0  0  0  0  0  0  0
    2.5571   -0.9197    5.6779 C   0  0  1  0  0  0  0  0  0  0  0  0
    1.1876    2.5209    1.4164 H   0  0  0  0  0  0  0  0  0  0  0  0
    0.2371    1.3004    2.2263 H   0  0  0  0  0  0  0  0  0  0  0  0
    1.1811    0.8574    0.8128 H   0  0  0  0  0  0  0  0  0  0  0  0
    2.5403   -0.7314    2.0504 H   0  0  0  0  0  0  0  0  0  0  0  0
   -0.0608   -1.8745    6.4047 H   0  0  0  0  0  0  0  0  0  0  0  0
   -0.8283   -1.6987    4.8113 H   0  0  0  0  0  0  0  0  0  0  0  0
   -0.3756   -0.2778    5.7475 H   0  0  0  0  0  0  0  0  0  0  0  0
    0.5238   -4.0688    4.2627 H   0  0  0  0  0  0  0  0  0  0  0  0
    2.2446   -5.3243    5.6823 H   0  0  0  0  0  0  0  0  0  0  0  0
    4.4471   -5.3838    5.5360 H   0  0  0  0  0  0  0  0  0  0  0  0
    5.7909   -4.7574    2.3322 H   0  0  0  0  0  0  0  0  0  0  0  0
    6.1537   -7.1054    2.8195 H   0  0  0  0  0  0  0  0  0  0  0  0
    6.4536   -6.1901    4.2878 H   0  0  0  0  0  0  0  0  0  0  0  0
    3.5401  -11.9704    4.9236 H   0  0  0  0  0  0  0  0  0  0  0  0
    3.3135  -10.6628    6.0862 H   0  0  0  0  0  0  0  0  0  0  0  0
    1.4142  -11.7597    6.1682 H   0  0  0  0  0  0  0  0  0  0  0  0
    2.0603  -11.0245    2.4312 H   0  0  0  0  0  0  0  0  0  0  0  0
    2.4704   -9.1795    0.7194 H   0  0  0  0  0  0  0  0  0  0  0  0
    1.2528   -8.6696    1.8509 H   0  0  0  0  0  0  0  0  0  0  0  0
    4.5362   -8.9069    1.6297 H   0  0  0  0  0  0  0  0  0  0  0  0
    2.1561   -5.9377    0.5533 H   0  0  0  0  0  0  0  0  0  0  0  0
    0.2036   -6.1055    3.6693 H   0  0  0  0  0  0  0  0  0  0  0  0
    0.6737   -7.7466    3.5807 H   0  0  0  0  0  0  0  0  0  0  0  0
    1.0399   -7.8790    5.6615 H   0  0  0  0  0  0  0  0  0  0  0  0
    6.3361   -3.1271    5.9697 H   0  0  0  0  0  0  0  0  0  0  0  0
    5.4383   -1.6634    6.5905 H   0  0  0  0  0  0  0  0  0  0  0  0
    4.9750   -5.3991    8.8261 H   0  0  0  0  0  0  0  0  0  0  0  0
    6.5857   -4.7350    8.4103 H   0  0  0  0  0  0  0  0  0  0  0  0
    5.6618   -5.5812    7.2017 H   0  0  0  0  0  0  0  0  0  0  0  0
    4.6957   -2.3105   10.8633 H   0  0  0  0  0  0  0  0  0  0  0  0
    5.1356   -3.9329   10.4488 H   0  0  0  0  0  0  0  0  0  0  0  0
    3.5435   -3.3254    9.9990 H   0  0  0  0  0  0  0  0  0  0  0  0
    4.4891    0.4195    3.4161 H   0  0  0  0  0  0  0  0  0  0  0  0
    4.2118    0.4099    5.8719 H   0  0  0  0  0  0  0  0  0  0  0  0
    2.7347    1.2368    5.2982 H   0  0  0  0  0  0  0  0  0  0  0  0
    2.3520   -1.0544    6.7344 H   0  0  0  0  0  0  0  0  0  0  0  0
  1  2  1  0
  1 43  1  0
  1 44  1  0
  1 45  1  0
  2  3  1  0
  3 40  1  0
  3  4  1  0
  3 46  1  6
  4  5  1  0
  5 42  1  0
  5  6  1  1
  5  7  1  0
  6 47  1  0
  6 48  1  0
  6 49  1  0
  7 38  1  0
  7  8  2  0
  8  9  1  0
  8 50  1  0
  9 28  1  0
  9 10  1  0
  9 51  1  1
 10 11  1  0
 10 31  1  0
 10 52  1  1
 11 12  1  0
 12 27  1  0
 12 13  1  0
 12 53  1  6
 13 14  1  0
 13 54  1  0
 13 55  1  0
 14 15  1  0
 15 23  1  0
 15 28  1  0
 15 16  1  1
 16 17  1  0
 17 21  1  0
 17 18  1  1
 17 20  1  0
 18 19  1  0
 18 56  1  0
 18 57  1  0
 19 58  1  0
 20 21  1  0
 21 22  1  0
 21 59  1  1
 22 23  1  0
 22 60  1  0
 22 61  1  0
 23 24  1  6
 23 25  1  0
 24 62  1  0
 25 26  1  6
 25 27  1  0
 25 28  1  0
 26 63  1  0
 28 29  1  6
 29 30  1  0
 29 64  1  0
 29 65  1  0
 30 66  1  0
 31 37  1  1
 31 32  1  0
 31 38  1  0
 32 33  1  0
 32 67  1  0
 32 68  1  0
 33 34  1  0
 33 35  1  1
 33 37  1  0
 34 69  1  0
 34 70  1  0
 34 71  1  0
 35 36  1  0
 36 72  1  0
 36 73  1  0
 36 74  1  0
 38 42  1  0
 38 39  1  6
 39 40  1  0
 40 41  1  0
 40 75  1  6
 41 42  1  0
 41 76  1  0
 41 77  1  0
 42 78  1  1
M  END
>  <i_m_ct_stereo_status>  (112) 
1

>  <s_m_source_file>  (112) 
/var/tmp/pbs.5076253.sched01/tmp0k8q0ypy/944rjgrua_.sdf

>  <i_m_source_file_index>  (112) 
37

>  <i_lp_mmshare_version>  (112) 
48012

>  <i_f3d_flags>  (112) 
1

>  <s_epik_input>  (112) 
W0NIM11PW0NASF0oTzEpW0NASF0oTzIpW0NIMl1bQ0BIXTNbQ0BdMShbQ0gzXSlDKD1bQ0hdNClDMjNbQ0BdNShbQ0gyXVtDQEBdKE81KShbQ0gzXSlPW0NIM10pW0NASF0oT1tDQEhdKE82KVtDSDJdTzcpW0NAQEhdNFtDQEBdOChbQ0gyXVtPSF0pW0NAXTYoW09IXSlbQ0BdKFtDQEBdNzg5KShbT0hdKVtDSDJdW0NAQEhdMVtDQF0oTzkpKE8xKVtDSDJdW09IXQ==

>  <s_epik_cmdline>  (112) 
J2VwaWtfcHl0aG9uJywgJy1waHQnLCAnMi4wJywgJy1waCcsICc3LjAnLCAnLXRuJywgJzgnLCAnLW1hJywgJzIwMCcsICctaW1hZScsICc8aW5maWxlLm1hZT4nLCAnLW9tYWUnLCAnPG91dGZpbGUubWFlPic=

>  <r_epik_Ionization_Penalty>  (112) 
0.00113255

>  <r_epik_Ionization_Penalty_Charging>  (112) 
0

>  <r_epik_Ionization_Penalty_Neutral>  (112) 
0.00113255

>  <r_epik_State_Penalty>  (112) 
0.000668363

>  <r_epik_Charging_Adjusted_Penalty>  (112) 
0.000668363

>  <i_epik_Tot_Q>  (112) 
0

>  <i_epik_Tot_abs_Q>  (112) 
0

>  <s_epik_Chemistry_Notes>  (112) 
This compound contains an acetal/aminal-like group ( X-CH(R)-Y where X, Y are N, S, or O) that may be acid/base labile, releasing an aldehyde.

>  <s_lp_Force_Field>  (112) 
OPLS3e

>  <r_lp_Energy>  (112) 
92.9992

>  <b_lp_Chiralities_Consistent>  (112) 
1

>  <s_lp_Variant>  (112) 
79:0-1

>  <s_i_glide_gridfile>  (112) 
pfpi4k_grid

>  <i_i_glide_lignum>  (112) 
37

>  <i_i_glide_rotatable_bonds>  (112) 
8

>  <r_i_docking_score>  (112) 
-2.86186

>  <r_i_glide_ligand_efficiency>  (112) 
-0.0681396

>  <r_i_glide_ligand_efficiency_sa>  (112) 
-0.236855

>  <r_i_glide_ligand_efficiency_ln>  (112) 
-0.604065

>  <r_i_glide_gscore>  (112) 
-2.86186

>  <r_i_glide_lipo>  (112) 
-0.0281302

>  <r_i_glide_hbond>  (112) 
0

>  <r_i_glide_metal>  (112) 
-0

>  <r_i_glide_rewards>  (112) 
-1.00274

>  <r_i_glide_evdw>  (112) 
-18.8692

>  <r_i_glide_ecoul>  (112) 
-5.79958

>  <r_i_glide_erotb>  (112) 
0.0040361

>  <r_i_glide_esite>  (112) 
-0.0216264

>  <r_i_glide_emodel>  (112) 
-39.2304

>  <r_i_glide_energy>  (112) 
-24.6688

>  <r_i_glide_einternal>  (112) 
1.88721

>  <r_i_glide_intrahb_reward>  (112) 
-1

>  <i_i_glide_confnum>  (112) 
5

>  <i_i_glide_posenum>  (112) 
13

>  <r_i_glide_eff_state_penalty>  (112) 
0

>  <ligand_id>  (112) 
79

>  <original_smiles>  (112) 
COC1OC2(C)C3=CC4C(OC5COC67OC8(CO)OC8CC6(O)C(O)(O5)C47CO)C4(CC(C)(OC)O4)C34OC1CC24

>  <smiles>  (112) 
[H]OC([H])([H])C12OC1([H])C([H])([H])C1(O[H])C3(O[H])OC4([H])OC5([H])C([H])(C([H])=C6C7(C([H])([H])[H])OC([H])(OC([H])([H])[H])C8([H])OC6(C7([H])C8([H])[H])C56OC(OC([H])([H])[H])(C([H])([H])[H])C6([H])[H])C3(C([H])([H])O[H])C1(OC4([H])[H])O2

$$$$
81:0:0
     RDKit          3D

 57 63  0  0  1  0  0  0  0  0999 V2000
    5.3711   -3.2987   -2.4088 O   0  0  0  0  0  0  0  0  0  0  0  0
    4.9549   -2.6482   -1.4240 C   0  0  0  0  0  0  0  0  0  0  0  0
    4.9707   -1.1926   -1.0377 C   0  0  1  0  0  0  0  0  0  0  0  0
    3.5238   -1.3789   -1.4064 N   0  0  1  0  0  0  0  0  0  0  0  0
    3.0472   -1.3918   -2.8420 C   0  0  0  0  0  0  0  0  0  0  0  0
    3.3416   -0.0750   -3.5621 C   0  0  0  0  0  0  0  0  0  0  0  0
    2.4614    0.4472   -4.7007 C   0  0  0  0  0  0  0  0  0  0  0  0
    3.8230   -0.0848   -4.9961 C   0  0  0  0  0  0  0  0  0  0  0  0
    3.6878   -2.6119   -0.5694 C   0  0  1  0  0  0  0  0  0  0  0  0
    2.9649   -3.8919   -0.6233 C   0  0  0  0  0  0  0  0  0  0  0  0
    3.6579   -5.0110    0.1978 C   0  0  1  0  0  0  0  0  0  0  0  0
    5.1670   -5.2429    0.5366 C   0  0  0  0  0  0  0  0  0  0  0  0
    6.4422   -4.7873    0.5130 C   0  0  0  0  0  0  0  0  0  0  0  0
    7.2214   -3.4770    0.2772 C   0  0  1  0  0  0  0  0  0  0  0  0
    8.3144   -3.6123    1.1717 O   0  0  0  0  0  0  0  0  0  0  0  0
    8.0573   -3.4544   -1.0523 C   0  0  0  0  0  0  0  0  0  0  0  0
    9.0281   -4.4871   -1.0470 O   0  0  0  0  0  0  0  0  0  0  0  0
    6.5894   -2.1005    0.8303 C   0  0  1  0  0  0  0  0  0  0  0  0
    7.5230   -1.0906    0.4698 O   0  0  0  0  0  0  0  0  0  0  0  0
    5.1920   -1.3599    0.5268 C   0  0  1  0  0  0  0  0  0  0  0  0
    5.0601   -0.3247    1.6709 C   0  0  0  0  0  0  0  0  0  0  0  0
    4.5207   -1.2211    2.8625 C   0  0  0  0  0  0  0  0  0  0  0  0
    3.7615   -2.4562    2.2485 C   0  0  2  0  0  0  0  0  0  0  0  0
    4.2304   -3.8771    2.6586 C   0  0  1  0  0  0  0  0  0  0  0  0
    3.8163   -4.1111    3.9950 O   0  0  0  0  0  0  0  0  0  0  0  0
    3.7061   -5.0571    1.7464 C   0  0  2  0  0  0  0  0  0  0  0  0
    4.7926   -6.0083    1.6416 O   0  0  0  0  0  0  0  0  0  0  0  0
    3.8143   -1.9635    0.7969 C   0  0  2  0  0  0  0  0  0  0  0  0
    2.6915   -1.0072    0.8744 O   0  0  0  0  0  0  0  0  0  0  0  0
    5.5792   -0.5158   -1.6283 H   0  0  0  0  0  0  0  0  0  0  0  0
    3.3891   -2.2332   -3.4605 H   0  0  0  0  0  0  0  0  0  0  0  0
    1.9756   -1.5319   -2.7262 H   0  0  0  0  0  0  0  0  0  0  0  0
    3.8444    0.6879   -2.9509 H   0  0  0  0  0  0  0  0  0  0  0  0
    1.6309   -0.1421   -5.0927 H   0  0  0  0  0  0  0  0  0  0  0  0
    2.3541    1.5237   -4.7983 H   0  0  0  0  0  0  0  0  0  0  0  0
    4.5821    0.6540   -5.2375 H   0  0  0  0  0  0  0  0  0  0  0  0
    3.8795   -1.0389   -5.5180 H   0  0  0  0  0  0  0  0  0  0  0  0
    1.9456   -3.7538   -0.2423 H   0  0  0  0  0  0  0  0  0  0  0  0
    2.8348   -4.1911   -1.6603 H   0  0  0  0  0  0  0  0  0  0  0  0
    3.2281   -5.9665   -0.1221 H   0  0  0  0  0  0  0  0  0  0  0  0
    7.0205   -5.4503    1.1337 H   0  0  0  0  0  0  0  0  0  0  0  0
    8.0434   -3.6079    2.0702 H   0  0  0  0  0  0  0  0  0  0  0  0
    7.4976   -3.6669   -1.9242 H   0  0  0  0  0  0  0  0  0  0  0  0
    8.6454   -2.5336   -1.1464 H   0  0  0  0  0  0  0  0  0  0  0  0
    9.5134   -4.4057   -1.8590 H   0  0  0  0  0  0  0  0  0  0  0  0
    6.6306   -2.2172    1.9143 H   0  0  0  0  0  0  0  0  0  0  0  0
    7.5579   -0.4558    1.1638 H   0  0  0  0  0  0  0  0  0  0  0  0
    5.9903    0.1420    1.9720 H   0  0  0  0  0  0  0  0  0  0  0  0
    4.3827    0.5010    1.4207 H   0  0  0  0  0  0  0  0  0  0  0  0
    5.3337   -1.5429    3.5145 H   0  0  0  0  0  0  0  0  0  0  0  0
    3.8391   -0.6317    3.4746 H   0  0  0  0  0  0  0  0  0  0  0  0
    2.7243   -2.4455    2.5938 H   0  0  0  0  0  0  0  0  0  0  0  0
    5.3213   -3.8850    2.7163 H   0  0  0  0  0  0  0  0  0  0  0  0
    2.8796   -4.1184    4.0214 H   0  0  0  0  0  0  0  0  0  0  0  0
    2.7767   -5.5286    2.1090 H   0  0  0  0  0  0  0  0  0  0  0  0
    1.9302   -1.2853    0.3679 H   0  0  0  0  0  0  0  0  0  0  0  0
    2.9646   -0.6873   -0.8871 H   0  0  0  0  0  0  0  0  0  0  0  0
  1  2  2  0
  9  2  1  6
  2  3  1  0
  3 20  1  0
  3  4  1  0
  3 30  1  6
  4  5  1  0
  4  9  1  0
  4 57  1  1
  5  6  1  0
  5 31  1  0
  5 32  1  0
  6  8  1  0
  6  7  1  0
  6 33  1  0
  7  8  1  0
  7 34  1  0
  7 35  1  0
  8 36  1  0
  8 37  1  0
  9 28  1  0
  9 10  1  0
 10 11  1  0
 10 38  1  0
 10 39  1  0
 11 26  1  0
 11 12  1  0
 11 40  1  6
 12 27  1  0
 12 13  2  3
 13 14  1  0
 13 41  1  0
 14 15  1  1
 14 16  1  0
 14 18  1  0
 15 42  1  0
 16 17  1  0
 16 43  1  0
 16 44  1  0
 17 45  1  0
 18 19  1  0
 18 20  1  0
 18 46  1  1
 19 47  1  0
 20 28  1  0
 20 21  1  1
 21 22  1  0
 21 48  1  0
 21 49  1  0
 22 23  1  0
 22 50  1  0
 22 51  1  0
 23 24  1  0
 23 28  1  0
 23 52  1  1
 24 25  1  0
 24 26  1  0
 24 53  1  1
 25 54  1  0
 26 27  1  0
 26 55  1  1
 28 29  1  1
 29 56  1  0
M  CHG  1   4   1
M  END
>  <i_m_ct_stereo_status>  (113) 
1

>  <s_m_source_file>  (113) 
/var/tmp/pbs.5076253.sched01/tmp0k8q0ypy/944rjgrua_.sdf

>  <i_m_source_file_index>  (113) 
39

>  <i_lp_mmshare_version>  (113) 
48012

>  <i_f3d_flags>  (113) 
0

>  <s_epik_input>  (113) 
W0NIMl0xW0NIMl1bQ0hdMVtDSDJdTjJbQ0BIXShDMz1PKVtDQEBdNChbQ0BdNShbQ0BAXTIzNilbT0hdKVtDQEhdKFtPSF0pW0NAXShbT0hdKShbQ0gyXVtPSF0pXFtDSF09QzdcW0NASF0oW0NIMl02KVtDQEBIXShPNylbQ0BIXShbT0hdKVtDQEhdNVtDSDJdW0NIMl00

>  <s_epik_cmdline>  (113) 
J2VwaWtfcHl0aG9uJywgJy1waHQnLCAnMi4wJywgJy1waCcsICc3LjAnLCAnLXRuJywgJzgnLCAnLW1hJywgJzIwMCcsICctaW1hZScsICc8aW5maWxlLm1hZT4nLCAnLW9tYWUnLCAnPG91dGZpbGUubWFlPic=

>  <r_epik_Ionization_Penalty>  (113) 
0.0491724

>  <r_epik_Ionization_Penalty_Charging>  (113) 
0.0491625

>  <r_epik_Ionization_Penalty_Neutral>  (113) 
9.94771e-06

>  <r_epik_State_Penalty>  (113) 
0.0419761

>  <r_epik_Charging_Adjusted_Penalty>  (113) 
0.0911386

>  <i_epik_Tot_Q>  (113) 
1

>  <i_epik_Tot_abs_Q>  (113) 
1

>  <s_lp_Force_Field>  (113) 
OPLS3e

>  <r_lp_Energy>  (113) 
213.69

>  <b_lp_Chiralities_Consistent>  (113) 
1

>  <s_lp_Variant>  (113) 
81:0-1

>  <s_i_glide_gridfile>  (113) 
pfpi4k_grid

>  <i_i_glide_lignum>  (113) 
39

>  <i_i_glide_rotatable_bonds>  (113) 
8

>  <r_i_docking_score>  (113) 
-4.5848

>  <r_i_glide_ligand_efficiency>  (113) 
-0.158097

>  <r_i_glide_ligand_efficiency_sa>  (113) 
-0.485723

>  <r_i_glide_ligand_efficiency_ln>  (113) 
-1.0498

>  <r_i_glide_gscore>  (113) 
-4.5848

>  <r_i_glide_lipo>  (113) 
-1.02932

>  <r_i_glide_hbond>  (113) 
-0.183694

>  <r_i_glide_metal>  (113) 
-0

>  <r_i_glide_rewards>  (113) 
-0.637844

>  <r_i_glide_evdw>  (113) 
-18.0054

>  <r_i_glide_ecoul>  (113) 
-13.1652

>  <r_i_glide_erotb>  (113) 
0.249944

>  <r_i_glide_esite>  (113) 
-0.108832

>  <r_i_glide_emodel>  (113) 
-33.309

>  <r_i_glide_energy>  (113) 
-31.1707

>  <r_i_glide_einternal>  (113) 
10.4648

>  <r_i_glide_intrahb_reward>  (113) 
-0

>  <i_i_glide_confnum>  (113) 
1

>  <i_i_glide_posenum>  (113) 
6

>  <r_i_glide_eff_state_penalty>  (113) 
0

>  <ligand_id>  (113) 
81

>  <original_smiles>  (113) 
O=C1C2N(CC3CC3)C13CC1C4=CC(O)(CO)C(O)C25CCC(C(O)C1O4)C53O

>  <smiles>  (113) 
[H]OC([H])([H])C1(O[H])C([H])=C2OC3([H])C([H])(O[H])C4([H])C([H])([H])C([H])([H])C5(C1([H])O[H])C4(O[H])C1(C(=O)C5([H])[N+]1([H])C([H])([H])C1([H])C([H])([H])C1([H])[H])C([H])([H])C23[H]

$$$$
81:0:1
     RDKit          3D

 57 63  0  0  1  0  0  0  0  0999 V2000
    5.5488   -3.3055   -2.3823 O   0  0  0  0  0  0  0  0  0  0  0  0
    5.1251   -2.6577   -1.4163 C   0  0  0  0  0  0  0  0  0  0  0  0
    5.1394   -1.2026   -0.9984 C   0  0  1  0  0  0  0  0  0  0  0  0
    3.6819   -1.3988   -1.3838 N   0  0  1  0  0  0  0  0  0  0  0  0
    3.2092   -1.3624   -2.8187 C   0  0  0  0  0  0  0  0  0  0  0  0
    3.4736   -0.0116   -3.4934 C   0  0  0  0  0  0  0  0  0  0  0  0
    2.6274    0.4612   -4.6699 C   0  0  0  0  0  0  0  0  0  0  0  0
    4.0393    0.0351   -4.8965 C   0  0  0  0  0  0  0  0  0  0  0  0
    3.8654   -2.6522   -0.5662 C   0  0  1  0  0  0  0  0  0  0  0  0
    3.1251   -3.9238   -0.6548 C   0  0  0  0  0  0  0  0  0  0  0  0
    3.8187   -5.0616    0.1411 C   0  0  1  0  0  0  0  0  0  0  0  0
    5.3119   -5.3051    0.4933 C   0  0  0  0  0  0  0  0  0  0  0  0
    6.5961   -4.8625    0.5109 C   0  0  0  0  0  0  0  0  0  0  0  0
    7.3898   -3.5604    0.2997 C   0  0  1  0  0  0  0  0  0  0  0  0
    8.4678   -3.7292    1.2167 O   0  0  0  0  0  0  0  0  0  0  0  0
    8.2424   -3.5553   -1.0224 C   0  0  0  0  0  0  0  0  0  0  0  0
    9.2432   -4.5640   -0.9991 O   0  0  0  0  0  0  0  0  0  0  0  0
    6.7663   -2.1732    0.8607 C   0  0  1  0  0  0  0  0  0  0  0  0
    7.7030   -1.1550    0.5371 O   0  0  0  0  0  0  0  0  0  0  0  0
    5.3772   -1.4069    0.5567 C   0  0  1  0  0  0  0  0  0  0  0  0
    5.2215   -0.3927    1.7320 C   0  0  0  0  0  0  0  0  0  0  0  0
    4.6586   -1.3198    2.8996 C   0  0  0  0  0  0  0  0  0  0  0  0
    3.9065   -2.5473    2.2498 C   0  0  2  0  0  0  0  0  0  0  0  0
    4.3610   -3.9820    2.6274 C   0  0  1  0  0  0  0  0  0  0  0  0
    3.9415   -4.2475    3.9526 O   0  0  0  0  0  0  0  0  0  0  0  0
    3.8362   -5.1406    1.6858 C   0  0  2  0  0  0  0  0  0  0  0  0
    4.9206   -6.1087    1.5630 O   0  0  0  0  0  0  0  0  0  0  0  0
    4.0185   -2.0411    0.8095 C   0  0  2  0  0  0  0  0  0  0  0  0
    2.8824   -1.1428    0.8826 O   0  0  0  0  0  0  0  0  0  0  0  0
    5.7544   -0.5254   -1.5878 H   0  0  0  0  0  0  0  0  0  0  0  0
    3.5908   -2.1599   -3.4618 H   0  0  0  0  0  0  0  0  0  0  0  0
    2.1370   -1.5195   -2.7710 H   0  0  0  0  0  0  0  0  0  0  0  0
    3.8283    0.7728   -2.8225 H   0  0  0  0  0  0  0  0  0  0  0  0
    1.8414   -0.1793   -5.0664 H   0  0  0  0  0  0  0  0  0  0  0  0
    2.4462    1.5310   -4.7607 H   0  0  0  0  0  0  0  0  0  0  0  0
    4.7146    0.8470   -5.1479 H   0  0  0  0  0  0  0  0  0  0  0  0
    4.2103   -0.9055   -5.4146 H   0  0  0  0  0  0  0  0  0  0  0  0
    2.1127   -3.7885   -0.2688 H   0  0  0  0  0  0  0  0  0  0  0  0
    2.9907   -4.2009   -1.6905 H   0  0  0  0  0  0  0  0  0  0  0  0
    3.3954   -5.9987   -0.2299 H   0  0  0  0  0  0  0  0  0  0  0  0
    7.1678   -5.5483    1.1159 H   0  0  0  0  0  0  0  0  0  0  0  0
    8.1647   -3.7620    2.1124 H   0  0  0  0  0  0  0  0  0  0  0  0
    7.6814   -3.7744   -1.9063 H   0  0  0  0  0  0  0  0  0  0  0  0
    8.7628   -2.6062   -1.1617 H   0  0  0  0  0  0  0  0  0  0  0  0
    8.8070   -5.3983   -0.8871 H   0  0  0  0  0  0  0  0  0  0  0  0
    6.7812   -2.3108    1.9382 H   0  0  0  0  0  0  0  0  0  0  0  0
    7.6560   -0.4847    1.2130 H   0  0  0  0  0  0  0  0  0  0  0  0
    6.1361    0.1008    2.0452 H   0  0  0  0  0  0  0  0  0  0  0  0
    4.5436    0.4311    1.4824 H   0  0  0  0  0  0  0  0  0  0  0  0
    5.4620   -1.6639    3.5536 H   0  0  0  0  0  0  0  0  0  0  0  0
    3.9765   -0.7455    3.5309 H   0  0  0  0  0  0  0  0  0  0  0  0
    2.8613   -2.5361    2.5763 H   0  0  0  0  0  0  0  0  0  0  0  0
    5.4479   -3.9870    2.6926 H   0  0  0  0  0  0  0  0  0  0  0  0
    2.9954   -4.2745    3.9743 H   0  0  0  0  0  0  0  0  0  0  0  0
    2.9136   -5.6139    2.0273 H   0  0  0  0  0  0  0  0  0  0  0  0
    2.9869   -0.5739    1.6387 H   0  0  0  0  0  0  0  0  0  0  0  0
    3.0800   -0.8028   -0.8134 H   0  0  0  0  0  0  0  0  0  0  0  0
  1  2  2  0
  9  2  1  6
  2  3  1  0
  3 20  1  0
  3  4  1  0
  3 30  1  6
  4  5  1  0
  4  9  1  0
  4 57  1  1
  5  6  1  0
  5 31  1  0
  5 32  1  0
  6  8  1  0
  6  7  1  0
  6 33  1  0
  7  8  1  0
  7 34  1  0
  7 35  1  0
  8 36  1  0
  8 37  1  0
  9 28  1  0
  9 10  1  0
 10 11  1  0
 10 38  1  0
 10 39  1  0
 11 26  1  0
 11 12  1  0
 11 40  1  6
 12 27  1  0
 12 13  2  3
 13 14  1  0
 13 41  1  0
 14 15  1  1
 14 16  1  0
 14 18  1  0
 15 42  1  0
 16 17  1  0
 16 43  1  0
 16 44  1  0
 17 45  1  0
 18 19  1  0
 18 20  1  0
 18 46  1  1
 19 47  1  0
 20 28  1  0
 20 21  1  1
 21 22  1  0
 21 48  1  0
 21 49  1  0
 22 23  1  0
 22 50  1  0
 22 51  1  0
 23 24  1  0
 23 28  1  0
 23 52  1  1
 24 25  1  0
 24 26  1  0
 24 53  1  1
 25 54  1  0
 26 27  1  0
 26 55  1  1
 28 29  1  1
 29 56  1  0
M  CHG  1   4   1
M  END
>  <i_m_ct_stereo_status>  (114) 
1

>  <s_m_source_file>  (114) 
/var/tmp/pbs.5076253.sched01/tmp0k8q0ypy/944rjgrua_.sdf

>  <i_m_source_file_index>  (114) 
39

>  <i_lp_mmshare_version>  (114) 
48012

>  <i_f3d_flags>  (114) 
0

>  <s_epik_input>  (114) 
W0NIMl0xW0NIMl1bQ0hdMVtDSDJdTjJbQ0BIXShDMz1PKVtDQEBdNChbQ0BdNShbQ0BAXTIzNilbT0hdKVtDQEhdKFtPSF0pW0NAXShbT0hdKShbQ0gyXVtPSF0pXFtDSF09QzdcW0NASF0oW0NIMl02KVtDQEBIXShPNylbQ0BIXShbT0hdKVtDQEhdNVtDSDJdW0NIMl00

>  <s_epik_cmdline>  (114) 
J2VwaWtfcHl0aG9uJywgJy1waHQnLCAnMi4wJywgJy1waCcsICc3LjAnLCAnLXRuJywgJzgnLCAnLW1hJywgJzIwMCcsICctaW1hZScsICc8aW5maWxlLm1hZT4nLCAnLW9tYWUnLCAnPG91dGZpbGUubWFlPic=

>  <r_epik_Ionization_Penalty>  (114) 
0.0491724

>  <r_epik_Ionization_Penalty_Charging>  (114) 
0.0491625

>  <r_epik_Ionization_Penalty_Neutral>  (114) 
9.94771e-06

>  <r_epik_State_Penalty>  (114) 
0.0419761

>  <r_epik_Charging_Adjusted_Penalty>  (114) 
0.0911386

>  <i_epik_Tot_Q>  (114) 
1

>  <i_epik_Tot_abs_Q>  (114) 
1

>  <s_lp_Force_Field>  (114) 
OPLS3e

>  <r_lp_Energy>  (114) 
213.69

>  <b_lp_Chiralities_Consistent>  (114) 
1

>  <s_lp_Variant>  (114) 
81:0-1

>  <s_i_glide_gridfile>  (114) 
pfpi4k_grid

>  <i_i_glide_lignum>  (114) 
39

>  <i_i_glide_rotatable_bonds>  (114) 
8

>  <r_i_docking_score>  (114) 
-3.30152

>  <r_i_glide_ligand_efficiency>  (114) 
-0.113846

>  <r_i_glide_ligand_efficiency_sa>  (114) 
-0.34977

>  <r_i_glide_ligand_efficiency_ln>  (114) 
-0.755965

>  <r_i_glide_gscore>  (114) 
-3.30152

>  <r_i_glide_lipo>  (114) 
-1.02216

>  <r_i_glide_hbond>  (114) 
-0.0173283

>  <r_i_glide_metal>  (114) 
-0

>  <r_i_glide_rewards>  (114) 
-0.637844

>  <r_i_glide_evdw>  (114) 
-15.5101

>  <r_i_glide_ecoul>  (114) 
-7.42779

>  <r_i_glide_erotb>  (114) 
0.357063

>  <r_i_glide_esite>  (114) 
-0.0915854

>  <r_i_glide_emodel>  (114) 
-23.8714

>  <r_i_glide_energy>  (114) 
-22.9378

>  <r_i_glide_einternal>  (114) 
9.33186

>  <r_i_glide_intrahb_reward>  (114) 
-0

>  <i_i_glide_confnum>  (114) 
1

>  <i_i_glide_posenum>  (114) 
31

>  <r_i_glide_eff_state_penalty>  (114) 
0

>  <ligand_id>  (114) 
81

>  <original_smiles>  (114) 
O=C1C2N(CC3CC3)C13CC1C4=CC(O)(CO)C(O)C25CCC(C(O)C1O4)C53O

>  <smiles>  (114) 
[H]OC([H])([H])C1(O[H])C([H])=C2OC3([H])C([H])(O[H])C4([H])C([H])([H])C([H])([H])C5(C1([H])O[H])C4(O[H])C1(C(=O)C5([H])[N+]1([H])C([H])([H])C1([H])C([H])([H])C1([H])[H])C([H])([H])C23[H]

$$$$
81:0:2
     RDKit          3D

 57 63  0  0  1  0  0  0  0  0999 V2000
   -0.4603    4.3868    5.4222 O   0  0  0  0  0  0  0  0  0  0  0  0
   -0.5491    3.2245    4.9870 C   0  0  0  0  0  0  0  0  0  0  0  0
   -1.6331    2.1634    4.9423 C   0  0  1  0  0  0  0  0  0  0  0  0
   -1.5653    2.6097    3.5061 N   0  0  1  0  0  0  0  0  0  0  0  0
   -2.2714    3.8508    3.0109 C   0  0  0  0  0  0  0  0  0  0  0  0
   -3.7741    3.6343    2.8922 C   0  0  0  0  0  0  0  0  0  0  0  0
   -4.4613    3.1703    1.6462 C   0  0  0  0  0  0  0  0  0  0  0  0
   -4.6429    4.5958    2.0794 C   0  0  0  0  0  0  0  0  0  0  0  0
   -0.0791    2.5083    3.7465 C   0  0  1  0  0  0  0  0  0  0  0  0
    1.0253    3.2345    3.1082 C   0  0  0  0  0  0  0  0  0  0  0  0
    2.3705    3.0536    3.8755 C   0  0  1  0  0  0  0  0  0  0  0  0
    2.6526    2.8193    5.3833 C   0  0  0  0  0  0  0  0  0  0  0  0
    2.1927    2.5532    6.6232 C   0  0  0  0  0  0  0  0  0  0  0  0
    0.8919    2.0995    7.3374 C   0  0  1  0  0  0  0  0  0  0  0  0
    1.3924    1.3191    8.4175 O   0  0  0  0  0  0  0  0  0  0  0  0
    0.2196    3.2118    8.2128 C   0  0  0  0  0  0  0  0  0  0  0  0
    1.2276    4.0214    8.8029 O   0  0  0  0  0  0  0  0  0  0  0  0
    0.0077    0.9523    6.6359 C   0  0  1  0  0  0  0  0  0  0  0  0
   -1.0392    0.6372    7.5399 O   0  0  0  0  0  0  0  0  0  0  0  0
   -0.7229    0.8953    5.1931 C   0  0  1  0  0  0  0  0  0  0  0  0
   -1.0332   -0.6098    4.9676 C   0  0  0  0  0  0  0  0  0  0  0  0
    0.3739   -1.1703    4.4822 C   0  0  0  0  0  0  0  0  0  0  0  0
    1.1816    0.0014    3.8063 C   0  0  2  0  0  0  0  0  0  0  0  0
    2.5874    0.3410    4.3638 C   0  0  1  0  0  0  0  0  0  0  0  0
    3.4868   -0.6731    3.9652 O   0  0  0  0  0  0  0  0  0  0  0  0
    3.1737    1.7336    3.9172 C   0  0  2  0  0  0  0  0  0  0  0  0
    3.8990    2.2628    5.0645 O   0  0  0  0  0  0  0  0  0  0  0  0
    0.0395    1.0149    3.8788 C   0  0  2  0  0  0  0  0  0  0  0  0
   -0.6373    0.5760    2.6631 O   0  0  0  0  0  0  0  0  0  0  0  0
   -2.5457    2.3259    5.5086 H   0  0  0  0  0  0  0  0  0  0  0  0
   -2.1049    4.7523    3.5912 H   0  0  0  0  0  0  0  0  0  0  0  0
   -1.8516    4.0827    2.0528 H   0  0  0  0  0  0  0  0  0  0  0  0
   -4.2092    3.2191    3.8013 H   0  0  0  0  0  0  0  0  0  0  0  0
   -3.7938    2.9255    0.8421 H   0  0  0  0  0  0  0  0  0  0  0  0
   -5.3302    2.5379    1.7208 H   0  0  0  0  0  0  0  0  0  0  0  0
   -5.6405    4.8330    2.4463 H   0  0  0  0  0  0  0  0  0  0  0  0
   -4.1792    5.3711    1.4764 H   0  0  0  0  0  0  0  0  0  0  0  0
    1.1648    2.8655    2.0951 H   0  0  0  0  0  0  0  0  0  0  0  0
    0.7842    4.2932    2.9889 H   0  0  0  0  0  0  0  0  0  0  0  0
    3.0475    3.8267    3.5058 H   0  0  0  0  0  0  0  0  0  0  0  0
    3.0348    2.3146    7.2480 H   0  0  0  0  0  0  0  0  0  0  0  0
    1.8525    1.8953    9.0175 H   0  0  0  0  0  0  0  0  0  0  0  0
   -0.4822    3.8507    7.7000 H   0  0  0  0  0  0  0  0  0  0  0  0
   -0.3531    2.7724    9.0429 H   0  0  0  0  0  0  0  0  0  0  0  0
    1.6553    4.5234    8.1144 H   0  0  0  0  0  0  0  0  0  0  0  0
    0.6575    0.0811    6.6629 H   0  0  0  0  0  0  0  0  0  0  0  0
   -1.4021    1.4453    7.8794 H   0  0  0  0  0  0  0  0  0  0  0  0
   -1.3748   -1.1424    5.8514 H   0  0  0  0  0  0  0  0  0  0  0  0
   -1.8132   -0.7725    4.2188 H   0  0  0  0  0  0  0  0  0  0  0  0
    0.9392   -1.6019    5.3080 H   0  0  0  0  0  0  0  0  0  0  0  0
    0.2173   -1.9820    3.7713 H   0  0  0  0  0  0  0  0  0  0  0  0
    1.3809   -0.2752    2.7654 H   0  0  0  0  0  0  0  0  0  0  0  0
    2.5584    0.2540    5.4498 H   0  0  0  0  0  0  0  0  0  0  0  0
    3.5696   -0.6581    3.0205 H   0  0  0  0  0  0  0  0  0  0  0  0
    3.7969    1.6858    3.0282 H   0  0  0  0  0  0  0  0  0  0  0  0
   -0.1153    0.8263    1.9093 H   0  0  0  0  0  0  0  0  0  0  0  0
   -1.7936    1.8327    2.9098 H   0  0  0  0  0  0  0  0  0  0  0  0
  1  2  2  0
  9  2  1  1
  2  3  1  0
  3 20  1  0
  3  4  1  0
  3 30  1  1
  4  5  1  0
  4  9  1  0
  4 57  1  6
  5  6  1  0
  5 31  1  0
  5 32  1  0
  6  8  1  0
  6  7  1  0
  6 33  1  0
  7  8  1  0
  7 34  1  0
  7 35  1  0
  8 36  1  0
  8 37  1  0
  9 28  1  0
  9 10  1  0
 10 11  1  0
 10 38  1  0
 10 39  1  0
 11 26  1  0
 11 12  1  0
 11 40  1  6
 12 27  1  0
 12 13  2  3
 13 14  1  0
 13 41  1  0
 14 15  1  1
 14 16  1  0
 14 18  1  0
 15 42  1  0
 16 17  1  0
 16 43  1  0
 16 44  1  0
 17 45  1  0
 18 19  1  0
 18 20  1  0
 18 46  1  6
 19 47  1  0
 20 28  1  0
 20 21  1  6
 21 22  1  0
 21 48  1  0
 21 49  1  0
 22 23  1  0
 22 50  1  0
 22 51  1  0
 23 24  1  0
 23 28  1  0
 23 52  1  6
 24 25  1  0
 24 26  1  0
 24 53  1  1
 25 54  1  0
 26 27  1  0
 26 55  1  6
 28 29  1  6
 29 56  1  0
M  CHG  1   4   1
M  END
>  <i_m_ct_stereo_status>  (115) 
1

>  <s_m_source_file>  (115) 
/var/tmp/pbs.5076253.sched01/tmp0k8q0ypy/944rjgrua_.sdf

>  <i_m_source_file_index>  (115) 
39

>  <i_lp_mmshare_version>  (115) 
48012

>  <i_f3d_flags>  (115) 
0

>  <s_epik_input>  (115) 
W0NIMl0xW0NIMl1bQ0hdMVtDSDJdTjJbQ0BIXShDMz1PKVtDQEBdNChbQ0BdNShbQ0BAXTIzNilbT0hdKVtDQEhdKFtPSF0pW0NAXShbT0hdKShbQ0gyXVtPSF0pXFtDSF09QzdcW0NASF0oW0NIMl02KVtDQEBIXShPNylbQ0BIXShbT0hdKVtDQEhdNVtDSDJdW0NIMl00

>  <s_epik_cmdline>  (115) 
J2VwaWtfcHl0aG9uJywgJy1waHQnLCAnMi4wJywgJy1waCcsICc3LjAnLCAnLXRuJywgJzgnLCAnLW1hJywgJzIwMCcsICctaW1hZScsICc8aW5maWxlLm1hZT4nLCAnLW9tYWUnLCAnPG91dGZpbGUubWFlPic=

>  <r_epik_Ionization_Penalty>  (115) 
0.0491724

>  <r_epik_Ionization_Penalty_Charging>  (115) 
0.0491625

>  <r_epik_Ionization_Penalty_Neutral>  (115) 
9.94771e-06

>  <r_epik_State_Penalty>  (115) 
0.0419761

>  <r_epik_Charging_Adjusted_Penalty>  (115) 
0.0911386

>  <i_epik_Tot_Q>  (115) 
1

>  <i_epik_Tot_abs_Q>  (115) 
1

>  <s_lp_Force_Field>  (115) 
OPLS3e

>  <r_lp_Energy>  (115) 
213.69

>  <b_lp_Chiralities_Consistent>  (115) 
1

>  <s_lp_Variant>  (115) 
81:0-1

>  <s_i_glide_gridfile>  (115) 
pfpi4k_grid

>  <i_i_glide_lignum>  (115) 
39

>  <i_i_glide_rotatable_bonds>  (115) 
8

>  <r_i_docking_score>  (115) 
-2.30141

>  <r_i_glide_ligand_efficiency>  (115) 
-0.0793589

>  <r_i_glide_ligand_efficiency_sa>  (115) 
-0.243816

>  <r_i_glide_ligand_efficiency_ln>  (115) 
-0.526964

>  <r_i_glide_gscore>  (115) 
-2.30141

>  <r_i_glide_lipo>  (115) 
-0.221755

>  <r_i_glide_hbond>  (115) 
0

>  <r_i_glide_metal>  (115) 
-0

>  <r_i_glide_rewards>  (115) 
-0.637844

>  <r_i_glide_evdw>  (115) 
-18.401

>  <r_i_glide_ecoul>  (115) 
-5.48146

>  <r_i_glide_erotb>  (115) 
0.357063

>  <r_i_glide_esite>  (115) 
-0.0566056

>  <r_i_glide_emodel>  (115) 
-23.8946

>  <r_i_glide_energy>  (115) 
-23.8824

>  <r_i_glide_einternal>  (115) 
6.40353

>  <r_i_glide_intrahb_reward>  (115) 
-0

>  <i_i_glide_confnum>  (115) 
1

>  <i_i_glide_posenum>  (115) 
23

>  <r_i_glide_eff_state_penalty>  (115) 
0

>  <ligand_id>  (115) 
81

>  <original_smiles>  (115) 
O=C1C2N(CC3CC3)C13CC1C4=CC(O)(CO)C(O)C25CCC(C(O)C1O4)C53O

>  <smiles>  (115) 
[H]OC([H])([H])C1(O[H])C([H])=C2OC3([H])C([H])(O[H])C4([H])C([H])([H])C([H])([H])C5(C1([H])O[H])C4(O[H])C1(C(=O)C5([H])[N+]1([H])C([H])([H])C1([H])C([H])([H])C1([H])[H])C([H])([H])C23[H]

$$$$
81:1:0
     RDKit          3D

 56 62  0  0  1  0  0  0  0  0999 V2000
    2.1458   -3.3290   -1.6441 O   0  0  0  0  0  0  0  0  0  0  0  0
    3.3471   -3.2728   -1.3600 C   0  0  0  0  0  0  0  0  0  0  0  0
    4.6975   -3.8184   -1.8598 C   0  0  1  0  0  0  0  0  0  0  0  0
    4.7312   -2.4253   -2.4380 N   0  0  0  0  0  0  0  0  0  0  0  0
    3.9802   -2.1233   -3.6885 C   0  0  0  0  0  0  0  0  0  0  0  0
    3.9039   -0.6394   -4.0302 C   0  0  0  0  0  0  0  0  0  0  0  0
    2.6134   -0.0784   -4.5722 C   0  0  0  0  0  0  0  0  0  0  0  0
    3.7974   -0.1578   -5.4670 C   0  0  0  0  0  0  0  0  0  0  0  0
    4.2464   -2.0774   -1.0597 C   0  0  1  0  0  0  0  0  0  0  0  0
    3.4823   -0.9216   -0.5873 C   0  0  0  0  0  0  0  0  0  0  0  0
    2.9054   -1.0844    0.8544 C   0  0  1  0  0  0  0  0  0  0  0  0
    2.5445   -2.3389    1.6903 C   0  0  0  0  0  0  0  0  0  0  0  0
    2.5539   -3.6803    1.8244 C   0  0  0  0  0  0  0  0  0  0  0  0
    3.1133   -4.9172    1.1223 C   0  0  1  0  0  0  0  0  0  0  0  0
    3.2731   -5.8612    2.1887 O   0  0  0  0  0  0  0  0  0  0  0  0
    2.0162   -5.7114    0.3498 C   0  0  0  0  0  0  0  0  0  0  0  0
    0.8757   -6.1063    1.1174 O   0  0  0  0  0  0  0  0  0  0  0  0
    4.6438   -4.8825    0.6041 C   0  0  1  0  0  0  0  0  0  0  0  0
    4.9576   -6.1872    0.1537 O   0  0  0  0  0  0  0  0  0  0  0  0
    5.4117   -3.9244   -0.4458 C   0  0  1  0  0  0  0  0  0  0  0  0
    6.9147   -4.1147   -0.1170 C   0  0  0  0  0  0  0  0  0  0  0  0
    7.0943   -3.1683    1.1463 C   0  0  0  0  0  0  0  0  0  0  0  0
    6.0217   -2.0135    1.1108 C   0  0  2  0  0  0  0  0  0  0  0  0
    5.0677   -1.8583    2.3133 C   0  0  1  0  0  0  0  0  0  0  0  0
    5.7732   -1.1974    3.3254 O   0  0  0  0  0  0  0  0  0  0  0  0
    3.7898   -0.9833    2.0949 C   0  0  2  0  0  0  0  0  0  0  0  0
    2.7306   -1.6141    2.8695 O   0  0  0  0  0  0  0  0  0  0  0  0
    5.4762   -2.4172   -0.2489 C   0  0  2  0  0  0  0  0  0  0  0  0
    6.5329   -1.7537   -0.9996 O   0  0  0  0  0  0  0  0  0  0  0  0
    4.7279   -4.6311   -2.5871 H   0  0  0  0  0  0  0  0  0  0  0  0
    4.5221   -2.6054   -4.4960 H   0  0  0  0  0  0  0  0  0  0  0  0
    2.9872   -2.5743   -3.7400 H   0  0  0  0  0  0  0  0  0  0  0  0
    4.4765    0.0040   -3.3731 H   0  0  0  0  0  0  0  0  0  0  0  0
    1.8123   -0.7899   -4.7234 H   0  0  0  0  0  0  0  0  0  0  0  0
    2.3071    0.9425   -4.3520 H   0  0  0  0  0  0  0  0  0  0  0  0
    4.1711    0.8233   -5.7564 H   0  0  0  0  0  0  0  0  0  0  0  0
    3.7250   -0.8774   -6.2698 H   0  0  0  0  0  0  0  0  0  0  0  0
    4.1799   -0.0866   -0.5887 H   0  0  0  0  0  0  0  0  0  0  0  0
    2.7055   -0.6820   -1.3148 H   0  0  0  0  0  0  0  0  0  0  0  0
    2.1153   -0.3440    0.9685 H   0  0  0  0  0  0  0  0  0  0  0  0
    2.2785   -3.9432    2.8268 H   0  0  0  0  0  0  0  0  0  0  0  0
    4.0147   -5.6355    2.7345 H   0  0  0  0  0  0  0  0  0  0  0  0
    1.6066   -5.2867   -0.5452 H   0  0  0  0  0  0  0  0  0  0  0  0
    2.5415   -6.6128    0.0888 H   0  0  0  0  0  0  0  0  0  0  0  0
    1.1470   -6.7933    1.7254 H   0  0  0  0  0  0  0  0  0  0  0  0
    5.2090   -4.7907    1.5276 H   0  0  0  0  0  0  0  0  0  0  0  0
    4.5441   -6.3334   -0.6874 H   0  0  0  0  0  0  0  0  0  0  0  0
    7.2059   -5.1331    0.1140 H   0  0  0  0  0  0  0  0  0  0  0  0
    7.5740   -3.8253   -0.9459 H   0  0  0  0  0  0  0  0  0  0  0  0
    7.0141   -3.7325    2.0657 H   0  0  0  0  0  0  0  0  0  0  0  0
    8.0997   -2.7550    1.0895 H   0  0  0  0  0  0  0  0  0  0  0  0
    6.5311   -1.0394    1.0629 H   0  0  0  0  0  0  0  0  0  0  0  0
    4.8262   -2.8633    2.6787 H   0  0  0  0  0  0  0  0  0  0  0  0
    6.4650   -1.7815    3.5794 H   0  0  0  0  0  0  0  0  0  0  0  0
    3.9012    0.0708    2.3528 H   0  0  0  0  0  0  0  0  0  0  0  0
    6.2820   -1.9665   -1.8955 H   0  0  0  0  0  0  0  0  0  0  0  0
  1  2  2  0
  9  2  1  1
  2  3  1  0
  3 20  1  0
  3  4  1  0
  3 30  1  6
  4  5  1  0
  4  9  1  0
  5  6  1  0
  5 31  1  0
  5 32  1  0
  6  8  1  0
  6  7  1  0
  6 33  1  0
  7  8  1  0
  7 34  1  0
  7 35  1  0
  8 36  1  0
  8 37  1  0
  9 28  1  0
  9 10  1  0
 10 11  1  0
 10 38  1  0
 10 39  1  0
 11 26  1  0
 11 12  1  0
 11 40  1  1
 12 27  1  0
 12 13  2  3
 13 14  1  0
 13 41  1  0
 14 15  1  1
 14 16  1  0
 14 18  1  0
 15 42  1  0
 16 17  1  0
 16 43  1  0
 16 44  1  0
 17 45  1  0
 18 19  1  0
 18 20  1  0
 18 46  1  1
 19 47  1  0
 20 28  1  0
 20 21  1  6
 21 22  1  0
 21 48  1  0
 21 49  1  0
 22 23  1  0
 22 50  1  0
 22 51  1  0
 23 24  1  0
 23 28  1  0
 23 52  1  6
 24 25  1  0
 24 26  1  0
 24 53  1  1
 25 54  1  0
 26 27  1  0
 26 55  1  1
 28 29  1  6
 29 56  1  0
M  END
>  <i_m_ct_stereo_status>  (116) 
1

>  <s_m_source_file>  (116) 
/var/tmp/pbs.5076253.sched01/tmp0k8q0ypy/944rjgrua_.sdf

>  <i_m_source_file_index>  (116) 
40

>  <i_lp_mmshare_version>  (116) 
48012

>  <i_f3d_flags>  (116) 
0

>  <s_epik_input>  (116) 
W0NIMl0xW0NIMl1bQ0hdMVtDSDJdTjJbQ0BIXShDMz1PKVtDQEBdNChbQ0BdNShbQ0BAXTIzNilbT0hdKVtDQEhdKFtPSF0pW0NAXShbT0hdKShbQ0gyXVtPSF0pXFtDSF09QzdcW0NASF0oW0NIMl02KVtDQEBIXShPNylbQ0BIXShbT0hdKVtDQEhdNVtDSDJdW0NIMl00

>  <s_epik_cmdline>  (116) 
J2VwaWtfcHl0aG9uJywgJy1waHQnLCAnMi4wJywgJy1waCcsICc3LjAnLCAnLXRuJywgJzgnLCAnLW1hJywgJzIwMCcsICctaW1hZScsICc8aW5maWxlLm1hZT4nLCAnLW9tYWUnLCAnPG91dGZpbGUubWFlPic=

>  <r_epik_Ionization_Penalty>  (116) 
1.49922

>  <r_epik_Ionization_Penalty_Charging>  (116) 
0

>  <r_epik_Ionization_Penalty_Neutral>  (116) 
1.49922

>  <r_epik_State_Penalty>  (116) 
1.58931

>  <r_epik_Charging_Adjusted_Penalty>  (116) 
1.58931

>  <i_epik_Tot_Q>  (116) 
0

>  <i_epik_Tot_abs_Q>  (116) 
0

>  <s_lp_Force_Field>  (116) 
OPLS3e

>  <r_lp_Energy>  (116) 
202.608

>  <b_lp_Chiralities_Consistent>  (116) 
1

>  <s_lp_Variant>  (116) 
81:0-2

>  <s_i_glide_gridfile>  (116) 
pfpi4k_grid

>  <i_i_glide_lignum>  (116) 
40

>  <i_i_glide_rotatable_bonds>  (116) 
8

>  <r_i_docking_score>  (116) 
-3.5451

>  <r_i_glide_ligand_efficiency>  (116) 
-0.122245

>  <r_i_glide_ligand_efficiency_sa>  (116) 
-0.375575

>  <r_i_glide_ligand_efficiency_ln>  (116) 
-0.811739

>  <r_i_glide_gscore>  (116) 
-3.5451

>  <r_i_glide_lipo>  (116) 
-0.949529

>  <r_i_glide_hbond>  (116) 
-0.157058

>  <r_i_glide_metal>  (116) 
-0

>  <r_i_glide_rewards>  (116) 
-0.724291

>  <r_i_glide_evdw>  (116) 
-18.4574

>  <r_i_glide_ecoul>  (116) 
-7.66682

>  <r_i_glide_erotb>  (116) 
0.358664

>  <r_i_glide_esite>  (116) 
0

>  <r_i_glide_emodel>  (116) 
-25.2988

>  <r_i_glide_energy>  (116) 
-26.1242

>  <r_i_glide_einternal>  (116) 
11.1416

>  <r_i_glide_intrahb_reward>  (116) 
-0

>  <i_i_glide_confnum>  (116) 
6

>  <i_i_glide_posenum>  (116) 
22

>  <r_i_glide_eff_state_penalty>  (116) 
0

>  <ligand_id>  (116) 
81

>  <original_smiles>  (116) 
O=C1C2N(CC3CC3)C13CC1C4=CC(O)(CO)C(O)C25CCC(C(O)C1O4)C53O

>  <smiles>  (116) 
[H]OC([H])([H])C1(O[H])C([H])=C2OC3([H])C([H])(O[H])C4([H])C([H])([H])C([H])([H])C5(C6([H])C(=O)C(N6C([H])([H])C6([H])C([H])([H])C6([H])[H])(C([H])([H])C23[H])C45O[H])C1([H])O[H]

$$$$
81:1:1
     RDKit          3D

 56 62  0  0  1  0  0  0  0  0999 V2000
    2.2210   -3.5140   -1.4555 O   0  0  0  0  0  0  0  0  0  0  0  0
    3.4437   -3.4516   -1.2947 C   0  0  0  0  0  0  0  0  0  0  0  0
    4.7404   -4.0923   -1.8110 C   0  0  1  0  0  0  0  0  0  0  0  0
    4.7581   -2.7831   -2.5658 N   0  0  0  0  0  0  0  0  0  0  0  0
    3.9450   -2.6170   -3.8257 C   0  0  0  0  0  0  0  0  0  0  0  0
    4.0574   -1.2297   -4.4848 C   0  0  0  0  0  0  0  0  0  0  0  0
    3.5753    0.0236   -3.8241 C   0  0  0  0  0  0  0  0  0  0  0  0
    2.8144   -0.5072   -4.9745 C   0  0  0  0  0  0  0  0  0  0  0  0
    4.3671   -2.2402   -1.2101 C   0  0  1  0  0  0  0  0  0  0  0  0
    3.5939   -1.0770   -0.7792 C   0  0  0  0  0  0  0  0  0  0  0  0
    3.1579   -1.0125    0.6832 C   0  0  1  0  0  0  0  0  0  0  0  0
    2.8349   -2.1457    1.6810 C   0  0  0  0  0  0  0  0  0  0  0  0
    2.8178   -3.4554    1.9412 C   0  0  0  0  0  0  0  0  0  0  0  0
    3.3407   -4.8011    1.3680 C   0  0  1  0  0  0  0  0  0  0  0  0
    3.5748   -5.5829    2.5438 O   0  0  0  0  0  0  0  0  0  0  0  0
    2.2219   -5.7300    0.7587 C   0  0  0  0  0  0  0  0  0  0  0  0
    1.0892   -5.9113    1.5914 O   0  0  0  0  0  0  0  0  0  0  0  0
    4.8462   -4.8244    0.7833 C   0  0  1  0  0  0  0  0  0  0  0  0
    5.1058   -6.1991    0.5019 O   0  0  0  0  0  0  0  0  0  0  0  0
    5.5628   -4.0065   -0.4414 C   0  0  1  0  0  0  0  0  0  0  0  0
    7.0910   -4.1602   -0.1820 C   0  0  0  0  0  0  0  0  0  0  0  0
    7.3588   -3.0596    0.9222 C   0  0  0  0  0  0  0  0  0  0  0  0
    6.2818   -1.9140    0.8022 C   0  0  2  0  0  0  0  0  0  0  0  0
    5.4176   -1.5690    2.0456 C   0  0  1  0  0  0  0  0  0  0  0  0
    6.1705   -0.7746    2.9357 O   0  0  0  0  0  0  0  0  0  0  0  0
    4.1127   -0.7351    1.8284 C   0  0  2  0  0  0  0  0  0  0  0  0
    3.0963   -1.2567    2.7319 O   0  0  0  0  0  0  0  0  0  0  0  0
    5.6615   -2.4834   -0.4661 C   0  0  2  0  0  0  0  0  0  0  0  0
    6.6497   -1.8768   -1.3673 O   0  0  0  0  0  0  0  0  0  0  0  0
    4.6908   -5.0150   -2.3859 H   0  0  0  0  0  0  0  0  0  0  0  0
    4.3183   -3.3453   -4.5536 H   0  0  0  0  0  0  0  0  0  0  0  0
    2.8957   -2.9027   -3.7123 H   0  0  0  0  0  0  0  0  0  0  0  0
    4.9457   -1.0851   -5.0905 H   0  0  0  0  0  0  0  0  0  0  0  0
    2.9336    0.0018   -2.9275 H   0  0  0  0  0  0  0  0  0  0  0  0
    4.1789    0.9241   -3.9661 H   0  0  0  0  0  0  0  0  0  0  0  0
    2.7987    0.1099   -5.8684 H   0  0  0  0  0  0  0  0  0  0  0  0
    1.8634   -0.9830   -4.7482 H   0  0  0  0  0  0  0  0  0  0  0  0
    4.1809   -0.1890   -1.0157 H   0  0  0  0  0  0  0  0  0  0  0  0
    2.6513   -1.0559   -1.3149 H   0  0  0  0  0  0  0  0  0  0  0  0
    2.3734   -0.2648    0.7235 H   0  0  0  0  0  0  0  0  0  0  0  0
    2.6061   -3.5833    2.9977 H   0  0  0  0  0  0  0  0  0  0  0  0
    3.8921   -6.4316    2.2685 H   0  0  0  0  0  0  0  0  0  0  0  0
    1.7837   -5.3598   -0.1768 H   0  0  0  0  0  0  0  0  0  0  0  0
    2.6225   -6.7171    0.5350 H   0  0  0  0  0  0  0  0  0  0  0  0
    1.3353   -6.4039    2.3477 H   0  0  0  0  0  0  0  0  0  0  0  0
    5.4641   -4.6045    1.6532 H   0  0  0  0  0  0  0  0  0  0  0  0
    4.6725   -6.4336   -0.2951 H   0  0  0  0  0  0  0  0  0  0  0  0
    7.3886   -5.1477    0.1650 H   0  0  0  0  0  0  0  0  0  0  0  0
    7.6997   -3.9626   -1.0636 H   0  0  0  0  0  0  0  0  0  0  0  0
    7.3150   -3.5102    1.9016 H   0  0  0  0  0  0  0  0  0  0  0  0
    8.3577   -2.6531    0.8011 H   0  0  0  0  0  0  0  0  0  0  0  0
    6.7898   -0.9648    0.5887 H   0  0  0  0  0  0  0  0  0  0  0  0
    5.1885   -2.5110    2.5465 H   0  0  0  0  0  0  0  0  0  0  0  0
    6.7242   -0.1904    2.4533 H   0  0  0  0  0  0  0  0  0  0  0  0
    4.2297    0.3510    1.8965 H   0  0  0  0  0  0  0  0  0  0  0  0
    6.5220   -2.3496   -2.1709 H   0  0  0  0  0  0  0  0  0  0  0  0
  1  2  2  0
  9  2  1  1
  2  3  1  0
  3 20  1  0
  3  4  1  0
  3 30  1  6
  4  5  1  0
  4  9  1  0
  5  6  1  0
  5 31  1  0
  5 32  1  0
  6  8  1  0
  6  7  1  0
  6 33  1  0
  7  8  1  0
  7 34  1  0
  7 35  1  0
  8 36  1  0
  8 37  1  0
  9 28  1  0
  9 10  1  0
 10 11  1  0
 10 38  1  0
 10 39  1  0
 11 26  1  0
 11 12  1  0
 11 40  1  6
 12 27  1  0
 12 13  2  3
 13 14  1  0
 13 41  1  0
 14 15  1  1
 14 16  1  0
 14 18  1  0
 15 42  1  0
 16 17  1  0
 16 43  1  0
 16 44  1  0
 17 45  1  0
 18 19  1  0
 18 20  1  0
 18 46  1  1
 19 47  1  0
 20 28  1  0
 20 21  1  6
 21 22  1  0
 21 48  1  0
 21 49  1  0
 22 23  1  0
 22 50  1  0
 22 51  1  0
 23 24  1  0
 23 28  1  0
 23 52  1  6
 24 25  1  0
 24 26  1  0
 24 53  1  1
 25 54  1  0
 26 27  1  0
 26 55  1  1
 28 29  1  6
 29 56  1  0
M  END
>  <i_m_ct_stereo_status>  (117) 
1

>  <s_m_source_file>  (117) 
/var/tmp/pbs.5076253.sched01/tmp0k8q0ypy/944rjgrua_.sdf

>  <i_m_source_file_index>  (117) 
40

>  <i_lp_mmshare_version>  (117) 
48012

>  <i_f3d_flags>  (117) 
0

>  <s_epik_input>  (117) 
W0NIMl0xW0NIMl1bQ0hdMVtDSDJdTjJbQ0BIXShDMz1PKVtDQEBdNChbQ0BdNShbQ0BAXTIzNilbT0hdKVtDQEhdKFtPSF0pW0NAXShbT0hdKShbQ0gyXVtPSF0pXFtDSF09QzdcW0NASF0oW0NIMl02KVtDQEBIXShPNylbQ0BIXShbT0hdKVtDQEhdNVtDSDJdW0NIMl00

>  <s_epik_cmdline>  (117) 
J2VwaWtfcHl0aG9uJywgJy1waHQnLCAnMi4wJywgJy1waCcsICc3LjAnLCAnLXRuJywgJzgnLCAnLW1hJywgJzIwMCcsICctaW1hZScsICc8aW5maWxlLm1hZT4nLCAnLW9tYWUnLCAnPG91dGZpbGUubWFlPic=

>  <r_epik_Ionization_Penalty>  (117) 
1.49922

>  <r_epik_Ionization_Penalty_Charging>  (117) 
0

>  <r_epik_Ionization_Penalty_Neutral>  (117) 
1.49922

>  <r_epik_State_Penalty>  (117) 
1.58931

>  <r_epik_Charging_Adjusted_Penalty>  (117) 
1.58931

>  <i_epik_Tot_Q>  (117) 
0

>  <i_epik_Tot_abs_Q>  (117) 
0

>  <s_lp_Force_Field>  (117) 
OPLS3e

>  <r_lp_Energy>  (117) 
202.608

>  <b_lp_Chiralities_Consistent>  (117) 
1

>  <s_lp_Variant>  (117) 
81:0-2

>  <s_i_glide_gridfile>  (117) 
pfpi4k_grid

>  <i_i_glide_lignum>  (117) 
40

>  <i_i_glide_rotatable_bonds>  (117) 
8

>  <r_i_docking_score>  (117) 
-3.42436

>  <r_i_glide_ligand_efficiency>  (117) 
-0.118081

>  <r_i_glide_ligand_efficiency_sa>  (117) 
-0.362784

>  <r_i_glide_ligand_efficiency_ln>  (117) 
-0.784092

>  <r_i_glide_gscore>  (117) 
-3.42436

>  <r_i_glide_lipo>  (117) 
-0.823886

>  <r_i_glide_hbond>  (117) 
-0.16

>  <r_i_glide_metal>  (117) 
-0

>  <r_i_glide_rewards>  (117) 
-0.710174

>  <r_i_glide_evdw>  (117) 
-19.7201

>  <r_i_glide_ecoul>  (117) 
-9.20412

>  <r_i_glide_erotb>  (117) 
0.358664

>  <r_i_glide_esite>  (117) 
0

>  <r_i_glide_emodel>  (117) 
-25.7396

>  <r_i_glide_energy>  (117) 
-28.9242

>  <r_i_glide_einternal>  (117) 
9.61735

>  <r_i_glide_intrahb_reward>  (117) 
-0

>  <i_i_glide_confnum>  (117) 
3

>  <i_i_glide_posenum>  (117) 
36

>  <r_i_glide_eff_state_penalty>  (117) 
0

>  <ligand_id>  (117) 
81

>  <original_smiles>  (117) 
O=C1C2N(CC3CC3)C13CC1C4=CC(O)(CO)C(O)C25CCC(C(O)C1O4)C53O

>  <smiles>  (117) 
[H]OC([H])([H])C1(O[H])C([H])=C2OC3([H])C([H])(O[H])C4([H])C([H])([H])C([H])([H])C5(C6([H])C(=O)C(N6C([H])([H])C6([H])C([H])([H])C6([H])[H])(C([H])([H])C23[H])C45O[H])C1([H])O[H]

$$$$
81:1:2
     RDKit          3D

 56 62  0  0  1  0  0  0  0  0999 V2000
    2.2019   -3.5486   -1.4207 O   0  0  0  0  0  0  0  0  0  0  0  0
    3.4308   -3.4587   -1.2917 C   0  0  0  0  0  0  0  0  0  0  0  0
    4.7253   -4.1044   -1.7911 C   0  0  1  0  0  0  0  0  0  0  0  0
    4.7321   -2.7889   -2.5571 N   0  0  0  0  0  0  0  0  0  0  0  0
    3.9351   -2.6159   -3.8093 C   0  0  0  0  0  0  0  0  0  0  0  0
    4.0615   -1.2346   -4.4817 C   0  0  0  0  0  0  0  0  0  0  0  0
    3.5754    0.0118   -3.7687 C   0  0  0  0  0  0  0  0  0  0  0  0
    2.8215   -0.5007   -4.9588 C   0  0  0  0  0  0  0  0  0  0  0  0
    4.3458   -2.2541   -1.1979 C   0  0  1  0  0  0  0  0  0  0  0  0
    3.5777   -1.0731   -0.7728 C   0  0  0  0  0  0  0  0  0  0  0  0
    3.1302   -1.0249    0.6996 C   0  0  1  0  0  0  0  0  0  0  0  0
    2.8105   -2.1463    1.6949 C   0  0  0  0  0  0  0  0  0  0  0  0
    2.8054   -3.4741    1.9541 C   0  0  0  0  0  0  0  0  0  0  0  0
    3.3379   -4.8016    1.3691 C   0  0  1  0  0  0  0  0  0  0  0  0
    3.6052   -5.5715    2.5426 O   0  0  0  0  0  0  0  0  0  0  0  0
    2.2236   -5.7269    0.7497 C   0  0  0  0  0  0  0  0  0  0  0  0
    1.0878   -5.8028    1.6211 O   0  0  0  0  0  0  0  0  0  0  0  0
    4.8436   -4.8240    0.7899 C   0  0  1  0  0  0  0  0  0  0  0  0
    5.1411   -6.1768    0.4815 O   0  0  0  0  0  0  0  0  0  0  0  0
    5.5501   -4.0145   -0.4240 C   0  0  1  0  0  0  0  0  0  0  0  0
    7.0832   -4.1464   -0.1624 C   0  0  0  0  0  0  0  0  0  0  0  0
    7.3393   -3.0432    0.9419 C   0  0  0  0  0  0  0  0  0  0  0  0
    6.2534   -1.9111    0.8182 C   0  0  2  0  0  0  0  0  0  0  0  0
    5.3879   -1.5774    2.0563 C   0  0  1  0  0  0  0  0  0  0  0  0
    6.1708   -0.7413    2.8585 O   0  0  0  0  0  0  0  0  0  0  0  0
    4.0845   -0.7432    1.8495 C   0  0  2  0  0  0  0  0  0  0  0  0
    3.0681   -1.2705    2.7565 O   0  0  0  0  0  0  0  0  0  0  0  0
    5.6346   -2.4898   -0.4494 C   0  0  2  0  0  0  0  0  0  0  0  0
    6.6056   -1.8973   -1.3361 O   0  0  0  0  0  0  0  0  0  0  0  0
    4.6947   -5.0409   -2.3586 H   0  0  0  0  0  0  0  0  0  0  0  0
    4.2974   -3.3522   -4.5294 H   0  0  0  0  0  0  0  0  0  0  0  0
    2.8816   -2.8885   -3.6862 H   0  0  0  0  0  0  0  0  0  0  0  0
    4.9469   -1.1031   -5.0835 H   0  0  0  0  0  0  0  0  0  0  0  0
    2.9349    0.0248   -2.9309 H   0  0  0  0  0  0  0  0  0  0  0  0
    4.1923    0.9306   -3.9751 H   0  0  0  0  0  0  0  0  0  0  0  0
    2.8028    0.0957   -5.8714 H   0  0  0  0  0  0  0  0  0  0  0  0
    1.8750   -0.9629   -4.6521 H   0  0  0  0  0  0  0  0  0  0  0  0
    4.1992   -0.2064   -0.9880 H   0  0  0  0  0  0  0  0  0  0  0  0
    2.6672   -1.0375   -1.3490 H   0  0  0  0  0  0  0  0  0  0  0  0
    2.3485   -0.2720    0.7473 H   0  0  0  0  0  0  0  0  0  0  0  0
    2.5963   -3.5858    3.0058 H   0  0  0  0  0  0  0  0  0  0  0  0
    2.7985   -5.9108    2.8864 H   0  0  0  0  0  0  0  0  0  0  0  0
    1.8197   -5.3478   -0.1887 H   0  0  0  0  0  0  0  0  0  0  0  0
    2.6289   -6.7249    0.5592 H   0  0  0  0  0  0  0  0  0  0  0  0
    1.2345   -6.4035    2.3401 H   0  0  0  0  0  0  0  0  0  0  0  0
    5.4552   -4.6021    1.6654 H   0  0  0  0  0  0  0  0  0  0  0  0
    4.7234   -6.4076   -0.3305 H   0  0  0  0  0  0  0  0  0  0  0  0
    7.3856   -5.1299    0.1828 H   0  0  0  0  0  0  0  0  0  0  0  0
    7.6906   -3.9453   -1.0443 H   0  0  0  0  0  0  0  0  0  0  0  0
    7.2955   -3.5023    1.9181 H   0  0  0  0  0  0  0  0  0  0  0  0
    8.3380   -2.6338    0.8225 H   0  0  0  0  0  0  0  0  0  0  0  0
    6.7545   -0.9576    0.5993 H   0  0  0  0  0  0  0  0  0  0  0  0
    5.1804   -2.5162    2.5800 H   0  0  0  0  0  0  0  0  0  0  0  0
    6.9741   -1.2116    2.9907 H   0  0  0  0  0  0  0  0  0  0  0  0
    4.2013    0.3427    1.9197 H   0  0  0  0  0  0  0  0  0  0  0  0
    6.4397   -2.3245   -2.1729 H   0  0  0  0  0  0  0  0  0  0  0  0
  1  2  2  0
  9  2  1  1
  2  3  1  0
  3 20  1  0
  3  4  1  0
  3 30  1  6
  4  5  1  0
  4  9  1  0
  5  6  1  0
  5 31  1  0
  5 32  1  0
  6  8  1  0
  6  7  1  0
  6 33  1  0
  7  8  1  0
  7 34  1  0
  7 35  1  0
  8 36  1  0
  8 37  1  0
  9 28  1  0
  9 10  1  0
 10 11  1  0
 10 38  1  0
 10 39  1  0
 11 26  1  0
 11 12  1  0
 11 40  1  6
 12 27  1  0
 12 13  2  3
 13 14  1  0
 13 41  1  0
 14 15  1  1
 14 16  1  0
 14 18  1  0
 15 42  1  0
 16 17  1  0
 16 43  1  0
 16 44  1  0
 17 45  1  0
 18 19  1  0
 18 20  1  0
 18 46  1  1
 19 47  1  0
 20 28  1  0
 20 21  1  6
 21 22  1  0
 21 48  1  0
 21 49  1  0
 22 23  1  0
 22 50  1  0
 22 51  1  0
 23 24  1  0
 23 28  1  0
 23 52  1  6
 24 25  1  0
 24 26  1  0
 24 53  1  1
 25 54  1  0
 26 27  1  0
 26 55  1  1
 28 29  1  6
 29 56  1  0
M  END
>  <i_m_ct_stereo_status>  (118) 
1

>  <s_m_source_file>  (118) 
/var/tmp/pbs.5076253.sched01/tmp0k8q0ypy/944rjgrua_.sdf

>  <i_m_source_file_index>  (118) 
40

>  <i_lp_mmshare_version>  (118) 
48012

>  <i_f3d_flags>  (118) 
0

>  <s_epik_input>  (118) 
W0NIMl0xW0NIMl1bQ0hdMVtDSDJdTjJbQ0BIXShDMz1PKVtDQEBdNChbQ0BdNShbQ0BAXTIzNilbT0hdKVtDQEhdKFtPSF0pW0NAXShbT0hdKShbQ0gyXVtPSF0pXFtDSF09QzdcW0NASF0oW0NIMl02KVtDQEBIXShPNylbQ0BIXShbT0hdKVtDQEhdNVtDSDJdW0NIMl00

>  <s_epik_cmdline>  (118) 
J2VwaWtfcHl0aG9uJywgJy1waHQnLCAnMi4wJywgJy1waCcsICc3LjAnLCAnLXRuJywgJzgnLCAnLW1hJywgJzIwMCcsICctaW1hZScsICc8aW5maWxlLm1hZT4nLCAnLW9tYWUnLCAnPG91dGZpbGUubWFlPic=

>  <r_epik_Ionization_Penalty>  (118) 
1.49922

>  <r_epik_Ionization_Penalty_Charging>  (118) 
0

>  <r_epik_Ionization_Penalty_Neutral>  (118) 
1.49922

>  <r_epik_State_Penalty>  (118) 
1.58931

>  <r_epik_Charging_Adjusted_Penalty>  (118) 
1.58931

>  <i_epik_Tot_Q>  (118) 
0

>  <i_epik_Tot_abs_Q>  (118) 
0

>  <s_lp_Force_Field>  (118) 
OPLS3e

>  <r_lp_Energy>  (118) 
202.608

>  <b_lp_Chiralities_Consistent>  (118) 
1

>  <s_lp_Variant>  (118) 
81:0-2

>  <s_i_glide_gridfile>  (118) 
pfpi4k_grid

>  <i_i_glide_lignum>  (118) 
40

>  <i_i_glide_rotatable_bonds>  (118) 
8

>  <r_i_docking_score>  (118) 
-3.27051

>  <r_i_glide_ligand_efficiency>  (118) 
-0.112776

>  <r_i_glide_ligand_efficiency_sa>  (118) 
-0.346484

>  <r_i_glide_ligand_efficiency_ln>  (118) 
-0.748863

>  <r_i_glide_gscore>  (118) 
-3.27051

>  <r_i_glide_lipo>  (118) 
-0.835084

>  <r_i_glide_hbond>  (118) 
-0.16

>  <r_i_glide_metal>  (118) 
-0

>  <r_i_glide_rewards>  (118) 
-0.710741

>  <r_i_glide_evdw>  (118) 
-19.9657

>  <r_i_glide_ecoul>  (118) 
-6.96131

>  <r_i_glide_erotb>  (118) 
0.358664

>  <r_i_glide_esite>  (118) 
0

>  <r_i_glide_emodel>  (118) 
-23.7876

>  <r_i_glide_energy>  (118) 
-26.927

>  <r_i_glide_einternal>  (118) 
9.65835

>  <r_i_glide_intrahb_reward>  (118) 
-0

>  <i_i_glide_confnum>  (118) 
1

>  <i_i_glide_posenum>  (118) 
34

>  <r_i_glide_eff_state_penalty>  (118) 
0

>  <ligand_id>  (118) 
81

>  <original_smiles>  (118) 
O=C1C2N(CC3CC3)C13CC1C4=CC(O)(CO)C(O)C25CCC(C(O)C1O4)C53O

>  <smiles>  (118) 
[H]OC([H])([H])C1(O[H])C([H])=C2OC3([H])C([H])(O[H])C4([H])C([H])([H])C([H])([H])C5(C6([H])C(=O)C(N6C([H])([H])C6([H])C([H])([H])C6([H])[H])(C([H])([H])C23[H])C45O[H])C1([H])O[H]

$$$$
82:0:0
     RDKit          3D

 55 58  0  0  1  0  0  0  0  0999 V2000
    4.7187   -2.1813   -3.1394 C   0  0  0  0  0  0  0  0  0  0  0  0
    5.4217   -2.8218   -2.0723 O   0  0  0  0  0  0  0  0  0  0  0  0
    4.6492   -3.1674   -0.9518 C   0  0  2  0  0  0  0  0  0  0  0  0
    3.4019   -3.6335   -1.3528 O   0  0  0  0  0  0  0  0  0  0  0  0
    2.3893   -3.9400   -0.4240 C   0  0  1  0  0  0  0  0  0  0  0  0
    1.2555   -4.5509   -1.2448 C   0  0  0  0  0  0  0  0  0  0  0  0
    0.9984   -5.8239   -0.6904 O   0  0  0  0  0  0  0  0  0  0  0  0
    1.5104   -5.9583    0.6126 C   0  0  0  0  0  0  0  0  0  0  0  0
    2.7459   -5.0512    0.5589 C   0  0  1  0  0  0  0  0  0  0  0  0
    3.7423   -5.9104    0.0707 O   0  0  0  0  0  0  0  0  0  0  0  0
    3.1407   -4.5871    1.9523 C   0  0  2  0  0  0  0  0  0  0  0  0
    2.0088   -4.0629    2.6508 O   0  0  0  0  0  0  0  0  0  0  0  0
    1.6803   -4.3580    3.9393 C   0  0  0  0  0  0  0  0  0  0  0  0
    2.6476   -5.2587    4.7197 C   0  0  0  0  0  0  0  0  0  0  0  0
    0.6738   -3.8987    4.4783 O   0  0  0  0  0  0  0  0  0  0  0  0
    4.3907   -3.6956    2.1141 C   0  0  1  0  0  0  0  0  0  0  0  0
    5.5567   -4.4517    1.7867 O   0  0  0  0  0  0  0  0  0  0  0  0
    6.0760   -5.3413    2.6467 C   0  0  0  0  0  0  0  0  0  0  0  0
    7.3318   -5.9975    2.1046 C   0  0  0  0  0  0  0  0  0  0  0  0
    5.6337   -5.6219    3.7570 O   0  0  0  0  0  0  0  0  0  0  0  0
    4.4011   -2.2353    1.5811 C   0  0  1  0  0  0  0  0  0  0  0  0
    3.2256   -1.4181    2.2198 C   0  0  0  0  0  0  0  0  0  0  0  0
    5.7618   -1.6278    2.0792 C   0  0  1  0  0  0  0  0  0  0  0  0
    6.6399   -1.8082    0.8897 C   0  0  0  0  0  0  0  0  0  0  0  0
    5.8300   -1.1796    0.0417 C   0  0  0  0  0  0  0  0  0  0  0  0
    5.5765    0.1232    0.7526 C   0  0  0  0  0  0  0  0  0  0  0  0
    5.5817   -0.2256    2.1238 O   0  0  0  0  0  0  0  0  0  0  0  0
    4.5287   -1.9467    0.0118 C   0  0  1  0  0  0  0  0  0  0  0  0
    3.5010   -1.0872   -0.4615 O   0  0  0  0  0  0  0  0  0  0  0  0
    5.3815   -1.9682   -3.9513 H   0  0  0  0  0  0  0  0  0  0  0  0
    4.2744   -1.2358   -2.8205 H   0  0  0  0  0  0  0  0  0  0  0  0
    3.9590   -2.8311   -3.5810 H   0  0  0  0  0  0  0  0  0  0  0  0
    5.2444   -3.9686   -0.5213 H   0  0  0  0  0  0  0  0  0  0  0  0
    2.0079   -3.0502    0.0791 H   0  0  0  0  0  0  0  0  0  0  0  0
    0.3876   -3.9081   -1.2434 H   0  0  0  0  0  0  0  0  0  0  0  0
    1.4087   -4.5575   -2.3182 H   0  0  0  0  0  0  0  0  0  0  0  0
    0.7399   -5.5888    1.2871 H   0  0  0  0  0  0  0  0  0  0  0  0
    1.7072   -7.0062    0.8590 H   0  0  0  0  0  0  0  0  0  0  0  0
    3.5423   -6.0446   -0.8694 H   0  0  0  0  0  0  0  0  0  0  0  0
    3.3883   -5.5416    2.3910 H   0  0  0  0  0  0  0  0  0  0  0  0
    2.7498   -6.2468    4.2499 H   0  0  0  0  0  0  0  0  0  0  0  0
    2.3440   -5.3860    5.7573 H   0  0  0  0  0  0  0  0  0  0  0  0
    3.6212   -4.7716    4.7606 H   0  0  0  0  0  0  0  0  0  0  0  0
    4.4283   -3.5131    3.1841 H   0  0  0  0  0  0  0  0  0  0  0  0
    7.1275   -6.4696    1.1424 H   0  0  0  0  0  0  0  0  0  0  0  0
    7.6740   -6.7616    2.8001 H   0  0  0  0  0  0  0  0  0  0  0  0
    8.1227   -5.2548    1.9929 H   0  0  0  0  0  0  0  0  0  0  0  0
    3.2507   -0.3437    2.0232 H   0  0  0  0  0  0  0  0  0  0  0  0
    3.2021   -1.5231    3.3023 H   0  0  0  0  0  0  0  0  0  0  0  0
    2.2566   -1.7139    1.8288 H   0  0  0  0  0  0  0  0  0  0  0  0
    6.1672   -2.0206    3.0149 H   0  0  0  0  0  0  0  0  0  0  0  0
    6.9181   -2.8352    0.7169 H   0  0  0  0  0  0  0  0  0  0  0  0
    6.4506    0.7015    0.4850 H   0  0  0  0  0  0  0  0  0  0  0  0
    4.6628    0.6738    0.5325 H   0  0  0  0  0  0  0  0  0  0  0  0
    2.6410   -1.4663   -0.4192 H   0  0  0  0  0  0  0  0  0  0  0  0
  1  2  1  0
  1 30  1  0
  1 31  1  0
  1 32  1  0
  2  3  1  0
  3 28  1  0
  3  4  1  0
  3 33  1  1
  4  5  1  0
  5  9  1  0
  5  6  1  0
  5 34  1  1
  6  7  1  0
  6 35  1  0
  6 36  1  0
  7  8  1  0
  8  9  1  0
  8 37  1  0
  8 38  1  0
  9 10  1  6
  9 11  1  0
 10 39  1  0
 11 12  1  0
 11 16  1  0
 11 40  1  1
 12 13  1  0
 13 14  1  0
 13 15  2  0
 14 41  1  0
 14 42  1  0
 14 43  1  0
 16 17  1  0
 16 21  1  0
 16 44  1  1
 17 18  1  0
 18 19  1  0
 18 20  2  0
 19 45  1  0
 19 46  1  0
 19 47  1  0
 21 28  1  0
 21 22  1  1
 21 23  1  0
 22 48  1  0
 22 49  1  0
 22 50  1  0
 23 27  1  0
 23 24  1  0
 23 51  1  1
 24 25  2  0
 24 52  1  0
 25 26  1  0
 25 28  1  0
 26 27  1  0
 26 53  1  0
 26 54  1  0
 28 29  1  6
 29 55  1  0
M  END
>  <i_m_ct_stereo_status>  (119) 
1

>  <s_m_source_file>  (119) 
/var/tmp/pbs.5076253.sched01/tmp0k8q0ypy/944rjgrua_.sdf

>  <i_m_source_file_index>  (119) 
41

>  <i_lp_mmshare_version>  (119) 
48012

>  <i_f3d_flags>  (119) 
1

>  <s_epik_input>  (119) 
W0NIMl0xT1tDSDJdW0NAQEhdKFtDQF0xMltPSF0pT1tDQEBIXShPW0NIM10pW0NAQF0zKFtPSF0pW0NAXShbQ0gzXSkoW0NASF00W0NIXT1DM1tDSDJdTzQpW0NASF0oT0MoPU8pW0NIM10pW0NIXTJPQyg9TylbQ0gzXQ==

>  <s_epik_cmdline>  (119) 
J2VwaWtfcHl0aG9uJywgJy1waHQnLCAnMi4wJywgJy1waCcsICc3LjAnLCAnLXRuJywgJzgnLCAnLW1hJywgJzIwMCcsICctaW1hZScsICc8aW5maWxlLm1hZT4nLCAnLW9tYWUnLCAnPG91dGZpbGUubWFlPic=

>  <r_lp_tautomer_probability>  (119) 
1

>  <r_epik_Ionization_Penalty>  (119) 
4.49422e-05

>  <r_epik_Ionization_Penalty_Charging>  (119) 
0

>  <r_epik_Ionization_Penalty_Neutral>  (119) 
4.49422e-05

>  <r_epik_State_Penalty>  (119) 
-0

>  <r_epik_Charging_Adjusted_Penalty>  (119) 
0

>  <i_epik_Tot_Q>  (119) 
0

>  <i_epik_Tot_abs_Q>  (119) 
0

>  <s_epik_Chemistry_Notes>  (119) 
This compound has an ester and may undergo hydrolysis at high or low pH. This compound contains an acetal/aminal-like group ( X-CH(R)-Y where X, Y are N, S, or O) that may be acid/base labile, releasing an aldehyde.

>  <s_lp_Force_Field>  (119) 
OPLS3e

>  <r_lp_Energy>  (119) 
78.8203

>  <b_lp_Chiralities_Consistent>  (119) 
1

>  <s_lp_Variant>  (119) 
82:0-1

>  <s_i_glide_gridfile>  (119) 
pfpi4k_grid

>  <i_i_glide_lignum>  (119) 
41

>  <i_i_glide_rotatable_bonds>  (119) 
7

>  <r_i_docking_score>  (119) 
-3.30739

>  <r_i_glide_ligand_efficiency>  (119) 
-0.114048

>  <r_i_glide_ligand_efficiency_sa>  (119) 
-0.350391

>  <r_i_glide_ligand_efficiency_ln>  (119) 
-0.757309

>  <r_i_glide_gscore>  (119) 
-3.30739

>  <r_i_glide_lipo>  (119) 
-0.357933

>  <r_i_glide_hbond>  (119) 
-0.679499

>  <r_i_glide_metal>  (119) 
-0

>  <r_i_glide_rewards>  (119) 
-0.646946

>  <r_i_glide_evdw>  (119) 
-13.6503

>  <r_i_glide_ecoul>  (119) 
-7.78672

>  <r_i_glide_erotb>  (119) 
0.229863

>  <r_i_glide_esite>  (119) 
-0.00234936

>  <r_i_glide_emodel>  (119) 
-22.3184

>  <r_i_glide_energy>  (119) 
-21.4371

>  <r_i_glide_einternal>  (119) 
9.41518

>  <r_i_glide_intrahb_reward>  (119) 
-0

>  <i_i_glide_confnum>  (119) 
1

>  <i_i_glide_posenum>  (119) 
5

>  <r_i_glide_eff_state_penalty>  (119) 
0

>  <ligand_id>  (119) 
82

>  <original_smiles>  (119) 
COC1OC2COCC2(O)C(OC(C)=O)C(OC(C)=O)C2(C)C3C=C(CO3)C12O

>  <smiles>  (119) 
[H]OC12C3=C([H])C([H])(OC3([H])[H])C1(C([H])([H])[H])C([H])(OC(=O)C([H])([H])[H])C([H])(OC(=O)C([H])([H])[H])C1(O[H])C([H])([H])OC([H])([H])C1([H])OC2([H])OC([H])([H])[H]

$$$$
82:0:1
     RDKit          3D

 55 58  0  0  1  0  0  0  0  0999 V2000
    0.8982   -6.4130    0.6912 C   0  0  0  0  0  0  0  0  0  0  0  0
    1.4481   -5.4332    1.5628 O   0  0  0  0  0  0  0  0  0  0  0  0
    2.5870   -4.7468    1.1064 C   0  0  2  0  0  0  0  0  0  0  0  0
    2.4273   -4.3678   -0.2346 O   0  0  0  0  0  0  0  0  0  0  0  0
    3.4650   -3.7499   -0.9991 C   0  0  1  0  0  0  0  0  0  0  0  0
    2.9237   -3.4430   -2.4031 C   0  0  0  0  0  0  0  0  0  0  0  0
    3.0133   -2.0338   -2.5654 O   0  0  0  0  0  0  0  0  0  0  0  0
    4.0864   -1.5723   -1.7602 C   0  0  0  0  0  0  0  0  0  0  0  0
    3.9792   -2.4106   -0.4793 C   0  0  1  0  0  0  0  0  0  0  0  0
    3.0158   -1.7016    0.2931 O   0  0  0  0  0  0  0  0  0  0  0  0
    5.2936   -2.4743    0.3365 C   0  0  2  0  0  0  0  0  0  0  0  0
    6.3897   -2.8768   -0.4785 O   0  0  0  0  0  0  0  0  0  0  0  0
    7.6335   -2.4317   -0.2298 C   0  0  0  0  0  0  0  0  0  0  0  0
    8.6831   -3.2948   -0.9109 C   0  0  0  0  0  0  0  0  0  0  0  0
    7.9323   -1.4649    0.4723 O   0  0  0  0  0  0  0  0  0  0  0  0
    5.3162   -3.2932    1.6760 C   0  0  1  0  0  0  0  0  0  0  0  0
    4.4845   -2.6881    2.6663 O   0  0  0  0  0  0  0  0  0  0  0  0
    4.8002   -1.5104    3.2406 C   0  0  0  0  0  0  0  0  0  0  0  0
    3.8025   -1.1172    4.3194 C   0  0  0  0  0  0  0  0  0  0  0  0
    5.7621   -0.7956    2.9599 O   0  0  0  0  0  0  0  0  0  0  0  0
    5.2294   -4.8784    1.6800 C   0  0  1  0  0  0  0  0  0  0  0  0
    6.3860   -5.4536    0.8020 C   0  0  0  0  0  0  0  0  0  0  0  0
    5.4719   -5.3781    3.1559 C   0  0  1  0  0  0  0  0  0  0  0  0
    4.0683   -5.5516    3.6437 C   0  0  0  0  0  0  0  0  0  0  0  0
    3.7054   -6.3919    2.6993 C   0  0  0  0  0  0  0  0  0  0  0  0
    4.7542   -7.4799    2.7992 C   0  0  0  0  0  0  0  0  0  0  0  0
    5.9250   -6.7345    3.1353 O   0  0  0  0  0  0  0  0  0  0  0  0
    3.8557   -5.6348    1.3716 C   0  0  1  0  0  0  0  0  0  0  0  0
    3.9779   -6.5612    0.3033 O   0  0  0  0  0  0  0  0  0  0  0  0
   -0.0134   -6.8276    1.1345 H   0  0  0  0  0  0  0  0  0  0  0  0
    1.6032   -7.2176    0.4915 H   0  0  0  0  0  0  0  0  0  0  0  0
    0.6185   -5.9846   -0.2694 H   0  0  0  0  0  0  0  0  0  0  0  0
    2.5965   -3.8510    1.7174 H   0  0  0  0  0  0  0  0  0  0  0  0
    4.2890   -4.4434   -1.1359 H   0  0  0  0  0  0  0  0  0  0  0  0
    3.5437   -3.8946   -3.1778 H   0  0  0  0  0  0  0  0  0  0  0  0
    1.8945   -3.7765   -2.5451 H   0  0  0  0  0  0  0  0  0  0  0  0
    5.0086   -1.7760   -2.3000 H   0  0  0  0  0  0  0  0  0  0  0  0
    4.0244   -0.4919   -1.5941 H   0  0  0  0  0  0  0  0  0  0  0  0
    2.2865   -1.4705   -0.2672 H   0  0  0  0  0  0  0  0  0  0  0  0
    5.4948   -1.4299    0.5839 H   0  0  0  0  0  0  0  0  0  0  0  0
    8.5738   -4.3320   -0.5982 H   0  0  0  0  0  0  0  0  0  0  0  0
    9.6763   -2.9621   -0.6171 H   0  0  0  0  0  0  0  0  0  0  0  0
    8.5870   -3.2482   -1.9970 H   0  0  0  0  0  0  0  0  0  0  0  0
    6.3244   -3.1258    2.0562 H   0  0  0  0  0  0  0  0  0  0  0  0
    2.7945   -1.0868    3.9074 H   0  0  0  0  0  0  0  0  0  0  0  0
    4.0417   -0.1330    4.7188 H   0  0  0  0  0  0  0  0  0  0  0  0
    3.8253   -1.8374    5.1366 H   0  0  0  0  0  0  0  0  0  0  0  0
    6.4853   -6.5382    0.8576 H   0  0  0  0  0  0  0  0  0  0  0  0
    7.3473   -5.0428    1.0989 H   0  0  0  0  0  0  0  0  0  0  0  0
    6.2242   -5.2632   -0.2565 H   0  0  0  0  0  0  0  0  0  0  0  0
    6.0916   -4.7294    3.7734 H   0  0  0  0  0  0  0  0  0  0  0  0
    3.5626   -4.6086    3.7800 H   0  0  0  0  0  0  0  0  0  0  0  0
    4.4859   -8.1508    3.6122 H   0  0  0  0  0  0  0  0  0  0  0  0
    4.8879   -8.0822    1.8992 H   0  0  0  0  0  0  0  0  0  0  0  0
    3.7878   -6.1045   -0.5095 H   0  0  0  0  0  0  0  0  0  0  0  0
  1  2  1  0
  1 30  1  0
  1 31  1  0
  1 32  1  0
  2  3  1  0
  3 28  1  0
  3  4  1  0
  3 33  1  1
  4  5  1  0
  5  9  1  0
  5  6  1  0
  5 34  1  6
  6  7  1  0
  6 35  1  0
  6 36  1  0
  7  8  1  0
  8  9  1  0
  8 37  1  0
  8 38  1  0
  9 10  1  1
  9 11  1  0
 10 39  1  0
 11 12  1  0
 11 16  1  0
 11 40  1  1
 12 13  1  0
 13 14  1  0
 13 15  2  0
 14 41  1  0
 14 42  1  0
 14 43  1  0
 16 17  1  0
 16 21  1  0
 16 44  1  1
 17 18  1  0
 18 19  1  0
 18 20  2  0
 19 45  1  0
 19 46  1  0
 19 47  1  0
 21 28  1  0
 21 22  1  6
 21 23  1  0
 22 48  1  0
 22 49  1  0
 22 50  1  0
 23 27  1  0
 23 24  1  0
 23 51  1  1
 24 25  2  0
 24 52  1  0
 25 26  1  0
 25 28  1  0
 26 27  1  0
 26 53  1  0
 26 54  1  0
 28 29  1  6
 29 55  1  0
M  END
>  <i_m_ct_stereo_status>  (120) 
1

>  <s_m_source_file>  (120) 
/var/tmp/pbs.5076253.sched01/tmp0k8q0ypy/944rjgrua_.sdf

>  <i_m_source_file_index>  (120) 
41

>  <i_lp_mmshare_version>  (120) 
48012

>  <i_f3d_flags>  (120) 
1

>  <s_epik_input>  (120) 
W0NIMl0xT1tDSDJdW0NAQEhdKFtDQF0xMltPSF0pT1tDQEBIXShPW0NIM10pW0NAQF0zKFtPSF0pW0NAXShbQ0gzXSkoW0NASF00W0NIXT1DM1tDSDJdTzQpW0NASF0oT0MoPU8pW0NIM10pW0NIXTJPQyg9TylbQ0gzXQ==

>  <s_epik_cmdline>  (120) 
J2VwaWtfcHl0aG9uJywgJy1waHQnLCAnMi4wJywgJy1waCcsICc3LjAnLCAnLXRuJywgJzgnLCAnLW1hJywgJzIwMCcsICctaW1hZScsICc8aW5maWxlLm1hZT4nLCAnLW9tYWUnLCAnPG91dGZpbGUubWFlPic=

>  <r_lp_tautomer_probability>  (120) 
1

>  <r_epik_Ionization_Penalty>  (120) 
4.49422e-05

>  <r_epik_Ionization_Penalty_Charging>  (120) 
0

>  <r_epik_Ionization_Penalty_Neutral>  (120) 
4.49422e-05

>  <r_epik_State_Penalty>  (120) 
-0

>  <r_epik_Charging_Adjusted_Penalty>  (120) 
0

>  <i_epik_Tot_Q>  (120) 
0

>  <i_epik_Tot_abs_Q>  (120) 
0

>  <s_epik_Chemistry_Notes>  (120) 
This compound has an ester and may undergo hydrolysis at high or low pH. This compound contains an acetal/aminal-like group ( X-CH(R)-Y where X, Y are N, S, or O) that may be acid/base labile, releasing an aldehyde.

>  <s_lp_Force_Field>  (120) 
OPLS3e

>  <r_lp_Energy>  (120) 
78.8203

>  <b_lp_Chiralities_Consistent>  (120) 
1

>  <s_lp_Variant>  (120) 
82:0-1

>  <s_i_glide_gridfile>  (120) 
pfpi4k_grid

>  <i_i_glide_lignum>  (120) 
41

>  <i_i_glide_rotatable_bonds>  (120) 
7

>  <r_i_docking_score>  (120) 
-2.98875

>  <r_i_glide_ligand_efficiency>  (120) 
-0.10306

>  <r_i_glide_ligand_efficiency_sa>  (120) 
-0.316634

>  <r_i_glide_ligand_efficiency_ln>  (120) 
-0.684347

>  <r_i_glide_gscore>  (120) 
-2.98875

>  <r_i_glide_lipo>  (120) 
-0.250087

>  <r_i_glide_hbond>  (120) 
-0.122545

>  <r_i_glide_metal>  (120) 
-0

>  <r_i_glide_rewards>  (120) 
-0.667625

>  <r_i_glide_evdw>  (120) 
-23.6478

>  <r_i_glide_ecoul>  (120) 
-6.42492

>  <r_i_glide_erotb>  (120) 
0.229863

>  <r_i_glide_esite>  (120) 
-0.0322251

>  <r_i_glide_emodel>  (120) 
-31.4076

>  <r_i_glide_energy>  (120) 
-30.0727

>  <r_i_glide_einternal>  (120) 
7.28028

>  <r_i_glide_intrahb_reward>  (120) 
-0

>  <i_i_glide_confnum>  (120) 
1

>  <i_i_glide_posenum>  (120) 
37

>  <r_i_glide_eff_state_penalty>  (120) 
0

>  <ligand_id>  (120) 
82

>  <original_smiles>  (120) 
COC1OC2COCC2(O)C(OC(C)=O)C(OC(C)=O)C2(C)C3C=C(CO3)C12O

>  <smiles>  (120) 
[H]OC12C3=C([H])C([H])(OC3([H])[H])C1(C([H])([H])[H])C([H])(OC(=O)C([H])([H])[H])C([H])(OC(=O)C([H])([H])[H])C1(O[H])C([H])([H])OC([H])([H])C1([H])OC2([H])OC([H])([H])[H]

$$$$
82:0:2
     RDKit          3D

 55 58  0  0  1  0  0  0  0  0999 V2000
    4.9421   -2.9520   -2.9980 C   0  0  0  0  0  0  0  0  0  0  0  0
    5.5315   -3.3608   -1.7738 O   0  0  0  0  0  0  0  0  0  0  0  0
    4.6391   -3.4791   -0.7074 C   0  0  2  0  0  0  0  0  0  0  0  0
    3.3844   -3.8908   -1.1464 O   0  0  0  0  0  0  0  0  0  0  0  0
    2.3050   -4.1052   -0.2499 C   0  0  1  0  0  0  0  0  0  0  0  0
    1.1490   -4.6882   -1.0880 C   0  0  0  0  0  0  0  0  0  0  0  0
    0.7748   -5.8975   -0.4249 O   0  0  0  0  0  0  0  0  0  0  0  0
    1.2749   -5.9729    0.8886 C   0  0  0  0  0  0  0  0  0  0  0  0
    2.5655   -5.1336    0.8543 C   0  0  1  0  0  0  0  0  0  0  0  0
    3.5417   -6.1194    0.5493 O   0  0  0  0  0  0  0  0  0  0  0  0
    2.8916   -4.5241    2.2543 C   0  0  2  0  0  0  0  0  0  0  0  0
    1.7619   -3.8451    2.8087 O   0  0  0  0  0  0  0  0  0  0  0  0
    1.4326   -3.8020    4.1240 C   0  0  0  0  0  0  0  0  0  0  0  0
    2.3890   -4.4368    5.1242 C   0  0  0  0  0  0  0  0  0  0  0  0
    0.4008   -3.2308    4.5194 O   0  0  0  0  0  0  0  0  0  0  0  0
    4.1574   -3.6484    2.3956 C   0  0  1  0  0  0  0  0  0  0  0  0
    5.2911   -4.5031    2.2216 O   0  0  0  0  0  0  0  0  0  0  0  0
    5.7564   -5.2074    3.2681 C   0  0  0  0  0  0  0  0  0  0  0  0
    6.9871   -6.0335    2.9234 C   0  0  0  0  0  0  0  0  0  0  0  0
    5.2839   -5.1937    4.3878 O   0  0  0  0  0  0  0  0  0  0  0  0
    4.2623   -2.2548    1.6508 C   0  0  1  0  0  0  0  0  0  0  0  0
    3.0731   -1.3434    2.0940 C   0  0  0  0  0  0  0  0  0  0  0  0
    5.5907   -1.6244    2.1916 C   0  0  1  0  0  0  0  0  0  0  0  0
    6.5591   -1.9968    1.1174 C   0  0  0  0  0  0  0  0  0  0  0  0
    5.8806   -1.4315    0.1327 C   0  0  0  0  0  0  0  0  0  0  0  0
    5.6567   -0.0284    0.6471 C   0  0  0  0  0  0  0  0  0  0  0  0
    5.4977   -0.2128    2.0519 O   0  0  0  0  0  0  0  0  0  0  0  0
    4.5368   -2.1317    0.0670 C   0  0  1  0  0  0  0  0  0  0  0  0
    3.6105   -1.2817   -0.6061 O   0  0  0  0  0  0  0  0  0  0  0  0
    5.7402   -2.8514   -3.7221 H   0  0  0  0  0  0  0  0  0  0  0  0
    4.4294   -1.9957   -2.8912 H   0  0  0  0  0  0  0  0  0  0  0  0
    4.2424   -3.6948   -3.3907 H   0  0  0  0  0  0  0  0  0  0  0  0
    5.1361   -4.2547   -0.1288 H   0  0  0  0  0  0  0  0  0  0  0  0
    1.9485   -3.1594    0.1475 H   0  0  0  0  0  0  0  0  0  0  0  0
    0.3110   -4.0224   -1.1123 H   0  0  0  0  0  0  0  0  0  0  0  0
    1.3950   -4.7982   -2.1318 H   0  0  0  0  0  0  0  0  0  0  0  0
    0.5368   -5.5520    1.5774 H   0  0  0  0  0  0  0  0  0  0  0  0
    1.4178   -7.0061    1.2219 H   0  0  0  0  0  0  0  0  0  0  0  0
    3.5552   -6.7575    1.2462 H   0  0  0  0  0  0  0  0  0  0  0  0
    3.0391   -5.3964    2.8754 H   0  0  0  0  0  0  0  0  0  0  0  0
    2.5194   -5.5061    4.9219 H   0  0  0  0  0  0  0  0  0  0  0  0
    1.9750   -4.3874    6.1384 H   0  0  0  0  0  0  0  0  0  0  0  0
    3.3383   -3.9206    5.0554 H   0  0  0  0  0  0  0  0  0  0  0  0
    4.1340   -3.3536    3.4329 H   0  0  0  0  0  0  0  0  0  0  0  0
    6.7541   -6.6944    2.0928 H   0  0  0  0  0  0  0  0  0  0  0  0
    7.2891   -6.6299    3.7836 H   0  0  0  0  0  0  0  0  0  0  0  0
    7.8051   -5.3717    2.6471 H   0  0  0  0  0  0  0  0  0  0  0  0
    3.1548   -0.3027    1.7906 H   0  0  0  0  0  0  0  0  0  0  0  0
    2.9799   -1.3343    3.1771 H   0  0  0  0  0  0  0  0  0  0  0  0
    2.1194   -1.6582    1.6805 H   0  0  0  0  0  0  0  0  0  0  0  0
    5.8743   -1.9357    3.1977 H   0  0  0  0  0  0  0  0  0  0  0  0
    6.7965   -3.0477    1.0993 H   0  0  0  0  0  0  0  0  0  0  0  0
    6.5813    0.4892    0.4114 H   0  0  0  0  0  0  0  0  0  0  0  0
    4.8067    0.5219    0.2329 H   0  0  0  0  0  0  0  0  0  0  0  0
    2.7216   -1.5871   -0.5079 H   0  0  0  0  0  0  0  0  0  0  0  0
  1  2  1  0
  1 30  1  0
  1 31  1  0
  1 32  1  0
  2  3  1  0
  3 28  1  0
  3  4  1  0
  3 33  1  1
  4  5  1  0
  5  9  1  0
  5  6  1  0
  5 34  1  1
  6  7  1  0
  6 35  1  0
  6 36  1  0
  7  8  1  0
  8  9  1  0
  8 37  1  0
  8 38  1  0
  9 10  1  6
  9 11  1  0
 10 39  1  0
 11 12  1  0
 11 16  1  0
 11 40  1  1
 12 13  1  0
 13 14  1  0
 13 15  2  0
 14 41  1  0
 14 42  1  0
 14 43  1  0
 16 17  1  0
 16 21  1  0
 16 44  1  1
 17 18  1  0
 18 19  1  0
 18 20  2  0
 19 45  1  0
 19 46  1  0
 19 47  1  0
 21 28  1  0
 21 22  1  6
 21 23  1  0
 22 48  1  0
 22 49  1  0
 22 50  1  0
 23 27  1  0
 23 24  1  0
 23 51  1  1
 24 25  2  0
 24 52  1  0
 25 26  1  0
 25 28  1  0
 26 27  1  0
 26 53  1  0
 26 54  1  0
 28 29  1  6
 29 55  1  0
M  END
>  <i_m_ct_stereo_status>  (121) 
1

>  <s_m_source_file>  (121) 
/var/tmp/pbs.5076253.sched01/tmp0k8q0ypy/944rjgrua_.sdf

>  <i_m_source_file_index>  (121) 
41

>  <i_lp_mmshare_version>  (121) 
48012

>  <i_f3d_flags>  (121) 
1

>  <s_epik_input>  (121) 
W0NIMl0xT1tDSDJdW0NAQEhdKFtDQF0xMltPSF0pT1tDQEBIXShPW0NIM10pW0NAQF0zKFtPSF0pW0NAXShbQ0gzXSkoW0NASF00W0NIXT1DM1tDSDJdTzQpW0NASF0oT0MoPU8pW0NIM10pW0NIXTJPQyg9TylbQ0gzXQ==

>  <s_epik_cmdline>  (121) 
J2VwaWtfcHl0aG9uJywgJy1waHQnLCAnMi4wJywgJy1waCcsICc3LjAnLCAnLXRuJywgJzgnLCAnLW1hJywgJzIwMCcsICctaW1hZScsICc8aW5maWxlLm1hZT4nLCAnLW9tYWUnLCAnPG91dGZpbGUubWFlPic=

>  <r_lp_tautomer_probability>  (121) 
1

>  <r_epik_Ionization_Penalty>  (121) 
4.49422e-05

>  <r_epik_Ionization_Penalty_Charging>  (121) 
0

>  <r_epik_Ionization_Penalty_Neutral>  (121) 
4.49422e-05

>  <r_epik_State_Penalty>  (121) 
-0

>  <r_epik_Charging_Adjusted_Penalty>  (121) 
0

>  <i_epik_Tot_Q>  (121) 
0

>  <i_epik_Tot_abs_Q>  (121) 
0

>  <s_epik_Chemistry_Notes>  (121) 
This compound has an ester and may undergo hydrolysis at high or low pH. This compound contains an acetal/aminal-like group ( X-CH(R)-Y where X, Y are N, S, or O) that may be acid/base labile, releasing an aldehyde.

>  <s_lp_Force_Field>  (121) 
OPLS3e

>  <r_lp_Energy>  (121) 
78.8203

>  <b_lp_Chiralities_Consistent>  (121) 
1

>  <s_lp_Variant>  (121) 
82:0-1

>  <s_i_glide_gridfile>  (121) 
pfpi4k_grid

>  <i_i_glide_lignum>  (121) 
41

>  <i_i_glide_rotatable_bonds>  (121) 
7

>  <r_i_docking_score>  (121) 
-2.75559

>  <r_i_glide_ligand_efficiency>  (121) 
-0.0950204

>  <r_i_glide_ligand_efficiency_sa>  (121) 
-0.291933

>  <r_i_glide_ligand_efficiency_ln>  (121) 
-0.63096

>  <r_i_glide_gscore>  (121) 
-2.75559

>  <r_i_glide_lipo>  (121) 
-0.473207

>  <r_i_glide_hbond>  (121) 
-0.661892

>  <r_i_glide_metal>  (121) 
-0

>  <r_i_glide_rewards>  (121) 
-0.659491

>  <r_i_glide_evdw>  (121) 
-12.4289

>  <r_i_glide_ecoul>  (121) 
-3.79611

>  <r_i_glide_erotb>  (121) 
0.229863

>  <r_i_glide_esite>  (121) 
0

>  <r_i_glide_emodel>  (121) 
-15.6769

>  <r_i_glide_energy>  (121) 
-16.225

>  <r_i_glide_einternal>  (121) 
9.39087

>  <r_i_glide_intrahb_reward>  (121) 
-0

>  <i_i_glide_confnum>  (121) 
1

>  <i_i_glide_posenum>  (121) 
1

>  <r_i_glide_eff_state_penalty>  (121) 
0

>  <ligand_id>  (121) 
82

>  <original_smiles>  (121) 
COC1OC2COCC2(O)C(OC(C)=O)C(OC(C)=O)C2(C)C3C=C(CO3)C12O

>  <smiles>  (121) 
[H]OC12C3=C([H])C([H])(OC3([H])[H])C1(C([H])([H])[H])C([H])(OC(=O)C([H])([H])[H])C([H])(OC(=O)C([H])([H])[H])C1(O[H])C([H])([H])OC([H])([H])C1([H])OC2([H])OC([H])([H])[H]

$$$$
82:1:0
     RDKit          3D

 55 58  0  0  1  0  0  0  0  0999 V2000
    8.4909   -3.0698    0.1055 C   0  0  0  0  0  0  0  0  0  0  0  0
    7.3851   -3.1324   -0.7825 O   0  0  0  0  0  0  0  0  0  0  0  0
    6.1832   -3.5227   -0.1867 C   0  0  2  0  0  0  0  0  0  0  0  0
    6.2326   -4.8775    0.1545 O   0  0  0  0  0  0  0  0  0  0  0  0
    5.1064   -5.5958    0.6573 C   0  0  1  0  0  0  0  0  0  0  0  0
    5.5404   -7.0359    0.9881 C   0  0  0  0  0  0  0  0  0  0  0  0
    5.2226   -7.2641    2.3479 O   0  0  0  0  0  0  0  0  0  0  0  0
    4.1722   -6.3904    2.6928 C   0  0  0  0  0  0  0  0  0  0  0  0
    4.4850   -5.0762    1.9598 C   0  0  1  0  0  0  0  0  0  0  0  0
    5.4441   -4.4094    2.7598 O   0  0  0  0  0  0  0  0  0  0  0  0
    3.2222   -4.1925    1.7381 C   0  0  1  0  0  0  0  0  0  0  0  0
    2.5451   -3.9824    2.9832 O   0  0  0  0  0  0  0  0  0  0  0  0
    1.4637   -4.7019    3.3395 C   0  0  0  0  0  0  0  0  0  0  0  0
    0.9366   -4.3279    4.7172 C   0  0  0  0  0  0  0  0  0  0  0  0
    0.9258   -5.5813    2.6670 O   0  0  0  0  0  0  0  0  0  0  0  0
    3.3874   -2.8139    1.0305 C   0  0  1  0  0  0  0  0  0  0  0  0
    4.2985   -1.9779    1.7524 O   0  0  0  0  0  0  0  0  0  0  0  0
    3.8723   -1.0578    2.6455 C   0  0  0  0  0  0  0  0  0  0  0  0
    5.0300   -0.2861    3.2684 C   0  0  0  0  0  0  0  0  0  0  0  0
    2.7040   -0.8330    2.9601 O   0  0  0  0  0  0  0  0  0  0  0  0
    3.6112   -2.7979   -0.5387 C   0  0  1  0  0  0  0  0  0  0  0  0
    2.4307   -3.5841   -1.1791 C   0  0  0  0  0  0  0  0  0  0  0  0
    3.5123   -1.2984   -1.0129 C   0  0  1  0  0  0  0  0  0  0  0  0
    4.9452   -0.9043   -1.0647 C   0  0  0  0  0  0  0  0  0  0  0  0
    5.3156   -1.8575   -1.9051 C   0  0  0  0  0  0  0  0  0  0  0  0
    4.3430   -1.6664   -3.0607 C   0  0  0  0  0  0  0  0  0  0  0  0
    3.1520   -1.2435   -2.3981 O   0  0  0  0  0  0  0  0  0  0  0  0
    5.0315   -3.1823   -1.1918 C   0  0  1  0  0  0  0  0  0  0  0  0
    4.9781   -4.2142   -2.1688 O   0  0  0  0  0  0  0  0  0  0  0  0
    9.3863   -2.7829   -0.4457 H   0  0  0  0  0  0  0  0  0  0  0  0
    8.6841   -4.0334    0.5816 H   0  0  0  0  0  0  0  0  0  0  0  0
    8.3259   -2.3218    0.8805 H   0  0  0  0  0  0  0  0  0  0  0  0
    6.1273   -2.9275    0.7142 H   0  0  0  0  0  0  0  0  0  0  0  0
    4.3450   -5.6753   -0.1152 H   0  0  0  0  0  0  0  0  0  0  0  0
    5.0155   -7.7562    0.3567 H   0  0  0  0  0  0  0  0  0  0  0  0
    6.6150   -7.1899    0.8794 H   0  0  0  0  0  0  0  0  0  0  0  0
    3.2515   -6.8343    2.3110 H   0  0  0  0  0  0  0  0  0  0  0  0
    4.0790   -6.2820    3.7726 H   0  0  0  0  0  0  0  0  0  0  0  0
    5.6683   -3.5983    2.3334 H   0  0  0  0  0  0  0  0  0  0  0  0
    2.5486   -4.7743    1.1124 H   0  0  0  0  0  0  0  0  0  0  0  0
    0.6350   -3.2784    4.7360 H   0  0  0  0  0  0  0  0  0  0  0  0
    1.7027   -4.4829    5.4796 H   0  0  0  0  0  0  0  0  0  0  0  0
    0.0709   -4.9401    4.9760 H   0  0  0  0  0  0  0  0  0  0  0  0
    2.4009   -2.3596    1.1321 H   0  0  0  0  0  0  0  0  0  0  0  0
    5.7533   -0.9764    3.7017 H   0  0  0  0  0  0  0  0  0  0  0  0
    4.6745    0.3788    4.0552 H   0  0  0  0  0  0  0  0  0  0  0  0
    5.5382    0.3120    2.5140 H   0  0  0  0  0  0  0  0  0  0  0  0
    2.3933   -3.5076   -2.2660 H   0  0  0  0  0  0  0  0  0  0  0  0
    1.4708   -3.2210   -0.8169 H   0  0  0  0  0  0  0  0  0  0  0  0
    2.4790   -4.6482   -0.9636 H   0  0  0  0  0  0  0  0  0  0  0  0
    2.9236   -0.6528   -0.3671 H   0  0  0  0  0  0  0  0  0  0  0  0
    5.3853   -0.8179   -0.0816 H   0  0  0  0  0  0  0  0  0  0  0  0
    4.6914   -0.8605   -3.7117 H   0  0  0  0  0  0  0  0  0  0  0  0
    4.1657   -2.5410   -3.6886 H   0  0  0  0  0  0  0  0  0  0  0  0
    4.2630   -4.8048   -1.9791 H   0  0  0  0  0  0  0  0  0  0  0  0
  1  2  1  0
  1 30  1  0
  1 31  1  0
  1 32  1  0
  2  3  1  0
  3 28  1  0
  3  4  1  0
  3 33  1  1
  4  5  1  0
  5  9  1  0
  5  6  1  0
  5 34  1  6
  6  7  1  0
  6 35  1  0
  6 36  1  0
  7  8  1  0
  8  9  1  0
  8 37  1  0
  8 38  1  0
  9 10  1  1
  9 11  1  0
 10 39  1  0
 11 12  1  0
 11 16  1  0
 11 40  1  6
 12 13  1  0
 13 14  1  0
 13 15  2  0
 14 41  1  0
 14 42  1  0
 14 43  1  0
 16 17  1  0
 16 21  1  0
 16 44  1  6
 17 18  1  0
 18 19  1  0
 18 20  2  0
 19 45  1  0
 19 46  1  0
 19 47  1  0
 21 28  1  0
 21 22  1  6
 21 23  1  0
 22 48  1  0
 22 49  1  0
 22 50  1  0
 23 27  1  0
 23 24  1  0
 23 51  1  1
 24 25  2  0
 24 52  1  0
 25 26  1  0
 25 28  1  0
 26 27  1  0
 26 53  1  0
 26 54  1  0
 28 29  1  6
 29 55  1  0
M  END
>  <i_m_ct_stereo_status>  (122) 
1

>  <s_m_source_file>  (122) 
/var/tmp/pbs.5076253.sched01/tmp0k8q0ypy/944rjgrua_.sdf

>  <i_m_source_file_index>  (122) 
42

>  <i_lp_mmshare_version>  (122) 
48012

>  <i_f3d_flags>  (122) 
1

>  <s_epik_input>  (122) 
W0NIMl0xT1tDSDJdW0NAQEhdKFtDQF0xMltPSF0pT1tDQEBIXShPW0NIM10pW0NAQF0zKFtPSF0pW0NAXShbQ0gzXSkoW0NASF00W0NIXT1DM1tDSDJdTzQpW0NASF0oT0MoPU8pW0NIM10pW0NIXTJPQyg9TylbQ0gzXQ==

>  <s_epik_cmdline>  (122) 
J2VwaWtfcHl0aG9uJywgJy1waHQnLCAnMi4wJywgJy1waCcsICc3LjAnLCAnLXRuJywgJzgnLCAnLW1hJywgJzIwMCcsICctaW1hZScsICc8aW5maWxlLm1hZT4nLCAnLW9tYWUnLCAnPG91dGZpbGUubWFlPic=

>  <r_lp_tautomer_probability>  (122) 
1

>  <r_epik_Ionization_Penalty>  (122) 
4.49422e-05

>  <r_epik_Ionization_Penalty_Charging>  (122) 
0

>  <r_epik_Ionization_Penalty_Neutral>  (122) 
4.49422e-05

>  <r_epik_State_Penalty>  (122) 
-0

>  <r_epik_Charging_Adjusted_Penalty>  (122) 
0

>  <i_epik_Tot_Q>  (122) 
0

>  <i_epik_Tot_abs_Q>  (122) 
0

>  <s_epik_Chemistry_Notes>  (122) 
This compound has an ester and may undergo hydrolysis at high or low pH. This compound contains an acetal/aminal-like group ( X-CH(R)-Y where X, Y are N, S, or O) that may be acid/base labile, releasing an aldehyde.

>  <s_lp_Force_Field>  (122) 
OPLS3e

>  <r_lp_Energy>  (122) 
74.4567

>  <b_lp_Chiralities_Consistent>  (122) 
1

>  <s_lp_Variant>  (122) 
82:0-2

>  <s_i_glide_gridfile>  (122) 
pfpi4k_grid

>  <i_i_glide_lignum>  (122) 
42

>  <i_i_glide_rotatable_bonds>  (122) 
7

>  <r_i_docking_score>  (122) 
-3.3653

>  <r_i_glide_ligand_efficiency>  (122) 
-0.116045

>  <r_i_glide_ligand_efficiency_sa>  (122) 
-0.356527

>  <r_i_glide_ligand_efficiency_ln>  (122) 
-0.770569

>  <r_i_glide_gscore>  (122) 
-3.3653

>  <r_i_glide_lipo>  (122) 
-0.524466

>  <r_i_glide_hbond>  (122) 
-0.015221

>  <r_i_glide_metal>  (122) 
-0

>  <r_i_glide_rewards>  (122) 
-1.20688

>  <r_i_glide_evdw>  (122) 
-24.243

>  <r_i_glide_ecoul>  (122) 
-4.16129

>  <r_i_glide_erotb>  (122) 
0.229863

>  <r_i_glide_esite>  (122) 
-0.0122554

>  <r_i_glide_emodel>  (122) 
-38.2217

>  <r_i_glide_energy>  (122) 
-28.4043

>  <r_i_glide_einternal>  (122) 
1.38928

>  <r_i_glide_intrahb_reward>  (122) 
-0.5

>  <i_i_glide_confnum>  (122) 
2

>  <i_i_glide_posenum>  (122) 
30

>  <r_i_glide_eff_state_penalty>  (122) 
0

>  <ligand_id>  (122) 
82

>  <original_smiles>  (122) 
COC1OC2COCC2(O)C(OC(C)=O)C(OC(C)=O)C2(C)C3C=C(CO3)C12O

>  <smiles>  (122) 
[H]OC12C3=C([H])C([H])(OC3([H])[H])C1(C([H])([H])[H])C([H])(OC(=O)C([H])([H])[H])C([H])(OC(=O)C([H])([H])[H])C1(O[H])C([H])([H])OC([H])([H])C1([H])OC2([H])OC([H])([H])[H]

$$$$
82:1:1
     RDKit          3D

 55 58  0  0  1  0  0  0  0  0999 V2000
    4.7537   -8.1238    0.9003 C   0  0  0  0  0  0  0  0  0  0  0  0
    4.2137   -7.0000    0.2090 O   0  0  0  0  0  0  0  0  0  0  0  0
    3.8308   -5.9451    1.0374 C   0  0  2  0  0  0  0  0  0  0  0  0
    2.7941   -6.3702    1.8877 O   0  0  0  0  0  0  0  0  0  0  0  0
    2.1451   -5.4969    2.8209 C   0  0  1  0  0  0  0  0  0  0  0  0
    1.2025   -6.3287    3.7166 C   0  0  0  0  0  0  0  0  0  0  0  0
    1.5287   -6.0454    5.0707 O   0  0  0  0  0  0  0  0  0  0  0  0
    2.2047   -4.8023    5.1048 C   0  0  0  0  0  0  0  0  0  0  0  0
    3.0577   -4.7880    3.8248 C   0  0  1  0  0  0  0  0  0  0  0  0
    4.1370   -5.6655    4.0689 O   0  0  0  0  0  0  0  0  0  0  0  0
    3.5013   -3.3335    3.4138 C   0  0  1  0  0  0  0  0  0  0  0  0
    3.9887   -2.5129    4.4883 O   0  0  0  0  0  0  0  0  0  0  0  0
    5.1414   -2.8178    5.1323 C   0  0  0  0  0  0  0  0  0  0  0  0
    5.6201   -1.7117    6.0708 C   0  0  0  0  0  0  0  0  0  0  0  0
    5.7783   -3.8425    5.0195 O   0  0  0  0  0  0  0  0  0  0  0  0
    4.3262   -3.0553    2.1042 C   0  0  1  0  0  0  0  0  0  0  0  0
    5.5718   -3.7215    2.1486 O   0  0  0  0  0  0  0  0  0  0  0  0
    6.6813   -3.2127    1.6683 C   0  0  0  0  0  0  0  0  0  0  0  0
    7.7939   -4.2288    1.5404 C   0  0  0  0  0  0  0  0  0  0  0  0
    6.8430   -2.0270    1.2730 O   0  0  0  0  0  0  0  0  0  0  0  0
    3.6525   -3.2610    0.6976 C   0  0  1  0  0  0  0  0  0  0  0  0
    2.3894   -2.4101    0.6929 C   0  0  0  0  0  0  0  0  0  0  0  0
    4.5922   -2.7035   -0.4632 C   0  0  1  0  0  0  0  0  0  0  0  0
    5.3014   -3.9695   -0.8877 C   0  0  0  0  0  0  0  0  0  0  0  0
    4.2204   -4.6048   -1.1341 C   0  0  0  0  0  0  0  0  0  0  0  0
    3.5546   -3.6890   -2.1467 C   0  0  0  0  0  0  0  0  0  0  0  0
    3.8508   -2.3948   -1.6413 O   0  0  0  0  0  0  0  0  0  0  0  0
    3.3721   -4.7345    0.1459 C   0  0  1  0  0  0  0  0  0  0  0  0
    2.0437   -4.9899   -0.2625 O   0  0  0  0  0  0  0  0  0  0  0  0
    5.0041   -8.8953    0.1769 H   0  0  0  0  0  0  0  0  0  0  0  0
    4.0355   -8.5614    1.5932 H   0  0  0  0  0  0  0  0  0  0  0  0
    5.6637   -7.8841    1.4547 H   0  0  0  0  0  0  0  0  0  0  0  0
    4.7375   -5.7591    1.5958 H   0  0  0  0  0  0  0  0  0  0  0  0
    1.5315   -4.7778    2.2804 H   0  0  0  0  0  0  0  0  0  0  0  0
    0.1640   -6.0487    3.5433 H   0  0  0  0  0  0  0  0  0  0  0  0
    1.3071   -7.4017    3.5417 H   0  0  0  0  0  0  0  0  0  0  0  0
    1.4437   -4.0219    5.0767 H   0  0  0  0  0  0  0  0  0  0  0  0
    2.7815   -4.6636    6.0204 H   0  0  0  0  0  0  0  0  0  0  0  0
    4.8209   -5.4416    3.4613 H   0  0  0  0  0  0  0  0  0  0  0  0
    2.5517   -2.8288    3.2637 H   0  0  0  0  0  0  0  0  0  0  0  0
    4.9498   -1.5987    6.9250 H   0  0  0  0  0  0  0  0  0  0  0  0
    5.7248   -0.7663    5.5354 H   0  0  0  0  0  0  0  0  0  0  0  0
    6.6073   -1.9934    6.4482 H   0  0  0  0  0  0  0  0  0  0  0  0
    4.5069   -1.9759    2.1604 H   0  0  0  0  0  0  0  0  0  0  0  0
    8.0525   -4.6755    2.4968 H   0  0  0  0  0  0  0  0  0  0  0  0
    8.6989   -3.7844    1.1302 H   0  0  0  0  0  0  0  0  0  0  0  0
    7.4907   -5.0679    0.8991 H   0  0  0  0  0  0  0  0  0  0  0  0
    2.0094   -2.5271   -0.3107 H   0  0  0  0  0  0  0  0  0  0  0  0
    2.6003   -1.3583    0.8943 H   0  0  0  0  0  0  0  0  0  0  0  0
    1.6057   -2.7315    1.3755 H   0  0  0  0  0  0  0  0  0  0  0  0
    5.1534   -1.8119   -0.2186 H   0  0  0  0  0  0  0  0  0  0  0  0
    5.9227   -4.5336   -0.2047 H   0  0  0  0  0  0  0  0  0  0  0  0
    4.0793   -3.8270   -3.1104 H   0  0  0  0  0  0  0  0  0  0  0  0
    2.4767   -3.8001   -2.2900 H   0  0  0  0  0  0  0  0  0  0  0  0
    2.1066   -5.4852   -1.0729 H   0  0  0  0  0  0  0  0  0  0  0  0
  1  2  1  0
  1 30  1  0
  1 31  1  0
  1 32  1  0
  2  3  1  0
  3 28  1  0
  3  4  1  0
  3 33  1  1
  4  5  1  0
  5  9  1  0
  5  6  1  0
  5 34  1  6
  6  7  1  0
  6 35  1  0
  6 36  1  0
  7  8  1  0
  8  9  1  0
  8 37  1  0
  8 38  1  0
  9 10  1  1
  9 11  1  0
 10 39  1  0
 11 12  1  0
 11 16  1  0
 11 40  1  6
 12 13  1  0
 13 14  1  0
 13 15  2  0
 14 41  1  0
 14 42  1  0
 14 43  1  0
 16 17  1  0
 16 21  1  0
 16 44  1  1
 17 18  1  0
 18 19  1  0
 18 20  2  0
 19 45  1  0
 19 46  1  0
 19 47  1  0
 21 28  1  0
 21 22  1  1
 21 23  1  0
 22 48  1  0
 22 49  1  0
 22 50  1  0
 23 27  1  0
 23 24  1  0
 23 51  1  1
 24 25  2  0
 24 52  1  0
 25 26  1  0
 25 28  1  0
 26 27  1  0
 26 53  1  0
 26 54  1  0
 28 29  1  6
 29 55  1  0
M  END
>  <i_m_ct_stereo_status>  (123) 
1

>  <s_m_source_file>  (123) 
/var/tmp/pbs.5076253.sched01/tmp0k8q0ypy/944rjgrua_.sdf

>  <i_m_source_file_index>  (123) 
42

>  <i_lp_mmshare_version>  (123) 
48012

>  <i_f3d_flags>  (123) 
1

>  <s_epik_input>  (123) 
W0NIMl0xT1tDSDJdW0NAQEhdKFtDQF0xMltPSF0pT1tDQEBIXShPW0NIM10pW0NAQF0zKFtPSF0pW0NAXShbQ0gzXSkoW0NASF00W0NIXT1DM1tDSDJdTzQpW0NASF0oT0MoPU8pW0NIM10pW0NIXTJPQyg9TylbQ0gzXQ==

>  <s_epik_cmdline>  (123) 
J2VwaWtfcHl0aG9uJywgJy1waHQnLCAnMi4wJywgJy1waCcsICc3LjAnLCAnLXRuJywgJzgnLCAnLW1hJywgJzIwMCcsICctaW1hZScsICc8aW5maWxlLm1hZT4nLCAnLW9tYWUnLCAnPG91dGZpbGUubWFlPic=

>  <r_lp_tautomer_probability>  (123) 
1

>  <r_epik_Ionization_Penalty>  (123) 
4.49422e-05

>  <r_epik_Ionization_Penalty_Charging>  (123) 
0

>  <r_epik_Ionization_Penalty_Neutral>  (123) 
4.49422e-05

>  <r_epik_State_Penalty>  (123) 
-0

>  <r_epik_Charging_Adjusted_Penalty>  (123) 
0

>  <i_epik_Tot_Q>  (123) 
0

>  <i_epik_Tot_abs_Q>  (123) 
0

>  <s_epik_Chemistry_Notes>  (123) 
This compound has an ester and may undergo hydrolysis at high or low pH. This compound contains an acetal/aminal-like group ( X-CH(R)-Y where X, Y are N, S, or O) that may be acid/base labile, releasing an aldehyde.

>  <s_lp_Force_Field>  (123) 
OPLS3e

>  <r_lp_Energy>  (123) 
74.4567

>  <b_lp_Chiralities_Consistent>  (123) 
1

>  <s_lp_Variant>  (123) 
82:0-2

>  <s_i_glide_gridfile>  (123) 
pfpi4k_grid

>  <i_i_glide_lignum>  (123) 
42

>  <i_i_glide_rotatable_bonds>  (123) 
7

>  <r_i_docking_score>  (123) 
-1.7162

>  <r_i_glide_ligand_efficiency>  (123) 
-0.0591792

>  <r_i_glide_ligand_efficiency_sa>  (123) 
-0.181817

>  <r_i_glide_ligand_efficiency_ln>  (123) 
-0.392966

>  <r_i_glide_gscore>  (123) 
-1.7162

>  <r_i_glide_lipo>  (123) 
-0.173711

>  <r_i_glide_hbond>  (123) 
0

>  <r_i_glide_metal>  (123) 
-0

>  <r_i_glide_rewards>  (123) 
-1.24063

>  <r_i_glide_evdw>  (123) 
3.33993

>  <r_i_glide_ecoul>  (123) 
-5.0987

>  <r_i_glide_erotb>  (123) 
0.229863

>  <r_i_glide_esite>  (123) 
0

>  <r_i_glide_emodel>  (123) 
6.08332

>  <r_i_glide_energy>  (123) 
-1.75877

>  <r_i_glide_einternal>  (123) 
23.3488

>  <r_i_glide_intrahb_reward>  (123) 
-0.5

>  <i_i_glide_confnum>  (123) 
2

>  <i_i_glide_posenum>  (123) 
3

>  <r_i_glide_eff_state_penalty>  (123) 
0

>  <ligand_id>  (123) 
82

>  <original_smiles>  (123) 
COC1OC2COCC2(O)C(OC(C)=O)C(OC(C)=O)C2(C)C3C=C(CO3)C12O

>  <smiles>  (123) 
[H]OC12C3=C([H])C([H])(OC3([H])[H])C1(C([H])([H])[H])C([H])(OC(=O)C([H])([H])[H])C([H])(OC(=O)C([H])([H])[H])C1(O[H])C([H])([H])OC([H])([H])C1([H])OC2([H])OC([H])([H])[H]

$$$$
82:1:2
     RDKit          3D

 55 58  0  0  1  0  0  0  0  0999 V2000
    5.9143   -5.6545    2.9555 C   0  0  0  0  0  0  0  0  0  0  0  0
    5.3841   -5.4174    1.6641 O   0  0  0  0  0  0  0  0  0  0  0  0
    4.4462   -4.4003    1.6259 C   0  0  2  0  0  0  0  0  0  0  0  0
    3.3066   -4.8020    2.3369 O   0  0  0  0  0  0  0  0  0  0  0  0
    2.1041   -4.0361    2.3549 C   0  0  1  0  0  0  0  0  0  0  0  0
    1.0990   -4.7095    3.3059 C   0  0  0  0  0  0  0  0  0  0  0  0
    0.6771   -3.7313    4.2540 O   0  0  0  0  0  0  0  0  0  0  0  0
    0.9221   -2.4503    3.7033 C   0  0  0  0  0  0  0  0  0  0  0  0
    2.2183   -2.6173    2.8883 C   0  0  1  0  0  0  0  0  0  0  0  0
    3.2665   -2.6765    3.8197 O   0  0  0  0  0  0  0  0  0  0  0  0
    2.3846   -1.5003    1.7923 C   0  0  1  0  0  0  0  0  0  0  0  0
    2.1461   -0.1802    2.3274 O   0  0  0  0  0  0  0  0  0  0  0  0
    2.9680    0.4480    3.2298 C   0  0  0  0  0  0  0  0  0  0  0  0
    2.5141    1.8213    3.6331 C   0  0  0  0  0  0  0  0  0  0  0  0
    4.0078    0.0257    3.7312 O   0  0  0  0  0  0  0  0  0  0  0  0
    3.5975   -1.5039    0.7992 C   0  0  1  0  0  0  0  0  0  0  0  0
    4.7691   -1.4437    1.5792 O   0  0  0  0  0  0  0  0  0  0  0  0
    5.8212   -0.6609    1.2169 C   0  0  0  0  0  0  0  0  0  0  0  0
    7.0718   -1.0622    1.8782 C   0  0  0  0  0  0  0  0  0  0  0  0
    5.8733    0.1309    0.3821 O   0  0  0  0  0  0  0  0  0  0  0  0
    3.7553   -2.6470   -0.3015 C   0  0  1  0  0  0  0  0  0  0  0  0
    2.5208   -2.6629   -1.2120 C   0  0  0  0  0  0  0  0  0  0  0  0
    4.9629   -2.2651   -1.2500 C   0  0  1  0  0  0  0  0  0  0  0  0
    6.0669   -3.1265   -0.7246 C   0  0  0  0  0  0  0  0  0  0  0  0
    5.4028   -4.2587   -0.7918 C   0  0  0  0  0  0  0  0  0  0  0  0
    5.0567   -4.1569   -2.2556 C   0  0  0  0  0  0  0  0  0  0  0  0
    4.8242   -2.7988   -2.5343 O   0  0  0  0  0  0  0  0  0  0  0  0
    4.1594   -4.1338    0.1081 C   0  0  1  0  0  0  0  0  0  0  0  0
    3.1785   -5.0716   -0.2456 O   0  0  0  0  0  0  0  0  0  0  0  0
    6.6440   -6.4591    2.8980 H   0  0  0  0  0  0  0  0  0  0  0  0
    5.1500   -5.9447    3.6768 H   0  0  0  0  0  0  0  0  0  0  0  0
    6.4218   -4.7677    3.3273 H   0  0  0  0  0  0  0  0  0  0  0  0
    4.9134   -3.5744    2.1278 H   0  0  0  0  0  0  0  0  0  0  0  0
    1.6860   -4.0362    1.3606 H   0  0  0  0  0  0  0  0  0  0  0  0
    0.2670   -5.0838    2.7440 H   0  0  0  0  0  0  0  0  0  0  0  0
    1.5281   -5.5701    3.8238 H   0  0  0  0  0  0  0  0  0  0  0  0
    0.0819   -2.2193    3.0564 H   0  0  0  0  0  0  0  0  0  0  0  0
    0.9601   -1.6668    4.4644 H   0  0  0  0  0  0  0  0  0  0  0  0
    4.0390   -2.4296    3.3484 H   0  0  0  0  0  0  0  0  0  0  0  0
    1.5055   -1.6300    1.1646 H   0  0  0  0  0  0  0  0  0  0  0  0
    1.5510    1.7557    4.1416 H   0  0  0  0  0  0  0  0  0  0  0  0
    2.4740    2.4500    2.7434 H   0  0  0  0  0  0  0  0  0  0  0  0
    3.2716    2.2045    4.3226 H   0  0  0  0  0  0  0  0  0  0  0  0
    3.4754   -0.5528    0.2463 H   0  0  0  0  0  0  0  0  0  0  0  0
    6.9863   -0.8239    2.9389 H   0  0  0  0  0  0  0  0  0  0  0  0
    7.9926   -0.7090    1.4226 H   0  0  0  0  0  0  0  0  0  0  0  0
    7.2635   -2.1191    1.6872 H   0  0  0  0  0  0  0  0  0  0  0  0
    2.5345   -3.2930   -2.1098 H   0  0  0  0  0  0  0  0  0  0  0  0
    2.4777   -1.6930   -1.6456 H   0  0  0  0  0  0  0  0  0  0  0  0
    1.6387   -2.9629   -0.6439 H   0  0  0  0  0  0  0  0  0  0  0  0
    5.0917   -1.2043   -1.4268 H   0  0  0  0  0  0  0  0  0  0  0  0
    6.3400   -2.9201    0.2598 H   0  0  0  0  0  0  0  0  0  0  0  0
    5.8855   -4.4572   -2.8567 H   0  0  0  0  0  0  0  0  0  0  0  0
    4.2004   -4.6198   -2.5716 H   0  0  0  0  0  0  0  0  0  0  0  0
    3.2655   -5.2861   -1.1679 H   0  0  0  0  0  0  0  0  0  0  0  0
  1  2  1  0
  1 30  1  0
  1 31  1  0
  1 32  1  0
  2  3  1  0
  3 28  1  0
  3  4  1  0
  3 33  1  1
  4  5  1  0
  5  9  1  0
  5  6  1  0
  5 34  1  6
  6  7  1  0
  6 35  1  0
  6 36  1  0
  7  8  1  0
  8  9  1  0
  8 37  1  0
  8 38  1  0
  9 10  1  1
  9 11  1  0
 10 39  1  0
 11 12  1  0
 11 16  1  0
 11 40  1  6
 12 13  1  0
 13 14  1  0
 13 15  2  0
 14 41  1  0
 14 42  1  0
 14 43  1  0
 16 17  1  0
 16 21  1  0
 16 44  1  6
 17 18  1  0
 18 19  1  0
 18 20  2  0
 19 45  1  0
 19 46  1  0
 19 47  1  0
 21 28  1  0
 21 22  1  6
 21 23  1  0
 22 48  1  0
 22 49  1  0
 22 50  1  0
 23 27  1  0
 23 24  1  0
 23 51  1  6
 24 25  2  0
 24 52  1  0
 25 26  1  0
 25 28  1  0
 26 27  1  0
 26 53  1  0
 26 54  1  0
 28 29  1  6
 29 55  1  0
M  END
>  <i_m_ct_stereo_status>  (124) 
1

>  <s_m_source_file>  (124) 
/var/tmp/pbs.5076253.sched01/tmp0k8q0ypy/944rjgrua_.sdf

>  <i_m_source_file_index>  (124) 
42

>  <i_lp_mmshare_version>  (124) 
48012

>  <i_f3d_flags>  (124) 
1

>  <s_epik_input>  (124) 
W0NIMl0xT1tDSDJdW0NAQEhdKFtDQF0xMltPSF0pT1tDQEBIXShPW0NIM10pW0NAQF0zKFtPSF0pW0NAXShbQ0gzXSkoW0NASF00W0NIXT1DM1tDSDJdTzQpW0NASF0oT0MoPU8pW0NIM10pW0NIXTJPQyg9TylbQ0gzXQ==

>  <s_epik_cmdline>  (124) 
J2VwaWtfcHl0aG9uJywgJy1waHQnLCAnMi4wJywgJy1waCcsICc3LjAnLCAnLXRuJywgJzgnLCAnLW1hJywgJzIwMCcsICctaW1hZScsICc8aW5maWxlLm1hZT4nLCAnLW9tYWUnLCAnPG91dGZpbGUubWFlPic=

>  <r_lp_tautomer_probability>  (124) 
1

>  <r_epik_Ionization_Penalty>  (124) 
4.49422e-05

>  <r_epik_Ionization_Penalty_Charging>  (124) 
0

>  <r_epik_Ionization_Penalty_Neutral>  (124) 
4.49422e-05

>  <r_epik_State_Penalty>  (124) 
-0

>  <r_epik_Charging_Adjusted_Penalty>  (124) 
0

>  <i_epik_Tot_Q>  (124) 
0

>  <i_epik_Tot_abs_Q>  (124) 
0

>  <s_epik_Chemistry_Notes>  (124) 
This compound has an ester and may undergo hydrolysis at high or low pH. This compound contains an acetal/aminal-like group ( X-CH(R)-Y where X, Y are N, S, or O) that may be acid/base labile, releasing an aldehyde.

>  <s_lp_Force_Field>  (124) 
OPLS3e

>  <r_lp_Energy>  (124) 
74.4567

>  <b_lp_Chiralities_Consistent>  (124) 
1

>  <s_lp_Variant>  (124) 
82:0-2

>  <s_i_glide_gridfile>  (124) 
pfpi4k_grid

>  <i_i_glide_lignum>  (124) 
42

>  <i_i_glide_rotatable_bonds>  (124) 
7

>  <r_i_docking_score>  (124) 
-0.499602

>  <r_i_glide_ligand_efficiency>  (124) 
-0.0172277

>  <r_i_glide_ligand_efficiency_sa>  (124) 
-0.0529288

>  <r_i_glide_ligand_efficiency_ln>  (124) 
-0.114396

>  <r_i_glide_gscore>  (124) 
-0.499602

>  <r_i_glide_lipo>  (124) 
-0.149014

>  <r_i_glide_hbond>  (124) 
-0.129282

>  <r_i_glide_metal>  (124) 
-0

>  <r_i_glide_rewards>  (124) 
-1.23013

>  <r_i_glide_evdw>  (124) 
3.06611

>  <r_i_glide_ecoul>  (124) 
-7.31594

>  <r_i_glide_erotb>  (124) 
0.229863

>  <r_i_glide_esite>  (124) 
0

>  <r_i_glide_emodel>  (124) 
9.03214

>  <r_i_glide_energy>  (124) 
-4.24983

>  <r_i_glide_einternal>  (124) 
22.5031

>  <r_i_glide_intrahb_reward>  (124) 
-0.5

>  <i_i_glide_confnum>  (124) 
2

>  <i_i_glide_posenum>  (124) 
35

>  <r_i_glide_eff_state_penalty>  (124) 
0

>  <ligand_id>  (124) 
82

>  <original_smiles>  (124) 
COC1OC2COCC2(O)C(OC(C)=O)C(OC(C)=O)C2(C)C3C=C(CO3)C12O

>  <smiles>  (124) 
[H]OC12C3=C([H])C([H])(OC3([H])[H])C1(C([H])([H])[H])C([H])(OC(=O)C([H])([H])[H])C([H])(OC(=O)C([H])([H])[H])C1(O[H])C([H])([H])OC([H])([H])C1([H])OC2([H])OC([H])([H])[H]

$$$$
83:1:0
     RDKit          3D

 98110  0  0  1  0  0  0  0  0999 V2000
    2.5284   -2.7477   -0.5551 C   0  0  0  0  0  0  0  0  0  0  0  0
    3.4464   -2.0248    0.1050 C   0  0  0  0  0  0  0  0  0  0  0  0
    4.3389   -1.1853   -0.7918 C   0  0  0  0  0  0  0  0  0  0  0  0
    3.5923   -1.9567    1.6705 C   0  0  2  0  0  0  0  0  0  0  0  0
    2.6660   -0.9358    2.0875 O   0  0  0  0  0  0  0  0  0  0  0  0
    2.5578   -0.4941    3.4449 C   0  0  2  0  0  0  0  0  0  0  0  0
    1.1410   -0.8713    3.9442 C   0  0  0  0  0  0  0  0  0  0  0  0
   -0.0416   -0.2280    3.1959 C   0  0  0  0  0  0  0  0  0  0  0  0
   -0.1124    1.1884    3.1654 O   0  0  0  0  0  0  0  0  0  0  0  0
   -0.0717    1.8442    4.4208 C   0  0  2  0  0  0  0  0  0  0  0  0
   -1.1772    2.9016    4.4495 C   0  0  0  0  0  0  0  0  0  0  0  0
   -0.8618    3.9884    3.5898 O   0  0  0  0  0  0  0  0  0  0  0  0
    0.4115    4.5426    3.7559 C   0  0  1  0  0  0  0  0  0  0  0  0
    0.4584    5.4385    5.0129 C   0  0  0  0  0  0  0  0  0  0  0  0
    1.4515    3.5961    3.7465 O   0  0  0  0  0  0  0  0  0  0  0  0
    1.2839    2.5420    4.6462 C   0  0  2  0  0  0  0  0  0  0  0  0
    2.3443    1.6268    4.6393 O   0  0  0  0  0  0  0  0  0  0  0  0
    2.7054    1.0512    3.3825 C   0  0  0  0  0  0  0  0  0  0  0  0
    3.7304   -1.0290    4.2780 C   0  0  0  0  0  0  0  0  0  0  0  0
    4.9255   -1.0365    3.6241 C   0  0  0  0  0  0  0  0  0  0  0  0
    5.0253   -1.7208    2.1946 C   0  0  2  0  0  0  0  0  0  0  0  0
    5.9122   -0.9279    1.4536 O   0  0  0  0  0  0  0  0  0  0  0  0
    5.5898   -3.2436    2.2395 C   0  0  2  0  0  0  0  0  0  0  0  0
    5.2672   -4.4579    1.3996 O   0  0  0  0  0  0  0  0  0  0  0  0
    3.9535   -5.1428    1.3351 C   0  0  2  0  0  0  0  0  0  0  0  0
    3.8107   -5.5697   -0.1314 C   0  0  0  0  0  0  0  0  0  0  0  0
    2.9396   -4.2741    1.6143 O   0  0  0  0  0  0  0  0  0  0  0  0
    3.3541   -3.2905    2.5140 C   0  0  1  0  0  0  0  0  0  0  0  0
    4.7443   -3.6722    3.2929 C   0  0  1  0  0  0  0  0  0  0  0  0
    5.2858   -4.7809    4.2477 C   0  0  1  0  0  0  0  0  0  0  0  0
    5.7369   -4.3535    5.5632 O   0  0  0  0  0  0  0  0  0  0  0  0
    4.8098   -3.8605    6.5282 C   0  0  2  0  0  0  0  0  0  0  0  0
    3.5873   -4.5569    6.6723 O   0  0  0  0  0  0  0  0  0  0  0  0
    2.7076   -4.3421    5.6193 C   0  0  1  0  0  0  0  0  0  0  0  0
    3.0899   -4.9724    4.4420 O   0  0  0  0  0  0  0  0  0  0  0  0
    4.2288   -5.7581    4.4501 C   0  0  1  0  0  0  0  0  0  0  0  0
    4.3235   -6.6670    3.4134 O   0  0  0  0  0  0  0  0  0  0  0  0
    3.5756   -6.4437    2.2361 C   0  0  1  0  0  0  0  0  0  0  0  0
    2.0014   -6.6989    2.4545 C   0  0  1  0  0  0  0  0  0  0  0  0
    1.8010   -8.0769    2.0428 O   0  0  0  0  0  0  0  0  0  0  0  0
    1.2902   -8.4242    3.3501 C   0  0  0  0  0  0  0  0  0  0  0  0
    1.1081   -6.9638    3.7545 C   0  0  2  0  0  0  0  0  0  0  0  0
   -0.2407   -6.5755    3.5906 O   0  0  0  0  0  0  0  0  0  0  0  0
    1.5123   -6.5932    5.2179 C   0  0  2  0  0  0  0  0  0  0  0  0
    0.8088   -6.2957    6.5167 C   0  0  1  0  0  0  0  0  0  0  0  0
    1.5500   -6.5236    7.7078 O   0  0  0  0  0  0  0  0  0  0  0  0
    1.0274   -5.7974    8.8105 C   0  0  0  0  0  0  0  0  0  0  0  0
    1.3702   -5.1145    5.7483 C   0  0  1  0  0  0  0  0  0  0  0  0
    0.2678   -4.3469    5.3088 O   0  0  0  0  0  0  0  0  0  0  0  0
    2.4282   -2.9330    5.4841 O   0  0  0  0  0  0  0  0  0  0  0  0
    3.4311   -1.8594    5.6125 C   0  0  1  0  0  0  0  0  0  0  0  0
    4.6312   -2.3320    6.4621 C   0  0  2  0  0  0  0  0  0  0  0  0
    5.8086   -1.4381    6.8242 C   0  0  0  0  0  0  0  0  0  0  0  0
    4.7302   -1.6582    7.7354 O   0  0  0  0  0  0  0  0  0  0  0  0
    2.4613   -2.7203   -1.6332 H   0  0  0  0  0  0  0  0  0  0  0  0
    1.8104   -3.3428   -0.0333 H   0  0  0  0  0  0  0  0  0  0  0  0
    4.3115   -0.1517   -0.4547 H   0  0  0  0  0  0  0  0  0  0  0  0
    3.9804   -1.1834   -1.8233 H   0  0  0  0  0  0  0  0  0  0  0  0
    5.3578   -1.5814   -0.7991 H   0  0  0  0  0  0  0  0  0  0  0  0
    0.9800   -1.9394    3.8352 H   0  0  0  0  0  0  0  0  0  0  0  0
    1.0534   -0.6627    5.0089 H   0  0  0  0  0  0  0  0  0  0  0  0
   -0.0049   -0.5440    2.1553 H   0  0  0  0  0  0  0  0  0  0  0  0
   -0.9690   -0.5977    3.6364 H   0  0  0  0  0  0  0  0  0  0  0  0
   -0.2347    1.1545    5.2448 H   0  0  0  0  0  0  0  0  0  0  0  0
   -2.1185    2.4604    4.1227 H   0  0  0  0  0  0  0  0  0  0  0  0
   -1.3399    3.2553    5.4674 H   0  0  0  0  0  0  0  0  0  0  0  0
    0.5700    5.1707    2.8798 H   0  0  0  0  0  0  0  0  0  0  0  0
    0.2024    4.8861    5.9166 H   0  0  0  0  0  0  0  0  0  0  0  0
   -0.2541    6.2536    4.8969 H   0  0  0  0  0  0  0  0  0  0  0  0
    1.4528    5.8726    5.1286 H   0  0  0  0  0  0  0  0  0  0  0  0
    1.3125    2.9599    5.6494 H   0  0  0  0  0  0  0  0  0  0  0  0
    3.7369    1.3361    3.1749 H   0  0  0  0  0  0  0  0  0  0  0  0
    2.1413    1.4760    2.5500 H   0  0  0  0  0  0  0  0  0  0  0  0
    5.7931   -1.3325    4.1987 H   0  0  0  0  0  0  0  0  0  0  0  0
    5.3968   -0.2694    1.0108 H   0  0  0  0  0  0  0  0  0  0  0  0
    6.6330   -3.2417    2.4872 H   0  0  0  0  0  0  0  0  0  0  0  0
    4.0118   -4.7410   -0.8056 H   0  0  0  0  0  0  0  0  0  0  0  0
    2.8035   -5.9420   -0.3090 H   0  0  0  0  0  0  0  0  0  0  0  0
    4.5267   -6.3510   -0.3811 H   0  0  0  0  0  0  0  0  0  0  0  0
    2.5137   -3.1423    3.1721 H   0  0  0  0  0  0  0  0  0  0  0  0
    4.8392   -3.1231    4.1522 H   0  0  0  0  0  0  0  0  0  0  0  0
    6.1543   -5.2819    3.8187 H   0  0  0  0  0  0  0  0  0  0  0  0
    5.3057   -4.0844    7.4715 H   0  0  0  0  0  0  0  0  0  0  0  0
    4.3666   -6.3367    5.3652 H   0  0  0  0  0  0  0  0  0  0  0  0
    3.9523   -7.2721    1.6274 H   0  0  0  0  0  0  0  0  0  0  0  0
    1.4030   -6.0520    1.8105 H   0  0  0  0  0  0  0  0  0  0  0  0
    0.3563   -8.9867    3.2845 H   0  0  0  0  0  0  0  0  0  0  0  0
    2.0433   -8.9536    3.9370 H   0  0  0  0  0  0  0  0  0  0  0  0
   -0.7381   -7.1919    4.1115 H   0  0  0  0  0  0  0  0  0  0  0  0
    2.4137   -7.1435    5.4723 H   0  0  0  0  0  0  0  0  0  0  0  0
   -0.2594   -6.4828    6.5837 H   0  0  0  0  0  0  0  0  0  0  0  0
    1.6066   -5.9989    9.7138 H   0  0  0  0  0  0  0  0  0  0  0  0
   -0.0031   -6.0975    8.9988 H   0  0  0  0  0  0  0  0  0  0  0  0
    1.0504   -4.7207    8.6303 H   0  0  0  0  0  0  0  0  0  0  0  0
    0.5482   -3.9933    4.4803 H   0  0  0  0  0  0  0  0  0  0  0  0
    2.9349   -1.1016    6.2176 H   0  0  0  0  0  0  0  0  0  0  0  0
    6.7426   -1.8944    7.1412 H   0  0  0  0  0  0  0  0  0  0  0  0
    5.8664   -0.4241    6.4424 H   0  0  0  0  0  0  0  0  0  0  0  0
  1  2  2  0
  1 55  1  0
  1 56  1  0
  2  3  1  0
  4  2  1  6
  3 57  1  0
  3 58  1  0
  3 59  1  0
  4 21  1  0
  4 28  1  0
  4  5  1  0
  6  5  1  6
  6 18  1  0
  6  7  1  0
  6 19  1  0
  7  8  1  0
  7 60  1  0
  7 61  1  0
  8  9  1  0
  8 62  1  0
  8 63  1  0
  9 10  1  0
 10 16  1  0
 10 11  1  0
 10 64  1  1
 11 12  1  0
 11 65  1  0
 11 66  1  0
 12 13  1  0
 13 14  1  0
 13 15  1  0
 13 67  1  6
 14 68  1  0
 14 69  1  0
 14 70  1  0
 15 16  1  0
 16 17  1  0
 16 71  1  1
 17 18  1  0
 18 72  1  0
 18 73  1  0
 19 51  1  0
 19 20  2  0
 20 21  1  0
 20 74  1  0
 21 22  1  6
 21 23  1  0
 22 75  1  0
 23 29  1  0
 23 24  1  0
 23 76  1  1
 24 25  1  0
 25 38  1  0
 25 26  1  6
 25 27  1  0
 26 77  1  0
 26 78  1  0
 26 79  1  0
 27 28  1  0
 28 29  1  0
 28 80  1  1
 29 30  1  0
 29 81  1  1
 30 36  1  0
 30 31  1  0
 30 82  1  6
 31 32  1  0
 32 52  1  0
 32 33  1  0
 32 83  1  1
 33 34  1  0
 34 48  1  0
 34 35  1  0
 34 50  1  6
 35 36  1  0
 36 37  1  0
 36 84  1  1
 37 38  1  0
 38 39  1  0
 38 85  1  6
 39 42  1  0
 39 40  1  0
 39 86  1  6
 40 41  1  0
 41 42  1  0
 41 87  1  0
 41 88  1  0
 42 43  1  6
 42 44  1  0
 43 89  1  0
 44 48  1  0
 44 45  1  0
 44 90  1  1
 45 46  1  0
 45 48  1  0
 45 91  1  1
 46 47  1  0
 47 92  1  0
 47 93  1  0
 47 94  1  0
 48 49  1  6
 49 95  1  0
 50 51  1  0
 51 52  1  0
 51 96  1  1
 52 54  1  1
 52 53  1  0
 53 54  1  0
 53 97  1  0
 53 98  1  0
M  END
>  <i_m_ct_stereo_status>  (125) 
1

>  <s_m_source_file>  (125) 
/var/tmp/pbs.5076253.sched01/tmp0k8q0ypy/944rjgrua_.sdf

>  <i_m_source_file_index>  (125) 
44

>  <i_lp_mmshare_version>  (125) 
48012

>  <i_f3d_flags>  (125) 
0

>  <s_epik_input>  (125) 
TzFbQ0BASF0yT1tDQEBdKE8zKShPNClbQ0BdKFtPSF0pKFtDQEBIXTVPW0NIM10pW0NAQEhdNVtDQEBdKFtDSDJdTzYpKFtPSF0pW0NASF02W0NASF0xW0NAQF0oTzcpKFtDSDNdKU9bQ0BASF04W0NAXShPOSkoQyg9W0NIMl0pW0NIM10pW0NAXShbQ0hdMSkoW09IXSlbQ0BIXTdbQ0BASF04W0NASF0yT1tDQEhdM1tDQEBdMihbQ0gyXU8yKVtDQEhdNEM9MVtDQEBdMTlbQ0gyXVtDSDJdT1tDQEhdMltDQEBIXShPW0NIMl0xKU9bQ0BIXShbQ0gzXSlPW0NIMl0y

>  <s_epik_cmdline>  (125) 
J2VwaWtfcHl0aG9uJywgJy1waHQnLCAnMi4wJywgJy1waCcsICc3LjAnLCAnLXRuJywgJzgnLCAnLW1hJywgJzIwMCcsICctaW1hZScsICc8aW5maWxlLm1hZT4nLCAnLW9tYWUnLCAnPG91dGZpbGUubWFlPic=

>  <r_lp_tautomer_probability>  (125) 
1

>  <r_epik_Ionization_Penalty>  (125) 
3.82813e-05

>  <r_epik_Ionization_Penalty_Charging>  (125) 
0

>  <r_epik_Ionization_Penalty_Neutral>  (125) 
3.82813e-05

>  <r_epik_State_Penalty>  (125) 
-0

>  <r_epik_Charging_Adjusted_Penalty>  (125) 
0

>  <i_epik_Tot_Q>  (125) 
0

>  <i_epik_Tot_abs_Q>  (125) 
0

>  <s_epik_Chemistry_Notes>  (125) 
This compound contains an acetal/aminal-like group ( X-CH(R)-Y where X, Y are N, S, or O) that may be acid/base labile, releasing an aldehyde.

>  <s_lp_Force_Field>  (125) 
OPLS3e

>  <r_lp_Energy>  (125) 
322.507

>  <b_lp_Chiralities_Consistent>  (125) 
1

>  <s_lp_Variant>  (125) 
83:0-2

>  <s_i_glide_gridfile>  (125) 
pfpi4k_grid

>  <i_i_glide_lignum>  (125) 
44

>  <i_i_glide_rotatable_bonds>  (125) 
5

>  <r_i_docking_score>  (125) 
-1.70887

>  <r_i_glide_ligand_efficiency>  (125) 
-0.0316457

>  <r_i_glide_ligand_efficiency_sa>  (125) 
-0.119613

>  <r_i_glide_ligand_efficiency_ln>  (125) 
-0.342529

>  <r_i_glide_gscore>  (125) 
-1.70887

>  <r_i_glide_lipo>  (125) 
-0.245123

>  <r_i_glide_hbond>  (125) 
0

>  <r_i_glide_metal>  (125) 
-0

>  <r_i_glide_rewards>  (125) 
-0.0276006

>  <r_i_glide_evdw>  (125) 
-27.4395

>  <r_i_glide_ecoul>  (125) 
0.0563902

>  <r_i_glide_erotb>  (125) 
0.0370496

>  <r_i_glide_esite>  (125) 
-0.109678

>  <r_i_glide_emodel>  (125) 
-22.5741

>  <r_i_glide_energy>  (125) 
-27.3831

>  <r_i_glide_einternal>  (125) 
12.2966

>  <r_i_glide_intrahb_reward>  (125) 
-0

>  <i_i_glide_confnum>  (125) 
5

>  <i_i_glide_posenum>  (125) 
5

>  <r_i_glide_eff_state_penalty>  (125) 
0

>  <ligand_id>  (125) 
83

>  <original_smiles>  (125) 
C=C(C)C12OC3(CCOC4COC(C)OC4OC3)C3=CC1(O)C1OC4(C)OC2C1C1OC2OC5(OC1OC4C1OCC1(O)C1C(OC)C15O)OC3C21CO1

>  <smiles>  (125) 
[H]OC12C([H])=C3C4([H])OC56OC7([H])OC([H])(C8([H])OC([H])([H])C8(O[H])C8([H])C([H])(OC([H])([H])[H])C58O[H])C5(C([H])([H])[H])OC1([H])C([H])(C7([H])OC([H])(O6)C41OC1([H])[H])C([H])(O5)C2(C(=C([H])[H])C([H])([H])[H])OC31C([H])([H])OC2([H])OC([H])(C([H])([H])[H])OC([H])([H])C2([H])OC([H])([H])C1([H])[H]

$$$$
83:1:1
     RDKit          3D

 98110  0  0  1  0  0  0  0  0999 V2000
    6.1028   -1.9515    8.2135 C   0  0  0  0  0  0  0  0  0  0  0  0
    5.3388   -1.8005    7.1027 C   0  0  0  0  0  0  0  0  0  0  0  0
    5.7880   -0.8044    6.0495 C   0  0  0  0  0  0  0  0  0  0  0  0
    3.9924   -2.5052    6.8292 C   0  0  2  0  0  0  0  0  0  0  0  0
    3.2068   -1.5275    6.1307 O   0  0  0  0  0  0  0  0  0  0  0  0
    1.8695   -1.7786    5.7172 C   0  0  2  0  0  0  0  0  0  0  0  0
    1.8652   -1.7997    4.1598 C   0  0  0  0  0  0  0  0  0  0  0  0
    2.3196   -0.5001    3.4361 C   0  0  0  0  0  0  0  0  0  0  0  0
    1.5962    0.6866    3.7229 O   0  0  0  0  0  0  0  0  0  0  0  0
    0.1906    0.6242    3.5246 C   0  0  2  0  0  0  0  0  0  0  0  0
   -0.2535    1.8680    2.7548 C   0  0  0  0  0  0  0  0  0  0  0  0
   -0.1331    3.0025    3.5924 O   0  0  0  0  0  0  0  0  0  0  0  0
   -0.7889    2.9224    4.8262 C   0  0  1  0  0  0  0  0  0  0  0  0
   -2.3134    3.0544    4.6683 C   0  0  0  0  0  0  0  0  0  0  0  0
   -0.4294    1.7895    5.5715 O   0  0  0  0  0  0  0  0  0  0  0  0
   -0.5784    0.5827    4.8647 C   0  0  2  0  0  0  0  0  0  0  0  0
   -0.2389   -0.5449    5.6334 O   0  0  0  0  0  0  0  0  0  0  0  0
    1.0684   -0.5557    6.2160 C   0  0  0  0  0  0  0  0  0  0  0  0
    1.3237   -3.0114    6.4469 C   0  0  0  0  0  0  0  0  0  0  0  0
    1.7412   -3.1503    7.7630 C   0  0  0  0  0  0  0  0  0  0  0  0
    3.2927   -3.0608    8.0850 C   0  0  2  0  0  0  0  0  0  0  0  0
    3.4293   -2.3000    9.2663 O   0  0  0  0  0  0  0  0  0  0  0  0
    3.9757   -4.5210    8.2517 C   0  0  2  0  0  0  0  0  0  0  0  0
    5.3812   -4.9866    7.8989 O   0  0  0  0  0  0  0  0  0  0  0  0
    5.9800   -5.0091    6.5449 C   0  0  2  0  0  0  0  0  0  0  0  0
    7.4659   -4.6668    6.7007 C   0  0  0  0  0  0  0  0  0  0  0  0
    5.4307   -4.0400    5.7553 O   0  0  0  0  0  0  0  0  0  0  0  0
    4.0781   -3.8718    6.0510 C   0  0  1  0  0  0  0  0  0  0  0  0
    3.4651   -5.0378    7.0215 C   0  0  1  0  0  0  0  0  0  0  0  0
    3.1649   -6.5686    6.9635 C   0  0  1  0  0  0  0  0  0  0  0  0
    1.7815   -6.9890    7.0931 O   0  0  0  0  0  0  0  0  0  0  0  0
    0.8462   -6.7223    6.0561 C   0  0  2  0  0  0  0  0  0  0  0  0
    1.2504   -6.9194    4.7054 O   0  0  0  0  0  0  0  0  0  0  0  0
    2.1423   -5.9261    4.2640 C   0  0  1  0  0  0  0  0  0  0  0  0
    3.3965   -6.0139    4.8169 O   0  0  0  0  0  0  0  0  0  0  0  0
    3.6584   -7.0512    5.6843 C   0  0  1  0  0  0  0  0  0  0  0  0
    4.9851   -7.3317    5.8795 O   0  0  0  0  0  0  0  0  0  0  0  0
    5.9350   -6.3387    5.5896 C   0  0  1  0  0  0  0  0  0  0  0  0
    6.1149   -6.0893    4.0115 C   0  0  1  0  0  0  0  0  0  0  0  0
    7.2331   -6.9749    3.6806 O   0  0  0  0  0  0  0  0  0  0  0  0
    6.4087   -7.7014    2.7087 C   0  0  0  0  0  0  0  0  0  0  0  0
    5.3269   -6.6426    2.7443 C   0  0  2  0  0  0  0  0  0  0  0  0
    5.4410   -5.8068    1.6063 O   0  0  0  0  0  0  0  0  0  0  0  0
    3.8516   -7.1423    2.7794 C   0  0  2  0  0  0  0  0  0  0  0  0
    2.7369   -7.2813    1.7902 C   0  0  1  0  0  0  0  0  0  0  0  0
    1.7645   -8.2503    2.1004 O   0  0  0  0  0  0  0  0  0  0  0  0
    2.0819   -9.5558    1.6508 C   0  0  0  0  0  0  0  0  0  0  0  0
    2.6259   -6.1575    2.8067 C   0  0  1  0  0  0  0  0  0  0  0  0
    2.8035   -4.9496    2.1067 O   0  0  0  0  0  0  0  0  0  0  0  0
    1.5125   -4.6360    4.3824 O   0  0  0  0  0  0  0  0  0  0  0  0
    0.7235   -4.1832    5.5454 C   0  0  1  0  0  0  0  0  0  0  0  0
    0.0990   -5.3943    6.2794 C   0  0  2  0  0  0  0  0  0  0  0  0
   -0.8272   -5.2509    7.4689 C   0  0  0  0  0  0  0  0  0  0  0  0
   -1.3252   -5.4487    6.1634 O   0  0  0  0  0  0  0  0  0  0  0  0
    7.0200   -1.3975    8.3309 H   0  0  0  0  0  0  0  0  0  0  0  0
    5.8303   -2.6227    9.0100 H   0  0  0  0  0  0  0  0  0  0  0  0
    5.7408   -1.2502    5.0606 H   0  0  0  0  0  0  0  0  0  0  0  0
    6.8055   -0.4527    6.2319 H   0  0  0  0  0  0  0  0  0  0  0  0
    5.1321    0.0727    6.0720 H   0  0  0  0  0  0  0  0  0  0  0  0
    2.5391   -2.5554    3.7816 H   0  0  0  0  0  0  0  0  0  0  0  0
    0.8752   -2.0777    3.7917 H   0  0  0  0  0  0  0  0  0  0  0  0
    3.3678   -0.2997    3.6641 H   0  0  0  0  0  0  0  0  0  0  0  0
    2.2666   -0.6615    2.3574 H   0  0  0  0  0  0  0  0  0  0  0  0
   -0.1055   -0.2593    2.9500 H   0  0  0  0  0  0  0  0  0  0  0  0
    0.3653    2.0052    1.8704 H   0  0  0  0  0  0  0  0  0  0  0  0
   -1.2717    1.7509    2.3866 H   0  0  0  0  0  0  0  0  0  0  0  0
   -0.4183    3.7849    5.3807 H   0  0  0  0  0  0  0  0  0  0  0  0
   -2.7427    2.2807    4.0330 H   0  0  0  0  0  0  0  0  0  0  0  0
   -2.5509    4.0214    4.2232 H   0  0  0  0  0  0  0  0  0  0  0  0
   -2.7990    3.0048    5.6484 H   0  0  0  0  0  0  0  0  0  0  0  0
   -1.6350    0.4511    4.6578 H   0  0  0  0  0  0  0  0  0  0  0  0
    0.9594   -0.5802    7.2998 H   0  0  0  0  0  0  0  0  0  0  0  0
    1.6182    0.3730    6.0309 H   0  0  0  0  0  0  0  0  0  0  0  0
    1.3458   -3.9703    8.3408 H   0  0  0  0  0  0  0  0  0  0  0  0
    3.1522   -1.4219    9.0726 H   0  0  0  0  0  0  0  0  0  0  0  0
    3.5679   -5.0405    9.1283 H   0  0  0  0  0  0  0  0  0  0  0  0
    7.6339   -3.7013    7.1766 H   0  0  0  0  0  0  0  0  0  0  0  0
    7.9338   -4.6672    5.7181 H   0  0  0  0  0  0  0  0  0  0  0  0
    7.9564   -5.4390    7.3103 H   0  0  0  0  0  0  0  0  0  0  0  0
    3.5782   -3.7508    5.1043 H   0  0  0  0  0  0  0  0  0  0  0  0
    2.4446   -5.0235    6.9472 H   0  0  0  0  0  0  0  0  0  0  0  0
    3.6744   -7.1021    7.7655 H   0  0  0  0  0  0  0  0  0  0  0  0
    0.1239   -7.5303    6.1800 H   0  0  0  0  0  0  0  0  0  0  0  0
    3.1883   -8.0141    5.4032 H   0  0  0  0  0  0  0  0  0  0  0  0
    6.8177   -6.8700    5.9436 H   0  0  0  0  0  0  0  0  0  0  0  0
    6.3743   -5.0621    3.7917 H   0  0  0  0  0  0  0  0  0  0  0  0
    6.8843   -7.7476    1.7350 H   0  0  0  0  0  0  0  0  0  0  0  0
    6.0740   -8.6641    3.0807 H   0  0  0  0  0  0  0  0  0  0  0  0
    4.7971   -5.1271    1.7039 H   0  0  0  0  0  0  0  0  0  0  0  0
    3.8051   -8.0005    3.4343 H   0  0  0  0  0  0  0  0  0  0  0  0
    2.8694   -7.0122    0.7288 H   0  0  0  0  0  0  0  0  0  0  0  0
    1.2438  -10.2264    1.8510 H   0  0  0  0  0  0  0  0  0  0  0  0
    2.9673   -9.9610    2.1456 H   0  0  0  0  0  0  0  0  0  0  0  0
    2.2562   -9.5396    0.5753 H   0  0  0  0  0  0  0  0  0  0  0  0
    3.2180   -4.3708    2.7207 H   0  0  0  0  0  0  0  0  0  0  0  0
   -0.1221   -3.6800    5.0919 H   0  0  0  0  0  0  0  0  0  0  0  0
   -0.9594   -6.0941    8.1326 H   0  0  0  0  0  0  0  0  0  0  0  0
   -1.0909   -4.2684    7.8734 H   0  0  0  0  0  0  0  0  0  0  0  0
  1  2  2  0
  1 55  1  0
  1 56  1  0
  2  3  1  0
  4  2  1  1
  3 57  1  0
  3 58  1  0
  3 59  1  0
  4 21  1  0
  4 28  1  0
  4  5  1  0
  6  5  1  1
  6 18  1  0
  6  7  1  0
  6 19  1  0
  7  8  1  0
  7 60  1  0
  7 61  1  0
  8  9  1  0
  8 62  1  0
  8 63  1  0
  9 10  1  0
 10 16  1  0
 10 11  1  0
 10 64  1  6
 11 12  1  0
 11 65  1  0
 11 66  1  0
 12 13  1  0
 13 14  1  0
 13 15  1  0
 13 67  1  1
 14 68  1  0
 14 69  1  0
 14 70  1  0
 15 16  1  0
 16 17  1  0
 16 71  1  6
 17 18  1  0
 18 72  1  0
 18 73  1  0
 19 51  1  0
 19 20  2  0
 20 21  1  0
 20 74  1  0
 21 22  1  1
 21 23  1  0
 22 75  1  0
 23 29  1  0
 23 24  1  0
 23 76  1  1
 24 25  1  0
 25 38  1  0
 25 26  1  1
 25 27  1  0
 26 77  1  0
 26 78  1  0
 26 79  1  0
 27 28  1  0
 28 29  1  0
 28 80  1  6
 29 30  1  0
 29 81  1  1
 30 36  1  0
 30 31  1  0
 30 82  1  1
 31 32  1  0
 32 52  1  0
 32 33  1  0
 32 83  1  1
 33 34  1  0
 34 48  1  0
 34 35  1  0
 34 50  1  6
 35 36  1  0
 36 37  1  0
 36 84  1  6
 37 38  1  0
 38 39  1  0
 38 85  1  1
 39 42  1  0
 39 40  1  0
 39 86  1  1
 40 41  1  0
 41 42  1  0
 41 87  1  0
 41 88  1  0
 42 43  1  6
 42 44  1  0
 43 89  1  0
 44 48  1  0
 44 45  1  0
 44 90  1  1
 45 46  1  0
 45 48  1  0
 45 91  1  6
 46 47  1  0
 47 92  1  0
 47 93  1  0
 47 94  1  0
 48 49  1  6
 49 95  1  0
 50 51  1  0
 51 52  1  0
 51 96  1  6
 52 54  1  6
 52 53  1  0
 53 54  1  0
 53 97  1  0
 53 98  1  0
M  END
>  <i_m_ct_stereo_status>  (126) 
1

>  <s_m_source_file>  (126) 
/var/tmp/pbs.5076253.sched01/tmp0k8q0ypy/944rjgrua_.sdf

>  <i_m_source_file_index>  (126) 
44

>  <i_lp_mmshare_version>  (126) 
48012

>  <i_f3d_flags>  (126) 
0

>  <s_epik_input>  (126) 
TzFbQ0BASF0yT1tDQEBdKE8zKShPNClbQ0BdKFtPSF0pKFtDQEBIXTVPW0NIM10pW0NAQEhdNVtDQEBdKFtDSDJdTzYpKFtPSF0pW0NASF02W0NASF0xW0NAQF0oTzcpKFtDSDNdKU9bQ0BASF04W0NAXShPOSkoQyg9W0NIMl0pW0NIM10pW0NAXShbQ0hdMSkoW09IXSlbQ0BIXTdbQ0BASF04W0NASF0yT1tDQEhdM1tDQEBdMihbQ0gyXU8yKVtDQEhdNEM9MVtDQEBdMTlbQ0gyXVtDSDJdT1tDQEhdMltDQEBIXShPW0NIMl0xKU9bQ0BIXShbQ0gzXSlPW0NIMl0y

>  <s_epik_cmdline>  (126) 
J2VwaWtfcHl0aG9uJywgJy1waHQnLCAnMi4wJywgJy1waCcsICc3LjAnLCAnLXRuJywgJzgnLCAnLW1hJywgJzIwMCcsICctaW1hZScsICc8aW5maWxlLm1hZT4nLCAnLW9tYWUnLCAnPG91dGZpbGUubWFlPic=

>  <r_lp_tautomer_probability>  (126) 
1

>  <r_epik_Ionization_Penalty>  (126) 
3.82813e-05

>  <r_epik_Ionization_Penalty_Charging>  (126) 
0

>  <r_epik_Ionization_Penalty_Neutral>  (126) 
3.82813e-05

>  <r_epik_State_Penalty>  (126) 
-0

>  <r_epik_Charging_Adjusted_Penalty>  (126) 
0

>  <i_epik_Tot_Q>  (126) 
0

>  <i_epik_Tot_abs_Q>  (126) 
0

>  <s_epik_Chemistry_Notes>  (126) 
This compound contains an acetal/aminal-like group ( X-CH(R)-Y where X, Y are N, S, or O) that may be acid/base labile, releasing an aldehyde.

>  <s_lp_Force_Field>  (126) 
OPLS3e

>  <r_lp_Energy>  (126) 
322.507

>  <b_lp_Chiralities_Consistent>  (126) 
1

>  <s_lp_Variant>  (126) 
83:0-2

>  <s_i_glide_gridfile>  (126) 
pfpi4k_grid

>  <i_i_glide_lignum>  (126) 
44

>  <i_i_glide_rotatable_bonds>  (126) 
5

>  <r_i_docking_score>  (126) 
-1.59585

>  <r_i_glide_ligand_efficiency>  (126) 
-0.0295528

>  <r_i_glide_ligand_efficiency_sa>  (126) 
-0.111702

>  <r_i_glide_ligand_efficiency_ln>  (126) 
-0.319875

>  <r_i_glide_gscore>  (126) 
-1.59585

>  <r_i_glide_lipo>  (126) 
-0.288931

>  <r_i_glide_hbond>  (126) 
0

>  <r_i_glide_metal>  (126) 
-0

>  <r_i_glide_rewards>  (126) 
0

>  <r_i_glide_evdw>  (126) 
-24.3007

>  <r_i_glide_ecoul>  (126) 
-0.587919

>  <r_i_glide_erotb>  (126) 
0.0370496

>  <r_i_glide_esite>  (126) 
-0.0407449

>  <r_i_glide_emodel>  (126) 
-26.2278

>  <r_i_glide_energy>  (126) 
-24.8886

>  <r_i_glide_einternal>  (126) 
1.27802

>  <r_i_glide_intrahb_reward>  (126) 
-0

>  <i_i_glide_confnum>  (126) 
1

>  <i_i_glide_posenum>  (126) 
7

>  <r_i_glide_eff_state_penalty>  (126) 
0

>  <ligand_id>  (126) 
83

>  <original_smiles>  (126) 
C=C(C)C12OC3(CCOC4COC(C)OC4OC3)C3=CC1(O)C1OC4(C)OC2C1C1OC2OC5(OC1OC4C1OCC1(O)C1C(OC)C15O)OC3C21CO1

>  <smiles>  (126) 
[H]OC12C([H])=C3C4([H])OC56OC7([H])OC([H])(C8([H])OC([H])([H])C8(O[H])C8([H])C([H])(OC([H])([H])[H])C58O[H])C5(C([H])([H])[H])OC1([H])C([H])(C7([H])OC([H])(O6)C41OC1([H])[H])C([H])(O5)C2(C(=C([H])[H])C([H])([H])[H])OC31C([H])([H])OC2([H])OC([H])(C([H])([H])[H])OC([H])([H])C2([H])OC([H])([H])C1([H])[H]

$$$$
83:1:2
     RDKit          3D

 98110  0  0  1  0  0  0  0  0999 V2000
    6.3946   -2.1659    6.9724 C   0  0  0  0  0  0  0  0  0  0  0  0
    5.3133   -1.8778    6.2263 C   0  0  0  0  0  0  0  0  0  0  0  0
    5.4195   -0.7122    5.2665 C   0  0  0  0  0  0  0  0  0  0  0  0
    3.8961   -2.4888    6.4064 C   0  0  2  0  0  0  0  0  0  0  0  0
    3.0027   -1.5500    5.7311 O   0  0  0  0  0  0  0  0  0  0  0  0
    1.5939   -1.7035    5.7053 C   0  0  2  0  0  0  0  0  0  0  0  0
    1.2085   -1.9706    4.2150 C   0  0  0  0  0  0  0  0  0  0  0  0
    1.5656   -0.8675    3.1853 C   0  0  0  0  0  0  0  0  0  0  0  0
    1.0293    0.4289    3.4304 O   0  0  0  0  0  0  0  0  0  0  0  0
   -0.3824    0.5020    3.5939 C   0  0  2  0  0  0  0  0  0  0  0  0
   -0.9067    1.6509    2.7216 C   0  0  0  0  0  0  0  0  0  0  0  0
   -0.5016    2.8941    3.2860 O   0  0  0  0  0  0  0  0  0  0  0  0
   -0.8129    3.0817    4.6311 C   0  0  1  0  0  0  0  0  0  0  0  0
   -2.3222    3.3714    4.8241 C   0  0  0  0  0  0  0  0  0  0  0  0
   -0.3750    2.0448    5.4667 O   0  0  0  0  0  0  0  0  0  0  0  0
   -0.7790    0.7758    5.0587 C   0  0  2  0  0  0  0  0  0  0  0  0
   -0.3532   -0.2434    5.9152 O   0  0  0  0  0  0  0  0  0  0  0  0
    1.0539   -0.3209    6.1518 C   0  0  0  0  0  0  0  0  0  0  0  0
    1.1716   -2.7375    6.7577 C   0  0  0  0  0  0  0  0  0  0  0  0
    1.8913   -2.6981    7.9365 C   0  0  0  0  0  0  0  0  0  0  0  0
    3.4885   -2.7593    7.8645 C   0  0  2  0  0  0  0  0  0  0  0  0
    4.0247   -1.8495    8.8006 O   0  0  0  0  0  0  0  0  0  0  0  0
    4.0925   -4.2663    8.1262 C   0  0  2  0  0  0  0  0  0  0  0  0
    5.3406   -4.9325    7.5469 O   0  0  0  0  0  0  0  0  0  0  0  0
    5.5671   -5.2379    6.1056 C   0  0  2  0  0  0  0  0  0  0  0  0
    7.1010   -5.0517    5.8452 C   0  0  0  0  0  0  0  0  0  0  0  0
    4.9186   -4.3250    5.3233 O   0  0  0  0  0  0  0  0  0  0  0  0
    3.6792   -3.9742    5.8973 C   0  0  1  0  0  0  0  0  0  0  0  0
    3.2204   -4.8934    7.1764 C   0  0  1  0  0  0  0  0  0  0  0  0
    2.8026   -6.3662    7.4598 C   0  0  1  0  0  0  0  0  0  0  0  0
    1.4660   -6.5899    7.9814 O   0  0  0  0  0  0  0  0  0  0  0  0
    0.3174   -6.3790    7.1664 C   0  0  2  0  0  0  0  0  0  0  0  0
    0.3764   -6.8286    5.8358 O   0  0  0  0  0  0  0  0  0  0  0  0
    1.1728   -6.0401    5.0141 C   0  0  1  0  0  0  0  0  0  0  0  0
    2.5251   -6.1893    5.2810 O   0  0  0  0  0  0  0  0  0  0  0  0
    2.9228   -7.1186    6.2236 C   0  0  1  0  0  0  0  0  0  0  0  0
    4.2444   -7.5085    6.1263 O   0  0  0  0  0  0  0  0  0  0  0  0
    5.1493   -6.6750    5.4374 C   0  0  1  0  0  0  0  0  0  0  0  0
    4.9546   -6.7128    3.8462 C   0  0  1  0  0  0  0  0  0  0  0  0
    5.8621   -7.7474    3.3812 O   0  0  0  0  0  0  0  0  0  0  0  0
    4.7725   -8.4991    2.8074 C   0  0  0  0  0  0  0  0  0  0  0  0
    3.8051   -7.3277    2.9246 C   0  0  2  0  0  0  0  0  0  0  0  0
    3.6530   -6.6501    1.6913 O   0  0  0  0  0  0  0  0  0  0  0  0
    2.3681   -7.6579    3.3904 C   0  0  2  0  0  0  0  0  0  0  0  0
    1.0293   -7.8214    2.7494 C   0  0  1  0  0  0  0  0  0  0  0  0
    0.0874   -8.6268    3.4442 O   0  0  0  0  0  0  0  0  0  0  0  0
    0.2130  -10.0118    3.1637 C   0  0  0  0  0  0  0  0  0  0  0  0
    1.2623   -6.5397    3.5451 C   0  0  1  0  0  0  0  0  0  0  0  0
    1.2713   -5.4604    2.6246 O   0  0  0  0  0  0  0  0  0  0  0  0
    0.7253   -4.6678    5.0491 O   0  0  0  0  0  0  0  0  0  0  0  0
    0.2654   -3.9596    6.2616 C   0  0  1  0  0  0  0  0  0  0  0  0
   -0.2557   -4.9515    7.3116 C   0  0  2  0  0  0  0  0  0  0  0  0
   -0.8471   -4.5255    8.6356 C   0  0  0  0  0  0  0  0  0  0  0  0
   -1.6750   -4.8607    7.5258 O   0  0  0  0  0  0  0  0  0  0  0  0
    7.3270   -1.6574    6.7629 H   0  0  0  0  0  0  0  0  0  0  0  0
    6.4046   -2.9865    7.7300 H   0  0  0  0  0  0  0  0  0  0  0  0
    4.9843   -0.9693    4.2810 H   0  0  0  0  0  0  0  0  0  0  0  0
    6.4507   -0.3998    5.1047 H   0  0  0  0  0  0  0  0  0  0  0  0
    4.9009    0.1791    5.6525 H   0  0  0  0  0  0  0  0  0  0  0  0
    1.7241   -2.8545    3.8455 H   0  0  0  0  0  0  0  0  0  0  0  0
    0.1465   -2.1977    4.1369 H   0  0  0  0  0  0  0  0  0  0  0  0
    2.6474   -0.7534    3.1177 H   0  0  0  0  0  0  0  0  0  0  0  0
    1.2383   -1.1823    2.1950 H   0  0  0  0  0  0  0  0  0  0  0  0
   -0.8797   -0.4104    3.2969 H   0  0  0  0  0  0  0  0  0  0  0  0
   -0.5109    1.5814    1.7116 H   0  0  0  0  0  0  0  0  0  0  0  0
   -1.9914    1.6110    2.6229 H   0  0  0  0  0  0  0  0  0  0  0  0
   -0.2603    3.9780    4.9239 H   0  0  0  0  0  0  0  0  0  0  0  0
   -2.9530    2.5699    4.4436 H   0  0  0  0  0  0  0  0  0  0  0  0
   -2.5504    4.2779    4.2730 H   0  0  0  0  0  0  0  0  0  0  0  0
   -2.5452    3.5346    5.8805 H   0  0  0  0  0  0  0  0  0  0  0  0
   -1.8639    0.7449    5.1377 H   0  0  0  0  0  0  0  0  0  0  0  0
    1.2253   -0.1708    7.2188 H   0  0  0  0  0  0  0  0  0  0  0  0
    1.6110    0.4921    5.6884 H   0  0  0  0  0  0  0  0  0  0  0  0
    1.5669   -3.3536    8.7450 H   0  0  0  0  0  0  0  0  0  0  0  0
    3.6990   -0.9916    8.5852 H   0  0  0  0  0  0  0  0  0  0  0  0
    3.8776   -4.5769    9.1529 H   0  0  0  0  0  0  0  0  0  0  0  0
    7.4106   -4.0824    6.1151 H   0  0  0  0  0  0  0  0  0  0  0  0
    7.2765   -5.3323    4.7853 H   0  0  0  0  0  0  0  0  0  0  0  0
    7.6255   -5.8597    6.3975 H   0  0  0  0  0  0  0  0  0  0  0  0
    2.9701   -3.9517    5.0807 H   0  0  0  0  0  0  0  0  0  0  0  0
    2.2160   -4.7490    7.3652 H   0  0  0  0  0  0  0  0  0  0  0  0
    3.4468   -6.8179    8.2096 H   0  0  0  0  0  0  0  0  0  0  0  0
   -0.4071   -7.0545    7.6185 H   0  0  0  0  0  0  0  0  0  0  0  0
    2.3351   -8.0365    6.2334 H   0  0  0  0  0  0  0  0  0  0  0  0
    6.0360   -7.2680    5.6362 H   0  0  0  0  0  0  0  0  0  0  0  0
    5.2468   -5.7529    3.4016 H   0  0  0  0  0  0  0  0  0  0  0  0
    4.9747   -8.8066    1.7787 H   0  0  0  0  0  0  0  0  0  0  0  0
    4.5033   -9.3540    3.4393 H   0  0  0  0  0  0  0  0  0  0  0  0
    4.5235   -6.5713    1.3325 H   0  0  0  0  0  0  0  0  0  0  0  0
    2.4411   -8.4164    4.1734 H   0  0  0  0  0  0  0  0  0  0  0  0
    0.9303   -7.7890    1.6699 H   0  0  0  0  0  0  0  0  0  0  0  0
   -0.5798  -10.5656    3.6767 H   0  0  0  0  0  0  0  0  0  0  0  0
    1.1797  -10.3885    3.5053 H   0  0  0  0  0  0  0  0  0  0  0  0
    0.1114  -10.1954    2.0960 H   0  0  0  0  0  0  0  0  0  0  0  0
    2.1192   -5.0720    2.7651 H   0  0  0  0  0  0  0  0  0  0  0  0
   -0.6263   -3.4324    5.9092 H   0  0  0  0  0  0  0  0  0  0  0  0
   -0.8957   -5.2517    9.4486 H   0  0  0  0  0  0  0  0  0  0  0  0
   -0.8817   -3.4806    8.9207 H   0  0  0  0  0  0  0  0  0  0  0  0
  1  2  2  0
  1 55  1  0
  1 56  1  0
  2  3  1  0
  4  2  1  1
  3 57  1  0
  3 58  1  0
  3 59  1  0
  4 21  1  0
  4 28  1  0
  4  5  1  0
  6  5  1  6
  6 18  1  0
  6  7  1  0
  6 19  1  0
  7  8  1  0
  7 60  1  0
  7 61  1  0
  8  9  1  0
  8 62  1  0
  8 63  1  0
  9 10  1  0
 10 16  1  0
 10 11  1  0
 10 64  1  6
 11 12  1  0
 11 65  1  0
 11 66  1  0
 12 13  1  0
 13 14  1  0
 13 15  1  0
 13 67  1  1
 14 68  1  0
 14 69  1  0
 14 70  1  0
 15 16  1  0
 16 17  1  0
 16 71  1  6
 17 18  1  0
 18 72  1  0
 18 73  1  0
 19 51  1  0
 19 20  2  0
 20 21  1  0
 20 74  1  0
 21 22  1  1
 21 23  1  0
 22 75  1  0
 23 29  1  0
 23 24  1  0
 23 76  1  1
 24 25  1  0
 25 38  1  0
 25 26  1  1
 25 27  1  0
 26 77  1  0
 26 78  1  0
 26 79  1  0
 27 28  1  0
 28 29  1  0
 28 80  1  6
 29 30  1  0
 29 81  1  1
 30 36  1  0
 30 31  1  0
 30 82  1  1
 31 32  1  0
 32 52  1  0
 32 33  1  0
 32 83  1  1
 33 34  1  0
 34 48  1  0
 34 35  1  0
 34 50  1  6
 35 36  1  0
 36 37  1  0
 36 84  1  1
 37 38  1  0
 38 39  1  0
 38 85  1  6
 39 42  1  0
 39 40  1  0
 39 86  1  6
 40 41  1  0
 41 42  1  0
 41 87  1  0
 41 88  1  0
 42 43  1  6
 42 44  1  0
 43 89  1  0
 44 48  1  0
 44 45  1  0
 44 90  1  1
 45 46  1  0
 45 48  1  0
 45 91  1  6
 46 47  1  0
 47 92  1  0
 47 93  1  0
 47 94  1  0
 48 49  1  6
 49 95  1  0
 50 51  1  0
 51 52  1  0
 51 96  1  6
 52 54  1  6
 52 53  1  0
 53 54  1  0
 53 97  1  0
 53 98  1  0
M  END
>  <i_m_ct_stereo_status>  (127) 
1

>  <s_m_source_file>  (127) 
/var/tmp/pbs.5076253.sched01/tmp0k8q0ypy/944rjgrua_.sdf

>  <i_m_source_file_index>  (127) 
44

>  <i_lp_mmshare_version>  (127) 
48012

>  <i_f3d_flags>  (127) 
0

>  <s_epik_input>  (127) 
TzFbQ0BASF0yT1tDQEBdKE8zKShPNClbQ0BdKFtPSF0pKFtDQEBIXTVPW0NIM10pW0NAQEhdNVtDQEBdKFtDSDJdTzYpKFtPSF0pW0NASF02W0NASF0xW0NAQF0oTzcpKFtDSDNdKU9bQ0BASF04W0NAXShPOSkoQyg9W0NIMl0pW0NIM10pW0NAXShbQ0hdMSkoW09IXSlbQ0BIXTdbQ0BASF04W0NASF0yT1tDQEhdM1tDQEBdMihbQ0gyXU8yKVtDQEhdNEM9MVtDQEBdMTlbQ0gyXVtDSDJdT1tDQEhdMltDQEBIXShPW0NIMl0xKU9bQ0BIXShbQ0gzXSlPW0NIMl0y

>  <s_epik_cmdline>  (127) 
J2VwaWtfcHl0aG9uJywgJy1waHQnLCAnMi4wJywgJy1waCcsICc3LjAnLCAnLXRuJywgJzgnLCAnLW1hJywgJzIwMCcsICctaW1hZScsICc8aW5maWxlLm1hZT4nLCAnLW9tYWUnLCAnPG91dGZpbGUubWFlPic=

>  <r_lp_tautomer_probability>  (127) 
1

>  <r_epik_Ionization_Penalty>  (127) 
3.82813e-05

>  <r_epik_Ionization_Penalty_Charging>  (127) 
0

>  <r_epik_Ionization_Penalty_Neutral>  (127) 
3.82813e-05

>  <r_epik_State_Penalty>  (127) 
-0

>  <r_epik_Charging_Adjusted_Penalty>  (127) 
0

>  <i_epik_Tot_Q>  (127) 
0

>  <i_epik_Tot_abs_Q>  (127) 
0

>  <s_epik_Chemistry_Notes>  (127) 
This compound contains an acetal/aminal-like group ( X-CH(R)-Y where X, Y are N, S, or O) that may be acid/base labile, releasing an aldehyde.

>  <s_lp_Force_Field>  (127) 
OPLS3e

>  <r_lp_Energy>  (127) 
322.507

>  <b_lp_Chiralities_Consistent>  (127) 
1

>  <s_lp_Variant>  (127) 
83:0-2

>  <s_i_glide_gridfile>  (127) 
pfpi4k_grid

>  <i_i_glide_lignum>  (127) 
44

>  <i_i_glide_rotatable_bonds>  (127) 
5

>  <r_i_docking_score>  (127) 
-1.51609

>  <r_i_glide_ligand_efficiency>  (127) 
-0.0280758

>  <r_i_glide_ligand_efficiency_sa>  (127) 
-0.10612

>  <r_i_glide_ligand_efficiency_ln>  (127) 
-0.303888

>  <r_i_glide_gscore>  (127) 
-1.51609

>  <r_i_glide_lipo>  (127) 
-0.100185

>  <r_i_glide_hbond>  (127) 
0

>  <r_i_glide_metal>  (127) 
-0

>  <r_i_glide_rewards>  (127) 
-0.000182861

>  <r_i_glide_evdw>  (127) 
-27.0986

>  <r_i_glide_ecoul>  (127) 
-0.308577

>  <r_i_glide_erotb>  (127) 
0.0370496

>  <r_i_glide_esite>  (127) 
-0.051558

>  <r_i_glide_emodel>  (127) 
-26.7813

>  <r_i_glide_energy>  (127) 
-27.4072

>  <r_i_glide_einternal>  (127) 
3.11998

>  <r_i_glide_intrahb_reward>  (127) 
-0

>  <i_i_glide_confnum>  (127) 
4

>  <i_i_glide_posenum>  (127) 
33

>  <r_i_glide_eff_state_penalty>  (127) 
0

>  <ligand_id>  (127) 
83

>  <original_smiles>  (127) 
C=C(C)C12OC3(CCOC4COC(C)OC4OC3)C3=CC1(O)C1OC4(C)OC2C1C1OC2OC5(OC1OC4C1OCC1(O)C1C(OC)C15O)OC3C21CO1

>  <smiles>  (127) 
[H]OC12C([H])=C3C4([H])OC56OC7([H])OC([H])(C8([H])OC([H])([H])C8(O[H])C8([H])C([H])(OC([H])([H])[H])C58O[H])C5(C([H])([H])[H])OC1([H])C([H])(C7([H])OC([H])(O6)C41OC1([H])[H])C([H])(O5)C2(C(=C([H])[H])C([H])([H])[H])OC31C([H])([H])OC2([H])OC([H])(C([H])([H])[H])OC([H])([H])C2([H])OC([H])([H])C1([H])[H]

$$$$
87:0:0
     RDKit          3D

122136  0  0  1  0  0  0  0  0999 V2000
   -0.5112   -5.1273   10.9713 C   0  0  0  0  0  0  0  0  0  0  0  0
   -0.2985   -3.8309   10.4179 O   0  0  0  0  0  0  0  0  0  0  0  0
    0.9674   -3.6230    9.8659 C   0  0  2  0  0  0  0  0  0  0  0  0
    1.9081   -3.1131   11.0144 C   0  0  0  0  0  0  0  0  0  0  0  0
    3.4232   -2.9974   10.6671 C   0  0  0  0  0  0  0  0  0  0  0  0
    3.8850   -2.0650    9.5023 C   0  0  2  0  0  0  0  0  0  0  0  0
    3.0496   -0.7939    9.4611 C   0  0  0  0  0  0  0  0  0  0  0  0
    2.7948   -0.3345    8.0365 C   0  0  2  0  0  0  0  0  0  0  0  0
    2.0696   -1.4136    7.2874 O   0  0  0  0  0  0  0  0  0  0  0  0
    1.7017   -2.7281    7.7776 C   0  0  1  0  0  0  0  0  0  0  0  0
    1.0192   -3.5887    6.6392 C   0  0  0  0  0  0  0  0  0  0  0  0
    1.9561   -4.4297    5.8760 O   0  0  0  0  0  0  0  0  0  0  0  0
    2.9899   -3.6731    5.2106 C   0  0  1  0  0  0  0  0  0  0  0  0
    4.3595   -3.6547    5.9277 C   0  0  2  0  0  0  0  0  0  0  0  0
    4.8424   -5.0788    5.8000 C   0  0  0  0  0  0  0  0  0  0  0  0
    4.3866   -5.2565    4.3056 C   0  0  1  0  0  0  0  0  0  0  0  0
    3.5071   -6.3905    4.2885 O   0  0  0  0  0  0  0  0  0  0  0  0
    2.8908   -6.7891    3.0381 C   0  0  1  0  0  0  0  0  0  0  0  0
    3.9443   -7.0449    1.9428 C   0  0  0  0  0  0  0  0  0  0  0  0
    4.1305   -5.8411    1.2145 O   0  0  0  0  0  0  0  0  0  0  0  0
    2.1231   -8.0118    3.2339 O   0  0  0  0  0  0  0  0  0  0  0  0
    0.9023   -7.2646    3.3072 C   0  0  2  0  0  0  0  0  0  0  0  0
   -0.0998   -7.7373    2.3166 C   0  0  1  0  0  0  0  0  0  0  0  0
   -1.3434   -7.0987    2.5371 O   0  0  0  0  0  0  0  0  0  0  0  0
    0.4725   -7.1992    1.0066 C   0  0  0  0  0  0  0  0  0  0  0  0
    1.1718   -6.0018    1.3665 O   0  0  0  0  0  0  0  0  0  0  0  0
    1.5842   -6.0588    2.7351 C   0  0  2  0  0  0  0  0  0  0  0  0
    3.5312   -3.9830    3.8096 C   0  0  1  0  0  0  0  0  0  0  0  0
    3.4369   -2.5160    3.2609 C   0  0  0  0  0  0  0  0  0  0  0  0
    4.2508   -1.5616    4.1713 C   0  0  2  0  0  0  0  0  0  0  0  0
    5.3897   -2.2393    3.7792 O   0  0  0  0  0  0  0  0  0  0  0  0
    4.8924   -3.6580    3.3203 O   0  0  0  0  0  0  0  0  0  0  0  0
    3.9461   -1.4849    5.6512 O   0  0  0  0  0  0  0  0  0  0  0  0
    4.4760   -2.3792    6.7364 C   0  0  2  0  0  0  0  0  0  0  0  0
    5.6592   -1.5653    7.0620 C   0  0  0  0  0  0  0  0  0  0  0  0
    5.4840   -0.2377    7.3471 C   0  0  0  0  0  0  0  0  0  0  0  0
    6.7931    0.4853    7.6916 C   0  0  0  0  0  0  0  0  0  0  0  0
    6.9136    1.8327    7.2861 O   0  0  0  0  0  0  0  0  0  0  0  0
    6.2717    2.1907    6.0805 C   0  0  0  0  0  0  0  0  0  0  0  0
    4.8155    2.6104    6.4086 C   0  0  2  0  0  0  0  0  0  0  0  0
    4.5409    3.9685    5.7162 C   0  0  0  0  0  0  0  0  0  0  0  0
    4.7371    2.8681    7.7960 O   0  0  0  0  0  0  0  0  0  0  0  0
    4.2794    1.7096    8.4811 C   0  0  0  0  0  0  0  0  0  0  0  0
    4.0679    0.5399    7.4732 C   0  0  2  0  0  0  0  0  0  0  0  0
    3.7808    1.4526    6.1945 C   0  0  1  0  0  0  0  0  0  0  0  0
    2.3296    2.0544    5.9084 C   0  0  2  0  0  0  0  0  0  0  0  0
    1.9376    2.7222    7.1397 O   0  0  0  0  0  0  0  0  0  0  0  0
    1.1082    3.9232    7.1516 C   0  0  2  0  0  0  0  0  0  0  0  0
   -0.2085    3.7830    7.8002 O   0  0  0  0  0  0  0  0  0  0  0  0
   -0.5942    3.1091    6.5918 C   0  0  2  0  0  0  0  0  0  0  0  0
   -1.8157    2.9153    5.7461 C   0  0  0  0  0  0  0  0  0  0  0  0
   -1.0858    2.1161    4.7774 O   0  0  0  0  0  0  0  0  0  0  0  0
   -0.3120    1.2577    5.5902 C   0  0  1  0  0  0  0  0  0  0  0  0
   -0.3890    1.6829    6.8607 O   0  0  0  0  0  0  0  0  0  0  0  0
   -0.7694   -0.1804    5.3009 C   0  0  1  0  0  0  0  0  0  0  0  0
   -2.2778   -0.3881    5.2815 C   0  0  0  0  0  0  0  0  0  0  0  0
   -0.0375   -0.4506    3.9482 C   0  0  0  0  0  0  0  0  0  0  0  0
    1.1902    0.5253    3.8883 C   0  0  0  0  0  0  0  0  0  0  0  0
    1.2198    1.0868    5.3018 C   0  0  1  0  0  0  0  0  0  0  0  0
    0.3700    4.0770    5.8419 C   0  0  1  0  0  0  0  0  0  0  0  0
   -0.0906    5.3644    5.5045 O   0  0  0  0  0  0  0  0  0  0  0  0
    3.9620   -2.8522    8.1633 C   0  0  2  0  0  0  0  0  0  0  0  0
    2.7778   -3.5288    8.0556 O   0  0  0  0  0  0  0  0  0  0  0  0
    0.8135   -2.6351    8.8710 O   0  0  0  0  0  0  0  0  0  0  0  0
   -1.4864   -5.1686   11.4564 H   0  0  0  0  0  0  0  0  0  0  0  0
    0.2380   -5.3966   11.7199 H   0  0  0  0  0  0  0  0  0  0  0  0
   -0.4940   -5.8821   10.1817 H   0  0  0  0  0  0  0  0  0  0  0  0
    1.2857   -4.5782    9.4320 H   0  0  0  0  0  0  0  0  0  0  0  0
    1.4926   -2.1988   11.4377 H   0  0  0  0  0  0  0  0  0  0  0  0
    1.8463   -3.8289   11.8326 H   0  0  0  0  0  0  0  0  0  0  0  0
    3.8964   -2.6164   11.5743 H   0  0  0  0  0  0  0  0  0  0  0  0
    3.8405   -3.9950   10.5398 H   0  0  0  0  0  0  0  0  0  0  0  0
    4.9105   -1.7693    9.7239 H   0  0  0  0  0  0  0  0  0  0  0  0
    2.0714   -0.8878    9.9131 H   0  0  0  0  0  0  0  0  0  0  0  0
    3.5216   -0.0468   10.0944 H   0  0  0  0  0  0  0  0  0  0  0  0
    1.9963    0.4006    8.1474 H   0  0  0  0  0  0  0  0  0  0  0  0
    0.3473   -4.3007    7.1236 H   0  0  0  0  0  0  0  0  0  0  0  0
    0.3902   -2.9640    6.0096 H   0  0  0  0  0  0  0  0  0  0  0  0
    2.3756   -2.7818    5.1466 H   0  0  0  0  0  0  0  0  0  0  0  0
    5.2926   -3.4016    5.4792 H   0  0  0  0  0  0  0  0  0  0  0  0
    5.9203   -5.2059    5.9228 H   0  0  0  0  0  0  0  0  0  0  0  0
    4.3300   -5.7683    6.4696 H   0  0  0  0  0  0  0  0  0  0  0  0
    5.2643   -5.5883    3.7421 H   0  0  0  0  0  0  0  0  0  0  0  0
    4.8959   -7.3956    2.3570 H   0  0  0  0  0  0  0  0  0  0  0  0
    3.6212   -7.8039    1.2394 H   0  0  0  0  0  0  0  0  0  0  0  0
    4.7327   -5.9827    0.5040 H   0  0  0  0  0  0  0  0  0  0  0  0
    0.5576   -7.1106    4.3251 H   0  0  0  0  0  0  0  0  0  0  0  0
   -0.2499   -8.8166    2.3049 H   0  0  0  0  0  0  0  0  0  0  0  0
   -1.7656   -7.5363    3.2596 H   0  0  0  0  0  0  0  0  0  0  0  0
    1.2059   -7.9266    0.6518 H   0  0  0  0  0  0  0  0  0  0  0  0
   -0.2624   -7.0414    0.2183 H   0  0  0  0  0  0  0  0  0  0  0  0
    1.3615   -5.1670    3.3105 H   0  0  0  0  0  0  0  0  0  0  0  0
    3.7100   -2.4092    2.2017 H   0  0  0  0  0  0  0  0  0  0  0  0
    2.3942   -2.2037    3.2113 H   0  0  0  0  0  0  0  0  0  0  0  0
    4.2780   -0.5652    3.7305 H   0  0  0  0  0  0  0  0  0  0  0  0
    6.6332   -2.0296    7.0142 H   0  0  0  0  0  0  0  0  0  0  0  0
    6.9543    0.4560    8.7710 H   0  0  0  0  0  0  0  0  0  0  0  0
    7.6371   -0.0572    7.2526 H   0  0  0  0  0  0  0  0  0  0  0  0
    6.8421    3.0530    5.7332 H   0  0  0  0  0  0  0  0  0  0  0  0
    6.3548    1.4327    5.3069 H   0  0  0  0  0  0  0  0  0  0  0  0
    4.4745    3.8718    4.6349 H   0  0  0  0  0  0  0  0  0  0  0  0
    5.3270    4.6921    5.9404 H   0  0  0  0  0  0  0  0  0  0  0  0
    3.6221    4.4323    6.0692 H   0  0  0  0  0  0  0  0  0  0  0  0
    4.9567    1.4734    9.3030 H   0  0  0  0  0  0  0  0  0  0  0  0
    3.3512    2.0043    8.9745 H   0  0  0  0  0  0  0  0  0  0  0  0
    4.0650    0.9281    5.2873 H   0  0  0  0  0  0  0  0  0  0  0  0
    2.5230    2.7624    5.1146 H   0  0  0  0  0  0  0  0  0  0  0  0
    1.6429    4.8356    7.4243 H   0  0  0  0  0  0  0  0  0  0  0  0
   -2.6205    2.3775    6.2770 H   0  0  0  0  0  0  0  0  0  0  0  0
   -2.2150    3.8315    5.3088 H   0  0  0  0  0  0  0  0  0  0  0  0
   -0.3592   -0.8362    6.0791 H   0  0  0  0  0  0  0  0  0  0  0  0
   -2.7093    0.2307    4.5085 H   0  0  0  0  0  0  0  0  0  0  0  0
   -2.7365   -0.1076    6.2230 H   0  0  0  0  0  0  0  0  0  0  0  0
   -2.5403   -1.4182    5.0612 H   0  0  0  0  0  0  0  0  0  0  0  0
    0.2603   -1.4960    3.8666 H   0  0  0  0  0  0  0  0  0  0  0  0
   -0.6947   -0.2295    3.1063 H   0  0  0  0  0  0  0  0  0  0  0  0
    2.1094    0.0292    3.6003 H   0  0  0  0  0  0  0  0  0  0  0  0
    0.9995    1.3353    3.1751 H   0  0  0  0  0  0  0  0  0  0  0  0
    1.4839    0.2088    5.8496 H   0  0  0  0  0  0  0  0  0  0  0  0
    0.7723    3.6420    4.9333 H   0  0  0  0  0  0  0  0  0  0  0  0
    0.6371    5.8029    5.0920 H   0  0  0  0  0  0  0  0  0  0  0  0
    4.6662   -3.6562    8.4094 H   0  0  0  0  0  0  0  0  0  0  0  0
  1  2  1  0
  1 65  1  0
  1 66  1  0
  1 67  1  0
  2  3  1  0
  3 64  1  0
  3  4  1  0
  3 68  1  6
  4  5  1  0
  4 69  1  0
  4 70  1  0
  5  6  1  0
  5 71  1  0
  5 72  1  0
  6 62  1  0
  6  7  1  0
  6 73  1  1
  7  8  1  0
  7 74  1  0
  7 75  1  0
  8 44  1  0
  8  9  1  0
  8 76  1  1
 10  9  1  6
 10 63  1  0
 10 11  1  0
 10 64  1  0
 11 12  1  0
 11 77  1  0
 11 78  1  0
 12 13  1  0
 13 28  1  0
 13 14  1  0
 13 79  1  6
 14 34  1  0
 14 15  1  0
 14 80  1  6
 15 16  1  0
 15 81  1  0
 15 82  1  0
 16 17  1  0
 16 28  1  0
 16 83  1  6
 18 17  1  1
 18 27  1  0
 18 19  1  0
 18 21  1  0
 19 20  1  0
 19 84  1  0
 19 85  1  0
 20 86  1  0
 21 22  1  0
 22 27  1  0
 22 23  1  0
 22 87  1  1
 23 24  1  0
 23 25  1  0
 23 88  1  6
 24 89  1  0
 25 26  1  0
 25 90  1  0
 25 91  1  0
 26 27  1  0
 27 92  1  1
 28 32  1  1
 28 29  1  0
 29 30  1  0
 29 93  1  0
 29 94  1  0
 30 31  1  0
 30 33  1  0
 30 95  1  6
 31 32  1  0
 34 33  1  6
 34 35  1  0
 34 62  1  0
 35 36  2  3
 35 96  1  0
 36 44  1  0
 36 37  1  0
 37 38  1  0
 37 97  1  0
 37 98  1  0
 38 39  1  0
 39 40  1  0
 39 99  1  0
 39100  1  0
 40 45  1  0
 40 41  1  6
 40 42  1  0
 41101  1  0
 41102  1  0
 41103  1  0
 42 43  1  0
 44 43  1  1
 43104  1  0
 43105  1  0
 44 45  1  0
 45 46  1  0
 45106  1  6
 46 59  1  0
 46 47  1  0
 46107  1  6
 47 48  1  0
 48 60  1  0
 48 49  1  0
 48108  1  1
 49 50  1  0
 50 54  1  0
 50 51  1  6
 50 60  1  0
 51 52  1  0
 51109  1  0
 51110  1  0
 53 52  1  6
 53 59  1  0
 53 54  1  0
 53 55  1  0
 55 56  1  0
 55 57  1  0
 55111  1  1
 56112  1  0
 56113  1  0
 56114  1  0
 57 58  1  0
 57115  1  0
 57116  1  0
 58 59  1  0
 58117  1  0
 58118  1  0
 59119  1  1
 60 61  1  0
 60120  1  6
 61121  1  0
 62 63  1  0
 62122  1  1
M  END
>  <i_m_ct_stereo_status>  (128) 
1

>  <s_m_source_file>  (128) 
/var/tmp/pbs.5076253.sched01/tmp9pzrzrnh/1418a54yjb5.sdf

>  <i_m_source_file_index>  (128) 
5

>  <i_lp_mmshare_version>  (128) 
48012

>  <i_f3d_flags>  (128) 
0

>  <s_epik_input>  (128) 
W09IXVtDQEhdMVtDSDJdT1tDQEBIXShbQ0BASF0xMilbQ0BAXShPMikoW0NIMl1bT0hdKU9bQ0BIXShbQ0gyXTMpW0NAQF00KFtDSDJdW0NAQEhdKE81KU9PNClbQ0BASF0oT1tDSDJdNilbQ0BIXTNDNShbQ0BIXShPNylbQ0BASF0oW0NIMl04KVtDSDJdW0NIMl1bQ0BIXShPOSlPW0NIM10pL1tDSF09QyhbQ0BAXTEyW0NASF04T1tDQEBdNjc5KS9bQ0gyXU9bQ0gyXVtDQF0oW0NIM10pKE9bQ0gyXTEpW0NAQEhdMltDQEhdKE9bQ0BIXShPQzEyMylbQ0BASF0zW09IXSlbQ0BIXTNbQ0BAXShPMikoT1tDSDJdMSlbQ0BASF0oW0NIM10pW0NIMl1bQ0gyXTM=

>  <s_epik_cmdline>  (128) 
J2VwaWtfcHl0aG9uJywgJy1waHQnLCAnMi4wJywgJy1waCcsICc3LjAnLCAnLXRuJywgJzgnLCAnLW1hJywgJzIwMCcsICctaW1hZScsICc8aW5maWxlLm1hZT4nLCAnLW9tYWUnLCAnPG91dGZpbGUubWFlPic=

>  <r_epik_Ionization_Penalty>  (128) 
0.000581966

>  <r_epik_Ionization_Penalty_Charging>  (128) 
0

>  <r_epik_Ionization_Penalty_Neutral>  (128) 
0.000581966

>  <r_epik_State_Penalty>  (128) 
0.000365299

>  <r_epik_Charging_Adjusted_Penalty>  (128) 
0.000365299

>  <i_epik_Tot_Q>  (128) 
0

>  <i_epik_Tot_abs_Q>  (128) 
0

>  <s_epik_Chemistry_Notes>  (128) 
This compound contains an acetal/aminal-like group ( X-CH(R)-Y where X, Y are N, S, or O) that may be acid/base labile, releasing an aldehyde.

>  <s_lp_Force_Field>  (128) 
OPLS3e

>  <r_lp_Energy>  (128) 
448.517

>  <b_lp_Chiralities_Consistent>  (128) 
1

>  <s_lp_Variant>  (128) 
87:0-1

>  <s_i_glide_gridfile>  (128) 
pfpi4k_grid

>  <i_i_glide_lignum>  (128) 
5

>  <i_i_glide_rotatable_bonds>  (128) 
8

>  <r_i_docking_score>  (128) 
-2.5121

>  <r_i_glide_ligand_efficiency>  (128) 
-0.0392515

>  <r_i_glide_ligand_efficiency_sa>  (128) 
-0.157006

>  <r_i_glide_ligand_efficiency_ln>  (128) 
-0.486946

>  <r_i_glide_gscore>  (128) 
-2.5121

>  <r_i_glide_lipo>  (128) 
-0.16047

>  <r_i_glide_hbond>  (128) 
-0.157759

>  <r_i_glide_metal>  (128) 
-0

>  <r_i_glide_rewards>  (128) 
-0.0111617

>  <r_i_glide_evdw>  (128) 
-26.5832

>  <r_i_glide_ecoul>  (128) 
-6.29878

>  <r_i_glide_erotb>  (128) 
0.107316

>  <r_i_glide_esite>  (128) 
-0.0160463

>  <r_i_glide_emodel>  (128) 
-31.6493

>  <r_i_glide_energy>  (128) 
-32.882

>  <r_i_glide_einternal>  (128) 
12.0595

>  <r_i_glide_intrahb_reward>  (128) 
-0

>  <i_i_glide_confnum>  (128) 
1

>  <i_i_glide_posenum>  (128) 
1

>  <r_i_glide_eff_state_penalty>  (128) 
0

>  <ligand_id>  (128) 
87

>  <original_smiles>  (128) 
COC1CCC2CC3OC4(COC5C6CC(OC7(CO)OC8C(O)COC87)C57CC(OO7)OC6(C=C5COCC6(C)OCC53C6C3OC5OC6(COC7(O6)C(C)CCC37)C5O)C2O4)O1

>  <smiles>  (128) 
[H]OC([H])([H])C1(OC2([H])C([H])([H])C3([H])C4([H])OC([H])([H])C56OC([H])(OC([H])([H])[H])C([H])([H])C([H])([H])C7([H])C([H])([H])C([H])(O5)C58C(=C([H])C3(OC3([H])OOC24C3([H])[H])C7([H])O6)C([H])([H])OC([H])([H])C(C([H])([H])[H])(OC5([H])[H])C8([H])C2([H])OC3([H])OC4(OC5(OC4([H])[H])C([H])(C([H])([H])[H])C([H])([H])C([H])([H])C25[H])C3([H])O[H])OC2([H])C([H])(O[H])C([H])([H])OC21[H]

$$$$
87:0:1
     RDKit          3D

122136  0  0  1  0  0  0  0  0999 V2000
   -1.5508   -4.3826    9.6253 C   0  0  0  0  0  0  0  0  0  0  0  0
   -0.6472   -3.6620   10.4450 O   0  0  0  0  0  0  0  0  0  0  0  0
    0.6203   -3.4779    9.8955 C   0  0  2  0  0  0  0  0  0  0  0  0
    1.5039   -2.9194   11.0616 C   0  0  0  0  0  0  0  0  0  0  0  0
    3.0423   -2.8112   10.7958 C   0  0  0  0  0  0  0  0  0  0  0  0
    3.5669   -1.9332    9.6154 C   0  0  2  0  0  0  0  0  0  0  0  0
    2.7329   -0.6666    9.4754 C   0  0  0  0  0  0  0  0  0  0  0  0
    2.5474   -0.2827    8.0239 C   0  0  2  0  0  0  0  0  0  0  0  0
    1.8702   -1.4109    7.2954 O   0  0  0  0  0  0  0  0  0  0  0  0
    1.4735   -2.6954    7.8183 C   0  0  1  0  0  0  0  0  0  0  0  0
    0.8543   -3.6068    6.6870 C   0  0  0  0  0  0  0  0  0  0  0  0
    1.8263   -4.4723    6.0060 O   0  0  0  0  0  0  0  0  0  0  0  0
    2.8913   -3.7455    5.3588 C   0  0  1  0  0  0  0  0  0  0  0  0
    4.2195   -3.6879    6.1474 C   0  0  2  0  0  0  0  0  0  0  0  0
    4.7204   -5.1098    6.1024 C   0  0  0  0  0  0  0  0  0  0  0  0
    4.3403   -5.3665    4.5933 C   0  0  1  0  0  0  0  0  0  0  0  0
    3.4468   -6.4852    4.5948 O   0  0  0  0  0  0  0  0  0  0  0  0
    2.9266   -6.9687    3.3379 C   0  0  1  0  0  0  0  0  0  0  0  0
    4.0629   -7.3742    2.3778 C   0  0  0  0  0  0  0  0  0  0  0  0
    4.4208   -6.2831    1.5400 O   0  0  0  0  0  0  0  0  0  0  0  0
    2.0759   -8.1297    3.5707 O   0  0  0  0  0  0  0  0  0  0  0  0
    0.8953   -7.3129    3.4510 C   0  0  2  0  0  0  0  0  0  0  0  0
   -0.0486   -7.8139    2.4164 C   0  0  1  0  0  0  0  0  0  0  0  0
   -1.2694   -7.0865    2.4787 O   0  0  0  0  0  0  0  0  0  0  0  0
    0.6863   -7.4381    1.1229 C   0  0  0  0  0  0  0  0  0  0  0  0
    1.4571   -6.2659    1.4341 O   0  0  0  0  0  0  0  0  0  0  0  0
    1.6964   -6.2067    2.8434 C   0  0  2  0  0  0  0  0  0  0  0  0
    3.5144   -4.1148    4.0065 C   0  0  1  0  0  0  0  0  0  0  0  0
    3.4336   -2.6805    3.3792 C   0  0  0  0  0  0  0  0  0  0  0  0
    4.1942   -1.6762    4.2829 C   0  0  2  0  0  0  0  0  0  0  0  0
    5.3536   -2.3566    3.9770 O   0  0  0  0  0  0  0  0  0  0  0  0
    4.8928   -3.7955    3.5691 O   0  0  0  0  0  0  0  0  0  0  0  0
    3.8186   -1.5320    5.7439 O   0  0  0  0  0  0  0  0  0  0  0  0
    4.2964   -2.3748    6.8977 C   0  0  2  0  0  0  0  0  0  0  0  0
    5.4582   -1.5284    7.2383 C   0  0  0  0  0  0  0  0  0  0  0  0
    5.2590   -0.1945    7.4563 C   0  0  0  0  0  0  0  0  0  0  0  0
    6.5518    0.5531    7.8228 C   0  0  0  0  0  0  0  0  0  0  0  0
    6.6891    1.8780    7.3536 O   0  0  0  0  0  0  0  0  0  0  0  0
    6.1015    2.1754    6.1074 C   0  0  0  0  0  0  0  0  0  0  0  0
    4.6289    2.5983    6.3361 C   0  0  2  0  0  0  0  0  0  0  0  0
    4.3863    3.9205    5.5656 C   0  0  0  0  0  0  0  0  0  0  0  0
    4.4857    2.9232    7.7070 O   0  0  0  0  0  0  0  0  0  0  0  0
    3.9913    1.8017    8.4293 C   0  0  0  0  0  0  0  0  0  0  0  0
    3.8364    0.5813    7.4757 C   0  0  2  0  0  0  0  0  0  0  0  0
    3.6065    1.4277    6.1386 C   0  0  1  0  0  0  0  0  0  0  0  0
    2.1715    2.0176    5.7473 C   0  0  2  0  0  0  0  0  0  0  0  0
    1.7586    2.8325    6.8805 O   0  0  0  0  0  0  0  0  0  0  0  0
    0.9528    4.0392    6.7122 C   0  0  2  0  0  0  0  0  0  0  0  0
   -0.3821    4.0092    7.3420 O   0  0  0  0  0  0  0  0  0  0  0  0
   -0.7545    3.1894    6.2277 C   0  0  2  0  0  0  0  0  0  0  0  0
   -1.9707    2.9039    5.4078 C   0  0  0  0  0  0  0  0  0  0  0  0
   -1.2516    1.9677    4.5637 O   0  0  0  0  0  0  0  0  0  0  0  0
   -0.4871    1.2177    5.4801 C   0  0  1  0  0  0  0  0  0  0  0  0
   -0.5766    1.8094    6.6730 O   0  0  0  0  0  0  0  0  0  0  0  0
   -0.9521   -0.2515    5.3940 C   0  0  1  0  0  0  0  0  0  0  0  0
   -2.4632   -0.4428    5.3628 C   0  0  0  0  0  0  0  0  0  0  0  0
   -0.1951   -0.7015    4.1106 C   0  0  0  0  0  0  0  0  0  0  0  0
    1.0358    0.2501    3.9159 C   0  0  0  0  0  0  0  0  0  0  0  0
    1.0467    1.0142    5.2239 C   0  0  1  0  0  0  0  0  0  0  0  0
    0.2439    4.0280    5.3834 C   0  0  1  0  0  0  0  0  0  0  0  0
   -0.1823    5.2780    4.8693 O   0  0  0  0  0  0  0  0  0  0  0  0
    3.7157   -2.7867    8.3215 C   0  0  2  0  0  0  0  0  0  0  0  0
    2.5339   -3.4739    8.1904 O   0  0  0  0  0  0  0  0  0  0  0  0
    0.5230   -2.5412    8.8444 O   0  0  0  0  0  0  0  0  0  0  0  0
   -2.4899   -4.5245   10.1611 H   0  0  0  0  0  0  0  0  0  0  0  0
   -1.1538   -5.3668    9.3769 H   0  0  0  0  0  0  0  0  0  0  0  0
   -1.7723   -3.8561    8.6980 H   0  0  0  0  0  0  0  0  0  0  0  0
    0.9578   -4.4662    9.5753 H   0  0  0  0  0  0  0  0  0  0  0  0
    1.0725   -1.9900   11.4298 H   0  0  0  0  0  0  0  0  0  0  0  0
    1.3809   -3.6170   11.8927 H   0  0  0  0  0  0  0  0  0  0  0  0
    3.4645   -2.3816   11.7067 H   0  0  0  0  0  0  0  0  0  0  0  0
    3.4740   -3.8103   10.7393 H   0  0  0  0  0  0  0  0  0  0  0  0
    4.5790   -1.6204    9.8719 H   0  0  0  0  0  0  0  0  0  0  0  0
    1.7337   -0.7448    9.8811 H   0  0  0  0  0  0  0  0  0  0  0  0
    3.1691    0.1130   10.0939 H   0  0  0  0  0  0  0  0  0  0  0  0
    1.7429    0.4552    8.0680 H   0  0  0  0  0  0  0  0  0  0  0  0
    0.1617   -4.3032    7.1660 H   0  0  0  0  0  0  0  0  0  0  0  0
    0.2475   -3.0113    6.0134 H   0  0  0  0  0  0  0  0  0  0  0  0
    2.2785   -2.8626    5.2252 H   0  0  0  0  0  0  0  0  0  0  0  0
    5.1759   -3.4461    5.7385 H   0  0  0  0  0  0  0  0  0  0  0  0
    5.7928   -5.2264    6.2870 H   0  0  0  0  0  0  0  0  0  0  0  0
    4.1775   -5.7718    6.7770 H   0  0  0  0  0  0  0  0  0  0  0  0
    5.2365   -5.7244    4.0769 H   0  0  0  0  0  0  0  0  0  0  0  0
    4.9391   -7.7364    2.9218 H   0  0  0  0  0  0  0  0  0  0  0  0
    3.7535   -8.1724    1.7077 H   0  0  0  0  0  0  0  0  0  0  0  0
    3.6368   -5.9956    1.0988 H   0  0  0  0  0  0  0  0  0  0  0  0
    0.4669   -7.0531    4.4177 H   0  0  0  0  0  0  0  0  0  0  0  0
   -0.2624   -8.8809    2.4813 H   0  0  0  0  0  0  0  0  0  0  0  0
   -1.8009   -7.4887    3.1504 H   0  0  0  0  0  0  0  0  0  0  0  0
    1.3905   -8.2454    0.8861 H   0  0  0  0  0  0  0  0  0  0  0  0
    0.0343   -7.2924    0.2635 H   0  0  0  0  0  0  0  0  0  0  0  0
    1.4359   -5.2555    3.2981 H   0  0  0  0  0  0  0  0  0  0  0  0
    3.7566   -2.6224    2.3290 H   0  0  0  0  0  0  0  0  0  0  0  0
    2.3894   -2.3934    3.2628 H   0  0  0  0  0  0  0  0  0  0  0  0
    4.2282   -0.6978    3.7968 H   0  0  0  0  0  0  0  0  0  0  0  0
    6.4334   -1.9913    7.2587 H   0  0  0  0  0  0  0  0  0  0  0  0
    6.6589    0.5793    8.9062 H   0  0  0  0  0  0  0  0  0  0  0  0
    7.4161   -0.0043    7.4540 H   0  0  0  0  0  0  0  0  0  0  0  0
    6.6845    3.0249    5.7491 H   0  0  0  0  0  0  0  0  0  0  0  0
    6.2276    1.3862    5.3672 H   0  0  0  0  0  0  0  0  0  0  0  0
    4.3675    3.7709    4.4887 H   0  0  0  0  0  0  0  0  0  0  0  0
    5.1598    4.6565    5.7942 H   0  0  0  0  0  0  0  0  0  0  0  0
    3.4578    4.4040    5.8468 H   0  0  0  0  0  0  0  0  0  0  0  0
    4.6279    1.6091    9.2964 H   0  0  0  0  0  0  0  0  0  0  0  0
    3.0346    2.1155    8.8516 H   0  0  0  0  0  0  0  0  0  0  0  0
    3.9325    0.8556    5.2769 H   0  0  0  0  0  0  0  0  0  0  0  0
    2.4142    2.6340    4.8889 H   0  0  0  0  0  0  0  0  0  0  0  0
    1.4981    4.9684    6.8802 H   0  0  0  0  0  0  0  0  0  0  0  0
   -2.7851    2.4562    5.9943 H   0  0  0  0  0  0  0  0  0  0  0  0
   -2.3419    3.7617    4.8373 H   0  0  0  0  0  0  0  0  0  0  0  0
   -0.5679   -0.7955    6.2651 H   0  0  0  0  0  0  0  0  0  0  0  0
   -2.8849    0.0500    4.4932 H   0  0  0  0  0  0  0  0  0  0  0  0
   -2.9419   -0.0171    6.2383 H   0  0  0  0  0  0  0  0  0  0  0  0
   -2.7333   -1.4896    5.2887 H   0  0  0  0  0  0  0  0  0  0  0  0
    0.0883   -1.7520    4.1475 H   0  0  0  0  0  0  0  0  0  0  0  0
   -0.8612   -0.5691    3.2697 H   0  0  0  0  0  0  0  0  0  0  0  0
    1.9584   -0.2841    3.7451 H   0  0  0  0  0  0  0  0  0  0  0  0
    0.8655    0.9411    3.0843 H   0  0  0  0  0  0  0  0  0  0  0  0
    1.2772    0.2314    5.8839 H   0  0  0  0  0  0  0  0  0  0  0  0
    0.6537    3.4780    4.5379 H   0  0  0  0  0  0  0  0  0  0  0  0
    0.5094    5.5827    4.3046 H   0  0  0  0  0  0  0  0  0  0  0  0
    4.4123   -3.5715    8.6384 H   0  0  0  0  0  0  0  0  0  0  0  0
  1  2  1  0
  1 65  1  0
  1 66  1  0
  1 67  1  0
  2  3  1  0
  3 64  1  0
  3  4  1  0
  3 68  1  6
  4  5  1  0
  4 69  1  0
  4 70  1  0
  5  6  1  0
  5 71  1  0
  5 72  1  0
  6 62  1  0
  6  7  1  0
  6 73  1  1
  7  8  1  0
  7 74  1  0
  7 75  1  0
  8 44  1  0
  8  9  1  0
  8 76  1  1
 10  9  1  6
 10 63  1  0
 10 11  1  0
 10 64  1  0
 11 12  1  0
 11 77  1  0
 11 78  1  0
 12 13  1  0
 13 28  1  0
 13 14  1  0
 13 79  1  6
 14 34  1  0
 14 15  1  0
 14 80  1  6
 15 16  1  0
 15 81  1  0
 15 82  1  0
 16 17  1  0
 16 28  1  0
 16 83  1  6
 18 17  1  1
 18 27  1  0
 18 19  1  0
 18 21  1  0
 19 20  1  0
 19 84  1  0
 19 85  1  0
 20 86  1  0
 21 22  1  0
 22 27  1  0
 22 23  1  0
 22 87  1  1
 23 24  1  0
 23 25  1  0
 23 88  1  1
 24 89  1  0
 25 26  1  0
 25 90  1  0
 25 91  1  0
 26 27  1  0
 27 92  1  1
 28 32  1  1
 28 29  1  0
 29 30  1  0
 29 93  1  0
 29 94  1  0
 30 31  1  0
 30 33  1  0
 30 95  1  6
 31 32  1  0
 34 33  1  6
 34 35  1  0
 34 62  1  0
 35 36  2  3
 35 96  1  0
 36 44  1  0
 36 37  1  0
 37 38  1  0
 37 97  1  0
 37 98  1  0
 38 39  1  0
 39 40  1  0
 39 99  1  0
 39100  1  0
 40 45  1  0
 40 41  1  6
 40 42  1  0
 41101  1  0
 41102  1  0
 41103  1  0
 42 43  1  0
 44 43  1  1
 43104  1  0
 43105  1  0
 44 45  1  0
 45 46  1  0
 45106  1  6
 46 59  1  0
 46 47  1  0
 46107  1  6
 47 48  1  0
 48 60  1  0
 48 49  1  0
 48108  1  1
 49 50  1  0
 50 54  1  0
 50 51  1  6
 50 60  1  0
 51 52  1  0
 51109  1  0
 51110  1  0
 53 52  1  6
 53 59  1  0
 53 54  1  0
 53 55  1  0
 55 56  1  0
 55 57  1  0
 55111  1  1
 56112  1  0
 56113  1  0
 56114  1  0
 57 58  1  0
 57115  1  0
 57116  1  0
 58 59  1  0
 58117  1  0
 58118  1  0
 59119  1  1
 60 61  1  0
 60120  1  6
 61121  1  0
 62 63  1  0
 62122  1  1
M  END
>  <i_m_ct_stereo_status>  (129) 
1

>  <s_m_source_file>  (129) 
/var/tmp/pbs.5076253.sched01/tmp9pzrzrnh/1418a54yjb5.sdf

>  <i_m_source_file_index>  (129) 
5

>  <i_lp_mmshare_version>  (129) 
48012

>  <i_f3d_flags>  (129) 
0

>  <s_epik_input>  (129) 
W09IXVtDQEhdMVtDSDJdT1tDQEBIXShbQ0BASF0xMilbQ0BAXShPMikoW0NIMl1bT0hdKU9bQ0BIXShbQ0gyXTMpW0NAQF00KFtDSDJdW0NAQEhdKE81KU9PNClbQ0BASF0oT1tDSDJdNilbQ0BIXTNDNShbQ0BIXShPNylbQ0BASF0oW0NIMl04KVtDSDJdW0NIMl1bQ0BIXShPOSlPW0NIM10pL1tDSF09QyhbQ0BAXTEyW0NASF04T1tDQEBdNjc5KS9bQ0gyXU9bQ0gyXVtDQF0oW0NIM10pKE9bQ0gyXTEpW0NAQEhdMltDQEhdKE9bQ0BIXShPQzEyMylbQ0BASF0zW09IXSlbQ0BIXTNbQ0BAXShPMikoT1tDSDJdMSlbQ0BASF0oW0NIM10pW0NIMl1bQ0gyXTM=

>  <s_epik_cmdline>  (129) 
J2VwaWtfcHl0aG9uJywgJy1waHQnLCAnMi4wJywgJy1waCcsICc3LjAnLCAnLXRuJywgJzgnLCAnLW1hJywgJzIwMCcsICctaW1hZScsICc8aW5maWxlLm1hZT4nLCAnLW9tYWUnLCAnPG91dGZpbGUubWFlPic=

>  <r_epik_Ionization_Penalty>  (129) 
0.000581966

>  <r_epik_Ionization_Penalty_Charging>  (129) 
0

>  <r_epik_Ionization_Penalty_Neutral>  (129) 
0.000581966

>  <r_epik_State_Penalty>  (129) 
0.000365299

>  <r_epik_Charging_Adjusted_Penalty>  (129) 
0.000365299

>  <i_epik_Tot_Q>  (129) 
0

>  <i_epik_Tot_abs_Q>  (129) 
0

>  <s_epik_Chemistry_Notes>  (129) 
This compound contains an acetal/aminal-like group ( X-CH(R)-Y where X, Y are N, S, or O) that may be acid/base labile, releasing an aldehyde.

>  <s_lp_Force_Field>  (129) 
OPLS3e

>  <r_lp_Energy>  (129) 
448.517

>  <b_lp_Chiralities_Consistent>  (129) 
1

>  <s_lp_Variant>  (129) 
87:0-1

>  <s_i_glide_gridfile>  (129) 
pfpi4k_grid

>  <i_i_glide_lignum>  (129) 
5

>  <i_i_glide_rotatable_bonds>  (129) 
8

>  <r_i_docking_score>  (129) 
-2.40701

>  <r_i_glide_ligand_efficiency>  (129) 
-0.0376095

>  <r_i_glide_ligand_efficiency_sa>  (129) 
-0.150438

>  <r_i_glide_ligand_efficiency_ln>  (129) 
-0.466575

>  <r_i_glide_gscore>  (129) 
-2.40701

>  <r_i_glide_lipo>  (129) 
-0.0824268

>  <r_i_glide_hbond>  (129) 
-0.0380172

>  <r_i_glide_metal>  (129) 
-0

>  <r_i_glide_rewards>  (129) 
-0.00595649

>  <r_i_glide_evdw>  (129) 
-26.8077

>  <r_i_glide_ecoul>  (129) 
-6.80331

>  <r_i_glide_erotb>  (129) 
0.107316

>  <r_i_glide_esite>  (129) 
-0.0270392

>  <r_i_glide_emodel>  (129) 
-34.0646

>  <r_i_glide_energy>  (129) 
-33.6111

>  <r_i_glide_einternal>  (129) 
7.92063

>  <r_i_glide_intrahb_reward>  (129) 
-0

>  <i_i_glide_confnum>  (129) 
1

>  <i_i_glide_posenum>  (129) 
10

>  <r_i_glide_eff_state_penalty>  (129) 
0

>  <ligand_id>  (129) 
87

>  <original_smiles>  (129) 
COC1CCC2CC3OC4(COC5C6CC(OC7(CO)OC8C(O)COC87)C57CC(OO7)OC6(C=C5COCC6(C)OCC53C6C3OC5OC6(COC7(O6)C(C)CCC37)C5O)C2O4)O1

>  <smiles>  (129) 
[H]OC([H])([H])C1(OC2([H])C([H])([H])C3([H])C4([H])OC([H])([H])C56OC([H])(OC([H])([H])[H])C([H])([H])C([H])([H])C7([H])C([H])([H])C([H])(O5)C58C(=C([H])C3(OC3([H])OOC24C3([H])[H])C7([H])O6)C([H])([H])OC([H])([H])C(C([H])([H])[H])(OC5([H])[H])C8([H])C2([H])OC3([H])OC4(OC5(OC4([H])[H])C([H])(C([H])([H])[H])C([H])([H])C([H])([H])C25[H])C3([H])O[H])OC2([H])C([H])(O[H])C([H])([H])OC21[H]

$$$$
87:0:2
     RDKit          3D

122136  0  0  1  0  0  0  0  0999 V2000
   -1.6238   -4.4143    9.6116 C   0  0  0  0  0  0  0  0  0  0  0  0
   -0.7284   -3.6989   10.4445 O   0  0  0  0  0  0  0  0  0  0  0  0
    0.5509   -3.5346    9.9131 C   0  0  2  0  0  0  0  0  0  0  0  0
    1.4130   -2.9508   11.0808 C   0  0  0  0  0  0  0  0  0  0  0  0
    2.9597   -2.8509   10.8398 C   0  0  0  0  0  0  0  0  0  0  0  0
    3.5082   -2.0006    9.6517 C   0  0  2  0  0  0  0  0  0  0  0  0
    2.6792   -0.7367    9.4671 C   0  0  0  0  0  0  0  0  0  0  0  0
    2.5163   -0.3850    8.0057 C   0  0  2  0  0  0  0  0  0  0  0  0
    1.8491   -1.5281    7.2871 O   0  0  0  0  0  0  0  0  0  0  0  0
    1.4436   -2.7999    7.8337 C   0  0  1  0  0  0  0  0  0  0  0  0
    0.8430   -3.7450    6.7236 C   0  0  0  0  0  0  0  0  0  0  0  0
    1.8292   -4.6189    6.0735 O   0  0  0  0  0  0  0  0  0  0  0  0
    2.9020   -3.9083    5.4248 C   0  0  1  0  0  0  0  0  0  0  0  0
    4.2145   -3.8365    6.2387 C   0  0  2  0  0  0  0  0  0  0  0  0
    4.7174   -5.2590    6.2278 C   0  0  0  0  0  0  0  0  0  0  0  0
    4.3613   -5.5517    4.7162 C   0  0  1  0  0  0  0  0  0  0  0  0
    3.4541   -6.6577    4.7279 O   0  0  0  0  0  0  0  0  0  0  0  0
    2.9419   -7.1552    3.4763 C   0  0  1  0  0  0  0  0  0  0  0  0
    4.0831   -7.6430    2.5623 C   0  0  0  0  0  0  0  0  0  0  0  0
    4.5177   -6.5978    1.7019 O   0  0  0  0  0  0  0  0  0  0  0  0
    2.0365   -8.2684    3.7261 O   0  0  0  0  0  0  0  0  0  0  0  0
    0.8958   -7.3991    3.5420 C   0  0  2  0  0  0  0  0  0  0  0  0
   -0.0478   -7.8856    2.5007 C   0  0  1  0  0  0  0  0  0  0  0  0
   -1.2368   -7.1075    2.4970 O   0  0  0  0  0  0  0  0  0  0  0  0
    0.7371   -7.5873    1.2198 C   0  0  0  0  0  0  0  0  0  0  0  0
    1.5527   -6.4470    1.5108 O   0  0  0  0  0  0  0  0  0  0  0  0
    1.7563   -6.3518    2.9248 C   0  0  2  0  0  0  0  0  0  0  0  0
    3.5596   -4.3066    4.0953 C   0  0  1  0  0  0  0  0  0  0  0  0
    3.4896   -2.8913    3.4252 C   0  0  0  0  0  0  0  0  0  0  0  0
    4.2275   -1.8617    4.3226 C   0  0  2  0  0  0  0  0  0  0  0  0
    5.3946   -2.5509    4.0529 O   0  0  0  0  0  0  0  0  0  0  0  0
    4.9431   -3.9927    3.6811 O   0  0  0  0  0  0  0  0  0  0  0  0
    3.8283   -1.6853    5.7756 O   0  0  0  0  0  0  0  0  0  0  0  0
    4.2849   -2.5055    6.9579 C   0  0  2  0  0  0  0  0  0  0  0  0
    5.4399   -1.6484    7.2973 C   0  0  0  0  0  0  0  0  0  0  0  0
    5.2369   -0.3153    7.4841 C   0  0  0  0  0  0  0  0  0  0  0  0
    6.5249    0.4406    7.8493 C   0  0  0  0  0  0  0  0  0  0  0  0
    6.6753    1.7520    7.3518 O   0  0  0  0  0  0  0  0  0  0  0  0
    6.1064    2.0204    6.0898 C   0  0  0  0  0  0  0  0  0  0  0  0
    4.6318    2.4521    6.2826 C   0  0  2  0  0  0  0  0  0  0  0  0
    4.4060    3.7585    5.4860 C   0  0  0  0  0  0  0  0  0  0  0  0
    4.4665    2.8074    7.6436 O   0  0  0  0  0  0  0  0  0  0  0  0
    3.9541    1.7067    8.3869 C   0  0  0  0  0  0  0  0  0  0  0  0
    3.8133    0.4641    7.4570 C   0  0  2  0  0  0  0  0  0  0  0  0
    3.6096    1.2801    6.0968 C   0  0  1  0  0  0  0  0  0  0  0  0
    2.1835    1.8735    5.6667 C   0  0  2  0  0  0  0  0  0  0  0  0
    1.7715    2.7541    6.7483 O   0  0  0  0  0  0  0  0  0  0  0  0
    0.9744    3.9551    6.5067 C   0  0  2  0  0  0  0  0  0  0  0  0
   -0.3682    3.9704    7.1268 O   0  0  0  0  0  0  0  0  0  0  0  0
   -0.7415    3.0888    6.0600 C   0  0  2  0  0  0  0  0  0  0  0  0
   -1.9594    2.7756    5.2542 C   0  0  0  0  0  0  0  0  0  0  0  0
   -1.2444    1.7840    4.4697 O   0  0  0  0  0  0  0  0  0  0  0  0
   -0.4837    1.0786    5.4241 C   0  0  1  0  0  0  0  0  0  0  0  0
   -0.5769    1.7408    6.5739 O   0  0  0  0  0  0  0  0  0  0  0  0
   -0.9587   -0.3915    5.4287 C   0  0  1  0  0  0  0  0  0  0  0  0
   -2.4810   -0.5611    5.3869 C   0  0  0  0  0  0  0  0  0  0  0  0
   -0.2036   -0.9063    4.1707 C   0  0  0  0  0  0  0  0  0  0  0  0
    1.0356    0.0153    3.9249 C   0  0  0  0  0  0  0  0  0  0  0  0
    1.0498    0.8495    5.1855 C   0  0  1  0  0  0  0  0  0  0  0  0
    0.2743    3.8663    5.1752 C   0  0  1  0  0  0  0  0  0  0  0  0
   -0.1450    5.0838    4.5854 O   0  0  0  0  0  0  0  0  0  0  0  0
    3.6823   -2.8856    8.3800 C   0  0  2  0  0  0  0  0  0  0  0  0
    2.4982   -3.5678    8.2407 O   0  0  0  0  0  0  0  0  0  0  0  0
    0.4770   -2.6198    8.8394 O   0  0  0  0  0  0  0  0  0  0  0  0
   -2.5719   -4.5483   10.1354 H   0  0  0  0  0  0  0  0  0  0  0  0
   -1.2299   -5.4019    9.3712 H   0  0  0  0  0  0  0  0  0  0  0  0
   -1.8273   -3.8832    8.6819 H   0  0  0  0  0  0  0  0  0  0  0  0
    0.8874   -4.5292    9.6250 H   0  0  0  0  0  0  0  0  0  0  0  0
    0.9800   -2.0127   11.4168 H   0  0  0  0  0  0  0  0  0  0  0  0
    1.2752   -3.6260   11.9277 H   0  0  0  0  0  0  0  0  0  0  0  0
    3.3664   -2.4016   11.7489 H   0  0  0  0  0  0  0  0  0  0  0  0
    3.3864   -3.8526   10.8118 H   0  0  0  0  0  0  0  0  0  0  0  0
    4.5162   -1.6845    9.9170 H   0  0  0  0  0  0  0  0  0  0  0  0
    1.6732   -0.8032    9.8568 H   0  0  0  0  0  0  0  0  0  0  0  0
    3.1047    0.0551   10.0780 H   0  0  0  0  0  0  0  0  0  0  0  0
    1.7150    0.3570    8.0279 H   0  0  0  0  0  0  0  0  0  0  0  0
    0.1464   -4.4324    7.2059 H   0  0  0  0  0  0  0  0  0  0  0  0
    0.2444   -3.1620    6.0328 H   0  0  0  0  0  0  0  0  0  0  0  0
    2.2938   -3.0251    5.2632 H   0  0  0  0  0  0  0  0  0  0  0  0
    5.1816   -3.5994    5.8493 H   0  0  0  0  0  0  0  0  0  0  0  0
    5.7839   -5.3696    6.4381 H   0  0  0  0  0  0  0  0  0  0  0  0
    4.1581   -5.8984    6.9105 H   0  0  0  0  0  0  0  0  0  0  0  0
    5.2608   -5.9301    4.2155 H   0  0  0  0  0  0  0  0  0  0  0  0
    4.9189   -8.0381    3.1400 H   0  0  0  0  0  0  0  0  0  0  0  0
    3.7449   -8.4446    1.9050 H   0  0  0  0  0  0  0  0  0  0  0  0
    3.7613   -6.2722    1.2503 H   0  0  0  0  0  0  0  0  0  0  0  0
    0.4576   -7.0889    4.4898 H   0  0  0  0  0  0  0  0  0  0  0  0
   -0.3160   -8.9342    2.6090 H   0  0  0  0  0  0  0  0  0  0  0  0
   -1.9531   -7.6693    2.2639 H   0  0  0  0  0  0  0  0  0  0  0  0
    1.4104   -8.4294    1.0230 H   0  0  0  0  0  0  0  0  0  0  0  0
    0.1086   -7.4279    0.3415 H   0  0  0  0  0  0  0  0  0  0  0  0
    1.4776   -5.3870    3.3384 H   0  0  0  0  0  0  0  0  0  0  0  0
    3.8321   -2.8607    2.3800 H   0  0  0  0  0  0  0  0  0  0  0  0
    2.4475   -2.6125    3.2844 H   0  0  0  0  0  0  0  0  0  0  0  0
    4.2657   -0.8944    3.8143 H   0  0  0  0  0  0  0  0  0  0  0  0
    6.4124   -2.1175    7.3427 H   0  0  0  0  0  0  0  0  0  0  0  0
    6.6099    0.4899    8.9343 H   0  0  0  0  0  0  0  0  0  0  0  0
    7.3938   -0.1249    7.5060 H   0  0  0  0  0  0  0  0  0  0  0  0
    6.6980    2.8560    5.7211 H   0  0  0  0  0  0  0  0  0  0  0  0
    6.2416    1.2180    5.3653 H   0  0  0  0  0  0  0  0  0  0  0  0
    4.3898    3.5732    4.4181 H   0  0  0  0  0  0  0  0  0  0  0  0
    5.1846    4.4913    5.6998 H   0  0  0  0  0  0  0  0  0  0  0  0
    3.4786    4.2573    5.7399 H   0  0  0  0  0  0  0  0  0  0  0  0
    4.5755    1.5311    9.2685 H   0  0  0  0  0  0  0  0  0  0  0  0
    2.9886    2.0337    8.7757 H   0  0  0  0  0  0  0  0  0  0  0  0
    3.9452    0.6849    5.2556 H   0  0  0  0  0  0  0  0  0  0  0  0
    2.4486    2.4460    4.7830 H   0  0  0  0  0  0  0  0  0  0  0  0
    1.5276    4.8862    6.6280 H   0  0  0  0  0  0  0  0  0  0  0  0
   -2.7720    2.3659    5.8638 H   0  0  0  0  0  0  0  0  0  0  0  0
   -2.3119    3.6034    4.6273 H   0  0  0  0  0  0  0  0  0  0  0  0
   -0.5848   -0.8778    6.3345 H   0  0  0  0  0  0  0  0  0  0  0  0
   -2.8971   -0.1286    4.4821 H   0  0  0  0  0  0  0  0  0  0  0  0
   -2.9578   -0.0866    6.2436 H   0  0  0  0  0  0  0  0  0  0  0  0
   -2.7517   -1.6155    5.3847 H   0  0  0  0  0  0  0  0  0  0  0  0
    0.0619   -1.9597    4.2440 H   0  0  0  0  0  0  0  0  0  0  0  0
   -0.8724   -0.7855    3.3338 H   0  0  0  0  0  0  0  0  0  0  0  0
    1.9575   -0.5371    3.8081 H   0  0  0  0  0  0  0  0  0  0  0  0
    0.8766    0.6415    3.0404 H   0  0  0  0  0  0  0  0  0  0  0  0
    1.2675    0.1155    5.9017 H   0  0  0  0  0  0  0  0  0  0  0  0
    0.6842    3.2659    4.3698 H   0  0  0  0  0  0  0  0  0  0  0  0
    0.4288    5.2252    3.8297 H   0  0  0  0  0  0  0  0  0  0  0  0
    4.3711   -3.6644    8.7275 H   0  0  0  0  0  0  0  0  0  0  0  0
  1  2  1  0
  1 65  1  0
  1 66  1  0
  1 67  1  0
  2  3  1  0
  3 64  1  0
  3  4  1  0
  3 68  1  6
  4  5  1  0
  4 69  1  0
  4 70  1  0
  5  6  1  0
  5 71  1  0
  5 72  1  0
  6 62  1  0
  6  7  1  0
  6 73  1  1
  7  8  1  0
  7 74  1  0
  7 75  1  0
  8 44  1  0
  8  9  1  0
  8 76  1  1
 10  9  1  6
 10 63  1  0
 10 11  1  0
 10 64  1  0
 11 12  1  0
 11 77  1  0
 11 78  1  0
 12 13  1  0
 13 28  1  0
 13 14  1  0
 13 79  1  6
 14 34  1  0
 14 15  1  0
 14 80  1  6
 15 16  1  0
 15 81  1  0
 15 82  1  0
 16 17  1  0
 16 28  1  0
 16 83  1  6
 18 17  1  1
 18 27  1  0
 18 19  1  0
 18 21  1  0
 19 20  1  0
 19 84  1  0
 19 85  1  0
 20 86  1  0
 21 22  1  0
 22 27  1  0
 22 23  1  0
 22 87  1  1
 23 24  1  0
 23 25  1  0
 23 88  1  1
 24 89  1  0
 25 26  1  0
 25 90  1  0
 25 91  1  0
 26 27  1  0
 27 92  1  1
 28 32  1  1
 28 29  1  0
 29 30  1  0
 29 93  1  0
 29 94  1  0
 30 31  1  0
 30 33  1  0
 30 95  1  6
 31 32  1  0
 34 33  1  6
 34 35  1  0
 34 62  1  0
 35 36  2  3
 35 96  1  0
 36 44  1  0
 36 37  1  0
 37 38  1  0
 37 97  1  0
 37 98  1  0
 38 39  1  0
 39 40  1  0
 39 99  1  0
 39100  1  0
 40 45  1  0
 40 41  1  6
 40 42  1  0
 41101  1  0
 41102  1  0
 41103  1  0
 42 43  1  0
 44 43  1  1
 43104  1  0
 43105  1  0
 44 45  1  0
 45 46  1  0
 45106  1  6
 46 59  1  0
 46 47  1  0
 46107  1  6
 47 48  1  0
 48 60  1  0
 48 49  1  0
 48108  1  6
 49 50  1  0
 50 54  1  0
 50 51  1  6
 50 60  1  0
 51 52  1  0
 51109  1  0
 51110  1  0
 53 52  1  6
 53 59  1  0
 53 54  1  0
 53 55  1  0
 55 56  1  0
 55 57  1  0
 55111  1  1
 56112  1  0
 56113  1  0
 56114  1  0
 57 58  1  0
 57115  1  0
 57116  1  0
 58 59  1  0
 58117  1  0
 58118  1  0
 59119  1  1
 60 61  1  0
 60120  1  6
 61121  1  0
 62 63  1  0
 62122  1  1
M  END
>  <i_m_ct_stereo_status>  (130) 
1

>  <s_m_source_file>  (130) 
/var/tmp/pbs.5076253.sched01/tmp9pzrzrnh/1418a54yjb5.sdf

>  <i_m_source_file_index>  (130) 
5

>  <i_lp_mmshare_version>  (130) 
48012

>  <i_f3d_flags>  (130) 
0

>  <s_epik_input>  (130) 
W09IXVtDQEhdMVtDSDJdT1tDQEBIXShbQ0BASF0xMilbQ0BAXShPMikoW0NIMl1bT0hdKU9bQ0BIXShbQ0gyXTMpW0NAQF00KFtDSDJdW0NAQEhdKE81KU9PNClbQ0BASF0oT1tDSDJdNilbQ0BIXTNDNShbQ0BIXShPNylbQ0BASF0oW0NIMl04KVtDSDJdW0NIMl1bQ0BIXShPOSlPW0NIM10pL1tDSF09QyhbQ0BAXTEyW0NASF04T1tDQEBdNjc5KS9bQ0gyXU9bQ0gyXVtDQF0oW0NIM10pKE9bQ0gyXTEpW0NAQEhdMltDQEhdKE9bQ0BIXShPQzEyMylbQ0BASF0zW09IXSlbQ0BIXTNbQ0BAXShPMikoT1tDSDJdMSlbQ0BASF0oW0NIM10pW0NIMl1bQ0gyXTM=

>  <s_epik_cmdline>  (130) 
J2VwaWtfcHl0aG9uJywgJy1waHQnLCAnMi4wJywgJy1waCcsICc3LjAnLCAnLXRuJywgJzgnLCAnLW1hJywgJzIwMCcsICctaW1hZScsICc8aW5maWxlLm1hZT4nLCAnLW9tYWUnLCAnPG91dGZpbGUubWFlPic=

>  <r_epik_Ionization_Penalty>  (130) 
0.000581966

>  <r_epik_Ionization_Penalty_Charging>  (130) 
0

>  <r_epik_Ionization_Penalty_Neutral>  (130) 
0.000581966

>  <r_epik_State_Penalty>  (130) 
0.000365299

>  <r_epik_Charging_Adjusted_Penalty>  (130) 
0.000365299

>  <i_epik_Tot_Q>  (130) 
0

>  <i_epik_Tot_abs_Q>  (130) 
0

>  <s_epik_Chemistry_Notes>  (130) 
This compound contains an acetal/aminal-like group ( X-CH(R)-Y where X, Y are N, S, or O) that may be acid/base labile, releasing an aldehyde.

>  <s_lp_Force_Field>  (130) 
OPLS3e

>  <r_lp_Energy>  (130) 
448.517

>  <b_lp_Chiralities_Consistent>  (130) 
1

>  <s_lp_Variant>  (130) 
87:0-1

>  <s_i_glide_gridfile>  (130) 
pfpi4k_grid

>  <i_i_glide_lignum>  (130) 
5

>  <i_i_glide_rotatable_bonds>  (130) 
8

>  <r_i_docking_score>  (130) 
-2.35571

>  <r_i_glide_ligand_efficiency>  (130) 
-0.0368079

>  <r_i_glide_ligand_efficiency_sa>  (130) 
-0.147232

>  <r_i_glide_ligand_efficiency_ln>  (130) 
-0.456631

>  <r_i_glide_gscore>  (130) 
-2.35571

>  <r_i_glide_lipo>  (130) 
-0.0805948

>  <r_i_glide_hbond>  (130) 
0

>  <r_i_glide_metal>  (130) 
-0

>  <r_i_glide_rewards>  (130) 
-0.00792894

>  <r_i_glide_evdw>  (130) 
-26.1884

>  <r_i_glide_ecoul>  (130) 
-6.90494

>  <r_i_glide_erotb>  (130) 
0.107316

>  <r_i_glide_esite>  (130) 
-0.0293339

>  <r_i_glide_emodel>  (130) 
-32.2511

>  <r_i_glide_energy>  (130) 
-33.0934

>  <r_i_glide_einternal>  (130) 
9.03017

>  <r_i_glide_intrahb_reward>  (130) 
-0

>  <i_i_glide_confnum>  (130) 
1

>  <i_i_glide_posenum>  (130) 
30

>  <r_i_glide_eff_state_penalty>  (130) 
0

>  <ligand_id>  (130) 
87

>  <original_smiles>  (130) 
COC1CCC2CC3OC4(COC5C6CC(OC7(CO)OC8C(O)COC87)C57CC(OO7)OC6(C=C5COCC6(C)OCC53C6C3OC5OC6(COC7(O6)C(C)CCC37)C5O)C2O4)O1

>  <smiles>  (130) 
[H]OC([H])([H])C1(OC2([H])C([H])([H])C3([H])C4([H])OC([H])([H])C56OC([H])(OC([H])([H])[H])C([H])([H])C([H])([H])C7([H])C([H])([H])C([H])(O5)C58C(=C([H])C3(OC3([H])OOC24C3([H])[H])C7([H])O6)C([H])([H])OC([H])([H])C(C([H])([H])[H])(OC5([H])[H])C8([H])C2([H])OC3([H])OC4(OC5(OC4([H])[H])C([H])(C([H])([H])[H])C([H])([H])C([H])([H])C25[H])C3([H])O[H])OC2([H])C([H])(O[H])C([H])([H])OC21[H]

$$$$
87:5:0
     RDKit          3D

122136  0  0  1  0  0  0  0  0999 V2000
    6.5442   -8.1517    6.7785 C   0  0  0  0  0  0  0  0  0  0  0  0
    5.8073   -7.3622    7.6967 O   0  0  0  0  0  0  0  0  0  0  0  0
    6.1089   -6.0126    7.6394 C   0  0  2  0  0  0  0  0  0  0  0  0
    5.6990   -5.3013    8.9499 C   0  0  0  0  0  0  0  0  0  0  0  0
    4.2662   -5.6011    9.5266 C   0  0  0  0  0  0  0  0  0  0  0  0
    2.9770   -5.5673    8.6297 C   0  0  2  0  0  0  0  0  0  0  0  0
    2.8466   -6.8941    7.8634 C   0  0  0  0  0  0  0  0  0  0  0  0
    3.0250   -6.8831    6.3091 C   0  0  2  0  0  0  0  0  0  0  0  0
    3.5660   -5.6764    5.6828 O   0  0  0  0  0  0  0  0  0  0  0  0
    4.5174   -4.7535    6.2132 C   0  0  1  0  0  0  0  0  0  0  0  0
    4.7518   -3.6349    5.0966 C   0  0  0  0  0  0  0  0  0  0  0  0
    4.2400   -2.2802    5.3662 O   0  0  0  0  0  0  0  0  0  0  0  0
    2.9281   -2.1338    5.9433 C   0  0  2  0  0  0  0  0  0  0  0  0
    2.1072   -3.2631    5.4692 C   0  0  1  0  0  0  0  0  0  0  0  0
    1.7330   -2.5985    4.0457 C   0  0  0  0  0  0  0  0  0  0  0  0
    2.0210   -1.0490    4.1293 C   0  0  1  0  0  0  0  0  0  0  0  0
    1.0170   -0.3197    3.4083 O   0  0  0  0  0  0  0  0  0  0  0  0
    1.0169    1.0950    3.3736 C   0  0  1  0  0  0  0  0  0  0  0  0
   -0.1074    1.4840    2.4085 C   0  0  0  0  0  0  0  0  0  0  0  0
   -1.3873    1.0942    2.9263 O   0  0  0  0  0  0  0  0  0  0  0  0
    0.9089    1.7274    4.6811 O   0  0  0  0  0  0  0  0  0  0  0  0
    2.3168    2.1558    4.5927 C   0  0  2  0  0  0  0  0  0  0  0  0
    2.4521    3.6423    4.7391 C   0  0  1  0  0  0  0  0  0  0  0  0
    3.7821    3.9506    5.0284 O   0  0  0  0  0  0  0  0  0  0  0  0
    2.0639    4.1128    3.3535 C   0  0  0  0  0  0  0  0  0  0  0  0
    2.3871    3.0264    2.4620 O   0  0  0  0  0  0  0  0  0  0  0  0
    2.3923    1.7734    3.1364 C   0  0  2  0  0  0  0  0  0  0  0  0
    1.9701   -0.9586    5.6403 C   0  0  1  0  0  0  0  0  0  0  0  0
    0.4987   -1.0113    6.1206 C   0  0  0  0  0  0  0  0  0  0  0  0
    0.6561   -1.4851    7.5285 C   0  0  2  0  0  0  0  0  0  0  0  0
    1.7964   -0.6799    7.9182 O   0  0  0  0  0  0  0  0  0  0  0  0
    2.3615   -0.0179    6.6127 O   0  0  0  0  0  0  0  0  0  0  0  0
    0.7559   -2.9516    7.6551 O   0  0  0  0  0  0  0  0  0  0  0  0
    1.5544   -3.8921    6.8394 C   0  0  1  0  0  0  0  0  0  0  0  0
    0.7188   -5.1894    6.6246 C   0  0  0  0  0  0  0  0  0  0  0  0
    0.8021   -5.9689    5.5166 C   0  0  0  0  0  0  0  0  0  0  0  0
    0.3336   -5.4253    4.1736 C   0  0  0  0  0  0  0  0  0  0  0  0
   -0.3056   -6.3161    3.2601 O   0  0  0  0  0  0  0  0  0  0  0  0
   -0.6876   -7.5980    3.7390 C   0  0  0  0  0  0  0  0  0  0  0  0
    0.5277   -8.5542    3.8679 C   0  0  2  0  0  0  0  0  0  0  0  0
    0.4697   -9.6220    2.7531 C   0  0  0  0  0  0  0  0  0  0  0  0
    0.3427   -9.2003    5.1162 O   0  0  0  0  0  0  0  0  0  0  0  0
    0.9246   -8.4299    6.1653 C   0  0  0  0  0  0  0  0  0  0  0  0
    1.6991   -7.2483    5.5355 C   0  0  2  0  0  0  0  0  0  0  0  0
    1.9069   -7.8448    4.0953 C   0  0  1  0  0  0  0  0  0  0  0  0
    3.1565   -8.7561    3.7467 C   0  0  2  0  0  0  0  0  0  0  0  0
    2.9419  -10.1528    4.2678 O   0  0  0  0  0  0  0  0  0  0  0  0
    3.7909  -10.7490    5.2893 C   0  0  2  0  0  0  0  0  0  0  0  0
    4.7920   -9.8206    5.4271 O   0  0  0  0  0  0  0  0  0  0  0  0
    5.4754  -10.4651    4.2845 C   0  0  1  0  0  0  0  0  0  0  0  0
    5.1873  -10.5822    2.7179 C   0  0  0  0  0  0  0  0  0  0  0  0
    5.6812   -9.3998    2.1582 O   0  0  0  0  0  0  0  0  0  0  0  0
    5.9562   -8.6877    3.2822 C   0  0  1  0  0  0  0  0  0  0  0  0
    6.5520   -9.6691    4.1653 O   0  0  0  0  0  0  0  0  0  0  0  0
    6.9236   -7.5234    3.0462 C   0  0  1  0  0  0  0  0  0  0  0  0
    8.2024   -7.9180    2.3031 C   0  0  0  0  0  0  0  0  0  0  0  0
    6.0468   -6.4789    2.3552 C   0  0  0  0  0  0  0  0  0  0  0  0
    4.5992   -6.7215    2.8040 C   0  0  0  0  0  0  0  0  0  0  0  0
    4.5961   -7.9467    3.7427 C   0  0  1  0  0  0  0  0  0  0  0  0
    5.0015  -11.7434    4.9752 C   0  0  1  0  0  0  0  0  0  0  0  0
    5.7669  -12.2300    6.0613 O   0  0  0  0  0  0  0  0  0  0  0  0
    2.8021   -4.2535    7.8312 C   0  0  2  0  0  0  0  0  0  0  0  0
    4.0923   -4.0309    7.2987 O   0  0  0  0  0  0  0  0  0  0  0  0
    5.7918   -5.3328    6.4258 O   0  0  0  0  0  0  0  0  0  0  0  0
    6.2216   -9.1953    6.8671 H   0  0  0  0  0  0  0  0  0  0  0  0
    7.6414   -8.0853    6.9458 H   0  0  0  0  0  0  0  0  0  0  0  0
    6.2754   -7.7914    5.8126 H   0  0  0  0  0  0  0  0  0  0  0  0
    7.1969   -5.9928    7.6195 H   0  0  0  0  0  0  0  0  0  0  0  0
    6.4039   -5.6572    9.7017 H   0  0  0  0  0  0  0  0  0  0  0  0
    5.8891   -4.2311    8.8648 H   0  0  0  0  0  0  0  0  0  0  0  0
    4.2982   -6.5686   10.0394 H   0  0  0  0  0  0  0  0  0  0  0  0
    4.1151   -4.8830   10.3291 H   0  0  0  0  0  0  0  0  0  0  0  0
    2.1592   -5.5668    9.3423 H   0  0  0  0  0  0  0  0  0  0  0  0
    3.5340   -7.6191    8.2828 H   0  0  0  0  0  0  0  0  0  0  0  0
    1.9075   -7.3279    8.1716 H   0  0  0  0  0  0  0  0  0  0  0  0
    3.7068   -7.7070    6.1456 H   0  0  0  0  0  0  0  0  0  0  0  0
    5.8242   -3.5186    4.9430 H   0  0  0  0  0  0  0  0  0  0  0  0
    4.3648   -3.9716    4.1341 H   0  0  0  0  0  0  0  0  0  0  0  0
    3.1991   -2.0760    6.9868 H   0  0  0  0  0  0  0  0  0  0  0  0
    1.0398   -3.2086    5.4570 H   0  0  0  0  0  0  0  0  0  0  0  0
    2.3964   -3.0090    3.2756 H   0  0  0  0  0  0  0  0  0  0  0  0
    0.7312   -2.7752    3.6570 H   0  0  0  0  0  0  0  0  0  0  0  0
    3.0218   -0.8490    3.7304 H   0  0  0  0  0  0  0  0  0  0  0  0
   -0.1421    2.5568    2.1999 H   0  0  0  0  0  0  0  0  0  0  0  0
    0.0308    0.9953    1.4377 H   0  0  0  0  0  0  0  0  0  0  0  0
   -2.0282    1.2639    2.2805 H   0  0  0  0  0  0  0  0  0  0  0  0
    2.9796    1.5641    5.2355 H   0  0  0  0  0  0  0  0  0  0  0  0
    1.8109    4.0415    5.5327 H   0  0  0  0  0  0  0  0  0  0  0  0
    4.3092    3.5407    4.3390 H   0  0  0  0  0  0  0  0  0  0  0  0
    0.9819    4.2717    3.3217 H   0  0  0  0  0  0  0  0  0  0  0  0
    2.5524    5.0467    3.0613 H   0  0  0  0  0  0  0  0  0  0  0  0
    3.2120    1.1145    2.8991 H   0  0  0  0  0  0  0  0  0  0  0  0
    0.0819   -0.0157    6.1214 H   0  0  0  0  0  0  0  0  0  0  0  0
   -0.2091   -1.6078    5.5401 H   0  0  0  0  0  0  0  0  0  0  0  0
   -0.1846   -1.1597    8.1197 H   0  0  0  0  0  0  0  0  0  0  0  0
    0.7523   -5.6992    7.5660 H   0  0  0  0  0  0  0  0  0  0  0  0
   -0.3638   -4.6099    4.3755 H   0  0  0  0  0  0  0  0  0  0  0  0
    1.1768   -5.0176    3.6228 H   0  0  0  0  0  0  0  0  0  0  0  0
   -1.2556   -7.5092    4.6720 H   0  0  0  0  0  0  0  0  0  0  0  0
   -1.4000   -8.0112    3.0253 H   0  0  0  0  0  0  0  0  0  0  0  0
    0.7282   -9.1904    1.7810 H   0  0  0  0  0  0  0  0  0  0  0  0
   -0.5265  -10.0611    2.6843 H   0  0  0  0  0  0  0  0  0  0  0  0
    1.1182  -10.4779    2.9069 H   0  0  0  0  0  0  0  0  0  0  0  0
    0.1517   -8.1008    6.8643 H   0  0  0  0  0  0  0  0  0  0  0  0
    1.6088   -9.0889    6.6968 H   0  0  0  0  0  0  0  0  0  0  0  0
    2.0198   -7.0399    3.3678 H   0  0  0  0  0  0  0  0  0  0  0  0
    2.9830   -8.9398    2.6889 H   0  0  0  0  0  0  0  0  0  0  0  0
    3.2627  -10.9664    6.2202 H   0  0  0  0  0  0  0  0  0  0  0  0
    5.7798  -11.3891    2.2917 H   0  0  0  0  0  0  0  0  0  0  0  0
    4.1683  -10.8141    2.4090 H   0  0  0  0  0  0  0  0  0  0  0  0
    7.2398   -7.1342    4.0113 H   0  0  0  0  0  0  0  0  0  0  0  0
    7.9781   -8.3071    1.3081 H   0  0  0  0  0  0  0  0  0  0  0  0
    8.7702   -8.6683    2.8696 H   0  0  0  0  0  0  0  0  0  0  0  0
    8.8551   -7.0496    2.1899 H   0  0  0  0  0  0  0  0  0  0  0  0
    6.4098   -5.4770    2.6022 H   0  0  0  0  0  0  0  0  0  0  0  0
    6.1271   -6.5979    1.2743 H   0  0  0  0  0  0  0  0  0  0  0  0
    4.2334   -5.8734    3.3703 H   0  0  0  0  0  0  0  0  0  0  0  0
    3.9546   -6.8215    1.9277 H   0  0  0  0  0  0  0  0  0  0  0  0
    4.8303   -7.5585    4.7023 H   0  0  0  0  0  0  0  0  0  0  0  0
    4.7341  -12.5636    4.3079 H   0  0  0  0  0  0  0  0  0  0  0  0
    5.1894  -12.7131    6.6351 H   0  0  0  0  0  0  0  0  0  0  0  0
    2.7688   -3.4882    8.6063 H   0  0  0  0  0  0  0  0  0  0  0  0
  1  2  1  0
  1 65  1  0
  1 66  1  0
  1 67  1  0
  2  3  1  0
  3 64  1  0
  3  4  1  0
  3 68  1  1
  4  5  1  0
  4 69  1  0
  4 70  1  0
  5  6  1  0
  5 71  1  0
  5 72  1  0
  6 62  1  0
  6  7  1  0
  6 73  1  1
  7  8  1  0
  7 74  1  0
  7 75  1  0
  8 44  1  0
  8  9  1  0
  8 76  1  1
 10  9  1  6
 10 63  1  0
 10 11  1  0
 10 64  1  0
 11 12  1  0
 11 77  1  0
 11 78  1  0
 12 13  1  0
 13 28  1  0
 13 14  1  0
 13 79  1  1
 14 34  1  0
 14 15  1  0
 14 80  1  6
 15 16  1  0
 15 81  1  0
 15 82  1  0
 16 17  1  0
 16 28  1  0
 16 83  1  6
 18 17  1  1
 18 27  1  0
 18 19  1  0
 18 21  1  0
 19 20  1  0
 19 84  1  0
 19 85  1  0
 20 86  1  0
 21 22  1  0
 22 27  1  0
 22 23  1  0
 22 87  1  1
 23 24  1  0
 23 25  1  0
 23 88  1  1
 24 89  1  0
 25 26  1  0
 25 90  1  0
 25 91  1  0
 26 27  1  0
 27 92  1  1
 28 32  1  6
 28 29  1  0
 29 30  1  0
 29 93  1  0
 29 94  1  0
 30 31  1  0
 30 33  1  0
 30 95  1  1
 31 32  1  0
 34 33  1  1
 34 35  1  0
 34 62  1  0
 35 36  2  3
 35 96  1  0
 36 44  1  0
 36 37  1  0
 37 38  1  0
 37 97  1  0
 37 98  1  0
 38 39  1  0
 39 40  1  0
 39 99  1  0
 39100  1  0
 40 45  1  0
 40 41  1  6
 40 42  1  0
 41101  1  0
 41102  1  0
 41103  1  0
 42 43  1  0
 44 43  1  1
 43104  1  0
 43105  1  0
 44 45  1  0
 45 46  1  0
 45106  1  6
 46 59  1  0
 46 47  1  0
 46107  1  6
 47 48  1  0
 48 60  1  0
 48 49  1  0
 48108  1  1
 49 50  1  0
 50 54  1  0
 50 51  1  6
 50 60  1  0
 51 52  1  0
 51109  1  0
 51110  1  0
 53 52  1  6
 53 59  1  0
 53 54  1  0
 53 55  1  0
 55 56  1  0
 55 57  1  0
 55111  1  1
 56112  1  0
 56113  1  0
 56114  1  0
 57 58  1  0
 57115  1  0
 57116  1  0
 58 59  1  0
 58117  1  0
 58118  1  0
 59119  1  1
 60 61  1  0
 60120  1  6
 61121  1  0
 62 63  1  0
 62122  1  1
M  END
>  <i_m_ct_stereo_status>  (131) 
1

>  <s_m_source_file>  (131) 
/var/tmp/pbs.5076253.sched01/tmp9pzrzrnh/1418a54yjb5.sdf

>  <i_m_source_file_index>  (131) 
10

>  <i_lp_mmshare_version>  (131) 
48012

>  <i_f3d_flags>  (131) 
2

>  <s_epik_input>  (131) 
W09IXVtDQEhdMVtDSDJdT1tDQEBIXShbQ0BASF0xMilbQ0BAXShPMikoW0NIMl1bT0hdKU9bQ0BIXShbQ0gyXTMpW0NAQF00KFtDSDJdW0NAQEhdKE81KU9PNClbQ0BASF0oT1tDSDJdNilbQ0BIXTNDNShbQ0BIXShPNylbQ0BASF0oW0NIMl04KVtDSDJdW0NIMl1bQ0BIXShPOSlPW0NIM10pL1tDSF09QyhbQ0BAXTEyW0NASF04T1tDQEBdNjc5KS9bQ0gyXU9bQ0gyXVtDQF0oW0NIM10pKE9bQ0gyXTEpW0NAQEhdMltDQEhdKE9bQ0BIXShPQzEyMylbQ0BASF0zW09IXSlbQ0BIXTNbQ0BAXShPMikoT1tDSDJdMSlbQ0BASF0oW0NIM10pW0NIMl1bQ0gyXTM=

>  <s_epik_cmdline>  (131) 
J2VwaWtfcHl0aG9uJywgJy1waHQnLCAnMi4wJywgJy1waCcsICc3LjAnLCAnLXRuJywgJzgnLCAnLW1hJywgJzIwMCcsICctaW1hZScsICc8aW5maWxlLm1hZT4nLCAnLW9tYWUnLCAnPG91dGZpbGUubWFlPic=

>  <r_epik_Ionization_Penalty>  (131) 
0.000581966

>  <r_epik_Ionization_Penalty_Charging>  (131) 
0

>  <r_epik_Ionization_Penalty_Neutral>  (131) 
0.000581966

>  <r_epik_State_Penalty>  (131) 
0.000365299

>  <r_epik_Charging_Adjusted_Penalty>  (131) 
0.000365299

>  <i_epik_Tot_Q>  (131) 
0

>  <i_epik_Tot_abs_Q>  (131) 
0

>  <s_epik_Chemistry_Notes>  (131) 
This compound contains an acetal/aminal-like group ( X-CH(R)-Y where X, Y are N, S, or O) that may be acid/base labile, releasing an aldehyde.

>  <s_lp_Force_Field>  (131) 
OPLS3e

>  <r_lp_Energy>  (131) 
399.971

>  <b_lp_Chiralities_Consistent>  (131) 
0

>  <s_lp_Variant>  (131) 
87:0-6

>  <s_i_glide_gridfile>  (131) 
pfpi4k_grid

>  <i_i_glide_lignum>  (131) 
10

>  <i_i_glide_rotatable_bonds>  (131) 
8

>  <r_i_docking_score>  (131) 
-2.30628

>  <r_i_glide_ligand_efficiency>  (131) 
-0.0360357

>  <r_i_glide_ligand_efficiency_sa>  (131) 
-0.144143

>  <r_i_glide_ligand_efficiency_ln>  (131) 
-0.447051

>  <r_i_glide_gscore>  (131) 
-2.30628

>  <r_i_glide_lipo>  (131) 
-0.0519383

>  <r_i_glide_hbond>  (131) 
-0.129442

>  <r_i_glide_metal>  (131) 
-0

>  <r_i_glide_rewards>  (131) 
-0.000530586

>  <r_i_glide_evdw>  (131) 
-29.1248

>  <r_i_glide_ecoul>  (131) 
-4.79996

>  <r_i_glide_erotb>  (131) 
0.107316

>  <r_i_glide_esite>  (131) 
-0.0798091

>  <r_i_glide_emodel>  (131) 
-32.176

>  <r_i_glide_energy>  (131) 
-33.9247

>  <r_i_glide_einternal>  (131) 
6.2279

>  <r_i_glide_intrahb_reward>  (131) 
-0

>  <i_i_glide_confnum>  (131) 
2

>  <i_i_glide_posenum>  (131) 
21

>  <r_i_glide_eff_state_penalty>  (131) 
0

>  <ligand_id>  (131) 
87

>  <original_smiles>  (131) 
COC1CCC2CC3OC4(COC5C6CC(OC7(CO)OC8C(O)COC87)C57CC(OO7)OC6(C=C5COCC6(C)OCC53C6C3OC5OC6(COC7(O6)C(C)CCC37)C5O)C2O4)O1

>  <smiles>  (131) 
[H]OC([H])([H])C1(OC2([H])C([H])([H])C3([H])C4([H])OC([H])([H])C56OC([H])(OC([H])([H])[H])C([H])([H])C([H])([H])C7([H])C([H])([H])C([H])(O5)C58C(=C([H])C3(OC3([H])OOC24C3([H])[H])C7([H])O6)C([H])([H])OC([H])([H])C(C([H])([H])[H])(OC5([H])[H])C8([H])C2([H])OC3([H])OC4(OC5(OC4([H])[H])C([H])(C([H])([H])[H])C([H])([H])C([H])([H])C25[H])C3([H])O[H])OC2([H])C([H])(O[H])C([H])([H])OC21[H]

$$$$
87:5:1
     RDKit          3D

122136  0  0  1  0  0  0  0  0999 V2000
   -1.5727    0.2575    6.4137 C   0  0  0  0  0  0  0  0  0  0  0  0
   -0.9730   -0.9420    6.8725 O   0  0  0  0  0  0  0  0  0  0  0  0
   -1.0769   -2.0112    5.9859 C   0  0  2  0  0  0  0  0  0  0  0  0
   -0.8536   -3.3734    6.7246 C   0  0  0  0  0  0  0  0  0  0  0  0
    0.3339   -3.4924    7.7331 C   0  0  0  0  0  0  0  0  0  0  0  0
    1.7656   -2.9631    7.3819 C   0  0  2  0  0  0  0  0  0  0  0  0
    1.8218   -1.4491    7.6160 C   0  0  0  0  0  0  0  0  0  0  0  0
    2.0035   -0.5061    6.4019 C   0  0  2  0  0  0  0  0  0  0  0  0
    1.8218   -1.0533    5.0669 O   0  0  0  0  0  0  0  0  0  0  0  0
    0.9618   -2.1145    4.6353 C   0  0  1  0  0  0  0  0  0  0  0  0
    1.1811   -2.2905    3.0530 C   0  0  0  0  0  0  0  0  0  0  0  0
    1.8728   -3.5174    2.6054 O   0  0  0  0  0  0  0  0  0  0  0  0
    3.0244   -4.0110    3.3215 C   0  0  2  0  0  0  0  0  0  0  0  0
    3.7080   -2.8146    3.8710 C   0  0  1  0  0  0  0  0  0  0  0  0
    4.4874   -2.4341    2.5110 C   0  0  0  0  0  0  0  0  0  0  0  0
    4.4749   -3.6973    1.5732 C   0  0  1  0  0  0  0  0  0  0  0  0
    5.7402   -3.8168    0.9204 O   0  0  0  0  0  0  0  0  0  0  0  0
    5.8448   -3.5318   -0.4745 C   0  0  1  0  0  0  0  0  0  0  0  0
    7.3368   -3.3147   -0.7152 C   0  0  0  0  0  0  0  0  0  0  0  0
    7.6960   -2.0027   -0.3257 O   0  0  0  0  0  0  0  0  0  0  0  0
    5.2980   -4.6035   -1.2952 O   0  0  0  0  0  0  0  0  0  0  0  0
    4.1679   -3.7708   -1.6901 C   0  0  2  0  0  0  0  0  0  0  0  0
    4.0698   -3.5644   -3.1766 C   0  0  1  0  0  0  0  0  0  0  0  0
    2.8000   -3.0330   -3.5169 O   0  0  0  0  0  0  0  0  0  0  0  0
    5.1618   -2.5313   -3.4162 C   0  0  0  0  0  0  0  0  0  0  0  0
    5.3024   -1.7825   -2.2084 O   0  0  0  0  0  0  0  0  0  0  0  0
    4.8342   -2.5376   -1.0876 C   0  0  2  0  0  0  0  0  0  0  0  0
    4.2010   -4.7266    2.6432 C   0  0  1  0  0  0  0  0  0  0  0  0
    5.4905   -4.9953    3.4531 C   0  0  0  0  0  0  0  0  0  0  0  0
    4.9625   -5.5070    4.7573 C   0  0  2  0  0  0  0  0  0  0  0  0
    3.9564   -6.3889    4.2093 O   0  0  0  0  0  0  0  0  0  0  0  0
    3.8248   -6.0733    2.6882 O   0  0  0  0  0  0  0  0  0  0  0  0
    4.5559   -4.4359    5.6890 O   0  0  0  0  0  0  0  0  0  0  0  0
    3.8268   -3.1776    5.4271 C   0  0  1  0  0  0  0  0  0  0  0  0
    4.4498   -2.0260    6.2702 C   0  0  0  0  0  0  0  0  0  0  0  0
    4.4848   -0.7259    5.8871 C   0  0  0  0  0  0  0  0  0  0  0  0
    5.3246   -0.3008    4.6742 C   0  0  0  0  0  0  0  0  0  0  0  0
    5.9996    0.9157    4.7250 O   0  0  0  0  0  0  0  0  0  0  0  0
    6.0019    1.6821    5.9322 C   0  0  0  0  0  0  0  0  0  0  0  0
    4.6279    2.3394    6.2411 C   0  0  2  0  0  0  0  0  0  0  0  0
    4.7208    3.8725    6.0542 C   0  0  0  0  0  0  0  0  0  0  0  0
    4.4112    2.0828    7.6177 O   0  0  0  0  0  0  0  0  0  0  0  0
    3.7707    0.8261    7.7843 C   0  0  0  0  0  0  0  0  0  0  0  0
    3.3833    0.2696    6.3928 C   0  0  2  0  0  0  0  0  0  0  0  0
    3.3888    1.6287    5.5963 C   0  0  1  0  0  0  0  0  0  0  0  0
    2.1057    2.5621    5.5517 C   0  0  2  0  0  0  0  0  0  0  0  0
    1.9449    3.3485    6.8277 O   0  0  0  0  0  0  0  0  0  0  0  0
    0.8062    3.2015    7.7080 C   0  0  2  0  0  0  0  0  0  0  0  0
    0.0199    2.4009    6.9775 O   0  0  0  0  0  0  0  0  0  0  0  0
   -0.5416    3.5897    6.3221 C   0  0  1  0  0  0  0  0  0  0  0  0
    0.0389    4.6195    5.2838 C   0  0  0  0  0  0  0  0  0  0  0  0
   -0.1259    4.0343    4.0148 O   0  0  0  0  0  0  0  0  0  0  0  0
   -0.4920    2.7713    4.3850 C   0  0  1  0  0  0  0  0  0  0  0  0
   -1.4169    2.9826    5.4634 O   0  0  0  0  0  0  0  0  0  0  0  0
   -1.1759    1.9838    3.2507 C   0  0  1  0  0  0  0  0  0  0  0  0
   -2.3068    2.7530    2.5603 C   0  0  0  0  0  0  0  0  0  0  0  0
   -0.0082    1.5661    2.3522 C   0  0  0  0  0  0  0  0  0  0  0  0
    1.2558    1.4978    3.2302 C   0  0  0  0  0  0  0  0  0  0  0  0
    0.8732    1.9205    4.6652 C   0  0  1  0  0  0  0  0  0  0  0  0
   -0.4786    4.1570    7.7287 C   0  0  1  0  0  0  0  0  0  0  0  0
   -1.5548    3.8433    8.6089 O   0  0  0  0  0  0  0  0  0  0  0  0
    2.3463   -3.4961    6.0409 C   0  0  2  0  0  0  0  0  0  0  0  0
    1.2624   -3.3567    5.1501 O   0  0  0  0  0  0  0  0  0  0  0  0
   -0.4045   -1.8329    4.7750 O   0  0  0  0  0  0  0  0  0  0  0  0
   -1.4741    0.9733    7.2272 H   0  0  0  0  0  0  0  0  0  0  0  0
   -2.6039    0.2137    6.1275 H   0  0  0  0  0  0  0  0  0  0  0  0
   -1.0332    0.5287    5.5761 H   0  0  0  0  0  0  0  0  0  0  0  0
   -2.1215   -1.9902    5.6908 H   0  0  0  0  0  0  0  0  0  0  0  0
   -1.7684   -3.5685    7.2842 H   0  0  0  0  0  0  0  0  0  0  0  0
   -0.8199   -4.1570    5.9643 H   0  0  0  0  0  0  0  0  0  0  0  0
    0.0291   -3.0687    8.6884 H   0  0  0  0  0  0  0  0  0  0  0  0
    0.4326   -4.5528    7.9457 H   0  0  0  0  0  0  0  0  0  0  0  0
    2.4086   -3.3854    8.1630 H   0  0  0  0  0  0  0  0  0  0  0  0
    0.9541   -1.1248    8.1797 H   0  0  0  0  0  0  0  0  0  0  0  0
    2.5876   -1.2758    8.3690 H   0  0  0  0  0  0  0  0  0  0  0  0
    1.2456    0.2322    6.6017 H   0  0  0  0  0  0  0  0  0  0  0  0
    0.2116   -2.2599    2.5791 H   0  0  0  0  0  0  0  0  0  0  0  0
    1.7185   -1.4277    2.6511 H   0  0  0  0  0  0  0  0  0  0  0  0
    2.5466   -4.7095    3.9860 H   0  0  0  0  0  0  0  0  0  0  0  0
    4.7474   -2.8564    4.1234 H   0  0  0  0  0  0  0  0  0  0  0  0
    3.9415   -1.6393    1.9991 H   0  0  0  0  0  0  0  0  0  0  0  0
    5.5119   -2.0473    2.5949 H   0  0  0  0  0  0  0  0  0  0  0  0
    3.6388   -3.6739    0.8829 H   0  0  0  0  0  0  0  0  0  0  0  0
    7.9402   -4.0331   -0.1558 H   0  0  0  0  0  0  0  0  0  0  0  0
    7.5880   -3.4389   -1.7641 H   0  0  0  0  0  0  0  0  0  0  0  0
    7.6175   -1.9465    0.6162 H   0  0  0  0  0  0  0  0  0  0  0  0
    3.2455   -4.1131   -1.2130 H   0  0  0  0  0  0  0  0  0  0  0  0
    4.2272   -4.4794   -3.7567 H   0  0  0  0  0  0  0  0  0  0  0  0
    2.1327   -3.6481   -3.2325 H   0  0  0  0  0  0  0  0  0  0  0  0
    6.1043   -3.0584   -3.5636 H   0  0  0  0  0  0  0  0  0  0  0  0
    4.9767   -1.8839   -4.2743 H   0  0  0  0  0  0  0  0  0  0  0  0
    4.2302   -1.9465   -0.3985 H   0  0  0  0  0  0  0  0  0  0  0  0
    6.1102   -5.7538    2.9610 H   0  0  0  0  0  0  0  0  0  0  0  0
    6.1213   -4.1491    3.5938 H   0  0  0  0  0  0  0  0  0  0  0  0
    5.7238   -6.0899    5.2699 H   0  0  0  0  0  0  0  0  0  0  0  0
    4.1286   -2.1875    7.2769 H   0  0  0  0  0  0  0  0  0  0  0  0
    6.1001   -1.0507    4.5343 H   0  0  0  0  0  0  0  0  0  0  0  0
    4.7143   -0.2719    3.7747 H   0  0  0  0  0  0  0  0  0  0  0  0
    6.3613    1.0465    6.7400 H   0  0  0  0  0  0  0  0  0  0  0  0
    6.7676    2.4513    5.8233 H   0  0  0  0  0  0  0  0  0  0  0  0
    4.7543    4.1501    5.0014 H   0  0  0  0  0  0  0  0  0  0  0  0
    5.5997    4.2746    6.5504 H   0  0  0  0  0  0  0  0  0  0  0  0
    3.9012    4.4230    6.4998 H   0  0  0  0  0  0  0  0  0  0  0  0
    4.4255    0.1464    8.3305 H   0  0  0  0  0  0  0  0  0  0  0  0
    2.8854    1.0000    8.3938 H   0  0  0  0  0  0  0  0  0  0  0  0
    3.5863    1.4516    4.5360 H   0  0  0  0  0  0  0  0  0  0  0  0
    2.4184    3.3567    4.8703 H   0  0  0  0  0  0  0  0  0  0  0  0
    1.0495    2.7734    8.6735 H   0  0  0  0  0  0  0  0  0  0  0  0
   -0.5649    5.5295    5.2726 H   0  0  0  0  0  0  0  0  0  0  0  0
    1.0459    4.9676    5.4725 H   0  0  0  0  0  0  0  0  0  0  0  0
   -1.6231    1.0705    3.6442 H   0  0  0  0  0  0  0  0  0  0  0  0
   -1.9230    3.6693    2.1153 H   0  0  0  0  0  0  0  0  0  0  0  0
   -3.0970    3.0050    3.2662 H   0  0  0  0  0  0  0  0  0  0  0  0
   -2.7557    2.1433    1.7726 H   0  0  0  0  0  0  0  0  0  0  0  0
   -0.2137    0.6419    1.8028 H   0  0  0  0  0  0  0  0  0  0  0  0
    0.1658    2.3427    1.6168 H   0  0  0  0  0  0  0  0  0  0  0  0
    1.6238    0.4802    3.2561 H   0  0  0  0  0  0  0  0  0  0  0  0
    2.0626    2.1044    2.8065 H   0  0  0  0  0  0  0  0  0  0  0  0
    0.6198    0.9838    5.0629 H   0  0  0  0  0  0  0  0  0  0  0  0
   -0.2685    5.2289    7.7999 H   0  0  0  0  0  0  0  0  0  0  0  0
   -1.3210    4.0918    9.4892 H   0  0  0  0  0  0  0  0  0  0  0  0
    2.3313   -4.5743    6.1902 H   0  0  0  0  0  0  0  0  0  0  0  0
  1  2  1  0
  1 65  1  0
  1 66  1  0
  1 67  1  0
  2  3  1  0
  3 64  1  0
  3  4  1  0
  3 68  1  6
  4  5  1  0
  4 69  1  0
  4 70  1  0
  5  6  1  0
  5 71  1  0
  5 72  1  0
  6 62  1  0
  6  7  1  0
  6 73  1  1
  7  8  1  0
  7 74  1  0
  7 75  1  0
  8 44  1  0
  8  9  1  0
  8 76  1  1
 10  9  1  1
 10 63  1  0
 10 11  1  0
 10 64  1  0
 11 12  1  0
 11 77  1  0
 11 78  1  0
 12 13  1  0
 13 28  1  0
 13 14  1  0
 13 79  1  1
 14 34  1  0
 14 15  1  0
 14 80  1  1
 15 16  1  0
 15 81  1  0
 15 82  1  0
 16 17  1  0
 16 28  1  0
 16 83  1  6
 18 17  1  1
 18 27  1  0
 18 19  1  0
 18 21  1  0
 19 20  1  0
 19 84  1  0
 19 85  1  0
 20 86  1  0
 21 22  1  0
 22 27  1  0
 22 23  1  0
 22 87  1  1
 23 24  1  0
 23 25  1  0
 23 88  1  6
 24 89  1  0
 25 26  1  0
 25 90  1  0
 25 91  1  0
 26 27  1  0
 27 92  1  1
 28 32  1  6
 28 29  1  0
 29 30  1  0
 29 93  1  0
 29 94  1  0
 30 31  1  0
 30 33  1  0
 30 95  1  1
 31 32  1  0
 34 33  1  6
 34 35  1  0
 34 62  1  0
 35 36  2  3
 35 96  1  0
 36 44  1  0
 36 37  1  0
 37 38  1  0
 37 97  1  0
 37 98  1  0
 38 39  1  0
 39 40  1  0
 39 99  1  0
 39100  1  0
 40 45  1  0
 40 41  1  1
 40 42  1  0
 41101  1  0
 41102  1  0
 41103  1  0
 42 43  1  0
 44 43  1  1
 43104  1  0
 43105  1  0
 44 45  1  0
 45 46  1  0
 45106  1  6
 46 59  1  0
 46 47  1  0
 46107  1  6
 47 48  1  0
 48 60  1  0
 48 49  1  0
 48108  1  1
 49 50  1  0
 50 54  1  0
 50 51  1  6
 50 60  1  0
 51 52  1  0
 51109  1  0
 51110  1  0
 53 52  1  6
 53 59  1  0
 53 54  1  0
 53 55  1  0
 55 56  1  0
 55 57  1  0
 55111  1  1
 56112  1  0
 56113  1  0
 56114  1  0
 57 58  1  0
 57115  1  0
 57116  1  0
 58 59  1  0
 58117  1  0
 58118  1  0
 59119  1  1
 60 61  1  0
 60120  1  6
 61121  1  0
 62 63  1  0
 62122  1  1
M  END
>  <i_m_ct_stereo_status>  (132) 
1

>  <s_m_source_file>  (132) 
/var/tmp/pbs.5076253.sched01/tmp9pzrzrnh/1418a54yjb5.sdf

>  <i_m_source_file_index>  (132) 
10

>  <i_lp_mmshare_version>  (132) 
48012

>  <i_f3d_flags>  (132) 
2

>  <s_epik_input>  (132) 
W09IXVtDQEhdMVtDSDJdT1tDQEBIXShbQ0BASF0xMilbQ0BAXShPMikoW0NIMl1bT0hdKU9bQ0BIXShbQ0gyXTMpW0NAQF00KFtDSDJdW0NAQEhdKE81KU9PNClbQ0BASF0oT1tDSDJdNilbQ0BIXTNDNShbQ0BIXShPNylbQ0BASF0oW0NIMl04KVtDSDJdW0NIMl1bQ0BIXShPOSlPW0NIM10pL1tDSF09QyhbQ0BAXTEyW0NASF04T1tDQEBdNjc5KS9bQ0gyXU9bQ0gyXVtDQF0oW0NIM10pKE9bQ0gyXTEpW0NAQEhdMltDQEhdKE9bQ0BIXShPQzEyMylbQ0BASF0zW09IXSlbQ0BIXTNbQ0BAXShPMikoT1tDSDJdMSlbQ0BASF0oW0NIM10pW0NIMl1bQ0gyXTM=

>  <s_epik_cmdline>  (132) 
J2VwaWtfcHl0aG9uJywgJy1waHQnLCAnMi4wJywgJy1waCcsICc3LjAnLCAnLXRuJywgJzgnLCAnLW1hJywgJzIwMCcsICctaW1hZScsICc8aW5maWxlLm1hZT4nLCAnLW9tYWUnLCAnPG91dGZpbGUubWFlPic=

>  <r_epik_Ionization_Penalty>  (132) 
0.000581966

>  <r_epik_Ionization_Penalty_Charging>  (132) 
0

>  <r_epik_Ionization_Penalty_Neutral>  (132) 
0.000581966

>  <r_epik_State_Penalty>  (132) 
0.000365299

>  <r_epik_Charging_Adjusted_Penalty>  (132) 
0.000365299

>  <i_epik_Tot_Q>  (132) 
0

>  <i_epik_Tot_abs_Q>  (132) 
0

>  <s_epik_Chemistry_Notes>  (132) 
This compound contains an acetal/aminal-like group ( X-CH(R)-Y where X, Y are N, S, or O) that may be acid/base labile, releasing an aldehyde.

>  <s_lp_Force_Field>  (132) 
OPLS3e

>  <r_lp_Energy>  (132) 
399.971

>  <b_lp_Chiralities_Consistent>  (132) 
0

>  <s_lp_Variant>  (132) 
87:0-6

>  <s_i_glide_gridfile>  (132) 
pfpi4k_grid

>  <i_i_glide_lignum>  (132) 
10

>  <i_i_glide_rotatable_bonds>  (132) 
8

>  <r_i_docking_score>  (132) 
-2.26594

>  <r_i_glide_ligand_efficiency>  (132) 
-0.0354053

>  <r_i_glide_ligand_efficiency_sa>  (132) 
-0.141621

>  <r_i_glide_ligand_efficiency_ln>  (132) 
-0.439231

>  <r_i_glide_gscore>  (132) 
-2.26594

>  <r_i_glide_lipo>  (132) 
-0.357048

>  <r_i_glide_hbond>  (132) 
-0.0437856

>  <r_i_glide_metal>  (132) 
-0

>  <r_i_glide_rewards>  (132) 
-0.101579

>  <r_i_glide_evdw>  (132) 
-29.6366

>  <r_i_glide_ecoul>  (132) 
-5.67802

>  <r_i_glide_erotb>  (132) 
0.107316

>  <r_i_glide_esite>  (132) 
-0.0768606

>  <r_i_glide_emodel>  (132) 
-32.7944

>  <r_i_glide_energy>  (132) 
-35.3146

>  <r_i_glide_einternal>  (132) 
5.87538

>  <r_i_glide_intrahb_reward>  (132) 
-0

>  <i_i_glide_confnum>  (132) 
2

>  <i_i_glide_posenum>  (132) 
25

>  <r_i_glide_eff_state_penalty>  (132) 
0

>  <ligand_id>  (132) 
87

>  <original_smiles>  (132) 
COC1CCC2CC3OC4(COC5C6CC(OC7(CO)OC8C(O)COC87)C57CC(OO7)OC6(C=C5COCC6(C)OCC53C6C3OC5OC6(COC7(O6)C(C)CCC37)C5O)C2O4)O1

>  <smiles>  (132) 
[H]OC([H])([H])C1(OC2([H])C([H])([H])C3([H])C4([H])OC([H])([H])C56OC([H])(OC([H])([H])[H])C([H])([H])C([H])([H])C7([H])C([H])([H])C([H])(O5)C58C(=C([H])C3(OC3([H])OOC24C3([H])[H])C7([H])O6)C([H])([H])OC([H])([H])C(C([H])([H])[H])(OC5([H])[H])C8([H])C2([H])OC3([H])OC4(OC5(OC4([H])[H])C([H])(C([H])([H])[H])C([H])([H])C([H])([H])C25[H])C3([H])O[H])OC2([H])C([H])(O[H])C([H])([H])OC21[H]

$$$$
87:5:2
     RDKit          3D

122136  0  0  1  0  0  0  0  0999 V2000
   -1.4844    0.6990    6.5435 C   0  0  0  0  0  0  0  0  0  0  0  0
   -0.9903   -0.5536    6.9710 O   0  0  0  0  0  0  0  0  0  0  0  0
   -1.1240   -1.5878    6.0687 C   0  0  2  0  0  0  0  0  0  0  0  0
   -1.0221   -2.9800    6.7699 C   0  0  0  0  0  0  0  0  0  0  0  0
    0.0964   -3.1944    7.8376 C   0  0  0  0  0  0  0  0  0  0  0  0
    1.5765   -2.7618    7.5781 C   0  0  2  0  0  0  0  0  0  0  0  0
    1.7197   -1.2597    7.8531 C   0  0  0  0  0  0  0  0  0  0  0  0
    2.0298   -0.3126    6.6718 C   0  0  2  0  0  0  0  0  0  0  0  0
    1.8698   -0.8098    5.3107 O   0  0  0  0  0  0  0  0  0  0  0  0
    0.9705   -1.7992    4.8110 C   0  0  1  0  0  0  0  0  0  0  0  0
    1.2549   -1.9672    3.2454 C   0  0  0  0  0  0  0  0  0  0  0  0
    1.8809   -3.2132    2.7888 O   0  0  0  0  0  0  0  0  0  0  0  0
    2.9698   -3.7910    3.5506 C   0  0  2  0  0  0  0  0  0  0  0  0
    3.7097   -2.6599    4.1683 C   0  0  1  0  0  0  0  0  0  0  0  0
    4.5808   -2.3073    2.8624 C   0  0  0  0  0  0  0  0  0  0  0  0
    4.5399   -3.5437    1.8917 C   0  0  1  0  0  0  0  0  0  0  0  0
    5.8194   -3.7372    1.3030 O   0  0  0  0  0  0  0  0  0  0  0  0
    5.9984   -3.5351   -0.1047 C   0  0  1  0  0  0  0  0  0  0  0  0
    7.5133   -3.4159   -0.2915 C   0  0  0  0  0  0  0  0  0  0  0  0
    7.9222   -2.0555   -0.2283 O   0  0  0  0  0  0  0  0  0  0  0  0
    5.4111   -4.6105   -0.8926 O   0  0  0  0  0  0  0  0  0  0  0  0
    4.3510   -3.7233   -1.3642 C   0  0  2  0  0  0  0  0  0  0  0  0
    4.3218   -3.5839   -2.8601 C   0  0  1  0  0  0  0  0  0  0  0  0
    3.1029   -2.9857   -3.2779 O   0  0  0  0  0  0  0  0  0  0  0  0
    5.4954   -2.6441   -3.0894 C   0  0  0  0  0  0  0  0  0  0  0  0
    5.6255   -1.8394   -1.9188 O   0  0  0  0  0  0  0  0  0  0  0  0
    5.0722   -2.5154   -0.7891 C   0  0  2  0  0  0  0  0  0  0  0  0
    4.1546   -4.5729    2.9356 C   0  0  1  0  0  0  0  0  0  0  0  0
    5.3894   -4.9448    3.8026 C   0  0  0  0  0  0  0  0  0  0  0  0
    4.7453   -5.4444    5.0535 C   0  0  2  0  0  0  0  0  0  0  0  0
    3.7142   -6.2492    4.4363 O   0  0  0  0  0  0  0  0  0  0  0  0
    3.6779   -5.8892    2.9278 O   0  0  0  0  0  0  0  0  0  0  0  0
    4.3478   -4.3763    5.9949 O   0  0  0  0  0  0  0  0  0  0  0  0
    3.7171   -3.0673    5.7229 C   0  0  1  0  0  0  0  0  0  0  0  0
    4.3768   -1.9658    6.6189 C   0  0  0  0  0  0  0  0  0  0  0  0
    4.5147   -0.6822    6.2773 C   0  0  0  0  0  0  0  0  0  0  0  0
    5.4503   -0.2772    5.1135 C   0  0  0  0  0  0  0  0  0  0  0  0
    6.1919    0.9307    5.2191 O   0  0  0  0  0  0  0  0  0  0  0  0
    6.1772    1.6353    6.4426 C   0  0  0  0  0  0  0  0  0  0  0  0
    4.8288    2.3704    6.7047 C   0  0  2  0  0  0  0  0  0  0  0  0
    5.0366    3.8987    6.5600 C   0  0  0  0  0  0  0  0  0  0  0  0
    4.5262    2.1022    8.0612 O   0  0  0  0  0  0  0  0  0  0  0  0
    3.7982    0.8862    8.1711 C   0  0  0  0  0  0  0  0  0  0  0  0
    3.4519    0.3839    6.7496 C   0  0  2  0  0  0  0  0  0  0  0  0
    3.5825    1.7512    5.9827 C   0  0  1  0  0  0  0  0  0  0  0  0
    2.3533    2.7651    5.8891 C   0  0  2  0  0  0  0  0  0  0  0  0
    2.2486    3.6044    7.1427 O   0  0  0  0  0  0  0  0  0  0  0  0
    1.0776    3.5674    8.0052 C   0  0  2  0  0  0  0  0  0  0  0  0
    0.2468    2.8019    7.2852 O   0  0  0  0  0  0  0  0  0  0  0  0
   -0.2154    4.0040    6.5877 C   0  0  1  0  0  0  0  0  0  0  0  0
    0.4484    4.9545    5.5258 C   0  0  0  0  0  0  0  0  0  0  0  0
    0.2570    4.3502    4.2678 O   0  0  0  0  0  0  0  0  0  0  0  0
   -0.2054    3.1208    4.6798 C   0  0  1  0  0  0  0  0  0  0  0  0
   -1.1237    3.4303    5.7292 O   0  0  0  0  0  0  0  0  0  0  0  0
   -0.9246    2.3419    3.5422 C   0  0  1  0  0  0  0  0  0  0  0  0
   -1.9907    3.1645    2.8306 C   0  0  0  0  0  0  0  0  0  0  0  0
    0.2261    1.8184    2.6822 C   0  0  0  0  0  0  0  0  0  0  0  0
    1.4714    1.6964    3.5843 C   0  0  0  0  0  0  0  0  0  0  0  0
    1.1037    2.2011    4.9882 C   0  0  1  0  0  0  0  0  0  0  0  0
   -0.1359    4.6102    7.9672 C   0  0  1  0  0  0  0  0  0  0  0  0
   -1.2439    4.4017    8.8611 O   0  0  0  0  0  0  0  0  0  0  0  0
    2.1869   -3.2983    6.2492 C   0  0  2  0  0  0  0  0  0  0  0  0
    1.1594   -3.0740    5.3083 O   0  0  0  0  0  0  0  0  0  0  0  0
   -0.3808   -1.4229    4.8838 O   0  0  0  0  0  0  0  0  0  0  0  0
   -1.3531    1.4136    7.3564 H   0  0  0  0  0  0  0  0  0  0  0  0
   -2.5216    0.7608    6.1962 H   0  0  0  0  0  0  0  0  0  0  0  0
   -0.9113    0.9275    5.6988 H   0  0  0  0  0  0  0  0  0  0  0  0
   -2.1502   -1.4895    5.7028 H   0  0  0  0  0  0  0  0  0  0  0  0
   -1.9717   -3.1371    7.2694 H   0  0  0  0  0  0  0  0  0  0  0  0
   -0.9919   -3.7382    5.9971 H   0  0  0  0  0  0  0  0  0  0  0  0
   -0.2280   -2.7751    8.7915 H   0  0  0  0  0  0  0  0  0  0  0  0
    0.1141   -4.2651    8.0284 H   0  0  0  0  0  0  0  0  0  0  0  0
    2.1492   -3.2375    8.3783 H   0  0  0  0  0  0  0  0  0  0  0  0
    0.8420   -0.8884    8.3795 H   0  0  0  0  0  0  0  0  0  0  0  0
    2.4559   -1.1484    8.6512 H   0  0  0  0  0  0  0  0  0  0  0  0
    1.3239    0.4565    6.9052 H   0  0  0  0  0  0  0  0  0  0  0  0
    0.3023   -1.8637    2.7206 H   0  0  0  0  0  0  0  0  0  0  0  0
    1.8492   -1.1400    2.8720 H   0  0  0  0  0  0  0  0  0  0  0  0
    2.4183   -4.4717    4.1746 H   0  0  0  0  0  0  0  0  0  0  0  0
    4.7309   -2.7900    4.4699 H   0  0  0  0  0  0  0  0  0  0  0  0
    4.1173   -1.4682    2.3423 H   0  0  0  0  0  0  0  0  0  0  0  0
    5.6226   -1.9917    3.0042 H   0  0  0  0  0  0  0  0  0  0  0  0
    3.7414   -3.4446    1.1627 H   0  0  0  0  0  0  0  0  0  0  0  0
    8.0497   -3.9776    0.4709 H   0  0  0  0  0  0  0  0  0  0  0  0
    7.8155   -3.8184   -1.2565 H   0  0  0  0  0  0  0  0  0  0  0  0
    8.8616   -2.0160   -0.2762 H   0  0  0  0  0  0  0  0  0  0  0  0
    3.3897   -3.9894   -0.9121 H   0  0  0  0  0  0  0  0  0  0  0  0
    4.4442   -4.5273   -3.3955 H   0  0  0  0  0  0  0  0  0  0  0  0
    2.3938   -3.5750   -3.0724 H   0  0  0  0  0  0  0  0  0  0  0  0
    6.4158   -3.2161   -3.2197 H   0  0  0  0  0  0  0  0  0  0  0  0
    5.3517   -1.9982   -3.9363 H   0  0  0  0  0  0  0  0  0  0  0  0
    4.4949   -1.8392   -0.1578 H   0  0  0  0  0  0  0  0  0  0  0  0
    5.9593   -5.7414    3.3196 H   0  0  0  0  0  0  0  0  0  0  0  0
    6.1317   -4.1793    3.9947 H   0  0  0  0  0  0  0  0  0  0  0  0
    5.4295   -6.0942    5.6032 H   0  0  0  0  0  0  0  0  0  0  0  0
    3.9876   -2.1331    7.6098 H   0  0  0  0  0  0  0  0  0  0  0  0
    6.1823   -1.0738    5.0035 H   0  0  0  0  0  0  0  0  0  0  0  0
    4.8877   -0.1950    4.1914 H   0  0  0  0  0  0  0  0  0  0  0  0
    6.4528    0.9596    7.2531 H   0  0  0  0  0  0  0  0  0  0  0  0
    6.9943    2.3553    6.3944 H   0  0  0  0  0  0  0  0  0  0  0  0
    5.1447    4.1959    5.5184 H   0  0  0  0  0  0  0  0  0  0  0  0
    5.9125    4.2301    7.1135 H   0  0  0  0  0  0  0  0  0  0  0  0
    4.2386    4.4987    6.9822 H   0  0  0  0  0  0  0  0  0  0  0  0
    4.3760    0.1550    8.7334 H   0  0  0  0  0  0  0  0  0  0  0  0
    2.8935    1.1077    8.7347 H   0  0  0  0  0  0  0  0  0  0  0  0
    3.8224    1.5830    4.9318 H   0  0  0  0  0  0  0  0  0  0  0  0
    2.7372    3.5199    5.1913 H   0  0  0  0  0  0  0  0  0  0  0  0
    1.2922    3.1545    8.9906 H   0  0  0  0  0  0  0  0  0  0  0  0
   -0.0912    5.8991    5.4769 H   0  0  0  0  0  0  0  0  0  0  0  0
    1.4745    5.2329    5.7203 H   0  0  0  0  0  0  0  0  0  0  0  0
   -1.4443    1.4721    3.9357 H   0  0  0  0  0  0  0  0  0  0  0  0
   -1.5425    4.0370    2.3601 H   0  0  0  0  0  0  0  0  0  0  0  0
   -2.7667    3.4842    3.5237 H   0  0  0  0  0  0  0  0  0  0  0  0
   -2.4724    2.5435    2.0774 H   0  0  0  0  0  0  0  0  0  0  0  0
   -0.0269    0.8873    2.1775 H   0  0  0  0  0  0  0  0  0  0  0  0
    0.4747    2.5432    1.9114 H   0  0  0  0  0  0  0  0  0  0  0  0
    1.7683    0.6656    3.6465 H   0  0  0  0  0  0  0  0  0  0  0  0
    2.3330    2.2337    3.1587 H   0  0  0  0  0  0  0  0  0  0  0  0
    0.7982    1.3148    5.4174 H   0  0  0  0  0  0  0  0  0  0  0  0
    0.1487    5.6645    8.0176 H   0  0  0  0  0  0  0  0  0  0  0  0
   -0.9365    4.4559    9.7456 H   0  0  0  0  0  0  0  0  0  0  0  0
    2.0933   -4.3762    6.3756 H   0  0  0  0  0  0  0  0  0  0  0  0
  1  2  1  0
  1 65  1  0
  1 66  1  0
  1 67  1  0
  2  3  1  0
  3 64  1  0
  3  4  1  0
  3 68  1  6
  4  5  1  0
  4 69  1  0
  4 70  1  0
  5  6  1  0
  5 71  1  0
  5 72  1  0
  6 62  1  0
  6  7  1  0
  6 73  1  1
  7  8  1  0
  7 74  1  0
  7 75  1  0
  8 44  1  0
  8  9  1  0
  8 76  1  6
 10  9  1  1
 10 63  1  0
 10 11  1  0
 10 64  1  0
 11 12  1  0
 11 77  1  0
 11 78  1  0
 12 13  1  0
 13 28  1  0
 13 14  1  0
 13 79  1  1
 14 34  1  0
 14 15  1  0
 14 80  1  1
 15 16  1  0
 15 81  1  0
 15 82  1  0
 16 17  1  0
 16 28  1  0
 16 83  1  6
 18 17  1  1
 18 27  1  0
 18 19  1  0
 18 21  1  0
 19 20  1  0
 19 84  1  0
 19 85  1  0
 20 86  1  0
 21 22  1  0
 22 27  1  0
 22 23  1  0
 22 87  1  1
 23 24  1  0
 23 25  1  0
 23 88  1  6
 24 89  1  0
 25 26  1  0
 25 90  1  0
 25 91  1  0
 26 27  1  0
 27 92  1  1
 28 32  1  6
 28 29  1  0
 29 30  1  0
 29 93  1  0
 29 94  1  0
 30 31  1  0
 30 33  1  0
 30 95  1  1
 31 32  1  0
 34 33  1  6
 34 35  1  0
 34 62  1  0
 35 36  2  3
 35 96  1  0
 36 44  1  0
 36 37  1  0
 37 38  1  0
 37 97  1  0
 37 98  1  0
 38 39  1  0
 39 40  1  0
 39 99  1  0
 39100  1  0
 40 45  1  0
 40 41  1  1
 40 42  1  0
 41101  1  0
 41102  1  0
 41103  1  0
 42 43  1  0
 44 43  1  1
 43104  1  0
 43105  1  0
 44 45  1  0
 45 46  1  0
 45106  1  6
 46 59  1  0
 46 47  1  0
 46107  1  6
 47 48  1  0
 48 60  1  0
 48 49  1  0
 48108  1  1
 49 50  1  0
 50 54  1  0
 50 51  1  6
 50 60  1  0
 51 52  1  0
 51109  1  0
 51110  1  0
 53 52  1  6
 53 59  1  0
 53 54  1  0
 53 55  1  0
 55 56  1  0
 55 57  1  0
 55111  1  1
 56112  1  0
 56113  1  0
 56114  1  0
 57 58  1  0
 57115  1  0
 57116  1  0
 58 59  1  0
 58117  1  0
 58118  1  0
 59119  1  1
 60 61  1  0
 60120  1  6
 61121  1  0
 62 63  1  0
 62122  1  1
M  END
>  <i_m_ct_stereo_status>  (133) 
1

>  <s_m_source_file>  (133) 
/var/tmp/pbs.5076253.sched01/tmp9pzrzrnh/1418a54yjb5.sdf

>  <i_m_source_file_index>  (133) 
10

>  <i_lp_mmshare_version>  (133) 
48012

>  <i_f3d_flags>  (133) 
2

>  <s_epik_input>  (133) 
W09IXVtDQEhdMVtDSDJdT1tDQEBIXShbQ0BASF0xMilbQ0BAXShPMikoW0NIMl1bT0hdKU9bQ0BIXShbQ0gyXTMpW0NAQF00KFtDSDJdW0NAQEhdKE81KU9PNClbQ0BASF0oT1tDSDJdNilbQ0BIXTNDNShbQ0BIXShPNylbQ0BASF0oW0NIMl04KVtDSDJdW0NIMl1bQ0BIXShPOSlPW0NIM10pL1tDSF09QyhbQ0BAXTEyW0NASF04T1tDQEBdNjc5KS9bQ0gyXU9bQ0gyXVtDQF0oW0NIM10pKE9bQ0gyXTEpW0NAQEhdMltDQEhdKE9bQ0BIXShPQzEyMylbQ0BASF0zW09IXSlbQ0BIXTNbQ0BAXShPMikoT1tDSDJdMSlbQ0BASF0oW0NIM10pW0NIMl1bQ0gyXTM=

>  <s_epik_cmdline>  (133) 
J2VwaWtfcHl0aG9uJywgJy1waHQnLCAnMi4wJywgJy1waCcsICc3LjAnLCAnLXRuJywgJzgnLCAnLW1hJywgJzIwMCcsICctaW1hZScsICc8aW5maWxlLm1hZT4nLCAnLW9tYWUnLCAnPG91dGZpbGUubWFlPic=

>  <r_epik_Ionization_Penalty>  (133) 
0.000581966

>  <r_epik_Ionization_Penalty_Charging>  (133) 
0

>  <r_epik_Ionization_Penalty_Neutral>  (133) 
0.000581966

>  <r_epik_State_Penalty>  (133) 
0.000365299

>  <r_epik_Charging_Adjusted_Penalty>  (133) 
0.000365299

>  <i_epik_Tot_Q>  (133) 
0

>  <i_epik_Tot_abs_Q>  (133) 
0

>  <s_epik_Chemistry_Notes>  (133) 
This compound contains an acetal/aminal-like group ( X-CH(R)-Y where X, Y are N, S, or O) that may be acid/base labile, releasing an aldehyde.

>  <s_lp_Force_Field>  (133) 
OPLS3e

>  <r_lp_Energy>  (133) 
399.971

>  <b_lp_Chiralities_Consistent>  (133) 
0

>  <s_lp_Variant>  (133) 
87:0-6

>  <s_i_glide_gridfile>  (133) 
pfpi4k_grid

>  <i_i_glide_lignum>  (133) 
10

>  <i_i_glide_rotatable_bonds>  (133) 
8

>  <r_i_docking_score>  (133) 
-1.77594

>  <r_i_glide_ligand_efficiency>  (133) 
-0.0277491

>  <r_i_glide_ligand_efficiency_sa>  (133) 
-0.110996

>  <r_i_glide_ligand_efficiency_ln>  (133) 
-0.344249

>  <r_i_glide_gscore>  (133) 
-1.77594

>  <r_i_glide_lipo>  (133) 
-0.442731

>  <r_i_glide_hbond>  (133) 
-0.0711173

>  <r_i_glide_metal>  (133) 
-0

>  <r_i_glide_rewards>  (133) 
-0.0982923

>  <r_i_glide_evdw>  (133) 
-29.7219

>  <r_i_glide_ecoul>  (133) 
-5.94245

>  <r_i_glide_erotb>  (133) 
0.107316

>  <r_i_glide_esite>  (133) 
-0.0871794

>  <r_i_glide_emodel>  (133) 
-30.1451

>  <r_i_glide_energy>  (133) 
-35.6644

>  <r_i_glide_einternal>  (133) 
7.41045

>  <r_i_glide_intrahb_reward>  (133) 
-0

>  <i_i_glide_confnum>  (133) 
3

>  <i_i_glide_posenum>  (133) 
27

>  <r_i_glide_eff_state_penalty>  (133) 
0

>  <ligand_id>  (133) 
87

>  <original_smiles>  (133) 
COC1CCC2CC3OC4(COC5C6CC(OC7(CO)OC8C(O)COC87)C57CC(OO7)OC6(C=C5COCC6(C)OCC53C6C3OC5OC6(COC7(O6)C(C)CCC37)C5O)C2O4)O1

>  <smiles>  (133) 
[H]OC([H])([H])C1(OC2([H])C([H])([H])C3([H])C4([H])OC([H])([H])C56OC([H])(OC([H])([H])[H])C([H])([H])C([H])([H])C7([H])C([H])([H])C([H])(O5)C58C(=C([H])C3(OC3([H])OOC24C3([H])[H])C7([H])O6)C([H])([H])OC([H])([H])C(C([H])([H])[H])(OC5([H])[H])C8([H])C2([H])OC3([H])OC4(OC5(OC4([H])[H])C([H])(C([H])([H])[H])C([H])([H])C([H])([H])C25[H])C3([H])O[H])OC2([H])C([H])(O[H])C([H])([H])OC21[H]

$$$$
89:0:0
     RDKit          3D

 63 71  0  0  1  0  0  0  0  0999 V2000
    4.5413   -6.4445    0.2709 C   0  0  0  0  0  0  0  0  0  0  0  0
    5.3910   -5.4671   -0.3178 O   0  0  0  0  0  0  0  0  0  0  0  0
    4.7689   -4.2323   -0.6636 C   0  0  2  0  0  0  0  0  0  0  0  0
    5.8598   -3.1323   -1.3048 C   0  0  1  0  0  0  0  0  0  0  0  0
    5.1508   -2.4760   -2.3761 O   0  0  0  0  0  0  0  0  0  0  0  0
    3.9125   -1.8240   -2.1059 C   0  0  1  0  0  0  0  0  0  0  0  0
    3.8773   -0.6006   -3.0585 C   0  0  0  0  0  0  0  0  0  0  0  0
    2.8126   -2.6493   -2.3398 O   0  0  0  0  0  0  0  0  0  0  0  0
    2.6297   -3.1417   -3.6537 C   0  0  0  0  0  0  0  0  0  0  0  0
    3.8484   -1.3657   -0.6584 C   0  0  0  0  0  0  0  0  0  0  0  0
    4.2603   -2.2577    0.2967 C   0  0  0  0  0  0  0  0  0  0  0  0
    3.7506   -3.5969    0.4491 C   0  0  2  0  0  0  0  0  0  0  0  0
    3.5343   -3.6423    2.1233 C   0  0  1  0  0  0  0  0  0  0  0  0
    2.1900   -4.4719    2.3582 C   0  0  2  0  0  0  0  0  0  0  0  0
    0.9780   -4.2927    3.3421 C   0  0  0  0  0  0  0  0  0  0  0  0
    2.0888   -4.5020    4.3121 C   0  0  1  0  0  0  0  0  0  0  0  0
    2.7086   -5.3526    3.3127 O   0  0  0  0  0  0  0  0  0  0  0  0
    2.4831   -3.4833    5.4080 C   0  0  2  0  0  0  0  0  0  0  0  0
    3.8739   -3.4003    5.5790 O   0  0  0  0  0  0  0  0  0  0  0  0
    4.1683   -4.7271    5.4043 C   0  0  2  0  0  0  0  0  0  0  0  0
    4.8764   -4.9146    4.1773 O   0  0  0  0  0  0  0  0  0  0  0  0
    4.8793   -3.9282    3.0966 C   0  0  1  0  0  0  0  0  0  0  0  0
    5.9840   -4.4381    2.2982 C   0  0  0  0  0  0  0  0  0  0  0  0
    6.4091   -3.6002    1.3733 C   0  0  0  0  0  0  0  0  0  0  0  0
    5.6182   -2.2861    1.0298 C   0  0  1  0  0  0  0  0  0  0  0  0
    6.4005   -1.9226   -0.2810 C   0  0  1  0  0  0  0  0  0  0  0  0
    7.8073   -1.8421   -0.1880 O   0  0  0  0  0  0  0  0  0  0  0  0
    5.0123   -1.7354    2.4202 C   0  0  2  0  0  0  0  0  0  0  0  0
    5.3327   -0.3874    2.6925 O   0  0  0  0  0  0  0  0  0  0  0  0
    5.3988   -2.6274    3.4454 O   0  0  0  0  0  0  0  0  0  0  0  0
    3.4603   -2.1172    2.6186 C   0  0  1  0  0  0  0  0  0  0  0  0
    2.4382   -1.2855    2.0637 O   0  0  0  0  0  0  0  0  0  0  0  0
    2.7082   -5.3171    5.4072 C   0  0  2  0  0  0  0  0  0  0  0  0
    2.5416   -6.7922    5.7594 C   0  0  0  0  0  0  0  0  0  0  0  0
    2.0064   -4.4652    6.3248 O   0  0  0  0  0  0  0  0  0  0  0  0
    5.0924   -7.3696    0.4323 H   0  0  0  0  0  0  0  0  0  0  0  0
    3.6751   -6.6489   -0.3463 H   0  0  0  0  0  0  0  0  0  0  0  0
    4.1745   -6.1449    1.2476 H   0  0  0  0  0  0  0  0  0  0  0  0
    4.1473   -4.5449   -1.5025 H   0  0  0  0  0  0  0  0  0  0  0  0
    6.7057   -3.6579   -1.7468 H   0  0  0  0  0  0  0  0  0  0  0  0
    4.0703   -0.9015   -4.0882 H   0  0  0  0  0  0  0  0  0  0  0  0
    4.6517    0.1172   -2.7890 H   0  0  0  0  0  0  0  0  0  0  0  0
    2.9108   -0.0977   -3.0206 H   0  0  0  0  0  0  0  0  0  0  0  0
    1.8174   -3.8608   -3.6440 H   0  0  0  0  0  0  0  0  0  0  0  0
    3.5226   -3.6342   -4.0388 H   0  0  0  0  0  0  0  0  0  0  0  0
    2.3278   -2.3418   -4.3221 H   0  0  0  0  0  0  0  0  0  0  0  0
    4.2647   -0.3753   -0.6050 H   0  0  0  0  0  0  0  0  0  0  0  0
    2.7584   -3.5937    0.0057 H   0  0  0  0  0  0  0  0  0  0  0  0
    1.8313   -5.0134    1.4879 H   0  0  0  0  0  0  0  0  0  0  0  0
    0.5370   -3.2899    3.3832 H   0  0  0  0  0  0  0  0  0  0  0  0
    0.2613   -5.1127    3.3349 H   0  0  0  0  0  0  0  0  0  0  0  0
    1.8995   -2.5602    5.3746 H   0  0  0  0  0  0  0  0  0  0  0  0
    4.7637   -5.0765    6.2557 H   0  0  0  0  0  0  0  0  0  0  0  0
    6.4717   -5.3585    2.5631 H   0  0  0  0  0  0  0  0  0  0  0  0
    7.2857   -3.9129    0.8322 H   0  0  0  0  0  0  0  0  0  0  0  0
    6.2101   -0.9132   -0.6437 H   0  0  0  0  0  0  0  0  0  0  0  0
    8.1578   -2.6913    0.0648 H   0  0  0  0  0  0  0  0  0  0  0  0
    6.2799   -0.2936    2.7128 H   0  0  0  0  0  0  0  0  0  0  0  0
    3.2583   -2.0200    3.6692 H   0  0  0  0  0  0  0  0  0  0  0  0
    2.5392   -1.2000    1.1167 H   0  0  0  0  0  0  0  0  0  0  0  0
    3.0554   -7.4394    5.0556 H   0  0  0  0  0  0  0  0  0  0  0  0
    1.4957   -7.0904    5.8143 H   0  0  0  0  0  0  0  0  0  0  0  0
    2.9627   -6.9842    6.7445 H   0  0  0  0  0  0  0  0  0  0  0  0
  1  2  1  0
  1 36  1  0
  1 37  1  0
  1 38  1  0
  2  3  1  0
  3 12  1  0
  3  4  1  0
  3 39  1  6
  4 26  1  0
  4  5  1  0
  4 40  1  6
  5  6  1  0
  6  7  1  0
  6  8  1  6
  6 10  1  0
  7 41  1  0
  7 42  1  0
  7 43  1  0
  8  9  1  0
  9 44  1  0
  9 45  1  0
  9 46  1  0
 10 11  2  0
 10 47  1  0
 11 25  1  0
 11 12  1  0
 12 13  1  0
 12 48  1  6
 13 22  1  1
 13 31  1  0
 13 14  1  0
 14 17  1  0
 14 15  1  0
 14 49  1  6
 15 16  1  0
 15 50  1  0
 15 51  1  0
 16 33  1  0
 16 17  1  6
 16 18  1  0
 18 35  1  0
 18 19  1  0
 18 52  1  6
 19 20  1  0
 20 21  1  0
 20 33  1  0
 20 53  1  1
 21 22  1  0
 22 30  1  0
 22 23  1  6
 23 24  2  0
 23 54  1  0
 25 24  1  1
 24 55  1  0
 25 26  1  0
 25 28  1  0
 26 27  1  0
 26 56  1  6
 27 57  1  0
 28 29  1  1
 28 30  1  0
 28 31  1  0
 29 58  1  0
 31 32  1  0
 31 59  1  1
 32 60  1  0
 33 34  1  6
 33 35  1  0
 34 61  1  0
 34 62  1  0
 34 63  1  0
M  END
>  <i_m_ct_stereo_status>  (134) 
1

>  <s_m_source_file>  (134) 
/var/tmp/pbs.5076253.sched01/tmp9pzrzrnh/1418a54yjb5.sdf

>  <i_m_source_file_index>  (134) 
17

>  <i_lp_mmshare_version>  (134) 
48012

>  <i_f3d_flags>  (134) 
0

>  <s_epik_input>  (134) 
W0NIM11PW0NAQF0oW0NIM10pKFtDSF09MSlPW0NAQEhdKFtDQEBIXTJbT0hdKVtDQEBIXShPW0NIM10pW0NAQEhdM0MxQzIoW0NAQF0oTzQpKFtPSF0pW0NASF01W09IXSlbQ0hdPVtDSF1bQ0BAXTQoW0NAXTM1NilPW0NAQEhdN1tDQF04KFtDSDNdKVtDQF05KFtDQEhdKE83KU84KVtDSDJdW0NAQEhdNk85

>  <s_epik_cmdline>  (134) 
J2VwaWtfcHl0aG9uJywgJy1waHQnLCAnMi4wJywgJy1waCcsICc3LjAnLCAnLXRuJywgJzgnLCAnLW1hJywgJzIwMCcsICctaW1hZScsICc8aW5maWxlLm1hZT4nLCAnLW9tYWUnLCAnPG91dGZpbGUubWFlPic=

>  <r_lp_tautomer_probability>  (134) 
1

>  <r_epik_Ionization_Penalty>  (134) 
0.000151522

>  <r_epik_Ionization_Penalty_Charging>  (134) 
0

>  <r_epik_Ionization_Penalty_Neutral>  (134) 
0.000151522

>  <r_epik_State_Penalty>  (134) 
-0

>  <r_epik_Charging_Adjusted_Penalty>  (134) 
0

>  <i_epik_Tot_Q>  (134) 
0

>  <i_epik_Tot_abs_Q>  (134) 
0

>  <s_epik_Chemistry_Notes>  (134) 
This compound contains an acetal/aminal-like group ( X-CH(R)-Y where X, Y are N, S, or O) that may be acid/base labile, releasing an aldehyde.

>  <s_lp_Force_Field>  (134) 
OPLS3e

>  <r_lp_Energy>  (134) 
366.325

>  <b_lp_Chiralities_Consistent>  (134) 
1

>  <s_lp_Variant>  (134) 
89:0-1

>  <s_i_glide_gridfile>  (134) 
pfpi4k_grid

>  <i_i_glide_lignum>  (134) 
17

>  <i_i_glide_rotatable_bonds>  (134) 
5

>  <r_i_docking_score>  (134) 
-2.87001

>  <r_i_glide_ligand_efficiency>  (134) 
-0.0820004

>  <r_i_glide_ligand_efficiency_sa>  (134) 
-0.268229

>  <r_i_glide_ligand_efficiency_ln>  (134) 
-0.630032

>  <r_i_glide_gscore>  (134) 
-2.87001

>  <r_i_glide_lipo>  (134) 
-0.765998

>  <r_i_glide_hbond>  (134) 
0

>  <r_i_glide_metal>  (134) 
-0

>  <r_i_glide_rewards>  (134) 
-0.190853

>  <r_i_glide_evdw>  (134) 
-26.1712

>  <r_i_glide_ecoul>  (134) 
-3.80597

>  <r_i_glide_erotb>  (134) 
0

>  <r_i_glide_esite>  (134) 
-0.033704

>  <r_i_glide_emodel>  (134) 
-33.8653

>  <r_i_glide_energy>  (134) 
-29.9772

>  <r_i_glide_einternal>  (134) 
0.490826

>  <r_i_glide_intrahb_reward>  (134) 
-0

>  <i_i_glide_confnum>  (134) 
1

>  <i_i_glide_posenum>  (134) 
34

>  <r_i_glide_eff_state_penalty>  (134) 
0

>  <ligand_id>  (134) 
89

>  <original_smiles>  (134) 
COC1C2OC(C)(OC)C=C3C1C14C5CC6(O5)C5OC(OC17C=CC3(C2O)C(O)(O7)C4O)C6(C)O5

>  <smiles>  (134) 
[H]OC1([H])C2([H])OC(OC([H])([H])[H])(C([H])([H])[H])C([H])=C3C([H])(C2([H])OC([H])([H])[H])C24C5(OC6([H])OC7([H])OC6(C([H])([H])[H])C76OC2([H])C6([H])[H])OC(O[H])(C4([H])O[H])C31C([H])=C5[H]

$$$$
89:0:1
     RDKit          3D

 63 71  0  0  1  0  0  0  0  0999 V2000
    4.5629   -6.4592    0.2739 C   0  0  0  0  0  0  0  0  0  0  0  0
    5.4133   -5.4787   -0.3141 O   0  0  0  0  0  0  0  0  0  0  0  0
    4.7775   -4.2530   -0.6655 C   0  0  2  0  0  0  0  0  0  0  0  0
    5.8640   -3.1450   -1.3062 C   0  0  1  0  0  0  0  0  0  0  0  0
    5.1486   -2.4966   -2.3802 O   0  0  0  0  0  0  0  0  0  0  0  0
    3.9071   -1.8512   -2.1139 C   0  0  1  0  0  0  0  0  0  0  0  0
    3.8636   -0.6294   -3.0672 C   0  0  0  0  0  0  0  0  0  0  0  0
    2.8082   -2.6766   -2.3510 O   0  0  0  0  0  0  0  0  0  0  0  0
    2.6359   -3.1740   -3.6624 C   0  0  0  0  0  0  0  0  0  0  0  0
    3.8423   -1.3949   -0.6628 C   0  0  0  0  0  0  0  0  0  0  0  0
    4.2534   -2.2848    0.2939 C   0  0  0  0  0  0  0  0  0  0  0  0
    3.7532   -3.6298    0.4421 C   0  0  2  0  0  0  0  0  0  0  0  0
    3.5303   -3.6809    2.1145 C   0  0  1  0  0  0  0  0  0  0  0  0
    2.1894   -4.5198    2.3480 C   0  0  2  0  0  0  0  0  0  0  0  0
    0.9719   -4.3484    3.3319 C   0  0  0  0  0  0  0  0  0  0  0  0
    2.0850   -4.5574    4.3011 C   0  0  1  0  0  0  0  0  0  0  0  0
    2.7094   -5.3949    3.3003 O   0  0  0  0  0  0  0  0  0  0  0  0
    2.4678   -3.5265    5.3966 C   0  0  2  0  0  0  0  0  0  0  0  0
    3.8606   -3.4265    5.5656 O   0  0  0  0  0  0  0  0  0  0  0  0
    4.1583   -4.7563    5.4028 C   0  0  2  0  0  0  0  0  0  0  0  0
    4.8665   -4.9480    4.1734 O   0  0  0  0  0  0  0  0  0  0  0  0
    4.8713   -3.9575    3.0939 C   0  0  1  0  0  0  0  0  0  0  0  0
    5.9879   -4.4522    2.2977 C   0  0  0  0  0  0  0  0  0  0  0  0
    6.4120   -3.6078    1.3722 C   0  0  0  0  0  0  0  0  0  0  0  0
    5.6103   -2.3035    1.0326 C   0  0  1  0  0  0  0  0  0  0  0  0
    6.3921   -1.9333   -0.2772 C   0  0  1  0  0  0  0  0  0  0  0  0
    7.8032   -1.8630   -0.2095 O   0  0  0  0  0  0  0  0  0  0  0  0
    4.9810   -1.7632    2.4326 C   0  0  2  0  0  0  0  0  0  0  0  0
    5.2535   -0.4150    2.7278 O   0  0  0  0  0  0  0  0  0  0  0  0
    5.3757   -2.6577    3.4519 O   0  0  0  0  0  0  0  0  0  0  0  0
    3.4444   -2.1591    2.6140 C   0  0  1  0  0  0  0  0  0  0  0  0
    2.4399   -1.2995    2.0703 O   0  0  0  0  0  0  0  0  0  0  0  0
    2.7033   -5.3571    5.4104 C   0  0  2  0  0  0  0  0  0  0  0  0
    2.5543   -6.8373    5.7618 C   0  0  0  0  0  0  0  0  0  0  0  0
    1.9920   -4.5060    6.3177 O   0  0  0  0  0  0  0  0  0  0  0  0
    5.1118   -7.3888    0.4304 H   0  0  0  0  0  0  0  0  0  0  0  0
    3.6955   -6.6464   -0.3464 H   0  0  0  0  0  0  0  0  0  0  0  0
    4.1986   -6.1627    1.2541 H   0  0  0  0  0  0  0  0  0  0  0  0
    4.1681   -4.5741   -1.5071 H   0  0  0  0  0  0  0  0  0  0  0  0
    6.7084   -3.6655   -1.7517 H   0  0  0  0  0  0  0  0  0  0  0  0
    4.0593   -0.9328   -4.0953 H   0  0  0  0  0  0  0  0  0  0  0  0
    4.6347    0.0944   -2.7991 H   0  0  0  0  0  0  0  0  0  0  0  0
    2.8940   -0.1354   -3.0278 H   0  0  0  0  0  0  0  0  0  0  0  0
    1.8260   -3.8975   -3.6522 H   0  0  0  0  0  0  0  0  0  0  0  0
    3.5323   -3.6654   -4.0458 H   0  0  0  0  0  0  0  0  0  0  0  0
    2.3289   -2.3814   -4.3394 H   0  0  0  0  0  0  0  0  0  0  0  0
    4.2462   -0.3978   -0.6066 H   0  0  0  0  0  0  0  0  0  0  0  0
    2.7626   -3.6325   -0.0079 H   0  0  0  0  0  0  0  0  0  0  0  0
    1.8399   -5.0545    1.4702 H   0  0  0  0  0  0  0  0  0  0  0  0
    0.5389   -3.3482    3.3819 H   0  0  0  0  0  0  0  0  0  0  0  0
    0.2394   -5.1625    3.3196 H   0  0  0  0  0  0  0  0  0  0  0  0
    1.8798   -2.6116    5.3616 H   0  0  0  0  0  0  0  0  0  0  0  0
    4.7616   -5.0931    6.2508 H   0  0  0  0  0  0  0  0  0  0  0  0
    6.4918   -5.3662    2.5588 H   0  0  0  0  0  0  0  0  0  0  0  0
    7.2947   -3.9075    0.8401 H   0  0  0  0  0  0  0  0  0  0  0  0
    6.2019   -0.9272   -0.6517 H   0  0  0  0  0  0  0  0  0  0  0  0
    8.1618   -2.6897    0.0864 H   0  0  0  0  0  0  0  0  0  0  0  0
    4.6790   -0.1580    3.4325 H   0  0  0  0  0  0  0  0  0  0  0  0
    3.2365   -2.0635    3.6642 H   0  0  0  0  0  0  0  0  0  0  0  0
    2.5173   -1.2479    1.1213 H   0  0  0  0  0  0  0  0  0  0  0  0
    3.0717   -7.4752    5.0511 H   0  0  0  0  0  0  0  0  0  0  0  0
    1.5106   -7.1456    5.8065 H   0  0  0  0  0  0  0  0  0  0  0  0
    2.9739   -7.0375    6.7440 H   0  0  0  0  0  0  0  0  0  0  0  0
  1  2  1  0
  1 36  1  0
  1 37  1  0
  1 38  1  0
  2  3  1  0
  3 12  1  0
  3  4  1  0
  3 39  1  6
  4 26  1  0
  4  5  1  0
  4 40  1  6
  5  6  1  0
  6  7  1  0
  6  8  1  6
  6 10  1  0
  7 41  1  0
  7 42  1  0
  7 43  1  0
  8  9  1  0
  9 44  1  0
  9 45  1  0
  9 46  1  0
 10 11  2  0
 10 47  1  0
 11 25  1  0
 11 12  1  0
 12 13  1  0
 12 48  1  6
 13 22  1  1
 13 31  1  0
 13 14  1  0
 14 17  1  0
 14 15  1  0
 14 49  1  6
 15 16  1  0
 15 50  1  0
 15 51  1  0
 16 33  1  0
 16 17  1  6
 16 18  1  0
 18 35  1  0
 18 19  1  0
 18 52  1  6
 19 20  1  0
 20 21  1  0
 20 33  1  0
 20 53  1  1
 21 22  1  0
 22 30  1  0
 22 23  1  6
 23 24  2  0
 23 54  1  0
 25 24  1  1
 24 55  1  0
 25 26  1  0
 25 28  1  0
 26 27  1  0
 26 56  1  6
 27 57  1  0
 28 29  1  1
 28 30  1  0
 28 31  1  0
 29 58  1  0
 31 32  1  0
 31 59  1  1
 32 60  1  0
 33 34  1  6
 33 35  1  0
 34 61  1  0
 34 62  1  0
 34 63  1  0
M  END
>  <i_m_ct_stereo_status>  (135) 
1

>  <s_m_source_file>  (135) 
/var/tmp/pbs.5076253.sched01/tmp9pzrzrnh/1418a54yjb5.sdf

>  <i_m_source_file_index>  (135) 
17

>  <i_lp_mmshare_version>  (135) 
48012

>  <i_f3d_flags>  (135) 
0

>  <s_epik_input>  (135) 
W0NIM11PW0NAQF0oW0NIM10pKFtDSF09MSlPW0NAQEhdKFtDQEBIXTJbT0hdKVtDQEBIXShPW0NIM10pW0NAQEhdM0MxQzIoW0NAQF0oTzQpKFtPSF0pW0NASF01W09IXSlbQ0hdPVtDSF1bQ0BAXTQoW0NAXTM1NilPW0NAQEhdN1tDQF04KFtDSDNdKVtDQF05KFtDQEhdKE83KU84KVtDSDJdW0NAQEhdNk85

>  <s_epik_cmdline>  (135) 
J2VwaWtfcHl0aG9uJywgJy1waHQnLCAnMi4wJywgJy1waCcsICc3LjAnLCAnLXRuJywgJzgnLCAnLW1hJywgJzIwMCcsICctaW1hZScsICc8aW5maWxlLm1hZT4nLCAnLW9tYWUnLCAnPG91dGZpbGUubWFlPic=

>  <r_lp_tautomer_probability>  (135) 
1

>  <r_epik_Ionization_Penalty>  (135) 
0.000151522

>  <r_epik_Ionization_Penalty_Charging>  (135) 
0

>  <r_epik_Ionization_Penalty_Neutral>  (135) 
0.000151522

>  <r_epik_State_Penalty>  (135) 
-0

>  <r_epik_Charging_Adjusted_Penalty>  (135) 
0

>  <i_epik_Tot_Q>  (135) 
0

>  <i_epik_Tot_abs_Q>  (135) 
0

>  <s_epik_Chemistry_Notes>  (135) 
This compound contains an acetal/aminal-like group ( X-CH(R)-Y where X, Y are N, S, or O) that may be acid/base labile, releasing an aldehyde.

>  <s_lp_Force_Field>  (135) 
OPLS3e

>  <r_lp_Energy>  (135) 
366.325

>  <b_lp_Chiralities_Consistent>  (135) 
1

>  <s_lp_Variant>  (135) 
89:0-1

>  <s_i_glide_gridfile>  (135) 
pfpi4k_grid

>  <i_i_glide_lignum>  (135) 
17

>  <i_i_glide_rotatable_bonds>  (135) 
5

>  <r_i_docking_score>  (135) 
-2.83935

>  <r_i_glide_ligand_efficiency>  (135) 
-0.0811242

>  <r_i_glide_ligand_efficiency_sa>  (135) 
-0.265362

>  <r_i_glide_ligand_efficiency_ln>  (135) 
-0.623299

>  <r_i_glide_gscore>  (135) 
-2.83935

>  <r_i_glide_lipo>  (135) 
-0.757681

>  <r_i_glide_hbond>  (135) 
0

>  <r_i_glide_metal>  (135) 
-0

>  <r_i_glide_rewards>  (135) 
-0.184581

>  <r_i_glide_evdw>  (135) 
-26.2676

>  <r_i_glide_ecoul>  (135) 
-3.67545

>  <r_i_glide_erotb>  (135) 
0

>  <r_i_glide_esite>  (135) 
-0.0323869

>  <r_i_glide_emodel>  (135) 
-33.6476

>  <r_i_glide_energy>  (135) 
-29.943

>  <r_i_glide_einternal>  (135) 
0.738961

>  <r_i_glide_intrahb_reward>  (135) 
-0

>  <i_i_glide_confnum>  (135) 
1

>  <i_i_glide_posenum>  (135) 
19

>  <r_i_glide_eff_state_penalty>  (135) 
0

>  <ligand_id>  (135) 
89

>  <original_smiles>  (135) 
COC1C2OC(C)(OC)C=C3C1C14C5CC6(O5)C5OC(OC17C=CC3(C2O)C(O)(O7)C4O)C6(C)O5

>  <smiles>  (135) 
[H]OC1([H])C2([H])OC(OC([H])([H])[H])(C([H])([H])[H])C([H])=C3C([H])(C2([H])OC([H])([H])[H])C24C5(OC6([H])OC7([H])OC6(C([H])([H])[H])C76OC2([H])C6([H])[H])OC(O[H])(C4([H])O[H])C31C([H])=C5[H]

$$$$
89:0:2
     RDKit          3D

 63 71  0  0  1  0  0  0  0  0999 V2000
    1.3228   -1.7507    3.4669 C   0  0  0  0  0  0  0  0  0  0  0  0
    1.4931   -2.3748    2.2017 O   0  0  0  0  0  0  0  0  0  0  0  0
    2.0542   -3.7058    2.1569 C   0  0  2  0  0  0  0  0  0  0  0  0
    2.9786   -4.1672    3.4771 C   0  0  1  0  0  0  0  0  0  0  0  0
    2.6635   -5.5630    3.6856 O   0  0  0  0  0  0  0  0  0  0  0  0
    2.8740   -6.5384    2.6743 C   0  0  1  0  0  0  0  0  0  0  0  0
    3.3930   -7.7579    3.4876 C   0  0  0  0  0  0  0  0  0  0  0  0
    1.6534   -6.8304    2.0345 O   0  0  0  0  0  0  0  0  0  0  0  0
    1.3689   -8.1628    1.5979 C   0  0  0  0  0  0  0  0  0  0  0  0
    3.9213   -6.0402    1.6839 C   0  0  0  0  0  0  0  0  0  0  0  0
    3.8464   -4.7357    1.2879 C   0  0  0  0  0  0  0  0  0  0  0  0
    2.7028   -4.1075    0.6862 C   0  0  2  0  0  0  0  0  0  0  0  0
    3.4499   -3.3313   -0.6250 C   0  0  1  0  0  0  0  0  0  0  0  0
    2.4854   -3.5070   -1.9072 C   0  0  2  0  0  0  0  0  0  0  0  0
    2.6953   -3.7745   -3.4793 C   0  0  0  0  0  0  0  0  0  0  0  0
    3.3778   -2.4677   -3.3158 C   0  0  1  0  0  0  0  0  0  0  0  0
    2.4369   -2.1732   -2.2791 O   0  0  0  0  0  0  0  0  0  0  0  0
    4.8641   -2.2624   -3.5774 C   0  0  2  0  0  0  0  0  0  0  0  0
    5.4475   -1.4811   -2.5933 O   0  0  0  0  0  0  0  0  0  0  0  0
    4.4625   -0.5586   -2.4530 C   0  0  2  0  0  0  0  0  0  0  0  0
    3.9092   -0.6923   -1.1579 O   0  0  0  0  0  0  0  0  0  0  0  0
    4.1598   -1.8351   -0.3157 C   0  0  1  0  0  0  0  0  0  0  0  0
    3.7863   -1.3299    0.9883 C   0  0  0  0  0  0  0  0  0  0  0  0
    4.2017   -2.0759    1.9949 C   0  0  0  0  0  0  0  0  0  0  0  0
    4.7038   -3.5427    1.7866 C   0  0  1  0  0  0  0  0  0  0  0  0
    4.6253   -4.0210    3.2902 C   0  0  1  0  0  0  0  0  0  0  0  0
    5.1860   -3.1654    4.2916 O   0  0  0  0  0  0  0  0  0  0  0  0
    5.6360   -3.4391    0.4501 C   0  0  2  0  0  0  0  0  0  0  0  0
    6.9265   -3.9882    0.5900 O   0  0  0  0  0  0  0  0  0  0  0  0
    5.5548   -2.1230   -0.0668 O   0  0  0  0  0  0  0  0  0  0  0  0
    4.8944   -3.9936   -0.8302 C   0  0  1  0  0  0  0  0  0  0  0  0
    4.9940   -5.4065   -1.0300 O   0  0  0  0  0  0  0  0  0  0  0  0
    3.5334   -1.0136   -3.6215 C   0  0  2  0  0  0  0  0  0  0  0  0
    2.5458    0.0318   -4.1794 C   0  0  0  0  0  0  0  0  0  0  0  0
    4.4426   -1.4123   -4.6346 O   0  0  0  0  0  0  0  0  0  0  0  0
    0.8789   -0.7629    3.3309 H   0  0  0  0  0  0  0  0  0  0  0  0
    2.2775   -1.5827    3.9612 H   0  0  0  0  0  0  0  0  0  0  0  0
    0.6878   -2.3469    4.1185 H   0  0  0  0  0  0  0  0  0  0  0  0
    1.1689   -4.3339    2.2610 H   0  0  0  0  0  0  0  0  0  0  0  0
    2.6528   -3.7433    4.4252 H   0  0  0  0  0  0  0  0  0  0  0  0
    2.6420   -8.0257    4.2302 H   0  0  0  0  0  0  0  0  0  0  0  0
    4.3068   -7.5060    4.0280 H   0  0  0  0  0  0  0  0  0  0  0  0
    3.6017   -8.6297    2.8637 H   0  0  0  0  0  0  0  0  0  0  0  0
    0.3879   -8.1949    1.1228 H   0  0  0  0  0  0  0  0  0  0  0  0
    1.3092   -8.8651    2.4279 H   0  0  0  0  0  0  0  0  0  0  0  0
    2.1162   -8.5164    0.8886 H   0  0  0  0  0  0  0  0  0  0  0  0
    4.8806   -6.3520    2.0580 H   0  0  0  0  0  0  0  0  0  0  0  0
    2.1103   -4.9259    0.2651 H   0  0  0  0  0  0  0  0  0  0  0  0
    1.4726   -3.8163   -1.6385 H   0  0  0  0  0  0  0  0  0  0  0  0
    3.4705   -4.4707   -3.8513 H   0  0  0  0  0  0  0  0  0  0  0  0
    1.8150   -3.7074   -4.1235 H   0  0  0  0  0  0  0  0  0  0  0  0
    5.3863   -3.1888   -3.8994 H   0  0  0  0  0  0  0  0  0  0  0  0
    4.8590    0.4194   -2.6597 H   0  0  0  0  0  0  0  0  0  0  0  0
    3.4022   -0.3166    1.0695 H   0  0  0  0  0  0  0  0  0  0  0  0
    4.1156   -1.6083    2.9502 H   0  0  0  0  0  0  0  0  0  0  0  0
    5.1510   -4.9387    3.5220 H   0  0  0  0  0  0  0  0  0  0  0  0
    4.8592   -2.3057    4.1790 H   0  0  0  0  0  0  0  0  0  0  0  0
    6.9643   -4.7553    0.0388 H   0  0  0  0  0  0  0  0  0  0  0  0
    5.4317   -3.6450   -1.6996 H   0  0  0  0  0  0  0  0  0  0  0  0
    4.3930   -5.6522   -1.7211 H   0  0  0  0  0  0  0  0  0  0  0  0
    1.9344    0.4427   -3.3798 H   0  0  0  0  0  0  0  0  0  0  0  0
    1.9156   -0.3710   -4.9866 H   0  0  0  0  0  0  0  0  0  0  0  0
    3.0789    0.8921   -4.5785 H   0  0  0  0  0  0  0  0  0  0  0  0
  1  2  1  0
  1 36  1  0
  1 37  1  0
  1 38  1  0
  2  3  1  0
  3 12  1  0
  3  4  1  0
  3 39  1  1
  4 26  1  0
  4  5  1  0
  4 40  1  1
  5  6  1  0
  6  7  1  0
  6  8  1  6
  6 10  1  0
  7 41  1  0
  7 42  1  0
  7 43  1  0
  8  9  1  0
  9 44  1  0
  9 45  1  0
  9 46  1  0
 10 11  2  0
 10 47  1  0
 11 25  1  0
 11 12  1  0
 12 13  1  0
 12 48  1  6
 13 22  1  1
 13 31  1  0
 13 14  1  0
 14 17  1  0
 14 15  1  0
 14 49  1  1
 15 16  1  0
 15 50  1  0
 15 51  1  0
 16 33  1  0
 16 17  1  1
 16 18  1  0
 18 35  1  0
 18 19  1  0
 18 52  1  6
 19 20  1  0
 20 21  1  0
 20 33  1  0
 20 53  1  6
 21 22  1  0
 22 30  1  0
 22 23  1  1
 23 24  2  0
 23 54  1  0
 25 24  1  1
 24 55  1  0
 25 26  1  0
 25 28  1  0
 26 27  1  0
 26 56  1  6
 27 57  1  0
 28 29  1  1
 28 30  1  0
 28 31  1  0
 29 58  1  0
 31 32  1  0
 31 59  1  6
 32 60  1  0
 33 34  1  6
 33 35  1  0
 34 61  1  0
 34 62  1  0
 34 63  1  0
M  END
>  <i_m_ct_stereo_status>  (136) 
1

>  <s_m_source_file>  (136) 
/var/tmp/pbs.5076253.sched01/tmp9pzrzrnh/1418a54yjb5.sdf

>  <i_m_source_file_index>  (136) 
17

>  <i_lp_mmshare_version>  (136) 
48012

>  <i_f3d_flags>  (136) 
0

>  <s_epik_input>  (136) 
W0NIM11PW0NAQF0oW0NIM10pKFtDSF09MSlPW0NAQEhdKFtDQEBIXTJbT0hdKVtDQEBIXShPW0NIM10pW0NAQEhdM0MxQzIoW0NAQF0oTzQpKFtPSF0pW0NASF01W09IXSlbQ0hdPVtDSF1bQ0BAXTQoW0NAXTM1NilPW0NAQEhdN1tDQF04KFtDSDNdKVtDQF05KFtDQEhdKE83KU84KVtDSDJdW0NAQEhdNk85

>  <s_epik_cmdline>  (136) 
J2VwaWtfcHl0aG9uJywgJy1waHQnLCAnMi4wJywgJy1waCcsICc3LjAnLCAnLXRuJywgJzgnLCAnLW1hJywgJzIwMCcsICctaW1hZScsICc8aW5maWxlLm1hZT4nLCAnLW9tYWUnLCAnPG91dGZpbGUubWFlPic=

>  <r_lp_tautomer_probability>  (136) 
1

>  <r_epik_Ionization_Penalty>  (136) 
0.000151522

>  <r_epik_Ionization_Penalty_Charging>  (136) 
0

>  <r_epik_Ionization_Penalty_Neutral>  (136) 
0.000151522

>  <r_epik_State_Penalty>  (136) 
-0

>  <r_epik_Charging_Adjusted_Penalty>  (136) 
0

>  <i_epik_Tot_Q>  (136) 
0

>  <i_epik_Tot_abs_Q>  (136) 
0

>  <s_epik_Chemistry_Notes>  (136) 
This compound contains an acetal/aminal-like group ( X-CH(R)-Y where X, Y are N, S, or O) that may be acid/base labile, releasing an aldehyde.

>  <s_lp_Force_Field>  (136) 
OPLS3e

>  <r_lp_Energy>  (136) 
366.325

>  <b_lp_Chiralities_Consistent>  (136) 
1

>  <s_lp_Variant>  (136) 
89:0-1

>  <s_i_glide_gridfile>  (136) 
pfpi4k_grid

>  <i_i_glide_lignum>  (136) 
17

>  <i_i_glide_rotatable_bonds>  (136) 
5

>  <r_i_docking_score>  (136) 
-2.45042

>  <r_i_glide_ligand_efficiency>  (136) 
-0.0700119

>  <r_i_glide_ligand_efficiency_sa>  (136) 
-0.229013

>  <r_i_glide_ligand_efficiency_ln>  (136) 
-0.537921

>  <r_i_glide_gscore>  (136) 
-2.45042

>  <r_i_glide_lipo>  (136) 
-0.801484

>  <r_i_glide_hbond>  (136) 
-0.304

>  <r_i_glide_metal>  (136) 
-0

>  <r_i_glide_rewards>  (136) 
-0.145971

>  <r_i_glide_evdw>  (136) 
-6.82559

>  <r_i_glide_ecoul>  (136) 
-7.09656

>  <r_i_glide_erotb>  (136) 
0

>  <r_i_glide_esite>  (136) 
-0.0330565

>  <r_i_glide_emodel>  (136) 
-6.93036

>  <r_i_glide_energy>  (136) 
-13.9222

>  <r_i_glide_einternal>  (136) 
13.7904

>  <r_i_glide_intrahb_reward>  (136) 
-0

>  <i_i_glide_confnum>  (136) 
2

>  <i_i_glide_posenum>  (136) 
31

>  <r_i_glide_eff_state_penalty>  (136) 
0

>  <ligand_id>  (136) 
89

>  <original_smiles>  (136) 
COC1C2OC(C)(OC)C=C3C1C14C5CC6(O5)C5OC(OC17C=CC3(C2O)C(O)(O7)C4O)C6(C)O5

>  <smiles>  (136) 
[H]OC1([H])C2([H])OC(OC([H])([H])[H])(C([H])([H])[H])C([H])=C3C([H])(C2([H])OC([H])([H])[H])C24C5(OC6([H])OC7([H])OC6(C([H])([H])[H])C76OC2([H])C6([H])[H])OC(O[H])(C4([H])O[H])C31C([H])=C5[H]

$$$$
90:1:0
     RDKit          3D

 99110  0  0  1  0  0  0  0  0999 V2000
    0.8635    6.5735    4.4946 C   0  0  0  0  0  0  0  0  0  0  0  0
    1.1211    5.5566    5.3057 C   0  0  0  0  0  0  0  0  0  0  0  0
    0.3335    5.1675    6.5357 C   0  0  2  0  0  0  0  0  0  0  0  0
    1.4999    4.9610    7.5172 C   0  0  0  0  0  0  0  0  0  0  0  0
    2.1795    3.8808    6.6724 C   0  0  1  0  0  0  0  0  0  0  0  0
    3.5452    3.2643    7.1745 C   0  0  1  0  0  0  0  0  0  0  0  0
    3.4015    2.8397    8.5231 O   0  0  0  0  0  0  0  0  0  0  0  0
    3.8654    2.0060    6.3133 C   0  0  0  0  0  0  0  0  0  0  0  0
    2.6679    1.2380    6.0271 C   0  0  0  0  0  0  0  0  0  0  0  0
    1.5817    0.3532    6.6988 C   0  0  1  0  0  0  0  0  0  0  0  0
    1.2261    1.5388    5.9317 C   0  0  2  0  0  0  0  0  0  0  0  0
    0.4839    1.1159    4.6788 C   0  0  0  0  0  0  0  0  0  0  0  0
    0.4451   -0.3399    4.6851 N   0  0  0  0  0  0  0  0  0  0  0  0
    1.2309   -1.0457    3.6879 C   0  0  0  0  0  0  0  0  0  0  0  0
    1.6301   -2.3291    4.4140 C   0  0  1  0  0  0  0  0  0  0  0  0
    0.5478   -3.2263    4.5080 O   0  0  0  0  0  0  0  0  0  0  0  0
    1.0290   -4.5131    4.7193 C   0  0  2  0  0  0  0  0  0  0  0  0
    1.4042   -4.6285    6.0466 O   0  0  0  0  0  0  0  0  0  0  0  0
    2.1539   -5.7791    6.3703 C   0  0  2  0  0  0  0  0  0  0  0  0
    1.5396   -7.1520    6.0909 C   0  0  0  0  0  0  0  0  0  0  0  0
    1.5810   -6.6024    7.4015 O   0  0  0  0  0  0  0  0  0  0  0  0
    3.6566   -5.5377    6.4964 C   0  0  1  0  0  0  0  0  0  0  0  0
    4.4172   -6.4176    5.4958 C   0  0  0  0  0  0  0  0  0  0  0  0
    4.3038   -5.9671    4.0192 C   0  0  0  0  0  0  0  0  0  0  0  0
    2.9537   -5.8130    3.4295 N   0  0  0  0  0  0  0  0  0  0  0  0
    3.0145   -6.0456    1.9692 C   0  0  0  0  0  0  0  0  0  0  0  0
    1.6529   -6.3451    1.2951 C   0  0  0  0  0  0  0  0  0  0  0  0
    0.9214   -7.5178    1.9752 C   0  0  0  0  0  0  0  0  0  0  0  0
   -0.5486   -7.6198    1.5549 C   0  0  0  0  0  0  0  0  0  0  0  0
   -1.3282   -8.6956    2.3257 C   0  0  0  0  0  0  0  0  0  0  0  0
   -1.6667   -8.2680    3.7569 C   0  0  0  0  0  0  0  0  0  0  0  0
    2.1970   -4.5592    3.7323 C   0  0  2  0  0  0  0  0  0  0  0  0
    2.7935   -3.1470    3.7611 C   0  0  2  0  0  0  0  0  0  0  0  0
    4.1003   -2.9182    4.3017 O   0  0  0  0  0  0  0  0  0  0  0  0
    4.3841   -3.0113    5.6450 C   0  0  0  0  0  0  0  0  0  0  0  0
    5.0334   -1.9217    6.2793 C   0  0  0  0  0  0  0  0  0  0  0  0
    5.3202   -0.8138    5.5386 O   0  0  0  0  0  0  0  0  0  0  0  0
    5.4063   -1.9346    7.6569 C   0  0  0  0  0  0  0  0  0  0  0  0
    5.2099   -3.0572    8.4917 C   0  0  0  0  0  0  0  0  0  0  0  0
    4.5821   -4.1349    7.8754 C   0  0  0  0  0  0  0  0  0  0  0  0
    4.1558   -4.0831    6.5015 C   0  0  0  0  0  0  0  0  0  0  0  0
    4.1838   -5.5776    7.9963 C   0  0  0  0  0  0  0  0  0  0  0  0
    1.9310   -1.8042    5.6740 O   0  0  0  0  0  0  0  0  0  0  0  0
    0.9816   -0.8130    5.9519 C   0  0  1  0  0  0  0  0  0  0  0  0
   -0.0580   -1.3283    6.7365 O   0  0  0  0  0  0  0  0  0  0  0  0
    0.9676    2.8780    6.6497 C   0  0  2  0  0  0  0  0  0  0  0  0
   -0.2506    3.7547    6.2554 C   0  0  1  0  0  0  0  0  0  0  0  0
   -1.3842    3.4436    7.0525 O   0  0  0  0  0  0  0  0  0  0  0  0
    2.3400    4.6359    5.3077 C   0  0  1  0  0  0  0  0  0  0  0  0
    2.3776    3.7240    4.2140 O   0  0  0  0  0  0  0  0  0  0  0  0
    2.6443    4.2963    2.9404 C   0  0  0  0  0  0  0  0  0  0  0  0
    1.5163    6.8313    3.6692 H   0  0  0  0  0  0  0  0  0  0  0  0
   -0.0105    7.1922    4.6367 H   0  0  0  0  0  0  0  0  0  0  0  0
   -0.4014    5.9155    6.8349 H   0  0  0  0  0  0  0  0  0  0  0  0
    2.1260    5.8432    7.6405 H   0  0  0  0  0  0  0  0  0  0  0  0
    1.1922    4.6222    8.5069 H   0  0  0  0  0  0  0  0  0  0  0  0
    4.3706    4.0005    7.1377 H   0  0  0  0  0  0  0  0  0  0  0  0
    2.6616    2.2498    8.5537 H   0  0  0  0  0  0  0  0  0  0  0  0
    4.7758    1.8790    5.7726 H   0  0  0  0  0  0  0  0  0  0  0  0
    1.6628    0.3123    7.8228 H   0  0  0  0  0  0  0  0  0  0  0  0
   -0.5529    1.4588    4.7044 H   0  0  0  0  0  0  0  0  0  0  0  0
    0.9251    1.5243    3.7745 H   0  0  0  0  0  0  0  0  0  0  0  0
    0.7030   -1.2589    2.7536 H   0  0  0  0  0  0  0  0  0  0  0  0
    2.1430   -0.4851    3.4773 H   0  0  0  0  0  0  0  0  0  0  0  0
    0.2408   -5.2314    4.4728 H   0  0  0  0  0  0  0  0  0  0  0  0
    0.5248   -7.2118    5.6973 H   0  0  0  0  0  0  0  0  0  0  0  0
    2.2170   -8.0129    5.9821 H   0  0  0  0  0  0  0  0  0  0  0  0
    5.4951   -6.4267    5.7367 H   0  0  0  0  0  0  0  0  0  0  0  0
    4.0563   -7.4515    5.5716 H   0  0  0  0  0  0  0  0  0  0  0  0
    4.9126   -5.0799    3.8201 H   0  0  0  0  0  0  0  0  0  0  0  0
    4.8043   -6.7752    3.4784 H   0  0  0  0  0  0  0  0  0  0  0  0
    3.4981   -5.2056    1.4640 H   0  0  0  0  0  0  0  0  0  0  0  0
    3.6524   -6.9028    1.7545 H   0  0  0  0  0  0  0  0  0  0  0  0
    1.0148   -5.4602    1.3147 H   0  0  0  0  0  0  0  0  0  0  0  0
    1.8027   -6.5679    0.2357 H   0  0  0  0  0  0  0  0  0  0  0  0
    1.4428   -8.4573    1.7772 H   0  0  0  0  0  0  0  0  0  0  0  0
    0.9497   -7.3804    3.0545 H   0  0  0  0  0  0  0  0  0  0  0  0
   -1.0339   -6.6586    1.7232 H   0  0  0  0  0  0  0  0  0  0  0  0
   -0.5876   -7.8371    0.4863 H   0  0  0  0  0  0  0  0  0  0  0  0
   -2.2577   -8.9123    1.8014 H   0  0  0  0  0  0  0  0  0  0  0  0
   -0.7580   -9.6255    2.3373 H   0  0  0  0  0  0  0  0  0  0  0  0
   -2.2213   -9.0535    4.2734 H   0  0  0  0  0  0  0  0  0  0  0  0
   -2.2660   -7.3596    3.7892 H   0  0  0  0  0  0  0  0  0  0  0  0
   -0.7639   -8.1054    4.3313 H   0  0  0  0  0  0  0  0  0  0  0  0
    1.5993   -4.4108    2.8427 H   0  0  0  0  0  0  0  0  0  0  0  0
    2.8670   -2.8163    2.7173 H   0  0  0  0  0  0  0  0  0  0  0  0
    5.0345   -0.8718    4.6346 H   0  0  0  0  0  0  0  0  0  0  0  0
    5.8883   -1.0631    8.0390 H   0  0  0  0  0  0  0  0  0  0  0  0
    5.5711   -3.0852    9.5182 H   0  0  0  0  0  0  0  0  0  0  0  0
    3.4135   -5.7173    8.7577 H   0  0  0  0  0  0  0  0  0  0  0  0
    5.0312   -6.2594    8.1456 H   0  0  0  0  0  0  0  0  0  0  0  0
    0.3257   -1.5498    7.5676 H   0  0  0  0  0  0  0  0  0  0  0  0
    0.8042    2.5910    7.6933 H   0  0  0  0  0  0  0  0  0  0  0  0
   -0.5004    3.6529    5.1948 H   0  0  0  0  0  0  0  0  0  0  0  0
   -1.1375    3.5359    7.9603 H   0  0  0  0  0  0  0  0  0  0  0  0
    3.2425    5.2482    5.3278 H   0  0  0  0  0  0  0  0  0  0  0  0
    2.8387    3.4966    2.2279 H   0  0  0  0  0  0  0  0  0  0  0  0
    3.5189    4.9484    2.9609 H   0  0  0  0  0  0  0  0  0  0  0  0
    1.7920    4.8606    2.5639 H   0  0  0  0  0  0  0  0  0  0  0  0
  1  2  2  0
  1 52  1  0
  1 53  1  0
  2 49  1  0
  2  3  1  0
  3 47  1  0
  3  4  1  0
  3 54  1  1
  5  4  1  1
  4 55  1  0
  4 56  1  0
  5 46  1  0
  5  6  1  0
  5 49  1  0
  6  7  1  0
  6  8  1  0
  6 57  1  1
  7 58  1  0
  8  9  2  0
  8 59  1  0
  9 11  1  0
  9 10  1  0
 10 44  1  0
 10 11  1  0
 10 60  1  1
 11 12  1  6
 11 46  1  0
 12 13  1  0
 12 61  1  0
 12 62  1  0
 13 44  1  0
 13 14  1  0
 14 15  1  0
 14 63  1  0
 14 64  1  0
 15 33  1  0
 15 16  1  1
 15 43  1  0
 16 17  1  0
 17 32  1  0
 17 18  1  0
 17 65  1  6
 18 19  1  0
 19 21  1  1
 19 20  1  0
 19 22  1  0
 20 21  1  0
 20 66  1  0
 20 67  1  0
 22 41  1  0
 22 42  1  1
 22 23  1  0
 23 24  1  0
 23 68  1  0
 23 69  1  0
 24 25  1  0
 24 70  1  0
 24 71  1  0
 25 26  1  0
 25 32  1  0
 26 27  1  0
 26 72  1  0
 26 73  1  0
 27 28  1  0
 27 74  1  0
 27 75  1  0
 28 29  1  0
 28 76  1  0
 28 77  1  0
 29 30  1  0
 29 78  1  0
 29 79  1  0
 30 31  1  0
 30 80  1  0
 30 81  1  0
 31 82  1  0
 31 83  1  0
 31 84  1  0
 32 33  1  0
 32 85  1  6
 33 34  1  0
 33 86  1  6
 34 35  1  0
 35 41  2  0
 35 36  1  0
 36 37  1  0
 36 38  2  0
 37 87  1  0
 38 39  1  0
 38 88  1  0
 39 40  2  0
 39 89  1  0
 40 41  1  0
 40 42  1  0
 42 90  1  0
 42 91  1  0
 43 44  1  0
 44 45  1  1
 45 92  1  0
 46 47  1  0
 46 93  1  1
 47 48  1  0
 47 94  1  6
 48 95  1  0
 49 50  1  0
 49 96  1  1
 50 51  1  0
 51 97  1  0
 51 98  1  0
 51 99  1  0
M  END
>  <i_m_ct_stereo_status>  (137) 
1

>  <s_m_source_file>  (137) 
/var/tmp/pbs.5076253.sched01/tmp9pzrzrnh/1418a54yjb5.sdf

>  <i_m_source_file_index>  (137) 
19

>  <i_lp_mmshare_version>  (137) 
48012

>  <i_f3d_flags>  (137) 
0

>  <s_epik_input>  (137) 
W0NIM11PW0NASF0xQyg9W0NIMl0pW0NASF0oW0NIMl0yKVtDQEhdKFtPSF0pW0NASF0oW0NAQF0xMjMpQzQ1Qyg9W0NIXVtDQEBIXTNbT0hdKVtDSF00W0NAQF02KFtPSF0pTihbQ0gyXTUpW0NIMl1bQ0BdNyhPNilbQ0BASF04W0NAQEhdOVtDQEhdKE83KU9bQ0BAXTEoW0NIMl1PMSlbQ0BdMShjMmMoTzgpYyhbT0hdKVtjSF1bY0hdYzJbQ0gyXTEpW0NIMl1bQ0gyXU45W0NIMl1bQ0gyXVtDSDJdW0NIMl1bQ0gyXVtDSDNd

>  <s_epik_cmdline>  (137) 
J2VwaWtfcHl0aG9uJywgJy1waHQnLCAnMi4wJywgJy1waCcsICc3LjAnLCAnLXRuJywgJzgnLCAnLW1hJywgJzIwMCcsICctaW1hZScsICc8aW5maWxlLm1hZT4nLCAnLW9tYWUnLCAnPG91dGZpbGUubWFlPic=

>  <r_lp_tautomer_probability>  (137) 
1

>  <r_epik_Ionization_Penalty>  (137) 
0.0194329

>  <r_epik_Ionization_Penalty_Charging>  (137) 
0

>  <r_epik_Ionization_Penalty_Neutral>  (137) 
0.0194329

>  <r_epik_State_Penalty>  (137) 
0.0152054

>  <r_epik_Charging_Adjusted_Penalty>  (137) 
0.0152054

>  <i_epik_Tot_Q>  (137) 
0

>  <i_epik_Tot_abs_Q>  (137) 
0

>  <s_epik_Chemistry_Notes>  (137) 
This compound contains an acetal/aminal-like group ( X-CH(R)-Y where X, Y are N, S, or O) that may be acid/base labile, releasing an aldehyde.

>  <s_lp_Force_Field>  (137) 
OPLS3e

>  <r_lp_Energy>  (137) 
171.435

>  <b_lp_Chiralities_Consistent>  (137) 
1

>  <s_lp_Variant>  (137) 
90:0-2

>  <s_i_glide_gridfile>  (137) 
pfpi4k_grid

>  <i_i_glide_lignum>  (137) 
19

>  <i_i_glide_rotatable_bonds>  (137) 
10

>  <r_i_docking_score>  (137) 
-1.36677

>  <r_i_glide_ligand_efficiency>  (137) 
-0.0267995

>  <r_i_glide_ligand_efficiency_sa>  (137) 
-0.0993841

>  <r_i_glide_ligand_efficiency_ln>  (137) 
-0.277134

>  <r_i_glide_gscore>  (137) 
-1.36677

>  <r_i_glide_lipo>  (137) 
-0.113726

>  <r_i_glide_hbond>  (137) 
0

>  <r_i_glide_metal>  (137) 
-0

>  <r_i_glide_rewards>  (137) 
0

>  <r_i_glide_evdw>  (137) 
-27.3618

>  <r_i_glide_ecoul>  (137) 
-1.7508

>  <r_i_glide_erotb>  (137) 
0.172769

>  <r_i_glide_esite>  (137) 
-0.00321404

>  <r_i_glide_emodel>  (137) 
-26.1319

>  <r_i_glide_energy>  (137) 
-29.1126

>  <r_i_glide_einternal>  (137) 
4.67684

>  <r_i_glide_intrahb_reward>  (137) 
-0

>  <i_i_glide_confnum>  (137) 
2

>  <i_i_glide_posenum>  (137) 
33

>  <r_i_glide_eff_state_penalty>  (137) 
0

>  <ligand_id>  (137) 
90

>  <original_smiles>  (137) 
C=C1C2CC3(C(O)C=C4C5C4(CN4CC6(OC7OC8(CO8)C89CCN(CCCCCC)C7C6Oc6c(O)ccc(c68)C9)OC54O)C3C2O)C1OC

>  <smiles>  (137) 
[H]Oc1c([H])c([H])c2c3c1OC1([H])C4(OC5([H])OC6(OC6([H])[H])C3(C2([H])[H])C([H])([H])C([H])([H])N(C([H])([H])C([H])([H])C([H])([H])C([H])([H])C([H])([H])C([H])([H])[H])C51[H])OC1(O[H])N(C4([H])[H])C([H])([H])C23C(=C([H])C([H])(O[H])C45C([H])(OC([H])([H])[H])C(=C([H])[H])C([H])(C4([H])[H])C([H])(O[H])C25[H])C13[H]

$$$$
90:1:1
     RDKit          3D

 99110  0  0  1  0  0  0  0  0999 V2000
    3.0662    7.2429    4.0863 C   0  0  0  0  0  0  0  0  0  0  0  0
    2.2916    6.5095    4.8850 C   0  0  0  0  0  0  0  0  0  0  0  0
    0.7750    6.5033    4.9373 C   0  0  2  0  0  0  0  0  0  0  0  0
    0.6090    6.5528    6.4668 C   0  0  0  0  0  0  0  0  0  0  0  0
    1.3741    5.2373    6.7139 C   0  0  1  0  0  0  0  0  0  0  0  0
    1.5738    4.7621    8.2014 C   0  0  1  0  0  0  0  0  0  0  0  0
    0.3191    4.7584    8.8763 O   0  0  0  0  0  0  0  0  0  0  0  0
    2.1375    3.3137    8.1983 C   0  0  0  0  0  0  0  0  0  0  0  0
    1.4767    2.5256    7.1762 C   0  0  0  0  0  0  0  0  0  0  0  0
    0.1414    1.8733    6.7716 C   0  0  1  0  0  0  0  0  0  0  0  0
    0.8325    2.7805    5.8604 C   0  0  2  0  0  0  0  0  0  0  0  0
    1.2616    1.9801    4.6474 C   0  0  0  0  0  0  0  0  0  0  0  0
    0.8517    0.6142    4.8476 N   0  0  0  0  0  0  0  0  0  0  0  0
    1.9169   -0.3320    5.0751 C   0  0  0  0  0  0  0  0  0  0  0  0
    1.2443   -1.3542    5.9791 C   0  0  1  0  0  0  0  0  0  0  0  0
    0.3593   -2.1531    5.2448 O   0  0  0  0  0  0  0  0  0  0  0  0
    0.1235   -3.3251    5.9421 C   0  0  2  0  0  0  0  0  0  0  0  0
   -0.7568   -3.0515    6.9797 O   0  0  0  0  0  0  0  0  0  0  0  0
   -0.8810   -4.0573    7.9483 C   0  0  2  0  0  0  0  0  0  0  0  0
   -1.3508   -5.4532    7.4830 C   0  0  0  0  0  0  0  0  0  0  0  0
   -2.2363   -4.5347    8.1412 O   0  0  0  0  0  0  0  0  0  0  0  0
   -0.0884   -3.8323    9.2202 C   0  0  1  0  0  0  0  0  0  0  0  0
    0.8880   -4.9871    9.4349 C   0  0  0  0  0  0  0  0  0  0  0  0
    2.1054   -5.0017    8.4931 C   0  0  0  0  0  0  0  0  0  0  0  0
    1.8724   -5.0047    7.0357 N   0  0  0  0  0  0  0  0  0  0  0  0
    3.0080   -5.6518    6.3507 C   0  0  0  0  0  0  0  0  0  0  0  0
    2.6460   -6.2415    4.9690 C   0  0  0  0  0  0  0  0  0  0  0  0
    1.7257   -7.4648    5.0956 C   0  0  0  0  0  0  0  0  0  0  0  0
    1.3158   -8.0495    3.7344 C   0  0  0  0  0  0  0  0  0  0  0  0
    0.3657   -9.2522    3.8605 C   0  0  0  0  0  0  0  0  0  0  0  0
    1.0346  -10.4875    4.4791 C   0  0  0  0  0  0  0  0  0  0  0  0
    1.5429   -3.6977    6.3866 C   0  0  2  0  0  0  0  0  0  0  0  0
    2.2069   -2.3520    6.7137 C   0  0  2  0  0  0  0  0  0  0  0  0
    2.5700   -2.0092    8.0432 O   0  0  0  0  0  0  0  0  0  0  0  0
    1.6485   -1.6689    8.9996 C   0  0  0  0  0  0  0  0  0  0  0  0
    1.7873   -0.4649    9.7142 C   0  0  0  0  0  0  0  0  0  0  0  0
    2.8247    0.3789    9.4106 O   0  0  0  0  0  0  0  0  0  0  0  0
    0.9007   -0.0741   10.7781 C   0  0  0  0  0  0  0  0  0  0  0  0
   -0.1483   -0.9104   11.2183 C   0  0  0  0  0  0  0  0  0  0  0  0
   -0.2919   -2.1119   10.5265 C   0  0  0  0  0  0  0  0  0  0  0  0
    0.5551   -2.4526    9.4237 C   0  0  0  0  0  0  0  0  0  0  0  0
   -0.9893   -3.4444   10.4674 C   0  0  0  0  0  0  0  0  0  0  0  0
    0.5190   -0.5129    6.8269 O   0  0  0  0  0  0  0  0  0  0  0  0
    0.0538    0.5517    6.0387 C   0  0  1  0  0  0  0  0  0  0  0  0
   -1.2890    0.3512    5.6661 O   0  0  0  0  0  0  0  0  0  0  0  0
    0.4701    4.2918    5.8417 C   0  0  2  0  0  0  0  0  0  0  0  0
    0.2971    5.0766    4.5132 C   0  0  1  0  0  0  0  0  0  0  0  0
   -1.0233    4.9760    4.0426 O   0  0  0  0  0  0  0  0  0  0  0  0
    2.7390    5.5740    6.0109 C   0  0  1  0  0  0  0  0  0  0  0  0
    3.5148    4.4468    5.5784 O   0  0  0  0  0  0  0  0  0  0  0  0
    3.4143    4.0459    4.2154 C   0  0  0  0  0  0  0  0  0  0  0  0
    4.1486    7.1988    4.1359 H   0  0  0  0  0  0  0  0  0  0  0  0
    2.6374    7.8801    3.3223 H   0  0  0  0  0  0  0  0  0  0  0  0
    0.3241    7.3278    4.3780 H   0  0  0  0  0  0  0  0  0  0  0  0
    1.0987    7.4184    6.9247 H   0  0  0  0  0  0  0  0  0  0  0  0
   -0.4314    6.5361    6.7897 H   0  0  0  0  0  0  0  0  0  0  0  0
    2.2370    5.4410    8.7585 H   0  0  0  0  0  0  0  0  0  0  0  0
   -0.2509    4.1492    8.4312 H   0  0  0  0  0  0  0  0  0  0  0  0
    3.0345    3.0468    8.7060 H   0  0  0  0  0  0  0  0  0  0  0  0
   -0.7027    2.2055    7.4179 H   0  0  0  0  0  0  0  0  0  0  0  0
    0.7569    2.3602    3.7546 H   0  0  0  0  0  0  0  0  0  0  0  0
    2.3348    1.9904    4.4732 H   0  0  0  0  0  0  0  0  0  0  0  0
    2.3188   -0.7855    4.1700 H   0  0  0  0  0  0  0  0  0  0  0  0
    2.7289    0.1320    5.6314 H   0  0  0  0  0  0  0  0  0  0  0  0
   -0.3090   -4.0562    5.2608 H   0  0  0  0  0  0  0  0  0  0  0  0
   -1.5998   -5.6251    6.4432 H   0  0  0  0  0  0  0  0  0  0  0  0
   -1.0877   -6.2999    8.0965 H   0  0  0  0  0  0  0  0  0  0  0  0
    1.2715   -4.9576   10.4592 H   0  0  0  0  0  0  0  0  0  0  0  0
    0.3836   -5.9550    9.3743 H   0  0  0  0  0  0  0  0  0  0  0  0
    2.8214   -4.2280    8.7698 H   0  0  0  0  0  0  0  0  0  0  0  0
    2.6004   -5.9420    8.7527 H   0  0  0  0  0  0  0  0  0  0  0  0
    3.8433   -4.9518    6.2617 H   0  0  0  0  0  0  0  0  0  0  0  0
    3.4047   -6.4749    6.9470 H   0  0  0  0  0  0  0  0  0  0  0  0
    2.1470   -5.5062    4.3439 H   0  0  0  0  0  0  0  0  0  0  0  0
    3.5546   -6.5147    4.4269 H   0  0  0  0  0  0  0  0  0  0  0  0
    2.2217   -8.2266    5.6972 H   0  0  0  0  0  0  0  0  0  0  0  0
    0.8274   -7.1790    5.6452 H   0  0  0  0  0  0  0  0  0  0  0  0
    0.8291   -7.2718    3.1441 H   0  0  0  0  0  0  0  0  0  0  0  0
    2.2054   -8.3426    3.1751 H   0  0  0  0  0  0  0  0  0  0  0  0
   -0.5080   -8.9770    4.4530 H   0  0  0  0  0  0  0  0  0  0  0  0
   -0.0118   -9.5161    2.8715 H   0  0  0  0  0  0  0  0  0  0  0  0
    0.3304  -11.3164    4.5496 H   0  0  0  0  0  0  0  0  0  0  0  0
    1.3929  -10.2898    5.4892 H   0  0  0  0  0  0  0  0  0  0  0  0
    1.8843  -10.8180    3.8808 H   0  0  0  0  0  0  0  0  0  0  0  0
    1.9577   -3.8020    5.3885 H   0  0  0  0  0  0  0  0  0  0  0  0
    3.1632   -2.3224    6.1789 H   0  0  0  0  0  0  0  0  0  0  0  0
    2.8620    1.1468    9.9516 H   0  0  0  0  0  0  0  0  0  0  0  0
    1.0693    0.8544   11.2762 H   0  0  0  0  0  0  0  0  0  0  0  0
   -0.7683   -0.6479   12.0619 H   0  0  0  0  0  0  0  0  0  0  0  0
   -2.0573   -3.3478   10.2646 H   0  0  0  0  0  0  0  0  0  0  0  0
   -0.8139   -4.0846   11.3396 H   0  0  0  0  0  0  0  0  0  0  0  0
   -1.2902    0.3501    4.7171 H   0  0  0  0  0  0  0  0  0  0  0  0
   -0.5069    4.3116    6.3349 H   0  0  0  0  0  0  0  0  0  0  0  0
    0.8752    4.7271    3.6695 H   0  0  0  0  0  0  0  0  0  0  0  0
   -0.9334    4.8502    3.1053 H   0  0  0  0  0  0  0  0  0  0  0  0
    3.3711    6.1383    6.7061 H   0  0  0  0  0  0  0  0  0  0  0  0
    4.0447    3.1740    4.0333 H   0  0  0  0  0  0  0  0  0  0  0  0
    3.6558    4.8264    3.5049 H   0  0  0  0  0  0  0  0  0  0  0  0
    2.4215    3.7679    3.9798 H   0  0  0  0  0  0  0  0  0  0  0  0
  1  2  2  0
  1 52  1  0
  1 53  1  0
  2 49  1  0
  2  3  1  0
  3 47  1  0
  3  4  1  0
  3 54  1  6
  5  4  1  1
  4 55  1  0
  4 56  1  0
  5 46  1  0
  5  6  1  0
  5 49  1  0
  6  7  1  0
  6  8  1  0
  6 57  1  1
  7 58  1  0
  8  9  2  0
  8 59  1  0
  9 11  1  0
  9 10  1  0
 10 44  1  0
 10 11  1  0
 10 60  1  1
 11 12  1  6
 11 46  1  0
 12 13  1  0
 12 61  1  0
 12 62  1  0
 13 44  1  0
 13 14  1  0
 14 15  1  0
 14 63  1  0
 14 64  1  0
 15 33  1  0
 15 16  1  6
 15 43  1  0
 16 17  1  0
 17 32  1  0
 17 18  1  0
 17 65  1  6
 18 19  1  0
 19 21  1  1
 19 20  1  0
 19 22  1  0
 20 21  1  0
 20 66  1  0
 20 67  1  0
 22 41  1  0
 22 42  1  1
 22 23  1  0
 23 24  1  0
 23 68  1  0
 23 69  1  0
 24 25  1  0
 24 70  1  0
 24 71  1  0
 25 26  1  0
 25 32  1  0
 26 27  1  0
 26 72  1  0
 26 73  1  0
 27 28  1  0
 27 74  1  0
 27 75  1  0
 28 29  1  0
 28 76  1  0
 28 77  1  0
 29 30  1  0
 29 78  1  0
 29 79  1  0
 30 31  1  0
 30 80  1  0
 30 81  1  0
 31 82  1  0
 31 83  1  0
 31 84  1  0
 32 33  1  0
 32 85  1  6
 33 34  1  0
 33 86  1  6
 34 35  1  0
 35 41  2  0
 35 36  1  0
 36 37  1  0
 36 38  2  0
 37 87  1  0
 38 39  1  0
 38 88  1  0
 39 40  2  0
 39 89  1  0
 40 41  1  0
 40 42  1  0
 42 90  1  0
 42 91  1  0
 43 44  1  0
 44 45  1  6
 45 92  1  0
 46 47  1  0
 46 93  1  1
 47 48  1  0
 47 94  1  6
 48 95  1  0
 49 50  1  0
 49 96  1  1
 50 51  1  0
 51 97  1  0
 51 98  1  0
 51 99  1  0
M  END
>  <i_m_ct_stereo_status>  (138) 
1

>  <s_m_source_file>  (138) 
/var/tmp/pbs.5076253.sched01/tmp9pzrzrnh/1418a54yjb5.sdf

>  <i_m_source_file_index>  (138) 
19

>  <i_lp_mmshare_version>  (138) 
48012

>  <i_f3d_flags>  (138) 
0

>  <s_epik_input>  (138) 
W0NIM11PW0NASF0xQyg9W0NIMl0pW0NASF0oW0NIMl0yKVtDQEhdKFtPSF0pW0NASF0oW0NAQF0xMjMpQzQ1Qyg9W0NIXVtDQEBIXTNbT0hdKVtDSF00W0NAQF02KFtPSF0pTihbQ0gyXTUpW0NIMl1bQ0BdNyhPNilbQ0BASF04W0NAQEhdOVtDQEhdKE83KU9bQ0BAXTEoW0NIMl1PMSlbQ0BdMShjMmMoTzgpYyhbT0hdKVtjSF1bY0hdYzJbQ0gyXTEpW0NIMl1bQ0gyXU45W0NIMl1bQ0gyXVtDSDJdW0NIMl1bQ0gyXVtDSDNd

>  <s_epik_cmdline>  (138) 
J2VwaWtfcHl0aG9uJywgJy1waHQnLCAnMi4wJywgJy1waCcsICc3LjAnLCAnLXRuJywgJzgnLCAnLW1hJywgJzIwMCcsICctaW1hZScsICc8aW5maWxlLm1hZT4nLCAnLW9tYWUnLCAnPG91dGZpbGUubWFlPic=

>  <r_lp_tautomer_probability>  (138) 
1

>  <r_epik_Ionization_Penalty>  (138) 
0.0194329

>  <r_epik_Ionization_Penalty_Charging>  (138) 
0

>  <r_epik_Ionization_Penalty_Neutral>  (138) 
0.0194329

>  <r_epik_State_Penalty>  (138) 
0.0152054

>  <r_epik_Charging_Adjusted_Penalty>  (138) 
0.0152054

>  <i_epik_Tot_Q>  (138) 
0

>  <i_epik_Tot_abs_Q>  (138) 
0

>  <s_epik_Chemistry_Notes>  (138) 
This compound contains an acetal/aminal-like group ( X-CH(R)-Y where X, Y are N, S, or O) that may be acid/base labile, releasing an aldehyde.

>  <s_lp_Force_Field>  (138) 
OPLS3e

>  <r_lp_Energy>  (138) 
171.435

>  <b_lp_Chiralities_Consistent>  (138) 
1

>  <s_lp_Variant>  (138) 
90:0-2

>  <s_i_glide_gridfile>  (138) 
pfpi4k_grid

>  <i_i_glide_lignum>  (138) 
19

>  <i_i_glide_rotatable_bonds>  (138) 
10

>  <r_i_docking_score>  (138) 
-1.13149

>  <r_i_glide_ligand_efficiency>  (138) 
-0.022186

>  <r_i_glide_ligand_efficiency_sa>  (138) 
-0.0822754

>  <r_i_glide_ligand_efficiency_ln>  (138) 
-0.229426

>  <r_i_glide_gscore>  (138) 
-1.13149

>  <r_i_glide_lipo>  (138) 
-0.0555318

>  <r_i_glide_hbond>  (138) 
-0.11639

>  <r_i_glide_metal>  (138) 
-0

>  <r_i_glide_rewards>  (138) 
0

>  <r_i_glide_evdw>  (138) 
-24.0966

>  <r_i_glide_ecoul>  (138) 
-7.45841

>  <r_i_glide_erotb>  (138) 
0.172769

>  <r_i_glide_esite>  (138) 
-0.0634074

>  <r_i_glide_emodel>  (138) 
-23.0289

>  <r_i_glide_energy>  (138) 
-31.555

>  <r_i_glide_einternal>  (138) 
11.712

>  <r_i_glide_intrahb_reward>  (138) 
-0

>  <i_i_glide_confnum>  (138) 
2

>  <i_i_glide_posenum>  (138) 
16

>  <r_i_glide_eff_state_penalty>  (138) 
0

>  <ligand_id>  (138) 
90

>  <original_smiles>  (138) 
C=C1C2CC3(C(O)C=C4C5C4(CN4CC6(OC7OC8(CO8)C89CCN(CCCCCC)C7C6Oc6c(O)ccc(c68)C9)OC54O)C3C2O)C1OC

>  <smiles>  (138) 
[H]Oc1c([H])c([H])c2c3c1OC1([H])C4(OC5([H])OC6(OC6([H])[H])C3(C2([H])[H])C([H])([H])C([H])([H])N(C([H])([H])C([H])([H])C([H])([H])C([H])([H])C([H])([H])C([H])([H])[H])C51[H])OC1(O[H])N(C4([H])[H])C([H])([H])C23C(=C([H])C([H])(O[H])C45C([H])(OC([H])([H])[H])C(=C([H])[H])C([H])(C4([H])[H])C([H])(O[H])C25[H])C13[H]

$$$$
90:1:2
     RDKit          3D

 99110  0  0  1  0  0  0  0  0999 V2000
    2.5805    7.4831    4.0501 C   0  0  0  0  0  0  0  0  0  0  0  0
    1.8299    6.6152    4.7557 C   0  0  0  0  0  0  0  0  0  0  0  0
    0.3151    6.4930    4.7430 C   0  0  2  0  0  0  0  0  0  0  0  0
    0.1111    6.3943    6.2702 C   0  0  0  0  0  0  0  0  0  0  0  0
    0.9665    5.1244    6.4227 C   0  0  1  0  0  0  0  0  0  0  0  0
    1.1679    4.5229    7.8619 C   0  0  1  0  0  0  0  0  0  0  0  0
   -0.1164    4.3651    8.4755 O   0  0  0  0  0  0  0  0  0  0  0  0
    1.8366    3.1329    7.7507 C   0  0  0  0  0  0  0  0  0  0  0  0
    1.2673    2.3938    6.6383 C   0  0  0  0  0  0  0  0  0  0  0  0
    0.0017    1.6903    6.1274 C   0  0  1  0  0  0  0  0  0  0  0  0
    0.6396    2.7259    5.3285 C   0  0  2  0  0  0  0  0  0  0  0  0
    1.1558    2.0666    4.0598 C   0  0  0  0  0  0  0  0  0  0  0  0
    0.8516    0.6716    4.1216 N   0  0  0  0  0  0  0  0  0  0  0  0
    1.9738   -0.2148    4.3015 C   0  0  0  0  0  0  0  0  0  0  0  0
    1.3588   -1.3618    5.0903 C   0  0  1  0  0  0  0  0  0  0  0  0
    0.5548   -2.1548    4.2535 O   0  0  0  0  0  0  0  0  0  0  0  0
    0.3872   -3.3970    4.8388 C   0  0  2  0  0  0  0  0  0  0  0  0
   -0.5447   -3.2907    5.8624 O   0  0  0  0  0  0  0  0  0  0  0  0
   -0.6151   -4.3980    6.7357 C   0  0  2  0  0  0  0  0  0  0  0  0
   -0.9584   -5.7657    6.1412 C   0  0  0  0  0  0  0  0  0  0  0  0
   -1.9214   -4.9994    6.8619 O   0  0  0  0  0  0  0  0  0  0  0  0
    0.1330   -4.2243    8.0427 C   0  0  1  0  0  0  0  0  0  0  0  0
    1.1798   -5.3204    8.1796 C   0  0  0  0  0  0  0  0  0  0  0  0
    2.4238   -5.1576    7.2880 C   0  0  0  0  0  0  0  0  0  0  0  0
    2.2391   -5.0344    5.8310 N   0  0  0  0  0  0  0  0  0  0  0  0
    3.4368   -5.5376    5.1284 C   0  0  0  0  0  0  0  0  0  0  0  0
    3.1804   -5.9455    3.6592 C   0  0  0  0  0  0  0  0  0  0  0  0
    1.9563   -6.8678    3.5180 C   0  0  0  0  0  0  0  0  0  0  0  0
    1.5469   -7.1078    2.0590 C   0  0  0  0  0  0  0  0  0  0  0  0
    0.1766   -7.7938    1.9332 C   0  0  0  0  0  0  0  0  0  0  0  0
    0.1511   -9.2054    2.5338 C   0  0  0  0  0  0  0  0  0  0  0  0
    1.8215   -3.7034    5.2949 C   0  0  2  0  0  0  0  0  0  0  0  0
    2.3702   -2.3514    5.7587 C   0  0  2  0  0  0  0  0  0  0  0  0
    2.6694   -2.1038    7.1287 O   0  0  0  0  0  0  0  0  0  0  0  0
    1.7062   -1.9343    8.0663 C   0  0  0  0  0  0  0  0  0  0  0  0
    1.7248   -0.7764    8.9143 C   0  0  0  0  0  0  0  0  0  0  0  0
    2.7084    0.1537    8.7125 O   0  0  0  0  0  0  0  0  0  0  0  0
    0.7954   -0.5669    9.9612 C   0  0  0  0  0  0  0  0  0  0  0  0
   -0.1922   -1.5173   10.3091 C   0  0  0  0  0  0  0  0  0  0  0  0
   -0.2177   -2.6605    9.5031 C   0  0  0  0  0  0  0  0  0  0  0  0
    0.6665   -2.8236    8.3977 C   0  0  0  0  0  0  0  0  0  0  0  0
   -0.8299   -4.0214    9.2886 C   0  0  0  0  0  0  0  0  0  0  0  0
    0.5432   -0.6571    5.9757 O   0  0  0  0  0  0  0  0  0  0  0  0
    0.0197    0.4298    5.2793 C   0  0  1  0  0  0  0  0  0  0  0  0
   -1.2892    0.1873    4.8373 O   0  0  0  0  0  0  0  0  0  0  0  0
    0.1665    4.1926    5.4351 C   0  0  2  0  0  0  0  0  0  0  0  0
   -0.0491    5.0703    4.1822 C   0  0  1  0  0  0  0  0  0  0  0  0
   -1.3506    4.8186    3.6831 O   0  0  0  0  0  0  0  0  0  0  0  0
    2.3174    5.6202    5.8000 C   0  0  1  0  0  0  0  0  0  0  0  0
    3.1905    4.5955    5.2931 O   0  0  0  0  0  0  0  0  0  0  0  0
    3.1298    4.3003    3.9032 C   0  0  0  0  0  0  0  0  0  0  0  0
    3.6589    7.5109    4.1295 H   0  0  0  0  0  0  0  0  0  0  0  0
    2.1259    8.1477    3.3292 H   0  0  0  0  0  0  0  0  0  0  0  0
   -0.1746    7.3340    4.2460 H   0  0  0  0  0  0  0  0  0  0  0  0
    0.5216    7.2478    6.8167 H   0  0  0  0  0  0  0  0  0  0  0  0
   -0.9311    6.2724    6.5552 H   0  0  0  0  0  0  0  0  0  0  0  0
    1.7573    5.2031    8.5082 H   0  0  0  0  0  0  0  0  0  0  0  0
    0.0142    4.0802    9.3695 H   0  0  0  0  0  0  0  0  0  0  0  0
    2.7368    2.8859    8.2659 H   0  0  0  0  0  0  0  0  0  0  0  0
   -0.8866    1.9011    6.7738 H   0  0  0  0  0  0  0  0  0  0  0  0
    0.6451    2.4968    3.1945 H   0  0  0  0  0  0  0  0  0  0  0  0
    2.2296    2.1841    3.9192 H   0  0  0  0  0  0  0  0  0  0  0  0
    2.4352   -0.5515    3.3745 H   0  0  0  0  0  0  0  0  0  0  0  0
    2.7345    0.2536    4.9266 H   0  0  0  0  0  0  0  0  0  0  0  0
    0.0352   -4.0917    4.0792 H   0  0  0  0  0  0  0  0  0  0  0  0
   -1.1697   -5.8753    5.0811 H   0  0  0  0  0  0  0  0  0  0  0  0
   -0.5527   -6.6401    6.6530 H   0  0  0  0  0  0  0  0  0  0  0  0
    1.5273   -5.3628    9.2140 H   0  0  0  0  0  0  0  0  0  0  0  0
    0.7568   -6.3136    8.0219 H   0  0  0  0  0  0  0  0  0  0  0  0
    3.0694   -4.3642    7.6658 H   0  0  0  0  0  0  0  0  0  0  0  0
    2.9816   -6.0820    7.4757 H   0  0  0  0  0  0  0  0  0  0  0  0
    4.2449   -4.8025    5.1806 H   0  0  0  0  0  0  0  0  0  0  0  0
    3.8297   -6.4220    5.6340 H   0  0  0  0  0  0  0  0  0  0  0  0
    3.0276   -5.0629    3.0444 H   0  0  0  0  0  0  0  0  0  0  0  0
    4.0644   -6.4300    3.2366 H   0  0  0  0  0  0  0  0  0  0  0  0
    2.1522   -7.8171    4.0193 H   0  0  0  0  0  0  0  0  0  0  0  0
    1.1047   -6.4264    4.0353 H   0  0  0  0  0  0  0  0  0  0  0  0
    1.5113   -6.1515    1.5343 H   0  0  0  0  0  0  0  0  0  0  0  0
    2.3113   -7.7032    1.5590 H   0  0  0  0  0  0  0  0  0  0  0  0
   -0.5925   -7.1841    2.4083 H   0  0  0  0  0  0  0  0  0  0  0  0
   -0.0957   -7.8551    0.8802 H   0  0  0  0  0  0  0  0  0  0  0  0
   -0.8311   -9.6625    2.4148 H   0  0  0  0  0  0  0  0  0  0  0  0
    0.3746   -9.1911    3.6003 H   0  0  0  0  0  0  0  0  0  0  0  0
    0.8824   -9.8542    2.0502 H   0  0  0  0  0  0  0  0  0  0  0  0
    2.2594   -3.6892    4.3007 H   0  0  0  0  0  0  0  0  0  0  0  0
    3.3393   -2.2014    5.2653 H   0  0  0  0  0  0  0  0  0  0  0  0
    2.6716    0.8730    9.3245 H   0  0  0  0  0  0  0  0  0  0  0  0
    0.8685    0.3269   10.5542 H   0  0  0  0  0  0  0  0  0  0  0  0
   -0.8671   -1.3767   11.1342 H   0  0  0  0  0  0  0  0  0  0  0  0
   -1.8954   -3.9752    9.0552 H   0  0  0  0  0  0  0  0  0  0  0  0
   -0.6351   -4.7339   10.0970 H   0  0  0  0  0  0  0  0  0  0  0  0
   -1.2835    0.3474    3.9046 H   0  0  0  0  0  0  0  0  0  0  0  0
   -0.8259    4.0930    5.9034 H   0  0  0  0  0  0  0  0  0  0  0  0
    0.5953    4.8562    3.3297 H   0  0  0  0  0  0  0  0  0  0  0  0
   -1.2099    4.5522    2.7757 H   0  0  0  0  0  0  0  0  0  0  0  0
    2.8901    6.1602    6.5656 H   0  0  0  0  0  0  0  0  0  0  0  0
    3.8324    3.5075    3.6523 H   0  0  0  0  0  0  0  0  0  0  0  0
    3.3043    5.1569    3.2596 H   0  0  0  0  0  0  0  0  0  0  0  0
    2.1622    3.9737    3.6337 H   0  0  0  0  0  0  0  0  0  0  0  0
  1  2  2  0
  1 52  1  0
  1 53  1  0
  2 49  1  0
  2  3  1  0
  3 47  1  0
  3  4  1  0
  3 54  1  6
  5  4  1  1
  4 55  1  0
  4 56  1  0
  5 46  1  0
  5  6  1  0
  5 49  1  0
  6  7  1  0
  6  8  1  0
  6 57  1  1
  7 58  1  0
  8  9  2  0
  8 59  1  0
  9 11  1  0
  9 10  1  0
 10 44  1  0
 10 11  1  0
 10 60  1  1
 11 12  1  6
 11 46  1  0
 12 13  1  0
 12 61  1  0
 12 62  1  0
 13 44  1  0
 13 14  1  0
 14 15  1  0
 14 63  1  0
 14 64  1  0
 15 33  1  0
 15 16  1  6
 15 43  1  0
 16 17  1  0
 17 32  1  0
 17 18  1  0
 17 65  1  6
 18 19  1  0
 19 21  1  1
 19 20  1  0
 19 22  1  0
 20 21  1  0
 20 66  1  0
 20 67  1  0
 22 41  1  0
 22 42  1  1
 22 23  1  0
 23 24  1  0
 23 68  1  0
 23 69  1  0
 24 25  1  0
 24 70  1  0
 24 71  1  0
 25 26  1  0
 25 32  1  0
 26 27  1  0
 26 72  1  0
 26 73  1  0
 27 28  1  0
 27 74  1  0
 27 75  1  0
 28 29  1  0
 28 76  1  0
 28 77  1  0
 29 30  1  0
 29 78  1  0
 29 79  1  0
 30 31  1  0
 30 80  1  0
 30 81  1  0
 31 82  1  0
 31 83  1  0
 31 84  1  0
 32 33  1  0
 32 85  1  6
 33 34  1  0
 33 86  1  6
 34 35  1  0
 35 41  2  0
 35 36  1  0
 36 37  1  0
 36 38  2  0
 37 87  1  0
 38 39  1  0
 38 88  1  0
 39 40  2  0
 39 89  1  0
 40 41  1  0
 40 42  1  0
 42 90  1  0
 42 91  1  0
 43 44  1  0
 44 45  1  6
 45 92  1  0
 46 47  1  0
 46 93  1  1
 47 48  1  0
 47 94  1  6
 48 95  1  0
 49 50  1  0
 49 96  1  1
 50 51  1  0
 51 97  1  0
 51 98  1  0
 51 99  1  0
M  END
>  <i_m_ct_stereo_status>  (139) 
1

>  <s_m_source_file>  (139) 
/var/tmp/pbs.5076253.sched01/tmp9pzrzrnh/1418a54yjb5.sdf

>  <i_m_source_file_index>  (139) 
19

>  <i_lp_mmshare_version>  (139) 
48012

>  <i_f3d_flags>  (139) 
0

>  <s_epik_input>  (139) 
W0NIM11PW0NASF0xQyg9W0NIMl0pW0NASF0oW0NIMl0yKVtDQEhdKFtPSF0pW0NASF0oW0NAQF0xMjMpQzQ1Qyg9W0NIXVtDQEBIXTNbT0hdKVtDSF00W0NAQF02KFtPSF0pTihbQ0gyXTUpW0NIMl1bQ0BdNyhPNilbQ0BASF04W0NAQEhdOVtDQEhdKE83KU9bQ0BAXTEoW0NIMl1PMSlbQ0BdMShjMmMoTzgpYyhbT0hdKVtjSF1bY0hdYzJbQ0gyXTEpW0NIMl1bQ0gyXU45W0NIMl1bQ0gyXVtDSDJdW0NIMl1bQ0gyXVtDSDNd

>  <s_epik_cmdline>  (139) 
J2VwaWtfcHl0aG9uJywgJy1waHQnLCAnMi4wJywgJy1waCcsICc3LjAnLCAnLXRuJywgJzgnLCAnLW1hJywgJzIwMCcsICctaW1hZScsICc8aW5maWxlLm1hZT4nLCAnLW9tYWUnLCAnPG91dGZpbGUubWFlPic=

>  <r_lp_tautomer_probability>  (139) 
1

>  <r_epik_Ionization_Penalty>  (139) 
0.0194329

>  <r_epik_Ionization_Penalty_Charging>  (139) 
0

>  <r_epik_Ionization_Penalty_Neutral>  (139) 
0.0194329

>  <r_epik_State_Penalty>  (139) 
0.0152054

>  <r_epik_Charging_Adjusted_Penalty>  (139) 
0.0152054

>  <i_epik_Tot_Q>  (139) 
0

>  <i_epik_Tot_abs_Q>  (139) 
0

>  <s_epik_Chemistry_Notes>  (139) 
This compound contains an acetal/aminal-like group ( X-CH(R)-Y where X, Y are N, S, or O) that may be acid/base labile, releasing an aldehyde.

>  <s_lp_Force_Field>  (139) 
OPLS3e

>  <r_lp_Energy>  (139) 
171.435

>  <b_lp_Chiralities_Consistent>  (139) 
1

>  <s_lp_Variant>  (139) 
90:0-2

>  <s_i_glide_gridfile>  (139) 
pfpi4k_grid

>  <i_i_glide_lignum>  (139) 
19

>  <i_i_glide_rotatable_bonds>  (139) 
10

>  <r_i_docking_score>  (139) 
-0.949939

>  <r_i_glide_ligand_efficiency>  (139) 
-0.0186263

>  <r_i_glide_ligand_efficiency_sa>  (139) 
-0.0690741

>  <r_i_glide_ligand_efficiency_ln>  (139) 
-0.192614

>  <r_i_glide_gscore>  (139) 
-0.949939

>  <r_i_glide_lipo>  (139) 
-0.0499513

>  <r_i_glide_hbond>  (139) 
-0.177119

>  <r_i_glide_metal>  (139) 
-0

>  <r_i_glide_rewards>  (139) 
-0.00519284

>  <r_i_glide_evdw>  (139) 
-26.0572

>  <r_i_glide_ecoul>  (139) 
-8.70691

>  <r_i_glide_erotb>  (139) 
0.172769

>  <r_i_glide_esite>  (139) 
-0.0222335

>  <r_i_glide_emodel>  (139) 
-24.34

>  <r_i_glide_energy>  (139) 
-34.7641

>  <r_i_glide_einternal>  (139) 
13.2402

>  <r_i_glide_intrahb_reward>  (139) 
-0

>  <i_i_glide_confnum>  (139) 
2

>  <i_i_glide_posenum>  (139) 
14

>  <r_i_glide_eff_state_penalty>  (139) 
0

>  <ligand_id>  (139) 
90

>  <original_smiles>  (139) 
C=C1C2CC3(C(O)C=C4C5C4(CN4CC6(OC7OC8(CO8)C89CCN(CCCCCC)C7C6Oc6c(O)ccc(c68)C9)OC54O)C3C2O)C1OC

>  <smiles>  (139) 
[H]Oc1c([H])c([H])c2c3c1OC1([H])C4(OC5([H])OC6(OC6([H])[H])C3(C2([H])[H])C([H])([H])C([H])([H])N(C([H])([H])C([H])([H])C([H])([H])C([H])([H])C([H])([H])C([H])([H])[H])C51[H])OC1(O[H])N(C4([H])[H])C([H])([H])C23C(=C([H])C([H])(O[H])C45C([H])(OC([H])([H])[H])C(=C([H])[H])C([H])(C4([H])[H])C([H])(O[H])C25[H])C13[H]

$$$$
90:3:0
     RDKit          3D

100111  0  0  1  0  0  0  0  0999 V2000
    4.0503   -6.3827    0.1111 C   0  0  0  0  0  0  0  0  0  0  0  0
    4.3186   -5.6753    1.2626 C   0  0  0  0  0  0  0  0  0  0  0  0
    5.6721   -5.3204    1.7535 C   0  0  2  0  0  0  0  0  0  0  0  0
    5.4515   -5.6686    3.2398 C   0  0  0  0  0  0  0  0  0  0  0  0
    4.2730   -4.6948    3.4242 C   0  0  1  0  0  0  0  0  0  0  0  0
    3.5643   -4.6909    4.8221 C   0  0  1  0  0  0  0  0  0  0  0  0
    4.5215   -4.4945    5.8492 O   0  0  0  0  0  0  0  0  0  0  0  0
    2.5692   -3.4832    4.8837 C   0  0  0  0  0  0  0  0  0  0  0  0
    3.1987   -2.3210    4.2403 C   0  0  0  0  0  0  0  0  0  0  0  0
    4.3040   -1.2598    4.3737 C   0  0  1  0  0  0  0  0  0  0  0  0
    4.2216   -2.0533    3.1844 C   0  0  2  0  0  0  0  0  0  0  0  0
    3.8813   -1.1023    2.0406 C   0  0  0  0  0  0  0  0  0  0  0  0
    3.7162    0.2212    2.5856 N   0  0  0  0  0  0  0  0  0  0  0  0
    2.3779    0.7546    2.5613 C   0  0  0  0  0  0  0  0  0  0  0  0
    2.3162    1.5770    3.8450 C   0  0  1  0  0  0  0  0  0  0  0  0
    2.9356    2.7963    3.6350 O   0  0  0  0  0  0  0  0  0  0  0  0
    1.9984    3.7084    3.1852 C   0  0  2  0  0  0  0  0  0  0  0  0
    2.3210    5.0318    3.3990 O   0  0  0  0  0  0  0  0  0  0  0  0
    3.0054    5.3409    4.6084 C   0  0  2  0  0  0  0  0  0  0  0  0
    3.8784    6.5496    4.3566 C   0  0  0  0  0  0  0  0  0  0  0  0
    4.4232    5.2330    4.5984 O   0  0  0  0  0  0  0  0  0  0  0  0
    2.2879    5.1331    5.9210 C   0  0  1  0  0  0  0  0  0  0  0  0
    0.9430    5.8581    5.8750 C   0  0  0  0  0  0  0  0  0  0  0  0
   -0.0052    5.5588    4.6943 C   0  0  0  0  0  0  0  0  0  0  0  0
   -0.3394    4.1161    4.5449 N   0  0  1  0  0  0  0  0  0  0  0  0
   -1.7972    3.8935    4.2337 C   0  0  0  0  0  0  0  0  0  0  0  0
   -2.2196    4.3600    2.8289 C   0  0  0  0  0  0  0  0  0  0  0  0
   -3.7020    4.1871    2.4651 C   0  0  0  0  0  0  0  0  0  0  0  0
   -4.3659    5.5179    2.0775 C   0  0  0  0  0  0  0  0  0  0  0  0
   -5.8806    5.3959    1.8591 C   0  0  0  0  0  0  0  0  0  0  0  0
   -6.3308    5.8795    0.4717 C   0  0  0  0  0  0  0  0  0  0  0  0
    0.6017    3.2459    3.7181 C   0  0  2  0  0  0  0  0  0  0  0  0
    0.9086    1.9037    4.3664 C   0  0  2  0  0  0  0  0  0  0  0  0
    0.7931    1.9411    5.7907 O   0  0  0  0  0  0  0  0  0  0  0  0
    1.7880    2.4307    6.5858 C   0  0  0  0  0  0  0  0  0  0  0  0
    2.3312    1.5869    7.5949 C   0  0  0  0  0  0  0  0  0  0  0  0
    1.8975    0.2902    7.6715 O   0  0  0  0  0  0  0  0  0  0  0  0
    3.2876    2.0205    8.5675 C   0  0  0  0  0  0  0  0  0  0  0  0
    3.7472    3.3549    8.6274 C   0  0  0  0  0  0  0  0  0  0  0  0
    3.2318    4.1904    7.6422 C   0  0  0  0  0  0  0  0  0  0  0  0
    2.3364    3.7349    6.6125 C   0  0  0  0  0  0  0  0  0  0  0  0
    3.1910    5.5997    7.1529 C   0  0  0  0  0  0  0  0  0  0  0  0
    3.0255    0.7729    4.7202 O   0  0  0  0  0  0  0  0  0  0  0  0
    4.0674    0.1697    3.9874 C   0  0  1  0  0  0  0  0  0  0  0  0
    5.2659    0.8526    4.1766 O   0  0  0  0  0  0  0  0  0  0  0  0
    5.0311   -3.3794    3.0209 C   0  0  2  0  0  0  0  0  0  0  0  0
    5.7424   -3.7621    1.6802 C   0  0  1  0  0  0  0  0  0  0  0  0
    7.0526   -3.2932    1.6271 O   0  0  0  0  0  0  0  0  0  0  0  0
    3.3134   -5.2089    2.2837 C   0  0  1  0  0  0  0  0  0  0  0  0
    2.3203   -4.2800    1.8037 O   0  0  0  0  0  0  0  0  0  0  0  0
    2.6627   -3.5121    0.6298 C   0  0  0  0  0  0  0  0  0  0  0  0
    3.0444   -6.5944   -0.1239 H   0  0  0  0  0  0  0  0  0  0  0  0
    4.8292   -6.6654   -0.5599 H   0  0  0  0  0  0  0  0  0  0  0  0
    6.4933   -5.8239    1.2343 H   0  0  0  0  0  0  0  0  0  0  0  0
    5.1710   -6.7179    3.3685 H   0  0  0  0  0  0  0  0  0  0  0  0
    6.3240   -5.4609    3.8586 H   0  0  0  0  0  0  0  0  0  0  0  0
    3.0233   -5.6215    5.0333 H   0  0  0  0  0  0  0  0  0  0  0  0
    5.0475   -3.7424    5.6355 H   0  0  0  0  0  0  0  0  0  0  0  0
    1.5350   -3.5511    5.1401 H   0  0  0  0  0  0  0  0  0  0  0  0
    5.0130   -1.4955    5.2145 H   0  0  0  0  0  0  0  0  0  0  0  0
    4.7093   -1.0822    1.3102 H   0  0  0  0  0  0  0  0  0  0  0  0
    2.9617   -1.3611    1.4861 H   0  0  0  0  0  0  0  0  0  0  0  0
    2.1473    1.3417    1.6740 H   0  0  0  0  0  0  0  0  0  0  0  0
    1.6600   -0.0517    2.6422 H   0  0  0  0  0  0  0  0  0  0  0  0
    1.9735    3.6070    2.1016 H   0  0  0  0  0  0  0  0  0  0  0  0
    4.0718    6.9293    3.3617 H   0  0  0  0  0  0  0  0  0  0  0  0
    4.0264    7.2541    5.1750 H   0  0  0  0  0  0  0  0  0  0  0  0
    0.4068    5.7799    6.8233 H   0  0  0  0  0  0  0  0  0  0  0  0
    1.1526    6.9209    5.7615 H   0  0  0  0  0  0  0  0  0  0  0  0
   -0.9170    6.0791    4.9745 H   0  0  0  0  0  0  0  0  0  0  0  0
    0.2526    6.0058    3.7259 H   0  0  0  0  0  0  0  0  0  0  0  0
   -2.0403    2.8410    4.3862 H   0  0  0  0  0  0  0  0  0  0  0  0
   -2.4057    4.4324    4.9488 H   0  0  0  0  0  0  0  0  0  0  0  0
   -1.8654    5.3648    2.5939 H   0  0  0  0  0  0  0  0  0  0  0  0
   -1.6685    3.6991    2.2263 H   0  0  0  0  0  0  0  0  0  0  0  0
   -3.8068    3.4890    1.6326 H   0  0  0  0  0  0  0  0  0  0  0  0
   -4.2370    3.7018    3.2831 H   0  0  0  0  0  0  0  0  0  0  0  0
   -4.1876    6.2470    2.8593 H   0  0  0  0  0  0  0  0  0  0  0  0
   -3.8871    5.9340    1.1907 H   0  0  0  0  0  0  0  0  0  0  0  0
   -6.1883    4.3641    2.0255 H   0  0  0  0  0  0  0  0  0  0  0  0
   -6.4206    5.9617    2.6179 H   0  0  0  0  0  0  0  0  0  0  0  0
   -7.4074    5.7564    0.3503 H   0  0  0  0  0  0  0  0  0  0  0  0
   -5.8452    5.3122   -0.3218 H   0  0  0  0  0  0  0  0  0  0  0  0
   -6.0989    6.9345    0.3215 H   0  0  0  0  0  0  0  0  0  0  0  0
    0.0761    2.9767    2.8121 H   0  0  0  0  0  0  0  0  0  0  0  0
    0.2166    1.1216    4.0455 H   0  0  0  0  0  0  0  0  0  0  0  0
    2.2989   -0.2095    8.3564 H   0  0  0  0  0  0  0  0  0  0  0  0
    3.6304    1.3282    9.2982 H   0  0  0  0  0  0  0  0  0  0  0  0
    4.4319    3.7060    9.3991 H   0  0  0  0  0  0  0  0  0  0  0  0
    4.1978    5.9591    6.9226 H   0  0  0  0  0  0  0  0  0  0  0  0
    2.6588    6.2854    7.8308 H   0  0  0  0  0  0  0  0  0  0  0  0
    5.2465    1.6138    3.6226 H   0  0  0  0  0  0  0  0  0  0  0  0
    5.7909   -3.2520    3.7929 H   0  0  0  0  0  0  0  0  0  0  0  0
    5.3298   -3.3623    0.7751 H   0  0  0  0  0  0  0  0  0  0  0  0
    7.5539   -3.6065    2.3739 H   0  0  0  0  0  0  0  0  0  0  0  0
    2.7479   -6.0719    2.6505 H   0  0  0  0  0  0  0  0  0  0  0  0
    1.8548   -2.7812    0.3898 H   0  0  0  0  0  0  0  0  0  0  0  0
    2.8813   -4.1174   -0.2545 H   0  0  0  0  0  0  0  0  0  0  0  0
    3.5385   -2.9492    0.7999 H   0  0  0  0  0  0  0  0  0  0  0  0
   -0.2406    3.7666    5.5059 H   0  0  0  0  0  0  0  0  0  0  0  0
  1  2  2  0
  1 52  1  0
  1 53  1  0
  2 49  1  0
  2  3  1  0
  3 47  1  0
  3  4  1  0
  3 54  1  6
  5  4  1  1
  4 55  1  0
  4 56  1  0
  5 46  1  0
  5  6  1  0
  5 49  1  0
  6  7  1  0
  6  8  1  0
  6 57  1  1
  7 58  1  0
  8  9  2  0
  8 59  1  0
  9 11  1  0
  9 10  1  0
 10 44  1  0
 10 11  1  0
 10 60  1  1
 11 12  1  6
 11 46  1  0
 12 13  1  0
 12 61  1  0
 12 62  1  0
 13 44  1  0
 13 14  1  0
 14 15  1  0
 14 63  1  0
 14 64  1  0
 15 33  1  0
 15 16  1  6
 15 43  1  0
 16 17  1  0
 17 32  1  0
 17 18  1  0
 17 65  1  6
 18 19  1  0
 19 21  1  1
 19 20  1  0
 19 22  1  0
 20 21  1  0
 20 66  1  0
 20 67  1  0
 22 41  1  0
 22 42  1  1
 22 23  1  0
 23 24  1  0
 23 68  1  0
 23 69  1  0
 24 25  1  0
 24 70  1  0
 24 71  1  0
 25 26  1  0
 25 32  1  0
 25100  1  1
 26 27  1  0
 26 72  1  0
 26 73  1  0
 27 28  1  0
 27 74  1  0
 27 75  1  0
 28 29  1  0
 28 76  1  0
 28 77  1  0
 29 30  1  0
 29 78  1  0
 29 79  1  0
 30 31  1  0
 30 80  1  0
 30 81  1  0
 31 82  1  0
 31 83  1  0
 31 84  1  0
 32 33  1  0
 32 85  1  6
 33 34  1  0
 33 86  1  6
 34 35  1  0
 35 41  2  0
 35 36  1  0
 36 37  1  0
 36 38  2  0
 37 87  1  0
 38 39  1  0
 38 88  1  0
 39 40  2  0
 39 89  1  0
 40 41  1  0
 40 42  1  0
 42 90  1  0
 42 91  1  0
 43 44  1  0
 44 45  1  6
 45 92  1  0
 46 47  1  0
 46 93  1  1
 47 48  1  0
 47 94  1  6
 48 95  1  0
 49 50  1  0
 49 96  1  1
 50 51  1  0
 51 97  1  0
 51 98  1  0
 51 99  1  0
M  CHG  1  25   1
M  END
>  <i_m_ct_stereo_status>  (140) 
1

>  <s_m_source_file>  (140) 
/var/tmp/pbs.5076253.sched01/tmp9pzrzrnh/1418a54yjb5.sdf

>  <i_m_source_file_index>  (140) 
21

>  <i_lp_mmshare_version>  (140) 
48012

>  <i_f3d_flags>  (140) 
0

>  <s_epik_input>  (140) 
W0NIM11PW0NASF0xQyg9W0NIMl0pW0NASF0oW0NIMl0yKVtDQEhdKFtPSF0pW0NASF0oW0NAQF0xMjMpQzQ1Qyg9W0NIXVtDQEBIXTNbT0hdKVtDSF00W0NAQF02KFtPSF0pTihbQ0gyXTUpW0NIMl1bQ0BdNyhPNilbQ0BASF04W0NAQEhdOVtDQEhdKE83KU9bQ0BAXTEoW0NIMl1PMSlbQ0BdMShjMmMoTzgpYyhbT0hdKVtjSF1bY0hdYzJbQ0gyXTEpW0NIMl1bQ0gyXU45W0NIMl1bQ0gyXVtDSDJdW0NIMl1bQ0gyXVtDSDNd

>  <s_epik_cmdline>  (140) 
J2VwaWtfcHl0aG9uJywgJy1waHQnLCAnMi4wJywgJy1waCcsICc3LjAnLCAnLXRuJywgJzgnLCAnLW1hJywgJzIwMCcsICctaW1hZScsICc8aW5maWxlLm1hZT4nLCAnLW9tYWUnLCAnPG91dGZpbGUubWFlPic=

>  <r_lp_tautomer_probability>  (140) 
1

>  <r_epik_Ionization_Penalty>  (140) 
2.04601

>  <r_epik_Ionization_Penalty_Charging>  (140) 
2.04559

>  <r_epik_Ionization_Penalty_Neutral>  (140) 
0.000416605

>  <r_epik_State_Penalty>  (140) 
2.17767

>  <r_epik_Charging_Adjusted_Penalty>  (140) 
4.22326

>  <i_epik_Tot_Q>  (140) 
1

>  <i_epik_Tot_abs_Q>  (140) 
1

>  <s_epik_Chemistry_Notes>  (140) 
This compound contains an acetal/aminal-like group ( X-CH(R)-Y where X, Y are N, S, or O) that may be acid/base labile, releasing an aldehyde.

>  <s_lp_Force_Field>  (140) 
OPLS3e

>  <r_lp_Energy>  (140) 
167.075

>  <b_lp_Chiralities_Consistent>  (140) 
1

>  <s_lp_Variant>  (140) 
90:0-4

>  <s_i_glide_gridfile>  (140) 
pfpi4k_grid

>  <i_i_glide_lignum>  (140) 
21

>  <i_i_glide_rotatable_bonds>  (140) 
10

>  <r_i_docking_score>  (140) 
0.266933

>  <r_i_glide_ligand_efficiency>  (140) 
0.00523398

>  <r_i_glide_ligand_efficiency_sa>  (140) 
0.0194099

>  <r_i_glide_ligand_efficiency_ln>  (140) 
0.0541246

>  <r_i_glide_gscore>  (140) 
0.266933

>  <r_i_glide_lipo>  (140) 
-0.397075

>  <r_i_glide_hbond>  (140) 
0

>  <r_i_glide_metal>  (140) 
-0

>  <r_i_glide_rewards>  (140) 
-7.56933e-05

>  <r_i_glide_evdw>  (140) 
-17.974

>  <r_i_glide_ecoul>  (140) 
-2.0218

>  <r_i_glide_erotb>  (140) 
0.172306

>  <r_i_glide_esite>  (140) 
-0.116522

>  <r_i_glide_emodel>  (140) 
-2.52983

>  <r_i_glide_energy>  (140) 
-19.9958

>  <r_i_glide_einternal>  (140) 
16.1768

>  <r_i_glide_intrahb_reward>  (140) 
-0

>  <i_i_glide_confnum>  (140) 
2

>  <i_i_glide_posenum>  (140) 
37

>  <r_i_glide_eff_state_penalty>  (140) 
0

>  <ligand_id>  (140) 
90

>  <original_smiles>  (140) 
C=C1C2CC3(C(O)C=C4C5C4(CN4CC6(OC7OC8(CO8)C89CCN(CCCCCC)C7C6Oc6c(O)ccc(c68)C9)OC54O)C3C2O)C1OC

>  <smiles>  (140) 
[H]Oc1c([H])c([H])c2c3c1OC1([H])C4(OC5([H])OC6(OC6([H])[H])C3(C2([H])[H])C([H])([H])C([H])([H])[N+]([H])(C([H])([H])C([H])([H])C([H])([H])C([H])([H])C([H])([H])C([H])([H])[H])C51[H])OC1(O[H])N(C4([H])[H])C([H])([H])C23C(=C([H])C([H])(O[H])C45C([H])(OC([H])([H])[H])C(=C([H])[H])C([H])(C4([H])[H])C([H])(O[H])C25[H])C13[H]

$$$$
90:3:1
     RDKit          3D

100111  0  0  1  0  0  0  0  0999 V2000
    4.0727   -6.4556    0.0123 C   0  0  0  0  0  0  0  0  0  0  0  0
    4.4368   -5.9042    1.1632 C   0  0  0  0  0  0  0  0  0  0  0  0
    5.8464   -5.6746    1.5985 C   0  0  2  0  0  0  0  0  0  0  0  0
    5.6941   -6.1862    3.0359 C   0  0  0  0  0  0  0  0  0  0  0  0
    4.5876   -5.1672    3.4117 C   0  0  1  0  0  0  0  0  0  0  0  0
    3.9569   -5.2401    4.8554 C   0  0  1  0  0  0  0  0  0  0  0  0
    5.0120   -5.2543    5.8134 O   0  0  0  0  0  0  0  0  0  0  0  0
    3.0773   -3.9972    5.0761 C   0  0  0  0  0  0  0  0  0  0  0  0
    3.7619   -2.8341    4.5498 C   0  0  0  0  0  0  0  0  0  0  0  0
    4.9040   -1.8556    4.7199 C   0  0  1  0  0  0  0  0  0  0  0  0
    4.6877   -2.5182    3.4293 C   0  0  2  0  0  0  0  0  0  0  0  0
    4.3589   -1.4166    2.4229 C   0  0  0  0  0  0  0  0  0  0  0  0
    4.3302   -0.1599    3.1147 N   0  0  0  0  0  0  0  0  0  0  0  0
    3.0275    0.4472    3.2435 C   0  0  0  0  0  0  0  0  0  0  0  0
    3.1070    1.1259    4.6072 C   0  0  1  0  0  0  0  0  0  0  0  0
    3.7857    2.3298    4.4973 O   0  0  0  0  0  0  0  0  0  0  0  0
    2.8702    3.3383    4.2042 C   0  0  2  0  0  0  0  0  0  0  0  0
    3.3158    4.6082    4.5327 O   0  0  0  0  0  0  0  0  0  0  0  0
    4.0989    4.7318    5.7154 C   0  0  2  0  0  0  0  0  0  0  0  0
    5.0416    5.9063    5.5385 C   0  0  0  0  0  0  0  0  0  0  0  0
    5.5164    4.5472    5.5881 O   0  0  0  0  0  0  0  0  0  0  0  0
    3.4364    4.4425    7.0504 C   0  0  1  0  0  0  0  0  0  0  0  0
    2.1394    5.2542    7.1597 C   0  0  0  0  0  0  0  0  0  0  0  0
    1.0859    5.1426    6.0315 C   0  0  0  0  0  0  0  0  0  0  0  0
    0.6708    3.7420    5.7645 N   0  0  1  0  0  0  0  0  0  0  0  0
   -0.8047    3.6366    5.5081 C   0  0  0  0  0  0  0  0  0  0  0  0
   -1.2760    4.3693    4.2177 C   0  0  0  0  0  0  0  0  0  0  0  0
   -2.6066    3.8656    3.6444 C   0  0  0  0  0  0  0  0  0  0  0  0
   -3.2213    4.8074    2.5686 C   0  0  0  0  0  0  0  0  0  0  0  0
   -4.5690    4.2878    2.0492 C   0  0  0  0  0  0  0  0  0  0  0  0
   -4.4636    2.9350    1.3694 C   0  0  0  0  0  0  0  0  0  0  0  0
    1.4805    2.9128    4.7847 C   0  0  2  0  0  0  0  0  0  0  0  0
    1.7553    1.4907    5.2606 C   0  0  2  0  0  0  0  0  0  0  0  0
    1.7283    1.3691    6.6793 O   0  0  0  0  0  0  0  0  0  0  0  0
    2.8089    1.7328    7.4437 C   0  0  0  0  0  0  0  0  0  0  0  0
    3.3447    0.7305    8.3404 C   0  0  0  0  0  0  0  0  0  0  0  0
    2.8394   -0.5329    8.2980 O   0  0  0  0  0  0  0  0  0  0  0  0
    4.3808    1.0053    9.2718 C   0  0  0  0  0  0  0  0  0  0  0  0
    4.9328    2.2911    9.4405 C   0  0  0  0  0  0  0  0  0  0  0  0
    4.4254    3.2677    8.5922 C   0  0  0  0  0  0  0  0  0  0  0  0
    3.4407    2.9694    7.5779 C   0  0  0  0  0  0  0  0  0  0  0  0
    4.4446    4.7161    8.2471 C   0  0  0  0  0  0  0  0  0  0  0  0
    3.8204    0.1820    5.3316 O   0  0  0  0  0  0  0  0  0  0  0  0
    4.7694   -0.3731    4.4798 C   0  0  1  0  0  0  0  0  0  0  0  0
    6.0266    0.2236    4.6472 O   0  0  0  0  0  0  0  0  0  0  0  0
    5.4026   -3.8511    3.0941 C   0  0  2  0  0  0  0  0  0  0  0  0
    6.0377   -4.1404    1.6986 C   0  0  1  0  0  0  0  0  0  0  0  0
    7.3945   -3.8071    1.5565 O   0  0  0  0  0  0  0  0  0  0  0  0
    3.5301   -5.4819    2.2975 C   0  0  1  0  0  0  0  0  0  0  0  0
    2.6005   -4.4324    1.9752 O   0  0  0  0  0  0  0  0  0  0  0  0
    2.8811   -3.5979    0.8615 C   0  0  0  0  0  0  0  0  0  0  0  0
    3.0272   -6.5812   -0.2101 H   0  0  0  0  0  0  0  0  0  0  0  0
    4.7840   -6.7210   -0.7563 H   0  0  0  0  0  0  0  0  0  0  0  0
    6.5851   -6.1809    0.9742 H   0  0  0  0  0  0  0  0  0  0  0  0
    5.3469   -7.2235    3.0824 H   0  0  0  0  0  0  0  0  0  0  0  0
    6.6101   -6.0986    3.6218 H   0  0  0  0  0  0  0  0  0  0  0  0
    3.3928   -6.1739    4.9899 H   0  0  0  0  0  0  0  0  0  0  0  0
    5.5724   -4.5106    5.6442 H   0  0  0  0  0  0  0  0  0  0  0  0
    2.0609   -4.0584    5.4116 H   0  0  0  0  0  0  0  0  0  0  0  0
    5.6454   -2.2282    5.4510 H   0  0  0  0  0  0  0  0  0  0  0  0
    5.1360   -1.3903    1.6629 H   0  0  0  0  0  0  0  0  0  0  0  0
    3.4008   -1.5487    1.9391 H   0  0  0  0  0  0  0  0  0  0  0  0
    2.7860    1.1449    2.4418 H   0  0  0  0  0  0  0  0  0  0  0  0
    2.2520   -0.3176    3.2917 H   0  0  0  0  0  0  0  0  0  0  0  0
    2.7983    3.3560    3.1127 H   0  0  0  0  0  0  0  0  0  0  0  0
    5.1838    6.3888    4.5746 H   0  0  0  0  0  0  0  0  0  0  0  0
    5.2722    6.5093    6.4151 H   0  0  0  0  0  0  0  0  0  0  0  0
    1.6753    5.0971    8.1314 H   0  0  0  0  0  0  0  0  0  0  0  0
    2.4320    6.3093    7.1595 H   0  0  0  0  0  0  0  0  0  0  0  0
    0.2259    5.7045    6.4082 H   0  0  0  0  0  0  0  0  0  0  0  0
    1.3331    5.6649    5.1042 H   0  0  0  0  0  0  0  0  0  0  0  0
   -1.0857    2.5812    5.4698 H   0  0  0  0  0  0  0  0  0  0  0  0
   -1.3524    4.0450    6.3656 H   0  0  0  0  0  0  0  0  0  0  0  0
   -1.3971    5.4142    4.4460 H   0  0  0  0  0  0  0  0  0  0  0  0
   -0.5223    4.3108    3.4293 H   0  0  0  0  0  0  0  0  0  0  0  0
   -2.4204    2.8543    3.2374 H   0  0  0  0  0  0  0  0  0  0  0  0
   -3.3168    3.6955    4.4553 H   0  0  0  0  0  0  0  0  0  0  0  0
   -3.4115    5.8077    2.8566 H   0  0  0  0  0  0  0  0  0  0  0  0
   -2.4804    4.9504    1.7979 H   0  0  0  0  0  0  0  0  0  0  0  0
   -5.3094    4.1934    2.8470 H   0  0  0  0  0  0  0  0  0  0  0  0
   -4.9907    4.9887    1.3283 H   0  0  0  0  0  0  0  0  0  0  0  0
   -5.3926    2.5550    0.9784 H   0  0  0  0  0  0  0  0  0  0  0  0
   -4.0683    2.1605    2.0167 H   0  0  0  0  0  0  0  0  0  0  0  0
   -3.8222    3.0649    0.5159 H   0  0  0  0  0  0  0  0  0  0  0  0
    0.8735    2.7945    3.8926 H   0  0  0  0  0  0  0  0  0  0  0  0
    0.9930    0.7898    4.9088 H   0  0  0  0  0  0  0  0  0  0  0  0
    2.1961   -0.6692    7.6166 H   0  0  0  0  0  0  0  0  0  0  0  0
    4.7224    0.1999    9.9087 H   0  0  0  0  0  0  0  0  0  0  0  0
    5.6798    2.5069   10.1878 H   0  0  0  0  0  0  0  0  0  0  0  0
    5.4539    5.0370    7.9941 H   0  0  0  0  0  0  0  0  0  0  0  0
    4.0152    5.3457    9.0237 H   0  0  0  0  0  0  0  0  0  0  0  0
    6.0509    0.9848    4.0925 H   0  0  0  0  0  0  0  0  0  0  0  0
    6.2110   -3.8871    3.8271 H   0  0  0  0  0  0  0  0  0  0  0  0
    5.5881   -3.6317    0.8511 H   0  0  0  0  0  0  0  0  0  0  0  0
    7.8794   -4.1780    2.2769 H   0  0  0  0  0  0  0  0  0  0  0  0
    2.9296   -6.3470    2.6020 H   0  0  0  0  0  0  0  0  0  0  0  0
    2.1363   -2.8171    0.7541 H   0  0  0  0  0  0  0  0  0  0  0  0
    2.9987   -4.1210   -0.0742 H   0  0  0  0  0  0  0  0  0  0  0  0
    3.8054   -3.1096    0.9965 H   0  0  0  0  0  0  0  0  0  0  0  0
    0.7983    3.2905    6.6628 H   0  0  0  0  0  0  0  0  0  0  0  0
  1  2  2  0
  1 52  1  0
  1 53  1  0
  2 49  1  0
  2  3  1  0
  3 47  1  0
  3  4  1  0
  3 54  1  6
  5  4  1  1
  4 55  1  0
  4 56  1  0
  5 46  1  0
  5  6  1  0
  5 49  1  0
  6  7  1  0
  6  8  1  0
  6 57  1  6
  7 58  1  0
  8  9  2  0
  8 59  1  0
  9 11  1  0
  9 10  1  0
 10 44  1  0
 10 11  1  0
 10 60  1  1
 11 12  1  6
 11 46  1  0
 12 13  1  0
 12 61  1  0
 12 62  1  0
 13 44  1  0
 13 14  1  0
 14 15  1  0
 14 63  1  0
 14 64  1  0
 15 33  1  0
 15 16  1  6
 15 43  1  0
 16 17  1  0
 17 32  1  0
 17 18  1  0
 17 65  1  6
 18 19  1  0
 19 21  1  6
 19 20  1  0
 19 22  1  0
 20 21  1  0
 20 66  1  0
 20 67  1  0
 22 41  1  0
 22 42  1  1
 22 23  1  0
 23 24  1  0
 23 68  1  0
 23 69  1  0
 24 25  1  0
 24 70  1  0
 24 71  1  0
 25 26  1  0
 25 32  1  0
 25100  1  1
 26 27  1  0
 26 72  1  0
 26 73  1  0
 27 28  1  0
 27 74  1  0
 27 75  1  0
 28 29  1  0
 28 76  1  0
 28 77  1  0
 29 30  1  0
 29 78  1  0
 29 79  1  0
 30 31  1  0
 30 80  1  0
 30 81  1  0
 31 82  1  0
 31 83  1  0
 31 84  1  0
 32 33  1  0
 32 85  1  6
 33 34  1  0
 33 86  1  6
 34 35  1  0
 35 41  2  0
 35 36  1  0
 36 37  1  0
 36 38  2  0
 37 87  1  0
 38 39  1  0
 38 88  1  0
 39 40  2  0
 39 89  1  0
 40 41  1  0
 40 42  1  0
 42 90  1  0
 42 91  1  0
 43 44  1  0
 44 45  1  6
 45 92  1  0
 46 47  1  0
 46 93  1  1
 47 48  1  0
 47 94  1  6
 48 95  1  0
 49 50  1  0
 49 96  1  1
 50 51  1  0
 51 97  1  0
 51 98  1  0
 51 99  1  0
M  CHG  1  25   1
M  END
>  <i_m_ct_stereo_status>  (141) 
1

>  <s_m_source_file>  (141) 
/var/tmp/pbs.5076253.sched01/tmp9pzrzrnh/1418a54yjb5.sdf

>  <i_m_source_file_index>  (141) 
21

>  <i_lp_mmshare_version>  (141) 
48012

>  <i_f3d_flags>  (141) 
0

>  <s_epik_input>  (141) 
W0NIM11PW0NASF0xQyg9W0NIMl0pW0NASF0oW0NIMl0yKVtDQEhdKFtPSF0pW0NASF0oW0NAQF0xMjMpQzQ1Qyg9W0NIXVtDQEBIXTNbT0hdKVtDSF00W0NAQF02KFtPSF0pTihbQ0gyXTUpW0NIMl1bQ0BdNyhPNilbQ0BASF04W0NAQEhdOVtDQEhdKE83KU9bQ0BAXTEoW0NIMl1PMSlbQ0BdMShjMmMoTzgpYyhbT0hdKVtjSF1bY0hdYzJbQ0gyXTEpW0NIMl1bQ0gyXU45W0NIMl1bQ0gyXVtDSDJdW0NIMl1bQ0gyXVtDSDNd

>  <s_epik_cmdline>  (141) 
J2VwaWtfcHl0aG9uJywgJy1waHQnLCAnMi4wJywgJy1waCcsICc3LjAnLCAnLXRuJywgJzgnLCAnLW1hJywgJzIwMCcsICctaW1hZScsICc8aW5maWxlLm1hZT4nLCAnLW9tYWUnLCAnPG91dGZpbGUubWFlPic=

>  <r_lp_tautomer_probability>  (141) 
1

>  <r_epik_Ionization_Penalty>  (141) 
2.04601

>  <r_epik_Ionization_Penalty_Charging>  (141) 
2.04559

>  <r_epik_Ionization_Penalty_Neutral>  (141) 
0.000416605

>  <r_epik_State_Penalty>  (141) 
2.17767

>  <r_epik_Charging_Adjusted_Penalty>  (141) 
4.22326

>  <i_epik_Tot_Q>  (141) 
1

>  <i_epik_Tot_abs_Q>  (141) 
1

>  <s_epik_Chemistry_Notes>  (141) 
This compound contains an acetal/aminal-like group ( X-CH(R)-Y where X, Y are N, S, or O) that may be acid/base labile, releasing an aldehyde.

>  <s_lp_Force_Field>  (141) 
OPLS3e

>  <r_lp_Energy>  (141) 
167.075

>  <b_lp_Chiralities_Consistent>  (141) 
1

>  <s_lp_Variant>  (141) 
90:0-4

>  <s_i_glide_gridfile>  (141) 
pfpi4k_grid

>  <i_i_glide_lignum>  (141) 
21

>  <i_i_glide_rotatable_bonds>  (141) 
10

>  <r_i_docking_score>  (141) 
0.415249

>  <r_i_glide_ligand_efficiency>  (141) 
0.00814214

>  <r_i_glide_ligand_efficiency_sa>  (141) 
0.0301946

>  <r_i_glide_ligand_efficiency_ln>  (141) 
0.0841979

>  <r_i_glide_gscore>  (141) 
0.415249

>  <r_i_glide_lipo>  (141) 
-0.509301

>  <r_i_glide_hbond>  (141) 
0

>  <r_i_glide_metal>  (141) 
-0

>  <r_i_glide_rewards>  (141) 
-0.0729457

>  <r_i_glide_evdw>  (141) 
-4.05385

>  <r_i_glide_ecoul>  (141) 
-1.97558

>  <r_i_glide_erotb>  (141) 
0.172306

>  <r_i_glide_esite>  (141) 
-0.0165479

>  <r_i_glide_emodel>  (141) 
7.42132

>  <r_i_glide_energy>  (141) 
-6.02943

>  <r_i_glide_einternal>  (141) 
10.4103

>  <r_i_glide_intrahb_reward>  (141) 
-0

>  <i_i_glide_confnum>  (141) 
2

>  <i_i_glide_posenum>  (141) 
9

>  <r_i_glide_eff_state_penalty>  (141) 
0

>  <ligand_id>  (141) 
90

>  <original_smiles>  (141) 
C=C1C2CC3(C(O)C=C4C5C4(CN4CC6(OC7OC8(CO8)C89CCN(CCCCCC)C7C6Oc6c(O)ccc(c68)C9)OC54O)C3C2O)C1OC

>  <smiles>  (141) 
[H]Oc1c([H])c([H])c2c3c1OC1([H])C4(OC5([H])OC6(OC6([H])[H])C3(C2([H])[H])C([H])([H])C([H])([H])[N+]([H])(C([H])([H])C([H])([H])C([H])([H])C([H])([H])C([H])([H])C([H])([H])[H])C51[H])OC1(O[H])N(C4([H])[H])C([H])([H])C23C(=C([H])C([H])(O[H])C45C([H])(OC([H])([H])[H])C(=C([H])[H])C([H])(C4([H])[H])C([H])(O[H])C25[H])C13[H]

$$$$
92:0:0
     RDKit          3D

 63 71  0  0  1  0  0  0  0  0999 V2000
   -0.0954   -4.5129    6.5252 C   0  0  0  0  0  0  0  0  0  0  0  0
   -0.5149   -3.1599    6.5704 O   0  0  0  0  0  0  0  0  0  0  0  0
   -0.3450   -2.5041    5.3571 C   0  0  2  0  0  0  0  0  0  0  0  0
    0.9762   -2.2804    5.0057 O   0  0  0  0  0  0  0  0  0  0  0  0
    1.0867   -0.9480    4.5673 C   0  0  1  0  0  0  0  0  0  0  0  0
   -0.1936   -0.4750    4.4247 O   0  0  0  0  0  0  0  0  0  0  0  0
   -0.8610   -1.0782    5.4655 C   0  0  1  0  0  0  0  0  0  0  0  0
   -2.3594   -0.8978    5.2861 C   0  0  0  0  0  0  0  0  0  0  0  0
   -0.5132   -0.5427    6.7148 O   0  0  0  0  0  0  0  0  0  0  0  0
    0.8937   -0.4719    6.9955 C   0  0  0  0  0  0  0  0  0  0  0  0
    1.7060   -0.0895    5.7293 C   0  0  1  0  0  0  0  0  0  0  0  0
    3.1637   -0.4397    5.8663 C   0  0  0  0  0  0  0  0  0  0  0  0
    3.9307    0.6141    5.5859 C   0  0  0  0  0  0  0  0  0  0  0  0
    5.0231    0.5473    4.7653 O   0  0  0  0  0  0  0  0  0  0  0  0
    5.0909   -0.7689    4.0012 O   0  0  0  0  0  0  0  0  0  0  0  0
    4.0369   -0.8952    3.0223 C   0  0  1  0  0  0  0  0  0  0  0  0
    2.9942   -1.7857    3.3318 O   0  0  0  0  0  0  0  0  0  0  0  0
    1.8162   -1.0737    3.1716 C   0  0  2  0  0  0  0  0  0  0  0  0
    2.0503    0.1392    2.5372 O   0  0  0  0  0  0  0  0  0  0  0  0
    3.4449    0.3128    2.3598 C   0  0  2  0  0  0  0  0  0  0  0  0
    4.2218   -0.7090    1.5280 C   0  0  1  0  0  0  0  0  0  0  0  0
    5.5044   -0.2580    1.1218 O   0  0  0  0  0  0  0  0  0  0  0  0
    6.3901   -1.3420    0.8692 C   0  0  0  0  0  0  0  0  0  0  0  0
    3.1769    1.9046    5.4963 C   0  0  1  0  0  0  0  0  0  0  0  0
    3.1642    2.5546    6.8920 C   0  0  0  0  0  0  0  0  0  0  0  0
    1.8298    3.0079    7.0864 O   0  0  0  0  0  0  0  0  0  0  0  0
    0.9530    2.5317    6.1006 C   0  0  1  0  0  0  0  0  0  0  0  0
   -0.1779    2.0118    6.6920 O   0  0  0  0  0  0  0  0  0  0  0  0
   -0.9147    2.9370    7.4807 C   0  0  0  0  0  0  0  0  0  0  0  0
    0.5308    3.5289    5.2018 O   0  0  0  0  0  0  0  0  0  0  0  0
    1.3733    4.5399    4.6191 C   0  0  1  0  0  0  0  0  0  0  0  0
    2.6441    4.7469    5.2818 O   0  0  0  0  0  0  0  0  0  0  0  0
    3.3139    4.0715    4.1938 C   0  0  1  0  0  0  0  0  0  0  0  0
    3.7562    2.7274    4.4761 O   0  0  0  0  0  0  0  0  0  0  0  0
    2.0847    4.1951    3.3174 C   0  0  1  0  0  0  0  0  0  0  0  0
    1.6582    3.1378    2.4880 O   0  0  0  0  0  0  0  0  0  0  0  0
    1.7195    1.4440    5.2916 C   0  0  2  0  0  0  0  0  0  0  0  0
   -0.2267   -4.9787    7.5034 H   0  0  0  0  0  0  0  0  0  0  0  0
    0.9594   -4.5921    6.2596 H   0  0  0  0  0  0  0  0  0  0  0  0
   -0.6752   -5.0936    5.8057 H   0  0  0  0  0  0  0  0  0  0  0  0
   -0.8272   -3.0350    4.5407 H   0  0  0  0  0  0  0  0  0  0  0  0
   -2.5753    0.1650    5.3723 H   0  0  0  0  0  0  0  0  0  0  0  0
   -2.8839   -1.4685    6.0528 H   0  0  0  0  0  0  0  0  0  0  0  0
   -2.6806   -1.2101    4.3034 H   0  0  0  0  0  0  0  0  0  0  0  0
    1.0676    0.2195    7.8224 H   0  0  0  0  0  0  0  0  0  0  0  0
    1.2125   -1.4481    7.3721 H   0  0  0  0  0  0  0  0  0  0  0  0
    3.4685   -1.4662    5.7032 H   0  0  0  0  0  0  0  0  0  0  0  0
    1.2232   -1.6547    2.4661 H   0  0  0  0  0  0  0  0  0  0  0  0
    3.8209    1.3067    2.5171 H   0  0  0  0  0  0  0  0  0  0  0  0
    3.6714   -1.2977    0.7962 H   0  0  0  0  0  0  0  0  0  0  0  0
    7.3458   -0.9845    0.4844 H   0  0  0  0  0  0  0  0  0  0  0  0
    5.9814   -2.0405    0.1387 H   0  0  0  0  0  0  0  0  0  0  0  0
    6.5909   -1.8827    1.7910 H   0  0  0  0  0  0  0  0  0  0  0  0
    3.3940    1.8539    7.6739 H   0  0  0  0  0  0  0  0  0  0  0  0
    3.8864    3.3601    6.9711 H   0  0  0  0  0  0  0  0  0  0  0  0
   -1.8302    2.4577    7.8332 H   0  0  0  0  0  0  0  0  0  0  0  0
   -1.2122    3.8161    6.9076 H   0  0  0  0  0  0  0  0  0  0  0  0
   -0.3576    3.2712    8.3583 H   0  0  0  0  0  0  0  0  0  0  0  0
    0.8254    5.4685    4.4833 H   0  0  0  0  0  0  0  0  0  0  0  0
    4.1064    4.6934    3.7897 H   0  0  0  0  0  0  0  0  0  0  0  0
    2.1838    5.0860    2.7017 H   0  0  0  0  0  0  0  0  0  0  0  0
    1.0551    3.5312    1.8525 H   0  0  0  0  0  0  0  0  0  0  0  0
    1.3989    1.5227    4.2640 H   0  0  0  0  0  0  0  0  0  0  0  0
  1  2  1  0
  1 38  1  0
  1 39  1  0
  1 40  1  0
  2  3  1  0
  3  7  1  0
  3  4  1  0
  3 41  1  6
  5  4  1  1
  5 11  1  0
  5 18  1  0
  5  6  1  0
  6  7  1  0
  7  8  1  6
  7  9  1  0
  8 42  1  0
  8 43  1  0
  8 44  1  0
  9 10  1  0
 11 10  1  1
 10 45  1  0
 10 46  1  0
 11 37  1  0
 11 12  1  0
 12 13  2  0
 12 47  1  0
 13 14  1  0
 13 24  1  0
 14 15  1  0
 16 15  1  1
 16 20  1  0
 16 21  1  0
 16 17  1  0
 17 18  1  0
 18 19  1  0
 18 48  1  6
 19 20  1  0
 20 21  1  0
 20 49  1  1
 21 22  1  0
 21 50  1  6
 22 23  1  0
 23 51  1  0
 23 52  1  0
 23 53  1  0
 24 34  1  0
 24 37  1  0
 24 25  1  1
 25 26  1  0
 25 54  1  0
 25 55  1  0
 26 27  1  0
 27 28  1  1
 27 30  1  0
 27 37  1  0
 28 29  1  0
 29 56  1  0
 29 57  1  0
 29 58  1  0
 30 31  1  0
 31 35  1  0
 31 32  1  0
 31 59  1  6
 32 33  1  0
 33 34  1  0
 33 35  1  0
 33 60  1  6
 35 36  1  0
 35 61  1  6
 36 62  1  0
 37 63  1  6
M  END
>  <i_m_ct_stereo_status>  (142) 
1

>  <s_m_source_file>  (142) 
/var/tmp/pbs.5076253.sched01/tmp9pzrzrnh/1418a54yjb5.sdf

>  <i_m_source_file_index>  (142) 
23

>  <i_lp_mmshare_version>  (142) 
48012

>  <i_f3d_flags>  (142) 
0

>  <s_epik_input>  (142) 
W0NIM11PW0NASF0oTzEpW0NAQF0oTzIpKFtDSDNdKU9bQ0gyXVtDQEBdMyhbQ0BAXTEyNClbQ0BASF01W0NAXTYoQyg9W0NIXTMpT09bQ0BdNzhbQ0BIXShPW0NASF00TzcpW0NASF04T1tDSDNdKVtDSDJdT1tDQEBdNShPW0NIM10pT1tDQEhdOU9bQ0BASF0oTzYpW0NASF05W09IXQ==

>  <s_epik_cmdline>  (142) 
J2VwaWtfcHl0aG9uJywgJy1waHQnLCAnMi4wJywgJy1waCcsICc3LjAnLCAnLXRuJywgJzgnLCAnLW1hJywgJzIwMCcsICctaW1hZScsICc8aW5maWxlLm1hZT4nLCAnLW9tYWUnLCAnPG91dGZpbGUubWFlPic=

>  <r_epik_Ionization_Penalty>  (142) 
0.000508141

>  <r_epik_Ionization_Penalty_Charging>  (142) 
0

>  <r_epik_Ionization_Penalty_Neutral>  (142) 
0.000508141

>  <r_epik_State_Penalty>  (142) 
0.000316485

>  <r_epik_Charging_Adjusted_Penalty>  (142) 
0.000316485

>  <i_epik_Tot_Q>  (142) 
0

>  <i_epik_Tot_abs_Q>  (142) 
0

>  <s_epik_Chemistry_Notes>  (142) 
This compound contains an acetal/aminal-like group ( X-CH(R)-Y where X, Y are N, S, or O) that may be acid/base labile, releasing an aldehyde.

>  <s_lp_Force_Field>  (142) 
OPLS3e

>  <r_lp_Energy>  (142) 
68.8969

>  <b_lp_Chiralities_Consistent>  (142) 
1

>  <s_lp_Variant>  (142) 
92:0-1

>  <s_i_glide_gridfile>  (142) 
pfpi4k_grid

>  <i_i_glide_lignum>  (142) 
23

>  <i_i_glide_rotatable_bonds>  (142) 
4

>  <r_i_docking_score>  (142) 
-2.52434

>  <r_i_glide_ligand_efficiency>  (142) 
-0.0682255

>  <r_i_glide_ligand_efficiency_sa>  (142) 
-0.227342

>  <r_i_glide_ligand_efficiency_ln>  (142) 
-0.547471

>  <r_i_glide_gscore>  (142) 
-2.52434

>  <r_i_glide_lipo>  (142) 
-0.192401

>  <r_i_glide_hbond>  (142) 
-0.164497

>  <r_i_glide_metal>  (142) 
-0

>  <r_i_glide_rewards>  (142) 
-0.0235119

>  <r_i_glide_evdw>  (142) 
-19.1356

>  <r_i_glide_ecoul>  (142) 
-7.30899

>  <r_i_glide_erotb>  (142) 
0

>  <r_i_glide_esite>  (142) 
-0.0908057

>  <r_i_glide_emodel>  (142) 
-29.9473

>  <r_i_glide_energy>  (142) 
-26.4446

>  <r_i_glide_einternal>  (142) 
1.29081

>  <r_i_glide_intrahb_reward>  (142) 
-0

>  <i_i_glide_confnum>  (142) 
1

>  <i_i_glide_posenum>  (142) 
15

>  <r_i_glide_eff_state_penalty>  (142) 
0

>  <ligand_id>  (142) 
92

>  <original_smiles>  (142) 
COC1OC23OC1(C)OCC21C=C(OOC24OC3OC2C4OC)C23COC(OC)(OC4OC(O2)C4O)C31

>  <smiles>  (142) 
[H]OC1([H])C2([H])OC1([H])OC13C4=C([H])C5(C([H])([H])OC6(C([H])([H])[H])OC5(OC6([H])OC([H])([H])[H])C5([H])OC6([H])C([H])(OC([H])([H])[H])C6(OO4)O5)C1([H])C(OC([H])([H])[H])(OC3([H])[H])O2

$$$$
92:0:1
     RDKit          3D

 63 71  0  0  1  0  0  0  0  0999 V2000
   -3.9448    3.5955    2.5022 C   0  0  0  0  0  0  0  0  0  0  0  0
   -2.9024    4.1600    3.2799 O   0  0  0  0  0  0  0  0  0  0  0  0
   -1.6533    3.5809    3.1003 C   0  0  2  0  0  0  0  0  0  0  0  0
   -1.5717    2.2525    3.4771 O   0  0  0  0  0  0  0  0  0  0  0  0
   -0.3611    2.0933    4.1719 C   0  0  1  0  0  0  0  0  0  0  0  0
    0.3632    3.2554    3.9870 O   0  0  0  0  0  0  0  0  0  0  0  0
   -0.6038    4.2445    3.9777 C   0  0  1  0  0  0  0  0  0  0  0  0
    0.0099    5.5634    3.4612 C   0  0  0  0  0  0  0  0  0  0  0  0
   -1.1452    4.4573    5.2577 O   0  0  0  0  0  0  0  0  0  0  0  0
   -1.6263    3.2874    5.9430 C   0  0  0  0  0  0  0  0  0  0  0  0
   -0.6930    2.0679    5.7031 C   0  0  1  0  0  0  0  0  0  0  0  0
   -1.3668    0.7594    6.0038 C   0  0  0  0  0  0  0  0  0  0  0  0
   -0.5949    0.0375    6.8088 C   0  0  0  0  0  0  0  0  0  0  0  0
   -0.3588   -1.3092    6.6413 O   0  0  0  0  0  0  0  0  0  0  0  0
   -0.7918   -1.7934    5.2689 O   0  0  0  0  0  0  0  0  0  0  0  0
    0.0248   -1.2363    4.2214 C   0  0  1  0  0  0  0  0  0  0  0  0
   -0.5507   -0.2029    3.4659 O   0  0  0  0  0  0  0  0  0  0  0  0
    0.3270    0.8656    3.4646 C   0  0  2  0  0  0  0  0  0  0  0  0
    1.5485    0.4811    4.0409 O   0  0  0  0  0  0  0  0  0  0  0  0
    1.4500   -0.8611    4.4933 C   0  0  2  0  0  0  0  0  0  0  0  0
    1.1476   -1.9587    3.4889 C   0  0  1  0  0  0  0  0  0  0  0  0
    1.4628   -3.2621    3.9577 O   0  0  0  0  0  0  0  0  0  0  0  0
    2.7598   -3.6965    3.5628 C   0  0  0  0  0  0  0  0  0  0  0  0
    0.5235    0.7912    7.4491 C   0  0  1  0  0  0  0  0  0  0  0  0
    0.0611    1.4057    8.7774 C   0  0  0  0  0  0  0  0  0  0  0  0
    0.5596    2.7368    8.7715 O   0  0  0  0  0  0  0  0  0  0  0  0
    1.0799    3.0967    7.5242 C   0  0  1  0  0  0  0  0  0  0  0  0
    0.5823    4.3311    7.1476 O   0  0  0  0  0  0  0  0  0  0  0  0
    0.8656    5.3967    8.0474 C   0  0  0  0  0  0  0  0  0  0  0  0
    2.4838    3.1973    7.5006 O   0  0  0  0  0  0  0  0  0  0  0  0
    3.3780    2.2947    8.1527 C   0  0  1  0  0  0  0  0  0  0  0  0
    2.7875    1.4004    9.1358 O   0  0  0  0  0  0  0  0  0  0  0  0
    2.8882    0.3022    8.1938 C   0  0  1  0  0  0  0  0  0  0  0  0
    1.6635   -0.0715    7.5594 O   0  0  0  0  0  0  0  0  0  0  0  0
    3.8601    1.0993    7.3435 C   0  0  1  0  0  0  0  0  0  0  0  0
    3.7876    1.0913    5.9310 O   0  0  0  0  0  0  0  0  0  0  0  0
    0.6654    1.9981    6.5213 C   0  0  2  0  0  0  0  0  0  0  0  0
   -4.8969    4.0806    2.7380 H   0  0  0  0  0  0  0  0  0  0  0  0
   -4.0621    2.5517    2.7169 H   0  0  0  0  0  0  0  0  0  0  0  0
   -3.7947    3.7166    1.4262 H   0  0  0  0  0  0  0  0  0  0  0  0
   -1.3782    3.6545    2.0756 H   0  0  0  0  0  0  0  0  0  0  0  0
    0.7562    5.9202    4.1721 H   0  0  0  0  0  0  0  0  0  0  0  0
   -0.7648    6.3216    3.3636 H   0  0  0  0  0  0  0  0  0  0  0  0
    0.4855    5.4526    2.4861 H   0  0  0  0  0  0  0  0  0  0  0  0
   -1.7326    3.5085    7.0007 H   0  0  0  0  0  0  0  0  0  0  0  0
   -2.6368    3.0725    5.5948 H   0  0  0  0  0  0  0  0  0  0  0  0
   -2.0633    0.3491    5.2920 H   0  0  0  0  0  0  0  0  0  0  0  0
    0.5108    1.0710    2.4059 H   0  0  0  0  0  0  0  0  0  0  0  0
    1.9672   -1.1354    5.4062 H   0  0  0  0  0  0  0  0  0  0  0  0
    1.2897   -1.7963    2.4218 H   0  0  0  0  0  0  0  0  0  0  0  0
    2.9378   -4.7288    3.8770 H   0  0  0  0  0  0  0  0  0  0  0  0
    3.5359   -3.0768    4.0122 H   0  0  0  0  0  0  0  0  0  0  0  0
    2.8840   -3.6644    2.4797 H   0  0  0  0  0  0  0  0  0  0  0  0
   -1.0290    1.4576    8.8528 H   0  0  0  0  0  0  0  0  0  0  0  0
    0.4011    0.8360    9.6450 H   0  0  0  0  0  0  0  0  0  0  0  0
    0.5033    6.3338    7.6196 H   0  0  0  0  0  0  0  0  0  0  0  0
    1.9386    5.5074    8.2202 H   0  0  0  0  0  0  0  0  0  0  0  0
    0.3739    5.2629    9.0150 H   0  0  0  0  0  0  0  0  0  0  0  0
    4.2434    2.8263    8.5482 H   0  0  0  0  0  0  0  0  0  0  0  0
    3.3998   -0.5608    8.6343 H   0  0  0  0  0  0  0  0  0  0  0  0
    4.8764    0.8406    7.6336 H   0  0  0  0  0  0  0  0  0  0  0  0
    2.9052    1.3257    5.6850 H   0  0  0  0  0  0  0  0  0  0  0  0
    1.4829    1.8987    5.8232 H   0  0  0  0  0  0  0  0  0  0  0  0
  1  2  1  0
  1 38  1  0
  1 39  1  0
  1 40  1  0
  2  3  1  0
  3  7  1  0
  3  4  1  0
  3 41  1  6
  5  4  1  6
  5 11  1  0
  5 18  1  0
  5  6  1  0
  6  7  1  0
  7  8  1  6
  7  9  1  0
  8 42  1  0
  8 43  1  0
  8 44  1  0
  9 10  1  0
 11 10  1  1
 10 45  1  0
 10 46  1  0
 11 37  1  0
 11 12  1  0
 12 13  2  0
 12 47  1  0
 13 14  1  0
 13 24  1  0
 14 15  1  0
 16 15  1  1
 16 20  1  0
 16 21  1  0
 16 17  1  0
 17 18  1  0
 18 19  1  0
 18 48  1  6
 19 20  1  0
 20 21  1  0
 20 49  1  1
 21 22  1  0
 21 50  1  6
 22 23  1  0
 23 51  1  0
 23 52  1  0
 23 53  1  0
 24 34  1  0
 24 37  1  0
 24 25  1  1
 25 26  1  0
 25 54  1  0
 25 55  1  0
 26 27  1  0
 27 28  1  6
 27 30  1  0
 27 37  1  0
 28 29  1  0
 29 56  1  0
 29 57  1  0
 29 58  1  0
 30 31  1  0
 31 35  1  0
 31 32  1  0
 31 59  1  1
 32 33  1  0
 33 34  1  0
 33 35  1  0
 33 60  1  1
 35 36  1  0
 35 61  1  6
 36 62  1  0
 37 63  1  6
M  END
>  <i_m_ct_stereo_status>  (143) 
1

>  <s_m_source_file>  (143) 
/var/tmp/pbs.5076253.sched01/tmp9pzrzrnh/1418a54yjb5.sdf

>  <i_m_source_file_index>  (143) 
23

>  <i_lp_mmshare_version>  (143) 
48012

>  <i_f3d_flags>  (143) 
0

>  <s_epik_input>  (143) 
W0NIM11PW0NASF0oTzEpW0NAQF0oTzIpKFtDSDNdKU9bQ0gyXVtDQEBdMyhbQ0BAXTEyNClbQ0BASF01W0NAXTYoQyg9W0NIXTMpT09bQ0BdNzhbQ0BIXShPW0NASF00TzcpW0NASF04T1tDSDNdKVtDSDJdT1tDQEBdNShPW0NIM10pT1tDQEhdOU9bQ0BASF0oTzYpW0NASF05W09IXQ==

>  <s_epik_cmdline>  (143) 
J2VwaWtfcHl0aG9uJywgJy1waHQnLCAnMi4wJywgJy1waCcsICc3LjAnLCAnLXRuJywgJzgnLCAnLW1hJywgJzIwMCcsICctaW1hZScsICc8aW5maWxlLm1hZT4nLCAnLW9tYWUnLCAnPG91dGZpbGUubWFlPic=

>  <r_epik_Ionization_Penalty>  (143) 
0.000508141

>  <r_epik_Ionization_Penalty_Charging>  (143) 
0

>  <r_epik_Ionization_Penalty_Neutral>  (143) 
0.000508141

>  <r_epik_State_Penalty>  (143) 
0.000316485

>  <r_epik_Charging_Adjusted_Penalty>  (143) 
0.000316485

>  <i_epik_Tot_Q>  (143) 
0

>  <i_epik_Tot_abs_Q>  (143) 
0

>  <s_epik_Chemistry_Notes>  (143) 
This compound contains an acetal/aminal-like group ( X-CH(R)-Y where X, Y are N, S, or O) that may be acid/base labile, releasing an aldehyde.

>  <s_lp_Force_Field>  (143) 
OPLS3e

>  <r_lp_Energy>  (143) 
68.8969

>  <b_lp_Chiralities_Consistent>  (143) 
1

>  <s_lp_Variant>  (143) 
92:0-1

>  <s_i_glide_gridfile>  (143) 
pfpi4k_grid

>  <i_i_glide_lignum>  (143) 
23

>  <i_i_glide_rotatable_bonds>  (143) 
4

>  <r_i_docking_score>  (143) 
-2.46909

>  <r_i_glide_ligand_efficiency>  (143) 
-0.0667321

>  <r_i_glide_ligand_efficiency_sa>  (143) 
-0.222366

>  <r_i_glide_ligand_efficiency_ln>  (143) 
-0.535487

>  <r_i_glide_gscore>  (143) 
-2.46909

>  <r_i_glide_lipo>  (143) 
-0.327185

>  <r_i_glide_hbond>  (143) 
-0.0558214

>  <r_i_glide_metal>  (143) 
-0

>  <r_i_glide_rewards>  (143) 
-0.5

>  <r_i_glide_evdw>  (143) 
-17.6686

>  <r_i_glide_ecoul>  (143) 
-3.11565

>  <r_i_glide_erotb>  (143) 
0

>  <r_i_glide_esite>  (143) 
-0.235305

>  <r_i_glide_emodel>  (143) 
-29.5367

>  <r_i_glide_energy>  (143) 
-20.7842

>  <r_i_glide_einternal>  (143) 
0.0519775

>  <r_i_glide_intrahb_reward>  (143) 
-0.5

>  <i_i_glide_confnum>  (143) 
2

>  <i_i_glide_posenum>  (143) 
10

>  <r_i_glide_eff_state_penalty>  (143) 
0

>  <ligand_id>  (143) 
92

>  <original_smiles>  (143) 
COC1OC23OC1(C)OCC21C=C(OOC24OC3OC2C4OC)C23COC(OC)(OC4OC(O2)C4O)C31

>  <smiles>  (143) 
[H]OC1([H])C2([H])OC1([H])OC13C4=C([H])C5(C([H])([H])OC6(C([H])([H])[H])OC5(OC6([H])OC([H])([H])[H])C5([H])OC6([H])C([H])(OC([H])([H])[H])C6(OO4)O5)C1([H])C(OC([H])([H])[H])(OC3([H])[H])O2

$$$$
92:0:2
     RDKit          3D

 63 71  0  0  1  0  0  0  0  0999 V2000
    5.3256   -1.9547   -1.7974 C   0  0  0  0  0  0  0  0  0  0  0  0
    5.0534   -1.3415   -0.5435 O   0  0  0  0  0  0  0  0  0  0  0  0
    3.7058   -1.3076   -0.1515 C   0  0  2  0  0  0  0  0  0  0  0  0
    3.4507   -0.3148    0.7848 O   0  0  0  0  0  0  0  0  0  0  0  0
    2.6444   -0.8582    1.8031 C   0  0  1  0  0  0  0  0  0  0  0  0
    2.2263   -2.0958    1.3454 O   0  0  0  0  0  0  0  0  0  0  0  0
    3.3189   -2.5644    0.6322 C   0  0  1  0  0  0  0  0  0  0  0  0
    2.8848   -3.8055   -0.1774 C   0  0  0  0  0  0  0  0  0  0  0  0
    4.3751   -2.9288    1.4929 O   0  0  0  0  0  0  0  0  0  0  0  0
    4.7780   -1.9425    2.4655 C   0  0  0  0  0  0  0  0  0  0  0  0
    3.5497   -1.1851    3.0467 C   0  0  1  0  0  0  0  0  0  0  0  0
    3.9287    0.1123    3.7063 C   0  0  0  0  0  0  0  0  0  0  0  0
    3.3917    0.1919    4.9394 C   0  0  0  0  0  0  0  0  0  0  0  0
    2.7594    1.2871    5.4285 O   0  0  0  0  0  0  0  0  0  0  0  0
    2.4473    2.3207    4.3555 O   0  0  0  0  0  0  0  0  0  0  0  0
    1.4480    1.8445    3.4285 C   0  0  1  0  0  0  0  0  0  0  0  0
    1.9197    1.4288    2.1713 O   0  0  0  0  0  0  0  0  0  0  0  0
    1.4334    0.1477    1.9372 C   0  0  2  0  0  0  0  0  0  0  0  0
    0.5046   -0.1998    2.9300 O   0  0  0  0  0  0  0  0  0  0  0  0
    0.4194    0.8533    3.8802 C   0  0  2  0  0  0  0  0  0  0  0  0
   -0.0197    2.2360    3.4344 C   0  0  1  0  0  0  0  0  0  0  0  0
   -0.4560    3.0650    4.5046 O   0  0  0  0  0  0  0  0  0  0  0  0
   -1.8640    3.0312    4.7023 C   0  0  0  0  0  0  0  0  0  0  0  0
    2.8842   -1.1271    5.4430 C   0  0  1  0  0  0  0  0  0  0  0  0
    3.9768   -1.8901    6.1922 C   0  0  0  0  0  0  0  0  0  0  0  0
    3.8784   -3.2378    5.7377 O   0  0  0  0  0  0  0  0  0  0  0  0
    3.0113   -3.3603    4.6465 C   0  0  1  0  0  0  0  0  0  0  0  0
    3.6066   -4.1043    3.6425 O   0  0  0  0  0  0  0  0  0  0  0  0
    4.0038   -5.4144    4.0173 C   0  0  0  0  0  0  0  0  0  0  0  0
    1.7932   -4.0008    4.9479 O   0  0  0  0  0  0  0  0  0  0  0  0
    1.0511   -3.7992    6.1512 C   0  0  1  0  0  0  0  0  0  0  0  0
    1.7396   -3.1092    7.2244 O   0  0  0  0  0  0  0  0  0  0  0  0
    0.9875   -1.9038    6.9326 C   0  0  1  0  0  0  0  0  0  0  0  0
    1.6846   -0.8872    6.2205 O   0  0  0  0  0  0  0  0  0  0  0  0
   -0.0192   -2.7104    6.1174 C   0  0  1  0  0  0  0  0  0  0  0  0
   -0.5365   -2.2237    4.9045 O   0  0  0  0  0  0  0  0  0  0  0  0
    2.6874   -1.9303    4.1546 C   0  0  2  0  0  0  0  0  0  0  0  0
    6.3964   -1.8946   -2.0121 H   0  0  0  0  0  0  0  0  0  0  0  0
    4.7951   -1.4535   -2.6093 H   0  0  0  0  0  0  0  0  0  0  0  0
    5.0700   -3.0100   -1.8160 H   0  0  0  0  0  0  0  0  0  0  0  0
    3.0376   -1.1175   -0.9959 H   0  0  0  0  0  0  0  0  0  0  0  0
    2.5181   -4.5793    0.4963 H   0  0  0  0  0  0  0  0  0  0  0  0
    3.7203   -4.2274   -0.7336 H   0  0  0  0  0  0  0  0  0  0  0  0
    2.0928   -3.5405   -0.8793 H   0  0  0  0  0  0  0  0  0  0  0  0
    5.3642   -2.4117    3.2534 H   0  0  0  0  0  0  0  0  0  0  0  0
    5.4625   -1.2356    1.9956 H   0  0  0  0  0  0  0  0  0  0  0  0
    4.1391    0.9673    3.0892 H   0  0  0  0  0  0  0  0  0  0  0  0
    0.8842    0.2462    1.0025 H   0  0  0  0  0  0  0  0  0  0  0  0
    0.2699    0.5822    4.9225 H   0  0  0  0  0  0  0  0  0  0  0  0
   -0.5417    2.3805    2.4859 H   0  0  0  0  0  0  0  0  0  0  0  0
   -2.1575    3.7459    5.4748 H   0  0  0  0  0  0  0  0  0  0  0  0
   -2.1890    2.0417    5.0255 H   0  0  0  0  0  0  0  0  0  0  0  0
   -2.4074    3.2954    3.7931 H   0  0  0  0  0  0  0  0  0  0  0  0
    4.9738   -1.5261    5.9364 H   0  0  0  0  0  0  0  0  0  0  0  0
    3.8786   -1.8130    7.2753 H   0  0  0  0  0  0  0  0  0  0  0  0
    4.3918   -5.9370    3.1403 H   0  0  0  0  0  0  0  0  0  0  0  0
    3.1667   -6.0017    4.3995 H   0  0  0  0  0  0  0  0  0  0  0  0
    4.7945   -5.4118    4.7719 H   0  0  0  0  0  0  0  0  0  0  0  0
    0.6051   -4.7378    6.4818 H   0  0  0  0  0  0  0  0  0  0  0  0
    0.5079   -1.4993    7.8285 H   0  0  0  0  0  0  0  0  0  0  0  0
   -0.8503   -2.9987    6.7546 H   0  0  0  0  0  0  0  0  0  0  0  0
    0.2036   -1.9826    4.3490 H   0  0  0  0  0  0  0  0  0  0  0  0
    1.6601   -1.9448    3.8291 H   0  0  0  0  0  0  0  0  0  0  0  0
  1  2  1  0
  1 38  1  0
  1 39  1  0
  1 40  1  0
  2  3  1  0
  3  7  1  0
  3  4  1  0
  3 41  1  6
  5  4  1  6
  5 11  1  0
  5 18  1  0
  5  6  1  0
  6  7  1  0
  7  8  1  6
  7  9  1  0
  8 42  1  0
  8 43  1  0
  8 44  1  0
  9 10  1  0
 11 10  1  6
 10 45  1  0
 10 46  1  0
 11 37  1  0
 11 12  1  0
 12 13  2  0
 12 47  1  0
 13 14  1  0
 13 24  1  0
 14 15  1  0
 16 15  1  1
 16 20  1  0
 16 21  1  0
 16 17  1  0
 17 18  1  0
 18 19  1  0
 18 48  1  6
 19 20  1  0
 20 21  1  0
 20 49  1  1
 21 22  1  0
 21 50  1  6
 22 23  1  0
 23 51  1  0
 23 52  1  0
 23 53  1  0
 24 34  1  0
 24 37  1  0
 24 25  1  1
 25 26  1  0
 25 54  1  0
 25 55  1  0
 26 27  1  0
 27 28  1  6
 27 30  1  0
 27 37  1  0
 28 29  1  0
 29 56  1  0
 29 57  1  0
 29 58  1  0
 30 31  1  0
 31 35  1  0
 31 32  1  0
 31 59  1  1
 32 33  1  0
 33 34  1  0
 33 35  1  0
 33 60  1  1
 35 36  1  0
 35 61  1  1
 36 62  1  0
 37 63  1  6
M  END
>  <i_m_ct_stereo_status>  (144) 
1

>  <s_m_source_file>  (144) 
/var/tmp/pbs.5076253.sched01/tmp9pzrzrnh/1418a54yjb5.sdf

>  <i_m_source_file_index>  (144) 
23

>  <i_lp_mmshare_version>  (144) 
48012

>  <i_f3d_flags>  (144) 
0

>  <s_epik_input>  (144) 
W0NIM11PW0NASF0oTzEpW0NAQF0oTzIpKFtDSDNdKU9bQ0gyXVtDQEBdMyhbQ0BAXTEyNClbQ0BASF01W0NAXTYoQyg9W0NIXTMpT09bQ0BdNzhbQ0BIXShPW0NASF00TzcpW0NASF04T1tDSDNdKVtDSDJdT1tDQEBdNShPW0NIM10pT1tDQEhdOU9bQ0BASF0oTzYpW0NASF05W09IXQ==

>  <s_epik_cmdline>  (144) 
J2VwaWtfcHl0aG9uJywgJy1waHQnLCAnMi4wJywgJy1waCcsICc3LjAnLCAnLXRuJywgJzgnLCAnLW1hJywgJzIwMCcsICctaW1hZScsICc8aW5maWxlLm1hZT4nLCAnLW9tYWUnLCAnPG91dGZpbGUubWFlPic=

>  <r_epik_Ionization_Penalty>  (144) 
0.000508141

>  <r_epik_Ionization_Penalty_Charging>  (144) 
0

>  <r_epik_Ionization_Penalty_Neutral>  (144) 
0.000508141

>  <r_epik_State_Penalty>  (144) 
0.000316485

>  <r_epik_Charging_Adjusted_Penalty>  (144) 
0.000316485

>  <i_epik_Tot_Q>  (144) 
0

>  <i_epik_Tot_abs_Q>  (144) 
0

>  <s_epik_Chemistry_Notes>  (144) 
This compound contains an acetal/aminal-like group ( X-CH(R)-Y where X, Y are N, S, or O) that may be acid/base labile, releasing an aldehyde.

>  <s_lp_Force_Field>  (144) 
OPLS3e

>  <r_lp_Energy>  (144) 
68.8969

>  <b_lp_Chiralities_Consistent>  (144) 
1

>  <s_lp_Variant>  (144) 
92:0-1

>  <s_i_glide_gridfile>  (144) 
pfpi4k_grid

>  <i_i_glide_lignum>  (144) 
23

>  <i_i_glide_rotatable_bonds>  (144) 
4

>  <r_i_docking_score>  (144) 
-2.00458

>  <r_i_glide_ligand_efficiency>  (144) 
-0.0541777

>  <r_i_glide_ligand_efficiency_sa>  (144) 
-0.180532

>  <r_i_glide_ligand_efficiency_ln>  (144) 
-0.434746

>  <r_i_glide_gscore>  (144) 
-2.00458

>  <r_i_glide_lipo>  (144) 
-0.0547557

>  <r_i_glide_hbond>  (144) 
0

>  <r_i_glide_metal>  (144) 
-0

>  <r_i_glide_rewards>  (144) 
-0.5

>  <r_i_glide_evdw>  (144) 
-23.2586

>  <r_i_glide_ecoul>  (144) 
-0.266207

>  <r_i_glide_erotb>  (144) 
0

>  <r_i_glide_esite>  (144) 
-0.246959

>  <r_i_glide_emodel>  (144) 
-30.1419

>  <r_i_glide_energy>  (144) 
-23.5248

>  <r_i_glide_einternal>  (144) 
3.11777

>  <r_i_glide_intrahb_reward>  (144) 
-0.5

>  <i_i_glide_confnum>  (144) 
1

>  <i_i_glide_posenum>  (144) 
23

>  <r_i_glide_eff_state_penalty>  (144) 
0

>  <ligand_id>  (144) 
92

>  <original_smiles>  (144) 
COC1OC23OC1(C)OCC21C=C(OOC24OC3OC2C4OC)C23COC(OC)(OC4OC(O2)C4O)C31

>  <smiles>  (144) 
[H]OC1([H])C2([H])OC1([H])OC13C4=C([H])C5(C([H])([H])OC6(C([H])([H])[H])OC5(OC6([H])OC([H])([H])[H])C5([H])OC6([H])C([H])(OC([H])([H])[H])C6(OO4)O5)C1([H])C(OC([H])([H])[H])(OC3([H])[H])O2

$$$$
93:0:0
     RDKit          3D

 84 96  0  0  1  0  0  0  0  0999 V2000
    6.1184   -0.4188    6.8816 C   0  0  0  0  0  0  0  0  0  0  0  0
    4.8361   -0.2196    6.2993 O   0  0  0  0  0  0  0  0  0  0  0  0
    4.6330    1.0394    5.7416 C   0  0  2  0  0  0  0  0  0  0  0  0
    4.5824    1.9827    6.7749 O   0  0  0  0  0  0  0  0  0  0  0  0
    3.9589    3.2083    6.4393 C   0  0  2  0  0  0  0  0  0  0  0  0
    4.5408    4.3258    7.3024 C   0  0  0  0  0  0  0  0  0  0  0  0
    2.4643    2.9934    6.3714 C   0  0  0  0  0  0  0  0  0  0  0  0
    2.7861    2.5744    4.9368 C   0  0  2  0  0  0  0  0  0  0  0  0
    3.9641    3.4323    5.0149 O   0  0  0  0  0  0  0  0  0  0  0  0
    2.0422    3.1448    3.7188 C   0  0  1  0  0  0  0  0  0  0  0  0
    1.2753    2.1067    3.0147 N   0  0  0  0  0  0  0  0  0  0  0  0
    0.2695    1.3868    3.8208 C   0  0  1  0  0  0  0  0  0  0  0  0
    0.7960    0.1946    4.6103 C   0  0  0  0  0  0  0  0  0  0  0  0
   -0.0502   -0.8445    4.7526 C   0  0  0  0  0  0  0  0  0  0  0  0
    0.4154   -2.1707    5.3008 C   0  0  2  0  0  0  0  0  0  0  0  0
    0.5025   -1.9867    6.8104 C   0  0  0  0  0  0  0  0  0  0  0  0
    1.7975   -1.2487    7.2431 C   0  0  1  0  0  0  0  0  0  0  0  0
    2.9250   -2.1770    7.7506 C   0  0  0  0  0  0  0  0  0  0  0  0
    3.5598   -3.0012    6.7810 O   0  0  0  0  0  0  0  0  0  0  0  0
    2.7593   -4.0307    6.2117 C   0  0  0  0  0  0  0  0  0  0  0  0
    2.2456   -3.7513    4.9019 O   0  0  0  0  0  0  0  0  0  0  0  0
    1.7862   -2.3945    4.8461 N   0  0  0  0  0  0  0  0  0  0  0  0
    2.6533   -1.4097    4.1787 C   0  0  1  0  0  0  0  0  0  0  0  0
    4.1616   -1.8956    4.0300 C   0  0  0  0  0  0  0  0  0  0  0  0
    4.4087   -1.9499    2.5166 C   0  0  1  0  0  0  0  0  0  0  0  0
    3.7191   -3.1790    1.9239 C   0  0  0  0  0  0  0  0  0  0  0  0
    2.2449   -2.7464    1.9639 C   0  0  0  0  0  0  0  0  0  0  0  0
    2.3184   -1.3426    2.6256 C   0  0  2  0  0  0  0  0  0  0  0  0
    3.5819   -0.8335    2.0820 N   0  0  2  0  0  0  0  0  0  0  0  0
    3.6293   -0.4811    0.6314 C   0  0  0  0  0  0  0  0  0  0  0  0
    2.2930   -0.0566    5.0024 C   0  0  2  0  0  0  0  0  0  0  0  0
    2.2734   -0.1388    6.4553 O   0  0  0  0  0  0  0  0  0  0  0  0
    3.3524    1.1300    4.7761 C   0  0  2  0  0  0  0  0  0  0  0  0
   -0.7338    2.3146    4.5270 C   0  0  2  0  0  0  0  0  0  0  0  0
   -1.0974    2.8181    5.8971 C   0  0  1  0  0  0  0  0  0  0  0  0
   -0.3534    3.6742    6.6912 O   0  0  0  0  0  0  0  0  0  0  0  0
   -0.9847    4.3891    5.6078 C   0  0  2  0  0  0  0  0  0  0  0  0
   -2.0943    3.9688    4.8055 O   0  0  0  0  0  0  0  0  0  0  0  0
   -1.1456    3.5376    3.8349 C   0  0  2  0  0  0  0  0  0  0  0  0
   -1.6093    3.4563    2.4786 O   0  0  0  0  0  0  0  0  0  0  0  0
   -0.2450    4.6391    4.2400 C   0  0  2  0  0  0  0  0  0  0  0  0
    1.3032    4.5199    3.9698 C   0  0  2  0  0  0  0  0  0  0  0  0
    1.9329    5.6795    3.2009 C   0  0  0  0  0  0  0  0  0  0  0  0
    2.0966    5.5401    4.6093 O   0  0  0  0  0  0  0  0  0  0  0  0
    6.1520   -1.4276    7.2925 H   0  0  0  0  0  0  0  0  0  0  0  0
    6.3395    0.2791    7.6939 H   0  0  0  0  0  0  0  0  0  0  0  0
    6.9030   -0.3454    6.1273 H   0  0  0  0  0  0  0  0  0  0  0  0
    5.5159    1.2637    5.1362 H   0  0  0  0  0  0  0  0  0  0  0  0
    5.6265    4.4086    7.2319 H   0  0  0  0  0  0  0  0  0  0  0  0
    4.3220    4.1233    8.3486 H   0  0  0  0  0  0  0  0  0  0  0  0
    4.1051    5.2983    7.0771 H   0  0  0  0  0  0  0  0  0  0  0  0
    2.0940    2.2001    7.0213 H   0  0  0  0  0  0  0  0  0  0  0  0
    1.9509    3.9476    6.4714 H   0  0  0  0  0  0  0  0  0  0  0  0
    2.8247    3.4030    3.0068 H   0  0  0  0  0  0  0  0  0  0  0  0
    0.8084    2.5557    2.2342 H   0  0  0  0  0  0  0  0  0  0  0  0
   -0.3844    0.9030    3.0914 H   0  0  0  0  0  0  0  0  0  0  0  0
   -1.0784   -0.7999    4.4198 H   0  0  0  0  0  0  0  0  0  0  0  0
   -0.2682   -2.9786    5.0122 H   0  0  0  0  0  0  0  0  0  0  0  0
   -0.3597   -1.4061    7.1354 H   0  0  0  0  0  0  0  0  0  0  0  0
    0.4153   -2.9422    7.3307 H   0  0  0  0  0  0  0  0  0  0  0  0
    1.4998   -0.7313    8.1470 H   0  0  0  0  0  0  0  0  0  0  0  0
    3.6952   -1.5601    8.2086 H   0  0  0  0  0  0  0  0  0  0  0  0
    2.5443   -2.8122    8.5515 H   0  0  0  0  0  0  0  0  0  0  0  0
    3.4088   -4.9024    6.1491 H   0  0  0  0  0  0  0  0  0  0  0  0
    1.9691   -4.3485    6.8870 H   0  0  0  0  0  0  0  0  0  0  0  0
    4.9018   -1.1740    4.3147 H   0  0  0  0  0  0  0  0  0  0  0  0
    4.4323   -2.8316    4.5163 H   0  0  0  0  0  0  0  0  0  0  0  0
    5.4596   -1.8366    2.2557 H   0  0  0  0  0  0  0  0  0  0  0  0
    4.0573   -3.3700    0.9031 H   0  0  0  0  0  0  0  0  0  0  0  0
    3.9101   -4.0684    2.5158 H   0  0  0  0  0  0  0  0  0  0  0  0
    1.8542   -2.6465    0.9549 H   0  0  0  0  0  0  0  0  0  0  0  0
    1.6010   -3.4763    2.4495 H   0  0  0  0  0  0  0  0  0  0  0  0
    1.4731   -0.7281    2.3147 H   0  0  0  0  0  0  0  0  0  0  0  0
    3.4401   -1.2915   -0.0809 H   0  0  0  0  0  0  0  0  0  0  0  0
    4.5961   -0.0562    0.3535 H   0  0  0  0  0  0  0  0  0  0  0  0
    2.8656    0.2743    0.4845 H   0  0  0  0  0  0  0  0  0  0  0  0
    3.7661    1.0715    3.7692 H   0  0  0  0  0  0  0  0  0  0  0  0
    0.1932    2.5087    5.0232 H   0  0  0  0  0  0  0  0  0  0  0  0
   -1.9910    2.3723    6.3439 H   0  0  0  0  0  0  0  0  0  0  0  0
   -0.9253    3.7642    1.9084 H   0  0  0  0  0  0  0  0  0  0  0  0
   -0.6189    5.5427    3.7748 H   0  0  0  0  0  0  0  0  0  0  0  0
    2.8537    5.5478    2.6330 H   0  0  0  0  0  0  0  0  0  0  0  0
    1.3070    6.5209    2.9030 H   0  0  0  0  0  0  0  0  0  0  0  0
    3.8146   -0.0270    2.6454 H   0  0  0  0  0  0  0  0  0  0  0  0
  1  2  1  0
  1 45  1  0
  1 46  1  0
  1 47  1  0
  2  3  1  0
  3 33  1  0
  3  4  1  0
  3 48  1  6
  4  5  1  0
  5  9  1  0
  5  6  1  1
  5  7  1  0
  6 49  1  0
  6 50  1  0
  6 51  1  0
  7  8  1  0
  7 52  1  0
  7 53  1  0
  8 33  1  0
  8  9  1  6
  8 10  1  0
 10 42  1  0
 10 11  1  0
 10 54  1  6
 11 12  1  0
 11 55  1  0
 12 13  1  0
 12 34  1  0
 12 56  1  6
 13 31  1  0
 13 14  2  0
 14 15  1  0
 14 57  1  0
 15 22  1  0
 15 16  1  0
 15 58  1  1
 16 17  1  0
 16 59  1  0
 16 60  1  0
 17 32  1  0
 17 18  1  0
 17 61  1  1
 18 19  1  0
 18 62  1  0
 18 63  1  0
 19 20  1  0
 20 21  1  0
 20 64  1  0
 20 65  1  0
 21 22  1  0
 22 23  1  0
 23 28  1  0
 23 24  1  6
 23 31  1  0
 24 25  1  0
 24 66  1  0
 24 67  1  0
 25 29  1  0
 25 26  1  0
 25 68  1  1
 26 27  1  0
 26 69  1  0
 26 70  1  0
 27 28  1  0
 27 71  1  0
 27 72  1  0
 28 29  1  0
 28 73  1  1
 29 30  1  0
 29 84  1  1
 30 74  1  0
 30 75  1  0
 30 76  1  0
 31 32  1  1
 31 33  1  0
 33 77  1  6
 34 39  1  0
 34 35  1  0
 34 78  1  6
 35 37  1  0
 35 36  1  0
 35 79  1  1
 37 36  1  1
 37 41  1  0
 37 38  1  0
 38 39  1  0
 39 40  1  6
 39 41  1  0
 40 80  1  0
 41 42  1  0
 41 81  1  6
 42 44  1  1
 42 43  1  0
 43 44  1  0
 43 82  1  0
 43 83  1  0
M  CHG  1  29   1
M  END
>  <i_m_ct_stereo_status>  (145) 
1

>  <s_m_source_file>  (145) 
/var/tmp/pbs.5076253.sched01/tmp9pzrzrnh/1418a54yjb5.sdf

>  <i_m_source_file_index>  (145) 
24

>  <i_lp_mmshare_version>  (145) 
48012

>  <i_f3d_flags>  (145) 
0

>  <s_epik_input>  (145) 
TzFbQ0gyXU9bQ0gyXVtDQEBIXShPMilbQ0gyXVtDQEBIXShbQ0hdMylOMVtDQEBdNChbQ0BASF01W0NIMl1bQ0gyXVtDQEhdKFtDSDJdNClONVtDSDNdKVtDQEBdMihbQ0BASF02W0NASF0oT1tDSDNdKU9bQ0BdKE83KShbQ0gzXSlbQ0gyXTgpQz0zW0NASF0oW05IXTkpW0NAQEhdKFtDQF0xKE8yKVtPSF0pW0NAQEhdKE8zKVtDQEBdMjNbQ0BIXTFbQ0BAXTEoW0NASF05W0NAQF02NzgpW0NIMl1PMQ==

>  <s_epik_cmdline>  (145) 
J2VwaWtfcHl0aG9uJywgJy1waHQnLCAnMi4wJywgJy1waCcsICc3LjAnLCAnLXRuJywgJzgnLCAnLW1hJywgJzIwMCcsICctaW1hZScsICc8aW5maWxlLm1hZT4nLCAnLW9tYWUnLCAnPG91dGZpbGUubWFlPic=

>  <r_epik_Ionization_Penalty>  (145) 
0.0513934

>  <r_epik_Ionization_Penalty_Charging>  (145) 
0.0348147

>  <r_epik_Ionization_Penalty_Neutral>  (145) 
0.0165788

>  <r_epik_State_Penalty>  (145) 
0.0414037

>  <r_epik_Charging_Adjusted_Penalty>  (145) 
0.0762184

>  <i_epik_Tot_Q>  (145) 
1

>  <i_epik_Tot_abs_Q>  (145) 
1

>  <s_epik_Chemistry_Notes>  (145) 
This compound contains an acetal/aminal-like group ( X-CH(R)-Y where X, Y are N, S, or O) that may be acid/base labile, releasing an aldehyde. This compound has a N-S or N-O group and may undergo hydrolysis at high or low pH.

>  <s_lp_Force_Field>  (145) 
OPLS3e

>  <r_lp_Energy>  (145) 
233.128

>  <b_lp_Chiralities_Consistent>  (145) 
1

>  <s_lp_Variant>  (145) 
93:0-1

>  <s_i_glide_gridfile>  (145) 
pfpi4k_grid

>  <i_i_glide_lignum>  (145) 
24

>  <i_i_glide_rotatable_bonds>  (145) 
2

>  <r_i_docking_score>  (145) 
-2.46985

>  <r_i_glide_ligand_efficiency>  (145) 
-0.0561328

>  <r_i_glide_ligand_efficiency_sa>  (145) 
-0.198169

>  <r_i_glide_ligand_efficiency_ln>  (145) 
-0.516252

>  <r_i_glide_gscore>  (145) 
-2.46985

>  <r_i_glide_lipo>  (145) 
-0.0638534

>  <r_i_glide_hbond>  (145) 
-0.0062769

>  <r_i_glide_metal>  (145) 
-0

>  <r_i_glide_rewards>  (145) 
-0.0145229

>  <r_i_glide_evdw>  (145) 
-19.2094

>  <r_i_glide_ecoul>  (145) 
-8.85075

>  <r_i_glide_erotb>  (145) 
0

>  <r_i_glide_esite>  (145) 
-0.0971069

>  <r_i_glide_emodel>  (145) 
-32.1417

>  <r_i_glide_energy>  (145) 
-28.0602

>  <r_i_glide_einternal>  (145) 
1.66392

>  <r_i_glide_intrahb_reward>  (145) 
-0

>  <i_i_glide_confnum>  (145) 
1

>  <i_i_glide_posenum>  (145) 
32

>  <r_i_glide_eff_state_penalty>  (145) 
0

>  <ligand_id>  (145) 
93

>  <original_smiles>  (145) 
COC1OC2(C)CC3(O2)C2NC(C4=CC5CC6COCON5C5(CC7CCC5N7C)C4(O6)C13)C1C3OC34OC1(O)C4C21CO1

>  <smiles>  (145) 
[H]OC12OC34OC3([H])C1([H])C1([H])C3=C([H])C5([H])N6OC([H])([H])OC([H])([H])C([H])(OC3(C3([H])C([H])(OC([H])([H])[H])OC7(C([H])([H])[H])OC3(C7([H])[H])C([H])(N1[H])C1(OC1([H])[H])C42[H])C61C([H])([H])C2([H])C([H])([H])C([H])([H])C1([H])[N+]2([H])C([H])([H])[H])C5([H])[H]

$$$$
93:1:0
     RDKit          3D

 83 95  0  0  1  0  0  0  0  0999 V2000
    6.7028   -8.7367    1.4470 C   0  0  0  0  0  0  0  0  0  0  0  0
    5.7920   -7.8942    2.1442 O   0  0  0  0  0  0  0  0  0  0  0  0
    5.4805   -6.7033    1.5010 C   0  0  2  0  0  0  0  0  0  0  0  0
    6.6301   -5.8962    1.4852 O   0  0  0  0  0  0  0  0  0  0  0  0
    6.3949   -4.5198    1.2745 C   0  0  2  0  0  0  0  0  0  0  0  0
    7.6207   -3.8830    0.6245 C   0  0  0  0  0  0  0  0  0  0  0  0
    5.8077   -3.9202    2.5392 C   0  0  0  0  0  0  0  0  0  0  0  0
    4.4993   -4.4205    1.9283 C   0  0  2  0  0  0  0  0  0  0  0  0
    5.1311   -4.2941    0.6153 O   0  0  0  0  0  0  0  0  0  0  0  0
    3.2644   -3.4991    1.8136 C   0  0  1  0  0  0  0  0  0  0  0  0
    2.1560   -3.9859    2.6512 N   0  0  0  0  0  0  0  0  0  0  0  0
    2.4185   -4.1048    4.0887 C   0  0  1  0  0  0  0  0  0  0  0  0
    3.0791   -5.3981    4.5319 C   0  0  0  0  0  0  0  0  0  0  0  0
    2.7481   -5.8400    5.7702 C   0  0  0  0  0  0  0  0  0  0  0  0
    3.1373   -7.2226    6.2259 C   0  0  2  0  0  0  0  0  0  0  0  0
    4.6043   -7.1302    6.6254 C   0  0  0  0  0  0  0  0  0  0  0  0
    5.5475   -7.1929    5.3989 C   0  0  1  0  0  0  0  0  0  0  0  0
    6.1656   -8.5824    5.1245 C   0  0  0  0  0  0  0  0  0  0  0  0
    5.2849   -9.6004    4.6647 O   0  0  0  0  0  0  0  0  0  0  0  0
    4.3021  -10.0500    5.5939 C   0  0  0  0  0  0  0  0  0  0  0  0
    2.9849   -9.5244    5.3955 O   0  0  0  0  0  0  0  0  0  0  0  0
    3.0628   -8.1287    5.0886 N   0  0  0  0  0  0  0  0  0  0  0  0
    2.9166   -7.7372    3.6703 C   0  0  1  0  0  0  0  0  0  0  0  0
    3.1273   -8.9154    2.6414 C   0  0  0  0  0  0  0  0  0  0  0  0
    1.7907   -9.0557    1.9395 C   0  0  1  0  0  0  0  0  0  0  0  0
    0.7574   -9.7434    2.8392 C   0  0  0  0  0  0  0  0  0  0  0  0
    0.4280   -8.6185    3.8143 C   0  0  0  0  0  0  0  0  0  0  0  0
    1.3786   -7.4799    3.3503 C   0  0  2  0  0  0  0  0  0  0  0  0
    1.3864   -7.6542    1.9014 N   0  0  0  0  0  0  0  0  0  0  0  0
    0.1445   -7.3858    1.1737 C   0  0  0  0  0  0  0  0  0  0  0  0
    3.8461   -6.4006    3.6117 C   0  0  2  0  0  0  0  0  0  0  0  0
    5.1741   -6.4862    4.1980 O   0  0  0  0  0  0  0  0  0  0  0  0
    4.2156   -5.9368    2.1178 C   0  0  2  0  0  0  0  0  0  0  0  0
    2.9452   -2.7945    4.7106 C   0  0  2  0  0  0  0  0  0  0  0  0
    4.1807   -2.2052    5.3099 C   0  0  1  0  0  0  0  0  0  0  0  0
    5.3417   -1.8699    4.5987 O   0  0  0  0  0  0  0  0  0  0  0  0
    4.2765   -0.8897    4.3586 C   0  0  2  0  0  0  0  0  0  0  0  0
    3.0981   -0.6838    5.1224 O   0  0  0  0  0  0  0  0  0  0  0  0
    2.4202   -1.5296    4.1703 C   0  0  2  0  0  0  0  0  0  0  0  0
    1.0448   -1.3252    4.0566 O   0  0  0  0  0  0  0  0  0  0  0  0
    3.3408   -1.0339    3.1343 C   0  0  2  0  0  0  0  0  0  0  0  0
    3.5639   -1.9437    1.8464 C   0  0  2  0  0  0  0  0  0  0  0  0
    3.2956   -1.2718    0.5047 C   0  0  0  0  0  0  0  0  0  0  0  0
    4.6259   -1.4887    0.9701 O   0  0  0  0  0  0  0  0  0  0  0  0
    6.8619   -9.6386    2.0367 H   0  0  0  0  0  0  0  0  0  0  0  0
    7.6767   -8.2685    1.2755 H   0  0  0  0  0  0  0  0  0  0  0  0
    6.2843   -9.0555    0.4979 H   0  0  0  0  0  0  0  0  0  0  0  0
    5.2423   -6.9482    0.4637 H   0  0  0  0  0  0  0  0  0  0  0  0
    7.8944   -4.3594   -0.3164 H   0  0  0  0  0  0  0  0  0  0  0  0
    8.4758   -3.9919    1.2867 H   0  0  0  0  0  0  0  0  0  0  0  0
    7.4901   -2.8170    0.4467 H   0  0  0  0  0  0  0  0  0  0  0  0
    6.1178   -4.4156    3.4598 H   0  0  0  0  0  0  0  0  0  0  0  0
    5.9453   -2.8433    2.5452 H   0  0  0  0  0  0  0  0  0  0  0  0
    2.8989   -3.6751    0.7965 H   0  0  0  0  0  0  0  0  0  0  0  0
    1.8229   -4.8785    2.3030 H   0  0  0  0  0  0  0  0  0  0  0  0
    1.4342   -4.1742    4.5496 H   0  0  0  0  0  0  0  0  0  0  0  0
    2.1423   -5.2556    6.4447 H   0  0  0  0  0  0  0  0  0  0  0  0
    2.4993   -7.5402    7.0588 H   0  0  0  0  0  0  0  0  0  0  0  0
    4.7697   -6.1949    7.1596 H   0  0  0  0  0  0  0  0  0  0  0  0
    4.8641   -7.9082    7.3444 H   0  0  0  0  0  0  0  0  0  0  0  0
    6.4093   -6.6138    5.7136 H   0  0  0  0  0  0  0  0  0  0  0  0
    6.9500   -8.4684    4.3792 H   0  0  0  0  0  0  0  0  0  0  0  0
    6.6686   -8.9408    6.0239 H   0  0  0  0  0  0  0  0  0  0  0  0
    4.2484  -11.1297    5.4686 H   0  0  0  0  0  0  0  0  0  0  0  0
    4.6307   -9.9205    6.6223 H   0  0  0  0  0  0  0  0  0  0  0  0
    3.7842   -8.6926    1.8171 H   0  0  0  0  0  0  0  0  0  0  0  0
    3.4758   -9.8643    3.0601 H   0  0  0  0  0  0  0  0  0  0  0  0
    1.8836   -9.5088    0.9581 H   0  0  0  0  0  0  0  0  0  0  0  0
   -0.1238  -10.0796    2.2798 H   0  0  0  0  0  0  0  0  0  0  0  0
    1.1911  -10.6114    3.3354 H   0  0  0  0  0  0  0  0  0  0  0  0
   -0.6168   -8.3241    3.7108 H   0  0  0  0  0  0  0  0  0  0  0  0
    0.5502   -8.9261    4.8504 H   0  0  0  0  0  0  0  0  0  0  0  0
    0.9874   -6.5086    3.6336 H   0  0  0  0  0  0  0  0  0  0  0  0
   -0.1526   -6.3444    1.2813 H   0  0  0  0  0  0  0  0  0  0  0  0
   -0.6952   -8.0134    1.4720 H   0  0  0  0  0  0  0  0  0  0  0  0
    0.3164   -7.5493    0.1120 H   0  0  0  0  0  0  0  0  0  0  0  0
    3.3939   -6.1934    1.4466 H   0  0  0  0  0  0  0  0  0  0  0  0
    3.7367   -3.1185    4.0708 H   0  0  0  0  0  0  0  0  0  0  0  0
    4.2325   -2.1252    6.3802 H   0  0  0  0  0  0  0  0  0  0  0  0
    0.6407   -1.6363    4.8362 H   0  0  0  0  0  0  0  0  0  0  0  0
    2.9606   -0.0568    2.8133 H   0  0  0  0  0  0  0  0  0  0  0  0
    3.0359   -1.8587   -0.3836 H   0  0  0  0  0  0  0  0  0  0  0  0
    2.9751   -0.2378    0.4913 H   0  0  0  0  0  0  0  0  0  0  0  0
  1  2  1  0
  1 45  1  0
  1 46  1  0
  1 47  1  0
  2  3  1  0
  3 33  1  0
  3  4  1  0
  3 48  1  6
  4  5  1  0
  5  9  1  0
  5  6  1  6
  5  7  1  0
  6 49  1  0
  6 50  1  0
  6 51  1  0
  7  8  1  0
  7 52  1  0
  7 53  1  0
  8 33  1  0
  8  9  1  6
  8 10  1  0
 10 42  1  0
 10 11  1  0
 10 54  1  6
 11 12  1  0
 11 55  1  0
 12 13  1  0
 12 34  1  0
 12 56  1  1
 13 31  1  0
 13 14  2  0
 14 15  1  0
 14 57  1  0
 15 22  1  0
 15 16  1  0
 15 58  1  1
 16 17  1  0
 16 59  1  0
 16 60  1  0
 17 32  1  0
 17 18  1  0
 17 61  1  1
 18 19  1  0
 18 62  1  0
 18 63  1  0
 19 20  1  0
 20 21  1  0
 20 64  1  0
 20 65  1  0
 21 22  1  0
 22 23  1  0
 23 28  1  0
 23 24  1  6
 23 31  1  0
 24 25  1  0
 24 66  1  0
 24 67  1  0
 25 29  1  0
 25 26  1  0
 25 68  1  6
 26 27  1  0
 26 69  1  0
 26 70  1  0
 27 28  1  0
 27 71  1  0
 27 72  1  0
 28 29  1  0
 28 73  1  6
 29 30  1  0
 30 74  1  0
 30 75  1  0
 30 76  1  0
 31 32  1  1
 31 33  1  0
 33 77  1  6
 34 39  1  0
 34 35  1  0
 34 78  1  1
 35 37  1  0
 35 36  1  0
 35 79  1  1
 37 36  1  6
 37 41  1  0
 37 38  1  0
 38 39  1  0
 39 40  1  6
 39 41  1  0
 40 80  1  0
 41 42  1  0
 41 81  1  6
 42 44  1  6
 42 43  1  0
 43 44  1  0
 43 82  1  0
 43 83  1  0
M  END
>  <i_m_ct_stereo_status>  (146) 
1

>  <s_m_source_file>  (146) 
/var/tmp/pbs.5076253.sched01/tmp9pzrzrnh/1418a54yjb5.sdf

>  <i_m_source_file_index>  (146) 
25

>  <i_lp_mmshare_version>  (146) 
48012

>  <i_f3d_flags>  (146) 
0

>  <s_epik_input>  (146) 
TzFbQ0gyXU9bQ0gyXVtDQEBIXShPMilbQ0gyXVtDQEBIXShbQ0hdMylOMVtDQEBdNChbQ0BASF01W0NIMl1bQ0gyXVtDQEhdKFtDSDJdNClONVtDSDNdKVtDQEBdMihbQ0BASF02W0NASF0oT1tDSDNdKU9bQ0BdKE83KShbQ0gzXSlbQ0gyXTgpQz0zW0NASF0oW05IXTkpW0NAQEhdKFtDQF0xKE8yKVtPSF0pW0NAQEhdKE8zKVtDQEBdMjNbQ0BIXTFbQ0BAXTEoW0NASF05W0NAQF02NzgpW0NIMl1PMQ==

>  <s_epik_cmdline>  (146) 
J2VwaWtfcHl0aG9uJywgJy1waHQnLCAnMi4wJywgJy1waCcsICc3LjAnLCAnLXRuJywgJzgnLCAnLW1hJywgJzIwMCcsICctaW1hZScsICc8aW5maWxlLm1hZT4nLCAnLW9tYWUnLCAnPG91dGZpbGUubWFlPic=

>  <r_epik_Ionization_Penalty>  (146) 
1.73824

>  <r_epik_Ionization_Penalty_Charging>  (146) 
0

>  <r_epik_Ionization_Penalty_Neutral>  (146) 
1.73824

>  <r_epik_State_Penalty>  (146) 
1.81466

>  <r_epik_Charging_Adjusted_Penalty>  (146) 
1.81466

>  <i_epik_Tot_Q>  (146) 
0

>  <i_epik_Tot_abs_Q>  (146) 
0

>  <s_epik_Chemistry_Notes>  (146) 
This compound contains an acetal/aminal-like group ( X-CH(R)-Y where X, Y are N, S, or O) that may be acid/base labile, releasing an aldehyde. This compound has a N-S or N-O group and may undergo hydrolysis at high or low pH.

>  <s_lp_Force_Field>  (146) 
OPLS3e

>  <r_lp_Energy>  (146) 
236.877

>  <b_lp_Chiralities_Consistent>  (146) 
1

>  <s_lp_Variant>  (146) 
93:0-2

>  <s_i_glide_gridfile>  (146) 
pfpi4k_grid

>  <i_i_glide_lignum>  (146) 
25

>  <i_i_glide_rotatable_bonds>  (146) 
2

>  <r_i_docking_score>  (146) 
-1.6192

>  <r_i_glide_ligand_efficiency>  (146) 
-0.0368

>  <r_i_glide_ligand_efficiency_sa>  (146) 
-0.129917

>  <r_i_glide_ligand_efficiency_ln>  (146) 
-0.338449

>  <r_i_glide_gscore>  (146) 
-1.6192

>  <r_i_glide_lipo>  (146) 
-0.394662

>  <r_i_glide_hbond>  (146) 
0

>  <r_i_glide_metal>  (146) 
-0

>  <r_i_glide_rewards>  (146) 
-0.254471

>  <r_i_glide_evdw>  (146) 
-24.4088

>  <r_i_glide_ecoul>  (146) 
1.88084

>  <r_i_glide_erotb>  (146) 
0

>  <r_i_glide_esite>  (146) 
-0.0317552

>  <r_i_glide_emodel>  (146) 
-24.068

>  <r_i_glide_energy>  (146) 
-22.528

>  <r_i_glide_einternal>  (146) 
0.00145967

>  <r_i_glide_intrahb_reward>  (146) 
-0

>  <i_i_glide_confnum>  (146) 
2

>  <i_i_glide_posenum>  (146) 
16

>  <r_i_glide_eff_state_penalty>  (146) 
0

>  <ligand_id>  (146) 
93

>  <original_smiles>  (146) 
COC1OC2(C)CC3(O2)C2NC(C4=CC5CC6COCON5C5(CC7CCC5N7C)C4(O6)C13)C1C3OC34OC1(O)C4C21CO1

>  <smiles>  (146) 
[H]OC12OC34OC3([H])C1([H])C1([H])C3=C([H])C5([H])N6OC([H])([H])OC([H])([H])C([H])(OC3(C3([H])C([H])(OC([H])([H])[H])OC7(C([H])([H])[H])OC3(C7([H])[H])C([H])(N1[H])C1(OC1([H])[H])C42[H])C61C([H])([H])C2([H])N(C([H])([H])[H])C1([H])C([H])([H])C2([H])[H])C5([H])[H]

$$$$
93:2:0
     RDKit          3D

 85 97  0  0  1  0  0  0  0  0999 V2000
    6.2307   -0.3490    6.7997 C   0  0  0  0  0  0  0  0  0  0  0  0
    4.9486   -0.1804    6.2018 O   0  0  0  0  0  0  0  0  0  0  0  0
    4.7174    1.0725    5.6450 C   0  0  2  0  0  0  0  0  0  0  0  0
    4.6589    2.0145    6.6778 O   0  0  0  0  0  0  0  0  0  0  0  0
    4.0347    3.2355    6.3443 C   0  0  2  0  0  0  0  0  0  0  0  0
    4.6374    4.3459    7.2024 C   0  0  0  0  0  0  0  0  0  0  0  0
    2.5385    3.0131    6.3107 C   0  0  0  0  0  0  0  0  0  0  0  0
    2.8326    2.5817    4.8703 C   0  0  2  0  0  0  0  0  0  0  0  0
    3.9959    3.4526    4.9152 O   0  0  0  0  0  0  0  0  0  0  0  0
    2.0467    3.1448    3.6765 C   0  0  1  0  0  0  0  0  0  0  0  0
    1.2718    2.0955    2.9744 N   0  0  0  0  0  0  0  0  0  0  0  0
    0.3119    1.3513    3.8308 C   0  0  1  0  0  0  0  0  0  0  0  0
    0.8769    0.1651    4.6071 C   0  0  0  0  0  0  0  0  0  0  0  0
    0.0459   -0.8858    4.7954 C   0  0  0  0  0  0  0  0  0  0  0  0
    0.5467   -2.1846    5.3832 C   0  0  2  0  0  0  0  0  0  0  0  0
    0.6629   -1.9662    6.8868 C   0  0  0  0  0  0  0  0  0  0  0  0
    1.9546   -1.1951    7.2671 C   0  0  1  0  0  0  0  0  0  0  0  0
    3.1108   -2.0903    7.7719 C   0  0  0  0  0  0  0  0  0  0  0  0
    3.7365   -2.9263    6.8066 O   0  0  0  0  0  0  0  0  0  0  0  0
    2.9419   -3.9893    6.2888 C   0  0  0  0  0  0  0  0  0  0  0  0
    2.3847   -3.7506    4.9865 O   0  0  0  0  0  0  0  0  0  0  0  0
    1.9058   -2.4041    4.9102 N   0  0  0  0  0  0  0  0  0  0  0  0
    2.7398   -1.4264    4.1867 C   0  0  1  0  0  0  0  0  0  0  0  0
    4.2463   -1.8987    3.9986 C   0  0  0  0  0  0  0  0  0  0  0  0
    4.4462   -2.0009    2.4843 C   0  0  1  0  0  0  0  0  0  0  0  0
    3.7586   -3.2569    1.9496 C   0  0  0  0  0  0  0  0  0  0  0  0
    2.2817   -2.8403    2.0242 C   0  0  0  0  0  0  0  0  0  0  0  0
    2.3585   -1.4184    2.6397 C   0  0  2  0  0  0  0  0  0  0  0  0
    3.5985   -0.9093    2.0390 N   0  0  2  0  0  0  0  0  0  0  0  0
    3.5942   -0.6003    0.5756 C   0  0  0  0  0  0  0  0  0  0  0  0
    2.3789   -0.0539    4.9781 C   0  0  2  0  0  0  0  0  0  0  0  0
    2.3808   -0.0979    6.4358 O   0  0  0  0  0  0  0  0  0  0  0  0
    3.4141    1.1386    4.7085 C   0  0  2  0  0  0  0  0  0  0  0  0
   -0.6710    2.2763    4.5370 C   0  0  2  0  0  0  0  0  0  0  0  0
   -1.0485    2.7650    5.8937 C   0  0  1  0  0  0  0  0  0  0  0  0
   -0.3166    3.6352    6.6890 O   0  0  0  0  0  0  0  0  0  0  0  0
   -0.9733    4.3399    5.6128 C   0  0  2  0  0  0  0  0  0  0  0  0
   -2.0673    3.8832    4.8087 O   0  0  0  0  0  0  0  0  0  0  0  0
   -1.1103    3.4764    3.8314 C   0  0  2  0  0  0  0  0  0  0  0  0
   -1.5329    3.3549    2.4782 O   0  0  0  0  0  0  0  0  0  0  0  0
   -0.2392    4.6069    4.2370 C   0  0  2  0  0  0  0  0  0  0  0  0
    1.2956    4.5143    3.9253 C   0  0  2  0  0  0  0  0  0  0  0  0
    1.8908    5.6897    3.1551 C   0  0  0  0  0  0  0  0  0  0  0  0
    2.1011    5.5274    4.5504 O   0  0  0  0  0  0  0  0  0  0  0  0
    6.2975   -1.3671    7.1850 H   0  0  0  0  0  0  0  0  0  0  0  0
    6.4097    0.3348    7.6336 H   0  0  0  0  0  0  0  0  0  0  0  0
    7.0249   -0.2244    6.0628 H   0  0  0  0  0  0  0  0  0  0  0  0
    5.5856    1.3014    5.0251 H   0  0  0  0  0  0  0  0  0  0  0  0
    5.7219    4.4291    7.1082 H   0  0  0  0  0  0  0  0  0  0  0  0
    4.4496    4.1400    8.2543 H   0  0  0  0  0  0  0  0  0  0  0  0
    4.2016    5.3202    6.9983 H   0  0  0  0  0  0  0  0  0  0  0  0
    2.1940    2.2247    6.9749 H   0  0  0  0  0  0  0  0  0  0  0  0
    2.0284    3.9666    6.4198 H   0  0  0  0  0  0  0  0  0  0  0  0
    2.7779    3.3729    2.9047 H   0  0  0  0  0  0  0  0  0  0  0  0
    0.7545    2.5565    2.2381 H   0  0  0  0  0  0  0  0  0  0  0  0
   -0.3267    0.8791    3.0871 H   0  0  0  0  0  0  0  0  0  0  0  0
   -0.9925   -0.8735    4.5022 H   0  0  0  0  0  0  0  0  0  0  0  0
   -0.1254   -3.0200    5.1382 H   0  0  0  0  0  0  0  0  0  0  0  0
   -0.1987   -1.3928    7.2216 H   0  0  0  0  0  0  0  0  0  0  0  0
    0.6082   -2.9089    7.4347 H   0  0  0  0  0  0  0  0  0  0  0  0
    1.6710   -0.6597    8.1642 H   0  0  0  0  0  0  0  0  0  0  0  0
    3.8803   -1.4481    8.1959 H   0  0  0  0  0  0  0  0  0  0  0  0
    2.7634   -2.7081    8.6017 H   0  0  0  0  0  0  0  0  0  0  0  0
    3.6027   -4.8524    6.2380 H   0  0  0  0  0  0  0  0  0  0  0  0
    2.1766   -4.2990    6.9935 H   0  0  0  0  0  0  0  0  0  0  0  0
    4.9905   -1.1554    4.2180 H   0  0  0  0  0  0  0  0  0  0  0  0
    4.5555   -2.8096    4.5139 H   0  0  0  0  0  0  0  0  0  0  0  0
    5.4887   -1.8822    2.1851 H   0  0  0  0  0  0  0  0  0  0  0  0
    4.0701   -3.4764    0.9279 H   0  0  0  0  0  0  0  0  0  0  0  0
    3.9831   -4.1242    2.5643 H   0  0  0  0  0  0  0  0  0  0  0  0
    1.8601   -2.7789    1.0228 H   0  0  0  0  0  0  0  0  0  0  0  0
    1.6617   -3.5682    2.5433 H   0  0  0  0  0  0  0  0  0  0  0  0
    1.4905   -0.8363    2.3313 H   0  0  0  0  0  0  0  0  0  0  0  0
    3.3923   -1.4356   -0.1032 H   0  0  0  0  0  0  0  0  0  0  0  0
    4.5489   -0.1782    0.2561 H   0  0  0  0  0  0  0  0  0  0  0  0
    2.8245    0.1471    0.4017 H   0  0  0  0  0  0  0  0  0  0  0  0
    3.8100    1.0602    3.6922 H   0  0  0  0  0  0  0  0  0  0  0  0
    0.2574    2.4911    5.0277 H   0  0  0  0  0  0  0  0  0  0  0  0
   -1.9245    2.2861    6.3363 H   0  0  0  0  0  0  0  0  0  0  0  0
   -0.9391    3.8265    1.9098 H   0  0  0  0  0  0  0  0  0  0  0  0
   -0.6443    5.5105    3.7827 H   0  0  0  0  0  0  0  0  0  0  0  0
    2.8050    5.6010    2.5670 H   0  0  0  0  0  0  0  0  0  0  0  0
    1.2420    6.5289    2.8958 H   0  0  0  0  0  0  0  0  0  0  0  0
    3.8794   -0.0986    2.5734 H   0  0  0  0  0  0  0  0  0  0  0  0
    1.9091    1.4421    2.5557 H   0  0  0  0  0  0  0  0  0  0  0  0
  1  2  1  0
  1 45  1  0
  1 46  1  0
  1 47  1  0
  2  3  1  0
  3 33  1  0
  3  4  1  0
  3 48  1  6
  4  5  1  0
  5  9  1  0
  5  6  1  1
  5  7  1  0
  6 49  1  0
  6 50  1  0
  6 51  1  0
  7  8  1  0
  7 52  1  0
  7 53  1  0
  8 33  1  0
  8  9  1  6
  8 10  1  0
 10 42  1  0
 10 11  1  0
 10 54  1  6
 11 12  1  0
 11 55  1  0
 11 85  1  0
 12 13  1  0
 12 34  1  0
 12 56  1  6
 13 31  1  0
 13 14  2  0
 14 15  1  0
 14 57  1  0
 15 22  1  0
 15 16  1  0
 15 58  1  1
 16 17  1  0
 16 59  1  0
 16 60  1  0
 17 32  1  0
 17 18  1  0
 17 61  1  1
 18 19  1  0
 18 62  1  0
 18 63  1  0
 19 20  1  0
 20 21  1  0
 20 64  1  0
 20 65  1  0
 21 22  1  0
 22 23  1  0
 23 28  1  0
 23 24  1  6
 23 31  1  0
 24 25  1  0
 24 66  1  0
 24 67  1  0
 25 29  1  0
 25 26  1  0
 25 68  1  1
 26 27  1  0
 26 69  1  0
 26 70  1  0
 27 28  1  0
 27 71  1  0
 27 72  1  0
 28 29  1  0
 28 73  1  1
 29 30  1  0
 29 84  1  1
 30 74  1  0
 30 75  1  0
 30 76  1  0
 31 32  1  1
 31 33  1  0
 33 77  1  6
 34 39  1  0
 34 35  1  0
 34 78  1  6
 35 37  1  0
 35 36  1  0
 35 79  1  1
 37 36  1  1
 37 41  1  0
 37 38  1  0
 38 39  1  0
 39 40  1  6
 39 41  1  0
 40 80  1  0
 41 42  1  0
 41 81  1  6
 42 44  1  1
 42 43  1  0
 43 44  1  0
 43 82  1  0
 43 83  1  0
M  CHG  2  11   1  29   1
M  END
>  <i_m_ct_stereo_status>  (147) 
1

>  <s_m_source_file>  (147) 
/var/tmp/pbs.5076253.sched01/tmp9pzrzrnh/1418a54yjb5.sdf

>  <i_m_source_file_index>  (147) 
26

>  <i_lp_mmshare_version>  (147) 
48012

>  <i_f3d_flags>  (147) 
0

>  <s_epik_input>  (147) 
TzFbQ0gyXU9bQ0gyXVtDQEBIXShPMilbQ0gyXVtDQEBIXShbQ0hdMylOMVtDQEBdNChbQ0BASF01W0NIMl1bQ0gyXVtDQEhdKFtDSDJdNClONVtDSDNdKVtDQEBdMihbQ0BASF02W0NASF0oT1tDSDNdKU9bQ0BdKE83KShbQ0gzXSlbQ0gyXTgpQz0zW0NASF0oW05IXTkpW0NAQEhdKFtDQF0xKE8yKVtPSF0pW0NAQEhdKE8zKVtDQEBdMjNbQ0BIXTFbQ0BAXTEoW0NASF05W0NAQF02NzgpW0NIMl1PMQ==

>  <s_epik_cmdline>  (147) 
J2VwaWtfcHl0aG9uJywgJy1waHQnLCAnMi4wJywgJy1waCcsICc3LjAnLCAnLXRuJywgJzgnLCAnLW1hJywgJzIwMCcsICctaW1hZScsICc8aW5maWxlLm1hZT4nLCAnLW9tYWUnLCAnPG91dGZpbGUubWFlPic=

>  <r_epik_Ionization_Penalty>  (147) 
2.20863

>  <r_epik_Ionization_Penalty_Charging>  (147) 
2.20579

>  <r_epik_Ionization_Penalty_Neutral>  (147) 
0.00283509

>  <r_epik_State_Penalty>  (147) 
2.29633

>  <r_epik_Charging_Adjusted_Penalty>  (147) 
4.50212

>  <i_epik_Tot_Q>  (147) 
2

>  <i_epik_Tot_abs_Q>  (147) 
2

>  <s_epik_Chemistry_Notes>  (147) 
This compound contains an acetal/aminal-like group ( X-CH(R)-Y where X, Y are N, S, or O) that may be acid/base labile, releasing an aldehyde. This compound has a N-S or N-O group and may undergo hydrolysis at high or low pH.

>  <s_lp_Force_Field>  (147) 
OPLS3e

>  <r_lp_Energy>  (147) 
241.803

>  <b_lp_Chiralities_Consistent>  (147) 
1

>  <s_lp_Variant>  (147) 
93:0-3

>  <s_i_glide_gridfile>  (147) 
pfpi4k_grid

>  <i_i_glide_lignum>  (147) 
26

>  <i_i_glide_rotatable_bonds>  (147) 
2

>  <r_i_docking_score>  (147) 
-2.81397

>  <r_i_glide_ligand_efficiency>  (147) 
-0.063954

>  <r_i_glide_ligand_efficiency_sa>  (147) 
-0.22578

>  <r_i_glide_ligand_efficiency_ln>  (147) 
-0.588182

>  <r_i_glide_gscore>  (147) 
-2.81397

>  <r_i_glide_lipo>  (147) 
-0.0826258

>  <r_i_glide_hbond>  (147) 
-0.0145578

>  <r_i_glide_metal>  (147) 
-0

>  <r_i_glide_rewards>  (147) 
-0.0180389

>  <r_i_glide_evdw>  (147) 
-18.1076

>  <r_i_glide_ecoul>  (147) 
-11.0021

>  <r_i_glide_erotb>  (147) 
0

>  <r_i_glide_esite>  (147) 
-0.143059

>  <r_i_glide_emodel>  (147) 
-34.9296

>  <r_i_glide_energy>  (147) 
-29.1097

>  <r_i_glide_einternal>  (147) 
1.66104

>  <r_i_glide_intrahb_reward>  (147) 
-0

>  <i_i_glide_confnum>  (147) 
2

>  <i_i_glide_posenum>  (147) 
27

>  <r_i_glide_eff_state_penalty>  (147) 
0

>  <ligand_id>  (147) 
93

>  <original_smiles>  (147) 
COC1OC2(C)CC3(O2)C2NC(C4=CC5CC6COCON5C5(CC7CCC5N7C)C4(O6)C13)C1C3OC34OC1(O)C4C21CO1

>  <smiles>  (147) 
[H]OC12OC34OC3([H])C1([H])C1([H])C3=C([H])C5([H])N6OC([H])([H])OC([H])([H])C([H])(OC3(C3([H])C([H])(OC([H])([H])[H])OC7(C([H])([H])[H])OC3(C7([H])[H])C([H])(C3(OC3([H])[H])C42[H])[N+]1([H])[H])C61C([H])([H])C2([H])C([H])([H])C([H])([H])C1([H])[N+]2([H])C([H])([H])[H])C5([H])[H]

$$$$
93:2:1
     RDKit          3D

 85 97  0  0  1  0  0  0  0  0999 V2000
    1.3079   -8.0263    2.3503 C   0  0  0  0  0  0  0  0  0  0  0  0
    2.5127   -7.2833    2.2550 O   0  0  0  0  0  0  0  0  0  0  0  0
    2.3639   -5.9484    1.9061 C   0  0  2  0  0  0  0  0  0  0  0  0
    1.9220   -5.8835    0.5782 O   0  0  0  0  0  0  0  0  0  0  0  0
    2.1768   -4.6674   -0.0892 C   0  0  2  0  0  0  0  0  0  0  0  0
    1.1637   -4.5044   -1.2230 C   0  0  0  0  0  0  0  0  0  0  0  0
    3.6538   -4.5238   -0.3886 C   0  0  0  0  0  0  0  0  0  0  0  0
    3.6857   -3.9713    1.0340 C   0  0  2  0  0  0  0  0  0  0  0  0
    2.2903   -3.5818    0.8584 O   0  0  0  0  0  0  0  0  0  0  0  0
    4.3884   -2.6346    1.3599 C   0  0  1  0  0  0  0  0  0  0  0  0
    5.5621   -2.8657    2.2203 N   0  0  0  0  0  0  0  0  0  0  0  0
    6.5465   -3.8069    1.6258 C   0  0  1  0  0  0  0  0  0  0  0  0
    6.3825   -5.2928    1.9779 C   0  0  0  0  0  0  0  0  0  0  0  0
    7.4903   -6.0162    2.1938 C   0  0  0  0  0  0  0  0  0  0  0  0
    7.4146   -7.4553    2.6696 C   0  0  2  0  0  0  0  0  0  0  0  0
    7.0266   -8.2645    1.4415 C   0  0  0  0  0  0  0  0  0  0  0  0
    5.4983   -8.1838    1.1500 C   0  0  1  0  0  0  0  0  0  0  0  0
    4.6677   -9.3795    1.6231 C   0  0  0  0  0  0  0  0  0  0  0  0
    4.5025   -9.4940    3.0216 O   0  0  0  0  0  0  0  0  0  0  0  0
    5.6745   -9.8301    3.7520 C   0  0  0  0  0  0  0  0  0  0  0  0
    6.2794   -8.7384    4.4609 O   0  0  0  0  0  0  0  0  0  0  0  0
    6.3182   -7.5444    3.6354 N   0  0  0  0  0  0  0  0  0  0  0  0
    5.2710   -6.5271    3.8299 C   0  0  1  0  0  0  0  0  0  0  0  0
    4.0516   -7.0142    4.6921 C   0  0  0  0  0  0  0  0  0  0  0  0
    4.0790   -6.1522    5.9536 C   0  0  1  0  0  0  0  0  0  0  0  0
    5.2176   -6.6249    6.8637 C   0  0  0  0  0  0  0  0  0  0  0  0
    6.4490   -6.0934    6.1143 C   0  0  0  0  0  0  0  0  0  0  0  0
    5.8110   -5.4399    4.8547 C   0  0  2  0  0  0  0  0  0  0  0  0
    4.5613   -4.8906    5.3998 N   0  0  2  0  0  0  0  0  0  0  0  0
    4.6448   -3.7432    6.3320 C   0  0  0  0  0  0  0  0  0  0  0  0
    5.0140   -5.9608    2.3264 C   0  0  2  0  0  0  0  0  0  0  0  0
    4.8289   -6.9237    1.2733 O   0  0  0  0  0  0  0  0  0  0  0  0
    3.6834   -5.0692    2.1583 C   0  0  2  0  0  0  0  0  0  0  0  0
    7.0714   -3.3790    0.2897 C   0  0  2  0  0  0  0  0  0  0  0  0
    7.1361   -3.8067   -1.1068 C   0  0  1  0  0  0  0  0  0  0  0  0
    6.0894   -3.7756   -2.0043 O   0  0  0  0  0  0  0  0  0  0  0  0
    6.5641   -2.4313   -1.7750 C   0  0  2  0  0  0  0  0  0  0  0  0
    7.8449   -2.0959   -1.2249 O   0  0  0  0  0  0  0  0  0  0  0  0
    7.1806   -1.9375    0.0192 C   0  0  2  0  0  0  0  0  0  0  0  0
    7.8386   -1.0757    0.8765 O   0  0  0  0  0  0  0  0  0  0  0  0
    5.9522   -1.5049   -0.6580 C   0  0  2  0  0  0  0  0  0  0  0  0
    4.6010   -1.6716    0.1271 C   0  0  2  0  0  0  0  0  0  0  0  0
    3.7879   -0.4057    0.2449 C   0  0  0  0  0  0  0  0  0  0  0  0
    3.4666   -1.4198   -0.7057 O   0  0  0  0  0  0  0  0  0  0  0  0
    1.5486   -9.0436    2.6581 H   0  0  0  0  0  0  0  0  0  0  0  0
    0.7825   -8.0794    1.3959 H   0  0  0  0  0  0  0  0  0  0  0  0
    0.6418   -7.6041    3.1036 H   0  0  0  0  0  0  0  0  0  0  0  0
    1.5654   -5.5263    2.5196 H   0  0  0  0  0  0  0  0  0  0  0  0
    0.1340   -4.6779   -0.9845 H   0  0  0  0  0  0  0  0  0  0  0  0
    1.2415   -5.2987   -1.9236 H   0  0  0  0  0  0  0  0  0  0  0  0
    1.2485   -3.5500   -1.7445 H   0  0  0  0  0  0  0  0  0  0  0  0
    4.1816   -5.4600   -0.5533 H   0  0  0  0  0  0  0  0  0  0  0  0
    3.8056   -3.8022   -1.1843 H   0  0  0  0  0  0  0  0  0  0  0  0
    3.7433   -2.0923    2.0602 H   0  0  0  0  0  0  0  0  0  0  0  0
    6.0037   -1.9797    2.3876 H   0  0  0  0  0  0  0  0  0  0  0  0
    7.5299   -3.5665    2.0286 H   0  0  0  0  0  0  0  0  0  0  0  0
    8.4941   -5.6256    2.0495 H   0  0  0  0  0  0  0  0  0  0  0  0
    8.3609   -7.7923    3.0921 H   0  0  0  0  0  0  0  0  0  0  0  0
    7.6057   -7.9105    0.5879 H   0  0  0  0  0  0  0  0  0  0  0  0
    7.3268   -9.3057    1.5358 H   0  0  0  0  0  0  0  0  0  0  0  0
    5.3912   -8.3244    0.0792 H   0  0  0  0  0  0  0  0  0  0  0  0
    3.6825   -9.3216    1.1575 H   0  0  0  0  0  0  0  0  0  0  0  0
    5.1175  -10.2890    1.2286 H   0  0  0  0  0  0  0  0  0  0  0  0
    5.3495  -10.5646    4.4868 H   0  0  0  0  0  0  0  0  0  0  0  0
    6.4085  -10.3694    3.1537 H   0  0  0  0  0  0  0  0  0  0  0  0
    3.0961   -6.7563    4.2738 H   0  0  0  0  0  0  0  0  0  0  0  0
    4.0230   -8.0731    4.9372 H   0  0  0  0  0  0  0  0  0  0  0  0
    3.1021   -6.0874    6.4346 H   0  0  0  0  0  0  0  0  0  0  0  0
    5.1359   -6.1836    7.8565 H   0  0  0  0  0  0  0  0  0  0  0  0
    5.2258   -7.7074    6.9763 H   0  0  0  0  0  0  0  0  0  0  0  0
    6.9772   -5.3560    6.7180 H   0  0  0  0  0  0  0  0  0  0  0  0
    7.1827   -6.8702    5.9060 H   0  0  0  0  0  0  0  0  0  0  0  0
    6.4641   -4.6688    4.4487 H   0  0  0  0  0  0  0  0  0  0  0  0
    5.1939   -3.9612    7.2472 H   0  0  0  0  0  0  0  0  0  0  0  0
    3.6341   -3.4490    6.6144 H   0  0  0  0  0  0  0  0  0  0  0  0
    5.1227   -2.8965    5.8414 H   0  0  0  0  0  0  0  0  0  0  0  0
    3.5052   -4.5513    3.0993 H   0  0  0  0  0  0  0  0  0  0  0  0
    6.0784   -3.6983    0.0952 H   0  0  0  0  0  0  0  0  0  0  0  0
    8.1282   -4.1940   -1.4146 H   0  0  0  0  0  0  0  0  0  0  0  0
    7.2778   -0.8242    1.5859 H   0  0  0  0  0  0  0  0  0  0  0  0
    6.0536   -0.4760   -0.9992 H   0  0  0  0  0  0  0  0  0  0  0  0
    3.0428   -0.3009    1.0365 H   0  0  0  0  0  0  0  0  0  0  0  0
    4.2655    0.5009   -0.1190 H   0  0  0  0  0  0  0  0  0  0  0  0
    3.9517   -4.6145    4.6431 H   0  0  0  0  0  0  0  0  0  0  0  0
    5.2527   -3.2026    3.1192 H   0  0  0  0  0  0  0  0  0  0  0  0
  1  2  1  0
  1 45  1  0
  1 46  1  0
  1 47  1  0
  2  3  1  0
  3 33  1  0
  3  4  1  0
  3 48  1  1
  4  5  1  0
  5  9  1  0
  5  6  1  6
  5  7  1  0
  6 49  1  0
  6 50  1  0
  6 51  1  0
  7  8  1  0
  7 52  1  0
  7 53  1  0
  8 33  1  0
  8  9  1  1
  8 10  1  0
 10 42  1  0
 10 11  1  0
 10 54  1  1
 11 12  1  0
 11 55  1  0
 11 85  1  0
 12 13  1  0
 12 34  1  0
 12 56  1  1
 13 31  1  0
 13 14  2  0
 14 15  1  0
 14 57  1  0
 15 22  1  0
 15 16  1  0
 15 58  1  1
 16 17  1  0
 16 59  1  0
 16 60  1  0
 17 32  1  0
 17 18  1  0
 17 61  1  6
 18 19  1  0
 18 62  1  0
 18 63  1  0
 19 20  1  0
 20 21  1  0
 20 64  1  0
 20 65  1  0
 21 22  1  0
 22 23  1  0
 23 28  1  0
 23 24  1  1
 23 31  1  0
 24 25  1  0
 24 66  1  0
 24 67  1  0
 25 29  1  0
 25 26  1  0
 25 68  1  1
 26 27  1  0
 26 69  1  0
 26 70  1  0
 27 28  1  0
 27 71  1  0
 27 72  1  0
 28 29  1  0
 28 73  1  6
 29 30  1  0
 29 84  1  6
 30 74  1  0
 30 75  1  0
 30 76  1  0
 31 32  1  6
 31 33  1  0
 33 77  1  1
 34 39  1  0
 34 35  1  0
 34 78  1  1
 35 37  1  0
 35 36  1  0
 35 79  1  6
 37 36  1  6
 37 41  1  0
 37 38  1  0
 38 39  1  0
 39 40  1  1
 39 41  1  0
 40 80  1  0
 41 42  1  0
 41 81  1  6
 42 44  1  6
 42 43  1  0
 43 44  1  0
 43 82  1  0
 43 83  1  0
M  CHG  2  11   1  29   1
M  END
>  <i_m_ct_stereo_status>  (148) 
1

>  <s_m_source_file>  (148) 
/var/tmp/pbs.5076253.sched01/tmp9pzrzrnh/1418a54yjb5.sdf

>  <i_m_source_file_index>  (148) 
26

>  <i_lp_mmshare_version>  (148) 
48012

>  <i_f3d_flags>  (148) 
0

>  <s_epik_input>  (148) 
TzFbQ0gyXU9bQ0gyXVtDQEBIXShPMilbQ0gyXVtDQEBIXShbQ0hdMylOMVtDQEBdNChbQ0BASF01W0NIMl1bQ0gyXVtDQEhdKFtDSDJdNClONVtDSDNdKVtDQEBdMihbQ0BASF02W0NASF0oT1tDSDNdKU9bQ0BdKE83KShbQ0gzXSlbQ0gyXTgpQz0zW0NASF0oW05IXTkpW0NAQEhdKFtDQF0xKE8yKVtPSF0pW0NAQEhdKE8zKVtDQEBdMjNbQ0BIXTFbQ0BAXTEoW0NASF05W0NAQF02NzgpW0NIMl1PMQ==

>  <s_epik_cmdline>  (148) 
J2VwaWtfcHl0aG9uJywgJy1waHQnLCAnMi4wJywgJy1waCcsICc3LjAnLCAnLXRuJywgJzgnLCAnLW1hJywgJzIwMCcsICctaW1hZScsICc8aW5maWxlLm1hZT4nLCAnLW9tYWUnLCAnPG91dGZpbGUubWFlPic=

>  <r_epik_Ionization_Penalty>  (148) 
2.20863

>  <r_epik_Ionization_Penalty_Charging>  (148) 
2.20579

>  <r_epik_Ionization_Penalty_Neutral>  (148) 
0.00283509

>  <r_epik_State_Penalty>  (148) 
2.29633

>  <r_epik_Charging_Adjusted_Penalty>  (148) 
4.50212

>  <i_epik_Tot_Q>  (148) 
2

>  <i_epik_Tot_abs_Q>  (148) 
2

>  <s_epik_Chemistry_Notes>  (148) 
This compound contains an acetal/aminal-like group ( X-CH(R)-Y where X, Y are N, S, or O) that may be acid/base labile, releasing an aldehyde. This compound has a N-S or N-O group and may undergo hydrolysis at high or low pH.

>  <s_lp_Force_Field>  (148) 
OPLS3e

>  <r_lp_Energy>  (148) 
241.803

>  <b_lp_Chiralities_Consistent>  (148) 
1

>  <s_lp_Variant>  (148) 
93:0-3

>  <s_i_glide_gridfile>  (148) 
pfpi4k_grid

>  <i_i_glide_lignum>  (148) 
26

>  <i_i_glide_rotatable_bonds>  (148) 
2

>  <r_i_docking_score>  (148) 
-1.87742

>  <r_i_glide_ligand_efficiency>  (148) 
-0.0426687

>  <r_i_glide_ligand_efficiency_sa>  (148) 
-0.150635

>  <r_i_glide_ligand_efficiency_ln>  (148) 
-0.392422

>  <r_i_glide_gscore>  (148) 
-1.87742

>  <r_i_glide_lipo>  (148) 
-0.611922

>  <r_i_glide_hbond>  (148) 
-0.188975

>  <r_i_glide_metal>  (148) 
-0

>  <r_i_glide_rewards>  (148) 
-0.00109201

>  <r_i_glide_evdw>  (148) 
-3.6225

>  <r_i_glide_ecoul>  (148) 
-4.79026

>  <r_i_glide_erotb>  (148) 
0

>  <r_i_glide_esite>  (148) 
-0.175771

>  <r_i_glide_emodel>  (148) 
-9.92063

>  <r_i_glide_energy>  (148) 
-8.41276

>  <r_i_glide_einternal>  (148) 
1.57762

>  <r_i_glide_intrahb_reward>  (148) 
-0

>  <i_i_glide_confnum>  (148) 
1

>  <i_i_glide_posenum>  (148) 
25

>  <r_i_glide_eff_state_penalty>  (148) 
0

>  <ligand_id>  (148) 
93

>  <original_smiles>  (148) 
COC1OC2(C)CC3(O2)C2NC(C4=CC5CC6COCON5C5(CC7CCC5N7C)C4(O6)C13)C1C3OC34OC1(O)C4C21CO1

>  <smiles>  (148) 
[H]OC12OC34OC3([H])C1([H])C1([H])C3=C([H])C5([H])N6OC([H])([H])OC([H])([H])C([H])(OC3(C3([H])C([H])(OC([H])([H])[H])OC7(C([H])([H])[H])OC3(C7([H])[H])C([H])(C3(OC3([H])[H])C42[H])[N+]1([H])[H])C61C([H])([H])C2([H])C([H])([H])C([H])([H])C1([H])[N+]2([H])C([H])([H])[H])C5([H])[H]

$$$$
99:0:0
     RDKit          3D

105113  0  0  1  0  0  0  0  0999 V2000
   -0.4137   -9.2034    3.3647 C   0  0  0  0  0  0  0  0  0  0  0  0
    0.6880   -8.6450    4.2749 C   0  0  2  0  0  0  0  0  0  0  0  0
    2.0834   -9.1603    3.8916 C   0  0  0  0  0  0  0  0  0  0  0  0
    3.1081   -8.7109    4.9400 C   0  0  0  0  0  0  0  0  0  0  0  0
    2.6396   -9.0876    6.2256 O   0  0  0  0  0  0  0  0  0  0  0  0
    1.3977   -8.5438    6.5258 C   0  0  1  0  0  0  0  0  0  0  0  0
    1.4963   -7.1527    6.5779 O   0  0  0  0  0  0  0  0  0  0  0  0
    0.2983   -6.4638    6.8940 C   0  0  0  0  0  0  0  0  0  0  0  0
    0.5899   -4.9653    6.8154 C   0  0  1  0  0  0  0  0  0  0  0  0
    1.2398   -4.7491    5.6087 O   0  0  0  0  0  0  0  0  0  0  0  0
    0.5274   -3.6953    4.9621 C   0  0  0  0  0  0  0  0  0  0  0  0
   -0.2714   -2.9797    6.1455 C   0  0  2  0  0  0  0  0  0  0  0  0
   -0.7135   -4.2660    6.5822 O   0  0  0  0  0  0  0  0  0  0  0  0
   -0.9432   -1.5927    5.6939 C   0  0  1  0  0  0  0  0  0  0  0  0
   -2.3231   -1.7233    5.6707 O   0  0  0  0  0  0  0  0  0  0  0  0
   -0.5448   -0.3817    6.4880 O   0  0  0  0  0  0  0  0  0  0  0  0
    0.8565    0.0158    6.8058 C   0  0  1  0  0  0  0  0  0  0  0  0
    0.9299    1.4078    6.6933 O   0  0  0  0  0  0  0  0  0  0  0  0
    0.4841    1.9645    5.4521 C   0  0  2  0  0  0  0  0  0  0  0  0
    1.6091    2.0271    4.4213 C   0  0  1  0  0  0  0  0  0  0  0  0
    1.6369    0.8385    3.6733 O   0  0  0  0  0  0  0  0  0  0  0  0
    2.8661    0.5582    3.0618 C   0  0  2  0  0  0  0  0  0  0  0  0
    2.6516    0.0463    1.7763 O   0  0  0  0  0  0  0  0  0  0  0  0
    3.8553   -0.2254    1.0590 C   0  0  0  0  0  0  0  0  0  0  0  0
    4.6652   -1.3232    1.7785 C   0  0  1  0  0  0  0  0  0  0  0  0
    5.9102   -1.5619    1.1488 O   0  0  0  0  0  0  0  0  0  0  0  0
    4.9022   -0.9720    3.2476 C   0  0  1  0  0  0  0  0  0  0  0  0
    5.8174    0.1041    3.3580 O   0  0  0  0  0  0  0  0  0  0  0  0
    3.5828   -0.5128    3.9145 C   0  0  1  0  0  0  0  0  0  0  0  0
    3.8968    0.0013    5.1887 O   0  0  0  0  0  0  0  0  0  0  0  0
    1.3393    3.1365    3.6159 O   0  0  0  0  0  0  0  0  0  0  0  0
    0.3159    3.9561    4.1839 C   0  0  1  0  0  0  0  0  0  0  0  0
   -0.9681    3.8382    3.3132 C   0  0  0  0  0  0  0  0  0  0  0  0
   -1.3825    5.1191    2.8876 O   0  0  0  0  0  0  0  0  0  0  0  0
    0.2023    3.4441    5.6256 C   0  0  1  0  0  0  0  0  0  0  0  0
   -1.0706    3.6462    6.1998 O   0  0  0  0  0  0  0  0  0  0  0  0
    1.5382   -0.3508    8.3484 C   0  0  1  0  0  0  0  0  0  0  0  0
    0.6204    0.2542    9.4295 C   0  0  0  0  0  0  0  0  0  0  0  0
    2.3896   -1.7645    8.9433 C   0  0  2  0  0  0  0  0  0  0  0  0
    3.9241   -1.3653    9.1516 C   0  0  0  0  0  0  0  0  0  0  0  0
    4.9298   -1.5236    7.9259 C   0  0  0  0  0  0  0  0  0  0  0  0
    4.8502   -2.8465    7.0076 C   0  0  1  0  0  0  0  0  0  0  0  0
    6.0661   -2.8962    6.0898 C   0  0  0  0  0  0  0  0  0  0  0  0
    4.8817   -3.9691    7.8581 O   0  0  0  0  0  0  0  0  0  0  0  0
    3.7730   -3.8206    8.8519 O   0  0  0  0  0  0  0  0  0  0  0  0
    2.5526   -3.2903    8.2753 C   0  0  1  0  0  0  0  0  0  0  0  0
    1.4871   -4.5254    8.1437 C   0  0  0  0  0  0  0  0  0  0  0  0
    0.7130   -4.4304    9.2150 C   0  0  0  0  0  0  0  0  0  0  0  0
   -0.3219   -3.4423    8.8659 C   0  0  1  0  0  0  0  0  0  0  0  0
   -0.5847   -2.6270    9.9970 O   0  0  0  0  0  0  0  0  0  0  0  0
    0.0970   -2.5782    7.5450 C   0  0  1  0  0  0  0  0  0  0  0  0
    1.3366   -2.4159    6.7116 O   0  0  0  0  0  0  0  0  0  0  0  0
    2.6431   -2.6143    7.0011 C   0  0  2  0  0  0  0  0  0  0  0  0
    3.6656   -3.0214    6.1830 O   0  0  0  0  0  0  0  0  0  0  0  0
    0.4198   -8.9854    5.6270 O   0  0  0  0  0  0  0  0  0  0  0  0
   -0.2712   -8.8621    2.3376 H   0  0  0  0  0  0  0  0  0  0  0  0
   -1.4042   -8.8813    3.6918 H   0  0  0  0  0  0  0  0  0  0  0  0
   -0.4118  -10.2940    3.3629 H   0  0  0  0  0  0  0  0  0  0  0  0
    0.6680   -7.5623    4.2053 H   0  0  0  0  0  0  0  0  0  0  0  0
    2.0824  -10.2501    3.8398 H   0  0  0  0  0  0  0  0  0  0  0  0
    2.3662   -8.7871    2.9057 H   0  0  0  0  0  0  0  0  0  0  0  0
    4.0741   -9.1837    4.7642 H   0  0  0  0  0  0  0  0  0  0  0  0
    3.2721   -7.6343    4.8971 H   0  0  0  0  0  0  0  0  0  0  0  0
    1.1219   -8.9216    7.5072 H   0  0  0  0  0  0  0  0  0  0  0  0
   -0.4784   -6.6975    6.1686 H   0  0  0  0  0  0  0  0  0  0  0  0
   -0.0624   -6.7235    7.8932 H   0  0  0  0  0  0  0  0  0  0  0  0
    1.2064   -3.0411    4.4010 H   0  0  0  0  0  0  0  0  0  0  0  0
   -0.1724   -4.1333    4.2558 H   0  0  0  0  0  0  0  0  0  0  0  0
   -0.6262   -1.3897    4.6678 H   0  0  0  0  0  0  0  0  0  0  0  0
   -2.6630   -1.0173    5.1424 H   0  0  0  0  0  0  0  0  0  0  0  0
    1.4827   -0.2861    5.9672 H   0  0  0  0  0  0  0  0  0  0  0  0
   -0.3850    1.4804    4.9992 H   0  0  0  0  0  0  0  0  0  0  0  0
    2.5597    2.2277    4.9118 H   0  0  0  0  0  0  0  0  0  0  0  0
    3.4561    1.4774    2.9601 H   0  0  0  0  0  0  0  0  0  0  0  0
    3.6004   -0.5470    0.0458 H   0  0  0  0  0  0  0  0  0  0  0  0
    4.4389    0.6931    0.9708 H   0  0  0  0  0  0  0  0  0  0  0  0
    4.0816   -2.2416    1.7576 H   0  0  0  0  0  0  0  0  0  0  0  0
    6.4345   -0.7690    1.1918 H   0  0  0  0  0  0  0  0  0  0  0  0
    5.3005   -1.8705    3.7354 H   0  0  0  0  0  0  0  0  0  0  0  0
    6.6609   -0.1457    2.9952 H   0  0  0  0  0  0  0  0  0  0  0  0
    2.9020   -1.3565    3.9903 H   0  0  0  0  0  0  0  0  0  0  0  0
    4.5075    0.7181    5.0370 H   0  0  0  0  0  0  0  0  0  0  0  0
    0.6748    4.9892    4.1945 H   0  0  0  0  0  0  0  0  0  0  0  0
   -0.8020    3.2028    2.4462 H   0  0  0  0  0  0  0  0  0  0  0  0
   -1.8268    3.3766    3.7958 H   0  0  0  0  0  0  0  0  0  0  0  0
   -0.8611    5.3056    2.1034 H   0  0  0  0  0  0  0  0  0  0  0  0
    0.9614    3.9276    6.2528 H   0  0  0  0  0  0  0  0  0  0  0  0
   -1.7248    3.2471    5.6425 H   0  0  0  0  0  0  0  0  0  0  0  0
    2.3557    0.3696    8.3209 H   0  0  0  0  0  0  0  0  0  0  0  0
   -0.3783   -0.1786    9.4432 H   0  0  0  0  0  0  0  0  0  0  0  0
    0.4822    1.3234    9.2649 H   0  0  0  0  0  0  0  0  0  0  0  0
    1.0423    0.1366   10.4268 H   0  0  0  0  0  0  0  0  0  0  0  0
    2.0237   -1.9332    9.9495 H   0  0  0  0  0  0  0  0  0  0  0  0
    3.9912   -0.3512    9.5281 H   0  0  0  0  0  0  0  0  0  0  0  0
    4.3347   -1.9663    9.9719 H   0  0  0  0  0  0  0  0  0  0  0  0
    4.8360   -0.6107    7.3300 H   0  0  0  0  0  0  0  0  0  0  0  0
    5.9437   -1.4496    8.3167 H   0  0  0  0  0  0  0  0  0  0  0  0
    6.0207   -3.7955    5.4842 H   0  0  0  0  0  0  0  0  0  0  0  0
    6.9831   -2.9707    6.6839 H   0  0  0  0  0  0  0  0  0  0  0  0
    6.0954   -2.0141    5.4400 H   0  0  0  0  0  0  0  0  0  0  0  0
    1.2077   -4.1214   10.1181 H   0  0  0  0  0  0  0  0  0  0  0  0
   -1.2728   -3.9691    8.7592 H   0  0  0  0  0  0  0  0  0  0  0  0
   -0.6177   -3.1740   10.7686 H   0  0  0  0  0  0  0  0  0  0  0  0
   -0.4456   -1.7662    7.9615 H   0  0  0  0  0  0  0  0  0  0  0  0
    2.8910   -1.5703    6.8524 H   0  0  0  0  0  0  0  0  0  0  0  0
  1  2  1  0
  1 56  1  0
  1 57  1  0
  1 58  1  0
  2 55  1  0
  2  3  1  0
  2 59  1  1
  3  4  1  0
  3 60  1  0
  3 61  1  0
  4  5  1  0
  4 62  1  0
  4 63  1  0
  5  6  1  0
  6  7  1  0
  6 55  1  0
  6 64  1  1
  7  8  1  0
  9  8  1  1
  8 65  1  0
  8 66  1  0
  9 13  1  0
  9 47  1  0
  9 10  1  0
 10 11  1  0
 12 11  1  6
 11 67  1  0
 11 68  1  0
 12 51  1  0
 12 13  1  0
 12 14  1  0
 14 15  1  0
 14 16  1  0
 14 69  1  6
 15 70  1  0
 16 17  1  0
 17 18  1  0
 17 37  1  0
 17 71  1  6
 18 19  1  0
 19 35  1  0
 19 20  1  0
 19 72  1  6
 20 21  1  0
 20 31  1  0
 20 73  1  1
 21 22  1  0
 22 29  1  0
 22 23  1  0
 22 74  1  6
 23 24  1  0
 24 25  1  0
 24 75  1  0
 24 76  1  0
 25 26  1  0
 25 27  1  0
 25 77  1  1
 26 78  1  0
 27 28  1  0
 27 29  1  0
 27 79  1  1
 28 80  1  0
 29 30  1  0
 29 81  1  1
 30 82  1  0
 31 32  1  0
 32 33  1  0
 32 35  1  0
 32 83  1  1
 33 34  1  0
 33 84  1  0
 33 85  1  0
 34 86  1  0
 35 36  1  0
 35 87  1  1
 36 88  1  0
 37 38  1  0
 37 39  1  0
 37 89  1  6
 38 90  1  0
 38 91  1  0
 38 92  1  0
 39 46  1  0
 39 40  1  0
 39 93  1  1
 40 41  1  0
 40 94  1  0
 40 95  1  0
 41 42  1  0
 41 96  1  0
 41 97  1  0
 42 54  1  0
 42 43  1  6
 42 44  1  0
 43 98  1  0
 43 99  1  0
 43100  1  0
 44 45  1  0
 46 45  1  1
 46 53  1  0
 46 47  1  0
 47 48  2  0
 48 49  1  0
 48101  1  0
 49 50  1  0
 49 51  1  0
 49102  1  6
 50103  1  0
 51 52  1  0
 51104  1  1
 52 53  1  0
 53 54  1  0
 53105  1  1
M  END
>  <i_m_ct_stereo_status>  (149) 
1

>  <s_m_source_file>  (149) 
/var/tmp/pbs.5076253.sched01/tmp9pzrzrnh/1418a54yjb5.sdf

>  <i_m_source_file_index>  (149) 
31

>  <i_lp_mmshare_version>  (149) 
48012

>  <i_f3d_flags>  (149) 
0

>  <s_epik_input>  (149) 
W0NIM11bQ0BASF0xW0NIMl1bQ0gyXU9bQ0BIXShPMSlPW0NIMl1bQ0BdKE8yKShPW0NIMl0zKUMoPVtDSF1bQ0BASF0oW09IXSlbQ0BASF00QzIzNSlbQ0BAXTY3W0NAQEhdKFtDSDJdW0NIMl1bQ0BAXShbQ0gzXSkoT082KU9bQ0BIXTdPNClbQ0BIXShbQ0gzXSlbQ0BASF0oT1tDQEBIXTVbT0hdKU9bQ0BASF04W0NASF0oT1tDQEBIXShbQ0gyXVtPSF0pW0NASF04W09IXSlPW0NAQEhdOU9bQ0gyXVtDQEBIXShbT0hdKVtDQEBIXShbT0hdKVtDQEhdOVtPSF0=

>  <s_epik_cmdline>  (149) 
J2VwaWtfcHl0aG9uJywgJy1waHQnLCAnMi4wJywgJy1waCcsICc3LjAnLCAnLXRuJywgJzgnLCAnLW1hJywgJzIwMCcsICctaW1hZScsICc8aW5maWxlLm1hZT4nLCAnLW9tYWUnLCAnPG91dGZpbGUubWFlPic=

>  <r_epik_Ionization_Penalty>  (149) 
0.00201932

>  <r_epik_Ionization_Penalty_Charging>  (149) 
0

>  <r_epik_Ionization_Penalty_Neutral>  (149) 
0.00201932

>  <r_epik_State_Penalty>  (149) 
0.00136338

>  <r_epik_Charging_Adjusted_Penalty>  (149) 
0.00136338

>  <i_epik_Tot_Q>  (149) 
0

>  <i_epik_Tot_abs_Q>  (149) 
0

>  <s_epik_Chemistry_Notes>  (149) 
This compound contains an acetal/aminal-like group ( X-CH(R)-Y where X, Y are N, S, or O) that may be acid/base labile, releasing an aldehyde.

>  <s_lp_Force_Field>  (149) 
OPLS3e

>  <r_lp_Energy>  (149) 
444.739

>  <b_lp_Chiralities_Consistent>  (149) 
1

>  <s_lp_Variant>  (149) 
99:0-1

>  <s_i_glide_gridfile>  (149) 
pfpi4k_grid

>  <i_i_glide_lignum>  (149) 
31

>  <i_i_glide_rotatable_bonds>  (149) 
15

>  <r_i_docking_score>  (149) 
-3.6476

>  <r_i_glide_ligand_efficiency>  (149) 
-0.06632

>  <r_i_glide_ligand_efficiency_sa>  (149) 
-0.252212

>  <r_i_glide_ligand_efficiency_ln>  (149) 
-0.728452

>  <r_i_glide_gscore>  (149) 
-3.6476

>  <r_i_glide_lipo>  (149) 
-0.213318

>  <r_i_glide_hbond>  (149) 
-0.16

>  <r_i_glide_metal>  (149) 
-0

>  <r_i_glide_rewards>  (149) 
-0.0145125

>  <r_i_glide_evdw>  (149) 
-26.4486

>  <r_i_glide_ecoul>  (149) 
-12.7915

>  <r_i_glide_erotb>  (149) 
0.0725263

>  <r_i_glide_esite>  (149) 
-0.0911422

>  <r_i_glide_emodel>  (149) 
-43.5052

>  <r_i_glide_energy>  (149) 
-39.2401

>  <r_i_glide_einternal>  (149) 
9.75015

>  <r_i_glide_intrahb_reward>  (149) 
-0

>  <i_i_glide_confnum>  (149) 
3

>  <i_i_glide_posenum>  (149) 
26

>  <r_i_glide_eff_state_penalty>  (149) 
0

>  <ligand_id>  (149) 
99

>  <original_smiles>  (149) 
CC1CCOC(OCC23OCC4(O2)C(O)OC(OC2C(OC5OCC(O)C(O)C5O)OC(CO)C2O)C(C)C2CCC5(C)OOC26C3=CC(O)C4OC6O5)O1

>  <smiles>  (149) 
[H]OC([H])([H])C1([H])OC([H])(OC2([H])OC([H])([H])C([H])(O[H])C([H])(O[H])C2([H])O[H])C([H])(OC2([H])OC([H])(O[H])C34OC(C([H])([H])OC5([H])OC([H])([H])C([H])([H])C([H])(C([H])([H])[H])O5)(OC3([H])[H])C3=C([H])C([H])(O[H])C4([H])OC4([H])OC5(C([H])([H])[H])OOC34C([H])(C([H])([H])C5([H])[H])C2([H])C([H])([H])[H])C1([H])O[H]

$$$$
99:0:1
     RDKit          3D

105113  0  0  1  0  0  0  0  0999 V2000
    2.3245   -3.0697   -1.8841 C   0  0  0  0  0  0  0  0  0  0  0  0
    3.1810   -2.9970   -0.6156 C   0  0  2  0  0  0  0  0  0  0  0  0
    4.6550   -2.6771   -0.9075 C   0  0  0  0  0  0  0  0  0  0  0  0
    5.4843   -2.8025    0.3763 C   0  0  0  0  0  0  0  0  0  0  0  0
    5.2258   -4.0723    0.9570 O   0  0  0  0  0  0  0  0  0  0  0  0
    3.8802   -4.2469    1.2587 C   0  0  1  0  0  0  0  0  0  0  0  0
    3.4829   -3.3484    2.2397 O   0  0  0  0  0  0  0  0  0  0  0  0
    2.1141   -3.4133    2.5916 C   0  0  0  0  0  0  0  0  0  0  0  0
    1.8944   -2.5227    3.7959 C   0  0  1  0  0  0  0  0  0  0  0  0
    2.1741   -1.2631    3.3421 O   0  0  0  0  0  0  0  0  0  0  0  0
    1.0534   -0.5094    3.7560 C   0  0  0  0  0  0  0  0  0  0  0  0
    0.3513   -1.3458    4.9073 C   0  0  2  0  0  0  0  0  0  0  0  0
    0.4211   -2.4854    4.0598 O   0  0  0  0  0  0  0  0  0  0  0  0
   -0.7800   -0.4957    5.6843 C   0  0  1  0  0  0  0  0  0  0  0  0
   -2.0531   -1.0283    5.3995 O   0  0  0  0  0  0  0  0  0  0  0  0
   -0.5852   -0.3367    7.1739 O   0  0  0  0  0  0  0  0  0  0  0  0
    0.6749    0.0926    7.8601 C   0  0  1  0  0  0  0  0  0  0  0  0
    0.3241    0.9104    8.9424 O   0  0  0  0  0  0  0  0  0  0  0  0
   -0.5020    2.0496    8.6478 C   0  0  2  0  0  0  0  0  0  0  0  0
    0.2875    3.2003    7.9894 C   0  0  1  0  0  0  0  0  0  0  0  0
    0.1948    3.1388    6.5821 O   0  0  0  0  0  0  0  0  0  0  0  0
    1.0643    4.0358    5.9357 C   0  0  2  0  0  0  0  0  0  0  0  0
    0.7004    5.3388    6.2742 O   0  0  0  0  0  0  0  0  0  0  0  0
    1.5372    6.3520    5.7652 C   0  0  0  0  0  0  0  0  0  0  0  0
    1.3535    6.3803    4.2492 C   0  0  1  0  0  0  0  0  0  0  0  0
    2.1344    7.4025    3.6784 O   0  0  0  0  0  0  0  0  0  0  0  0
    1.6619    5.0001    3.6589 C   0  0  1  0  0  0  0  0  0  0  0  0
    3.0525    4.7110    3.7648 O   0  0  0  0  0  0  0  0  0  0  0  0
    0.8341    3.9287    4.4099 C   0  0  1  0  0  0  0  0  0  0  0  0
    1.3100    2.7327    3.8662 O   0  0  0  0  0  0  0  0  0  0  0  0
   -0.2568    4.3767    8.5186 O   0  0  0  0  0  0  0  0  0  0  0  0
   -1.2625    4.1583    9.4948 C   0  0  1  0  0  0  0  0  0  0  0  0
   -2.6670    4.3458    8.8419 C   0  0  0  0  0  0  0  0  0  0  0  0
   -2.8804    5.7000    8.5287 O   0  0  0  0  0  0  0  0  0  0  0  0
   -0.9552    2.7264    9.9533 C   0  0  1  0  0  0  0  0  0  0  0  0
   -2.1393    2.1349   10.4826 O   0  0  0  0  0  0  0  0  0  0  0  0
    1.7472   -1.0905    8.5276 C   0  0  1  0  0  0  0  0  0  0  0  0
    0.9529   -1.9759    9.5131 C   0  0  0  0  0  0  0  0  0  0  0  0
    3.0980   -1.9448    7.8149 C   0  0  2  0  0  0  0  0  0  0  0  0
    4.4340   -1.3596    8.4525 C   0  0  0  0  0  0  0  0  0  0  0  0
    5.0959   -0.0818    7.7660 C   0  0  0  0  0  0  0  0  0  0  0  0
    5.2044   -0.0435    6.1653 C   0  0  1  0  0  0  0  0  0  0  0  0
    6.1278    1.0876    5.7125 C   0  0  0  0  0  0  0  0  0  0  0  0
    5.8106   -1.2396    5.7735 O   0  0  0  0  0  0  0  0  0  0  0  0
    4.9692   -2.3931    6.2558 O   0  0  0  0  0  0  0  0  0  0  0  0
    3.5494   -2.1141    6.2143 C   0  0  1  0  0  0  0  0  0  0  0  0
    2.8884   -3.0116    5.0227 C   0  0  0  0  0  0  0  0  0  0  0  0
    2.3891   -4.0890    5.5995 C   0  0  0  0  0  0  0  0  0  0  0  0
    1.0622   -3.6918    6.0931 C   0  0  1  0  0  0  0  0  0  0  0  0
    0.8240   -4.2848    7.3554 O   0  0  0  0  0  0  0  0  0  0  0  0
    0.8893   -2.0766    6.0935 C   0  0  1  0  0  0  0  0  0  0  0  0
    1.7918   -0.8937    5.8895 O   0  0  0  0  0  0  0  0  0  0  0  0
    3.1230   -0.7496    6.0592 C   0  0  2  0  0  0  0  0  0  0  0  0
    3.9835    0.0662    5.3934 O   0  0  0  0  0  0  0  0  0  0  0  0
    3.0960   -4.2230    0.0984 O   0  0  0  0  0  0  0  0  0  0  0  0
    2.2936   -2.0905   -2.3638 H   0  0  0  0  0  0  0  0  0  0  0  0
    1.2973   -3.3545   -1.6532 H   0  0  0  0  0  0  0  0  0  0  0  0
    2.7226   -3.7984   -2.5914 H   0  0  0  0  0  0  0  0  0  0  0  0
    2.7730   -2.2207    0.0237 H   0  0  0  0  0  0  0  0  0  0  0  0
    5.0441   -3.3753   -1.6492 H   0  0  0  0  0  0  0  0  0  0  0  0
    4.7429   -1.6701   -1.3185 H   0  0  0  0  0  0  0  0  0  0  0  0
    6.5485   -2.7189    0.1606 H   0  0  0  0  0  0  0  0  0  0  0  0
    5.2481   -2.0031    1.0791 H   0  0  0  0  0  0  0  0  0  0  0  0
    3.7988   -5.2502    1.6707 H   0  0  0  0  0  0  0  0  0  0  0  0
    1.4950   -3.0225    1.7886 H   0  0  0  0  0  0  0  0  0  0  0  0
    1.7971   -4.4251    2.8388 H   0  0  0  0  0  0  0  0  0  0  0  0
    1.4479    0.4214    4.1213 H   0  0  0  0  0  0  0  0  0  0  0  0
    0.3816   -0.3267    2.9177 H   0  0  0  0  0  0  0  0  0  0  0  0
   -0.7737    0.5300    5.3042 H   0  0  0  0  0  0  0  0  0  0  0  0
   -2.4472   -0.4943    4.7203 H   0  0  0  0  0  0  0  0  0  0  0  0
    1.1909    0.8256    7.2404 H   0  0  0  0  0  0  0  0  0  0  0  0
   -1.3714    1.8139    8.0289 H   0  0  0  0  0  0  0  0  0  0  0  0
    1.3223    3.1945    8.3383 H   0  0  0  0  0  0  0  0  0  0  0  0
    2.1098    3.8218    6.1911 H   0  0  0  0  0  0  0  0  0  0  0  0
    1.2231    7.2962    6.2082 H   0  0  0  0  0  0  0  0  0  0  0  0
    2.5706    6.1684    6.0603 H   0  0  0  0  0  0  0  0  0  0  0  0
    0.3068    6.6018    4.0392 H   0  0  0  0  0  0  0  0  0  0  0  0
    1.5703    7.8412    3.0404 H   0  0  0  0  0  0  0  0  0  0  0  0
    1.4020    4.9810    2.5995 H   0  0  0  0  0  0  0  0  0  0  0  0
    3.2192    3.9208    3.2662 H   0  0  0  0  0  0  0  0  0  0  0  0
   -0.2430    4.0403    4.2393 H   0  0  0  0  0  0  0  0  0  0  0  0
    1.0413    2.7249    2.9598 H   0  0  0  0  0  0  0  0  0  0  0  0
   -1.1262    4.8715   10.3093 H   0  0  0  0  0  0  0  0  0  0  0  0
   -2.8345    3.7134    7.9663 H   0  0  0  0  0  0  0  0  0  0  0  0
   -3.4664    4.1128    9.5469 H   0  0  0  0  0  0  0  0  0  0  0  0
   -2.8692    6.1979    9.3338 H   0  0  0  0  0  0  0  0  0  0  0  0
   -0.1456    2.7366   10.6978 H   0  0  0  0  0  0  0  0  0  0  0  0
   -2.2062    2.2352   11.4240 H   0  0  0  0  0  0  0  0  0  0  0  0
    2.2815   -0.4319    9.2129 H   0  0  0  0  0  0  0  0  0  0  0  0
    0.1585   -2.5517    9.0439 H   0  0  0  0  0  0  0  0  0  0  0  0
    0.4721   -1.3653   10.2764 H   0  0  0  0  0  0  0  0  0  0  0  0
    1.6032   -2.6760   10.0381 H   0  0  0  0  0  0  0  0  0  0  0  0
    3.0532   -2.9559    8.2040 H   0  0  0  0  0  0  0  0  0  0  0  0
    4.2842   -1.1586    9.5058 H   0  0  0  0  0  0  0  0  0  0  0  0
    5.1881   -2.1530    8.4693 H   0  0  0  0  0  0  0  0  0  0  0  0
    4.5722    0.8140    8.1092 H   0  0  0  0  0  0  0  0  0  0  0  0
    6.0971    0.0155    8.1812 H   0  0  0  0  0  0  0  0  0  0  0  0
    6.2870    0.9964    4.6418 H   0  0  0  0  0  0  0  0  0  0  0  0
    7.1088    1.0240    6.1837 H   0  0  0  0  0  0  0  0  0  0  0  0
    5.7106    2.0733    5.9284 H   0  0  0  0  0  0  0  0  0  0  0  0
    2.9561   -4.5007    6.4102 H   0  0  0  0  0  0  0  0  0  0  0  0
    0.3052   -4.1928    5.4894 H   0  0  0  0  0  0  0  0  0  0  0  0
    1.5046   -4.0160    7.9511 H   0  0  0  0  0  0  0  0  0  0  0  0
    0.2081   -2.1839    6.9026 H   0  0  0  0  0  0  0  0  0  0  0  0
    3.0072   -0.0341    6.8592 H   0  0  0  0  0  0  0  0  0  0  0  0
  1  2  1  0
  1 56  1  0
  1 57  1  0
  1 58  1  0
  2 55  1  0
  2  3  1  0
  2 59  1  1
  3  4  1  0
  3 60  1  0
  3 61  1  0
  4  5  1  0
  4 62  1  0
  4 63  1  0
  5  6  1  0
  6  7  1  0
  6 55  1  0
  6 64  1  1
  7  8  1  0
  9  8  1  6
  8 65  1  0
  8 66  1  0
  9 13  1  0
  9 47  1  0
  9 10  1  0
 10 11  1  0
 12 11  1  6
 11 67  1  0
 11 68  1  0
 12 51  1  0
 12 13  1  0
 12 14  1  0
 14 15  1  0
 14 16  1  0
 14 69  1  6
 15 70  1  0
 16 17  1  0
 17 18  1  0
 17 37  1  0
 17 71  1  6
 18 19  1  0
 19 35  1  0
 19 20  1  0
 19 72  1  6
 20 21  1  0
 20 31  1  0
 20 73  1  6
 21 22  1  0
 22 29  1  0
 22 23  1  0
 22 74  1  6
 23 24  1  0
 24 25  1  0
 24 75  1  0
 24 76  1  0
 25 26  1  0
 25 27  1  0
 25 77  1  1
 26 78  1  0
 27 28  1  0
 27 29  1  0
 27 79  1  6
 28 80  1  0
 29 30  1  0
 29 81  1  1
 30 82  1  0
 31 32  1  0
 32 33  1  0
 32 35  1  0
 32 83  1  1
 33 34  1  0
 33 84  1  0
 33 85  1  0
 34 86  1  0
 35 36  1  0
 35 87  1  1
 36 88  1  0
 37 38  1  0
 37 39  1  0
 37 89  1  1
 38 90  1  0
 38 91  1  0
 38 92  1  0
 39 46  1  0
 39 40  1  0
 39 93  1  1
 40 41  1  0
 40 94  1  0
 40 95  1  0
 41 42  1  0
 41 96  1  0
 41 97  1  0
 42 54  1  0
 42 43  1  1
 42 44  1  0
 43 98  1  0
 43 99  1  0
 43100  1  0
 44 45  1  0
 46 45  1  1
 46 53  1  0
 46 47  1  0
 47 48  2  0
 48 49  1  0
 48101  1  0
 49 50  1  0
 49 51  1  0
 49102  1  6
 50103  1  0
 51 52  1  0
 51104  1  1
 52 53  1  0
 53 54  1  0
 53105  1  1
M  END
>  <i_m_ct_stereo_status>  (150) 
1

>  <s_m_source_file>  (150) 
/var/tmp/pbs.5076253.sched01/tmp9pzrzrnh/1418a54yjb5.sdf

>  <i_m_source_file_index>  (150) 
31

>  <i_lp_mmshare_version>  (150) 
48012

>  <i_f3d_flags>  (150) 
0

>  <s_epik_input>  (150) 
W0NIM11bQ0BASF0xW0NIMl1bQ0gyXU9bQ0BIXShPMSlPW0NIMl1bQ0BdKE8yKShPW0NIMl0zKUMoPVtDSF1bQ0BASF0oW09IXSlbQ0BASF00QzIzNSlbQ0BAXTY3W0NAQEhdKFtDSDJdW0NIMl1bQ0BAXShbQ0gzXSkoT082KU9bQ0BIXTdPNClbQ0BIXShbQ0gzXSlbQ0BASF0oT1tDQEBIXTVbT0hdKU9bQ0BASF04W0NASF0oT1tDQEBIXShbQ0gyXVtPSF0pW0NASF04W09IXSlPW0NAQEhdOU9bQ0gyXVtDQEBIXShbT0hdKVtDQEBIXShbT0hdKVtDQEhdOVtPSF0=

>  <s_epik_cmdline>  (150) 
J2VwaWtfcHl0aG9uJywgJy1waHQnLCAnMi4wJywgJy1waCcsICc3LjAnLCAnLXRuJywgJzgnLCAnLW1hJywgJzIwMCcsICctaW1hZScsICc8aW5maWxlLm1hZT4nLCAnLW9tYWUnLCAnPG91dGZpbGUubWFlPic=

>  <r_epik_Ionization_Penalty>  (150) 
0.00201932

>  <r_epik_Ionization_Penalty_Charging>  (150) 
0

>  <r_epik_Ionization_Penalty_Neutral>  (150) 
0.00201932

>  <r_epik_State_Penalty>  (150) 
0.00136338

>  <r_epik_Charging_Adjusted_Penalty>  (150) 
0.00136338

>  <i_epik_Tot_Q>  (150) 
0

>  <i_epik_Tot_abs_Q>  (150) 
0

>  <s_epik_Chemistry_Notes>  (150) 
This compound contains an acetal/aminal-like group ( X-CH(R)-Y where X, Y are N, S, or O) that may be acid/base labile, releasing an aldehyde.

>  <s_lp_Force_Field>  (150) 
OPLS3e

>  <r_lp_Energy>  (150) 
444.739

>  <b_lp_Chiralities_Consistent>  (150) 
1

>  <s_lp_Variant>  (150) 
99:0-1

>  <s_i_glide_gridfile>  (150) 
pfpi4k_grid

>  <i_i_glide_lignum>  (150) 
31

>  <i_i_glide_rotatable_bonds>  (150) 
15

>  <r_i_docking_score>  (150) 
-3.62129

>  <r_i_glide_ligand_efficiency>  (150) 
-0.0658417

>  <r_i_glide_ligand_efficiency_sa>  (150) 
-0.250393

>  <r_i_glide_ligand_efficiency_ln>  (150) 
-0.723198

>  <r_i_glide_gscore>  (150) 
-3.62129

>  <r_i_glide_lipo>  (150) 
-0.216759

>  <r_i_glide_hbond>  (150) 
-0.0506336

>  <r_i_glide_metal>  (150) 
-0

>  <r_i_glide_rewards>  (150) 
-0.0485634

>  <r_i_glide_evdw>  (150) 
-25.3374

>  <r_i_glide_ecoul>  (150) 
-13.946

>  <r_i_glide_erotb>  (150) 
0.0725263

>  <r_i_glide_esite>  (150) 
-0.0599275

>  <r_i_glide_emodel>  (150) 
-42.0149

>  <r_i_glide_energy>  (150) 
-39.2834

>  <r_i_glide_einternal>  (150) 
9.24627

>  <r_i_glide_intrahb_reward>  (150) 
-0

>  <i_i_glide_confnum>  (150) 
10

>  <i_i_glide_posenum>  (150) 
2

>  <r_i_glide_eff_state_penalty>  (150) 
0

>  <ligand_id>  (150) 
99

>  <original_smiles>  (150) 
CC1CCOC(OCC23OCC4(O2)C(O)OC(OC2C(OC5OCC(O)C(O)C5O)OC(CO)C2O)C(C)C2CCC5(C)OOC26C3=CC(O)C4OC6O5)O1

>  <smiles>  (150) 
[H]OC([H])([H])C1([H])OC([H])(OC2([H])OC([H])([H])C([H])(O[H])C([H])(O[H])C2([H])O[H])C([H])(OC2([H])OC([H])(O[H])C34OC(C([H])([H])OC5([H])OC([H])([H])C([H])([H])C([H])(C([H])([H])[H])O5)(OC3([H])[H])C3=C([H])C([H])(O[H])C4([H])OC4([H])OC5(C([H])([H])[H])OOC34C([H])(C([H])([H])C5([H])[H])C2([H])C([H])([H])[H])C1([H])O[H]

$$$$
99:0:2
     RDKit          3D

105113  0  0  1  0  0  0  0  0999 V2000
    0.8066  -10.3796    4.5223 C   0  0  0  0  0  0  0  0  0  0  0  0
    1.4838   -9.4320    5.5172 C   0  0  2  0  0  0  0  0  0  0  0  0
    2.8727   -9.9384    5.9403 C   0  0  0  0  0  0  0  0  0  0  0  0
    3.4291   -9.0582    7.0646 C   0  0  0  0  0  0  0  0  0  0  0  0
    2.4560   -8.9845    8.0969 O   0  0  0  0  0  0  0  0  0  0  0  0
    1.2463   -8.4609    7.6463 C   0  0  1  0  0  0  0  0  0  0  0  0
    1.4253   -7.1556    7.2272 O   0  0  0  0  0  0  0  0  0  0  0  0
    0.2557   -6.4539    6.8617 C   0  0  0  0  0  0  0  0  0  0  0  0
    0.6096   -4.9640    6.8332 C   0  0  1  0  0  0  0  0  0  0  0  0
    1.3270   -4.7487    5.6717 O   0  0  0  0  0  0  0  0  0  0  0  0
    0.6602   -3.6587    5.0369 C   0  0  0  0  0  0  0  0  0  0  0  0
   -0.1653   -2.9473    6.2041 C   0  0  2  0  0  0  0  0  0  0  0  0
   -0.6656   -4.2262    6.5799 O   0  0  0  0  0  0  0  0  0  0  0  0
   -0.7771   -1.5165    5.7686 C   0  0  1  0  0  0  0  0  0  0  0  0
   -2.1761   -1.5930    5.6750 O   0  0  0  0  0  0  0  0  0  0  0  0
   -0.3759   -0.3445    6.6148 O   0  0  0  0  0  0  0  0  0  0  0  0
    1.0219   -0.0043    7.0057 C   0  0  1  0  0  0  0  0  0  0  0  0
    1.1534    1.3871    6.9451 O   0  0  0  0  0  0  0  0  0  0  0  0
    0.7264    2.0032    5.7241 C   0  0  2  0  0  0  0  0  0  0  0  0
    1.8358    2.0036    4.6575 C   0  0  1  0  0  0  0  0  0  0  0  0
    1.7402    0.8295    3.9008 O   0  0  0  0  0  0  0  0  0  0  0  0
    2.9258    0.5165    3.2296 C   0  0  2  0  0  0  0  0  0  0  0  0
    2.6432    0.1498    1.9136 O   0  0  0  0  0  0  0  0  0  0  0  0
    3.7905   -0.1579    1.1251 C   0  0  0  0  0  0  0  0  0  0  0  0
    4.4873   -1.3992    1.6957 C   0  0  1  0  0  0  0  0  0  0  0  0
    5.6828   -1.6610    0.9821 O   0  0  0  0  0  0  0  0  0  0  0  0
    4.8057   -1.1941    3.1892 C   0  0  1  0  0  0  0  0  0  0  0  0
    5.8255   -0.2269    3.3630 O   0  0  0  0  0  0  0  0  0  0  0  0
    3.5536   -0.7099    3.9417 C   0  0  1  0  0  0  0  0  0  0  0  0
    3.9638   -0.3771    5.2510 O   0  0  0  0  0  0  0  0  0  0  0  0
    1.6212    3.1570    3.8938 O   0  0  0  0  0  0  0  0  0  0  0  0
    0.6716    4.0313    4.5098 C   0  0  1  0  0  0  0  0  0  0  0  0
   -0.6423    4.0185    3.6694 C   0  0  0  0  0  0  0  0  0  0  0  0
   -0.9660    5.3276    3.2449 O   0  0  0  0  0  0  0  0  0  0  0  0
    0.5676    3.4950    5.9480 C   0  0  1  0  0  0  0  0  0  0  0  0
   -0.6719    3.7864    6.5707 O   0  0  0  0  0  0  0  0  0  0  0  0
    1.6307   -0.4451    8.5686 C   0  0  1  0  0  0  0  0  0  0  0  0
    0.6912    0.1654    9.6285 C   0  0  0  0  0  0  0  0  0  0  0  0
    2.4144   -1.9020    9.1515 C   0  0  2  0  0  0  0  0  0  0  0  0
    3.9461   -1.5507    9.4232 C   0  0  0  0  0  0  0  0  0  0  0  0
    4.9834   -1.6925    8.2180 C   0  0  0  0  0  0  0  0  0  0  0  0
    4.9030   -2.9891    7.2659 C   0  0  1  0  0  0  0  0  0  0  0  0
    6.1372   -3.0706    6.3585 C   0  0  0  0  0  0  0  0  0  0  0  0
    4.9145   -4.1154    8.0982 O   0  0  0  0  0  0  0  0  0  0  0  0
    3.7335   -4.0241    9.0378 O   0  0  0  0  0  0  0  0  0  0  0  0
    2.5615   -3.4129    8.4389 C   0  0  1  0  0  0  0  0  0  0  0  0
    1.4429   -4.5873    8.2257 C   0  0  0  0  0  0  0  0  0  0  0  0
    0.6298   -4.5121    9.2603 C   0  0  0  0  0  0  0  0  0  0  0  0
   -0.3390   -3.4634    8.9032 C   0  0  1  0  0  0  0  0  0  0  0  0
   -0.6251   -2.6699   10.0464 O   0  0  0  0  0  0  0  0  0  0  0  0
    0.1673   -2.5903    7.6240 C   0  0  1  0  0  0  0  0  0  0  0  0
    1.4347   -2.4556    6.8388 O   0  0  0  0  0  0  0  0  0  0  0  0
    2.7121   -2.7118    7.1907 C   0  0  2  0  0  0  0  0  0  0  0  0
    3.7463   -3.1280    6.4045 O   0  0  0  0  0  0  0  0  0  0  0  0
    0.6658   -9.2695    6.6689 O   0  0  0  0  0  0  0  0  0  0  0  0
    1.3741  -10.4299    3.5922 H   0  0  0  0  0  0  0  0  0  0  0  0
   -0.1930  -10.0312    4.2719 H   0  0  0  0  0  0  0  0  0  0  0  0
    0.7167  -11.3924    4.9228 H   0  0  0  0  0  0  0  0  0  0  0  0
    1.5766   -8.4547    5.0462 H   0  0  0  0  0  0  0  0  0  0  0  0
    2.8080  -10.9706    6.2934 H   0  0  0  0  0  0  0  0  0  0  0  0
    3.5508   -9.9304    5.0874 H   0  0  0  0  0  0  0  0  0  0  0  0
    4.3441   -9.4821    7.4735 H   0  0  0  0  0  0  0  0  0  0  0  0
    3.6760   -8.0593    6.6977 H   0  0  0  0  0  0  0  0  0  0  0  0
    0.5802   -8.4735    8.5112 H   0  0  0  0  0  0  0  0  0  0  0  0
   -0.1201   -6.7678    5.8830 H   0  0  0  0  0  0  0  0  0  0  0  0
   -0.5397   -6.5910    7.6021 H   0  0  0  0  0  0  0  0  0  0  0  0
    1.3827   -3.0202    4.5274 H   0  0  0  0  0  0  0  0  0  0  0  0
   -0.0143   -4.0514    4.2735 H   0  0  0  0  0  0  0  0  0  0  0  0
   -0.4104   -1.2934    4.7645 H   0  0  0  0  0  0  0  0  0  0  0  0
   -2.4572   -0.8702    5.1347 H   0  0  0  0  0  0  0  0  0  0  0  0
    1.6684   -0.3051    6.1903 H   0  0  0  0  0  0  0  0  0  0  0  0
   -0.1930    1.6091    5.2916 H   0  0  0  0  0  0  0  0  0  0  0  0
    2.8109    2.1081    5.1443 H   0  0  0  0  0  0  0  0  0  0  0  0
    3.6097    1.3631    3.1911 H   0  0  0  0  0  0  0  0  0  0  0  0
    3.4874   -0.3349    0.0934 H   0  0  0  0  0  0  0  0  0  0  0  0
    4.4667    0.6968    1.1147 H   0  0  0  0  0  0  0  0  0  0  0  0
    3.8237   -2.2593    1.5912 H   0  0  0  0  0  0  0  0  0  0  0  0
    6.2967   -0.9749    1.1930 H   0  0  0  0  0  0  0  0  0  0  0  0
    5.1508   -2.1433    3.6019 H   0  0  0  0  0  0  0  0  0  0  0  0
    5.4515    0.6333    3.2544 H   0  0  0  0  0  0  0  0  0  0  0  0
    2.8110   -1.5015    3.9413 H   0  0  0  0  0  0  0  0  0  0  0  0
    4.6802    0.2248    5.1888 H   0  0  0  0  0  0  0  0  0  0  0  0
    1.0994    5.0339    4.5338 H   0  0  0  0  0  0  0  0  0  0  0  0
   -0.5522    3.3630    2.8054 H   0  0  0  0  0  0  0  0  0  0  0  0
   -1.5178    3.6570    4.2005 H   0  0  0  0  0  0  0  0  0  0  0  0
   -0.5164    5.4662    2.4183 H   0  0  0  0  0  0  0  0  0  0  0  0
    1.3798    3.9025    6.5562 H   0  0  0  0  0  0  0  0  0  0  0  0
   -1.3656    3.4579    6.0254 H   0  0  0  0  0  0  0  0  0  0  0  0
    2.4705    0.2465    8.5991 H   0  0  0  0  0  0  0  0  0  0  0  0
   -0.3234   -0.2257    9.5759 H   0  0  0  0  0  0  0  0  0  0  0  0
    0.6000    1.2435    9.4872 H   0  0  0  0  0  0  0  0  0  0  0  0
    1.0631    0.0038   10.6409 H   0  0  0  0  0  0  0  0  0  0  0  0
    2.0106   -2.0855   10.1494 H   0  0  0  0  0  0  0  0  0  0  0  0
    4.0364   -0.5566    9.8497 H   0  0  0  0  0  0  0  0  0  0  0  0
    4.3146   -2.1904   10.2308 H   0  0  0  0  0  0  0  0  0  0  0  0
    4.9259   -0.7844    7.6132 H   0  0  0  0  0  0  0  0  0  0  0  0
    5.9871   -1.6477    8.6439 H   0  0  0  0  0  0  0  0  0  0  0  0
    6.1156   -3.9929    5.7783 H   0  0  0  0  0  0  0  0  0  0  0  0
    7.0562   -3.0636    6.9434 H   0  0  0  0  0  0  0  0  0  0  0  0
    6.1829   -2.2266    5.6702 H   0  0  0  0  0  0  0  0  0  0  0  0
    1.0853   -4.2680   10.2067 H   0  0  0  0  0  0  0  0  0  0  0  0
   -1.3062   -3.9372    8.7307 H   0  0  0  0  0  0  0  0  0  0  0  0
    0.1732   -2.4801   10.5108 H   0  0  0  0  0  0  0  0  0  0  0  0
   -0.3677   -1.7709    8.0345 H   0  0  0  0  0  0  0  0  0  0  0  0
    2.9938   -1.6792    7.0805 H   0  0  0  0  0  0  0  0  0  0  0  0
  1  2  1  0
  1 56  1  0
  1 57  1  0
  1 58  1  0
  2 55  1  0
  2  3  1  0
  2 59  1  6
  3  4  1  0
  3 60  1  0
  3 61  1  0
  4  5  1  0
  4 62  1  0
  4 63  1  0
  5  6  1  0
  6  7  1  0
  6 55  1  0
  6 64  1  1
  7  8  1  0
  9  8  1  1
  8 65  1  0
  8 66  1  0
  9 13  1  0
  9 47  1  0
  9 10  1  0
 10 11  1  0
 12 11  1  6
 11 67  1  0
 11 68  1  0
 12 51  1  0
 12 13  1  0
 12 14  1  0
 14 15  1  0
 14 16  1  0
 14 69  1  6
 15 70  1  0
 16 17  1  0
 17 18  1  0
 17 37  1  0
 17 71  1  6
 18 19  1  0
 19 35  1  0
 19 20  1  0
 19 72  1  6
 20 21  1  0
 20 31  1  0
 20 73  1  1
 21 22  1  0
 22 29  1  0
 22 23  1  0
 22 74  1  6
 23 24  1  0
 24 25  1  0
 24 75  1  0
 24 76  1  0
 25 26  1  0
 25 27  1  0
 25 77  1  1
 26 78  1  0
 27 28  1  0
 27 29  1  0
 27 79  1  1
 28 80  1  0
 29 30  1  0
 29 81  1  1
 30 82  1  0
 31 32  1  0
 32 33  1  0
 32 35  1  0
 32 83  1  1
 33 34  1  0
 33 84  1  0
 33 85  1  0
 34 86  1  0
 35 36  1  0
 35 87  1  1
 36 88  1  0
 37 38  1  0
 37 39  1  0
 37 89  1  1
 38 90  1  0
 38 91  1  0
 38 92  1  0
 39 46  1  0
 39 40  1  0
 39 93  1  1
 40 41  1  0
 40 94  1  0
 40 95  1  0
 41 42  1  0
 41 96  1  0
 41 97  1  0
 42 54  1  0
 42 43  1  6
 42 44  1  0
 43 98  1  0
 43 99  1  0
 43100  1  0
 44 45  1  0
 46 45  1  1
 46 53  1  0
 46 47  1  0
 47 48  2  0
 48 49  1  0
 48101  1  0
 49 50  1  0
 49 51  1  0
 49102  1  6
 50103  1  0
 51 52  1  0
 51104  1  1
 52 53  1  0
 53 54  1  0
 53105  1  1
M  END
>  <i_m_ct_stereo_status>  (151) 
1

>  <s_m_source_file>  (151) 
/var/tmp/pbs.5076253.sched01/tmp9pzrzrnh/1418a54yjb5.sdf

>  <i_m_source_file_index>  (151) 
31

>  <i_lp_mmshare_version>  (151) 
48012

>  <i_f3d_flags>  (151) 
0

>  <s_epik_input>  (151) 
W0NIM11bQ0BASF0xW0NIMl1bQ0gyXU9bQ0BIXShPMSlPW0NIMl1bQ0BdKE8yKShPW0NIMl0zKUMoPVtDSF1bQ0BASF0oW09IXSlbQ0BASF00QzIzNSlbQ0BAXTY3W0NAQEhdKFtDSDJdW0NIMl1bQ0BAXShbQ0gzXSkoT082KU9bQ0BIXTdPNClbQ0BIXShbQ0gzXSlbQ0BASF0oT1tDQEBIXTVbT0hdKU9bQ0BASF04W0NASF0oT1tDQEBIXShbQ0gyXVtPSF0pW0NASF04W09IXSlPW0NAQEhdOU9bQ0gyXVtDQEBIXShbT0hdKVtDQEBIXShbT0hdKVtDQEhdOVtPSF0=

>  <s_epik_cmdline>  (151) 
J2VwaWtfcHl0aG9uJywgJy1waHQnLCAnMi4wJywgJy1waCcsICc3LjAnLCAnLXRuJywgJzgnLCAnLW1hJywgJzIwMCcsICctaW1hZScsICc8aW5maWxlLm1hZT4nLCAnLW9tYWUnLCAnPG91dGZpbGUubWFlPic=

>  <r_epik_Ionization_Penalty>  (151) 
0.00201932

>  <r_epik_Ionization_Penalty_Charging>  (151) 
0

>  <r_epik_Ionization_Penalty_Neutral>  (151) 
0.00201932

>  <r_epik_State_Penalty>  (151) 
0.00136338

>  <r_epik_Charging_Adjusted_Penalty>  (151) 
0.00136338

>  <i_epik_Tot_Q>  (151) 
0

>  <i_epik_Tot_abs_Q>  (151) 
0

>  <s_epik_Chemistry_Notes>  (151) 
This compound contains an acetal/aminal-like group ( X-CH(R)-Y where X, Y are N, S, or O) that may be acid/base labile, releasing an aldehyde.

>  <s_lp_Force_Field>  (151) 
OPLS3e

>  <r_lp_Energy>  (151) 
444.739

>  <b_lp_Chiralities_Consistent>  (151) 
1

>  <s_lp_Variant>  (151) 
99:0-1

>  <s_i_glide_gridfile>  (151) 
pfpi4k_grid

>  <i_i_glide_lignum>  (151) 
31

>  <i_i_glide_rotatable_bonds>  (151) 
15

>  <r_i_docking_score>  (151) 
-3.15865

>  <r_i_glide_ligand_efficiency>  (151) 
-0.0574299

>  <r_i_glide_ligand_efficiency_sa>  (151) 
-0.218403

>  <r_i_glide_ligand_efficiency_ln>  (151) 
-0.630804

>  <r_i_glide_gscore>  (151) 
-3.15865

>  <r_i_glide_lipo>  (151) 
-0.164159

>  <r_i_glide_hbond>  (151) 
-0.16

>  <r_i_glide_metal>  (151) 
-0

>  <r_i_glide_rewards>  (151) 
-0.00216478

>  <r_i_glide_evdw>  (151) 
-27.6663

>  <r_i_glide_ecoul>  (151) 
-9.56069

>  <r_i_glide_erotb>  (151) 
0.0725263

>  <r_i_glide_esite>  (151) 
-0.0874311

>  <r_i_glide_emodel>  (151) 
-40.311

>  <r_i_glide_energy>  (151) 
-37.227

>  <r_i_glide_einternal>  (151) 
9.42018

>  <r_i_glide_intrahb_reward>  (151) 
-0

>  <i_i_glide_confnum>  (151) 
7

>  <i_i_glide_posenum>  (151) 
30

>  <r_i_glide_eff_state_penalty>  (151) 
0

>  <ligand_id>  (151) 
99

>  <original_smiles>  (151) 
CC1CCOC(OCC23OCC4(O2)C(O)OC(OC2C(OC5OCC(O)C(O)C5O)OC(CO)C2O)C(C)C2CCC5(C)OOC26C3=CC(O)C4OC6O5)O1

>  <smiles>  (151) 
[H]OC([H])([H])C1([H])OC([H])(OC2([H])OC([H])([H])C([H])(O[H])C([H])(O[H])C2([H])O[H])C([H])(OC2([H])OC([H])(O[H])C34OC(C([H])([H])OC5([H])OC([H])([H])C([H])([H])C([H])(C([H])([H])[H])O5)(OC3([H])[H])C3=C([H])C([H])(O[H])C4([H])OC4([H])OC5(C([H])([H])[H])OOC34C([H])(C([H])([H])C5([H])[H])C2([H])C([H])([H])[H])C1([H])O[H]

$$$$
100:2:0
     RDKit          3D

118134  0  0  1  0  0  0  0  0999 V2000
   -0.4976   -6.7347    3.9935 C   0  0  0  0  0  0  0  0  0  0  0  0
    0.0988   -5.5625    3.4266 O   0  0  0  0  0  0  0  0  0  0  0  0
    1.4464   -5.3139    3.6550 C   0  0  2  0  0  0  0  0  0  0  0  0
    2.2057   -6.4797    3.3736 O   0  0  0  0  0  0  0  0  0  0  0  0
    3.0321   -6.8566    4.4120 C   0  0  1  0  0  0  0  0  0  0  0  0
    2.3206   -7.4448    5.4646 O   0  0  0  0  0  0  0  0  0  0  0  0
    1.8118   -8.7413    5.1386 C   0  0  2  0  0  0  0  0  0  0  0  0
    0.7133   -9.2361    6.0620 C   0  0  0  0  0  0  0  0  0  0  0  0
    2.1175   -9.7773    6.1905 C   0  0  1  0  0  0  0  0  0  0  0  0
    2.2996  -11.0551    5.6387 O   0  0  0  0  0  0  0  0  0  0  0  0
    4.1321   -7.6287    4.0885 O   0  0  0  0  0  0  0  0  0  0  0  0
    5.0522   -7.3654    5.1144 C   0  0  1  0  0  0  0  0  0  0  0  0
    6.4630   -7.2686    4.5257 C   0  0  0  0  0  0  0  0  0  0  0  0
    4.7201   -6.1471    5.7096 O   0  0  0  0  0  0  0  0  0  0  0  0
    3.8037   -5.6165    4.8436 C   0  0  2  0  0  0  0  0  0  0  0  0
    3.0073   -4.5380    5.2393 O   0  0  0  0  0  0  0  0  0  0  0  0
    1.6014   -4.6918    5.0975 C   0  0  1  0  0  0  0  0  0  0  0  0
    0.7828   -3.5335    4.9891 O   0  0  0  0  0  0  0  0  0  0  0  0
    1.4367   -2.3881    4.6433 C   0  0  2  0  0  0  0  0  0  0  0  0
    2.4888   -2.0169    5.7083 C   0  0  0  0  0  0  0  0  0  0  0  0
    2.5802   -2.5037    6.9872 C   0  0  0  0  0  0  0  0  0  0  0  0
    1.7881   -3.6068    7.7974 C   0  0  2  0  0  0  0  0  0  0  0  0
    2.2606   -4.9477    7.4546 O   0  0  0  0  0  0  0  0  0  0  0  0
    1.1286   -5.1380    6.5273 C   0  0  1  0  0  0  0  0  0  0  0  0
    0.3624   -4.0912    7.3910 C   0  0  1  0  0  0  0  0  0  0  0  0
   -0.3769   -4.6780    8.4921 O   0  0  0  0  0  0  0  0  0  0  0  0
   -0.0433   -4.1812    9.8057 C   0  0  1  0  0  0  0  0  0  0  0  0
   -0.9841   -4.4722   10.7933 O   0  0  0  0  0  0  0  0  0  0  0  0
    1.4060   -4.5966   10.0796 C   0  0  0  0  0  0  0  0  0  0  0  0
    1.8295   -3.3289    9.3136 C   0  0  2  0  0  0  0  0  0  0  0  0
    0.5005   -2.7745    9.7509 C   0  0  2  0  0  0  0  0  0  0  0  0
    0.2217   -1.5916   10.6504 C   0  0  0  0  0  0  0  0  0  0  0  0
   -0.1342   -1.5919    9.2313 O   0  0  0  0  0  0  0  0  0  0  0  0
    0.6821   -1.1054    4.4225 C   0  0  0  0  0  0  0  0  0  0  0  0
    0.9933   -0.4539    3.2929 C   0  0  0  0  0  0  0  0  0  0  0  0
    1.7857   -1.3744    2.4552 C   0  0  0  0  0  0  0  0  0  0  0  0
    2.4372   -1.1515    1.4353 O   0  0  0  0  0  0  0  0  0  0  0  0
    1.6111   -2.7270    3.1460 C   0  0  1  0  0  0  0  0  0  0  0  0
    1.9474   -4.1646    2.6120 C   0  0  1  0  0  0  0  0  0  0  0  0
    3.3102   -4.2041    2.2316 O   0  0  0  0  0  0  0  0  0  0  0  0
    0.5905    0.9928    3.0066 C   0  0  2  0  0  0  0  0  0  0  0  0
   -0.1794    1.2589    1.7106 C   0  0  0  0  0  0  0  0  0  0  0  0
   -1.1139    2.2881    2.0709 O   0  0  0  0  0  0  0  0  0  0  0  0
   -1.3021    2.4132    3.4187 C   0  0  2  0  0  0  0  0  0  0  0  0
   -0.7845    3.5834    3.9703 O   0  0  0  0  0  0  0  0  0  0  0  0
   -1.0070    4.7754    3.2763 C   0  0  1  0  0  0  0  0  0  0  0  0
   -1.9716    4.7917    2.2411 O   0  0  0  0  0  0  0  0  0  0  0  0
   -3.0621    5.6792    2.2368 C   0  0  2  0  0  0  0  0  0  0  0  0
   -4.1770    5.2370    1.3419 C   0  0  0  0  0  0  0  0  0  0  0  0
   -4.1440    6.0111    0.1385 O   0  0  0  0  0  0  0  0  0  0  0  0
   -2.9484    6.8216    0.1390 C   0  0  0  0  0  0  0  0  0  0  0  0
   -2.7160    7.0309    1.6216 C   0  0  1  0  0  0  0  0  0  0  0  0
   -3.5421    8.0915    2.0676 O   0  0  0  0  0  0  0  0  0  0  0  0
   -0.7128    5.9710    4.0038 O   0  0  0  0  0  0  0  0  0  0  0  0
    0.2119    5.6714    3.0432 C   0  0  1  0  0  0  0  0  0  0  0  0
    1.4633    5.5428    3.7373 C   0  0  2  0  0  0  0  0  0  0  0  0
    2.7102    5.5757    2.9404 C   0  0  1  0  0  0  0  0  0  0  0  0
    3.9016    5.5110    3.7238 O   0  0  0  0  0  0  0  0  0  0  0  0
    3.5903    4.1877    4.2781 C   0  0  1  0  0  0  0  0  0  0  0  0
    3.6042    4.1731    5.8217 C   0  0  0  0  0  0  0  0  0  0  0  0
    2.6827    3.0718    6.3536 C   0  0  0  0  0  0  0  0  0  0  0  0
    3.2972    5.5208    6.5142 C   0  0  0  0  0  0  0  0  0  0  0  0
    2.2768    4.3111    3.6108 C   0  0  1  0  0  0  0  0  0  0  0  0
    1.7252    3.2779    2.7304 O   0  0  0  0  0  0  0  0  0  0  0  0
    1.8598    1.9092    3.1279 C   0  0  0  0  0  0  0  0  0  0  0  0
   -0.4736    1.3218    4.0093 C   0  0  0  0  0  0  0  0  0  0  0  0
   -0.7800    0.5762    5.1227 C   0  0  0  0  0  0  0  0  0  0  0  0
   -0.1046   -0.5718    5.4286 O   0  0  0  0  0  0  0  0  0  0  0  0
   -1.5785   -6.6108    4.0683 H   0  0  0  0  0  0  0  0  0  0  0  0
   -0.1575   -6.9656    4.9936 H   0  0  0  0  0  0  0  0  0  0  0  0
   -0.3160   -7.5992    3.3528 H   0  0  0  0  0  0  0  0  0  0  0  0
    1.7551   -9.0019    4.0894 H   0  0  0  0  0  0  0  0  0  0  0  0
    0.3735   -8.5879    6.8665 H   0  0  0  0  0  0  0  0  0  0  0  0
   -0.0550   -9.8618    5.6157 H   0  0  0  0  0  0  0  0  0  0  0  0
    2.7178   -9.5523    7.0598 H   0  0  0  0  0  0  0  0  0  0  0  0
    1.9972  -11.6920    6.2986 H   0  0  0  0  0  0  0  0  0  0  0  0
    4.9765   -8.1496    5.8644 H   0  0  0  0  0  0  0  0  0  0  0  0
    6.5136   -6.4685    3.7881 H   0  0  0  0  0  0  0  0  0  0  0  0
    6.7355   -8.2124    4.0568 H   0  0  0  0  0  0  0  0  0  0  0  0
    7.1674   -7.0529    5.3276 H   0  0  0  0  0  0  0  0  0  0  0  0
    4.4120   -5.2302    4.0236 H   0  0  0  0  0  0  0  0  0  0  0  0
    3.2178   -1.2843    5.3968 H   0  0  0  0  0  0  0  0  0  0  0  0
    3.4226   -2.1199    7.5483 H   0  0  0  0  0  0  0  0  0  0  0  0
    0.6719   -6.1255    6.6011 H   0  0  0  0  0  0  0  0  0  0  0  0
   -0.2694   -3.3365    6.9293 H   0  0  0  0  0  0  0  0  0  0  0  0
   -0.9576   -5.4054   10.9313 H   0  0  0  0  0  0  0  0  0  0  0  0
    1.6301   -4.5146   11.1518 H   0  0  0  0  0  0  0  0  0  0  0  0
    1.7140   -5.5668    9.7034 H   0  0  0  0  0  0  0  0  0  0  0  0
    2.7228   -2.8338    9.6621 H   0  0  0  0  0  0  0  0  0  0  0  0
   -0.6263   -1.6224   11.3241 H   0  0  0  0  0  0  0  0  0  0  0  0
    1.0344   -0.9271   10.9098 H   0  0  0  0  0  0  0  0  0  0  0  0
    0.5540   -2.8298    2.8690 H   0  0  0  0  0  0  0  0  0  0  0  0
    1.5046   -4.3569    1.6614 H   0  0  0  0  0  0  0  0  0  0  0  0
    3.4340   -3.5258    1.5841 H   0  0  0  0  0  0  0  0  0  0  0  0
    0.4532    1.5699    0.8931 H   0  0  0  0  0  0  0  0  0  0  0  0
   -0.7480    0.3875    1.3965 H   0  0  0  0  0  0  0  0  0  0  0  0
   -2.3562    2.3794    3.6787 H   0  0  0  0  0  0  0  0  0  0  0  0
   -3.3814    5.6830    3.2488 H   0  0  0  0  0  0  0  0  0  0  0  0
   -4.2204    4.1665    1.1465 H   0  0  0  0  0  0  0  0  0  0  0  0
   -5.1955    5.4999    1.7406 H   0  0  0  0  0  0  0  0  0  0  0  0
   -2.0966    6.2821   -0.2797 H   0  0  0  0  0  0  0  0  0  0  0  0
   -3.0283    7.7294   -0.4663 H   0  0  0  0  0  0  0  0  0  0  0  0
   -1.6997    7.2878    1.8624 H   0  0  0  0  0  0  0  0  0  0  0  0
   -3.2100    8.8813    1.6489 H   0  0  0  0  0  0  0  0  0  0  0  0
    0.1761    6.3609    2.2114 H   0  0  0  0  0  0  0  0  0  0  0  0
    1.4775    6.0986    4.6638 H   0  0  0  0  0  0  0  0  0  0  0  0
    2.6991    5.6768    1.8473 H   0  0  0  0  0  0  0  0  0  0  0  0
    4.1690    3.4023    3.8099 H   0  0  0  0  0  0  0  0  0  0  0  0
    4.6194    3.9047    6.1232 H   0  0  0  0  0  0  0  0  0  0  0  0
    1.6428    3.2390    6.0489 H   0  0  0  0  0  0  0  0  0  0  0  0
    2.7054    3.0158    7.4396 H   0  0  0  0  0  0  0  0  0  0  0  0
    2.9893    2.0907    5.9889 H   0  0  0  0  0  0  0  0  0  0  0  0
    2.3156    5.9042    6.3001 H   0  0  0  0  0  0  0  0  0  0  0  0
    4.0379    6.2734    6.2421 H   0  0  0  0  0  0  0  0  0  0  0  0
    3.3396    5.4009    7.5957 H   0  0  0  0  0  0  0  0  0  0  0  0
    2.2116    1.7994    4.1467 H   0  0  0  0  0  0  0  0  0  0  0  0
    2.6499    1.5172    2.4846 H   0  0  0  0  0  0  0  0  0  0  0  0
   -1.6133    0.7634    5.7706 H   0  0  0  0  0  0  0  0  0  0  0  0
  1  2  1  0
  1 69  1  0
  1 70  1  0
  1 71  1  0
  3  2  1  6
  3 17  1  0
  3 39  1  0
  3  4  1  0
  4  5  1  0
  5 15  1  0
  5  6  1  1
  5 11  1  0
  6  7  1  0
  7  9  1  0
  7  8  1  0
  7 72  1  6
  8  9  1  0
  8 73  1  0
  8 74  1  0
  9 10  1  0
  9 75  1  1
 10 76  1  0
 11 12  1  0
 12 13  1  0
 12 14  1  0
 12 77  1  1
 13 78  1  0
 13 79  1  0
 13 80  1  0
 14 15  1  0
 15 16  1  0
 15 81  1  6
 17 16  1  1
 17 24  1  0
 17 18  1  0
 18 19  1  0
 19 38  1  0
 19 20  1  0
 19 34  1  6
 20 21  2  3
 20 82  1  0
 21 22  1  0
 21 83  1  0
 22 25  1  0
 22 30  1  0
 22 23  1  1
 23 24  1  0
 24 25  1  0
 24 84  1  6
 25 26  1  0
 25 85  1  6
 26 27  1  0
 27 31  1  0
 27 28  1  1
 27 29  1  0
 28 86  1  0
 29 30  1  0
 29 87  1  0
 29 88  1  0
 30 31  1  0
 30 89  1  1
 31 33  1  6
 31 32  1  0
 32 33  1  0
 32 90  1  0
 32 91  1  0
 34 68  1  0
 34 35  2  0
 35 36  1  0
 35 41  1  0
 36 37  2  0
 36 38  1  0
 38 39  1  0
 38 92  1  6
 39 40  1  0
 39 93  1  6
 40 94  1  0
 41 65  1  1
 41 66  1  0
 41 42  1  0
 42 43  1  0
 42 95  1  0
 42 96  1  0
 43 44  1  0
 44 45  1  0
 44 66  1  0
 44 97  1  6
 45 46  1  0
 46 55  1  0
 46 47  1  6
 46 54  1  0
 47 48  1  0
 48 52  1  0
 48 49  1  0
 48 98  1  1
 49 50  1  0
 49 99  1  0
 49100  1  0
 50 51  1  0
 51 52  1  0
 51101  1  0
 51102  1  0
 52 53  1  0
 52103  1  6
 53104  1  0
 54 55  1  0
 55 56  1  0
 55105  1  6
 56 63  1  0
 56 57  1  0
 56106  1  1
 57 63  1  0
 57 58  1  0
 57107  1  6
 58 59  1  0
 59 60  1  0
 59 63  1  0
 59108  1  6
 60 61  1  0
 60 62  1  0
 60109  1  0
 61110  1  0
 61111  1  0
 61112  1  0
 62113  1  0
 62114  1  0
 62115  1  0
 63 64  1  6
 64 65  1  0
 65116  1  0
 65117  1  0
 66 67  2  0
 67 68  1  0
 67118  1  0
M  END
>  <i_m_ct_stereo_status>  (152) 
1

>  <s_m_source_file>  (152) 
/var/tmp/pbs.5076253.sched01/tmp9pzrzrnh/1418a54yjb5.sdf

>  <i_m_source_file_index>  (152) 
34

>  <i_lp_mmshare_version>  (152) 
48012

>  <i_f3d_flags>  (152) 
0

>  <s_epik_input>  (152) 
W09IXVtDQEBIXTFbQ0gyXVtDQEhdMU9bQ0BdMihbQ0BASF0oTzMpT1tDQEBIXShPMilbQ0gzXSlPW0NAXShbQ0BAXTM0NSkoT1tDSDNdKVtDQEhdKFtPSF0pW0NASF02W0NAQF0oTzQpKC9bQ0hdPVtDSF1cW0NAQF03OFtDQEBIXShbQ0BASF01TzcpT1tDQF05KFtPSF0pW0NAQF0xKFtDSDJdTzEpW0NASF04W0NIMl05KUMxPUMoQzY9TylbQ0BdMjNDKD1bQ0hdTzEpW0NASF0oT1tDSDJdMilPW0NAXTEoT1tDQEBIXTJbQ0gyXU9bQ0gyXVtDQEhdMltPSF0pW0NAQEhdKE8xKVtDQEhdMVtDQEBdMihPW0NIMl0zKVtDQEBIXTFPW0NASF0yW0NIXShbQ0gzXSlbQ0gzXQ==

>  <s_epik_cmdline>  (152) 
J2VwaWtfcHl0aG9uJywgJy1waHQnLCAnMi4wJywgJy1waCcsICc3LjAnLCAnLXRuJywgJzgnLCAnLW1hJywgJzIwMCcsICctaW1hZScsICc8aW5maWxlLm1hZT4nLCAnLW9tYWUnLCAnPG91dGZpbGUubWFlPic=

>  <r_epik_Ionization_Penalty>  (152) 
0.558515

>  <r_epik_Ionization_Penalty_Charging>  (152) 
0

>  <r_epik_Ionization_Penalty_Neutral>  (152) 
0.558515

>  <r_epik_State_Penalty>  (152) 
0.569433

>  <r_epik_Charging_Adjusted_Penalty>  (152) 
0.569433

>  <i_epik_Tot_Q>  (152) 
0

>  <i_epik_Tot_abs_Q>  (152) 
0

>  <s_epik_Chemistry_Notes>  (152) 
This compound contains an acetal/aminal-like group ( X-CH(R)-Y where X, Y are N, S, or O) that may be acid/base labile, releasing an aldehyde.

>  <s_lp_Force_Field>  (152) 
OPLS3e

>  <r_lp_Energy>  (152) 
168.193

>  <b_lp_Chiralities_Consistent>  (152) 
1

>  <s_lp_Variant>  (152) 
100:0-3

>  <s_i_glide_gridfile>  (152) 
pfpi4k_grid

>  <i_i_glide_lignum>  (152) 
34

>  <i_i_glide_rotatable_bonds>  (152) 
10

>  <r_i_docking_score>  (152) 
-1.29131

>  <r_i_glide_ligand_efficiency>  (152) 
-0.0189898

>  <r_i_glide_ligand_efficiency_sa>  (152) 
-0.0775098

>  <r_i_glide_ligand_efficiency_ln>  (152) 
-0.2474

>  <r_i_glide_gscore>  (152) 
-1.29131

>  <r_i_glide_lipo>  (152) 
-0.0878812

>  <r_i_glide_hbond>  (152) 
-0.479127

>  <r_i_glide_metal>  (152) 
-0

>  <r_i_glide_rewards>  (152) 
0

>  <r_i_glide_evdw>  (152) 
10.728

>  <r_i_glide_ecoul>  (152) 
-13.2907

>  <r_i_glide_erotb>  (152) 
0.0965224

>  <r_i_glide_esite>  (152) 
-0.192618

>  <r_i_glide_emodel>  (152) 
2.49471

>  <r_i_glide_energy>  (152) 
-2.56271

>  <r_i_glide_einternal>  (152) 
11.8236

>  <r_i_glide_intrahb_reward>  (152) 
-0

>  <i_i_glide_confnum>  (152) 
1

>  <i_i_glide_posenum>  (152) 
3

>  <r_i_glide_eff_state_penalty>  (152) 
0

>  <ligand_id>  (152) 
100

>  <original_smiles>  (152) 
COC12OC3(OC4CC4O)OC(C)OC3OC13OC1(C=CC45OC3C4OC3(O)CC5C34CO4)C3=C(C(=O)C1C2O)C12COC(OC4(OC5COCC5O)OC4C4C5OC(C(C)C)C54OC1)C2=CO3

>  <smiles>  (152) 
[H]OC1([H])C([H])([H])OC([H])([H])C1([H])OC12OC3([H])OC([H])([H])C4(C5=C(OC([H])=C34)C34OC6(OC7([H])OC([H])(C([H])([H])[H])OC7(OC7([H])C([H])([H])C7([H])O[H])OC6(OC([H])([H])[H])C([H])(O[H])C3([H])C5=O)C3([H])OC5(C([H])=C4[H])C3([H])OC3(O[H])C([H])([H])C5([H])C34OC4([H])[H])C([H])([H])OC34C([H])(C([H])(C([H])([H])[H])C([H])([H])[H])OC3([H])C4([H])C1([H])O2

$$$$
102:0:0
     RDKit          3D

 51 58  0  0  1  0  0  0  0  0999 V2000
    2.0890   -3.7002    3.9791 C   0  0  0  0  0  0  0  0  0  0  0  0
    3.2169   -2.6518    4.0578 C   0  0  2  0  0  0  0  0  0  0  0  0
    2.8367   -1.2789    3.2945 C   0  0  2  0  0  0  0  0  0  0  0  0
    2.3116   -1.3822    1.8608 C   0  0  0  0  0  0  0  0  0  0  0  0
    3.4141   -0.6383    1.0800 C   0  0  1  0  0  0  0  0  0  0  0  0
    3.3563    0.5188    1.9119 O   0  0  0  0  0  0  0  0  0  0  0  0
    3.7260    0.0454    3.1979 C   0  0  1  0  0  0  0  0  0  0  0  0
    3.3687    1.0957    4.2626 C   0  0  0  0  0  0  0  0  0  0  0  0
    5.1445   -0.0735    3.1966 O   0  0  0  0  0  0  0  0  0  0  0  0
    5.6636   -0.2566    1.7500 O   0  0  0  0  0  0  0  0  0  0  0  0
    4.9022   -1.2562    1.0618 C   0  0  1  0  0  0  0  0  0  0  0  0
    5.0793   -2.5190    1.9181 C   0  0  2  0  0  0  0  0  0  0  0  0
    5.4186   -2.4122    3.2753 O   0  0  0  0  0  0  0  0  0  0  0  0
    4.6335   -3.3663    3.7894 C   0  0  1  0  0  0  0  0  0  0  0  0
    5.2996   -3.8529    5.0865 C   0  0  0  0  0  0  0  0  0  0  0  0
    4.6624   -4.4165    2.8131 O   0  0  0  0  0  0  0  0  0  0  0  0
    5.4518   -3.9197    1.6760 C   0  0  2  0  0  0  0  0  0  0  0  0
    6.8342   -4.2988    1.7110 O   0  0  0  0  0  0  0  0  0  0  0  0
    6.4668   -5.4246    0.7745 O   0  0  0  0  0  0  0  0  0  0  0  0
    5.3324   -4.6404    0.3492 C   0  0  1  0  0  0  0  0  0  0  0  0
    4.1184   -5.5015    0.0913 C   0  0  0  0  0  0  0  0  0  0  0  0
    2.8870   -4.7921    0.2345 O   0  0  0  0  0  0  0  0  0  0  0  0
    2.6109   -3.8429   -0.7223 C   0  0  0  0  0  0  0  0  0  0  0  0
    3.4828   -2.9646   -1.2432 C   0  0  0  0  0  0  0  0  0  0  0  0
    3.4812   -2.1644   -2.5001 C   0  0  0  0  0  0  0  0  0  0  0  0
    4.9343   -2.3853   -2.5597 O   0  0  0  0  0  0  0  0  0  0  0  0
    4.9546   -2.7237   -1.1304 C   0  0  2  0  0  0  0  0  0  0  0  0
    5.6826   -3.9048   -0.8320 O   0  0  0  0  0  0  0  0  0  0  0  0
    5.4588   -1.4701   -0.3646 C   0  0  0  0  0  0  0  0  0  0  0  0
    5.2375   -0.3678   -1.0775 F   0  0  0  0  0  0  0  0  0  0  0  0
    6.7822   -1.6097   -0.2717 F   0  0  0  0  0  0  0  0  0  0  0  0
    2.0006   -4.1208    2.9765 H   0  0  0  0  0  0  0  0  0  0  0  0
    1.1253   -3.2602    4.2393 H   0  0  0  0  0  0  0  0  0  0  0  0
    2.2689   -4.5284    4.6651 H   0  0  0  0  0  0  0  0  0  0  0  0
    3.2622   -2.3433    5.1030 H   0  0  0  0  0  0  0  0  0  0  0  0
    1.9497   -0.9631    3.8461 H   0  0  0  0  0  0  0  0  0  0  0  0
    2.0792   -2.3843    1.5118 H   0  0  0  0  0  0  0  0  0  0  0  0
    1.3814   -0.8231    1.7623 H   0  0  0  0  0  0  0  0  0  0  0  0
    3.0733   -0.3773    0.0773 H   0  0  0  0  0  0  0  0  0  0  0  0
    3.8803    2.0389    4.0715 H   0  0  0  0  0  0  0  0  0  0  0  0
    3.6600    0.7605    5.2573 H   0  0  0  0  0  0  0  0  0  0  0  0
    2.3003    1.3086    4.2842 H   0  0  0  0  0  0  0  0  0  0  0  0
    4.0669   -2.7885    1.6903 H   0  0  0  0  0  0  0  0  0  0  0  0
    6.2863   -4.2614    4.8746 H   0  0  0  0  0  0  0  0  0  0  0  0
    4.6924   -4.6213    5.5650 H   0  0  0  0  0  0  0  0  0  0  0  0
    5.4182   -3.0141    5.7765 H   0  0  0  0  0  0  0  0  0  0  0  0
    4.2122   -6.0083   -0.8600 H   0  0  0  0  0  0  0  0  0  0  0  0
    4.0905   -6.2974    0.8330 H   0  0  0  0  0  0  0  0  0  0  0  0
    1.6066   -3.9473   -1.0990 H   0  0  0  0  0  0  0  0  0  0  0  0
    2.9579   -2.5821   -3.3594 H   0  0  0  0  0  0  0  0  0  0  0  0
    3.2546   -1.0973   -2.4184 H   0  0  0  0  0  0  0  0  0  0  0  0
  1  2  1  0
  1 32  1  0
  1 33  1  0
  1 34  1  0
  2 14  1  0
  2  3  1  0
  2 35  1  1
  3  7  1  0
  3  4  1  0
  3 36  1  1
  4  5  1  0
  4 37  1  0
  4 38  1  0
  5 11  1  0
  5  6  1  0
  5 39  1  6
  6  7  1  0
  7  8  1  1
  7  9  1  0
  8 40  1  0
  8 41  1  0
  8 42  1  0
  9 10  1  0
 11 10  1  1
 11 29  1  0
 11 12  1  0
 12 17  1  0
 12 13  1  0
 12 43  1  1
 13 14  1  0
 14 15  1  1
 14 16  1  0
 15 44  1  0
 15 45  1  0
 15 46  1  0
 17 16  1  1
 17 20  1  0
 17 18  1  0
 18 19  1  0
 20 19  1  1
 20 28  1  0
 20 21  1  0
 21 22  1  0
 21 47  1  0
 21 48  1  0
 22 23  1  0
 23 24  2  0
 23 49  1  0
 24 27  1  0
 24 25  1  0
 25 26  1  0
 25 50  1  0
 25 51  1  0
 27 26  1  6
 27 28  1  0
 27 29  1  0
 29 30  1  0
 29 31  1  0
M  END
>  <i_m_ct_stereo_status>  (153) 
1

>  <s_m_source_file>  (153) 
/var/tmp/pbs.5076253.sched01/tmp9pzrzrnh/1418a54yjb5.sdf

>  <i_m_source_file_index>  (153) 
38

>  <i_lp_mmshare_version>  (153) 
48012

>  <i_f3d_flags>  (153) 
0

>  <s_epik_input>  (153) 
TzFPW0NAXShPMikoW0NIM10pW0NAQEhdKFtDSDJdW0NAQEhdMltDQEBdMTM0KVtDQEBIXShbQ0gzXSlbQ0BdNShbQ0gzXSlPW0NAQEhdM1tDQEBdNihPNSlbQ0BAXTcoT082KVtDSDJdT1tDSF09QzhbQ0BdKE83KShDNChGKUYpT1tDSDJdOA==

>  <s_epik_cmdline>  (153) 
J2VwaWtfcHl0aG9uJywgJy1waHQnLCAnMi4wJywgJy1waCcsICc3LjAnLCAnLXRuJywgJzgnLCAnLW1hJywgJzIwMCcsICctaW1hZScsICc8aW5maWxlLm1hZT4nLCAnLW9tYWUnLCAnPG91dGZpbGUubWFlPic=

>  <r_lp_tautomer_probability>  (153) 
1

>  <r_epik_Ionization_Penalty>  (153) 
1.31558e-16

>  <r_epik_Ionization_Penalty_Charging>  (153) 
0

>  <r_epik_Ionization_Penalty_Neutral>  (153) 
1.31558e-16

>  <r_epik_State_Penalty>  (153) 
-0

>  <r_epik_Charging_Adjusted_Penalty>  (153) 
0

>  <i_epik_Tot_Q>  (153) 
0

>  <i_epik_Tot_abs_Q>  (153) 
0

>  <s_lp_Force_Field>  (153) 
OPLS3e

>  <r_lp_Energy>  (153) 
104.613

>  <b_lp_Chiralities_Consistent>  (153) 
1

>  <s_lp_Variant>  (153) 
102:0-1

>  <s_i_glide_gridfile>  (153) 
pfpi4k_grid

>  <i_i_glide_lignum>  (153) 
38

>  <i_i_glide_rotatable_bonds>  (153) 
0

>  <r_i_docking_score>  (153) 
-2.94285

>  <r_i_glide_ligand_efficiency>  (153) 
-0.0949307

>  <r_i_glide_ligand_efficiency_sa>  (153) 
-0.298214

>  <r_i_glide_ligand_efficiency_ln>  (153) 
-0.663704

>  <r_i_glide_gscore>  (153) 
-2.94285

>  <r_i_glide_lipo>  (153) 
-0.127927

>  <r_i_glide_hbond>  (153) 
-0.301306

>  <r_i_glide_metal>  (153) 
-0

>  <r_i_glide_rewards>  (153) 
-0.563503

>  <r_i_glide_evdw>  (153) 
-26.6197

>  <r_i_glide_ecoul>  (153) 
-3.28315

>  <r_i_glide_erotb>  (153) 
0

>  <r_i_glide_esite>  (153) 
-0.126661

>  <r_i_glide_emodel>  (153) 
-34.9873

>  <r_i_glide_energy>  (153) 
-29.9028

>  <r_i_glide_einternal>  (153) 
0

>  <r_i_glide_intrahb_reward>  (153) 
-0

>  <i_i_glide_confnum>  (153) 
1

>  <i_i_glide_posenum>  (153) 
1

>  <r_i_glide_eff_state_penalty>  (153) 
0

>  <ligand_id>  (153) 
102

>  <original_smiles>  (153) 
CC1C2CC3OC2(C)OOC32C3OC1(C)OC31OOC13COC=C1COC1(O3)C2(F)F

>  <smiles>  (153) 
[H]C1=C2C([H])([H])OC23OC2(OOC24OC2(C([H])([H])[H])OC4([H])C4(OOC5(C([H])([H])[H])OC4([H])C([H])([H])C5([H])C2([H])C([H])([H])[H])C3(F)F)C([H])([H])O1

$$$$
102:0:1
     RDKit          3D

 51 58  0  0  1  0  0  0  0  0999 V2000
    1.1901   -3.2498    3.7193 C   0  0  0  0  0  0  0  0  0  0  0  0
    2.4378   -2.4144    4.0687 C   0  0  2  0  0  0  0  0  0  0  0  0
    2.5332   -1.0572    3.1987 C   0  0  2  0  0  0  0  0  0  0  0  0
    2.3852   -1.1660    1.6783 C   0  0  0  0  0  0  0  0  0  0  0  0
    3.7696   -0.6847    1.2004 C   0  0  1  0  0  0  0  0  0  0  0  0
    3.7090    0.5178    1.9639 O   0  0  0  0  0  0  0  0  0  0  0  0
    3.6521    0.0792    3.3136 C   0  0  1  0  0  0  0  0  0  0  0  0
    3.2400    1.2454    4.2252 C   0  0  0  0  0  0  0  0  0  0  0  0
    4.9809   -0.2806    3.6851 O   0  0  0  0  0  0  0  0  0  0  0  0
    5.8009   -0.6250    2.4236 O   0  0  0  0  0  0  0  0  0  0  0  0
    5.0751   -1.5431    1.5953 C   0  0  1  0  0  0  0  0  0  0  0  0
    4.7851   -2.7593    2.4964 C   0  0  2  0  0  0  0  0  0  0  0  0
    4.7724   -2.6225    3.8921 O   0  0  0  0  0  0  0  0  0  0  0  0
    3.7112   -3.3864    4.1934 C   0  0  1  0  0  0  0  0  0  0  0  0
    3.9206   -3.8975    5.6280 C   0  0  0  0  0  0  0  0  0  0  0  0
    3.7716   -4.4858    3.2753 O   0  0  0  0  0  0  0  0  0  0  0  0
    4.9094   -4.2239    2.3848 C   0  0  2  0  0  0  0  0  0  0  0  0
    6.1231   -4.8527    2.8181 O   0  0  0  0  0  0  0  0  0  0  0  0
    5.8192   -5.9487    1.8250 O   0  0  0  0  0  0  0  0  0  0  0  0
    5.0063   -5.0082    1.0884 C   0  0  1  0  0  0  0  0  0  0  0  0
    3.7590   -5.6558    0.5195 C   0  0  0  0  0  0  0  0  0  0  0  0
    2.6921   -4.7282    0.3363 O   0  0  0  0  0  0  0  0  0  0  0  0
    2.8504   -3.8079   -0.6747 C   0  0  0  0  0  0  0  0  0  0  0  0
    3.9838   -3.1378   -0.9649 C   0  0  0  0  0  0  0  0  0  0  0  0
    4.4566   -2.4450   -2.1940 C   0  0  0  0  0  0  0  0  0  0  0  0
    5.8105   -2.9125   -1.8577 O   0  0  0  0  0  0  0  0  0  0  0  0
    5.3973   -3.1579   -0.4714 C   0  0  2  0  0  0  0  0  0  0  0  0
    5.7835   -4.4327    0.0257 O   0  0  0  0  0  0  0  0  0  0  0  0
    5.9182   -1.9602    0.3710 C   0  0  0  0  0  0  0  0  0  0  0  0
    6.1100   -0.8831   -0.3918 F   0  0  0  0  0  0  0  0  0  0  0  0
    7.1122   -2.3394    0.8215 F   0  0  0  0  0  0  0  0  0  0  0  0
    1.2858   -3.7169    2.7388 H   0  0  0  0  0  0  0  0  0  0  0  0
    0.2919   -2.6294    3.7032 H   0  0  0  0  0  0  0  0  0  0  0  0
    1.0268   -4.0480    4.4434 H   0  0  0  0  0  0  0  0  0  0  0  0
    2.2735   -2.0446    5.0809 H   0  0  0  0  0  0  0  0  0  0  0  0
    1.6104   -0.5487    3.4855 H   0  0  0  0  0  0  0  0  0  0  0  0
    2.0568   -2.1316    1.3023 H   0  0  0  0  0  0  0  0  0  0  0  0
    1.6363   -0.4537    1.3303 H   0  0  0  0  0  0  0  0  0  0  0  0
    3.7545   -0.4340    0.1393 H   0  0  0  0  0  0  0  0  0  0  0  0
    3.9562    2.0629    4.1573 H   0  0  0  0  0  0  0  0  0  0  0  0
    3.1966    0.9307    5.2661 H   0  0  0  0  0  0  0  0  0  0  0  0
    2.2642    1.6481    3.9559 H   0  0  0  0  0  0  0  0  0  0  0  0
    3.8321   -2.8553    2.0144 H   0  0  0  0  0  0  0  0  0  0  0  0
    4.8412   -4.4797    5.6911 H   0  0  0  0  0  0  0  0  0  0  0  0
    3.0778   -4.5129    5.9433 H   0  0  0  0  0  0  0  0  0  0  0  0
    4.0099   -3.0479    6.3081 H   0  0  0  0  0  0  0  0  0  0  0  0
    3.9852   -6.2232   -0.3791 H   0  0  0  0  0  0  0  0  0  0  0  0
    3.3936   -6.3834    1.2417 H   0  0  0  0  0  0  0  0  0  0  0  0
    1.9763   -3.7611   -1.3026 H   0  0  0  0  0  0  0  0  0  0  0  0
    4.1076   -2.8336   -3.1504 H   0  0  0  0  0  0  0  0  0  0  0  0
    4.4176   -1.3519   -2.2028 H   0  0  0  0  0  0  0  0  0  0  0  0
  1  2  1  0
  1 32  1  0
  1 33  1  0
  1 34  1  0
  2 14  1  0
  2  3  1  0
  2 35  1  1
  3  7  1  0
  3  4  1  0
  3 36  1  1
  4  5  1  0
  4 37  1  0
  4 38  1  0
  5 11  1  0
  5  6  1  0
  5 39  1  6
  6  7  1  0
  7  8  1  1
  7  9  1  0
  8 40  1  0
  8 41  1  0
  8 42  1  0
  9 10  1  0
 11 10  1  1
 11 29  1  0
 11 12  1  0
 12 17  1  0
 12 13  1  0
 12 43  1  6
 13 14  1  0
 14 15  1  1
 14 16  1  0
 15 44  1  0
 15 45  1  0
 15 46  1  0
 17 16  1  1
 17 20  1  0
 17 18  1  0
 18 19  1  0
 20 19  1  1
 20 28  1  0
 20 21  1  0
 21 22  1  0
 21 47  1  0
 21 48  1  0
 22 23  1  0
 23 24  2  0
 23 49  1  0
 24 27  1  0
 24 25  1  0
 25 26  1  0
 25 50  1  0
 25 51  1  0
 27 26  1  6
 27 28  1  0
 27 29  1  0
 29 30  1  0
 29 31  1  0
M  END
>  <i_m_ct_stereo_status>  (154) 
1

>  <s_m_source_file>  (154) 
/var/tmp/pbs.5076253.sched01/tmp9pzrzrnh/1418a54yjb5.sdf

>  <i_m_source_file_index>  (154) 
38

>  <i_lp_mmshare_version>  (154) 
48012

>  <i_f3d_flags>  (154) 
0

>  <s_epik_input>  (154) 
TzFPW0NAXShPMikoW0NIM10pW0NAQEhdKFtDSDJdW0NAQEhdMltDQEBdMTM0KVtDQEBIXShbQ0gzXSlbQ0BdNShbQ0gzXSlPW0NAQEhdM1tDQEBdNihPNSlbQ0BAXTcoT082KVtDSDJdT1tDSF09QzhbQ0BdKE83KShDNChGKUYpT1tDSDJdOA==

>  <s_epik_cmdline>  (154) 
J2VwaWtfcHl0aG9uJywgJy1waHQnLCAnMi4wJywgJy1waCcsICc3LjAnLCAnLXRuJywgJzgnLCAnLW1hJywgJzIwMCcsICctaW1hZScsICc8aW5maWxlLm1hZT4nLCAnLW9tYWUnLCAnPG91dGZpbGUubWFlPic=

>  <r_lp_tautomer_probability>  (154) 
1

>  <r_epik_Ionization_Penalty>  (154) 
1.31558e-16

>  <r_epik_Ionization_Penalty_Charging>  (154) 
0

>  <r_epik_Ionization_Penalty_Neutral>  (154) 
1.31558e-16

>  <r_epik_State_Penalty>  (154) 
-0

>  <r_epik_Charging_Adjusted_Penalty>  (154) 
0

>  <i_epik_Tot_Q>  (154) 
0

>  <i_epik_Tot_abs_Q>  (154) 
0

>  <s_lp_Force_Field>  (154) 
OPLS3e

>  <r_lp_Energy>  (154) 
104.613

>  <b_lp_Chiralities_Consistent>  (154) 
1

>  <s_lp_Variant>  (154) 
102:0-1

>  <s_i_glide_gridfile>  (154) 
pfpi4k_grid

>  <i_i_glide_lignum>  (154) 
38

>  <i_i_glide_rotatable_bonds>  (154) 
0

>  <r_i_docking_score>  (154) 
-2.69277

>  <r_i_glide_ligand_efficiency>  (154) 
-0.0868634

>  <r_i_glide_ligand_efficiency_sa>  (154) 
-0.272871

>  <r_i_glide_ligand_efficiency_ln>  (154) 
-0.607301

>  <r_i_glide_gscore>  (154) 
-2.69277

>  <r_i_glide_lipo>  (154) 
-0.292258

>  <r_i_glide_hbond>  (154) 
0

>  <r_i_glide_metal>  (154) 
-0

>  <r_i_glide_rewards>  (154) 
-0.617657

>  <r_i_glide_evdw>  (154) 
-26.5715

>  <r_i_glide_ecoul>  (154) 
-2.66816

>  <r_i_glide_erotb>  (154) 
0

>  <r_i_glide_esite>  (154) 
-0.0540505

>  <r_i_glide_emodel>  (154) 
-33.9048

>  <r_i_glide_energy>  (154) 
-29.2397

>  <r_i_glide_einternal>  (154) 
0

>  <r_i_glide_intrahb_reward>  (154) 
-0

>  <i_i_glide_confnum>  (154) 
2

>  <i_i_glide_posenum>  (154) 
12

>  <r_i_glide_eff_state_penalty>  (154) 
0

>  <ligand_id>  (154) 
102

>  <original_smiles>  (154) 
CC1C2CC3OC2(C)OOC32C3OC1(C)OC31OOC13COC=C1COC1(O3)C2(F)F

>  <smiles>  (154) 
[H]C1=C2C([H])([H])OC23OC2(OOC24OC2(C([H])([H])[H])OC4([H])C4(OOC5(C([H])([H])[H])OC4([H])C([H])([H])C5([H])C2([H])C([H])([H])[H])C3(F)F)C([H])([H])O1

$$$$
102:0:2
     RDKit          3D

 51 58  0  0  1  0  0  0  0  0999 V2000
    4.9815   -4.4609    4.4185 C   0  0  0  0  0  0  0  0  0  0  0  0
    3.7414   -4.8261    3.5786 C   0  0  2  0  0  0  0  0  0  0  0  0
    4.0937   -5.8294    2.3645 C   0  0  2  0  0  0  0  0  0  0  0  0
    5.2652   -5.4615    1.4472 C   0  0  0  0  0  0  0  0  0  0  0  0
    4.5417   -5.2756    0.0952 C   0  0  1  0  0  0  0  0  0  0  0  0
    3.8972   -6.5462    0.1678 O   0  0  0  0  0  0  0  0  0  0  0  0
    3.0651   -6.4623    1.3163 C   0  0  1  0  0  0  0  0  0  0  0  0
    2.5791   -7.8676    1.7117 C   0  0  0  0  0  0  0  0  0  0  0  0
    1.9071   -5.7222    0.9310 O   0  0  0  0  0  0  0  0  0  0  0  0
    2.2362   -4.8406   -0.2895 O   0  0  0  0  0  0  0  0  0  0  0  0
    3.4484   -4.1020   -0.0621 C   0  0  1  0  0  0  0  0  0  0  0  0
    3.1871   -3.3093    1.2320 C   0  0  2  0  0  0  0  0  0  0  0  0
    2.2250   -3.7424    2.1575 O   0  0  0  0  0  0  0  0  0  0  0  0
    2.8764   -3.5038    3.3053 C   0  0  1  0  0  0  0  0  0  0  0  0
    1.8013   -3.2653    4.3772 C   0  0  0  0  0  0  0  0  0  0  0  0
    3.6149   -2.2969    3.0773 O   0  0  0  0  0  0  0  0  0  0  0  0
    3.3735   -1.9168    1.6863 C   0  0  2  0  0  0  0  0  0  0  0  0
    2.2910   -0.9868    1.5556 O   0  0  0  0  0  0  0  0  0  0  0  0
    3.3362    0.1028    1.4697 O   0  0  0  0  0  0  0  0  0  0  0  0
    4.2969   -0.8962    1.0491 C   0  0  1  0  0  0  0  0  0  0  0  0
    5.6598   -0.6624    1.6489 C   0  0  0  0  0  0  0  0  0  0  0  0
    6.4052   -1.8561    1.7719 O   0  0  0  0  0  0  0  0  0  0  0  0
    6.8935   -2.4034    0.6173 C   0  0  0  0  0  0  0  0  0  0  0  0
    6.1987   -2.5306   -0.5295 C   0  0  0  0  0  0  0  0  0  0  0  0
    6.6147   -2.7199   -1.9377 C   0  0  0  0  0  0  0  0  0  0  0  0
    5.4844   -1.8528   -2.3173 O   0  0  0  0  0  0  0  0  0  0  0  0
    4.8537   -2.0799   -1.0108 C   0  0  2  0  0  0  0  0  0  0  0  0
    4.4194   -0.8860   -0.3809 O   0  0  0  0  0  0  0  0  0  0  0  0
    3.7542   -3.1474   -1.2323 C   0  0  0  0  0  0  0  0  0  0  0  0
    4.0288   -3.8521   -2.3264 F   0  0  0  0  0  0  0  0  0  0  0  0
    2.6471   -2.4671   -1.4829 F   0  0  0  0  0  0  0  0  0  0  0  0
    5.6552   -3.7953    3.8766 H   0  0  0  0  0  0  0  0  0  0  0  0
    5.5477   -5.3542    4.6885 H   0  0  0  0  0  0  0  0  0  0  0  0
    4.7013   -3.9569    5.3441 H   0  0  0  0  0  0  0  0  0  0  0  0
    3.1105   -5.4355    4.2254 H   0  0  0  0  0  0  0  0  0  0  0  0
    4.4818   -6.6931    2.9039 H   0  0  0  0  0  0  0  0  0  0  0  0
    5.8839   -4.6294    1.7797 H   0  0  0  0  0  0  0  0  0  0  0  0
    5.9431   -6.3104    1.3634 H   0  0  0  0  0  0  0  0  0  0  0  0
    5.2473   -5.2875   -0.7335 H   0  0  0  0  0  0  0  0  0  0  0  0
    2.0039   -8.3299    0.9113 H   0  0  0  0  0  0  0  0  0  0  0  0
    1.9346   -7.8226    2.5862 H   0  0  0  0  0  0  0  0  0  0  0  0
    3.4068   -8.5377    1.9427 H   0  0  0  0  0  0  0  0  0  0  0  0
    4.2114   -3.4756    1.5044 H   0  0  0  0  0  0  0  0  0  0  0  0
    1.1777   -2.4097    4.1098 H   0  0  0  0  0  0  0  0  0  0  0  0
    2.2622   -3.0910    5.3497 H   0  0  0  0  0  0  0  0  0  0  0  0
    1.1564   -4.1443    4.4474 H   0  0  0  0  0  0  0  0  0  0  0  0
    6.1938    0.1198    1.1035 H   0  0  0  0  0  0  0  0  0  0  0  0
    5.5279   -0.2878    2.6621 H   0  0  0  0  0  0  0  0  0  0  0  0
    7.9442   -2.6267    0.6921 H   0  0  0  0  0  0  0  0  0  0  0  0
    7.5757   -2.3055   -2.2313 H   0  0  0  0  0  0  0  0  0  0  0  0
    6.5039   -3.7143   -2.3726 H   0  0  0  0  0  0  0  0  0  0  0  0
  1  2  1  0
  1 32  1  0
  1 33  1  0
  1 34  1  0
  2 14  1  0
  2  3  1  0
  2 35  1  1
  3  7  1  0
  3  4  1  0
  3 36  1  1
  4  5  1  0
  4 37  1  0
  4 38  1  0
  5 11  1  0
  5  6  1  0
  5 39  1  6
  6  7  1  0
  7  8  1  1
  7  9  1  0
  8 40  1  0
  8 41  1  0
  8 42  1  0
  9 10  1  0
 11 10  1  6
 11 29  1  0
 11 12  1  0
 12 17  1  0
 12 13  1  0
 12 43  1  1
 13 14  1  0
 14 15  1  1
 14 16  1  0
 15 44  1  0
 15 45  1  0
 15 46  1  0
 17 16  1  1
 17 20  1  0
 17 18  1  0
 18 19  1  0
 20 19  1  6
 20 28  1  0
 20 21  1  0
 21 22  1  0
 21 47  1  0
 21 48  1  0
 22 23  1  0
 23 24  2  0
 23 49  1  0
 24 27  1  0
 24 25  1  0
 25 26  1  0
 25 50  1  0
 25 51  1  0
 27 26  1  6
 27 28  1  0
 27 29  1  0
 29 30  1  0
 29 31  1  0
M  END
>  <i_m_ct_stereo_status>  (155) 
1

>  <s_m_source_file>  (155) 
/var/tmp/pbs.5076253.sched01/tmp9pzrzrnh/1418a54yjb5.sdf

>  <i_m_source_file_index>  (155) 
38

>  <i_lp_mmshare_version>  (155) 
48012

>  <i_f3d_flags>  (155) 
0

>  <s_epik_input>  (155) 
TzFPW0NAXShPMikoW0NIM10pW0NAQEhdKFtDSDJdW0NAQEhdMltDQEBdMTM0KVtDQEBIXShbQ0gzXSlbQ0BdNShbQ0gzXSlPW0NAQEhdM1tDQEBdNihPNSlbQ0BAXTcoT082KVtDSDJdT1tDSF09QzhbQ0BdKE83KShDNChGKUYpT1tDSDJdOA==

>  <s_epik_cmdline>  (155) 
J2VwaWtfcHl0aG9uJywgJy1waHQnLCAnMi4wJywgJy1waCcsICc3LjAnLCAnLXRuJywgJzgnLCAnLW1hJywgJzIwMCcsICctaW1hZScsICc8aW5maWxlLm1hZT4nLCAnLW9tYWUnLCAnPG91dGZpbGUubWFlPic=

>  <r_lp_tautomer_probability>  (155) 
1

>  <r_epik_Ionization_Penalty>  (155) 
1.31558e-16

>  <r_epik_Ionization_Penalty_Charging>  (155) 
0

>  <r_epik_Ionization_Penalty_Neutral>  (155) 
1.31558e-16

>  <r_epik_State_Penalty>  (155) 
-0

>  <r_epik_Charging_Adjusted_Penalty>  (155) 
0

>  <i_epik_Tot_Q>  (155) 
0

>  <i_epik_Tot_abs_Q>  (155) 
0

>  <s_lp_Force_Field>  (155) 
OPLS3e

>  <r_lp_Energy>  (155) 
104.613

>  <b_lp_Chiralities_Consistent>  (155) 
1

>  <s_lp_Variant>  (155) 
102:0-1

>  <s_i_glide_gridfile>  (155) 
pfpi4k_grid

>  <i_i_glide_lignum>  (155) 
38

>  <i_i_glide_rotatable_bonds>  (155) 
0

>  <r_i_docking_score>  (155) 
-2.18638

>  <r_i_glide_ligand_efficiency>  (155) 
-0.0705285

>  <r_i_glide_ligand_efficiency_sa>  (155) 
-0.221557

>  <r_i_glide_ligand_efficiency_ln>  (155) 
-0.493096

>  <r_i_glide_gscore>  (155) 
-2.18638

>  <r_i_glide_lipo>  (155) 
-0.245812

>  <r_i_glide_hbond>  (155) 
-0.0534436

>  <r_i_glide_metal>  (155) 
-0

>  <r_i_glide_rewards>  (155) 
-0.49263

>  <r_i_glide_evdw>  (155) 
-27.5328

>  <r_i_glide_ecoul>  (155) 
0.925698

>  <r_i_glide_erotb>  (155) 
0

>  <r_i_glide_esite>  (155) 
-0.156713

>  <r_i_glide_emodel>  (155) 
-30.2232

>  <r_i_glide_energy>  (155) 
-26.6071

>  <r_i_glide_einternal>  (155) 
0

>  <r_i_glide_intrahb_reward>  (155) 
-0

>  <i_i_glide_confnum>  (155) 
1

>  <i_i_glide_posenum>  (155) 
3

>  <r_i_glide_eff_state_penalty>  (155) 
0

>  <ligand_id>  (155) 
102

>  <original_smiles>  (155) 
CC1C2CC3OC2(C)OOC32C3OC1(C)OC31OOC13COC=C1COC1(O3)C2(F)F

>  <smiles>  (155) 
[H]C1=C2C([H])([H])OC23OC2(OOC24OC2(C([H])([H])[H])OC4([H])C4(OOC5(C([H])([H])[H])OC4([H])C([H])([H])C5([H])C2([H])C([H])([H])[H])C3(F)F)C([H])([H])O1

$$$$
104:0:0
     RDKit          3D

 67 75  0  0  1  0  0  0  0  0999 V2000
    0.4468    5.8927    3.9231 C   0  0  0  0  0  0  0  0  0  0  0  0
   -0.4264    4.8467    4.3116 O   0  0  0  0  0  0  0  0  0  0  0  0
    0.0677    3.5284    4.0681 C   0  0  2  0  0  0  0  0  0  0  0  0
   -1.0728    2.5147    4.1088 C   0  0  1  0  0  0  0  0  0  0  0  0
   -1.9791    2.6088    2.8814 C   0  0  0  0  0  0  0  0  0  0  0  0
   -1.3234    1.4626    2.2788 O   0  0  0  0  0  0  0  0  0  0  0  0
   -0.8666    1.0588    3.5902 C   0  0  2  0  0  0  0  0  0  0  0  0
   -1.7837    0.1389    4.1688 O   0  0  0  0  0  0  0  0  0  0  0  0
    0.5143    0.3435    3.4891 C   0  0  2  0  0  0  0  0  0  0  0  0
    1.3042    0.7690    2.3963 O   0  0  0  0  0  0  0  0  0  0  0  0
    0.4358   -1.0622    3.7043 O   0  0  0  0  0  0  0  0  0  0  0  0
    1.3671   -0.4062    4.5734 C   0  0  2  0  0  0  0  0  0  0  0  0
    0.8291   -0.2690    6.0541 C   0  0  1  0  0  0  0  0  0  0  0  0
    0.9098   -1.4777    6.8062 O   0  0  0  0  0  0  0  0  0  0  0  0
   -0.0445   -2.4195    6.7386 C   0  0  0  0  0  0  0  0  0  0  0  0
    0.2857   -3.6299    7.6021 C   0  0  0  0  0  0  0  0  0  0  0  0
   -1.0862   -2.3593    6.0888 O   0  0  0  0  0  0  0  0  0  0  0  0
    1.3908    1.0108    6.7888 C   0  0  2  0  0  0  0  0  0  0  0  0
    2.5843    1.0258    6.1886 O   0  0  0  0  0  0  0  0  0  0  0  0
    3.3528    0.2124    6.9375 C   0  0  1  0  0  0  0  0  0  0  0  0
    4.5008    0.1270    6.0296 C   0  0  0  0  0  0  0  0  0  0  0  0
    4.2146   -0.3533    4.7882 C   0  0  0  0  0  0  0  0  0  0  0  0
    5.3221   -0.2882    3.7489 C   0  0  0  0  0  0  0  0  0  0  0  0
    4.8098    0.0941    2.4932 O   0  0  0  0  0  0  0  0  0  0  0  0
    4.0291   -0.9220    1.8916 C   0  0  0  0  0  0  0  0  0  0  0  0
    3.0733   -1.5944    2.8826 C   0  0  1  0  0  0  0  0  0  0  0  0
    3.6281   -2.8166    3.4114 O   0  0  0  0  0  0  0  0  0  0  0  0
    2.9771   -2.5305    4.6653 C   0  0  0  0  0  0  0  0  0  0  0  0
    2.8440   -1.0411    4.3168 C   0  0  2  0  0  0  0  0  0  0  0  0
    3.2715    0.7757    8.1805 O   0  0  0  0  0  0  0  0  0  0  0  0
    1.8715    0.9466    8.2944 C   0  0  1  0  0  0  0  0  0  0  0  0
    1.5504    2.1158    9.0103 O   0  0  0  0  0  0  0  0  0  0  0  0
    0.6594    2.2538    6.2607 C   0  0  1  0  0  0  0  0  0  0  0  0
   -0.7475    2.1858    6.5244 O   0  0  0  0  0  0  0  0  0  0  0  0
   -1.6560    2.6391    5.5217 C   0  0  0  0  0  0  0  0  0  0  0  0
    1.2094    3.5590    6.4373 O   0  0  0  0  0  0  0  0  0  0  0  0
    1.1256    3.1235    5.0640 C   0  0  2  0  0  0  0  0  0  0  0  0
    2.3124    2.6625    4.4458 O   0  0  0  0  0  0  0  0  0  0  0  0
    3.2619    3.6449    4.1125 C   0  0  0  0  0  0  0  0  0  0  0  0
   -0.0337    6.8440    4.1424 H   0  0  0  0  0  0  0  0  0  0  0  0
    0.6421    5.8560    2.8520 H   0  0  0  0  0  0  0  0  0  0  0  0
    1.3942    5.8700    4.4626 H   0  0  0  0  0  0  0  0  0  0  0  0
    0.5175    3.5028    3.0731 H   0  0  0  0  0  0  0  0  0  0  0  0
   -3.0324    2.4446    3.0949 H   0  0  0  0  0  0  0  0  0  0  0  0
   -1.8386    3.5260    2.3100 H   0  0  0  0  0  0  0  0  0  0  0  0
   -2.6108    0.2498    3.7223 H   0  0  0  0  0  0  0  0  0  0  0  0
    0.7371    0.8114    1.6325 H   0  0  0  0  0  0  0  0  0  0  0  0
   -0.2357   -0.0665    5.9825 H   0  0  0  0  0  0  0  0  0  0  0  0
    1.2619   -4.0304    7.3269 H   0  0  0  0  0  0  0  0  0  0  0  0
   -0.4572   -4.4189    7.4714 H   0  0  0  0  0  0  0  0  0  0  0  0
    0.3144   -3.3531    8.6568 H   0  0  0  0  0  0  0  0  0  0  0  0
    3.0864   -0.8366    7.0666 H   0  0  0  0  0  0  0  0  0  0  0  0
    5.4487    0.5829    6.3006 H   0  0  0  0  0  0  0  0  0  0  0  0
    6.0749    0.4454    4.0452 H   0  0  0  0  0  0  0  0  0  0  0  0
    5.8167   -1.2571    3.6750 H   0  0  0  0  0  0  0  0  0  0  0  0
    3.4626   -0.4389    1.0967 H   0  0  0  0  0  0  0  0  0  0  0  0
    4.6763   -1.6557    1.4093 H   0  0  0  0  0  0  0  0  0  0  0  0
    2.1452   -1.8438    2.3730 H   0  0  0  0  0  0  0  0  0  0  0  0
    2.0162   -3.0385    4.7512 H   0  0  0  0  0  0  0  0  0  0  0  0
    3.6022   -2.7501    5.5319 H   0  0  0  0  0  0  0  0  0  0  0  0
    1.4373    0.1084    8.8385 H   0  0  0  0  0  0  0  0  0  0  0  0
    1.7981    2.8645    8.4852 H   0  0  0  0  0  0  0  0  0  0  0  0
   -1.9459    3.6612    5.7538 H   0  0  0  0  0  0  0  0  0  0  0  0
   -2.5698    2.0602    5.6304 H   0  0  0  0  0  0  0  0  0  0  0  0
    4.1268    3.1278    3.7079 H   0  0  0  0  0  0  0  0  0  0  0  0
    3.5838    4.2046    4.9929 H   0  0  0  0  0  0  0  0  0  0  0  0
    2.8805    4.3188    3.3449 H   0  0  0  0  0  0  0  0  0  0  0  0
  1  2  1  0
  1 40  1  0
  1 41  1  0
  1 42  1  0
  2  3  1  0
  3 37  1  0
  3  4  1  0
  3 43  1  6
  4  7  1  0
  4 35  1  0
  4  5  1  6
  5  6  1  0
  5 44  1  0
  5 45  1  0
  6  7  1  0
  7  8  1  1
  7  9  1  0
  8 46  1  0
  9 12  1  0
  9 10  1  6
  9 11  1  0
 10 47  1  0
 12 11  1  6
 12 29  1  0
 12 13  1  0
 13 14  1  0
 13 18  1  0
 13 48  1  6
 14 15  1  0
 15 16  1  0
 15 17  2  0
 16 49  1  0
 16 50  1  0
 16 51  1  0
 18 31  1  0
 18 19  1  6
 18 33  1  0
 19 20  1  0
 20 21  1  0
 20 30  1  0
 20 52  1  1
 21 22  2  3
 21 53  1  0
 22 29  1  0
 22 23  1  0
 23 24  1  0
 23 54  1  0
 23 55  1  0
 24 25  1  0
 25 26  1  0
 25 56  1  0
 25 57  1  0
 26 29  1  0
 26 27  1  0
 26 58  1  6
 27 28  1  0
 29 28  1  1
 28 59  1  0
 28 60  1  0
 30 31  1  0
 31 32  1  0
 31 61  1  1
 32 62  1  0
 33 37  1  0
 33 34  1  0
 33 36  1  1
 34 35  1  0
 35 63  1  0
 35 64  1  0
 36 37  1  0
 37 38  1  6
 38 39  1  0
 39 65  1  0
 39 66  1  0
 39 67  1  0
M  END
>  <i_m_ct_stereo_status>  (156) 
1

>  <s_m_source_file>  (156) 
/var/tmp/pbs.5076253.sched01/tmp9pzrzrnh/1418a54yjb5.sdf

>  <i_m_source_file_index>  (156) 
40

>  <i_lp_mmshare_version>  (156) 
48012

>  <i_f3d_flags>  (156) 
0

>  <s_epik_input>  (156) 
W0NIM11PW0NASF0xW0NAXShPMikoT1tDSDNdKVtDQEBdMihPW0NIMl0zKVtDQEBdKFtDQEBIXShPNClbT0hdKShbQ0BASF01T0MoPU8pW0NIM10pT1tDQEhdNC9bQ0hdPUMoL1tDSDJdT1tDSDJdW0NASF02T1tDSDJdNylbQ0BAXTY3W0NAXTUoTzgpW0NAXTgoW09IXSlbQ0BdKFtDQF0xMzkpKFtPSF0pT1tDSDJdOQ==

>  <s_epik_cmdline>  (156) 
J2VwaWtfcHl0aG9uJywgJy1waHQnLCAnMi4wJywgJy1waCcsICc3LjAnLCAnLXRuJywgJzgnLCAnLW1hJywgJzIwMCcsICctaW1hZScsICc8aW5maWxlLm1hZT4nLCAnLW9tYWUnLCAnPG91dGZpbGUubWFlPic=

>  <r_epik_Ionization_Penalty>  (156) 
0.0122236

>  <r_epik_Ionization_Penalty_Charging>  (156) 
0

>  <r_epik_Ionization_Penalty_Neutral>  (156) 
0.0122236

>  <r_epik_State_Penalty>  (156) 
0.00901485

>  <r_epik_Charging_Adjusted_Penalty>  (156) 
0.00901485

>  <i_epik_Tot_Q>  (156) 
0

>  <i_epik_Tot_abs_Q>  (156) 
0

>  <s_epik_Chemistry_Notes>  (156) 
This compound has an ester and may undergo hydrolysis at high or low pH. This compound contains an acetal/aminal-like group ( X-CH(R)-Y where X, Y are N, S, or O) that may be acid/base labile, releasing an aldehyde.

>  <s_lp_Force_Field>  (156) 
OPLS3e

>  <r_lp_Energy>  (156) 
118.1

>  <b_lp_Chiralities_Consistent>  (156) 
1

>  <s_lp_Variant>  (156) 
104:0-1

>  <s_i_glide_gridfile>  (156) 
pfpi4k_grid

>  <i_i_glide_lignum>  (156) 
40

>  <i_i_glide_rotatable_bonds>  (156) 
7

>  <r_i_docking_score>  (156) 
-2.18025

>  <r_i_glide_ligand_efficiency>  (156) 
-0.0559039

>  <r_i_glide_ligand_efficiency_sa>  (156) 
-0.189582

>  <r_i_glide_ligand_efficiency_ln>  (156) 
-0.467508

>  <r_i_glide_gscore>  (156) 
-2.18025

>  <r_i_glide_lipo>  (156) 
-0.195897

>  <r_i_glide_hbond>  (156) 
-0.0959084

>  <r_i_glide_metal>  (156) 
-0

>  <r_i_glide_rewards>  (156) 
0

>  <r_i_glide_evdw>  (156) 
-21.5368

>  <r_i_glide_ecoul>  (156) 
-5.27107

>  <r_i_glide_erotb>  (156) 
0.0670671

>  <r_i_glide_esite>  (156) 
-0.08801

>  <r_i_glide_emodel>  (156) 
-29.6342

>  <r_i_glide_energy>  (156) 
-26.8079

>  <r_i_glide_einternal>  (156) 
0.59063

>  <r_i_glide_intrahb_reward>  (156) 
-0

>  <i_i_glide_confnum>  (156) 
1

>  <i_i_glide_posenum>  (156) 
25

>  <r_i_glide_eff_state_penalty>  (156) 
0

>  <ligand_id>  (156) 
104

>  <original_smiles>  (156) 
COC1C23COC2(O)C2(O)OC24C(OC(C)=O)C2(OC(C=C5COCC6OCC564)OC2O)C2(OC3)OC12OC

>  <smiles>  (156) 
[H]OC1([H])OC2([H])OC13C([H])(OC(=O)C([H])([H])[H])C1(OC1(O[H])C1(O[H])OC([H])([H])C14C([H])([H])OC31OC1(OC([H])([H])[H])C4([H])OC([H])([H])[H])C13C(=C2[H])C([H])([H])OC([H])([H])C1([H])OC3([H])[H]

$$$$
104:0:1
     RDKit          3D

 67 75  0  0  1  0  0  0  0  0999 V2000
    0.5260    6.3580    4.0454 C   0  0  0  0  0  0  0  0  0  0  0  0
   -0.4553    5.3989    4.4190 O   0  0  0  0  0  0  0  0  0  0  0  0
   -0.1438    4.0478    4.0823 C   0  0  2  0  0  0  0  0  0  0  0  0
   -1.3138    3.1275    4.3598 C   0  0  1  0  0  0  0  0  0  0  0  0
   -2.4439    3.3163    3.3456 C   0  0  0  0  0  0  0  0  0  0  0  0
   -1.9903    2.1527    2.6041 O   0  0  0  0  0  0  0  0  0  0  0  0
   -1.3192    1.6757    3.7939 C   0  0  2  0  0  0  0  0  0  0  0  0
   -2.1817    0.8044    4.5098 O   0  0  0  0  0  0  0  0  0  0  0  0
   -0.0417    0.8567    3.4185 C   0  0  2  0  0  0  0  0  0  0  0  0
    0.5261    1.2339    2.1851 O   0  0  0  0  0  0  0  0  0  0  0  0
   -0.1910   -0.5369    3.6683 O   0  0  0  0  0  0  0  0  0  0  0  0
    0.9555    0.0325    4.3029 C   0  0  2  0  0  0  0  0  0  0  0  0
    0.7459    0.1879    5.8630 C   0  0  1  0  0  0  0  0  0  0  0  0
    0.8927   -1.0289    6.5941 O   0  0  0  0  0  0  0  0  0  0  0  0
   -0.0762   -1.9564    6.6294 C   0  0  0  0  0  0  0  0  0  0  0  0
    0.3206   -3.1706    7.4543 C   0  0  0  0  0  0  0  0  0  0  0  0
   -1.1794   -1.8851    6.0767 O   0  0  0  0  0  0  0  0  0  0  0  0
    1.5412    1.4122    6.4610 C   0  0  2  0  0  0  0  0  0  0  0  0
    2.5863    1.3467    5.6240 O   0  0  0  0  0  0  0  0  0  0  0  0
    3.4312    0.4693    6.1974 C   0  0  1  0  0  0  0  0  0  0  0  0
    4.3569    0.3072    5.0730 C   0  0  0  0  0  0  0  0  0  0  0  0
    3.7790   -0.1413    3.9159 C   0  0  0  0  0  0  0  0  0  0  0  0
    4.6469   -0.1477    2.6730 C   0  0  0  0  0  0  0  0  0  0  0  0
    3.9177    0.2862    1.5466 O   0  0  0  0  0  0  0  0  0  0  0  0
    2.9499   -0.6528    1.1274 C   0  0  0  0  0  0  0  0  0  0  0  0
    2.1709   -1.2604    2.2949 C   0  0  1  0  0  0  0  0  0  0  0  0
    2.7287   -2.5306    2.6990 O   0  0  0  0  0  0  0  0  0  0  0  0
    2.3785   -2.2103    4.0638 C   0  0  0  0  0  0  0  0  0  0  0  0
    2.2917   -0.7098    3.7446 C   0  0  2  0  0  0  0  0  0  0  0  0
    3.6543    1.0248    7.4272 O   0  0  0  0  0  0  0  0  0  0  0  0
    2.3228    1.2950    7.8320 C   0  0  1  0  0  0  0  0  0  0  0  0
    2.2480    2.4769    8.5938 O   0  0  0  0  0  0  0  0  0  0  0  0
    0.8161    2.7104    6.0929 C   0  0  1  0  0  0  0  0  0  0  0  0
   -0.5020    2.7431    6.6525 O   0  0  0  0  0  0  0  0  0  0  0  0
   -1.5706    3.2679    5.8638 C   0  0  0  0  0  0  0  0  0  0  0  0
    1.4864    3.9725    6.1308 O   0  0  0  0  0  0  0  0  0  0  0  0
    1.0716    3.5413    4.8166 C   0  0  2  0  0  0  0  0  0  0  0  0
    2.0815    3.0375    3.9622 O   0  0  0  0  0  0  0  0  0  0  0  0
    2.7052    3.9572    3.0930 C   0  0  0  0  0  0  0  0  0  0  0  0
    0.1720    7.3440    4.3392 H   0  0  0  0  0  0  0  0  0  0  0  0
    0.6873    6.3614    2.9669 H   0  0  0  0  0  0  0  0  0  0  0  0
    1.4856    6.2087    4.5420 H   0  0  0  0  0  0  0  0  0  0  0  0
    0.0337    4.0039    3.0122 H   0  0  0  0  0  0  0  0  0  0  0  0
   -3.4409    3.2076    3.7698 H   0  0  0  0  0  0  0  0  0  0  0  0
   -2.3603    4.2286    2.7560 H   0  0  0  0  0  0  0  0  0  0  0  0
   -2.8575    0.5432    3.8908 H   0  0  0  0  0  0  0  0  0  0  0  0
   -0.1742    1.3576    1.5541 H   0  0  0  0  0  0  0  0  0  0  0  0
   -0.2923    0.4632    6.0173 H   0  0  0  0  0  0  0  0  0  0  0  0
    1.2571   -3.5859    7.0791 H   0  0  0  0  0  0  0  0  0  0  0  0
   -0.4424   -3.9485    7.4028 H   0  0  0  0  0  0  0  0  0  0  0  0
    0.4651   -2.8938    8.4999 H   0  0  0  0  0  0  0  0  0  0  0  0
    3.1193   -0.5510    6.3834 H   0  0  0  0  0  0  0  0  0  0  0  0
    5.3645    0.6911    5.1338 H   0  0  0  0  0  0  0  0  0  0  0  0
    5.4927    0.5232    2.8122 H   0  0  0  0  0  0  0  0  0  0  0  0
    5.0554   -1.1429    2.4974 H   0  0  0  0  0  0  0  0  0  0  0  0
    2.2709   -0.1023    0.4818 H   0  0  0  0  0  0  0  0  0  0  0  0
    3.4164   -1.4253    0.5133 H   0  0  0  0  0  0  0  0  0  0  0  0
    1.1411   -1.4324    1.9925 H   0  0  0  0  0  0  0  0  0  0  0  0
    1.4224   -2.6497    4.3470 H   0  0  0  0  0  0  0  0  0  0  0  0
    3.1523   -2.4895    4.7791 H   0  0  0  0  0  0  0  0  0  0  0  0
    1.9525    0.4833    8.4608 H   0  0  0  0  0  0  0  0  0  0  0  0
    2.3911    3.2157    8.0171 H   0  0  0  0  0  0  0  0  0  0  0  0
   -1.7229    4.3078    6.1443 H   0  0  0  0  0  0  0  0  0  0  0  0
   -2.4856    2.7567    6.1563 H   0  0  0  0  0  0  0  0  0  0  0  0
    3.4184    3.3857    2.4998 H   0  0  0  0  0  0  0  0  0  0  0  0
    3.2128    4.7500    3.6511 H   0  0  0  0  0  0  0  0  0  0  0  0
    2.0240    4.3843    2.3587 H   0  0  0  0  0  0  0  0  0  0  0  0
  1  2  1  0
  1 40  1  0
  1 41  1  0
  1 42  1  0
  2  3  1  0
  3 37  1  0
  3  4  1  0
  3 43  1  6
  4  7  1  0
  4 35  1  0
  4  5  1  6
  5  6  1  0
  5 44  1  0
  5 45  1  0
  6  7  1  0
  7  8  1  1
  7  9  1  0
  8 46  1  0
  9 12  1  0
  9 10  1  6
  9 11  1  0
 10 47  1  0
 12 11  1  6
 12 29  1  0
 12 13  1  0
 13 14  1  0
 13 18  1  0
 13 48  1  6
 14 15  1  0
 15 16  1  0
 15 17  2  0
 16 49  1  0
 16 50  1  0
 16 51  1  0
 18 31  1  0
 18 19  1  6
 18 33  1  0
 19 20  1  0
 20 21  1  0
 20 30  1  0
 20 52  1  1
 21 22  2  3
 21 53  1  0
 22 29  1  0
 22 23  1  0
 23 24  1  0
 23 54  1  0
 23 55  1  0
 24 25  1  0
 25 26  1  0
 25 56  1  0
 25 57  1  0
 26 29  1  0
 26 27  1  0
 26 58  1  6
 27 28  1  0
 29 28  1  1
 28 59  1  0
 28 60  1  0
 30 31  1  0
 31 32  1  0
 31 61  1  1
 32 62  1  0
 33 37  1  0
 33 34  1  0
 33 36  1  1
 34 35  1  0
 35 63  1  0
 35 64  1  0
 36 37  1  0
 37 38  1  6
 38 39  1  0
 39 65  1  0
 39 66  1  0
 39 67  1  0
M  END
>  <i_m_ct_stereo_status>  (157) 
1

>  <s_m_source_file>  (157) 
/var/tmp/pbs.5076253.sched01/tmp9pzrzrnh/1418a54yjb5.sdf

>  <i_m_source_file_index>  (157) 
40

>  <i_lp_mmshare_version>  (157) 
48012

>  <i_f3d_flags>  (157) 
0

>  <s_epik_input>  (157) 
W0NIM11PW0NASF0xW0NAXShPMikoT1tDSDNdKVtDQEBdMihPW0NIMl0zKVtDQEBdKFtDQEBIXShPNClbT0hdKShbQ0BASF01T0MoPU8pW0NIM10pT1tDQEhdNC9bQ0hdPUMoL1tDSDJdT1tDSDJdW0NASF02T1tDSDJdNylbQ0BAXTY3W0NAXTUoTzgpW0NAXTgoW09IXSlbQ0BdKFtDQF0xMzkpKFtPSF0pT1tDSDJdOQ==

>  <s_epik_cmdline>  (157) 
J2VwaWtfcHl0aG9uJywgJy1waHQnLCAnMi4wJywgJy1waCcsICc3LjAnLCAnLXRuJywgJzgnLCAnLW1hJywgJzIwMCcsICctaW1hZScsICc8aW5maWxlLm1hZT4nLCAnLW9tYWUnLCAnPG91dGZpbGUubWFlPic=

>  <r_epik_Ionization_Penalty>  (157) 
0.0122236

>  <r_epik_Ionization_Penalty_Charging>  (157) 
0

>  <r_epik_Ionization_Penalty_Neutral>  (157) 
0.0122236

>  <r_epik_State_Penalty>  (157) 
0.00901485

>  <r_epik_Charging_Adjusted_Penalty>  (157) 
0.00901485

>  <i_epik_Tot_Q>  (157) 
0

>  <i_epik_Tot_abs_Q>  (157) 
0

>  <s_epik_Chemistry_Notes>  (157) 
This compound has an ester and may undergo hydrolysis at high or low pH. This compound contains an acetal/aminal-like group ( X-CH(R)-Y where X, Y are N, S, or O) that may be acid/base labile, releasing an aldehyde.

>  <s_lp_Force_Field>  (157) 
OPLS3e

>  <r_lp_Energy>  (157) 
118.1

>  <b_lp_Chiralities_Consistent>  (157) 
1

>  <s_lp_Variant>  (157) 
104:0-1

>  <s_i_glide_gridfile>  (157) 
pfpi4k_grid

>  <i_i_glide_lignum>  (157) 
40

>  <i_i_glide_rotatable_bonds>  (157) 
7

>  <r_i_docking_score>  (157) 
-2.15902

>  <r_i_glide_ligand_efficiency>  (157) 
-0.0553594

>  <r_i_glide_ligand_efficiency_sa>  (157) 
-0.187735

>  <r_i_glide_ligand_efficiency_ln>  (157) 
-0.462954

>  <r_i_glide_gscore>  (157) 
-2.15902

>  <r_i_glide_lipo>  (157) 
-0.107469

>  <r_i_glide_hbond>  (157) 
-0.0282686

>  <r_i_glide_metal>  (157) 
-0

>  <r_i_glide_rewards>  (157) 
0

>  <r_i_glide_evdw>  (157) 
-21.638

>  <r_i_glide_ecoul>  (157) 
-6.0286

>  <r_i_glide_erotb>  (157) 
0.0670671

>  <r_i_glide_esite>  (157) 
-0.104155

>  <r_i_glide_emodel>  (157) 
-29.4837

>  <r_i_glide_energy>  (157) 
-27.6666

>  <r_i_glide_einternal>  (157) 
2.10087

>  <r_i_glide_intrahb_reward>  (157) 
-0

>  <i_i_glide_confnum>  (157) 
2

>  <i_i_glide_posenum>  (157) 
12

>  <r_i_glide_eff_state_penalty>  (157) 
0

>  <ligand_id>  (157) 
104

>  <original_smiles>  (157) 
COC1C23COC2(O)C2(O)OC24C(OC(C)=O)C2(OC(C=C5COCC6OCC564)OC2O)C2(OC3)OC12OC

>  <smiles>  (157) 
[H]OC1([H])OC2([H])OC13C([H])(OC(=O)C([H])([H])[H])C1(OC1(O[H])C1(O[H])OC([H])([H])C14C([H])([H])OC31OC1(OC([H])([H])[H])C4([H])OC([H])([H])[H])C13C(=C2[H])C([H])([H])OC([H])([H])C1([H])OC3([H])[H]

$$$$
104:0:2
     RDKit          3D

 67 75  0  0  1  0  0  0  0  0999 V2000
    0.5201    6.3170    4.3006 C   0  0  0  0  0  0  0  0  0  0  0  0
   -0.4418    5.3348    4.6593 O   0  0  0  0  0  0  0  0  0  0  0  0
   -0.1264    3.9964    4.2618 C   0  0  2  0  0  0  0  0  0  0  0  0
   -1.3023    3.0648    4.4864 C   0  0  1  0  0  0  0  0  0  0  0  0
   -2.4247    3.3004    3.4771 C   0  0  0  0  0  0  0  0  0  0  0  0
   -1.9770    2.1697    2.6883 O   0  0  0  0  0  0  0  0  0  0  0  0
   -1.3049    1.6439    3.8490 C   0  0  2  0  0  0  0  0  0  0  0  0
   -2.1635    0.7411    4.5177 O   0  0  0  0  0  0  0  0  0  0  0  0
   -0.0360    0.8379    3.4385 C   0  0  2  0  0  0  0  0  0  0  0  0
    0.5519    1.2679    2.2318 O   0  0  0  0  0  0  0  0  0  0  0  0
   -0.1837   -0.5700    3.6186 O   0  0  0  0  0  0  0  0  0  0  0  0
    0.9590   -0.0315    4.2920 C   0  0  2  0  0  0  0  0  0  0  0  0
    0.7368    0.0478    5.8542 C   0  0  1  0  0  0  0  0  0  0  0  0
    0.8731   -1.2123    6.5108 O   0  0  0  0  0  0  0  0  0  0  0  0
   -0.1270   -2.1084    6.5452 C   0  0  0  0  0  0  0  0  0  0  0  0
    0.2772   -3.3890    7.2636 C   0  0  0  0  0  0  0  0  0  0  0  0
   -1.2562   -1.9664    6.0762 O   0  0  0  0  0  0  0  0  0  0  0  0
    1.5373    1.2379    6.5229 C   0  0  2  0  0  0  0  0  0  0  0  0
    2.5848    1.2094    5.6874 O   0  0  0  0  0  0  0  0  0  0  0  0
    3.4188    0.2965    6.2207 C   0  0  1  0  0  0  0  0  0  0  0  0
    4.3498    0.1903    5.0921 C   0  0  0  0  0  0  0  0  0  0  0  0
    3.7826   -0.1950    3.9132 C   0  0  0  0  0  0  0  0  0  0  0  0
    4.6567   -0.1409    2.6747 C   0  0  0  0  0  0  0  0  0  0  0  0
    3.9325    0.3540    1.5695 O   0  0  0  0  0  0  0  0  0  0  0  0
    2.9645   -0.5580    1.0946 C   0  0  0  0  0  0  0  0  0  0  0  0
    2.1802   -1.2265    2.2240 C   0  0  1  0  0  0  0  0  0  0  0  0
    2.7280   -2.5177    2.5675 O   0  0  0  0  0  0  0  0  0  0  0  0
    2.3721   -2.2667    3.9427 C   0  0  0  0  0  0  0  0  0  0  0  0
    2.2913   -0.7514    3.7021 C   0  0  2  0  0  0  0  0  0  0  0  0
    3.6344    0.7855    7.4826 O   0  0  0  0  0  0  0  0  0  0  0  0
    2.2998    1.0327    7.8939 C   0  0  1  0  0  0  0  0  0  0  0  0
    2.2060    2.1649    8.7320 O   0  0  0  0  0  0  0  0  0  0  0  0
    0.8172    2.5606    6.2232 C   0  0  1  0  0  0  0  0  0  0  0  0
   -0.5141    2.5595    6.7603 O   0  0  0  0  0  0  0  0  0  0  0  0
   -1.5719    3.1292    5.9922 C   0  0  0  0  0  0  0  0  0  0  0  0
    1.4797    3.8282    6.3116 O   0  0  0  0  0  0  0  0  0  0  0  0
    1.0782    3.4493    4.9816 C   0  0  2  0  0  0  0  0  0  0  0  0
    2.0939    2.9789    4.1113 O   0  0  0  0  0  0  0  0  0  0  0  0
    2.7741    3.9514    3.3537 C   0  0  0  0  0  0  0  0  0  0  0  0
    0.1707    7.2882    4.6449 H   0  0  0  0  0  0  0  0  0  0  0  0
    0.6419    6.3676    3.2192 H   0  0  0  0  0  0  0  0  0  0  0  0
    1.4946    6.1463    4.7597 H   0  0  0  0  0  0  0  0  0  0  0  0
    0.0766    4.0090    3.1923 H   0  0  0  0  0  0  0  0  0  0  0  0
   -3.4243    3.1788    3.8911 H   0  0  0  0  0  0  0  0  0  0  0  0
   -2.3358    4.2416    2.9325 H   0  0  0  0  0  0  0  0  0  0  0  0
   -2.8526    0.5296    3.8983 H   0  0  0  0  0  0  0  0  0  0  0  0
   -0.1304    1.3632    1.5776 H   0  0  0  0  0  0  0  0  0  0  0  0
   -0.3010    0.3200    6.0143 H   0  0  0  0  0  0  0  0  0  0  0  0
    1.1723   -3.8081    6.8016 H   0  0  0  0  0  0  0  0  0  0  0  0
   -0.5161   -4.1367    7.2109 H   0  0  0  0  0  0  0  0  0  0  0  0
    0.4964   -3.1894    8.3138 H   0  0  0  0  0  0  0  0  0  0  0  0
    3.1015   -0.7365    6.3478 H   0  0  0  0  0  0  0  0  0  0  0  0
    5.3636    0.5651    5.1811 H   0  0  0  0  0  0  0  0  0  0  0  0
    5.5044    0.5224    2.8554 H   0  0  0  0  0  0  0  0  0  0  0  0
    5.0646   -1.1274    2.4498 H   0  0  0  0  0  0  0  0  0  0  0  0
    2.2888    0.0310    0.4792 H   0  0  0  0  0  0  0  0  0  0  0  0
    3.4320   -1.2964    0.4420 H   0  0  0  0  0  0  0  0  0  0  0  0
    1.1501   -1.3770    1.9049 H   0  0  0  0  0  0  0  0  0  0  0  0
    1.4098   -2.7133    4.1969 H   0  0  0  0  0  0  0  0  0  0  0  0
    3.1409   -2.5834    4.6472 H   0  0  0  0  0  0  0  0  0  0  0  0
    1.9147    0.1813    8.4540 H   0  0  0  0  0  0  0  0  0  0  0  0
    2.6043    1.9591    9.5635 H   0  0  0  0  0  0  0  0  0  0  0  0
   -1.7239    4.1525    6.3286 H   0  0  0  0  0  0  0  0  0  0  0  0
   -2.4885    2.6074    6.2548 H   0  0  0  0  0  0  0  0  0  0  0  0
    3.5004    3.4212    2.7544 H   0  0  0  0  0  0  0  0  0  0  0  0
    3.2848    4.6750    3.9918 H   0  0  0  0  0  0  0  0  0  0  0  0
    2.1261    4.4569    2.6393 H   0  0  0  0  0  0  0  0  0  0  0  0
  1  2  1  0
  1 40  1  0
  1 41  1  0
  1 42  1  0
  2  3  1  0
  3 37  1  0
  3  4  1  0
  3 43  1  6
  4  7  1  0
  4 35  1  0
  4  5  1  6
  5  6  1  0
  5 44  1  0
  5 45  1  0
  6  7  1  0
  7  8  1  1
  7  9  1  0
  8 46  1  0
  9 12  1  0
  9 10  1  6
  9 11  1  0
 10 47  1  0
 12 11  1  6
 12 29  1  0
 12 13  1  0
 13 14  1  0
 13 18  1  0
 13 48  1  6
 14 15  1  0
 15 16  1  0
 15 17  2  0
 16 49  1  0
 16 50  1  0
 16 51  1  0
 18 31  1  0
 18 19  1  6
 18 33  1  0
 19 20  1  0
 20 21  1  0
 20 30  1  0
 20 52  1  1
 21 22  2  3
 21 53  1  0
 22 29  1  0
 22 23  1  0
 23 24  1  0
 23 54  1  0
 23 55  1  0
 24 25  1  0
 25 26  1  0
 25 56  1  0
 25 57  1  0
 26 29  1  0
 26 27  1  0
 26 58  1  6
 27 28  1  0
 29 28  1  1
 28 59  1  0
 28 60  1  0
 30 31  1  0
 31 32  1  0
 31 61  1  1
 32 62  1  0
 33 37  1  0
 33 34  1  0
 33 36  1  1
 34 35  1  0
 35 63  1  0
 35 64  1  0
 36 37  1  0
 37 38  1  6
 38 39  1  0
 39 65  1  0
 39 66  1  0
 39 67  1  0
M  END
>  <i_m_ct_stereo_status>  (158) 
1

>  <s_m_source_file>  (158) 
/var/tmp/pbs.5076253.sched01/tmp9pzrzrnh/1418a54yjb5.sdf

>  <i_m_source_file_index>  (158) 
40

>  <i_lp_mmshare_version>  (158) 
48012

>  <i_f3d_flags>  (158) 
0

>  <s_epik_input>  (158) 
W0NIM11PW0NASF0xW0NAXShPMikoT1tDSDNdKVtDQEBdMihPW0NIMl0zKVtDQEBdKFtDQEBIXShPNClbT0hdKShbQ0BASF01T0MoPU8pW0NIM10pT1tDQEhdNC9bQ0hdPUMoL1tDSDJdT1tDSDJdW0NASF02T1tDSDJdNylbQ0BAXTY3W0NAXTUoTzgpW0NAXTgoW09IXSlbQ0BdKFtDQF0xMzkpKFtPSF0pT1tDSDJdOQ==

>  <s_epik_cmdline>  (158) 
J2VwaWtfcHl0aG9uJywgJy1waHQnLCAnMi4wJywgJy1waCcsICc3LjAnLCAnLXRuJywgJzgnLCAnLW1hJywgJzIwMCcsICctaW1hZScsICc8aW5maWxlLm1hZT4nLCAnLW9tYWUnLCAnPG91dGZpbGUubWFlPic=

>  <r_epik_Ionization_Penalty>  (158) 
0.0122236

>  <r_epik_Ionization_Penalty_Charging>  (158) 
0

>  <r_epik_Ionization_Penalty_Neutral>  (158) 
0.0122236

>  <r_epik_State_Penalty>  (158) 
0.00901485

>  <r_epik_Charging_Adjusted_Penalty>  (158) 
0.00901485

>  <i_epik_Tot_Q>  (158) 
0

>  <i_epik_Tot_abs_Q>  (158) 
0

>  <s_epik_Chemistry_Notes>  (158) 
This compound has an ester and may undergo hydrolysis at high or low pH. This compound contains an acetal/aminal-like group ( X-CH(R)-Y where X, Y are N, S, or O) that may be acid/base labile, releasing an aldehyde.

>  <s_lp_Force_Field>  (158) 
OPLS3e

>  <r_lp_Energy>  (158) 
118.1

>  <b_lp_Chiralities_Consistent>  (158) 
1

>  <s_lp_Variant>  (158) 
104:0-1

>  <s_i_glide_gridfile>  (158) 
pfpi4k_grid

>  <i_i_glide_lignum>  (158) 
40

>  <i_i_glide_rotatable_bonds>  (158) 
7

>  <r_i_docking_score>  (158) 
-2.06574

>  <r_i_glide_ligand_efficiency>  (158) 
-0.0529678

>  <r_i_glide_ligand_efficiency_sa>  (158) 
-0.179625

>  <r_i_glide_ligand_efficiency_ln>  (158) 
-0.442954

>  <r_i_glide_gscore>  (158) 
-2.06574

>  <r_i_glide_lipo>  (158) 
-0.12206

>  <r_i_glide_hbond>  (158) 
-0.0104275

>  <r_i_glide_metal>  (158) 
-0

>  <r_i_glide_rewards>  (158) 
0

>  <r_i_glide_evdw>  (158) 
-21.38

>  <r_i_glide_ecoul>  (158) 
-5.56212

>  <r_i_glide_erotb>  (158) 
0.0670671

>  <r_i_glide_esite>  (158) 
-0.0970079

>  <r_i_glide_emodel>  (158) 
-29.2175

>  <r_i_glide_energy>  (158) 
-26.9421

>  <r_i_glide_einternal>  (158) 
1.84506

>  <r_i_glide_intrahb_reward>  (158) 
-0

>  <i_i_glide_confnum>  (158) 
1

>  <i_i_glide_posenum>  (158) 
9

>  <r_i_glide_eff_state_penalty>  (158) 
0

>  <ligand_id>  (158) 
104

>  <original_smiles>  (158) 
COC1C23COC2(O)C2(O)OC24C(OC(C)=O)C2(OC(C=C5COCC6OCC564)OC2O)C2(OC3)OC12OC

>  <smiles>  (158) 
[H]OC1([H])OC2([H])OC13C([H])(OC(=O)C([H])([H])[H])C1(OC1(O[H])C1(O[H])OC([H])([H])C14C([H])([H])OC31OC1(OC([H])([H])[H])C4([H])OC([H])([H])[H])C13C(=C2[H])C([H])([H])OC([H])([H])C1([H])OC3([H])[H]

$$$$
104:1:0
     RDKit          3D

 67 75  0  0  1  0  0  0  0  0999 V2000
    0.8822  -11.2868    4.1964 C   0  0  0  0  0  0  0  0  0  0  0  0
    1.1966  -10.1923    3.3463 O   0  0  0  0  0  0  0  0  0  0  0  0
    0.9407   -8.8938    3.8825 C   0  0  2  0  0  0  0  0  0  0  0  0
    1.2228   -7.8353    2.8198 C   0  0  1  0  0  0  0  0  0  0  0  0
    0.1772   -7.8152    1.7009 C   0  0  0  0  0  0  0  0  0  0  0  0
   -0.4902   -6.6722    2.2967 O   0  0  0  0  0  0  0  0  0  0  0  0
    0.7390   -6.3720    3.0081 C   0  0  2  0  0  0  0  0  0  0  0  0
    1.5118   -5.4417    2.2595 O   0  0  0  0  0  0  0  0  0  0  0  0
    0.4126   -5.7453    4.3915 C   0  0  2  0  0  0  0  0  0  0  0  0
   -0.7325   -6.2615    5.0333 O   0  0  0  0  0  0  0  0  0  0  0  0
    0.6743   -4.3519    4.4726 O   0  0  0  0  0  0  0  0  0  0  0  0
    1.3530   -5.1053    5.4875 C   0  0  2  0  0  0  0  0  0  0  0  0
    2.8754   -5.3214    5.2825 C   0  0  1  0  0  0  0  0  0  0  0  0
    3.6334   -4.1487    5.5731 O   0  0  0  0  0  0  0  0  0  0  0  0
    3.8709   -3.2053    4.6515 C   0  0  0  0  0  0  0  0  0  0  0  0
    4.7463   -2.0777    5.1950 C   0  0  0  0  0  0  0  0  0  0  0  0
    3.4528   -3.2045    3.4954 O   0  0  0  0  0  0  0  0  0  0  0  0
    3.4918   -6.6587    5.8874 C   0  0  2  0  0  0  0  0  0  0  0  0
    3.0818   -7.0353    7.1845 O   0  0  0  0  0  0  0  0  0  0  0  0
    3.8056   -6.2376    8.0575 C   0  0  2  0  0  0  0  0  0  0  0  0
    2.9416   -5.0015    8.2673 C   0  0  0  0  0  0  0  0  0  0  0  0
    1.6160   -5.1265    8.0489 C   0  0  0  0  0  0  0  0  0  0  0  0
    0.7843   -6.2121    8.7359 C   0  0  0  0  0  0  0  0  0  0  0  0
   -0.5788   -6.2366    8.3302 O   0  0  0  0  0  0  0  0  0  0  0  0
   -1.1733   -4.9524    8.3382 C   0  0  0  0  0  0  0  0  0  0  0  0
   -0.5337   -4.1830    7.1956 C   0  0  1  0  0  0  0  0  0  0  0  0
   -0.2715   -2.8214    7.5996 O   0  0  0  0  0  0  0  0  0  0  0  0
    1.0433   -2.9077    6.9991 C   0  0  0  0  0  0  0  0  0  0  0  0
    0.9460   -4.4341    6.8565 C   0  0  2  0  0  0  0  0  0  0  0  0
    5.0164   -5.9265    7.4147 O   0  0  0  0  0  0  0  0  0  0  0  0
    5.0002   -6.5125    6.1536 C   0  0  1  0  0  0  0  0  0  0  0  0
    5.6377   -7.7703    6.1830 O   0  0  0  0  0  0  0  0  0  0  0  0
    3.0366   -7.7675    4.9416 C   0  0  1  0  0  0  0  0  0  0  0  0
    3.5397   -7.5979    3.6080 O   0  0  0  0  0  0  0  0  0  0  0  0
    2.7157   -7.9937    2.5075 C   0  0  0  0  0  0  0  0  0  0  0  0
    3.0860   -9.1228    5.3785 O   0  0  0  0  0  0  0  0  0  0  0  0
    1.7588   -8.6072    5.1210 C   0  0  2  0  0  0  0  0  0  0  0  0
    0.9912   -8.1822    6.2382 O   0  0  0  0  0  0  0  0  0  0  0  0
    0.3922   -9.2469    6.9593 C   0  0  0  0  0  0  0  0  0  0  0  0
    1.1018  -12.2185    3.6710 H   0  0  0  0  0  0  0  0  0  0  0  0
   -0.1834  -11.2805    4.4333 H   0  0  0  0  0  0  0  0  0  0  0  0
    1.4522  -11.2910    5.1300 H   0  0  0  0  0  0  0  0  0  0  0  0
   -0.1095   -8.8541    4.1600 H   0  0  0  0  0  0  0  0  0  0  0  0
    0.6003   -7.6034    0.7198 H   0  0  0  0  0  0  0  0  0  0  0  0
   -0.4396   -8.7093    1.6788 H   0  0  0  0  0  0  0  0  0  0  0  0
    2.2846   -5.2141    2.7568 H   0  0  0  0  0  0  0  0  0  0  0  0
   -0.4761   -7.0196    5.5508 H   0  0  0  0  0  0  0  0  0  0  0  0
    3.0040   -5.4501    4.2170 H   0  0  0  0  0  0  0  0  0  0  0  0
    5.7473   -2.4461    5.4275 H   0  0  0  0  0  0  0  0  0  0  0  0
    4.3150   -1.6675    6.1100 H   0  0  0  0  0  0  0  0  0  0  0  0
    4.8451   -1.2667    4.4701 H   0  0  0  0  0  0  0  0  0  0  0  0
    4.0015   -6.7387    9.0069 H   0  0  0  0  0  0  0  0  0  0  0  0
    3.4403   -4.1396    7.8585 H   0  0  0  0  0  0  0  0  0  0  0  0
    1.2016   -7.2018    8.5828 H   0  0  0  0  0  0  0  0  0  0  0  0
    0.8363   -6.0610    9.8152 H   0  0  0  0  0  0  0  0  0  0  0  0
   -2.2478   -5.0384    8.1916 H   0  0  0  0  0  0  0  0  0  0  0  0
   -1.0088   -4.4688    9.3079 H   0  0  0  0  0  0  0  0  0  0  0  0
   -1.1408   -4.1863    6.2978 H   0  0  0  0  0  0  0  0  0  0  0  0
    1.0945   -2.3934    6.0408 H   0  0  0  0  0  0  0  0  0  0  0  0
    1.8182   -2.5371    7.6649 H   0  0  0  0  0  0  0  0  0  0  0  0
    5.5234   -5.9207    5.4062 H   0  0  0  0  0  0  0  0  0  0  0  0
    5.1149   -8.3483    6.7136 H   0  0  0  0  0  0  0  0  0  0  0  0
    2.9641   -9.0153    2.2249 H   0  0  0  0  0  0  0  0  0  0  0  0
    3.0134   -7.3886    1.6524 H   0  0  0  0  0  0  0  0  0  0  0  0
   -0.1841   -8.8503    7.7950 H   0  0  0  0  0  0  0  0  0  0  0  0
    1.1479   -9.9223    7.3638 H   0  0  0  0  0  0  0  0  0  0  0  0
   -0.3077   -9.8021    6.3352 H   0  0  0  0  0  0  0  0  0  0  0  0
  1  2  1  0
  1 40  1  0
  1 41  1  0
  1 42  1  0
  2  3  1  0
  3 37  1  0
  3  4  1  0
  3 43  1  1
  4  7  1  0
  4 35  1  0
  4  5  1  6
  5  6  1  0
  5 44  1  0
  5 45  1  0
  6  7  1  0
  7  8  1  6
  7  9  1  0
  8 46  1  0
  9 12  1  0
  9 10  1  1
  9 11  1  0
 10 47  1  0
 12 11  1  6
 12 29  1  0
 12 13  1  0
 13 14  1  0
 13 18  1  0
 13 48  1  6
 14 15  1  0
 15 16  1  0
 15 17  2  0
 16 49  1  0
 16 50  1  0
 16 51  1  0
 18 31  1  0
 18 19  1  1
 18 33  1  0
 19 20  1  0
 20 21  1  0
 20 30  1  0
 20 52  1  1
 21 22  2  3
 21 53  1  0
 22 29  1  0
 22 23  1  0
 23 24  1  0
 23 54  1  0
 23 55  1  0
 24 25  1  0
 25 26  1  0
 25 56  1  0
 25 57  1  0
 26 29  1  0
 26 27  1  0
 26 58  1  6
 27 28  1  0
 29 28  1  6
 28 59  1  0
 28 60  1  0
 30 31  1  0
 31 32  1  0
 31 61  1  6
 32 62  1  0
 33 37  1  0
 33 34  1  0
 33 36  1  1
 34 35  1  0
 35 63  1  0
 35 64  1  0
 36 37  1  0
 37 38  1  1
 38 39  1  0
 39 65  1  0
 39 66  1  0
 39 67  1  0
M  END
>  <i_m_ct_stereo_status>  (159) 
1

>  <s_m_source_file>  (159) 
/var/tmp/pbs.5076253.sched01/tmp9pzrzrnh/1418a54yjb5.sdf

>  <i_m_source_file_index>  (159) 
41

>  <i_lp_mmshare_version>  (159) 
48012

>  <i_f3d_flags>  (159) 
2

>  <s_epik_input>  (159) 
W0NIM11PW0NASF0xW0NAXShPMikoT1tDSDNdKVtDQEBdMihPW0NIMl0zKVtDQEBdKFtDQEBIXShPNClbT0hdKShbQ0BASF01T0MoPU8pW0NIM10pT1tDQEhdNC9bQ0hdPUMoL1tDSDJdT1tDSDJdW0NASF02T1tDSDJdNylbQ0BAXTY3W0NAXTUoTzgpW0NAXTgoW09IXSlbQ0BdKFtDQF0xMzkpKFtPSF0pT1tDSDJdOQ==

>  <s_epik_cmdline>  (159) 
J2VwaWtfcHl0aG9uJywgJy1waHQnLCAnMi4wJywgJy1waCcsICc3LjAnLCAnLXRuJywgJzgnLCAnLW1hJywgJzIwMCcsICctaW1hZScsICc8aW5maWxlLm1hZT4nLCAnLW9tYWUnLCAnPG91dGZpbGUubWFlPic=

>  <r_epik_Ionization_Penalty>  (159) 
0.0122236

>  <r_epik_Ionization_Penalty_Charging>  (159) 
0

>  <r_epik_Ionization_Penalty_Neutral>  (159) 
0.0122236

>  <r_epik_State_Penalty>  (159) 
0.00901485

>  <r_epik_Charging_Adjusted_Penalty>  (159) 
0.00901485

>  <i_epik_Tot_Q>  (159) 
0

>  <i_epik_Tot_abs_Q>  (159) 
0

>  <s_epik_Chemistry_Notes>  (159) 
This compound has an ester and may undergo hydrolysis at high or low pH. This compound contains an acetal/aminal-like group ( X-CH(R)-Y where X, Y are N, S, or O) that may be acid/base labile, releasing an aldehyde.

>  <s_lp_Force_Field>  (159) 
OPLS3e

>  <r_lp_Energy>  (159) 
97.791

>  <b_lp_Chiralities_Consistent>  (159) 
0

>  <s_lp_Variant>  (159) 
104:0-2

>  <s_i_glide_gridfile>  (159) 
pfpi4k_grid

>  <i_i_glide_lignum>  (159) 
41

>  <i_i_glide_rotatable_bonds>  (159) 
7

>  <r_i_docking_score>  (159) 
-3.51174

>  <r_i_glide_ligand_efficiency>  (159) 
-0.0900445

>  <r_i_glide_ligand_efficiency_sa>  (159) 
-0.30536

>  <r_i_glide_ligand_efficiency_ln>  (159) 
-0.753016

>  <r_i_glide_gscore>  (159) 
-3.51174

>  <r_i_glide_lipo>  (159) 
-0.0985244

>  <r_i_glide_hbond>  (159) 
-0.34416

>  <r_i_glide_metal>  (159) 
-0

>  <r_i_glide_rewards>  (159) 
-1

>  <r_i_glide_evdw>  (159) 
-20.157

>  <r_i_glide_ecoul>  (159) 
-6.95079

>  <r_i_glide_erotb>  (159) 
0.0670671

>  <r_i_glide_esite>  (159) 
-0.085653

>  <r_i_glide_emodel>  (159) 
-43.2786

>  <r_i_glide_energy>  (159) 
-27.1078

>  <r_i_glide_einternal>  (159) 
1.78506

>  <r_i_glide_intrahb_reward>  (159) 
-1

>  <i_i_glide_confnum>  (159) 
2

>  <i_i_glide_posenum>  (159) 
7

>  <r_i_glide_eff_state_penalty>  (159) 
0

>  <ligand_id>  (159) 
104

>  <original_smiles>  (159) 
COC1C23COC2(O)C2(O)OC24C(OC(C)=O)C2(OC(C=C5COCC6OCC564)OC2O)C2(OC3)OC12OC

>  <smiles>  (159) 
[H]OC1([H])OC2([H])OC13C([H])(OC(=O)C([H])([H])[H])C1(OC1(O[H])C1(O[H])OC([H])([H])C14C([H])([H])OC31OC1(OC([H])([H])[H])C4([H])OC([H])([H])[H])C13C(=C2[H])C([H])([H])OC([H])([H])C1([H])OC3([H])[H]

$$$$
104:1:1
     RDKit          3D

 67 75  0  0  1  0  0  0  0  0999 V2000
    0.7192  -11.6876    4.4292 C   0  0  0  0  0  0  0  0  0  0  0  0
    0.6468  -10.6543    3.4644 O   0  0  0  0  0  0  0  0  0  0  0  0
    0.5323   -9.3204    3.9638 C   0  0  2  0  0  0  0  0  0  0  0  0
    0.5221   -8.3258    2.7981 C   0  0  1  0  0  0  0  0  0  0  0  0
   -0.7852   -8.3452    2.0052 C   0  0  0  0  0  0  0  0  0  0  0  0
   -1.2635   -7.1648    2.6888 O   0  0  0  0  0  0  0  0  0  0  0  0
    0.1090   -6.8436    3.0262 C   0  0  2  0  0  0  0  0  0  0  0  0
    0.6593   -5.9508    2.0643 O   0  0  0  0  0  0  0  0  0  0  0  0
    0.1469   -6.1336    4.3960 C   0  0  2  0  0  0  0  0  0  0  0  0
   -0.8243   -6.5982    5.2831 O   0  0  0  0  0  0  0  0  0  0  0  0
    0.4029   -4.7426    4.3549 O   0  0  0  0  0  0  0  0  0  0  0  0
    1.3164   -5.4558    5.1982 C   0  0  2  0  0  0  0  0  0  0  0  0
    2.7386   -5.6818    4.6223 C   0  0  1  0  0  0  0  0  0  0  0  0
    3.5361   -4.5011    4.6390 O   0  0  0  0  0  0  0  0  0  0  0  0
    3.4741   -3.5861    3.6650 C   0  0  0  0  0  0  0  0  0  0  0  0
    4.4754   -2.4562    3.8818 C   0  0  0  0  0  0  0  0  0  0  0  0
    2.7152   -3.6105    2.6962 O   0  0  0  0  0  0  0  0  0  0  0  0
    3.4929   -6.9878    5.1145 C   0  0  2  0  0  0  0  0  0  0  0  0
    3.4303   -7.2971    6.4920 O   0  0  0  0  0  0  0  0  0  0  0  0
    4.3502   -6.4615    7.1042 C   0  0  2  0  0  0  0  0  0  0  0  0
    3.5601   -5.2109    7.4647 C   0  0  0  0  0  0  0  0  0  0  0  0
    2.2238   -5.3371    7.6065 C   0  0  0  0  0  0  0  0  0  0  0  0
    1.6029   -6.3834    8.5417 C   0  0  0  0  0  0  0  0  0  0  0  0
    0.1777   -6.4271    8.5030 O   0  0  0  0  0  0  0  0  0  0  0  0
   -0.3980   -5.1353    8.5932 C   0  0  0  0  0  0  0  0  0  0  0  0
   -0.0821   -4.4332    7.2804 C   0  0  1  0  0  0  0  0  0  0  0  0
    0.2572   -3.0511    7.5300 O   0  0  0  0  0  0  0  0  0  0  0  0
    1.3806   -3.1747    6.6211 C   0  0  0  0  0  0  0  0  0  0  0  0
    1.2667   -4.7073    6.5886 C   0  0  2  0  0  0  0  0  0  0  0  0
    5.3550   -6.1882    6.1540 O   0  0  0  0  0  0  0  0  0  0  0  0
    5.0182   -6.8387    4.9729 C   0  0  1  0  0  0  0  0  0  0  0  0
    5.6369   -8.1032    4.8930 O   0  0  0  0  0  0  0  0  0  0  0  0
    2.8183   -8.1398    4.3776 C   0  0  1  0  0  0  0  0  0  0  0  0
    2.9507   -8.0449    2.9515 O   0  0  0  0  0  0  0  0  0  0  0  0
    1.8787   -8.5099    2.1219 C   0  0  0  0  0  0  0  0  0  0  0  0
    2.9961   -9.4668    4.8585 O   0  0  0  0  0  0  0  0  0  0  0  0
    1.6421   -8.9631    4.9270 C   0  0  2  0  0  0  0  0  0  0  0  0
    1.1824   -8.4728    6.1789 O   0  0  0  0  0  0  0  0  0  0  0  0
    0.8280   -9.4970    7.0951 C   0  0  0  0  0  0  0  0  0  0  0  0
    0.7634  -12.6438    3.9174 H   0  0  0  0  0  0  0  0  0  0  0  0
   -0.1639  -11.7059    5.0695 H   0  0  0  0  0  0  0  0  0  0  0  0
    1.5949  -11.6204    5.0691 H   0  0  0  0  0  0  0  0  0  0  0  0
   -0.4076   -9.2651    4.5015 H   0  0  0  0  0  0  0  0  0  0  0  0
   -0.6551   -8.1692    0.9427 H   0  0  0  0  0  0  0  0  0  0  0  0
   -1.3765   -9.2338    2.1891 H   0  0  0  0  0  0  0  0  0  0  0  0
    1.5713   -5.8153    2.2744 H   0  0  0  0  0  0  0  0  0  0  0  0
   -0.4620   -7.3275    5.7687 H   0  0  0  0  0  0  0  0  0  0  0  0
    2.5819   -5.8619    3.5660 H   0  0  0  0  0  0  0  0  0  0  0  0
    5.4964   -2.8330    3.8004 H   0  0  0  0  0  0  0  0  0  0  0  0
    4.3533   -2.0211    4.8758 H   0  0  0  0  0  0  0  0  0  0  0  0
    4.3465   -1.6652    3.1419 H   0  0  0  0  0  0  0  0  0  0  0  0
    4.7853   -6.9101    7.9953 H   0  0  0  0  0  0  0  0  0  0  0  0
    3.9260   -4.3739    6.8977 H   0  0  0  0  0  0  0  0  0  0  0  0
    1.9851   -7.3806    8.3388 H   0  0  0  0  0  0  0  0  0  0  0  0
    1.9309   -6.1684    9.5616 H   0  0  0  0  0  0  0  0  0  0  0  0
   -1.4733   -5.2186    8.7373 H   0  0  0  0  0  0  0  0  0  0  0  0
    0.0110   -4.6034    9.4578 H   0  0  0  0  0  0  0  0  0  0  0  0
   -0.9032   -4.4865    6.5734 H   0  0  0  0  0  0  0  0  0  0  0  0
    1.1797   -2.7137    5.6594 H   0  0  0  0  0  0  0  0  0  0  0  0
    2.2973   -2.7758    7.0473 H   0  0  0  0  0  0  0  0  0  0  0  0
    5.3246   -6.2867    4.0851 H   0  0  0  0  0  0  0  0  0  0  0  0
    5.2332   -8.6688    5.5296 H   0  0  0  0  0  0  0  0  0  0  0  0
    2.0541   -9.5463    1.8421 H   0  0  0  0  0  0  0  0  0  0  0  0
    1.9360   -7.9511    1.1890 H   0  0  0  0  0  0  0  0  0  0  0  0
    0.4812   -9.0598    8.0308 H   0  0  0  0  0  0  0  0  0  0  0  0
    1.6844  -10.1354    7.3224 H   0  0  0  0  0  0  0  0  0  0  0  0
    0.0058  -10.1040    6.7165 H   0  0  0  0  0  0  0  0  0  0  0  0
  1  2  1  0
  1 40  1  0
  1 41  1  0
  1 42  1  0
  2  3  1  0
  3 37  1  0
  3  4  1  0
  3 43  1  1
  4  7  1  0
  4 35  1  0
  4  5  1  6
  5  6  1  0
  5 44  1  0
  5 45  1  0
  6  7  1  0
  7  8  1  6
  7  9  1  0
  8 46  1  0
  9 12  1  0
  9 10  1  1
  9 11  1  0
 10 47  1  0
 12 11  1  6
 12 29  1  0
 12 13  1  0
 13 14  1  0
 13 18  1  0
 13 48  1  6
 14 15  1  0
 15 16  1  0
 15 17  2  0
 16 49  1  0
 16 50  1  0
 16 51  1  0
 18 31  1  0
 18 19  1  1
 18 33  1  0
 19 20  1  0
 20 21  1  0
 20 30  1  0
 20 52  1  1
 21 22  2  3
 21 53  1  0
 22 29  1  0
 22 23  1  0
 23 24  1  0
 23 54  1  0
 23 55  1  0
 24 25  1  0
 25 26  1  0
 25 56  1  0
 25 57  1  0
 26 29  1  0
 26 27  1  0
 26 58  1  6
 27 28  1  0
 29 28  1  6
 28 59  1  0
 28 60  1  0
 30 31  1  0
 31 32  1  0
 31 61  1  6
 32 62  1  0
 33 37  1  0
 33 34  1  0
 33 36  1  1
 34 35  1  0
 35 63  1  0
 35 64  1  0
 36 37  1  0
 37 38  1  1
 38 39  1  0
 39 65  1  0
 39 66  1  0
 39 67  1  0
M  END
>  <i_m_ct_stereo_status>  (160) 
1

>  <s_m_source_file>  (160) 
/var/tmp/pbs.5076253.sched01/tmp9pzrzrnh/1418a54yjb5.sdf

>  <i_m_source_file_index>  (160) 
41

>  <i_lp_mmshare_version>  (160) 
48012

>  <i_f3d_flags>  (160) 
2

>  <s_epik_input>  (160) 
W0NIM11PW0NASF0xW0NAXShPMikoT1tDSDNdKVtDQEBdMihPW0NIMl0zKVtDQEBdKFtDQEBIXShPNClbT0hdKShbQ0BASF01T0MoPU8pW0NIM10pT1tDQEhdNC9bQ0hdPUMoL1tDSDJdT1tDSDJdW0NASF02T1tDSDJdNylbQ0BAXTY3W0NAXTUoTzgpW0NAXTgoW09IXSlbQ0BdKFtDQF0xMzkpKFtPSF0pT1tDSDJdOQ==

>  <s_epik_cmdline>  (160) 
J2VwaWtfcHl0aG9uJywgJy1waHQnLCAnMi4wJywgJy1waCcsICc3LjAnLCAnLXRuJywgJzgnLCAnLW1hJywgJzIwMCcsICctaW1hZScsICc8aW5maWxlLm1hZT4nLCAnLW9tYWUnLCAnPG91dGZpbGUubWFlPic=

>  <r_epik_Ionization_Penalty>  (160) 
0.0122236

>  <r_epik_Ionization_Penalty_Charging>  (160) 
0

>  <r_epik_Ionization_Penalty_Neutral>  (160) 
0.0122236

>  <r_epik_State_Penalty>  (160) 
0.00901485

>  <r_epik_Charging_Adjusted_Penalty>  (160) 
0.00901485

>  <i_epik_Tot_Q>  (160) 
0

>  <i_epik_Tot_abs_Q>  (160) 
0

>  <s_epik_Chemistry_Notes>  (160) 
This compound has an ester and may undergo hydrolysis at high or low pH. This compound contains an acetal/aminal-like group ( X-CH(R)-Y where X, Y are N, S, or O) that may be acid/base labile, releasing an aldehyde.

>  <s_lp_Force_Field>  (160) 
OPLS3e

>  <r_lp_Energy>  (160) 
97.791

>  <b_lp_Chiralities_Consistent>  (160) 
0

>  <s_lp_Variant>  (160) 
104:0-2

>  <s_i_glide_gridfile>  (160) 
pfpi4k_grid

>  <i_i_glide_lignum>  (160) 
41

>  <i_i_glide_rotatable_bonds>  (160) 
7

>  <r_i_docking_score>  (160) 
-2.68248

>  <r_i_glide_ligand_efficiency>  (160) 
-0.0687815

>  <r_i_glide_ligand_efficiency_sa>  (160) 
-0.233253

>  <r_i_glide_ligand_efficiency_ln>  (160) 
-0.5752

>  <r_i_glide_gscore>  (160) 
-2.68248

>  <r_i_glide_lipo>  (160) 
-0.0297746

>  <r_i_glide_hbond>  (160) 
-0.16

>  <r_i_glide_metal>  (160) 
-0

>  <r_i_glide_rewards>  (160) 
-0.5

>  <r_i_glide_evdw>  (160) 
-20.5441

>  <r_i_glide_ecoul>  (160) 
-6.13219

>  <r_i_glide_erotb>  (160) 
0.0670671

>  <r_i_glide_esite>  (160) 
-0.112739

>  <r_i_glide_emodel>  (160) 
-35.554

>  <r_i_glide_energy>  (160) 
-26.6763

>  <r_i_glide_einternal>  (160) 
2.32619

>  <r_i_glide_intrahb_reward>  (160) 
-0.5

>  <i_i_glide_confnum>  (160) 
2

>  <i_i_glide_posenum>  (160) 
1

>  <r_i_glide_eff_state_penalty>  (160) 
0

>  <ligand_id>  (160) 
104

>  <original_smiles>  (160) 
COC1C23COC2(O)C2(O)OC24C(OC(C)=O)C2(OC(C=C5COCC6OCC564)OC2O)C2(OC3)OC12OC

>  <smiles>  (160) 
[H]OC1([H])OC2([H])OC13C([H])(OC(=O)C([H])([H])[H])C1(OC1(O[H])C1(O[H])OC([H])([H])C14C([H])([H])OC31OC1(OC([H])([H])[H])C4([H])OC([H])([H])[H])C13C(=C2[H])C([H])([H])OC([H])([H])C1([H])OC3([H])[H]

$$$$
104:1:2
     RDKit          3D

 67 75  0  0  1  0  0  0  0  0999 V2000
    0.7861  -11.6932    4.8507 C   0  0  0  0  0  0  0  0  0  0  0  0
    0.6092  -10.7892    3.7710 O   0  0  0  0  0  0  0  0  0  0  0  0
    0.6060   -9.4052    4.1180 C   0  0  2  0  0  0  0  0  0  0  0  0
    0.3536   -8.5588    2.8660 C   0  0  1  0  0  0  0  0  0  0  0  0
   -1.0901   -8.6431    2.3742 C   0  0  0  0  0  0  0  0  0  0  0  0
   -1.4129   -7.3768    3.0013 O   0  0  0  0  0  0  0  0  0  0  0  0
   -0.0017   -7.0506    3.0043 C   0  0  2  0  0  0  0  0  0  0  0  0
    0.3268   -6.2831    1.8392 O   0  0  0  0  0  0  0  0  0  0  0  0
    0.3481   -6.1824    4.2424 C   0  0  2  0  0  0  0  0  0  0  0  0
   -0.3720   -6.4794    5.4175 O   0  0  0  0  0  0  0  0  0  0  0  0
    0.6144   -4.8215    3.9507 O   0  0  0  0  0  0  0  0  0  0  0  0
    1.6843   -5.4597    4.6621 C   0  0  2  0  0  0  0  0  0  0  0  0
    2.9412   -5.8120    3.8245 C   0  0  1  0  0  0  0  0  0  0  0  0
    3.7292   -4.6604    3.5223 O   0  0  0  0  0  0  0  0  0  0  0  0
    3.5138   -3.9106    2.4342 C   0  0  0  0  0  0  0  0  0  0  0  0
    4.5278   -2.7787    2.3077 C   0  0  0  0  0  0  0  0  0  0  0  0
    2.6153   -4.0786    1.6058 O   0  0  0  0  0  0  0  0  0  0  0  0
    3.7805   -7.0751    4.3063 C   0  0  2  0  0  0  0  0  0  0  0  0
    4.0066   -7.1967    5.6955 O   0  0  0  0  0  0  0  0  0  0  0  0
    5.0511   -6.3324    5.9770 C   0  0  2  0  0  0  0  0  0  0  0  0
    4.3711   -5.0185    6.3412 C   0  0  0  0  0  0  0  0  0  0  0  0
    3.0997   -5.0755    6.7797 C   0  0  0  0  0  0  0  0  0  0  0  0
    2.6810   -5.9791    7.9493 C   0  0  0  0  0  0  0  0  0  0  0  0
    1.2815   -5.9727    8.2138 O   0  0  0  0  0  0  0  0  0  0  0  0
    0.7522   -4.6599    8.2702 C   0  0  0  0  0  0  0  0  0  0  0  0
    0.7856   -4.1310    6.8433 C   0  0  1  0  0  0  0  0  0  0  0  0
    1.1892   -2.7465    6.8331 O   0  0  0  0  0  0  0  0  0  0  0  0
    2.0807   -3.0236    5.7262 C   0  0  0  0  0  0  0  0  0  0  0  0
    1.9474   -4.5423    5.9173 C   0  0  2  0  0  0  0  0  0  0  0  0
    5.8308   -6.2178    4.8053 O   0  0  0  0  0  0  0  0  0  0  0  0
    5.2371   -6.9930    3.8151 C   0  0  1  0  0  0  0  0  0  0  0  0
    5.8276   -8.2772    3.7415 O   0  0  0  0  0  0  0  0  0  0  0  0
    2.9513   -8.2866    3.8873 C   0  0  1  0  0  0  0  0  0  0  0  0
    2.7705   -8.3598    2.4659 O   0  0  0  0  0  0  0  0  0  0  0  0
    1.5400   -8.8720    1.9499 C   0  0  0  0  0  0  0  0  0  0  0  0
    3.1906   -9.5596    4.4820 O   0  0  0  0  0  0  0  0  0  0  0  0
    1.8991   -8.9787    4.7689 C   0  0  2  0  0  0  0  0  0  0  0  0
    1.7361   -8.3323    6.0246 O   0  0  0  0  0  0  0  0  0  0  0  0
    1.5060   -9.2213    7.1070 C   0  0  0  0  0  0  0  0  0  0  0  0
    0.7297  -12.7084    4.4655 H   0  0  0  0  0  0  0  0  0  0  0  0
    0.0131  -11.5866    5.6113 H   0  0  0  0  0  0  0  0  0  0  0  0
    1.7645  -11.5867    5.3191 H   0  0  0  0  0  0  0  0  0  0  0  0
   -0.1990   -9.2500    4.8291 H   0  0  0  0  0  0  0  0  0  0  0  0
   -1.1856   -8.6168    1.2912 H   0  0  0  0  0  0  0  0  0  0  0  0
   -1.6319   -9.4823    2.7946 H   0  0  0  0  0  0  0  0  0  0  0  0
    1.2676   -6.3010    1.7470 H   0  0  0  0  0  0  0  0  0  0  0  0
    0.1157   -7.1201    5.9187 H   0  0  0  0  0  0  0  0  0  0  0  0
    2.5539   -6.1169    2.8610 H   0  0  0  0  0  0  0  0  0  0  0  0
    5.5269   -3.1804    2.1258 H   0  0  0  0  0  0  0  0  0  0  0  0
    4.5622   -2.1871    3.2258 H   0  0  0  0  0  0  0  0  0  0  0  0
    4.2764   -2.1126    1.4809 H   0  0  0  0  0  0  0  0  0  0  0  0
    5.6617   -6.6895    6.8046 H   0  0  0  0  0  0  0  0  0  0  0  0
    4.6121   -4.2704    5.6052 H   0  0  0  0  0  0  0  0  0  0  0  0
    2.9918   -7.0104    7.7992 H   0  0  0  0  0  0  0  0  0  0  0  0
    3.2223   -5.6555    8.8418 H   0  0  0  0  0  0  0  0  0  0  0  0
   -0.2662   -4.6926    8.6541 H   0  0  0  0  0  0  0  0  0  0  0  0
    1.3438   -4.0430    8.9534 H   0  0  0  0  0  0  0  0  0  0  0  0
   -0.1725   -4.2310    6.3426 H   0  0  0  0  0  0  0  0  0  0  0  0
    1.6768   -2.6766    4.7793 H   0  0  0  0  0  0  0  0  0  0  0  0
    3.0708   -2.6081    5.8898 H   0  0  0  0  0  0  0  0  0  0  0  0
    5.3303   -6.5527    2.8212 H   0  0  0  0  0  0  0  0  0  0  0  0
    6.7126   -8.1807    3.4384 H   0  0  0  0  0  0  0  0  0  0  0  0
    1.6390   -9.9400    1.7707 H   0  0  0  0  0  0  0  0  0  0  0  0
    1.4179   -8.4255    0.9649 H   0  0  0  0  0  0  0  0  0  0  0  0
    1.3868   -8.6528    8.0294 H   0  0  0  0  0  0  0  0  0  0  0  0
    2.3380   -9.9151    7.2450 H   0  0  0  0  0  0  0  0  0  0  0  0
    0.5826   -9.7827    6.9700 H   0  0  0  0  0  0  0  0  0  0  0  0
  1  2  1  0
  1 40  1  0
  1 41  1  0
  1 42  1  0
  2  3  1  0
  3 37  1  0
  3  4  1  0
  3 43  1  1
  4  7  1  0
  4 35  1  0
  4  5  1  6
  5  6  1  0
  5 44  1  0
  5 45  1  0
  6  7  1  0
  7  8  1  6
  7  9  1  0
  8 46  1  0
  9 12  1  0
  9 10  1  1
  9 11  1  0
 10 47  1  0
 12 11  1  6
 12 29  1  0
 12 13  1  0
 13 14  1  0
 13 18  1  0
 13 48  1  6
 14 15  1  0
 15 16  1  0
 15 17  2  0
 16 49  1  0
 16 50  1  0
 16 51  1  0
 18 31  1  0
 18 19  1  1
 18 33  1  0
 19 20  1  0
 20 21  1  0
 20 30  1  0
 20 52  1  1
 21 22  2  3
 21 53  1  0
 22 29  1  0
 22 23  1  0
 23 24  1  0
 23 54  1  0
 23 55  1  0
 24 25  1  0
 25 26  1  0
 25 56  1  0
 25 57  1  0
 26 29  1  0
 26 27  1  0
 26 58  1  6
 27 28  1  0
 29 28  1  6
 28 59  1  0
 28 60  1  0
 30 31  1  0
 31 32  1  0
 31 61  1  6
 32 62  1  0
 33 37  1  0
 33 34  1  0
 33 36  1  6
 34 35  1  0
 35 63  1  0
 35 64  1  0
 36 37  1  0
 37 38  1  1
 38 39  1  0
 39 65  1  0
 39 66  1  0
 39 67  1  0
M  END
>  <i_m_ct_stereo_status>  (161) 
1

>  <s_m_source_file>  (161) 
/var/tmp/pbs.5076253.sched01/tmp9pzrzrnh/1418a54yjb5.sdf

>  <i_m_source_file_index>  (161) 
41

>  <i_lp_mmshare_version>  (161) 
48012

>  <i_f3d_flags>  (161) 
2

>  <s_epik_input>  (161) 
W0NIM11PW0NASF0xW0NAXShPMikoT1tDSDNdKVtDQEBdMihPW0NIMl0zKVtDQEBdKFtDQEBIXShPNClbT0hdKShbQ0BASF01T0MoPU8pW0NIM10pT1tDQEhdNC9bQ0hdPUMoL1tDSDJdT1tDSDJdW0NASF02T1tDSDJdNylbQ0BAXTY3W0NAXTUoTzgpW0NAXTgoW09IXSlbQ0BdKFtDQF0xMzkpKFtPSF0pT1tDSDJdOQ==

>  <s_epik_cmdline>  (161) 
J2VwaWtfcHl0aG9uJywgJy1waHQnLCAnMi4wJywgJy1waCcsICc3LjAnLCAnLXRuJywgJzgnLCAnLW1hJywgJzIwMCcsICctaW1hZScsICc8aW5maWxlLm1hZT4nLCAnLW9tYWUnLCAnPG91dGZpbGUubWFlPic=

>  <r_epik_Ionization_Penalty>  (161) 
0.0122236

>  <r_epik_Ionization_Penalty_Charging>  (161) 
0

>  <r_epik_Ionization_Penalty_Neutral>  (161) 
0.0122236

>  <r_epik_State_Penalty>  (161) 
0.00901485

>  <r_epik_Charging_Adjusted_Penalty>  (161) 
0.00901485

>  <i_epik_Tot_Q>  (161) 
0

>  <i_epik_Tot_abs_Q>  (161) 
0

>  <s_epik_Chemistry_Notes>  (161) 
This compound has an ester and may undergo hydrolysis at high or low pH. This compound contains an acetal/aminal-like group ( X-CH(R)-Y where X, Y are N, S, or O) that may be acid/base labile, releasing an aldehyde.

>  <s_lp_Force_Field>  (161) 
OPLS3e

>  <r_lp_Energy>  (161) 
97.791

>  <b_lp_Chiralities_Consistent>  (161) 
0

>  <s_lp_Variant>  (161) 
104:0-2

>  <s_i_glide_gridfile>  (161) 
pfpi4k_grid

>  <i_i_glide_lignum>  (161) 
41

>  <i_i_glide_rotatable_bonds>  (161) 
7

>  <r_i_docking_score>  (161) 
-2.48054

>  <r_i_glide_ligand_efficiency>  (161) 
-0.0636036

>  <r_i_glide_ligand_efficiency_sa>  (161) 
-0.215693

>  <r_i_glide_ligand_efficiency_ln>  (161) 
-0.531898

>  <r_i_glide_gscore>  (161) 
-2.48054

>  <r_i_glide_lipo>  (161) 
-0.0435406

>  <r_i_glide_hbond>  (161) 
-0.068063

>  <r_i_glide_metal>  (161) 
-0

>  <r_i_glide_rewards>  (161) 
-0.500642

>  <r_i_glide_evdw>  (161) 
-22.8393

>  <r_i_glide_ecoul>  (161) 
-4.56474

>  <r_i_glide_erotb>  (161) 
0.0670671

>  <r_i_glide_esite>  (161) 
-0.108683

>  <r_i_glide_emodel>  (161) 
-36.0865

>  <r_i_glide_energy>  (161) 
-27.4041

>  <r_i_glide_einternal>  (161) 
2.2875

>  <r_i_glide_intrahb_reward>  (161) 
-0.5

>  <i_i_glide_confnum>  (161) 
2

>  <i_i_glide_posenum>  (161) 
13

>  <r_i_glide_eff_state_penalty>  (161) 
0

>  <ligand_id>  (161) 
104

>  <original_smiles>  (161) 
COC1C23COC2(O)C2(O)OC24C(OC(C)=O)C2(OC(C=C5COCC6OCC564)OC2O)C2(OC3)OC12OC

>  <smiles>  (161) 
[H]OC1([H])OC2([H])OC13C([H])(OC(=O)C([H])([H])[H])C1(OC1(O[H])C1(O[H])OC([H])([H])C14C([H])([H])OC31OC1(OC([H])([H])[H])C4([H])OC([H])([H])[H])C13C(=C2[H])C([H])([H])OC([H])([H])C1([H])OC3([H])[H]

$$$$
104:2:0
     RDKit          3D

 66 74  0  0  1  0  0  0  0  0999 V2000
   -2.1281    4.1188    3.0610 C   0  0  0  0  0  0  0  0  0  0  0  0
   -1.8674    4.1837    4.4612 O   0  0  0  0  0  0  0  0  0  0  0  0
   -1.4246    2.9637    5.0752 C   0  0  2  0  0  0  0  0  0  0  0  0
   -1.3752    3.0859    6.5979 C   0  0  1  0  0  0  0  0  0  0  0  0
   -2.7664    3.0699    7.2378 C   0  0  0  0  0  0  0  0  0  0  0  0
   -2.6012    1.6828    7.6202 O   0  0  0  0  0  0  0  0  0  0  0  0
   -1.1596    1.8347    7.5187 C   0  0  2  0  0  0  0  0  0  0  0  0
   -0.6062    2.1567    8.7802 O   0  0  0  0  0  0  0  0  0  0  0  0
   -0.4907    0.5017    7.0611 C   0  0  2  0  0  0  0  0  0  0  0  0
   -1.3339   -0.3006    6.4409 O   0  0  0  0  0  0  0  0  0  0  0  0
    0.2032   -0.1330    8.1429 O   0  0  0  0  0  0  0  0  0  0  0  0
    1.0172    0.0684    6.9833 C   0  0  2  0  0  0  0  0  0  0  0  0
    2.0217    1.2648    7.1688 C   0  0  1  0  0  0  0  0  0  0  0  0
    3.1980    0.9549    7.9174 O   0  0  0  0  0  0  0  0  0  0  0  0
    3.1994    0.9906    9.2552 C   0  0  0  0  0  0  0  0  0  0  0  0
    4.5712    0.6687    9.8280 C   0  0  0  0  0  0  0  0  0  0  0  0
    2.2409    1.2418    9.9810 O   0  0  0  0  0  0  0  0  0  0  0  0
    2.3059    2.0368    5.8292 C   0  0  2  0  0  0  0  0  0  0  0  0
    2.1723    0.9839    5.0118 O   0  0  0  0  0  0  0  0  0  0  0  0
    3.3869    0.4076    4.9904 C   0  0  1  0  0  0  0  0  0  0  0  0
    3.0474   -0.8457    4.3156 C   0  0  0  0  0  0  0  0  0  0  0  0
    2.1144   -1.5968    4.9592 C   0  0  0  0  0  0  0  0  0  0  0  0
    1.5745   -2.8112    4.2301 C   0  0  0  0  0  0  0  0  0  0  0  0
    0.2023   -2.9999    4.4873 O   0  0  0  0  0  0  0  0  0  0  0  0
   -0.0467   -3.4167    5.8180 C   0  0  0  0  0  0  0  0  0  0  0  0
    0.7477   -2.6031    6.8412 C   0  0  1  0  0  0  0  0  0  0  0  0
    1.9460   -3.3181    7.2172 O   0  0  0  0  0  0  0  0  0  0  0  0
    2.6045   -2.0420    7.3691 C   0  0  0  0  0  0  0  0  0  0  0  0
    1.5809   -1.3618    6.4478 C   0  0  2  0  0  0  0  0  0  0  0  0
    4.1986    1.4221    4.5752 O   0  0  0  0  0  0  0  0  0  0  0  0
    3.7733    2.4676    5.4339 C   0  0  1  0  0  0  0  0  0  0  0  0
    3.8131    3.7190    4.7818 O   0  0  0  0  0  0  0  0  0  0  0  0
    1.1327    2.9506    5.4942 C   0  0  1  0  0  0  0  0  0  0  0  0
    0.9240    3.9376    6.5089 O   0  0  0  0  0  0  0  0  0  0  0  0
   -0.4172    4.2513    6.8737 C   0  0  0  0  0  0  0  0  0  0  0  0
    0.9782    3.4756    4.1776 O   0  0  0  0  0  0  0  0  0  0  0  0
   -0.0543    2.5574    4.5839 C   0  0  2  0  0  0  0  0  0  0  0  0
   -0.0127    1.2593    4.0049 O   0  0  0  0  0  0  0  0  0  0  0  0
   -0.4261    1.1496    2.6574 C   0  0  0  0  0  0  0  0  0  0  0  0
   -2.1414    5.1092    2.6057 H   0  0  0  0  0  0  0  0  0  0  0  0
   -3.0845    3.6260    2.8879 H   0  0  0  0  0  0  0  0  0  0  0  0
   -1.3676    3.5979    2.4918 H   0  0  0  0  0  0  0  0  0  0  0  0
   -2.1290    2.1763    4.8065 H   0  0  0  0  0  0  0  0  0  0  0  0
   -2.8707    3.7292    8.1004 H   0  0  0  0  0  0  0  0  0  0  0  0
   -3.5783    3.2141    6.5190 H   0  0  0  0  0  0  0  0  0  0  0  0
   -1.1607    2.7880    9.2086 H   0  0  0  0  0  0  0  0  0  0  0  0
    1.4957    2.0064    7.7582 H   0  0  0  0  0  0  0  0  0  0  0  0
    4.9471   -0.2586    9.3986 H   0  0  0  0  0  0  0  0  0  0  0  0
    4.5213    0.5489   10.9094 H   0  0  0  0  0  0  0  0  0  0  0  0
    5.2771    1.4670    9.5998 H   0  0  0  0  0  0  0  0  0  0  0  0
    3.8248    0.0475    5.9145 H   0  0  0  0  0  0  0  0  0  0  0  0
    3.3707   -1.0361    3.3017 H   0  0  0  0  0  0  0  0  0  0  0  0
    1.6944   -2.6664    3.1571 H   0  0  0  0  0  0  0  0  0  0  0  0
    2.1398   -3.7005    4.5105 H   0  0  0  0  0  0  0  0  0  0  0  0
   -1.1113   -3.2790    6.0010 H   0  0  0  0  0  0  0  0  0  0  0  0
    0.1526   -4.4859    5.9187 H   0  0  0  0  0  0  0  0  0  0  0  0
    0.1601   -2.4315    7.7405 H   0  0  0  0  0  0  0  0  0  0  0  0
    2.5655   -1.6906    8.3983 H   0  0  0  0  0  0  0  0  0  0  0  0
    3.6297   -2.0462    7.0033 H   0  0  0  0  0  0  0  0  0  0  0  0
    4.4447    2.5418    6.2904 H   0  0  0  0  0  0  0  0  0  0  0  0
    3.2249    3.6931    4.0365 H   0  0  0  0  0  0  0  0  0  0  0  0
   -0.7349    5.1498    6.3512 H   0  0  0  0  0  0  0  0  0  0  0  0
   -0.4088    4.5294    7.9226 H   0  0  0  0  0  0  0  0  0  0  0  0
   -0.3134    0.1144    2.3384 H   0  0  0  0  0  0  0  0  0  0  0  0
    0.1738    1.7861    1.9999 H   0  0  0  0  0  0  0  0  0  0  0  0
   -1.4864    1.3814    2.5683 H   0  0  0  0  0  0  0  0  0  0  0  0
  1  2  1  0
  1 40  1  0
  1 41  1  0
  1 42  1  0
  2  3  1  0
  3 37  1  0
  3  4  1  0
  3 43  1  1
  4  7  1  0
  4 35  1  0
  4  5  1  1
  5  6  1  0
  5 44  1  0
  5 45  1  0
  6  7  1  0
  7  8  1  1
  7  9  1  0
  8 46  1  0
  9 12  1  0
  9 10  1  6
  9 11  1  0
 12 11  1  1
 12 29  1  0
 12 13  1  0
 13 14  1  0
 13 18  1  0
 13 47  1  1
 14 15  1  0
 15 16  1  0
 15 17  2  0
 16 48  1  0
 16 49  1  0
 16 50  1  0
 18 31  1  0
 18 19  1  6
 18 33  1  0
 19 20  1  0
 20 21  1  0
 20 30  1  0
 20 51  1  1
 21 22  2  3
 21 52  1  0
 22 29  1  0
 22 23  1  0
 23 24  1  0
 23 53  1  0
 23 54  1  0
 24 25  1  0
 25 26  1  0
 25 55  1  0
 25 56  1  0
 26 29  1  0
 26 27  1  0
 26 57  1  1
 27 28  1  0
 29 28  1  1
 28 58  1  0
 28 59  1  0
 30 31  1  0
 31 32  1  0
 31 60  1  1
 32 61  1  0
 33 37  1  0
 33 34  1  0
 33 36  1  6
 34 35  1  0
 35 62  1  0
 35 63  1  0
 36 37  1  0
 37 38  1  6
 38 39  1  0
 39 64  1  0
 39 65  1  0
 39 66  1  0
M  CHG  1  10  -1
M  END
>  <i_m_ct_stereo_status>  (162) 
1

>  <s_m_source_file>  (162) 
/var/tmp/pbs.5076253.sched01/tmp9pzrzrnh/1418a54yjb5.sdf

>  <i_m_source_file_index>  (162) 
42

>  <i_lp_mmshare_version>  (162) 
48012

>  <i_f3d_flags>  (162) 
0

>  <s_epik_input>  (162) 
W0NIM11PW0NASF0xW0NAXShPMikoT1tDSDNdKVtDQEBdMihPW0NIMl0zKVtDQEBdKFtDQEBIXShPNClbT0hdKShbQ0BASF01T0MoPU8pW0NIM10pT1tDQEhdNC9bQ0hdPUMoL1tDSDJdT1tDSDJdW0NASF02T1tDSDJdNylbQ0BAXTY3W0NAXTUoTzgpW0NAXTgoW09IXSlbQ0BdKFtDQF0xMzkpKFtPSF0pT1tDSDJdOQ==

>  <s_epik_cmdline>  (162) 
J2VwaWtfcHl0aG9uJywgJy1waHQnLCAnMi4wJywgJy1waCcsICc3LjAnLCAnLXRuJywgJzgnLCAnLW1hJywgJzIwMCcsICctaW1hZScsICc8aW5maWxlLm1hZT4nLCAnLW9tYWUnLCAnPG91dGZpbGUubWFlPic=

>  <r_epik_Ionization_Penalty>  (162) 
2.33165

>  <r_epik_Ionization_Penalty_Charging>  (162) 
2.3314

>  <r_epik_Ionization_Penalty_Neutral>  (162) 
0.000250728

>  <r_epik_State_Penalty>  (162) 
2.48432

>  <r_epik_Charging_Adjusted_Penalty>  (162) 
4.81572

>  <i_epik_Tot_Q>  (162) 
-1

>  <i_epik_Tot_abs_Q>  (162) 
1

>  <s_epik_Chemistry_Notes>  (162) 
This compound has an ester and may undergo hydrolysis at high or low pH. This compound contains an acetal/aminal-like group ( X-CH(R)-Y where X, Y are N, S, or O) that may be acid/base labile, releasing an aldehyde.

>  <s_lp_Force_Field>  (162) 
OPLS3e

>  <r_lp_Energy>  (162) 
126.776

>  <b_lp_Chiralities_Consistent>  (162) 
1

>  <s_lp_Variant>  (162) 
104:0-3

>  <s_i_glide_gridfile>  (162) 
pfpi4k_grid

>  <i_i_glide_lignum>  (162) 
42

>  <i_i_glide_rotatable_bonds>  (162) 
6

>  <r_i_docking_score>  (162) 
-2.15082

>  <r_i_glide_ligand_efficiency>  (162) 
-0.0551493

>  <r_i_glide_ligand_efficiency_sa>  (162) 
-0.187023

>  <r_i_glide_ligand_efficiency_ln>  (162) 
-0.461197

>  <r_i_glide_gscore>  (162) 
-2.15082

>  <r_i_glide_lipo>  (162) 
-0.203694

>  <r_i_glide_hbond>  (162) 
-0.241394

>  <r_i_glide_metal>  (162) 
-0

>  <r_i_glide_rewards>  (162) 
-0.000994734

>  <r_i_glide_evdw>  (162) 
-19.6855

>  <r_i_glide_ecoul>  (162) 
-4.64299

>  <r_i_glide_erotb>  (162) 
0.0672921

>  <r_i_glide_esite>  (162) 
-0.0913051

>  <r_i_glide_emodel>  (162) 
-28.8892

>  <r_i_glide_energy>  (162) 
-24.3285

>  <r_i_glide_einternal>  (162) 
0.344631

>  <r_i_glide_intrahb_reward>  (162) 
-0

>  <i_i_glide_confnum>  (162) 
4

>  <i_i_glide_posenum>  (162) 
25

>  <r_i_glide_eff_state_penalty>  (162) 
0

>  <ligand_id>  (162) 
104

>  <original_smiles>  (162) 
COC1C23COC2(O)C2(O)OC24C(OC(C)=O)C2(OC(C=C5COCC6OCC564)OC2O)C2(OC3)OC12OC

>  <smiles>  (162) 
[H]OC1([H])OC2([H])OC13C([H])(OC(=O)C([H])([H])[H])C1(OC1([O-])C1(O[H])OC([H])([H])C14C([H])([H])OC31OC1(OC([H])([H])[H])C4([H])OC([H])([H])[H])C13C(=C2[H])C([H])([H])OC([H])([H])C1([H])OC3([H])[H]

$$$$
104:2:1
     RDKit          3D

 66 74  0  0  1  0  0  0  0  0999 V2000
   -2.1833    4.0986    2.9375 C   0  0  0  0  0  0  0  0  0  0  0  0
   -1.8795    4.2323    4.3242 O   0  0  0  0  0  0  0  0  0  0  0  0
   -1.4769    3.0322    5.0022 C   0  0  2  0  0  0  0  0  0  0  0  0
   -1.4825    3.2173    6.5258 C   0  0  1  0  0  0  0  0  0  0  0  0
   -2.8954    3.2308    7.1102 C   0  0  0  0  0  0  0  0  0  0  0  0
   -2.7605    1.8538    7.5235 O   0  0  0  0  0  0  0  0  0  0  0  0
   -1.3169    1.9978    7.4944 C   0  0  2  0  0  0  0  0  0  0  0  0
   -0.8553    2.3733    8.7889 O   0  0  0  0  0  0  0  0  0  0  0  0
   -0.6163    0.6425    7.1219 C   0  0  2  0  0  0  0  0  0  0  0  0
   -1.3855   -0.2072    6.4771 O   0  0  0  0  0  0  0  0  0  0  0  0
    0.0400    0.0527    8.2457 O   0  0  0  0  0  0  0  0  0  0  0  0
    0.8892    0.2134    7.1006 C   0  0  2  0  0  0  0  0  0  0  0  0
    1.8943    1.4169    7.2729 C   0  0  1  0  0  0  0  0  0  0  0  0
    3.0353    1.1311    8.0800 O   0  0  0  0  0  0  0  0  0  0  0  0
    2.9823    1.2075    9.4117 C   0  0  0  0  0  0  0  0  0  0  0  0
    4.3273    0.9017   10.0516 C   0  0  0  0  0  0  0  0  0  0  0  0
    1.9868    1.4877   10.0828 O   0  0  0  0  0  0  0  0  0  0  0  0
    2.2343    2.1285    5.9064 C   0  0  2  0  0  0  0  0  0  0  0  0
    2.1106    1.0459    5.1265 O   0  0  0  0  0  0  0  0  0  0  0  0
    3.3240    0.4630    5.1883 C   0  0  1  0  0  0  0  0  0  0  0  0
    2.9899   -0.8147    4.5480 C   0  0  0  0  0  0  0  0  0  0  0  0
    2.0363   -1.5364    5.1901 C   0  0  0  0  0  0  0  0  0  0  0  0
    1.5141   -2.7811    4.4896 C   0  0  0  0  0  0  0  0  0  0  0  0
    0.1299   -2.9512    4.7084 O   0  0  0  0  0  0  0  0  0  0  0  0
   -0.1630   -3.3136    6.0481 C   0  0  0  0  0  0  0  0  0  0  0  0
    0.6067   -2.4655    7.0669 C   0  0  1  0  0  0  0  0  0  0  0  0
    1.7848   -3.1695    7.5202 O   0  0  0  0  0  0  0  0  0  0  0  0
    2.4460   -1.8934    7.6360 C   0  0  0  0  0  0  0  0  0  0  0  0
    1.4596   -1.2378    6.6538 C   0  0  2  0  0  0  0  0  0  0  0  0
    4.1679    1.4500    4.7557 O   0  0  0  0  0  0  0  0  0  0  0  0
    3.7217    2.5294    5.5504 C   0  0  1  0  0  0  0  0  0  0  0  0
    3.7984    3.7571    4.8592 O   0  0  0  0  0  0  0  0  0  0  0  0
    1.0738    3.0344    5.4975 C   0  0  1  0  0  0  0  0  0  0  0  0
    0.8181    4.0441    6.4879 O   0  0  0  0  0  0  0  0  0  0  0  0
   -0.5339    4.3867    6.7864 C   0  0  0  0  0  0  0  0  0  0  0  0
    0.9509    3.5215    4.1579 O   0  0  0  0  0  0  0  0  0  0  0  0
   -0.0958    2.6142    4.5682 C   0  0  2  0  0  0  0  0  0  0  0  0
   -0.0383    1.2899    4.0479 O   0  0  0  0  0  0  0  0  0  0  0  0
   -0.4649    1.1177    2.7131 C   0  0  0  0  0  0  0  0  0  0  0  0
   -2.1763    5.0713    2.4429 H   0  0  0  0  0  0  0  0  0  0  0  0
   -3.1695    3.6477    2.8173 H   0  0  0  0  0  0  0  0  0  0  0  0
   -1.4603    3.5090    2.3815 H   0  0  0  0  0  0  0  0  0  0  0  0
   -2.1833    2.2432    4.7441 H   0  0  0  0  0  0  0  0  0  0  0  0
   -3.0186    3.9179    7.9470 H   0  0  0  0  0  0  0  0  0  0  0  0
   -3.6735    3.3556    6.3620 H   0  0  0  0  0  0  0  0  0  0  0  0
    0.0825    2.4667    8.7430 H   0  0  0  0  0  0  0  0  0  0  0  0
    1.3473    2.1777    7.8204 H   0  0  0  0  0  0  0  0  0  0  0  0
    4.7226   -0.0375    9.6633 H   0  0  0  0  0  0  0  0  0  0  0  0
    4.2393    0.8141   11.1339 H   0  0  0  0  0  0  0  0  0  0  0  0
    5.0434    1.6926    9.8252 H   0  0  0  0  0  0  0  0  0  0  0  0
    3.7311    0.1334    6.1453 H   0  0  0  0  0  0  0  0  0  0  0  0
    3.3611   -1.0497    3.5515 H   0  0  0  0  0  0  0  0  0  0  0  0
    1.6762   -2.6849    3.4120 H   0  0  0  0  0  0  0  0  0  0  0  0
    2.0678   -3.6621    4.8277 H   0  0  0  0  0  0  0  0  0  0  0  0
   -1.2362   -3.1688    6.1783 H   0  0  0  0  0  0  0  0  0  0  0  0
    0.0267   -4.3816    6.1935 H   0  0  0  0  0  0  0  0  0  0  0  0
   -0.0187   -2.2637    7.9331 H   0  0  0  0  0  0  0  0  0  0  0  0
    2.3691   -1.4970    8.6468 H   0  0  0  0  0  0  0  0  0  0  0  0
    3.4832   -1.9133    7.3062 H   0  0  0  0  0  0  0  0  0  0  0  0
    4.3448    2.6303    6.4347 H   0  0  0  0  0  0  0  0  0  0  0  0
    3.2023    3.7239    4.1253 H   0  0  0  0  0  0  0  0  0  0  0  0
   -0.8162    5.2665    6.2119 H   0  0  0  0  0  0  0  0  0  0  0  0
   -0.5607    4.7113    7.8259 H   0  0  0  0  0  0  0  0  0  0  0  0
   -0.3366    0.0731    2.4338 H   0  0  0  0  0  0  0  0  0  0  0  0
    0.1151    1.7348    2.0219 H   0  0  0  0  0  0  0  0  0  0  0  0
   -1.5288    1.3327    2.6195 H   0  0  0  0  0  0  0  0  0  0  0  0
  1  2  1  0
  1 40  1  0
  1 41  1  0
  1 42  1  0
  2  3  1  0
  3 37  1  0
  3  4  1  0
  3 43  1  1
  4  7  1  0
  4 35  1  0
  4  5  1  1
  5  6  1  0
  5 44  1  0
  5 45  1  0
  6  7  1  0
  7  8  1  1
  7  9  1  0
  8 46  1  0
  9 12  1  0
  9 10  1  6
  9 11  1  0
 12 11  1  1
 12 29  1  0
 12 13  1  0
 13 14  1  0
 13 18  1  0
 13 47  1  1
 14 15  1  0
 15 16  1  0
 15 17  2  0
 16 48  1  0
 16 49  1  0
 16 50  1  0
 18 31  1  0
 18 19  1  6
 18 33  1  0
 19 20  1  0
 20 21  1  0
 20 30  1  0
 20 51  1  1
 21 22  2  3
 21 52  1  0
 22 29  1  0
 22 23  1  0
 23 24  1  0
 23 53  1  0
 23 54  1  0
 24 25  1  0
 25 26  1  0
 25 55  1  0
 25 56  1  0
 26 29  1  0
 26 27  1  0
 26 57  1  1
 27 28  1  0
 29 28  1  1
 28 58  1  0
 28 59  1  0
 30 31  1  0
 31 32  1  0
 31 60  1  1
 32 61  1  0
 33 37  1  0
 33 34  1  0
 33 36  1  6
 34 35  1  0
 35 62  1  0
 35 63  1  0
 36 37  1  0
 37 38  1  6
 38 39  1  0
 39 64  1  0
 39 65  1  0
 39 66  1  0
M  CHG  1  10  -1
M  END
>  <i_m_ct_stereo_status>  (163) 
1

>  <s_m_source_file>  (163) 
/var/tmp/pbs.5076253.sched01/tmp9pzrzrnh/1418a54yjb5.sdf

>  <i_m_source_file_index>  (163) 
42

>  <i_lp_mmshare_version>  (163) 
48012

>  <i_f3d_flags>  (163) 
0

>  <s_epik_input>  (163) 
W0NIM11PW0NASF0xW0NAXShPMikoT1tDSDNdKVtDQEBdMihPW0NIMl0zKVtDQEBdKFtDQEBIXShPNClbT0hdKShbQ0BASF01T0MoPU8pW0NIM10pT1tDQEhdNC9bQ0hdPUMoL1tDSDJdT1tDSDJdW0NASF02T1tDSDJdNylbQ0BAXTY3W0NAXTUoTzgpW0NAXTgoW09IXSlbQ0BdKFtDQF0xMzkpKFtPSF0pT1tDSDJdOQ==

>  <s_epik_cmdline>  (163) 
J2VwaWtfcHl0aG9uJywgJy1waHQnLCAnMi4wJywgJy1waCcsICc3LjAnLCAnLXRuJywgJzgnLCAnLW1hJywgJzIwMCcsICctaW1hZScsICc8aW5maWxlLm1hZT4nLCAnLW9tYWUnLCAnPG91dGZpbGUubWFlPic=

>  <r_epik_Ionization_Penalty>  (163) 
2.33165

>  <r_epik_Ionization_Penalty_Charging>  (163) 
2.3314

>  <r_epik_Ionization_Penalty_Neutral>  (163) 
0.000250728

>  <r_epik_State_Penalty>  (163) 
2.48432

>  <r_epik_Charging_Adjusted_Penalty>  (163) 
4.81572

>  <i_epik_Tot_Q>  (163) 
-1

>  <i_epik_Tot_abs_Q>  (163) 
1

>  <s_epik_Chemistry_Notes>  (163) 
This compound has an ester and may undergo hydrolysis at high or low pH. This compound contains an acetal/aminal-like group ( X-CH(R)-Y where X, Y are N, S, or O) that may be acid/base labile, releasing an aldehyde.

>  <s_lp_Force_Field>  (163) 
OPLS3e

>  <r_lp_Energy>  (163) 
126.776

>  <b_lp_Chiralities_Consistent>  (163) 
1

>  <s_lp_Variant>  (163) 
104:0-3

>  <s_i_glide_gridfile>  (163) 
pfpi4k_grid

>  <i_i_glide_lignum>  (163) 
42

>  <i_i_glide_rotatable_bonds>  (163) 
6

>  <r_i_docking_score>  (163) 
-2.14137

>  <r_i_glide_ligand_efficiency>  (163) 
-0.0549069

>  <r_i_glide_ligand_efficiency_sa>  (163) 
-0.186201

>  <r_i_glide_ligand_efficiency_ln>  (163) 
-0.459171

>  <r_i_glide_gscore>  (163) 
-2.14137

>  <r_i_glide_lipo>  (163) 
-0.206882

>  <r_i_glide_hbond>  (163) 
-0.230231

>  <r_i_glide_metal>  (163) 
-0

>  <r_i_glide_rewards>  (163) 
-0.000403376

>  <r_i_glide_evdw>  (163) 
-19.5202

>  <r_i_glide_ecoul>  (163) 
-4.68789

>  <r_i_glide_erotb>  (163) 
0.0672921

>  <r_i_glide_esite>  (163) 
-0.0919524

>  <r_i_glide_emodel>  (163) 
-28.8319

>  <r_i_glide_energy>  (163) 
-24.2081

>  <r_i_glide_einternal>  (163) 
1.03983

>  <r_i_glide_intrahb_reward>  (163) 
-0

>  <i_i_glide_confnum>  (163) 
4

>  <i_i_glide_posenum>  (163) 
1

>  <r_i_glide_eff_state_penalty>  (163) 
0

>  <ligand_id>  (163) 
104

>  <original_smiles>  (163) 
COC1C23COC2(O)C2(O)OC24C(OC(C)=O)C2(OC(C=C5COCC6OCC564)OC2O)C2(OC3)OC12OC

>  <smiles>  (163) 
[H]OC1([H])OC2([H])OC13C([H])(OC(=O)C([H])([H])[H])C1(OC1([O-])C1(O[H])OC([H])([H])C14C([H])([H])OC31OC1(OC([H])([H])[H])C4([H])OC([H])([H])[H])C13C(=C2[H])C([H])([H])OC([H])([H])C1([H])OC3([H])[H]

$$$$
104:2:2
     RDKit          3D

 66 74  0  0  1  0  0  0  0  0999 V2000
   -1.0613   -4.5760    7.0343 C   0  0  0  0  0  0  0  0  0  0  0  0
   -0.7313   -5.8719    6.5680 O   0  0  0  0  0  0  0  0  0  0  0  0
   -0.0445   -5.9902    5.3133 C   0  0  2  0  0  0  0  0  0  0  0  0
    0.0073   -7.4468    4.8273 C   0  0  1  0  0  0  0  0  0  0  0  0
   -1.3199   -7.9574    4.2727 C   0  0  0  0  0  0  0  0  0  0  0  0
   -0.8698   -7.7003    2.9013 O   0  0  0  0  0  0  0  0  0  0  0  0
    0.5091   -7.7520    3.3661 C   0  0  2  0  0  0  0  0  0  0  0  0
    1.0272   -9.0566    3.2399 O   0  0  0  0  0  0  0  0  0  0  0  0
    1.4355   -6.7915    2.5272 C   0  0  2  0  0  0  0  0  0  0  0  0
    0.7606   -5.8791    1.9301 O   0  0  0  0  0  0  0  0  0  0  0  0
    2.3181   -7.5761    1.7083 O   0  0  0  0  0  0  0  0  0  0  0  0
    3.0270   -6.6437    2.5421 C   0  0  2  0  0  0  0  0  0  0  0  0
    3.7413   -7.3826    3.7179 C   0  0  1  0  0  0  0  0  0  0  0  0
    4.9764   -8.0297    3.3772 O   0  0  0  0  0  0  0  0  0  0  0  0
    5.1102   -9.2603    2.8252 C   0  0  0  0  0  0  0  0  0  0  0  0
    3.8228  -10.0248    2.4736 C   0  0  0  0  0  0  0  0  0  0  0  0
    6.2174   -9.7462    2.5774 O   0  0  0  0  0  0  0  0  0  0  0  0
    3.8187   -6.5073    5.0433 C   0  0  2  0  0  0  0  0  0  0  0  0
    3.9051   -5.2953    4.4321 O   0  0  0  0  0  0  0  0  0  0  0  0
    5.2123   -5.1286    4.1662 C   0  0  1  0  0  0  0  0  0  0  0  0
    5.1093   -3.9793    3.2469 C   0  0  0  0  0  0  0  0  0  0  0  0
    4.4061   -4.2009    2.1350 C   0  0  0  0  0  0  0  0  0  0  0  0
    4.1139   -3.0278    1.2149 C   0  0  0  0  0  0  0  0  0  0  0  0
    2.8278   -3.1242    0.6526 O   0  0  0  0  0  0  0  0  0  0  0  0
    2.7528   -4.1400   -0.3278 C   0  0  0  0  0  0  0  0  0  0  0  0
    3.4072   -5.4238    0.1557 C   0  0  1  0  0  0  0  0  0  0  0  0
    4.7724   -5.5479   -0.3397 O   0  0  0  0  0  0  0  0  0  0  0  0
    5.0921   -6.2578    0.8869 C   0  0  0  0  0  0  0  0  0  0  0  0
    3.8896   -5.6265    1.6122 C   0  0  2  0  0  0  0  0  0  0  0  0
    5.7508   -5.1880    5.4115 O   0  0  0  0  0  0  0  0  0  0  0  0
    5.1554   -6.3786    5.8981 C   0  0  1  0  0  0  0  0  0  0  0  0
    4.8905   -6.2827    7.2790 O   0  0  0  0  0  0  0  0  0  0  0  0
    2.4613   -6.5178    5.7284 C   0  0  1  0  0  0  0  0  0  0  0  0
    2.0753   -7.8306    6.1246 O   0  0  0  0  0  0  0  0  0  0  0  0
    0.7201   -8.2254    5.9483 C   0  0  0  0  0  0  0  0  0  0  0  0
    2.1268   -5.5047    6.6690 O   0  0  0  0  0  0  0  0  0  0  0  0
    1.3545   -5.4676    5.4488 C   0  0  2  0  0  0  0  0  0  0  0  0
    1.6491   -4.4131    4.5463 O   0  0  0  0  0  0  0  0  0  0  0  0
    1.1478   -3.1390    4.8769 C   0  0  0  0  0  0  0  0  0  0  0  0
   -1.3376   -4.6266    8.0873 H   0  0  0  0  0  0  0  0  0  0  0  0
   -1.9011   -4.1765    6.4669 H   0  0  0  0  0  0  0  0  0  0  0  0
   -0.2274   -3.8796    6.9966 H   0  0  0  0  0  0  0  0  0  0  0  0
   -0.5855   -5.4169    4.5556 H   0  0  0  0  0  0  0  0  0  0  0  0
   -1.4874   -9.0249    4.4266 H   0  0  0  0  0  0  0  0  0  0  0  0
   -2.1872   -7.3494    4.5335 H   0  0  0  0  0  0  0  0  0  0  0  0
    0.3656   -9.6722    3.5151 H   0  0  0  0  0  0  0  0  0  0  0  0
    3.0769   -8.1553    4.0457 H   0  0  0  0  0  0  0  0  0  0  0  0
    3.2158  -10.1475    3.3806 H   0  0  0  0  0  0  0  0  0  0  0  0
    4.0199  -11.0603    2.1209 H   0  0  0  0  0  0  0  0  0  0  0  0
    3.2813   -9.4899    1.6982 H   0  0  0  0  0  0  0  0  0  0  0  0
    5.7497   -5.8509    3.5675 H   0  0  0  0  0  0  0  0  0  0  0  0
    5.4291   -2.9888    3.5730 H   0  0  0  0  0  0  0  0  0  0  0  0
    4.1528   -2.1176    1.8167 H   0  0  0  0  0  0  0  0  0  0  0  0
    4.8781   -2.9652    0.4354 H   0  0  0  0  0  0  0  0  0  0  0  0
    1.7102   -4.3452   -0.5364 H   0  0  0  0  0  0  0  0  0  0  0  0
    3.2049   -3.8254   -1.2766 H   0  0  0  0  0  0  0  0  0  0  0  0
    2.8161   -6.2618   -0.1964 H   0  0  0  0  0  0  0  0  0  0  0  0
    5.0090   -7.3394    0.7324 H   0  0  0  0  0  0  0  0  0  0  0  0
    6.0812   -5.9966    1.2589 H   0  0  0  0  0  0  0  0  0  0  0  0
    5.8163   -7.2329    5.7743 H   0  0  0  0  0  0  0  0  0  0  0  0
    4.1733   -5.6840    7.4243 H   0  0  0  0  0  0  0  0  0  0  0  0
    0.1846   -8.1045    6.8862 H   0  0  0  0  0  0  0  0  0  0  0  0
    0.7217   -9.3042    5.7779 H   0  0  0  0  0  0  0  0  0  0  0  0
    1.4702   -2.4235    4.1099 H   0  0  0  0  0  0  0  0  0  0  0  0
    1.5184   -2.7929    5.8488 H   0  0  0  0  0  0  0  0  0  0  0  0
    0.0600   -3.1482    4.8594 H   0  0  0  0  0  0  0  0  0  0  0  0
  1  2  1  0
  1 40  1  0
  1 41  1  0
  1 42  1  0
  2  3  1  0
  3 37  1  0
  3  4  1  0
  3 43  1  6
  4  7  1  0
  4 35  1  0
  4  5  1  6
  5  6  1  0
  5 44  1  0
  5 45  1  0
  6  7  1  0
  7  8  1  1
  7  9  1  0
  8 46  1  0
  9 12  1  0
  9 10  1  6
  9 11  1  0
 12 11  1  6
 12 29  1  0
 12 13  1  0
 13 14  1  0
 13 18  1  0
 13 47  1  1
 14 15  1  0
 15 16  1  0
 15 17  2  0
 16 48  1  0
 16 49  1  0
 16 50  1  0
 18 31  1  0
 18 19  1  6
 18 33  1  0
 19 20  1  0
 20 21  1  0
 20 30  1  0
 20 51  1  6
 21 22  2  3
 21 52  1  0
 22 29  1  0
 22 23  1  0
 23 24  1  0
 23 53  1  0
 23 54  1  0
 24 25  1  0
 25 26  1  0
 25 55  1  0
 25 56  1  0
 26 29  1  0
 26 27  1  0
 26 57  1  6
 27 28  1  0
 29 28  1  6
 28 58  1  0
 28 59  1  0
 30 31  1  0
 31 32  1  0
 31 60  1  1
 32 61  1  0
 33 37  1  0
 33 34  1  0
 33 36  1  1
 34 35  1  0
 35 62  1  0
 35 63  1  0
 36 37  1  0
 37 38  1  6
 38 39  1  0
 39 64  1  0
 39 65  1  0
 39 66  1  0
M  CHG  1  10  -1
M  END
>  <i_m_ct_stereo_status>  (164) 
1

>  <s_m_source_file>  (164) 
/var/tmp/pbs.5076253.sched01/tmp9pzrzrnh/1418a54yjb5.sdf

>  <i_m_source_file_index>  (164) 
42

>  <i_lp_mmshare_version>  (164) 
48012

>  <i_f3d_flags>  (164) 
0

>  <s_epik_input>  (164) 
W0NIM11PW0NASF0xW0NAXShPMikoT1tDSDNdKVtDQEBdMihPW0NIMl0zKVtDQEBdKFtDQEBIXShPNClbT0hdKShbQ0BASF01T0MoPU8pW0NIM10pT1tDQEhdNC9bQ0hdPUMoL1tDSDJdT1tDSDJdW0NASF02T1tDSDJdNylbQ0BAXTY3W0NAXTUoTzgpW0NAXTgoW09IXSlbQ0BdKFtDQF0xMzkpKFtPSF0pT1tDSDJdOQ==

>  <s_epik_cmdline>  (164) 
J2VwaWtfcHl0aG9uJywgJy1waHQnLCAnMi4wJywgJy1waCcsICc3LjAnLCAnLXRuJywgJzgnLCAnLW1hJywgJzIwMCcsICctaW1hZScsICc8aW5maWxlLm1hZT4nLCAnLW9tYWUnLCAnPG91dGZpbGUubWFlPic=

>  <r_epik_Ionization_Penalty>  (164) 
2.33165

>  <r_epik_Ionization_Penalty_Charging>  (164) 
2.3314

>  <r_epik_Ionization_Penalty_Neutral>  (164) 
0.000250728

>  <r_epik_State_Penalty>  (164) 
2.48432

>  <r_epik_Charging_Adjusted_Penalty>  (164) 
4.81572

>  <i_epik_Tot_Q>  (164) 
-1

>  <i_epik_Tot_abs_Q>  (164) 
1

>  <s_epik_Chemistry_Notes>  (164) 
This compound has an ester and may undergo hydrolysis at high or low pH. This compound contains an acetal/aminal-like group ( X-CH(R)-Y where X, Y are N, S, or O) that may be acid/base labile, releasing an aldehyde.

>  <s_lp_Force_Field>  (164) 
OPLS3e

>  <r_lp_Energy>  (164) 
126.776

>  <b_lp_Chiralities_Consistent>  (164) 
1

>  <s_lp_Variant>  (164) 
104:0-3

>  <s_i_glide_gridfile>  (164) 
pfpi4k_grid

>  <i_i_glide_lignum>  (164) 
42

>  <i_i_glide_rotatable_bonds>  (164) 
6

>  <r_i_docking_score>  (164) 
-2.00947

>  <r_i_glide_ligand_efficiency>  (164) 
-0.051525

>  <r_i_glide_ligand_efficiency_sa>  (164) 
-0.174732

>  <r_i_glide_ligand_efficiency_ln>  (164) 
-0.430888

>  <r_i_glide_gscore>  (164) 
-2.00947

>  <r_i_glide_lipo>  (164) 
-0.19702

>  <r_i_glide_hbond>  (164) 
-0.1726

>  <r_i_glide_metal>  (164) 
-0

>  <r_i_glide_rewards>  (164) 
-0.00109665

>  <r_i_glide_evdw>  (164) 
-22.6279

>  <r_i_glide_ecoul>  (164) 
-3.36454

>  <r_i_glide_erotb>  (164) 
0.0672921

>  <r_i_glide_esite>  (164) 
-0.0699742

>  <r_i_glide_emodel>  (164) 
-27.3263

>  <r_i_glide_energy>  (164) 
-25.9924

>  <r_i_glide_einternal>  (164) 
5.16963

>  <r_i_glide_intrahb_reward>  (164) 
-0

>  <i_i_glide_confnum>  (164) 
3

>  <i_i_glide_posenum>  (164) 
2

>  <r_i_glide_eff_state_penalty>  (164) 
0

>  <ligand_id>  (164) 
104

>  <original_smiles>  (164) 
COC1C23COC2(O)C2(O)OC24C(OC(C)=O)C2(OC(C=C5COCC6OCC564)OC2O)C2(OC3)OC12OC

>  <smiles>  (164) 
[H]OC1([H])OC2([H])OC13C([H])(OC(=O)C([H])([H])[H])C1(OC1([O-])C1(O[H])OC([H])([H])C14C([H])([H])OC31OC1(OC([H])([H])[H])C4([H])OC([H])([H])[H])C13C(=C2[H])C([H])([H])OC([H])([H])C1([H])OC3([H])[H]

$$$$
