2:0:0
     RDKit          3D

 47 52  0  0  1  0  0  0  0  0999 V2000
    5.2067   -3.5481   -3.3845 C   0  0  0  0  0  0  0  0  0  0  0  0
    4.8740   -3.4316   -1.8782 C   0  0  2  0  0  0  0  0  0  0  0  0
    3.3751   -3.0765   -1.6784 C   0  0  2  0  0  0  0  0  0  0  0  0
    2.3583   -2.7658   -2.8070 C   0  0  0  0  0  0  0  0  0  0  0  0
    2.6571   -1.3395   -2.8476 O   0  0  0  0  0  0  0  0  0  0  0  0
    3.5963   -1.6221   -1.8806 C   0  0  0  0  0  0  0  0  0  0  0  0
    4.8257   -1.1415   -1.6854 C   0  0  0  0  0  0  0  0  0  0  0  0
    5.6489   -2.2973   -1.1377 C   0  0  2  0  0  0  0  0  0  0  0  0
    6.9887   -2.2544   -1.5997 O   0  0  0  0  0  0  0  0  0  0  0  0
    5.5955   -2.3357    0.4538 C   0  0  2  0  0  0  0  0  0  0  0  0
    6.3663   -1.1891    0.8009 O   0  0  0  0  0  0  0  0  0  0  0  0
    6.3502   -3.5740    1.1837 C   0  0  0  0  0  0  0  0  0  0  0  0
    5.3485   -4.0849    2.2593 C   0  0  2  0  0  0  0  0  0  0  0  0
    5.0712   -5.0622    3.3782 C   0  0  0  0  0  0  0  0  0  0  0  0
    3.5850   -4.7728    3.2142 O   0  0  0  0  0  0  0  0  0  0  0  0
    3.1071   -4.5029    1.8110 C   0  0  2  0  0  0  0  0  0  0  0  0
    4.3599   -5.0026    1.4117 C   0  0  1  0  0  0  0  0  0  0  0  0
    4.5679   -5.5225    0.1370 O   0  0  0  0  0  0  0  0  0  0  0  0
    3.0054   -3.1409    0.9348 C   0  0  2  0  0  0  0  0  0  0  0  0
    2.6582   -3.4501   -0.4518 O   0  0  0  0  0  0  0  0  0  0  0  0
    4.1136   -2.0264    1.0748 C   0  0  2  0  0  0  0  0  0  0  0  0
    3.5042   -0.5908    0.8773 C   0  0  0  0  0  0  0  0  0  0  0  0
    4.1601   -1.9115    2.4621 O   0  0  0  0  0  0  0  0  0  0  0  0
    5.0601   -2.6945    3.0801 C   0  0  1  0  0  0  0  0  0  0  0  0
    4.7524   -2.7194    4.4662 O   0  0  0  0  0  0  0  0  0  0  0  0
    4.9976   -2.6370   -3.9383 H   0  0  0  0  0  0  0  0  0  0  0  0
    4.6331   -4.3562   -3.8368 H   0  0  0  0  0  0  0  0  0  0  0  0
    6.2520   -3.8042   -3.5316 H   0  0  0  0  0  0  0  0  0  0  0  0
    5.2240   -4.3908   -1.5813 H   0  0  0  0  0  0  0  0  0  0  0  0
    2.5537   -3.2426   -3.7670 H   0  0  0  0  0  0  0  0  0  0  0  0
    1.3329   -2.9617   -2.4962 H   0  0  0  0  0  0  0  0  0  0  0  0
    5.2260   -0.2204   -2.0829 H   0  0  0  0  0  0  0  0  0  0  0  0
    7.1905   -3.0774   -2.0338 H   0  0  0  0  0  0  0  0  0  0  0  0
    5.8686   -0.4210    0.5685 H   0  0  0  0  0  0  0  0  0  0  0  0
    6.6489   -4.3346    0.4620 H   0  0  0  0  0  0  0  0  0  0  0  0
    7.2875   -3.2545    1.6419 H   0  0  0  0  0  0  0  0  0  0  0  0
    5.4105   -6.0933    3.2350 H   0  0  0  0  0  0  0  0  0  0  0  0
    5.4924   -4.8577    4.3621 H   0  0  0  0  0  0  0  0  0  0  0  0
    2.2928   -5.1879    1.5710 H   0  0  0  0  0  0  0  0  0  0  0  0
    4.2941   -6.0757    1.6451 H   0  0  0  0  0  0  0  0  0  0  0  0
    3.7841   -5.9682   -0.1491 H   0  0  0  0  0  0  0  0  0  0  0  0
    2.0921   -2.6817    1.3104 H   0  0  0  0  0  0  0  0  0  0  0  0
    2.6762   -0.5832    0.1717 H   0  0  0  0  0  0  0  0  0  0  0  0
    4.2210    0.1620    0.5522 H   0  0  0  0  0  0  0  0  0  0  0  0
    3.0543   -0.1802    1.7854 H   0  0  0  0  0  0  0  0  0  0  0  0
    5.9851   -2.1216    3.0909 H   0  0  0  0  0  0  0  0  0  0  0  0
    4.8069   -1.8313    4.7845 H   0  0  0  0  0  0  0  0  0  0  0  0
  1  2  1  0
  1 26  1  0
  1 27  1  0
  1 28  1  0
  2  8  1  0
  2  3  1  0
  2 29  1  1
  3  6  1  0
  3 20  1  1
  3  4  1  0
  4  5  1  0
  4 30  1  0
  4 31  1  0
  5  6  1  0
  6  7  2  0
  7  8  1  0
  7 32  1  0
  8  9  1  1
  8 10  1  0
  9 33  1  0
 10 21  1  0
 10 11  1  1
 10 12  1  0
 11 34  1  0
 12 13  1  0
 12 35  1  0
 12 36  1  0
 13 17  1  0
 13 24  1  0
 13 14  1  1
 14 15  1  0
 14 37  1  0
 14 38  1  0
 15 16  1  0
 16 17  1  0
 16 19  1  0
 16 39  1  6
 17 18  1  0
 17 40  1  1
 18 41  1  0
 19 20  1  0
 19 21  1  0
 19 42  1  1
 21 22  1  6
 21 23  1  0
 22 43  1  0
 22 44  1  0
 22 45  1  0
 23 24  1  0
 24 25  1  0
 24 46  1  1
 25 47  1  0
M  END
>  <i_m_ct_stereo_status>  (1) 
1

>  <s_m_source_file>  (1) 
/var/tmp/pbs.5076253.sched01/tmpsnpm1fw8/0c_pn72ob.sdf

>  <i_m_source_file_index>  (1) 
6

>  <i_lp_mmshare_version>  (1) 
48012

>  <i_f3d_flags>  (1) 
0

>  <s_epik_input>  (1) 
W0NIMl0xT0MoW0NAQF0xMjMpPVtDSF1bQ0BdKFtPSF0pKFtDQEBIXTJbQ0gzXSlbQ0BAXTQoW09IXSlbQ0BAXTUoW0NIM10pW0NIXShPMylbQ0BASF02T1tDSDJdW0NAQF0oW0NIMl00KShbQ0BASF02W09IXSlbQ0BASF0oTzUpW09IXQ==

>  <s_epik_cmdline>  (1) 
J2VwaWtfcHl0aG9uJywgJy1waHQnLCAnMi4wJywgJy1waCcsICc3LjAnLCAnLXRuJywgJzgnLCAnLW1hJywgJzIwMCcsICctaW1hZScsICc8aW5maWxlLm1hZT4nLCAnLW9tYWUnLCAnPG91dGZpbGUubWFlPic=

>  <r_lp_tautomer_probability>  (1) 
1

>  <r_epik_Ionization_Penalty>  (1) 
1.37736e-05

>  <r_epik_Ionization_Penalty_Charging>  (1) 
0

>  <r_epik_Ionization_Penalty_Neutral>  (1) 
1.37736e-05

>  <r_epik_State_Penalty>  (1) 
-0

>  <r_epik_Charging_Adjusted_Penalty>  (1) 
0

>  <i_epik_Tot_Q>  (1) 
0

>  <i_epik_Tot_abs_Q>  (1) 
0

>  <s_epik_Chemistry_Notes>  (1) 
This compound contains an acetal/aminal-like group ( X-CH(R)-Y where X, Y are N, S, or O) that may be acid/base labile, releasing an aldehyde.

>  <s_lp_Force_Field>  (1) 
OPLS3e

>  <r_lp_Energy>  (1) 
249.975

>  <b_lp_Chiralities_Consistent>  (1) 
1

>  <s_lp_Variant>  (1) 
2:0-1

>  <s_i_glide_gridfile>  (1) 
pfpi4k_grid

>  <i_i_glide_lignum>  (1) 
6

>  <i_i_glide_rotatable_bonds>  (1) 
4

>  <r_i_docking_score>  (1) 
-3.62951

>  <r_i_glide_ligand_efficiency>  (1) 
-0.14518

>  <r_i_glide_ligand_efficiency_sa>  (1) 
-0.42451

>  <r_i_glide_ligand_efficiency_ln>  (1) 
-0.860303

>  <r_i_glide_gscore>  (1) 
-3.62951

>  <r_i_glide_lipo>  (1) 
-0.443132

>  <r_i_glide_hbond>  (1) 
0

>  <r_i_glide_metal>  (1) 
-0

>  <r_i_glide_rewards>  (1) 
-1.06924

>  <r_i_glide_evdw>  (1) 
-28.1265

>  <r_i_glide_ecoul>  (1) 
-4.73879

>  <r_i_glide_erotb>  (1) 
0

>  <r_i_glide_esite>  (1) 
0

>  <r_i_glide_emodel>  (1) 
-39.3537

>  <r_i_glide_energy>  (1) 
-32.8653

>  <r_i_glide_einternal>  (1) 
1.71233

>  <r_i_glide_intrahb_reward>  (1) 
-0

>  <i_i_glide_confnum>  (1) 
2

>  <i_i_glide_posenum>  (1) 
1

>  <r_i_glide_eff_state_penalty>  (1) 
0

>  <ligand_id>  (1) 
2

>  <original_smiles>  (1) 
CC1C23COC2=CC1(O)C1(O)CC24COC(C2O)C(O3)C1(C)OC4O

>  <smiles>  (1) 
[H]OC1([H])OC2(C([H])([H])[H])C3([H])OC45C(=C([H])C(O[H])(C4([H])C([H])([H])[H])C2(O[H])C([H])([H])C12C([H])([H])OC3([H])C2([H])O[H])OC5([H])[H]

$$$$
2:0:1
     RDKit          3D

 47 52  0  0  1  0  0  0  0  0999 V2000
    5.3678   -3.4548   -3.3199 C   0  0  0  0  0  0  0  0  0  0  0  0
    4.9253   -3.3839   -1.8399 C   0  0  2  0  0  0  0  0  0  0  0  0
    3.4193   -3.0141   -1.7370 C   0  0  2  0  0  0  0  0  0  0  0  0
    2.4870   -2.6514   -2.9246 C   0  0  0  0  0  0  0  0  0  0  0  0
    2.8216   -1.2319   -2.9126 O   0  0  0  0  0  0  0  0  0  0  0  0
    3.6696   -1.5562   -1.8758 C   0  0  0  0  0  0  0  0  0  0  0  0
    4.8886   -1.0989   -1.5885 C   0  0  0  0  0  0  0  0  0  0  0  0
    5.6536   -2.2766   -1.0230 C   0  0  2  0  0  0  0  0  0  0  0  0
    7.0205   -2.2592   -1.4102 O   0  0  0  0  0  0  0  0  0  0  0  0
    5.4944   -2.3610    0.5612 C   0  0  2  0  0  0  0  0  0  0  0  0
    6.2593   -1.2433    0.9916 O   0  0  0  0  0  0  0  0  0  0  0  0
    6.1696   -3.6284    1.3107 C   0  0  0  0  0  0  0  0  0  0  0  0
    5.0854   -4.1354    2.3105 C   0  0  2  0  0  0  0  0  0  0  0  0
    4.7151   -5.1371    3.3810 C   0  0  0  0  0  0  0  0  0  0  0  0
    3.2507   -4.7981    3.1308 O   0  0  0  0  0  0  0  0  0  0  0  0
    2.8729   -4.4970    1.7035 C   0  0  2  0  0  0  0  0  0  0  0  0
    4.1423   -5.0084    1.3740 C   0  0  1  0  0  0  0  0  0  0  0  0
    4.4145   -5.5076    0.1068 O   0  0  0  0  0  0  0  0  0  0  0  0
    2.8594   -3.1200    0.8451 C   0  0  2  0  0  0  0  0  0  0  0  0
    2.6322   -3.4320   -0.5695 O   0  0  0  0  0  0  0  0  0  0  0  0
    3.9790   -2.0322    1.0853 C   0  0  2  0  0  0  0  0  0  0  0  0
    3.4132   -0.5810    0.8850 C   0  0  0  0  0  0  0  0  0  0  0  0
    3.9340   -1.9476    2.4715 O   0  0  0  0  0  0  0  0  0  0  0  0
    4.7720   -2.7581    3.1455 C   0  0  1  0  0  0  0  0  0  0  0  0
    4.3195   -2.8171    4.4895 O   0  0  0  0  0  0  0  0  0  0  0  0
    5.2216   -2.5260   -3.8701 H   0  0  0  0  0  0  0  0  0  0  0  0
    4.8084   -4.2386   -3.8314 H   0  0  0  0  0  0  0  0  0  0  0  0
    6.4210   -3.7288   -3.3936 H   0  0  0  0  0  0  0  0  0  0  0  0
    5.2394   -4.3578   -1.5437 H   0  0  0  0  0  0  0  0  0  0  0  0
    2.7404   -3.1062   -3.8809 H   0  0  0  0  0  0  0  0  0  0  0  0
    1.4356   -2.8207   -2.6909 H   0  0  0  0  0  0  0  0  0  0  0  0
    5.3416   -0.1816   -1.9327 H   0  0  0  0  0  0  0  0  0  0  0  0
    7.3795   -3.1187   -1.2539 H   0  0  0  0  0  0  0  0  0  0  0  0
    5.8167   -0.4557    0.7128 H   0  0  0  0  0  0  0  0  0  0  0  0
    6.5115   -4.3788    0.6006 H   0  0  0  0  0  0  0  0  0  0  0  0
    7.0698   -3.3272    1.8389 H   0  0  0  0  0  0  0  0  0  0  0  0
    5.0353   -6.1737    3.2335 H   0  0  0  0  0  0  0  0  0  0  0  0
    5.0788   -4.9640    4.3938 H   0  0  0  0  0  0  0  0  0  0  0  0
    2.0698   -5.1633    1.3893 H   0  0  0  0  0  0  0  0  0  0  0  0
    4.0396   -6.0864    1.5684 H   0  0  0  0  0  0  0  0  0  0  0  0
    4.1318   -4.8689   -0.5322 H   0  0  0  0  0  0  0  0  0  0  0  0
    1.9308   -2.6414    1.1583 H   0  0  0  0  0  0  0  0  0  0  0  0
    2.6341   -0.5373    0.1270 H   0  0  0  0  0  0  0  0  0  0  0  0
    4.1634    0.1690    0.6372 H   0  0  0  0  0  0  0  0  0  0  0  0
    2.9016   -0.1938    1.7703 H   0  0  0  0  0  0  0  0  0  0  0  0
    5.7089   -2.2105    3.2531 H   0  0  0  0  0  0  0  0  0  0  0  0
    3.5213   -3.3298    4.4881 H   0  0  0  0  0  0  0  0  0  0  0  0
  1  2  1  0
  1 26  1  0
  1 27  1  0
  1 28  1  0
  2  8  1  0
  2  3  1  0
  2 29  1  1
  3  6  1  0
  3 20  1  1
  3  4  1  0
  4  5  1  0
  4 30  1  0
  4 31  1  0
  5  6  1  0
  6  7  2  0
  7  8  1  0
  7 32  1  0
  8  9  1  1
  8 10  1  0
  9 33  1  0
 10 21  1  0
 10 11  1  1
 10 12  1  0
 11 34  1  0
 12 13  1  0
 12 35  1  0
 12 36  1  0
 13 17  1  0
 13 24  1  0
 13 14  1  1
 14 15  1  0
 14 37  1  0
 14 38  1  0
 15 16  1  0
 16 17  1  0
 16 19  1  0
 16 39  1  6
 17 18  1  0
 17 40  1  1
 18 41  1  0
 19 20  1  0
 19 21  1  0
 19 42  1  1
 21 22  1  6
 21 23  1  0
 22 43  1  0
 22 44  1  0
 22 45  1  0
 23 24  1  0
 24 25  1  0
 24 46  1  1
 25 47  1  0
M  END
>  <i_m_ct_stereo_status>  (2) 
1

>  <s_m_source_file>  (2) 
/var/tmp/pbs.5076253.sched01/tmpsnpm1fw8/0c_pn72ob.sdf

>  <i_m_source_file_index>  (2) 
6

>  <i_lp_mmshare_version>  (2) 
48012

>  <i_f3d_flags>  (2) 
0

>  <s_epik_input>  (2) 
W0NIMl0xT0MoW0NAQF0xMjMpPVtDSF1bQ0BdKFtPSF0pKFtDQEBIXTJbQ0gzXSlbQ0BAXTQoW09IXSlbQ0BAXTUoW0NIM10pW0NIXShPMylbQ0BASF02T1tDSDJdW0NAQF0oW0NIMl00KShbQ0BASF02W09IXSlbQ0BASF0oTzUpW09IXQ==

>  <s_epik_cmdline>  (2) 
J2VwaWtfcHl0aG9uJywgJy1waHQnLCAnMi4wJywgJy1waCcsICc3LjAnLCAnLXRuJywgJzgnLCAnLW1hJywgJzIwMCcsICctaW1hZScsICc8aW5maWxlLm1hZT4nLCAnLW9tYWUnLCAnPG91dGZpbGUubWFlPic=

>  <r_lp_tautomer_probability>  (2) 
1

>  <r_epik_Ionization_Penalty>  (2) 
1.37736e-05

>  <r_epik_Ionization_Penalty_Charging>  (2) 
0

>  <r_epik_Ionization_Penalty_Neutral>  (2) 
1.37736e-05

>  <r_epik_State_Penalty>  (2) 
-0

>  <r_epik_Charging_Adjusted_Penalty>  (2) 
0

>  <i_epik_Tot_Q>  (2) 
0

>  <i_epik_Tot_abs_Q>  (2) 
0

>  <s_epik_Chemistry_Notes>  (2) 
This compound contains an acetal/aminal-like group ( X-CH(R)-Y where X, Y are N, S, or O) that may be acid/base labile, releasing an aldehyde.

>  <s_lp_Force_Field>  (2) 
OPLS3e

>  <r_lp_Energy>  (2) 
249.975

>  <b_lp_Chiralities_Consistent>  (2) 
1

>  <s_lp_Variant>  (2) 
2:0-1

>  <s_i_glide_gridfile>  (2) 
pfpi4k_grid

>  <i_i_glide_lignum>  (2) 
6

>  <i_i_glide_rotatable_bonds>  (2) 
4

>  <r_i_docking_score>  (2) 
-3.58437

>  <r_i_glide_ligand_efficiency>  (2) 
-0.143375

>  <r_i_glide_ligand_efficiency_sa>  (2) 
-0.419231

>  <r_i_glide_ligand_efficiency_ln>  (2) 
-0.849604

>  <r_i_glide_gscore>  (2) 
-3.58437

>  <r_i_glide_lipo>  (2) 
-0.463449

>  <r_i_glide_hbond>  (2) 
0

>  <r_i_glide_metal>  (2) 
-0

>  <r_i_glide_rewards>  (2) 
-1.0452

>  <r_i_glide_evdw>  (2) 
-28.1375

>  <r_i_glide_ecoul>  (2) 
-4.45897

>  <r_i_glide_erotb>  (2) 
0

>  <r_i_glide_esite>  (2) 
0

>  <r_i_glide_emodel>  (2) 
-39.5214

>  <r_i_glide_energy>  (2) 
-32.5965

>  <r_i_glide_einternal>  (2) 
0.433794

>  <r_i_glide_intrahb_reward>  (2) 
-0

>  <i_i_glide_confnum>  (2) 
1

>  <i_i_glide_posenum>  (2) 
38

>  <r_i_glide_eff_state_penalty>  (2) 
0

>  <ligand_id>  (2) 
2

>  <original_smiles>  (2) 
CC1C23COC2=CC1(O)C1(O)CC24COC(C2O)C(O3)C1(C)OC4O

>  <smiles>  (2) 
[H]OC1([H])OC2(C([H])([H])[H])C3([H])OC45C(=C([H])C(O[H])(C4([H])C([H])([H])[H])C2(O[H])C([H])([H])C12C([H])([H])OC3([H])C2([H])O[H])OC5([H])[H]

$$$$
2:0:2
     RDKit          3D

 47 52  0  0  1  0  0  0  0  0999 V2000
    5.3672   -3.4543   -3.3270 C   0  0  0  0  0  0  0  0  0  0  0  0
    4.9363   -3.3838   -1.8422 C   0  0  2  0  0  0  0  0  0  0  0  0
    3.4304   -3.0138   -1.7155 C   0  0  2  0  0  0  0  0  0  0  0  0
    2.4900   -2.6445   -2.8898 C   0  0  0  0  0  0  0  0  0  0  0  0
    2.8205   -1.2239   -2.8674 O   0  0  0  0  0  0  0  0  0  0  0  0
    3.6873   -1.5548   -1.8544 C   0  0  0  0  0  0  0  0  0  0  0  0
    4.9081   -1.1032   -1.5757 C   0  0  0  0  0  0  0  0  0  0  0  0
    5.6779   -2.2841   -1.0244 C   0  0  2  0  0  0  0  0  0  0  0  0
    7.0355   -2.2579   -1.4262 O   0  0  0  0  0  0  0  0  0  0  0  0
    5.5394   -2.3795    0.5586 C   0  0  2  0  0  0  0  0  0  0  0  0
    6.3122   -1.2661    0.9924 O   0  0  0  0  0  0  0  0  0  0  0  0
    6.2250   -3.6553    1.2872 C   0  0  0  0  0  0  0  0  0  0  0  0
    5.1565   -4.1763    2.2953 C   0  0  2  0  0  0  0  0  0  0  0  0
    4.8017   -5.1847    3.3635 C   0  0  0  0  0  0  0  0  0  0  0  0
    3.3333   -4.8482    3.1315 O   0  0  0  0  0  0  0  0  0  0  0  0
    2.9384   -4.5320    1.7104 C   0  0  2  0  0  0  0  0  0  0  0  0
    4.2030   -5.0475    1.3627 C   0  0  1  0  0  0  0  0  0  0  0  0
    4.4762   -5.5293    0.0854 O   0  0  0  0  0  0  0  0  0  0  0  0
    2.9107   -3.1465    0.8694 C   0  0  2  0  0  0  0  0  0  0  0  0
    2.6417   -3.4194   -0.5445 O   0  0  0  0  0  0  0  0  0  0  0  0
    4.0299   -2.0593    1.1021 C   0  0  2  0  0  0  0  0  0  0  0  0
    3.4564   -0.6061    0.9190 C   0  0  0  0  0  0  0  0  0  0  0  0
    4.0082   -1.9831    2.4907 O   0  0  0  0  0  0  0  0  0  0  0  0
    4.8495   -2.8057    3.1462 C   0  0  1  0  0  0  0  0  0  0  0  0
    4.4153   -2.8762    4.4941 O   0  0  0  0  0  0  0  0  0  0  0  0
    5.2187   -2.5252   -3.8673 H   0  0  0  0  0  0  0  0  0  0  0  0
    4.8027   -4.2342   -3.8406 H   0  0  0  0  0  0  0  0  0  0  0  0
    6.4186   -3.7247   -3.4154 H   0  0  0  0  0  0  0  0  0  0  0  0
    5.2524   -4.3573   -1.5539 H   0  0  0  0  0  0  0  0  0  0  0  0
    2.7345   -3.0924   -3.8526 H   0  0  0  0  0  0  0  0  0  0  0  0
    1.4398   -2.8193   -2.6484 H   0  0  0  0  0  0  0  0  0  0  0  0
    5.3542   -0.1807   -1.9175 H   0  0  0  0  0  0  0  0  0  0  0  0
    7.3956   -3.1176   -1.2793 H   0  0  0  0  0  0  0  0  0  0  0  0
    5.8586   -0.4753    0.7371 H   0  0  0  0  0  0  0  0  0  0  0  0
    6.5538   -4.3995    0.5630 H   0  0  0  0  0  0  0  0  0  0  0  0
    7.1390   -3.3639    1.7981 H   0  0  0  0  0  0  0  0  0  0  0  0
    5.1217   -6.2207    3.2048 H   0  0  0  0  0  0  0  0  0  0  0  0
    5.1759   -5.0198    4.3743 H   0  0  0  0  0  0  0  0  0  0  0  0
    2.1297   -5.1926    1.4043 H   0  0  0  0  0  0  0  0  0  0  0  0
    4.0958   -6.1254    1.5561 H   0  0  0  0  0  0  0  0  0  0  0  0
    3.7050   -5.9597   -0.2568 H   0  0  0  0  0  0  0  0  0  0  0  0
    1.9883   -2.6761    1.2076 H   0  0  0  0  0  0  0  0  0  0  0  0
    2.6685   -0.5578    0.1707 H   0  0  0  0  0  0  0  0  0  0  0  0
    4.2037    0.1457    0.6677 H   0  0  0  0  0  0  0  0  0  0  0  0
    2.9606   -0.2221    1.8164 H   0  0  0  0  0  0  0  0  0  0  0  0
    5.7877   -2.2593    3.2516 H   0  0  0  0  0  0  0  0  0  0  0  0
    3.6173   -3.3880    4.4997 H   0  0  0  0  0  0  0  0  0  0  0  0
  1  2  1  0
  1 26  1  0
  1 27  1  0
  1 28  1  0
  2  8  1  0
  2  3  1  0
  2 29  1  1
  3  6  1  0
  3 20  1  1
  3  4  1  0
  4  5  1  0
  4 30  1  0
  4 31  1  0
  5  6  1  0
  6  7  2  0
  7  8  1  0
  7 32  1  0
  8  9  1  1
  8 10  1  0
  9 33  1  0
 10 21  1  0
 10 11  1  1
 10 12  1  0
 11 34  1  0
 12 13  1  0
 12 35  1  0
 12 36  1  0
 13 17  1  0
 13 24  1  0
 13 14  1  1
 14 15  1  0
 14 37  1  0
 14 38  1  0
 15 16  1  0
 16 17  1  0
 16 19  1  0
 16 39  1  6
 17 18  1  0
 17 40  1  1
 18 41  1  0
 19 20  1  0
 19 21  1  0
 19 42  1  1
 21 22  1  6
 21 23  1  0
 22 43  1  0
 22 44  1  0
 22 45  1  0
 23 24  1  0
 24 25  1  0
 24 46  1  1
 25 47  1  0
M  END
>  <i_m_ct_stereo_status>  (3) 
1

>  <s_m_source_file>  (3) 
/var/tmp/pbs.5076253.sched01/tmpsnpm1fw8/0c_pn72ob.sdf

>  <i_m_source_file_index>  (3) 
6

>  <i_lp_mmshare_version>  (3) 
48012

>  <i_f3d_flags>  (3) 
0

>  <s_epik_input>  (3) 
W0NIMl0xT0MoW0NAQF0xMjMpPVtDSF1bQ0BdKFtPSF0pKFtDQEBIXTJbQ0gzXSlbQ0BAXTQoW09IXSlbQ0BAXTUoW0NIM10pW0NIXShPMylbQ0BASF02T1tDSDJdW0NAQF0oW0NIMl00KShbQ0BASF02W09IXSlbQ0BASF0oTzUpW09IXQ==

>  <s_epik_cmdline>  (3) 
J2VwaWtfcHl0aG9uJywgJy1waHQnLCAnMi4wJywgJy1waCcsICc3LjAnLCAnLXRuJywgJzgnLCAnLW1hJywgJzIwMCcsICctaW1hZScsICc8aW5maWxlLm1hZT4nLCAnLW9tYWUnLCAnPG91dGZpbGUubWFlPic=

>  <r_lp_tautomer_probability>  (3) 
1

>  <r_epik_Ionization_Penalty>  (3) 
1.37736e-05

>  <r_epik_Ionization_Penalty_Charging>  (3) 
0

>  <r_epik_Ionization_Penalty_Neutral>  (3) 
1.37736e-05

>  <r_epik_State_Penalty>  (3) 
-0

>  <r_epik_Charging_Adjusted_Penalty>  (3) 
0

>  <i_epik_Tot_Q>  (3) 
0

>  <i_epik_Tot_abs_Q>  (3) 
0

>  <s_epik_Chemistry_Notes>  (3) 
This compound contains an acetal/aminal-like group ( X-CH(R)-Y where X, Y are N, S, or O) that may be acid/base labile, releasing an aldehyde.

>  <s_lp_Force_Field>  (3) 
OPLS3e

>  <r_lp_Energy>  (3) 
249.975

>  <b_lp_Chiralities_Consistent>  (3) 
1

>  <s_lp_Variant>  (3) 
2:0-1

>  <s_i_glide_gridfile>  (3) 
pfpi4k_grid

>  <i_i_glide_lignum>  (3) 
6

>  <i_i_glide_rotatable_bonds>  (3) 
4

>  <r_i_docking_score>  (3) 
-3.54711

>  <r_i_glide_ligand_efficiency>  (3) 
-0.141885

>  <r_i_glide_ligand_efficiency_sa>  (3) 
-0.414873

>  <r_i_glide_ligand_efficiency_ln>  (3) 
-0.840773

>  <r_i_glide_gscore>  (3) 
-3.54711

>  <r_i_glide_lipo>  (3) 
-0.454079

>  <r_i_glide_hbond>  (3) 
0

>  <r_i_glide_metal>  (3) 
-0

>  <r_i_glide_rewards>  (3) 
-1.05057

>  <r_i_glide_evdw>  (3) 
-28.1302

>  <r_i_glide_ecoul>  (3) 
-4.23971

>  <r_i_glide_erotb>  (3) 
0

>  <r_i_glide_esite>  (3) 
0

>  <r_i_glide_emodel>  (3) 
-39.2487

>  <r_i_glide_energy>  (3) 
-32.3699

>  <r_i_glide_einternal>  (3) 
0.695309

>  <r_i_glide_intrahb_reward>  (3) 
-0

>  <i_i_glide_confnum>  (3) 
2

>  <i_i_glide_posenum>  (3) 
39

>  <r_i_glide_eff_state_penalty>  (3) 
0

>  <ligand_id>  (3) 
2

>  <original_smiles>  (3) 
CC1C23COC2=CC1(O)C1(O)CC24COC(C2O)C(O3)C1(C)OC4O

>  <smiles>  (3) 
[H]OC1([H])OC2(C([H])([H])[H])C3([H])OC45C(=C([H])C(O[H])(C4([H])C([H])([H])[H])C2(O[H])C([H])([H])C12C([H])([H])OC3([H])C2([H])O[H])OC5([H])[H]

$$$$
6:0:0
     RDKit          3D

104118  0  0  1  0  0  0  0  0999 V2000
    0.4010   -3.2704   12.2946 C   0  0  0  0  0  0  0  0  0  0  0  0
    0.8700   -2.8097   11.0327 O   0  0  0  0  0  0  0  0  0  0  0  0
   -0.1416   -2.2515   10.2378 C   0  0  2  0  0  0  0  0  0  0  0  0
   -1.0350   -3.2327    9.8067 O   0  0  0  0  0  0  0  0  0  0  0  0
   -0.4236   -3.9330    8.7376 C   0  0  0  0  0  0  0  0  0  0  0  0
    0.2731   -2.8366    7.9328 C   0  0  1  0  0  0  0  0  0  0  0  0
   -0.5375   -2.5122    6.8229 O   0  0  0  0  0  0  0  0  0  0  0  0
    0.4846   -1.6994    8.9401 C   0  0  1  0  0  0  0  0  0  0  0  0
   -0.2096   -0.4841    8.5764 O   0  0  0  0  0  0  0  0  0  0  0  0
    0.5122    0.4613    7.7330 C   0  0  2  0  0  0  0  0  0  0  0  0
    0.9519    1.6909    8.6853 C   0  0  2  0  0  0  0  0  0  0  0  0
   -0.2674    2.1089    9.5781 C   0  0  1  0  0  0  0  0  0  0  0  0
   -0.3340    3.3612   10.5161 C   0  0  0  0  0  0  0  0  0  0  0  0
   -1.5808    4.1157   10.0329 C   0  0  0  0  0  0  0  0  0  0  0  0
   -1.6163    3.6089    8.6546 C   0  0  2  0  0  0  0  0  0  0  0  0
   -1.2820    2.2691    8.6524 O   0  0  0  0  0  0  0  0  0  0  0  0
   -0.9085    4.5341    7.7819 O   0  0  0  0  0  0  0  0  0  0  0  0
   -2.0992    3.9317    7.2866 C   0  0  1  0  0  0  0  0  0  0  0  0
   -1.9023    2.9114    6.1662 C   0  0  0  0  0  0  0  0  0  0  0  0
   -2.9641    2.1289    6.2892 F   0  0  0  0  0  0  0  0  0  0  0  0
   -2.1887    3.6548    5.0938 F   0  0  0  0  0  0  0  0  0  0  0  0
   -0.5123    2.1617    5.9182 C   0  0  1  0  0  0  0  0  0  0  0  0
   -0.1048    2.7240    4.6865 O   0  0  0  0  0  0  0  0  0  0  0  0
    0.9567    2.6661    5.6183 C   0  0  1  0  0  0  0  0  0  0  0  0
    1.0734    3.4807    6.7619 O   0  0  0  0  0  0  0  0  0  0  0  0
    1.6097    2.9797    7.9564 C   0  0  2  0  0  0  0  0  0  0  0  0
    3.0012    2.9205    7.8651 O   0  0  0  0  0  0  0  0  0  0  0  0
    3.7102    2.9354    9.0894 C   0  0  0  0  0  0  0  0  0  0  0  0
    3.3308    1.7326    9.9196 C   0  0  2  0  0  0  0  0  0  0  0  0
    4.0017    1.5908   11.2760 C   0  0  0  0  0  0  0  0  0  0  0  0
    5.4099    1.7352   11.1810 O   0  0  0  0  0  0  0  0  0  0  0  0
    3.1823    0.5232    9.1636 O   0  0  0  0  0  0  0  0  0  0  0  0
    1.9682    1.1051    9.6817 C   0  0  2  0  0  0  0  0  0  0  0  0
    2.2382    2.1513    4.9248 C   0  0  1  0  0  0  0  0  0  0  0  0
    3.1402    3.2460    4.9422 O   0  0  0  0  0  0  0  0  0  0  0  0
    2.7846    0.9023    5.5767 C   0  0  2  0  0  0  0  0  0  0  0  0
    4.1502    0.7469    5.0479 O   0  0  0  0  0  0  0  0  0  0  0  0
    4.3464   -0.2765    4.0747 C   0  0  2  0  0  0  0  0  0  0  0  0
    5.4031   -1.2601    4.6023 C   0  0  0  0  0  0  0  0  0  0  0  0
    6.0399   -0.8086    5.7889 O   0  0  0  0  0  0  0  0  0  0  0  0
    4.7002    0.0812    2.7562 O   0  0  0  0  0  0  0  0  0  0  0  0
    4.0448   -0.5179    1.5997 C   0  0  2  0  0  0  0  0  0  0  0  0
    5.1135   -0.3484    0.4847 C   0  0  0  0  0  0  0  0  0  0  0  0
    2.7874    0.1507    1.2962 O   0  0  0  0  0  0  0  0  0  0  0  0
    2.0752   -0.7860    2.2000 C   0  0  1  0  0  0  0  0  0  0  0  0
    3.1628   -1.8341    1.7110 C   0  0  1  0  0  0  0  0  0  0  0  0
    2.8081   -2.6667    0.4478 C   0  0  2  0  0  0  0  0  0  0  0  0
    3.2991   -4.0204    0.5140 O   0  0  0  0  0  0  0  0  0  0  0  0
    4.1424   -4.0499   -0.6215 C   0  0  1  0  0  0  0  0  0  0  0  0
    3.3685   -3.4851   -1.8167 C   0  0  0  0  0  0  0  0  0  0  0  0
    3.4944   -2.3654   -0.8653 C   0  0  2  0  0  0  0  0  0  0  0  0
    4.8570   -2.8043   -0.6364 O   0  0  0  0  0  0  0  0  0  0  0  0
    2.1329   -0.0125    3.5809 C   0  0  2  0  0  0  0  0  0  0  0  0
    3.1760   -0.9005    3.9933 O   0  0  0  0  0  0  0  0  0  0  0  0
    1.7271   -0.1938    5.0715 C   0  0  2  0  0  0  0  0  0  0  0  0
    0.3119    0.0445    5.2556 O   0  0  0  0  0  0  0  0  0  0  0  0
   -0.3111    0.6907    6.3516 C   0  0  1  0  0  0  0  0  0  0  0  0
   -1.5861    0.0936    6.4785 O   0  0  0  0  0  0  0  0  0  0  0  0
    2.2047    1.5798    3.4566 C   0  0  1  0  0  0  0  0  0  0  0  0
    1.2102    2.2229    2.4533 C   0  0  0  0  0  0  0  0  0  0  0  0
    1.2239   -3.7262   12.8441 H   0  0  0  0  0  0  0  0  0  0  0  0
   -0.3844   -4.0238   12.2039 H   0  0  0  0  0  0  0  0  0  0  0  0
    0.0175   -2.4478   12.8991 H   0  0  0  0  0  0  0  0  0  0  0  0
   -0.6525   -1.4868   10.8159 H   0  0  0  0  0  0  0  0  0  0  0  0
    0.3084   -4.6249    9.1494 H   0  0  0  0  0  0  0  0  0  0  0  0
   -1.1446   -4.5116    8.1570 H   0  0  0  0  0  0  0  0  0  0  0  0
    1.2257   -3.1882    7.5319 H   0  0  0  0  0  0  0  0  0  0  0  0
   -0.0814   -1.8697    6.2974 H   0  0  0  0  0  0  0  0  0  0  0  0
    1.5360   -1.5238    9.1274 H   0  0  0  0  0  0  0  0  0  0  0  0
    1.4044   -0.0748    7.4931 H   0  0  0  0  0  0  0  0  0  0  0  0
   -0.5735    1.2665   10.1922 H   0  0  0  0  0  0  0  0  0  0  0  0
   -0.4558    3.0863   11.5660 H   0  0  0  0  0  0  0  0  0  0  0  0
    0.5505    3.9890   10.4606 H   0  0  0  0  0  0  0  0  0  0  0  0
   -2.4882    3.7822   10.5330 H   0  0  0  0  0  0  0  0  0  0  0  0
   -1.4938    5.2100   10.1014 H   0  0  0  0  0  0  0  0  0  0  0  0
   -2.9781    4.5482    7.2743 H   0  0  0  0  0  0  0  0  0  0  0  0
    1.4764    3.8610    8.5758 H   0  0  0  0  0  0  0  0  0  0  0  0
    4.7822    2.9070    8.8736 H   0  0  0  0  0  0  0  0  0  0  0  0
    3.5143    3.8431    9.6667 H   0  0  0  0  0  0  0  0  0  0  0  0
    3.6152    2.3630   11.9424 H   0  0  0  0  0  0  0  0  0  0  0  0
    3.7667    0.6264   11.7288 H   0  0  0  0  0  0  0  0  0  0  0  0
    5.7368    1.0574   10.6109 H   0  0  0  0  0  0  0  0  0  0  0  0
    1.5531    0.5126   10.4914 H   0  0  0  0  0  0  0  0  0  0  0  0
    2.7913    3.9176    4.3798 H   0  0  0  0  0  0  0  0  0  0  0  0
    2.9112    0.9787    6.6468 H   0  0  0  0  0  0  0  0  0  0  0  0
    4.9532   -2.2328    4.7842 H   0  0  0  0  0  0  0  0  0  0  0  0
    6.1269   -1.3867    3.7959 H   0  0  0  0  0  0  0  0  0  0  0  0
    5.3747   -0.6623    6.4388 H   0  0  0  0  0  0  0  0  0  0  0  0
    5.6027    0.6242    0.6043 H   0  0  0  0  0  0  0  0  0  0  0  0
    4.7301   -0.3523   -0.4861 H   0  0  0  0  0  0  0  0  0  0  0  0
    5.8948   -1.1134    0.6420 H   0  0  0  0  0  0  0  0  0  0  0  0
    1.0569   -0.9709    1.8506 H   0  0  0  0  0  0  0  0  0  0  0  0
    3.5099   -2.5106    2.4923 H   0  0  0  0  0  0  0  0  0  0  0  0
    1.7340   -2.6736    0.2833 H   0  0  0  0  0  0  0  0  0  0  0  0
    4.7715   -4.9506   -0.7774 H   0  0  0  0  0  0  0  0  0  0  0  0
    3.9425   -3.3287   -2.7399 H   0  0  0  0  0  0  0  0  0  0  0  0
    2.3246   -3.8145   -1.9759 H   0  0  0  0  0  0  0  0  0  0  0  0
    3.3680   -1.3567   -1.3111 H   0  0  0  0  0  0  0  0  0  0  0  0
    1.8925   -1.1695    5.5555 H   0  0  0  0  0  0  0  0  0  0  0  0
   -2.0374    0.2388    5.6494 H   0  0  0  0  0  0  0  0  0  0  0  0
    3.1649    1.8553    3.0155 H   0  0  0  0  0  0  0  0  0  0  0  0
    0.2274    1.7498    2.4729 H   0  0  0  0  0  0  0  0  0  0  0  0
    1.5658    2.1605    1.4243 H   0  0  0  0  0  0  0  0  0  0  0  0
    1.0895    3.2874    2.6444 H   0  0  0  0  0  0  0  0  0  0  0  0
  1  2  1  0
  1 61  1  0
  1 62  1  0
  1 63  1  0
  2  3  1  0
  3  8  1  0
  3  4  1  0
  3 64  1  1
  4  5  1  0
  5  6  1  0
  5 65  1  0
  5 66  1  0
  6  7  1  0
  6  8  1  0
  6 67  1  6
  7 68  1  0
  8  9  1  0
  8 69  1  1
  9 10  1  0
 10 57  1  0
 10 11  1  0
 10 70  1  6
 11 26  1  0
 11 33  1  0
 11 12  1  1
 12 16  1  0
 12 13  1  0
 12 71  1  1
 13 14  1  0
 13 72  1  0
 13 73  1  0
 14 15  1  0
 14 74  1  0
 14 75  1  0
 15 18  1  0
 15 16  1  0
 15 17  1  6
 17 18  1  0
 18 19  1  0
 18 76  1  1
 19 20  1  0
 19 21  1  0
 19 22  1  0
 22 24  1  0
 22 57  1  0
 22 23  1  6
 24 23  1  6
 24 25  1  0
 24 34  1  0
 25 26  1  0
 26 27  1  0
 26 77  1  1
 27 28  1  0
 28 29  1  0
 28 78  1  0
 28 79  1  0
 29 33  1  0
 29 30  1  1
 29 32  1  0
 30 31  1  0
 30 80  1  0
 30 81  1  0
 31 82  1  0
 32 33  1  0
 33 83  1  1
 34 59  1  0
 34 35  1  6
 34 36  1  0
 35 84  1  0
 36 55  1  0
 36 37  1  0
 36 85  1  1
 37 38  1  0
 38 54  1  0
 38 39  1  1
 38 41  1  0
 39 40  1  0
 39 86  1  0
 39 87  1  0
 40 88  1  0
 41 42  1  0
 42 46  1  0
 42 43  1  6
 42 44  1  0
 43 89  1  0
 43 90  1  0
 43 91  1  0
 44 45  1  0
 45 46  1  0
 45 53  1  0
 45 92  1  6
 46 47  1  0
 46 93  1  1
 47 51  1  0
 47 48  1  0
 47 94  1  6
 48 49  1  0
 49 52  1  0
 49 50  1  0
 49 95  1  6
 50 51  1  0
 50 96  1  0
 50 97  1  0
 51 52  1  0
 51 98  1  6
 53 54  1  1
 53 55  1  0
 53 59  1  0
 55 56  1  0
 55 99  1  1
 56 57  1  0
 57 58  1  1
 58100  1  0
 59 60  1  0
 59101  1  6
 60102  1  0
 60103  1  0
 60104  1  0
M  END
>  <i_m_ct_stereo_status>  (4) 
1

>  <s_m_source_file>  (4) 
/var/tmp/pbs.5076253.sched01/tmpsnpm1fw8/0c_pn72ob.sdf

>  <i_m_source_file_index>  (4) 
10

>  <i_lp_mmshare_version>  (4) 
48012

>  <i_f3d_flags>  (4) 
0

>  <s_epik_input>  (4) 
W0NIM11PW0NAQEhdMU9bQ0gyXVtDQEBIXShbT0hdKVtDQEhdMU9bQ0BIXTJbQ0BdMyhbT0hdKU9bQ0BASF0oW0NAXTQoW0NASF01W0NIM10pW0NASF02T1tDQEBdKFtDSDNdKShPW0NAQF0oTzcpKE80KVtDSDJdW09IXSlbQ0BASF02W0NASF0oT1tDQEBIXTg5KVtDQEBIXShPOSlbQ0gyXTgpW0NAQEhdN1tDQF01KFtPSF0pW0NAQF0oTzEpKEMxM0MoRikoRilbQ0BIXShPMSlbQ0BdMShPMSlbQ0gyXVtDSDJdW0NAQEhdMVtDQF0xMjMpT1tDQEBIXTFPW0NIMl1bQ0BdMShbQ0BASF0zTzEpW0NIMl1bT0hd

>  <s_epik_cmdline>  (4) 
J2VwaWtfcHl0aG9uJywgJy1waHQnLCAnMi4wJywgJy1waCcsICc3LjAnLCAnLXRuJywgJzgnLCAnLW1hJywgJzIwMCcsICctaW1hZScsICc8aW5maWxlLm1hZT4nLCAnLW9tYWUnLCAnPG91dGZpbGUubWFlPic=

>  <r_epik_Ionization_Penalty>  (4) 
0.00809233

>  <r_epik_Ionization_Penalty_Charging>  (4) 
0

>  <r_epik_Ionization_Penalty_Neutral>  (4) 
0.00809233

>  <r_epik_State_Penalty>  (4) 
0.00604842

>  <r_epik_Charging_Adjusted_Penalty>  (4) 
0.00604842

>  <i_epik_Tot_Q>  (4) 
0

>  <i_epik_Tot_abs_Q>  (4) 
0

>  <s_epik_Chemistry_Notes>  (4) 
This compound contains an acetal/aminal-like group ( X-CH(R)-Y where X, Y are N, S, or O) that may be acid/base labile, releasing an aldehyde.

>  <s_lp_Force_Field>  (4) 
OPLS3e

>  <r_lp_Energy>  (4) 
231.75

>  <b_lp_Chiralities_Consistent>  (4) 
1

>  <s_lp_Variant>  (4) 
6:0-1

>  <s_i_glide_gridfile>  (4) 
pfpi4k_grid

>  <i_i_glide_lignum>  (4) 
10

>  <i_i_glide_rotatable_bonds>  (4) 
11

>  <r_i_docking_score>  (4) 
-3.75264

>  <r_i_glide_ligand_efficiency>  (4) 
-0.0625441

>  <r_i_glide_ligand_efficiency_sa>  (4) 
-0.244852

>  <r_i_glide_ligand_efficiency_ln>  (4) 
-0.736629

>  <r_i_glide_gscore>  (4) 
-3.75264

>  <r_i_glide_lipo>  (4) 
-0.349346

>  <r_i_glide_hbond>  (4) 
-0.229674

>  <r_i_glide_metal>  (4) 
-0

>  <r_i_glide_rewards>  (4) 
-0.250765

>  <r_i_glide_evdw>  (4) 
-23.5032

>  <r_i_glide_ecoul>  (4) 
-11.7159

>  <r_i_glide_erotb>  (4) 
0.147488

>  <r_i_glide_esite>  (4) 
-0.137804

>  <r_i_glide_emodel>  (4) 
-31.41

>  <r_i_glide_energy>  (4) 
-35.2191

>  <r_i_glide_einternal>  (4) 
18.8361

>  <r_i_glide_intrahb_reward>  (4) 
-0

>  <i_i_glide_confnum>  (4) 
1

>  <i_i_glide_posenum>  (4) 
1

>  <r_i_glide_eff_state_penalty>  (4) 
0

>  <ligand_id>  (4) 
6

>  <original_smiles>  (4) 
COC1OCC(O)C1OC1C23C4CCC5(O4)OC5C(F)(F)C45OC4(OC2OCC2(CO)OC23)C2(O)C3OC4(CO)OC6(C)OC(C6C6OC7CC6O7)C(O4)(C3OC15O)C2C

>  <smiles>  (4) 
[H]OC([H])([H])C12OC3([H])C4([H])OC5(O[H])C([H])(OC6([H])C([H])(OC([H])([H])[H])OC([H])([H])C6([H])O[H])C67C([H])(OC([H])([H])C8(C([H])([H])O[H])OC86[H])OC6(OC56C(F)(F)C5([H])OC56OC7([H])C([H])([H])C6([H])[H])C3(O[H])C([H])(C([H])([H])[H])C4(O1)C1([H])OC(C([H])([H])[H])(O2)C1([H])C1([H])OC2([H])OC1([H])C2([H])[H]

$$$$
6:0:1
     RDKit          3D

104118  0  0  1  0  0  0  0  0999 V2000
    0.1361   -2.2595   12.9749 C   0  0  0  0  0  0  0  0  0  0  0  0
    0.5597   -2.4918   11.6471 O   0  0  0  0  0  0  0  0  0  0  0  0
   -0.3475   -2.0815   10.6651 C   0  0  2  0  0  0  0  0  0  0  0  0
   -1.0456   -3.1621   10.1397 O   0  0  0  0  0  0  0  0  0  0  0  0
   -0.2160   -3.8071    9.1943 C   0  0  0  0  0  0  0  0  0  0  0  0
    0.5057   -2.6620    8.4942 C   0  0  1  0  0  0  0  0  0  0  0  0
   -0.1802   -2.4443    7.2668 O   0  0  0  0  0  0  0  0  0  0  0  0
    0.4683   -1.5090    9.5039 C   0  0  1  0  0  0  0  0  0  0  0  0
   -0.1796   -0.3148    9.0229 O   0  0  0  0  0  0  0  0  0  0  0  0
    0.5688    0.6166    8.2028 C   0  0  2  0  0  0  0  0  0  0  0  0
    0.9082    1.8768    9.1447 C   0  0  2  0  0  0  0  0  0  0  0  0
   -0.3862    2.2936    9.9264 C   0  0  1  0  0  0  0  0  0  0  0  0
   -0.4963    3.5331   10.8811 C   0  0  0  0  0  0  0  0  0  0  0  0
   -1.7533    4.2549   10.3666 C   0  0  0  0  0  0  0  0  0  0  0  0
   -1.7860    3.7186    8.9924 C   0  0  2  0  0  0  0  0  0  0  0  0
   -1.4100    2.3868    9.0009 O   0  0  0  0  0  0  0  0  0  0  0  0
   -0.9971    4.5965    8.1776 O   0  0  0  0  0  0  0  0  0  0  0  0
   -2.1192    4.0001    7.5671 C   0  0  1  0  0  0  0  0  0  0  0  0
   -1.8390    2.9942    6.4691 C   0  0  0  0  0  0  0  0  0  0  0  0
   -2.8890    2.1662    6.5167 F   0  0  0  0  0  0  0  0  0  0  0  0
   -2.0682    3.7106    5.3699 F   0  0  0  0  0  0  0  0  0  0  0  0
   -0.3964    2.3044    6.2765 C   0  0  1  0  0  0  0  0  0  0  0  0
    0.1166    3.0051    5.1268 O   0  0  0  0  0  0  0  0  0  0  0  0
    1.0754    2.8089    6.0834 C   0  0  1  0  0  0  0  0  0  0  0  0
    1.0980    3.6171    7.2258 O   0  0  0  0  0  0  0  0  0  0  0  0
    1.6132    3.1267    8.4237 C   0  0  2  0  0  0  0  0  0  0  0  0
    3.0185    3.0497    8.4381 O   0  0  0  0  0  0  0  0  0  0  0  0
    3.6341    3.1268    9.7130 C   0  0  0  0  0  0  0  0  0  0  0  0
    3.1643    1.9640   10.5368 C   0  0  2  0  0  0  0  0  0  0  0  0
    3.7859    1.8479   11.9076 C   0  0  0  0  0  0  0  0  0  0  0  0
    5.2004    1.8492   11.8492 O   0  0  0  0  0  0  0  0  0  0  0  0
    3.0636    0.7525    9.8000 O   0  0  0  0  0  0  0  0  0  0  0  0
    1.8389    1.3428   10.2301 C   0  0  2  0  0  0  0  0  0  0  0  0
    2.3908    2.2667    5.4571 C   0  0  1  0  0  0  0  0  0  0  0  0
    3.2934    3.3561    5.4925 O   0  0  0  0  0  0  0  0  0  0  0  0
    2.9068    1.0274    6.1691 C   0  0  2  0  0  0  0  0  0  0  0  0
    4.2872    0.9009    5.6887 O   0  0  0  0  0  0  0  0  0  0  0  0
    4.5469   -0.1500    4.7831 C   0  0  2  0  0  0  0  0  0  0  0  0
    5.4880   -1.1398    5.4465 C   0  0  0  0  0  0  0  0  0  0  0  0
    6.5749   -0.4813    6.0946 O   0  0  0  0  0  0  0  0  0  0  0  0
    5.0146    0.1229    3.4787 O   0  0  0  0  0  0  0  0  0  0  0  0
    4.3631   -0.4927    2.2994 C   0  0  2  0  0  0  0  0  0  0  0  0
    5.3827   -0.4135    1.1686 C   0  0  0  0  0  0  0  0  0  0  0  0
    3.1222    0.1692    1.9292 O   0  0  0  0  0  0  0  0  0  0  0  0
    2.3846   -0.7461    2.8154 C   0  0  1  0  0  0  0  0  0  0  0  0
    3.4898   -1.7816    2.4202 C   0  0  1  0  0  0  0  0  0  0  0  0
    3.2381   -2.5946    1.1306 C   0  0  2  0  0  0  0  0  0  0  0  0
    2.3915   -3.7383    1.3340 O   0  0  0  0  0  0  0  0  0  0  0  0
    3.2757   -4.7838    0.9444 C   0  0  1  0  0  0  0  0  0  0  0  0
    3.8819   -4.3854   -0.4018 C   0  0  0  0  0  0  0  0  0  0  0  0
    4.4184   -3.3886    0.5731 C   0  0  2  0  0  0  0  0  0  0  0  0
    4.5419   -4.4669    1.5245 O   0  0  0  0  0  0  0  0  0  0  0  0
    2.3738    0.0856    4.1513 C   0  0  2  0  0  0  0  0  0  0  0  0
    3.3984   -0.7624    4.6362 O   0  0  0  0  0  0  0  0  0  0  0  0
    1.8957   -0.0794    5.6220 C   0  0  2  0  0  0  0  0  0  0  0  0
    0.4974    0.2120    5.6787 O   0  0  0  0  0  0  0  0  0  0  0  0
   -0.1716    0.8403    6.7560 C   0  0  1  0  0  0  0  0  0  0  0  0
   -1.4128    0.2078    6.8208 O   0  0  0  0  0  0  0  0  0  0  0  0
    2.4463    1.6677    3.9911 C   0  0  1  0  0  0  0  0  0  0  0  0
    1.5013    2.2831    2.9362 C   0  0  0  0  0  0  0  0  0  0  0  0
    0.8491   -2.7203   13.6619 H   0  0  0  0  0  0  0  0  0  0  0  0
   -0.8536   -2.6733   13.1777 H   0  0  0  0  0  0  0  0  0  0  0  0
    0.1249   -1.1869   13.1704 H   0  0  0  0  0  0  0  0  0  0  0  0
   -1.0774   -1.3669   11.0481 H   0  0  0  0  0  0  0  0  0  0  0  0
    0.4891   -4.4364    9.7298 H   0  0  0  0  0  0  0  0  0  0  0  0
   -0.7943   -4.4366    8.5175 H   0  0  0  0  0  0  0  0  0  0  0  0
    1.5439   -2.9200    8.2818 H   0  0  0  0  0  0  0  0  0  0  0  0
    0.1879   -3.0106    6.6171 H   0  0  0  0  0  0  0  0  0  0  0  0
    1.4628   -1.3340    9.9300 H   0  0  0  0  0  0  0  0  0  0  0  0
    1.4548    0.0274    8.0396 H   0  0  0  0  0  0  0  0  0  0  0  0
   -0.7227    1.4519   10.5296 H   0  0  0  0  0  0  0  0  0  0  0  0
   -0.6366    3.2403   11.9194 H   0  0  0  0  0  0  0  0  0  0  0  0
    0.3931    4.1590   10.8853 H   0  0  0  0  0  0  0  0  0  0  0  0
   -2.6713    3.9796   10.8940 H   0  0  0  0  0  0  0  0  0  0  0  0
   -1.6762    5.3564   10.3678 H   0  0  0  0  0  0  0  0  0  0  0  0
   -3.0681    4.5229    7.5176 H   0  0  0  0  0  0  0  0  0  0  0  0
    1.3868    3.9936    9.0267 H   0  0  0  0  0  0  0  0  0  0  0  0
    4.7169    3.0693    9.5769 H   0  0  0  0  0  0  0  0  0  0  0  0
    3.3919    4.0521   10.2368 H   0  0  0  0  0  0  0  0  0  0  0  0
    3.4400    2.6708   12.5309 H   0  0  0  0  0  0  0  0  0  0  0  0
    3.4521    0.9171   12.3598 H   0  0  0  0  0  0  0  0  0  0  0  0
    5.4717    1.0717   11.3931 H   0  0  0  0  0  0  0  0  0  0  0  0
    1.3575    0.7759   11.0324 H   0  0  0  0  0  0  0  0  0  0  0  0
    4.0768    3.0689    5.0744 H   0  0  0  0  0  0  0  0  0  0  0  0
    2.9428    1.0941    7.2458 H   0  0  0  0  0  0  0  0  0  0  0  0
    4.9802   -1.7817    6.1687 H   0  0  0  0  0  0  0  0  0  0  0  0
    5.7659   -1.8058    4.6347 H   0  0  0  0  0  0  0  0  0  0  0  0
    7.0790   -1.1045    6.5848 H   0  0  0  0  0  0  0  0  0  0  0  0
    5.7869    0.5780    1.0850 H   0  0  0  0  0  0  0  0  0  0  0  0
    4.9498   -0.6420    0.1914 H   0  0  0  0  0  0  0  0  0  0  0  0
    6.2331   -1.0688    1.3736 H   0  0  0  0  0  0  0  0  0  0  0  0
    1.4047   -1.0204    2.4148 H   0  0  0  0  0  0  0  0  0  0  0  0
    3.8122   -2.4372    3.2326 H   0  0  0  0  0  0  0  0  0  0  0  0
    2.8074   -1.9527    0.3516 H   0  0  0  0  0  0  0  0  0  0  0  0
    2.9837   -5.8445    0.9812 H   0  0  0  0  0  0  0  0  0  0  0  0
    4.6411   -5.0698   -0.7879 H   0  0  0  0  0  0  0  0  0  0  0  0
    3.1984   -3.9670   -1.1483 H   0  0  0  0  0  0  0  0  0  0  0  0
    5.3523   -2.9408    0.2340 H   0  0  0  0  0  0  0  0  0  0  0  0
    2.0166   -1.0609    6.1169 H   0  0  0  0  0  0  0  0  0  0  0  0
   -1.8728    0.4412    6.0249 H   0  0  0  0  0  0  0  0  0  0  0  0
    3.4274    1.9322    3.5933 H   0  0  0  0  0  0  0  0  0  0  0  0
    0.5274    1.8027    2.9486 H   0  0  0  0  0  0  0  0  0  0  0  0
    1.8965    2.1967    1.9239 H   0  0  0  0  0  0  0  0  0  0  0  0
    1.3719    3.3491    3.0929 H   0  0  0  0  0  0  0  0  0  0  0  0
  1  2  1  0
  1 61  1  0
  1 62  1  0
  1 63  1  0
  2  3  1  0
  3  8  1  0
  3  4  1  0
  3 64  1  1
  4  5  1  0
  5  6  1  0
  5 65  1  0
  5 66  1  0
  6  7  1  0
  6  8  1  0
  6 67  1  6
  7 68  1  0
  8  9  1  0
  8 69  1  1
  9 10  1  0
 10 57  1  0
 10 11  1  0
 10 70  1  6
 11 26  1  0
 11 33  1  0
 11 12  1  1
 12 16  1  0
 12 13  1  0
 12 71  1  1
 13 14  1  0
 13 72  1  0
 13 73  1  0
 14 15  1  0
 14 74  1  0
 14 75  1  0
 15 18  1  0
 15 16  1  0
 15 17  1  6
 17 18  1  0
 18 19  1  0
 18 76  1  1
 19 20  1  0
 19 21  1  0
 19 22  1  0
 22 24  1  0
 22 57  1  0
 22 23  1  6
 24 23  1  6
 24 25  1  0
 24 34  1  0
 25 26  1  0
 26 27  1  0
 26 77  1  1
 27 28  1  0
 28 29  1  0
 28 78  1  0
 28 79  1  0
 29 33  1  0
 29 30  1  1
 29 32  1  0
 30 31  1  0
 30 80  1  0
 30 81  1  0
 31 82  1  0
 32 33  1  0
 33 83  1  1
 34 59  1  0
 34 35  1  6
 34 36  1  0
 35 84  1  0
 36 55  1  0
 36 37  1  0
 36 85  1  1
 37 38  1  0
 38 54  1  0
 38 39  1  1
 38 41  1  0
 39 40  1  0
 39 86  1  0
 39 87  1  0
 40 88  1  0
 41 42  1  0
 42 46  1  0
 42 43  1  6
 42 44  1  0
 43 89  1  0
 43 90  1  0
 43 91  1  0
 44 45  1  0
 45 46  1  0
 45 53  1  0
 45 92  1  6
 46 47  1  0
 46 93  1  1
 47 51  1  0
 47 48  1  0
 47 94  1  6
 48 49  1  0
 49 52  1  0
 49 50  1  0
 49 95  1  6
 50 51  1  0
 50 96  1  0
 50 97  1  0
 51 52  1  0
 51 98  1  6
 53 54  1  1
 53 55  1  0
 53 59  1  0
 55 56  1  0
 55 99  1  1
 56 57  1  0
 57 58  1  1
 58100  1  0
 59 60  1  0
 59101  1  6
 60102  1  0
 60103  1  0
 60104  1  0
M  END
>  <i_m_ct_stereo_status>  (5) 
1

>  <s_m_source_file>  (5) 
/var/tmp/pbs.5076253.sched01/tmpsnpm1fw8/0c_pn72ob.sdf

>  <i_m_source_file_index>  (5) 
10

>  <i_lp_mmshare_version>  (5) 
48012

>  <i_f3d_flags>  (5) 
0

>  <s_epik_input>  (5) 
W0NIM11PW0NAQEhdMU9bQ0gyXVtDQEBIXShbT0hdKVtDQEhdMU9bQ0BIXTJbQ0BdMyhbT0hdKU9bQ0BASF0oW0NAXTQoW0NASF01W0NIM10pW0NASF02T1tDQEBdKFtDSDNdKShPW0NAQF0oTzcpKE80KVtDSDJdW09IXSlbQ0BASF02W0NASF0oT1tDQEBIXTg5KVtDQEBIXShPOSlbQ0gyXTgpW0NAQEhdN1tDQF01KFtPSF0pW0NAQF0oTzEpKEMxM0MoRikoRilbQ0BIXShPMSlbQ0BdMShPMSlbQ0gyXVtDSDJdW0NAQEhdMVtDQF0xMjMpT1tDQEBIXTFPW0NIMl1bQ0BdMShbQ0BASF0zTzEpW0NIMl1bT0hd

>  <s_epik_cmdline>  (5) 
J2VwaWtfcHl0aG9uJywgJy1waHQnLCAnMi4wJywgJy1waCcsICc3LjAnLCAnLXRuJywgJzgnLCAnLW1hJywgJzIwMCcsICctaW1hZScsICc8aW5maWxlLm1hZT4nLCAnLW9tYWUnLCAnPG91dGZpbGUubWFlPic=

>  <r_epik_Ionization_Penalty>  (5) 
0.00809233

>  <r_epik_Ionization_Penalty_Charging>  (5) 
0

>  <r_epik_Ionization_Penalty_Neutral>  (5) 
0.00809233

>  <r_epik_State_Penalty>  (5) 
0.00604842

>  <r_epik_Charging_Adjusted_Penalty>  (5) 
0.00604842

>  <i_epik_Tot_Q>  (5) 
0

>  <i_epik_Tot_abs_Q>  (5) 
0

>  <s_epik_Chemistry_Notes>  (5) 
This compound contains an acetal/aminal-like group ( X-CH(R)-Y where X, Y are N, S, or O) that may be acid/base labile, releasing an aldehyde.

>  <s_lp_Force_Field>  (5) 
OPLS3e

>  <r_lp_Energy>  (5) 
231.75

>  <b_lp_Chiralities_Consistent>  (5) 
1

>  <s_lp_Variant>  (5) 
6:0-1

>  <s_i_glide_gridfile>  (5) 
pfpi4k_grid

>  <i_i_glide_lignum>  (5) 
10

>  <i_i_glide_rotatable_bonds>  (5) 
11

>  <r_i_docking_score>  (5) 
-3.19045

>  <r_i_glide_ligand_efficiency>  (5) 
-0.0531742

>  <r_i_glide_ligand_efficiency_sa>  (5) 
-0.20817

>  <r_i_glide_ligand_efficiency_ln>  (5) 
-0.626274

>  <r_i_glide_gscore>  (5) 
-3.19045

>  <r_i_glide_lipo>  (5) 
-0.28435

>  <r_i_glide_hbond>  (5) 
-0.170514

>  <r_i_glide_metal>  (5) 
-0

>  <r_i_glide_rewards>  (5) 
-0.282862

>  <r_i_glide_evdw>  (5) 
-24.246

>  <r_i_glide_ecoul>  (5) 
-8.38368

>  <r_i_glide_erotb>  (5) 
0.147488

>  <r_i_glide_esite>  (5) 
-0.130361

>  <r_i_glide_emodel>  (5) 
-33.6601

>  <r_i_glide_energy>  (5) 
-32.6297

>  <r_i_glide_einternal>  (5) 
8.33631

>  <r_i_glide_intrahb_reward>  (5) 
-0

>  <i_i_glide_confnum>  (5) 
1

>  <i_i_glide_posenum>  (5) 
8

>  <r_i_glide_eff_state_penalty>  (5) 
0

>  <ligand_id>  (5) 
6

>  <original_smiles>  (5) 
COC1OCC(O)C1OC1C23C4CCC5(O4)OC5C(F)(F)C45OC4(OC2OCC2(CO)OC23)C2(O)C3OC4(CO)OC6(C)OC(C6C6OC7CC6O7)C(O4)(C3OC15O)C2C

>  <smiles>  (5) 
[H]OC([H])([H])C12OC3([H])C4([H])OC5(O[H])C([H])(OC6([H])C([H])(OC([H])([H])[H])OC([H])([H])C6([H])O[H])C67C([H])(OC([H])([H])C8(C([H])([H])O[H])OC86[H])OC6(OC56C(F)(F)C5([H])OC56OC7([H])C([H])([H])C6([H])[H])C3(O[H])C([H])(C([H])([H])[H])C4(O1)C1([H])OC(C([H])([H])[H])(O2)C1([H])C1([H])OC2([H])OC1([H])C2([H])[H]

$$$$
6:0:2
     RDKit          3D

104118  0  0  1  0  0  0  0  0999 V2000
    2.1553   -3.1030    9.1618 C   0  0  0  0  0  0  0  0  0  0  0  0
    0.9067   -3.7472    9.1000 O   0  0  0  0  0  0  0  0  0  0  0  0
   -0.1622   -2.8629    8.9128 C   0  0  2  0  0  0  0  0  0  0  0  0
   -1.3694   -3.5247    9.2416 O   0  0  0  0  0  0  0  0  0  0  0  0
   -1.7157   -4.3908    8.1860 C   0  0  0  0  0  0  0  0  0  0  0  0
   -1.3594   -3.5931    6.9174 C   0  0  1  0  0  0  0  0  0  0  0  0
   -2.5523   -3.0512    6.4589 O   0  0  0  0  0  0  0  0  0  0  0  0
   -0.2570   -2.5590    7.3909 C   0  0  1  0  0  0  0  0  0  0  0  0
   -0.6642   -1.2190    7.1788 O   0  0  0  0  0  0  0  0  0  0  0  0
    0.1419   -0.1598    6.6294 C   0  0  2  0  0  0  0  0  0  0  0  0
    0.3379    0.9902    7.7561 C   0  0  2  0  0  0  0  0  0  0  0  0
   -1.0417    1.4011    8.3557 C   0  0  1  0  0  0  0  0  0  0  0  0
   -1.2936    2.5338    9.4205 C   0  0  0  0  0  0  0  0  0  0  0  0
   -2.4113    3.3658    8.7716 C   0  0  0  0  0  0  0  0  0  0  0  0
   -2.2134    2.9620    7.3572 C   0  0  2  0  0  0  0  0  0  0  0  0
   -1.9147    1.6240    7.3051 O   0  0  0  0  0  0  0  0  0  0  0  0
   -1.2812    3.9085    6.7719 O   0  0  0  0  0  0  0  0  0  0  0  0
   -2.3101    3.4296    5.9364 C   0  0  1  0  0  0  0  0  0  0  0  0
   -1.8489    2.5471    4.7494 C   0  0  0  0  0  0  0  0  0  0  0  0
   -2.8649    1.7695    4.3236 F   0  0  0  0  0  0  0  0  0  0  0  0
   -1.7663    3.4868    3.7937 F   0  0  0  0  0  0  0  0  0  0  0  0
   -0.4871    1.7336    4.7800 C   0  0  1  0  0  0  0  0  0  0  0  0
    0.2495    2.4367    3.7739 O   0  0  0  0  0  0  0  0  0  0  0  0
    1.0343    2.1779    4.9134 C   0  0  1  0  0  0  0  0  0  0  0  0
    0.9350    2.9228    6.0947 O   0  0  0  0  0  0  0  0  0  0  0  0
    1.1834    2.2911    7.3209 C   0  0  2  0  0  0  0  0  0  0  0  0
    2.5565    2.1749    7.5386 O   0  0  0  0  0  0  0  0  0  0  0  0
    2.9661    2.0803    8.8942 C   0  0  0  0  0  0  0  0  0  0  0  0
    2.3516    0.8324    9.4973 C   0  0  2  0  0  0  0  0  0  0  0  0
    2.6977    0.5279   10.9422 C   0  0  0  0  0  0  0  0  0  0  0  0
    4.0900    0.6049   11.2066 O   0  0  0  0  0  0  0  0  0  0  0  0
    2.3122   -0.2965    8.6275 O   0  0  0  0  0  0  0  0  0  0  0  0
    1.0530    0.3103    8.9388 C   0  0  2  0  0  0  0  0  0  0  0  0
    2.4037    1.6355    4.4623 C   0  0  1  0  0  0  0  0  0  0  0  0
    3.3350    2.6654    4.7683 O   0  0  0  0  0  0  0  0  0  0  0  0
    2.7492    0.3103    5.0946 C   0  0  2  0  0  0  0  0  0  0  0  0
    4.1837    0.1474    4.8441 O   0  0  0  0  0  0  0  0  0  0  0  0
    4.5561   -0.8111    3.8747 C   0  0  2  0  0  0  0  0  0  0  0  0
    5.3606   -1.9063    4.5716 C   0  0  0  0  0  0  0  0  0  0  0  0
    5.8799   -1.4791    5.8203 O   0  0  0  0  0  0  0  0  0  0  0  0
    5.2472   -0.3907    2.7119 O   0  0  0  0  0  0  0  0  0  0  0  0
    4.8034   -0.8470    1.3779 C   0  0  2  0  0  0  0  0  0  0  0  0
    6.0030   -0.6454    0.4640 C   0  0  0  0  0  0  0  0  0  0  0  0
    3.6655   -0.0991    0.8879 O   0  0  0  0  0  0  0  0  0  0  0  0
    2.7456   -1.0743    1.5223 C   0  0  1  0  0  0  0  0  0  0  0  0
    3.8937   -2.1155    1.1945 C   0  0  1  0  0  0  0  0  0  0  0  0
    3.8342   -2.7846   -0.2060 C   0  0  2  0  0  0  0  0  0  0  0  0
    3.1871   -4.0683   -0.1635 O   0  0  0  0  0  0  0  0  0  0  0  0
    4.2201   -4.9163   -0.6558 C   0  0  1  0  0  0  0  0  0  0  0  0
    4.7739   -4.2303   -1.9239 C   0  0  0  0  0  0  0  0  0  0  0  0
    5.1434   -3.2891   -0.8097 C   0  0  2  0  0  0  0  0  0  0  0  0
    5.4055   -4.4649    0.0067 O   0  0  0  0  0  0  0  0  0  0  0  0
    2.5260   -0.4044    2.9340 C   0  0  2  0  0  0  0  0  0  0  0  0
    3.4193   -1.3623    3.4784 O   0  0  0  0  0  0  0  0  0  0  0  0
    1.7891   -0.6846    4.2710 C   0  0  2  0  0  0  0  0  0  0  0  0
    0.3877   -0.3585    4.1288 O   0  0  0  0  0  0  0  0  0  0  0  0
   -0.3961    0.2254    5.1405 C   0  0  1  0  0  0  0  0  0  0  0  0
   -1.6859   -0.3575    5.0220 O   0  0  0  0  0  0  0  0  0  0  0  0
    2.6662    1.1783    2.9856 C   0  0  1  0  0  0  0  0  0  0  0  0
    1.9089    1.9063    1.8619 C   0  0  0  0  0  0  0  0  0  0  0  0
    2.9487   -3.8122    9.3701 H   0  0  0  0  0  0  0  0  0  0  0  0
    2.1427   -2.3619    9.9634 H   0  0  0  0  0  0  0  0  0  0  0  0
    2.3779   -2.5921    8.2202 H   0  0  0  0  0  0  0  0  0  0  0  0
   -0.1306   -2.0160    9.5610 H   0  0  0  0  0  0  0  0  0  0  0  0
   -1.1052   -5.2928    8.2589 H   0  0  0  0  0  0  0  0  0  0  0  0
   -2.7715   -4.6722    8.2697 H   0  0  0  0  0  0  0  0  0  0  0  0
   -0.9308   -4.2817    6.1397 H   0  0  0  0  0  0  0  0  0  0  0  0
   -2.3461   -2.5036    5.7190 H   0  0  0  0  0  0  0  0  0  0  0  0
    0.6567   -2.8014    6.8269 H   0  0  0  0  0  0  0  0  0  0  0  0
    1.0594   -0.7102    6.5573 H   0  0  0  0  0  0  0  0  0  0  0  0
   -1.4484    0.5171    8.8284 H   0  0  0  0  0  0  0  0  0  0  0  0
   -1.6366    2.1385   10.3782 H   0  0  0  0  0  0  0  0  0  0  0  0
   -0.4041    3.1182    9.6528 H   0  0  0  0  0  0  0  0  0  0  0  0
   -3.4134    3.0599    9.0776 H   0  0  0  0  0  0  0  0  0  0  0  0
   -2.3016    4.4466    8.9398 H   0  0  0  0  0  0  0  0  0  0  0  0
   -3.1185    4.1204    5.7517 H   0  0  0  0  0  0  0  0  0  0  0  0
    0.8977    3.1072    7.9739 H   0  0  0  0  0  0  0  0  0  0  0  0
    4.0467    1.9624    8.9306 H   0  0  0  0  0  0  0  0  0  0  0  0
    2.6690    2.9417    9.4984 H   0  0  0  0  0  0  0  0  0  0  0  0
    2.1664    1.2047   11.6119 H   0  0  0  0  0  0  0  0  0  0  0  0
    2.3555   -0.4809   11.2041 H   0  0  0  0  0  0  0  0  0  0  0  0
    4.5289   -0.0568   10.6905 H   0  0  0  0  0  0  0  0  0  0  0  0
    0.4506   -0.1927    9.6569 H   0  0  0  0  0  0  0  0  0  0  0  0
    3.1015    3.3901    4.2120 H   0  0  0  0  0  0  0  0  0  0  0  0
    2.6652    0.3059    6.1609 H   0  0  0  0  0  0  0  0  0  0  0  0
    4.7429   -2.7705    4.7977 H   0  0  0  0  0  0  0  0  0  0  0  0
    6.0885   -2.2606    3.8426 H   0  0  0  0  0  0  0  0  0  0  0  0
    6.5248   -2.1007    6.1046 H   0  0  0  0  0  0  0  0  0  0  0  0
    6.4587    0.3264    0.6182 H   0  0  0  0  0  0  0  0  0  0  0  0
    5.7205   -0.7242   -0.5905 H   0  0  0  0  0  0  0  0  0  0  0  0
    6.7523   -1.4095    0.6678 H   0  0  0  0  0  0  0  0  0  0  0  0
    1.8148   -1.2181    0.9540 H   0  0  0  0  0  0  0  0  0  0  0  0
    4.0590   -2.8729    1.9654 H   0  0  0  0  0  0  0  0  0  0  0  0
    3.3067   -2.1393   -0.9150 H   0  0  0  0  0  0  0  0  0  0  0  0
    4.1000   -6.0153   -0.7016 H   0  0  0  0  0  0  0  0  0  0  0  0
    5.6549   -4.6628   -2.3864 H   0  0  0  0  0  0  0  0  0  0  0  0
    4.0356   -3.8364   -2.6285 H   0  0  0  0  0  0  0  0  0  0  0  0
    5.9806   -2.6139   -1.0157 H   0  0  0  0  0  0  0  0  0  0  0  0
    1.8098   -1.7139    4.6831 H   0  0  0  0  0  0  0  0  0  0  0  0
   -1.5398   -1.2671    4.8803 H   0  0  0  0  0  0  0  0  0  0  0  0
    3.6951    1.4334    2.7851 H   0  0  0  0  0  0  0  0  0  0  0  0
    0.8991    1.5229    1.6921 H   0  0  0  0  0  0  0  0  0  0  0  0
    2.4349    1.7013    0.9362 H   0  0  0  0  0  0  0  0  0  0  0  0
    1.8539    2.9894    2.0407 H   0  0  0  0  0  0  0  0  0  0  0  0
  1  2  1  0
  1 61  1  0
  1 62  1  0
  1 63  1  0
  2  3  1  0
  3  8  1  0
  3  4  1  0
  3 64  1  1
  4  5  1  0
  5  6  1  0
  5 65  1  0
  5 66  1  0
  6  7  1  0
  6  8  1  0
  6 67  1  6
  7 68  1  0
  8  9  1  0
  8 69  1  6
  9 10  1  0
 10 57  1  0
 10 11  1  0
 10 70  1  6
 11 26  1  0
 11 33  1  0
 11 12  1  1
 12 16  1  0
 12 13  1  0
 12 71  1  1
 13 14  1  0
 13 72  1  0
 13 73  1  0
 14 15  1  0
 14 74  1  0
 14 75  1  0
 15 18  1  0
 15 16  1  0
 15 17  1  1
 17 18  1  0
 18 19  1  0
 18 76  1  6
 19 20  1  0
 19 21  1  0
 19 22  1  0
 22 24  1  0
 22 57  1  0
 22 23  1  6
 24 23  1  6
 24 25  1  0
 24 34  1  0
 25 26  1  0
 26 27  1  0
 26 77  1  1
 27 28  1  0
 28 29  1  0
 28 78  1  0
 28 79  1  0
 29 33  1  0
 29 30  1  1
 29 32  1  0
 30 31  1  0
 30 80  1  0
 30 81  1  0
 31 82  1  0
 32 33  1  0
 33 83  1  1
 34 59  1  0
 34 35  1  1
 34 36  1  0
 35 84  1  0
 36 55  1  0
 36 37  1  0
 36 85  1  1
 37 38  1  0
 38 54  1  0
 38 39  1  1
 38 41  1  0
 39 40  1  0
 39 86  1  0
 39 87  1  0
 40 88  1  0
 41 42  1  0
 42 46  1  0
 42 43  1  6
 42 44  1  0
 43 89  1  0
 43 90  1  0
 43 91  1  0
 44 45  1  0
 45 46  1  0
 45 53  1  0
 45 92  1  6
 46 47  1  0
 46 93  1  1
 47 51  1  0
 47 48  1  0
 47 94  1  6
 48 49  1  0
 49 52  1  0
 49 50  1  0
 49 95  1  6
 50 51  1  0
 50 96  1  0
 50 97  1  0
 51 52  1  0
 51 98  1  6
 53 54  1  1
 53 55  1  0
 53 59  1  0
 55 56  1  0
 55 99  1  1
 56 57  1  0
 57 58  1  1
 58100  1  0
 59 60  1  0
 59101  1  6
 60102  1  0
 60103  1  0
 60104  1  0
M  END
>  <i_m_ct_stereo_status>  (6) 
1

>  <s_m_source_file>  (6) 
/var/tmp/pbs.5076253.sched01/tmpsnpm1fw8/0c_pn72ob.sdf

>  <i_m_source_file_index>  (6) 
10

>  <i_lp_mmshare_version>  (6) 
48012

>  <i_f3d_flags>  (6) 
0

>  <s_epik_input>  (6) 
W0NIM11PW0NAQEhdMU9bQ0gyXVtDQEBIXShbT0hdKVtDQEhdMU9bQ0BIXTJbQ0BdMyhbT0hdKU9bQ0BASF0oW0NAXTQoW0NASF01W0NIM10pW0NASF02T1tDQEBdKFtDSDNdKShPW0NAQF0oTzcpKE80KVtDSDJdW09IXSlbQ0BASF02W0NASF0oT1tDQEBIXTg5KVtDQEBIXShPOSlbQ0gyXTgpW0NAQEhdN1tDQF01KFtPSF0pW0NAQF0oTzEpKEMxM0MoRikoRilbQ0BIXShPMSlbQ0BdMShPMSlbQ0gyXVtDSDJdW0NAQEhdMVtDQF0xMjMpT1tDQEBIXTFPW0NIMl1bQ0BdMShbQ0BASF0zTzEpW0NIMl1bT0hd

>  <s_epik_cmdline>  (6) 
J2VwaWtfcHl0aG9uJywgJy1waHQnLCAnMi4wJywgJy1waCcsICc3LjAnLCAnLXRuJywgJzgnLCAnLW1hJywgJzIwMCcsICctaW1hZScsICc8aW5maWxlLm1hZT4nLCAnLW9tYWUnLCAnPG91dGZpbGUubWFlPic=

>  <r_epik_Ionization_Penalty>  (6) 
0.00809233

>  <r_epik_Ionization_Penalty_Charging>  (6) 
0

>  <r_epik_Ionization_Penalty_Neutral>  (6) 
0.00809233

>  <r_epik_State_Penalty>  (6) 
0.00604842

>  <r_epik_Charging_Adjusted_Penalty>  (6) 
0.00604842

>  <i_epik_Tot_Q>  (6) 
0

>  <i_epik_Tot_abs_Q>  (6) 
0

>  <s_epik_Chemistry_Notes>  (6) 
This compound contains an acetal/aminal-like group ( X-CH(R)-Y where X, Y are N, S, or O) that may be acid/base labile, releasing an aldehyde.

>  <s_lp_Force_Field>  (6) 
OPLS3e

>  <r_lp_Energy>  (6) 
231.75

>  <b_lp_Chiralities_Consistent>  (6) 
1

>  <s_lp_Variant>  (6) 
6:0-1

>  <s_i_glide_gridfile>  (6) 
pfpi4k_grid

>  <i_i_glide_lignum>  (6) 
10

>  <i_i_glide_rotatable_bonds>  (6) 
11

>  <r_i_docking_score>  (6) 
-1.50209

>  <r_i_glide_ligand_efficiency>  (6) 
-0.0250349

>  <r_i_glide_ligand_efficiency_sa>  (6) 
-0.0980083

>  <r_i_glide_ligand_efficiency_ln>  (6) 
-0.294855

>  <r_i_glide_gscore>  (6) 
-1.50209

>  <r_i_glide_lipo>  (6) 
-0.245894

>  <r_i_glide_hbond>  (6) 
-0.150124

>  <r_i_glide_metal>  (6) 
-0

>  <r_i_glide_rewards>  (6) 
-0.335467

>  <r_i_glide_evdw>  (6) 
-11.0128

>  <r_i_glide_ecoul>  (6) 
-6.30557

>  <r_i_glide_erotb>  (6) 
0.147488

>  <r_i_glide_esite>  (6) 
-0.206098

>  <r_i_glide_emodel>  (6) 
-8.99784

>  <r_i_glide_energy>  (6) 
-17.3184

>  <r_i_glide_einternal>  (6) 
13.9929

>  <r_i_glide_intrahb_reward>  (6) 
-0

>  <i_i_glide_confnum>  (6) 
1

>  <i_i_glide_posenum>  (6) 
12

>  <r_i_glide_eff_state_penalty>  (6) 
0

>  <ligand_id>  (6) 
6

>  <original_smiles>  (6) 
COC1OCC(O)C1OC1C23C4CCC5(O4)OC5C(F)(F)C45OC4(OC2OCC2(CO)OC23)C2(O)C3OC4(CO)OC6(C)OC(C6C6OC7CC6O7)C(O4)(C3OC15O)C2C

>  <smiles>  (6) 
[H]OC([H])([H])C12OC3([H])C4([H])OC5(O[H])C([H])(OC6([H])C([H])(OC([H])([H])[H])OC([H])([H])C6([H])O[H])C67C([H])(OC([H])([H])C8(C([H])([H])O[H])OC86[H])OC6(OC56C(F)(F)C5([H])OC56OC7([H])C([H])([H])C6([H])[H])C3(O[H])C([H])(C([H])([H])[H])C4(O1)C1([H])OC(C([H])([H])[H])(O2)C1([H])C1([H])OC2([H])OC1([H])C2([H])[H]

$$$$
6:1:0
     RDKit          3D

103117  0  0  1  0  0  0  0  0999 V2000
    2.3016   -5.6710    0.6793 C   0  0  0  0  0  0  0  0  0  0  0  0
    1.1328   -5.8616    1.4746 O   0  0  0  0  0  0  0  0  0  0  0  0
    1.3243   -6.7898    2.4967 C   0  0  2  0  0  0  0  0  0  0  0  0
    1.1645   -8.0900    2.0183 O   0  0  0  0  0  0  0  0  0  0  0  0
   -0.0462   -8.6764    2.4862 C   0  0  0  0  0  0  0  0  0  0  0  0
   -0.8436   -7.5171    3.0551 C   0  0  1  0  0  0  0  0  0  0  0  0
   -1.8013   -7.9032    4.0179 O   0  0  0  0  0  0  0  0  0  0  0  0
    0.2356   -6.5763    3.5735 C   0  0  1  0  0  0  0  0  0  0  0  0
    0.7003   -7.0060    4.8507 O   0  0  0  0  0  0  0  0  0  0  0  0
    1.6611   -6.1871    5.5423 C   0  0  2  0  0  0  0  0  0  0  0  0
    2.4290   -7.1436    6.5503 C   0  0  2  0  0  0  0  0  0  0  0  0
    1.6833   -7.2309    7.9310 C   0  0  1  0  0  0  0  0  0  0  0  0
    1.5372   -8.4369    8.8808 C   0  0  0  0  0  0  0  0  0  0  0  0
    0.8758   -7.7403   10.1016 C   0  0  0  0  0  0  0  0  0  0  0  0
    1.2184   -6.2885    9.8269 C   0  0  2  0  0  0  0  0  0  0  0  0
    2.2066   -6.3191    8.8782 O   0  0  0  0  0  0  0  0  0  0  0  0
    1.0912   -5.2046   10.7308 O   0  0  0  0  0  0  0  0  0  0  0  0
    0.3451   -5.0785    9.4935 C   0  0  1  0  0  0  0  0  0  0  0  0
    0.7865   -3.8623    8.6106 C   0  0  0  0  0  0  0  0  0  0  0  0
   -0.3107   -3.1771    8.2607 F   0  0  0  0  0  0  0  0  0  0  0  0
    1.4246   -3.0465    9.4460 F   0  0  0  0  0  0  0  0  0  0  0  0
    1.7258   -4.2040    7.3980 C   0  0  2  0  0  0  0  0  0  0  0  0
    3.0592   -4.0945    8.0797 O   0  0  0  0  0  0  0  0  0  0  0  0
    3.1839   -4.0525    6.7790 C   0  0  1  0  0  0  0  0  0  0  0  0
    3.9332   -5.1875    6.3059 O   0  0  0  0  0  0  0  0  0  0  0  0
    3.8603   -6.5036    6.7805 C   0  0  2  0  0  0  0  0  0  0  0  0
    4.8608   -7.2051    6.1094 O   0  0  0  0  0  0  0  0  0  0  0  0
    5.0242   -8.5800    6.4399 C   0  0  0  0  0  0  0  0  0  0  0  0
    3.7871   -9.2969    5.9823 C   0  0  2  0  0  0  0  0  0  0  0  0
    3.8421  -10.8097    6.0725 C   0  0  0  0  0  0  0  0  0  0  0  0
    3.8065  -11.2227    7.4244 O   0  0  0  0  0  0  0  0  0  0  0  0
    3.2337   -8.7685    4.7648 O   0  0  0  0  0  0  0  0  0  0  0  0
    2.4958   -8.5599    5.9719 C   0  0  2  0  0  0  0  0  0  0  0  0
    3.6712   -2.8573    5.9485 C   0  0  1  0  0  0  0  0  0  0  0  0
    5.0270   -2.6646    6.3018 O   0  0  0  0  0  0  0  0  0  0  0  0
    3.4872   -3.2542    4.4947 C   0  0  2  0  0  0  0  0  0  0  0  0
    4.2761   -2.2426    3.7349 O   0  0  0  0  0  0  0  0  0  0  0  0
    3.5637   -1.2043    3.0898 C   0  0  2  0  0  0  0  0  0  0  0  0
    3.9460   -1.2424    1.5994 C   0  0  0  0  0  0  0  0  0  0  0  0
    3.2470   -0.3012    0.8150 O   0  0  0  0  0  0  0  0  0  0  0  0
    3.7084    0.1203    3.5446 O   0  0  0  0  0  0  0  0  0  0  0  0
    2.5005    0.9578    3.7494 C   0  0  2  0  0  0  0  0  0  0  0  0
    2.9890    2.3984    3.6191 C   0  0  0  0  0  0  0  0  0  0  0  0
    1.8817    0.7069    5.0417 O   0  0  0  0  0  0  0  0  0  0  0  0
    1.0468   -0.3398    4.4321 C   0  0  1  0  0  0  0  0  0  0  0  0
    1.0967    0.5729    3.1559 C   0  0  1  0  0  0  0  0  0  0  0  0
    0.0718    1.7071    2.9817 C   0  0  2  0  0  0  0  0  0  0  0  0
   -0.1502    2.4830    4.1647 O   0  0  0  0  0  0  0  0  0  0  0  0
   -1.5319    2.2498    4.3816 C   0  0  1  0  0  0  0  0  0  0  0  0
   -2.2284    2.5324    3.0397 C   0  0  0  0  0  0  0  0  0  0  0  0
   -1.3768    1.2962    2.7963 C   0  0  2  0  0  0  0  0  0  0  0  0
   -1.7527    0.8646    4.1202 O   0  0  0  0  0  0  0  0  0  0  0  0
    1.9470   -1.6011    4.6208 C   0  0  2  0  0  0  0  0  0  0  0  0
    2.3039   -1.5525    3.2392 O   0  0  0  0  0  0  0  0  0  0  0  0
    1.8972   -3.1271    4.3262 C   0  0  2  0  0  0  0  0  0  0  0  0
    0.9075   -3.7309    5.2013 O   0  0  0  0  0  0  0  0  0  0  0  0
    1.0612   -4.8308    6.1320 C   0  0  1  0  0  0  0  0  0  0  0  0
   -0.1656   -5.1735    6.4861 O   0  0  0  0  0  0  0  0  0  0  0  0
    2.8958   -1.5312    5.9084 C   0  0  1  0  0  0  0  0  0  0  0  0
    2.1911   -1.1302    7.2172 C   0  0  0  0  0  0  0  0  0  0  0  0
    2.1087   -4.9947   -0.1556 H   0  0  0  0  0  0  0  0  0  0  0  0
    2.6734   -6.6101    0.2723 H   0  0  0  0  0  0  0  0  0  0  0  0
    3.1050   -5.2316    1.2722 H   0  0  0  0  0  0  0  0  0  0  0  0
    2.3362   -6.6859    2.8827 H   0  0  0  0  0  0  0  0  0  0  0  0
   -0.5875   -9.1903    1.6936 H   0  0  0  0  0  0  0  0  0  0  0  0
    0.1873   -9.3985    3.2689 H   0  0  0  0  0  0  0  0  0  0  0  0
   -1.3771   -7.0390    2.2344 H   0  0  0  0  0  0  0  0  0  0  0  0
   -1.5141   -8.7115    4.4303 H   0  0  0  0  0  0  0  0  0  0  0  0
   -0.1041   -5.5416    3.6126 H   0  0  0  0  0  0  0  0  0  0  0  0
    2.3803   -5.8966    4.7819 H   0  0  0  0  0  0  0  0  0  0  0  0
    0.6389   -7.0421    7.6914 H   0  0  0  0  0  0  0  0  0  0  0  0
    0.9408   -9.2570    8.4846 H   0  0  0  0  0  0  0  0  0  0  0  0
    2.5184   -8.8223    9.1609 H   0  0  0  0  0  0  0  0  0  0  0  0
   -0.1956   -7.8851   10.1518 H   0  0  0  0  0  0  0  0  0  0  0  0
    1.3233   -8.0667   11.0412 H   0  0  0  0  0  0  0  0  0  0  0  0
   -0.7244   -5.2254    9.5936 H   0  0  0  0  0  0  0  0  0  0  0  0
    4.1794   -6.4966    7.8198 H   0  0  0  0  0  0  0  0  0  0  0  0
    5.9006   -8.9741    5.9322 H   0  0  0  0  0  0  0  0  0  0  0  0
    5.1503   -8.7192    7.5133 H   0  0  0  0  0  0  0  0  0  0  0  0
    2.9733  -11.2412    5.5698 H   0  0  0  0  0  0  0  0  0  0  0  0
    4.7322  -11.1909    5.5724 H   0  0  0  0  0  0  0  0  0  0  0  0
    2.9349  -11.5800    7.6073 H   0  0  0  0  0  0  0  0  0  0  0  0
    1.5736   -9.1284    6.0052 H   0  0  0  0  0  0  0  0  0  0  0  0
    5.0472   -2.4762    7.2298 H   0  0  0  0  0  0  0  0  0  0  0  0
    3.8686   -4.2346    4.2236 H   0  0  0  0  0  0  0  0  0  0  0  0
    5.0105   -1.0168    1.5197 H   0  0  0  0  0  0  0  0  0  0  0  0
    3.7762   -2.2418    1.1941 H   0  0  0  0  0  0  0  0  0  0  0  0
    2.3781   -0.6353    0.6174 H   0  0  0  0  0  0  0  0  0  0  0  0
    3.9064    2.5631    4.1889 H   0  0  0  0  0  0  0  0  0  0  0  0
    2.2530    3.1265    3.9642 H   0  0  0  0  0  0  0  0  0  0  0  0
    3.1961    2.6377    2.5725 H   0  0  0  0  0  0  0  0  0  0  0  0
    0.0719   -0.4200    4.9044 H   0  0  0  0  0  0  0  0  0  0  0  0
    1.1510    0.0287    2.2157 H   0  0  0  0  0  0  0  0  0  0  0  0
    0.3827    2.3643    2.1664 H   0  0  0  0  0  0  0  0  0  0  0  0
   -2.0005    2.6474    5.2842 H   0  0  0  0  0  0  0  0  0  0  0  0
   -3.3069    2.3762    3.0549 H   0  0  0  0  0  0  0  0  0  0  0  0
   -1.9021    3.4321    2.5145 H   0  0  0  0  0  0  0  0  0  0  0  0
   -1.6678    0.6406    1.9756 H   0  0  0  0  0  0  0  0  0  0  0  0
    1.6014   -3.4812    3.3251 H   0  0  0  0  0  0  0  0  0  0  0  0
    3.6515   -0.7600    5.7688 H   0  0  0  0  0  0  0  0  0  0  0  0
    1.1928   -1.5601    7.2710 H   0  0  0  0  0  0  0  0  0  0  0  0
    2.0697   -0.0498    7.2967 H   0  0  0  0  0  0  0  0  0  0  0  0
    2.7680   -1.4379    8.0882 H   0  0  0  0  0  0  0  0  0  0  0  0
  1  2  1  0
  1 61  1  0
  1 62  1  0
  1 63  1  0
  2  3  1  0
  3  8  1  0
  3  4  1  0
  3 64  1  1
  4  5  1  0
  5  6  1  0
  5 65  1  0
  5 66  1  0
  6  7  1  0
  6  8  1  0
  6 67  1  6
  7 68  1  0
  8  9  1  0
  8 69  1  1
  9 10  1  0
 10 57  1  0
 10 11  1  0
 10 70  1  6
 11 26  1  0
 11 33  1  0
 11 12  1  1
 12 16  1  0
 12 13  1  0
 12 71  1  6
 13 14  1  0
 13 72  1  0
 13 73  1  0
 14 15  1  0
 14 74  1  0
 14 75  1  0
 15 18  1  0
 15 16  1  0
 15 17  1  1
 17 18  1  0
 18 19  1  0
 18 76  1  1
 19 20  1  0
 19 21  1  0
 19 22  1  0
 22 24  1  0
 22 57  1  0
 22 23  1  1
 24 23  1  1
 24 25  1  0
 24 34  1  0
 25 26  1  0
 26 27  1  0
 26 77  1  1
 27 28  1  0
 28 29  1  0
 28 78  1  0
 28 79  1  0
 29 33  1  0
 29 30  1  6
 29 32  1  0
 30 31  1  0
 30 80  1  0
 30 81  1  0
 31 82  1  0
 32 33  1  0
 33 83  1  6
 34 59  1  0
 34 35  1  6
 34 36  1  0
 35 84  1  0
 36 55  1  0
 36 37  1  0
 36 85  1  1
 37 38  1  0
 38 54  1  0
 38 39  1  6
 38 41  1  0
 39 40  1  0
 39 86  1  0
 39 87  1  0
 40 88  1  0
 41 42  1  0
 42 46  1  0
 42 43  1  1
 42 44  1  0
 43 89  1  0
 43 90  1  0
 43 91  1  0
 44 45  1  0
 45 46  1  0
 45 53  1  0
 45 92  1  1
 46 47  1  0
 46 93  1  6
 47 51  1  0
 47 48  1  0
 47 94  1  6
 48 49  1  0
 49 52  1  0
 49 50  1  0
 49 95  1  1
 50 51  1  0
 50 96  1  0
 50 97  1  0
 51 52  1  0
 51 98  1  6
 53 54  1  6
 53 55  1  0
 53 59  1  0
 55 56  1  0
 55 99  1  6
 56 57  1  0
 57 58  1  1
 59 60  1  0
 59100  1  6
 60101  1  0
 60102  1  0
 60103  1  0
M  CHG  1  58  -1
M  END
>  <i_m_ct_stereo_status>  (7) 
1

>  <s_m_source_file>  (7) 
/var/tmp/pbs.5076253.sched01/tmpsnpm1fw8/0c_pn72ob.sdf

>  <i_m_source_file_index>  (7) 
11

>  <i_lp_mmshare_version>  (7) 
48012

>  <i_f3d_flags>  (7) 
0

>  <s_epik_input>  (7) 
W0NIM11PW0NAQEhdMU9bQ0gyXVtDQEBIXShbT0hdKVtDQEhdMU9bQ0BIXTJbQ0BdMyhbT0hdKU9bQ0BASF0oW0NAXTQoW0NASF01W0NIM10pW0NASF02T1tDQEBdKFtDSDNdKShPW0NAQF0oTzcpKE80KVtDSDJdW09IXSlbQ0BASF02W0NASF0oT1tDQEBIXTg5KVtDQEBIXShPOSlbQ0gyXTgpW0NAQEhdN1tDQF01KFtPSF0pW0NAQF0oTzEpKEMxM0MoRikoRilbQ0BIXShPMSlbQ0BdMShPMSlbQ0gyXVtDSDJdW0NAQEhdMVtDQF0xMjMpT1tDQEBIXTFPW0NIMl1bQ0BdMShbQ0BASF0zTzEpW0NIMl1bT0hd

>  <s_epik_cmdline>  (7) 
J2VwaWtfcHl0aG9uJywgJy1waHQnLCAnMi4wJywgJy1waCcsICc3LjAnLCAnLXRuJywgJzgnLCAnLW1hJywgJzIwMCcsICctaW1hZScsICc8aW5maWxlLm1hZT4nLCAnLW9tYWUnLCAnPG91dGZpbGUubWFlPic=

>  <r_epik_Ionization_Penalty>  (7) 
2.55074

>  <r_epik_Ionization_Penalty_Charging>  (7) 
2.55073

>  <r_epik_Ionization_Penalty_Neutral>  (7) 
1.13759e-05

>  <r_epik_State_Penalty>  (7) 
2.71929

>  <r_epik_Charging_Adjusted_Penalty>  (7) 
5.27002

>  <i_epik_Tot_Q>  (7) 
-1

>  <i_epik_Tot_abs_Q>  (7) 
1

>  <s_epik_Chemistry_Notes>  (7) 
This compound contains an acetal/aminal-like group ( X-CH(R)-Y where X, Y are N, S, or O) that may be acid/base labile, releasing an aldehyde.

>  <s_lp_Force_Field>  (7) 
OPLS3e

>  <r_lp_Energy>  (7) 
282.683

>  <b_lp_Chiralities_Consistent>  (7) 
1

>  <s_lp_Variant>  (7) 
6:0-2

>  <s_i_glide_gridfile>  (7) 
pfpi4k_grid

>  <i_i_glide_lignum>  (7) 
11

>  <i_i_glide_rotatable_bonds>  (7) 
10

>  <r_i_docking_score>  (7) 
-3.13712

>  <r_i_glide_ligand_efficiency>  (7) 
-0.0522853

>  <r_i_glide_ligand_efficiency_sa>  (7) 
-0.20469

>  <r_i_glide_ligand_efficiency_ln>  (7) 
-0.615805

>  <r_i_glide_gscore>  (7) 
-3.13712

>  <r_i_glide_lipo>  (7) 
-0.00487089

>  <r_i_glide_hbond>  (7) 
-0.295154

>  <r_i_glide_metal>  (7) 
-0

>  <r_i_glide_rewards>  (7) 
-0.00110365

>  <r_i_glide_evdw>  (7) 
-29.2391

>  <r_i_glide_ecoul>  (7) 
-9.29883

>  <r_i_glide_erotb>  (7) 
0.147815

>  <r_i_glide_esite>  (7) 
-0.127028

>  <r_i_glide_emodel>  (7) 
-43.9973

>  <r_i_glide_energy>  (7) 
-38.5379

>  <r_i_glide_einternal>  (7) 
8.08564

>  <r_i_glide_intrahb_reward>  (7) 
-0

>  <i_i_glide_confnum>  (7) 
1

>  <i_i_glide_posenum>  (7) 
25

>  <r_i_glide_eff_state_penalty>  (7) 
0

>  <ligand_id>  (7) 
6

>  <original_smiles>  (7) 
COC1OCC(O)C1OC1C23C4CCC5(O4)OC5C(F)(F)C45OC4(OC2OCC2(CO)OC23)C2(O)C3OC4(CO)OC6(C)OC(C6C6OC7CC6O7)C(O4)(C3OC15O)C2C

>  <smiles>  (7) 
[H]OC([H])([H])C12OC3([H])C4([H])OC5([O-])C([H])(OC6([H])C([H])(OC([H])([H])[H])OC([H])([H])C6([H])O[H])C67C([H])(OC([H])([H])C8(C([H])([H])O[H])OC86[H])OC6(OC56C(F)(F)C5([H])OC56OC7([H])C([H])([H])C6([H])[H])C3(O[H])C([H])(C([H])([H])[H])C4(O1)C1([H])OC(C([H])([H])[H])(O2)C1([H])C1([H])OC2([H])OC1([H])C2([H])[H]

$$$$
6:1:1
     RDKit          3D

103117  0  0  1  0  0  0  0  0999 V2000
    2.4240   -5.6932    0.6550 C   0  0  0  0  0  0  0  0  0  0  0  0
    1.2310   -5.8541    1.4200 O   0  0  0  0  0  0  0  0  0  0  0  0
    1.3788   -6.7792    2.4605 C   0  0  2  0  0  0  0  0  0  0  0  0
    1.1703   -8.0784    2.0022 O   0  0  0  0  0  0  0  0  0  0  0  0
   -0.0714   -8.6089    2.4676 C   0  0  0  0  0  0  0  0  0  0  0  0
   -0.8231   -7.4045    3.0067 C   0  0  1  0  0  0  0  0  0  0  0  0
   -1.8016   -7.7356    3.9661 O   0  0  0  0  0  0  0  0  0  0  0  0
    0.2878   -6.5045    3.5205 C   0  0  1  0  0  0  0  0  0  0  0  0
    0.7244   -6.9281    4.8099 O   0  0  0  0  0  0  0  0  0  0  0  0
    1.6728   -6.1006    5.5112 C   0  0  2  0  0  0  0  0  0  0  0  0
    2.4315   -7.0517    6.5333 C   0  0  2  0  0  0  0  0  0  0  0  0
    1.6618   -7.1499    7.9005 C   0  0  1  0  0  0  0  0  0  0  0  0
    1.5100   -8.3603    8.8454 C   0  0  0  0  0  0  0  0  0  0  0  0
    0.8196   -7.6754   10.0559 C   0  0  0  0  0  0  0  0  0  0  0  0
    1.1515   -6.2189    9.7908 C   0  0  2  0  0  0  0  0  0  0  0  0
    2.1567   -6.2370    8.8609 O   0  0  0  0  0  0  0  0  0  0  0  0
    0.9965   -5.1385   10.6938 O   0  0  0  0  0  0  0  0  0  0  0  0
    0.2744   -5.0166    9.4435 C   0  0  1  0  0  0  0  0  0  0  0  0
    0.7180   -3.7933    8.5724 C   0  0  0  0  0  0  0  0  0  0  0  0
   -0.3796   -3.1180    8.2047 F   0  0  0  0  0  0  0  0  0  0  0  0
    1.3310   -2.9729    9.4226 F   0  0  0  0  0  0  0  0  0  0  0  0
    1.6841   -4.1207    7.3755 C   0  0  2  0  0  0  0  0  0  0  0  0
    2.9991   -4.0116    8.0865 O   0  0  0  0  0  0  0  0  0  0  0  0
    3.1526   -3.9552    6.7883 C   0  0  1  0  0  0  0  0  0  0  0  0
    3.9147   -5.0825    6.3169 O   0  0  0  0  0  0  0  0  0  0  0  0
    3.8506   -6.3975    6.7912 C   0  0  2  0  0  0  0  0  0  0  0  0
    4.8719   -7.0887    6.1396 O   0  0  0  0  0  0  0  0  0  0  0  0
    5.0430   -8.4611    6.4692 C   0  0  0  0  0  0  0  0  0  0  0  0
    3.8214   -9.1894    5.9842 C   0  0  2  0  0  0  0  0  0  0  0  0
    3.8863  -10.7020    6.0740 C   0  0  0  0  0  0  0  0  0  0  0  0
    3.8093  -11.1118    7.4261 O   0  0  0  0  0  0  0  0  0  0  0  0
    3.2860   -8.6617    4.7578 O   0  0  0  0  0  0  0  0  0  0  0  0
    2.5253   -8.4641    5.9523 C   0  0  2  0  0  0  0  0  0  0  0  0
    3.6441   -2.7544    5.9759 C   0  0  1  0  0  0  0  0  0  0  0  0
    4.9933   -2.5579    6.3553 O   0  0  0  0  0  0  0  0  0  0  0  0
    3.4934   -3.1499    4.5161 C   0  0  2  0  0  0  0  0  0  0  0  0
    4.3066   -2.1311    3.7934 O   0  0  0  0  0  0  0  0  0  0  0  0
    3.6115   -1.0926    3.1256 C   0  0  2  0  0  0  0  0  0  0  0  0
    3.9898   -1.1064    1.6335 C   0  0  0  0  0  0  0  0  0  0  0  0
    5.3152   -0.6574    1.4169 O   0  0  0  0  0  0  0  0  0  0  0  0
    3.6946    0.2412    3.5747 O   0  0  0  0  0  0  0  0  0  0  0  0
    2.4741    1.0609    3.7553 C   0  0  2  0  0  0  0  0  0  0  0  0
    2.9489    2.5074    3.6404 C   0  0  0  0  0  0  0  0  0  0  0  0
    1.8327    0.7959    5.0329 O   0  0  0  0  0  0  0  0  0  0  0  0
    1.0279   -0.2593    4.4001 C   0  0  1  0  0  0  0  0  0  0  0  0
    1.0970    0.6620    3.1279 C   0  0  1  0  0  0  0  0  0  0  0  0
    0.0627    1.7898    2.9429 C   0  0  2  0  0  0  0  0  0  0  0  0
   -0.1772    2.5787    4.1156 O   0  0  0  0  0  0  0  0  0  0  0  0
   -1.5552    2.3185    4.3287 C   0  0  1  0  0  0  0  0  0  0  0  0
   -2.2513    2.5813    2.9852 C   0  0  0  0  0  0  0  0  0  0  0  0
   -1.3814    1.3579    2.7517 C   0  0  2  0  0  0  0  0  0  0  0  0
   -1.7616    0.9275    4.0778 O   0  0  0  0  0  0  0  0  0  0  0  0
    1.9434   -1.5059    4.6073 C   0  0  2  0  0  0  0  0  0  0  0  0
    2.3463   -1.4390    3.2404 O   0  0  0  0  0  0  0  0  0  0  0  0
    1.9070   -3.0301    4.3117 C   0  0  2  0  0  0  0  0  0  0  0  0
    0.9042   -3.6452    5.1649 O   0  0  0  0  0  0  0  0  0  0  0  0
    1.0517   -4.7487    6.0938 C   0  0  1  0  0  0  0  0  0  0  0  0
   -0.1774   -5.1078    6.4253 O   0  0  0  0  0  0  0  0  0  0  0  0
    2.8586   -1.4311    5.9186 C   0  0  1  0  0  0  0  0  0  0  0  0
    2.1215   -1.0419    7.2125 C   0  0  0  0  0  0  0  0  0  0  0  0
    2.2607   -5.0274   -0.1947 H   0  0  0  0  0  0  0  0  0  0  0  0
    2.8026   -6.6398    0.2710 H   0  0  0  0  0  0  0  0  0  0  0  0
    3.2124   -5.2486    1.2643 H   0  0  0  0  0  0  0  0  0  0  0  0
    2.3873   -6.7033    2.8645 H   0  0  0  0  0  0  0  0  0  0  0  0
   -0.6284   -9.1147    1.6837 H   0  0  0  0  0  0  0  0  0  0  0  0
    0.1301   -9.3224    3.2704 H   0  0  0  0  0  0  0  0  0  0  0  0
   -1.3317   -6.9207    2.1724 H   0  0  0  0  0  0  0  0  0  0  0  0
   -1.4498   -8.4218    4.5217 H   0  0  0  0  0  0  0  0  0  0  0  0
   -0.0075   -5.4553    3.5351 H   0  0  0  0  0  0  0  0  0  0  0  0
    2.3971   -5.8083    4.7559 H   0  0  0  0  0  0  0  0  0  0  0  0
    0.6204   -6.9708    7.6426 H   0  0  0  0  0  0  0  0  0  0  0  0
    0.9290   -9.1857    8.4364 H   0  0  0  0  0  0  0  0  0  0  0  0
    2.4899   -8.7362    9.1421 H   0  0  0  0  0  0  0  0  0  0  0  0
   -0.2518   -7.8323   10.0874 H   0  0  0  0  0  0  0  0  0  0  0  0
    1.2534   -7.9982   11.0025 H   0  0  0  0  0  0  0  0  0  0  0  0
   -0.7978   -5.1727    9.5237 H   0  0  0  0  0  0  0  0  0  0  0  0
    4.1507   -6.3873    7.8368 H   0  0  0  0  0  0  0  0  0  0  0  0
    5.9339   -8.8448    5.9772 H   0  0  0  0  0  0  0  0  0  0  0  0
    5.1493   -8.6026    7.5442 H   0  0  0  0  0  0  0  0  0  0  0  0
    3.0426  -11.1397    5.5325 H   0  0  0  0  0  0  0  0  0  0  0  0
    4.8001  -11.0717    5.6070 H   0  0  0  0  0  0  0  0  0  0  0  0
    2.9397  -11.4974    7.5705 H   0  0  0  0  0  0  0  0  0  0  0  0
    1.6072   -9.0426    5.9682 H   0  0  0  0  0  0  0  0  0  0  0  0
    5.3462   -1.8942    5.7844 H   0  0  0  0  0  0  0  0  0  0  0  0
    3.8804   -4.1297    4.2446 H   0  0  0  0  0  0  0  0  0  0  0  0
    3.8662   -2.1120    1.2257 H   0  0  0  0  0  0  0  0  0  0  0  0
    3.3138   -0.4430    1.0935 H   0  0  0  0  0  0  0  0  0  0  0  0
    5.4354   -0.5081    0.4902 H   0  0  0  0  0  0  0  0  0  0  0  0
    3.8523    2.6741    4.2288 H   0  0  0  0  0  0  0  0  0  0  0  0
    2.2022    3.2294    3.9755 H   0  0  0  0  0  0  0  0  0  0  0  0
    3.1764    2.7537    2.6006 H   0  0  0  0  0  0  0  0  0  0  0  0
    0.0484   -0.3558    4.8608 H   0  0  0  0  0  0  0  0  0  0  0  0
    1.2008    0.1313    2.1807 H   0  0  0  0  0  0  0  0  0  0  0  0
    0.3701    2.4474    2.1269 H   0  0  0  0  0  0  0  0  0  0  0  0
   -2.0455    2.7122    5.2221 H   0  0  0  0  0  0  0  0  0  0  0  0
   -3.3269    2.4187    2.9866 H   0  0  0  0  0  0  0  0  0  0  0  0
   -1.9306    3.4862    2.4670 H   0  0  0  0  0  0  0  0  0  0  0  0
   -1.6585    0.6930    1.9336 H   0  0  0  0  0  0  0  0  0  0  0  0
    1.6303   -3.3734    3.3017 H   0  0  0  0  0  0  0  0  0  0  0  0
    3.6047   -0.6477    5.7973 H   0  0  0  0  0  0  0  0  0  0  0  0
    1.1273   -1.4825    7.2485 H   0  0  0  0  0  0  0  0  0  0  0  0
    1.9883    0.0367    7.2949 H   0  0  0  0  0  0  0  0  0  0  0  0
    2.6871   -1.3480    8.0922 H   0  0  0  0  0  0  0  0  0  0  0  0
  1  2  1  0
  1 61  1  0
  1 62  1  0
  1 63  1  0
  2  3  1  0
  3  8  1  0
  3  4  1  0
  3 64  1  1
  4  5  1  0
  5  6  1  0
  5 65  1  0
  5 66  1  0
  6  7  1  0
  6  8  1  0
  6 67  1  6
  7 68  1  0
  8  9  1  0
  8 69  1  1
  9 10  1  0
 10 57  1  0
 10 11  1  0
 10 70  1  6
 11 26  1  0
 11 33  1  0
 11 12  1  1
 12 16  1  0
 12 13  1  0
 12 71  1  6
 13 14  1  0
 13 72  1  0
 13 73  1  0
 14 15  1  0
 14 74  1  0
 14 75  1  0
 15 18  1  0
 15 16  1  0
 15 17  1  1
 17 18  1  0
 18 19  1  0
 18 76  1  1
 19 20  1  0
 19 21  1  0
 19 22  1  0
 22 24  1  0
 22 57  1  0
 22 23  1  1
 24 23  1  1
 24 25  1  0
 24 34  1  0
 25 26  1  0
 26 27  1  0
 26 77  1  1
 27 28  1  0
 28 29  1  0
 28 78  1  0
 28 79  1  0
 29 33  1  0
 29 30  1  6
 29 32  1  0
 30 31  1  0
 30 80  1  0
 30 81  1  0
 31 82  1  0
 32 33  1  0
 33 83  1  6
 34 59  1  0
 34 35  1  1
 34 36  1  0
 35 84  1  0
 36 55  1  0
 36 37  1  0
 36 85  1  1
 37 38  1  0
 38 54  1  0
 38 39  1  6
 38 41  1  0
 39 40  1  0
 39 86  1  0
 39 87  1  0
 40 88  1  0
 41 42  1  0
 42 46  1  0
 42 43  1  1
 42 44  1  0
 43 89  1  0
 43 90  1  0
 43 91  1  0
 44 45  1  0
 45 46  1  0
 45 53  1  0
 45 92  1  1
 46 47  1  0
 46 93  1  6
 47 51  1  0
 47 48  1  0
 47 94  1  6
 48 49  1  0
 49 52  1  0
 49 50  1  0
 49 95  1  1
 50 51  1  0
 50 96  1  0
 50 97  1  0
 51 52  1  0
 51 98  1  6
 53 54  1  6
 53 55  1  0
 53 59  1  0
 55 56  1  0
 55 99  1  6
 56 57  1  0
 57 58  1  1
 59 60  1  0
 59100  1  6
 60101  1  0
 60102  1  0
 60103  1  0
M  CHG  1  58  -1
M  END
>  <i_m_ct_stereo_status>  (8) 
1

>  <s_m_source_file>  (8) 
/var/tmp/pbs.5076253.sched01/tmpsnpm1fw8/0c_pn72ob.sdf

>  <i_m_source_file_index>  (8) 
11

>  <i_lp_mmshare_version>  (8) 
48012

>  <i_f3d_flags>  (8) 
0

>  <s_epik_input>  (8) 
W0NIM11PW0NAQEhdMU9bQ0gyXVtDQEBIXShbT0hdKVtDQEhdMU9bQ0BIXTJbQ0BdMyhbT0hdKU9bQ0BASF0oW0NAXTQoW0NASF01W0NIM10pW0NASF02T1tDQEBdKFtDSDNdKShPW0NAQF0oTzcpKE80KVtDSDJdW09IXSlbQ0BASF02W0NASF0oT1tDQEBIXTg5KVtDQEBIXShPOSlbQ0gyXTgpW0NAQEhdN1tDQF01KFtPSF0pW0NAQF0oTzEpKEMxM0MoRikoRilbQ0BIXShPMSlbQ0BdMShPMSlbQ0gyXVtDSDJdW0NAQEhdMVtDQF0xMjMpT1tDQEBIXTFPW0NIMl1bQ0BdMShbQ0BASF0zTzEpW0NIMl1bT0hd

>  <s_epik_cmdline>  (8) 
J2VwaWtfcHl0aG9uJywgJy1waHQnLCAnMi4wJywgJy1waCcsICc3LjAnLCAnLXRuJywgJzgnLCAnLW1hJywgJzIwMCcsICctaW1hZScsICc8aW5maWxlLm1hZT4nLCAnLW9tYWUnLCAnPG91dGZpbGUubWFlPic=

>  <r_epik_Ionization_Penalty>  (8) 
2.55074

>  <r_epik_Ionization_Penalty_Charging>  (8) 
2.55073

>  <r_epik_Ionization_Penalty_Neutral>  (8) 
1.13759e-05

>  <r_epik_State_Penalty>  (8) 
2.71929

>  <r_epik_Charging_Adjusted_Penalty>  (8) 
5.27002

>  <i_epik_Tot_Q>  (8) 
-1

>  <i_epik_Tot_abs_Q>  (8) 
1

>  <s_epik_Chemistry_Notes>  (8) 
This compound contains an acetal/aminal-like group ( X-CH(R)-Y where X, Y are N, S, or O) that may be acid/base labile, releasing an aldehyde.

>  <s_lp_Force_Field>  (8) 
OPLS3e

>  <r_lp_Energy>  (8) 
282.683

>  <b_lp_Chiralities_Consistent>  (8) 
1

>  <s_lp_Variant>  (8) 
6:0-2

>  <s_i_glide_gridfile>  (8) 
pfpi4k_grid

>  <i_i_glide_lignum>  (8) 
11

>  <i_i_glide_rotatable_bonds>  (8) 
10

>  <r_i_docking_score>  (8) 
-2.92684

>  <r_i_glide_ligand_efficiency>  (8) 
-0.0487806

>  <r_i_glide_ligand_efficiency_sa>  (8) 
-0.19097

>  <r_i_glide_ligand_efficiency_ln>  (8) 
-0.574526

>  <r_i_glide_gscore>  (8) 
-2.92684

>  <r_i_glide_lipo>  (8) 
-0.00434662

>  <r_i_glide_hbond>  (8) 
-0.303139

>  <r_i_glide_metal>  (8) 
-0

>  <r_i_glide_rewards>  (8) 
-0.0045489

>  <r_i_glide_evdw>  (8) 
-30.7573

>  <r_i_glide_ecoul>  (8) 
-7.27197

>  <r_i_glide_erotb>  (8) 
0.147815

>  <r_i_glide_esite>  (8) 
-0.133954

>  <r_i_glide_emodel>  (8) 
-44.3664

>  <r_i_glide_energy>  (8) 
-38.0293

>  <r_i_glide_einternal>  (8) 
5.03565

>  <r_i_glide_intrahb_reward>  (8) 
-0

>  <i_i_glide_confnum>  (8) 
1

>  <i_i_glide_posenum>  (8) 
1

>  <r_i_glide_eff_state_penalty>  (8) 
0

>  <ligand_id>  (8) 
6

>  <original_smiles>  (8) 
COC1OCC(O)C1OC1C23C4CCC5(O4)OC5C(F)(F)C45OC4(OC2OCC2(CO)OC23)C2(O)C3OC4(CO)OC6(C)OC(C6C6OC7CC6O7)C(O4)(C3OC15O)C2C

>  <smiles>  (8) 
[H]OC([H])([H])C12OC3([H])C4([H])OC5([O-])C([H])(OC6([H])C([H])(OC([H])([H])[H])OC([H])([H])C6([H])O[H])C67C([H])(OC([H])([H])C8(C([H])([H])O[H])OC86[H])OC6(OC56C(F)(F)C5([H])OC56OC7([H])C([H])([H])C6([H])[H])C3(O[H])C([H])(C([H])([H])[H])C4(O1)C1([H])OC(C([H])([H])[H])(O2)C1([H])C1([H])OC2([H])OC1([H])C2([H])[H]

$$$$
6:1:2
     RDKit          3D

103117  0  0  1  0  0  0  0  0999 V2000
    5.4248   -1.0278    1.3216 C   0  0  0  0  0  0  0  0  0  0  0  0
    4.2321   -1.8039    1.2892 O   0  0  0  0  0  0  0  0  0  0  0  0
    4.4646   -3.1769    1.2419 C   0  0  2  0  0  0  0  0  0  0  0  0
    5.0442   -3.5464    0.0196 O   0  0  0  0  0  0  0  0  0  0  0  0
    4.1075   -4.2213   -0.8075 C   0  0  0  0  0  0  0  0  0  0  0  0
    2.7461   -4.0172   -0.1407 C   0  0  1  0  0  0  0  0  0  0  0  0
    1.8079   -5.0443   -0.3964 O   0  0  0  0  0  0  0  0  0  0  0  0
    3.1135   -3.9121    1.3277 C   0  0  1  0  0  0  0  0  0  0  0  0
    3.2989   -5.2204    1.8718 O   0  0  0  0  0  0  0  0  0  0  0  0
    3.3152   -5.3631    3.3043 C   0  0  2  0  0  0  0  0  0  0  0  0
    4.0141   -6.7591    3.6208 C   0  0  2  0  0  0  0  0  0  0  0  0
    2.9766   -7.9424    3.6070 C   0  0  1  0  0  0  0  0  0  0  0  0
    3.1660   -9.3980    3.1295 C   0  0  0  0  0  0  0  0  0  0  0  0
    1.8182  -10.0191    3.5975 C   0  0  0  0  0  0  0  0  0  0  0  0
    1.3830   -9.0027    4.6348 C   0  0  2  0  0  0  0  0  0  0  0  0
    2.4941   -8.2491    4.9030 O   0  0  0  0  0  0  0  0  0  0  0  0
    0.3437   -9.1478    5.5911 O   0  0  0  0  0  0  0  0  0  0  0  0
    0.1988   -8.0324    4.6703 C   0  0  1  0  0  0  0  0  0  0  0  0
    0.1939   -6.6409    5.3794 C   0  0  0  0  0  0  0  0  0  0  0  0
   -0.8533   -5.9395    4.9305 F   0  0  0  0  0  0  0  0  0  0  0  0
   -0.1085   -6.8946    6.6509 F   0  0  0  0  0  0  0  0  0  0  0  0
    1.5492   -5.8458    5.3177 C   0  0  2  0  0  0  0  0  0  0  0  0
    2.2102   -6.3792    6.5564 O   0  0  0  0  0  0  0  0  0  0  0  0
    2.7761   -5.2699    6.1524 C   0  0  1  0  0  0  0  0  0  0  0  0
    4.1357   -5.5191    5.7587 O   0  0  0  0  0  0  0  0  0  0  0  0
    4.6266   -6.6381    5.0784 C   0  0  2  0  0  0  0  0  0  0  0  0
    6.0169   -6.5019    5.0557 O   0  0  0  0  0  0  0  0  0  0  0  0
    6.7630   -7.5364    4.4334 C   0  0  0  0  0  0  0  0  0  0  0  0
    6.4321   -7.5095    2.9688 C   0  0  2  0  0  0  0  0  0  0  0  0
    7.2694   -8.4145    2.0932 C   0  0  0  0  0  0  0  0  0  0  0  0
    6.6011   -9.6439    1.8992 O   0  0  0  0  0  0  0  0  0  0  0  0
    6.2063   -6.1830    2.4537 O   0  0  0  0  0  0  0  0  0  0  0  0
    5.0721   -7.0507    2.5559 C   0  0  2  0  0  0  0  0  0  0  0  0
    2.7928   -3.9375    6.9037 C   0  0  1  0  0  0  0  0  0  0  0  0
    3.5512   -4.1618    8.0795 O   0  0  0  0  0  0  0  0  0  0  0  0
    3.4461   -2.9398    5.9632 C   0  0  2  0  0  0  0  0  0  0  0  0
    3.7801   -1.7835    6.8357 O   0  0  0  0  0  0  0  0  0  0  0  0
    2.9383   -0.6493    6.7721 C   0  0  2  0  0  0  0  0  0  0  0  0
    3.7902    0.5760    6.4032 C   0  0  0  0  0  0  0  0  0  0  0  0
    4.7185    0.9025    7.4171 O   0  0  0  0  0  0  0  0  0  0  0  0
    2.1043   -0.2982    7.8548 O   0  0  0  0  0  0  0  0  0  0  0  0
    0.6812    0.0467    7.6364 C   0  0  2  0  0  0  0  0  0  0  0  0
    0.3010    0.9312    8.8240 C   0  0  0  0  0  0  0  0  0  0  0  0
   -0.1680   -1.1338    7.5602 O   0  0  0  0  0  0  0  0  0  0  0  0
    0.0650   -1.1854    6.1086 C   0  0  1  0  0  0  0  0  0  0  0  0
    0.1151    0.3805    6.2116 C   0  0  1  0  0  0  0  0  0  0  0  0
   -1.2315    1.1154    6.1512 C   0  0  2  0  0  0  0  0  0  0  0  0
   -1.9744    0.8239    4.9731 O   0  0  0  0  0  0  0  0  0  0  0  0
   -2.1006    2.1307    4.4256 C   0  0  1  0  0  0  0  0  0  0  0  0
   -2.5593    3.0758    5.5568 C   0  0  0  0  0  0  0  0  0  0  0  0
   -1.1706    2.6215    5.9500 C   0  0  2  0  0  0  0  0  0  0  0  0
   -0.8144    2.7364    4.5590 O   0  0  0  0  0  0  0  0  0  0  0  0
    1.3469   -2.0826    6.0142 C   0  0  2  0  0  0  0  0  0  0  0  0
    2.1319   -0.9176    5.7682 O   0  0  0  0  0  0  0  0  0  0  0  0
    2.2612   -2.6837    4.9117 C   0  0  2  0  0  0  0  0  0  0  0  0
    1.5154   -3.7242    4.2327 O   0  0  0  0  0  0  0  0  0  0  0  0
    1.8832   -5.1045    3.9823 C   0  0  1  0  0  0  0  0  0  0  0  0
    1.0302   -5.5492    3.0875 O   0  0  0  0  0  0  0  0  0  0  0  0
    1.5041   -3.1462    7.2001 C   0  0  1  0  0  0  0  0  0  0  0  0
    0.2560   -3.9999    7.4882 C   0  0  0  0  0  0  0  0  0  0  0  0
    5.1861    0.0355    1.3324 H   0  0  0  0  0  0  0  0  0  0  0  0
    6.0550   -1.2092    0.4496 H   0  0  0  0  0  0  0  0  0  0  0  0
    6.0097   -1.2425    2.2166 H   0  0  0  0  0  0  0  0  0  0  0  0
    5.1346   -3.4448    2.0613 H   0  0  0  0  0  0  0  0  0  0  0  0
    4.1255   -3.8539   -1.8346 H   0  0  0  0  0  0  0  0  0  0  0  0
    4.3774   -5.2769   -0.8149 H   0  0  0  0  0  0  0  0  0  0  0  0
    2.3329   -3.0663   -0.4864 H   0  0  0  0  0  0  0  0  0  0  0  0
    2.0574   -5.4177   -1.2422 H   0  0  0  0  0  0  0  0  0  0  0  0
    2.3707   -3.3329    1.8747 H   0  0  0  0  0  0  0  0  0  0  0  0
    3.9953   -4.5776    3.6321 H   0  0  0  0  0  0  0  0  0  0  0  0
    2.1939   -7.6146    2.9281 H   0  0  0  0  0  0  0  0  0  0  0  0
    3.3292   -9.5146    2.0583 H   0  0  0  0  0  0  0  0  0  0  0  0
    3.9888   -9.8762    3.6622 H   0  0  0  0  0  0  0  0  0  0  0  0
    1.0793  -10.1076    2.8030 H   0  0  0  0  0  0  0  0  0  0  0  0
    1.9610  -10.9972    4.0619 H   0  0  0  0  0  0  0  0  0  0  0  0
   -0.5517   -8.1779    3.8979 H   0  0  0  0  0  0  0  0  0  0  0  0
    4.4551   -7.5100    5.7061 H   0  0  0  0  0  0  0  0  0  0  0  0
    7.8261   -7.3517    4.5852 H   0  0  0  0  0  0  0  0  0  0  0  0
    6.5188   -8.5141    4.8510 H   0  0  0  0  0  0  0  0  0  0  0  0
    7.4358   -7.9450    1.1219 H   0  0  0  0  0  0  0  0  0  0  0  0
    8.2476   -8.5850    2.5450 H   0  0  0  0  0  0  0  0  0  0  0  0
    6.3592   -9.9958    2.7436 H   0  0  0  0  0  0  0  0  0  0  0  0
    4.6968   -7.3773    1.5920 H   0  0  0  0  0  0  0  0  0  0  0  0
    3.1267   -4.8591    8.5560 H   0  0  0  0  0  0  0  0  0  0  0  0
    4.3692   -3.2694    5.4935 H   0  0  0  0  0  0  0  0  0  0  0  0
    4.3330    0.3830    5.4769 H   0  0  0  0  0  0  0  0  0  0  0  0
    3.1376    1.4335    6.2395 H   0  0  0  0  0  0  0  0  0  0  0  0
    5.2494    0.1378    7.5869 H   0  0  0  0  0  0  0  0  0  0  0  0
    0.6667    0.5074    9.7594 H   0  0  0  0  0  0  0  0  0  0  0  0
   -0.7755    1.0648    8.9317 H   0  0  0  0  0  0  0  0  0  0  0  0
    0.7449    1.9247    8.7202 H   0  0  0  0  0  0  0  0  0  0  0  0
   -0.8018   -1.5684    5.5693 H   0  0  0  0  0  0  0  0  0  0  0  0
    0.8312    0.8610    5.5438 H   0  0  0  0  0  0  0  0  0  0  0  0
   -1.8581    0.8781    7.0125 H   0  0  0  0  0  0  0  0  0  0  0  0
   -2.5986    2.2548    3.4597 H   0  0  0  0  0  0  0  0  0  0  0  0
   -2.6315    4.1258    5.2700 H   0  0  0  0  0  0  0  0  0  0  0  0
   -3.3706    2.7146    6.1965 H   0  0  0  0  0  0  0  0  0  0  0  0
   -0.6099    3.2565    6.6343 H   0  0  0  0  0  0  0  0  0  0  0  0
    2.6228   -2.0369    4.0983 H   0  0  0  0  0  0  0  0  0  0  0  0
    1.6891   -2.6251    8.1369 H   0  0  0  0  0  0  0  0  0  0  0  0
   -0.2606   -4.2601    6.5677 H   0  0  0  0  0  0  0  0  0  0  0  0
   -0.4589   -3.4688    8.1145 H   0  0  0  0  0  0  0  0  0  0  0  0
    0.5186   -4.9100    8.0244 H   0  0  0  0  0  0  0  0  0  0  0  0
  1  2  1  0
  1 61  1  0
  1 62  1  0
  1 63  1  0
  2  3  1  0
  3  8  1  0
  3  4  1  0
  3 64  1  1
  4  5  1  0
  5  6  1  0
  5 65  1  0
  5 66  1  0
  6  7  1  0
  6  8  1  0
  6 67  1  6
  7 68  1  0
  8  9  1  0
  8 69  1  1
  9 10  1  0
 10 57  1  0
 10 11  1  0
 10 70  1  1
 11 26  1  0
 11 33  1  0
 11 12  1  1
 12 16  1  0
 12 13  1  0
 12 71  1  6
 13 14  1  0
 13 72  1  0
 13 73  1  0
 14 15  1  0
 14 74  1  0
 14 75  1  0
 15 18  1  0
 15 16  1  0
 15 17  1  1
 17 18  1  0
 18 19  1  0
 18 76  1  6
 19 20  1  0
 19 21  1  0
 19 22  1  0
 22 24  1  0
 22 57  1  0
 22 23  1  6
 24 23  1  1
 24 25  1  0
 24 34  1  0
 25 26  1  0
 26 27  1  0
 26 77  1  1
 27 28  1  0
 28 29  1  0
 28 78  1  0
 28 79  1  0
 29 33  1  0
 29 30  1  6
 29 32  1  0
 30 31  1  0
 30 80  1  0
 30 81  1  0
 31 82  1  0
 32 33  1  0
 33 83  1  6
 34 59  1  0
 34 35  1  1
 34 36  1  0
 35 84  1  0
 36 55  1  0
 36 37  1  0
 36 85  1  6
 37 38  1  0
 38 54  1  0
 38 39  1  6
 38 41  1  0
 39 40  1  0
 39 86  1  0
 39 87  1  0
 40 88  1  0
 41 42  1  0
 42 46  1  0
 42 43  1  1
 42 44  1  0
 43 89  1  0
 43 90  1  0
 43 91  1  0
 44 45  1  0
 45 46  1  0
 45 53  1  0
 45 92  1  6
 46 47  1  0
 46 93  1  6
 47 51  1  0
 47 48  1  0
 47 94  1  1
 48 49  1  0
 49 52  1  0
 49 50  1  0
 49 95  1  6
 50 51  1  0
 50 96  1  0
 50 97  1  0
 51 52  1  0
 51 98  1  1
 53 54  1  1
 53 55  1  0
 53 59  1  0
 55 56  1  0
 55 99  1  6
 56 57  1  0
 57 58  1  6
 59 60  1  0
 59100  1  1
 60101  1  0
 60102  1  0
 60103  1  0
M  CHG  1  58  -1
M  END
>  <i_m_ct_stereo_status>  (9) 
1

>  <s_m_source_file>  (9) 
/var/tmp/pbs.5076253.sched01/tmpsnpm1fw8/0c_pn72ob.sdf

>  <i_m_source_file_index>  (9) 
11

>  <i_lp_mmshare_version>  (9) 
48012

>  <i_f3d_flags>  (9) 
0

>  <s_epik_input>  (9) 
W0NIM11PW0NAQEhdMU9bQ0gyXVtDQEBIXShbT0hdKVtDQEhdMU9bQ0BIXTJbQ0BdMyhbT0hdKU9bQ0BASF0oW0NAXTQoW0NASF01W0NIM10pW0NASF02T1tDQEBdKFtDSDNdKShPW0NAQF0oTzcpKE80KVtDSDJdW09IXSlbQ0BASF02W0NASF0oT1tDQEBIXTg5KVtDQEBIXShPOSlbQ0gyXTgpW0NAQEhdN1tDQF01KFtPSF0pW0NAQF0oTzEpKEMxM0MoRikoRilbQ0BIXShPMSlbQ0BdMShPMSlbQ0gyXVtDSDJdW0NAQEhdMVtDQF0xMjMpT1tDQEBIXTFPW0NIMl1bQ0BdMShbQ0BASF0zTzEpW0NIMl1bT0hd

>  <s_epik_cmdline>  (9) 
J2VwaWtfcHl0aG9uJywgJy1waHQnLCAnMi4wJywgJy1waCcsICc3LjAnLCAnLXRuJywgJzgnLCAnLW1hJywgJzIwMCcsICctaW1hZScsICc8aW5maWxlLm1hZT4nLCAnLW9tYWUnLCAnPG91dGZpbGUubWFlPic=

>  <r_epik_Ionization_Penalty>  (9) 
2.55074

>  <r_epik_Ionization_Penalty_Charging>  (9) 
2.55073

>  <r_epik_Ionization_Penalty_Neutral>  (9) 
1.13759e-05

>  <r_epik_State_Penalty>  (9) 
2.71929

>  <r_epik_Charging_Adjusted_Penalty>  (9) 
5.27002

>  <i_epik_Tot_Q>  (9) 
-1

>  <i_epik_Tot_abs_Q>  (9) 
1

>  <s_epik_Chemistry_Notes>  (9) 
This compound contains an acetal/aminal-like group ( X-CH(R)-Y where X, Y are N, S, or O) that may be acid/base labile, releasing an aldehyde.

>  <s_lp_Force_Field>  (9) 
OPLS3e

>  <r_lp_Energy>  (9) 
282.683

>  <b_lp_Chiralities_Consistent>  (9) 
1

>  <s_lp_Variant>  (9) 
6:0-2

>  <s_i_glide_gridfile>  (9) 
pfpi4k_grid

>  <i_i_glide_lignum>  (9) 
11

>  <i_i_glide_rotatable_bonds>  (9) 
10

>  <r_i_docking_score>  (9) 
-2.56933

>  <r_i_glide_ligand_efficiency>  (9) 
-0.0428221

>  <r_i_glide_ligand_efficiency_sa>  (9) 
-0.167643

>  <r_i_glide_ligand_efficiency_ln>  (9) 
-0.504349

>  <r_i_glide_gscore>  (9) 
-2.56933

>  <r_i_glide_lipo>  (9) 
-0.238425

>  <r_i_glide_hbond>  (9) 
-0.0180655

>  <r_i_glide_metal>  (9) 
-0

>  <r_i_glide_rewards>  (9) 
-0.0240181

>  <r_i_glide_evdw>  (9) 
-27.2634

>  <r_i_glide_ecoul>  (9) 
-6.55775

>  <r_i_glide_erotb>  (9) 
0.147815

>  <r_i_glide_esite>  (9) 
-0.0897998

>  <r_i_glide_emodel>  (9) 
-40.02

>  <r_i_glide_energy>  (9) 
-33.8212

>  <r_i_glide_einternal>  (9) 
2.44104

>  <r_i_glide_intrahb_reward>  (9) 
-0

>  <i_i_glide_confnum>  (9) 
1

>  <i_i_glide_posenum>  (9) 
11

>  <r_i_glide_eff_state_penalty>  (9) 
0

>  <ligand_id>  (9) 
6

>  <original_smiles>  (9) 
COC1OCC(O)C1OC1C23C4CCC5(O4)OC5C(F)(F)C45OC4(OC2OCC2(CO)OC23)C2(O)C3OC4(CO)OC6(C)OC(C6C6OC7CC6O7)C(O4)(C3OC15O)C2C

>  <smiles>  (9) 
[H]OC([H])([H])C12OC3([H])C4([H])OC5([O-])C([H])(OC6([H])C([H])(OC([H])([H])[H])OC([H])([H])C6([H])O[H])C67C([H])(OC([H])([H])C8(C([H])([H])O[H])OC86[H])OC6(OC56C(F)(F)C5([H])OC56OC7([H])C([H])([H])C6([H])[H])C3(O[H])C([H])(C([H])([H])[H])C4(O1)C1([H])OC(C([H])([H])[H])(O2)C1([H])C1([H])OC2([H])OC1([H])C2([H])[H]

$$$$
7:0:0
     RDKit          3D

120133  0  0  1  0  0  0  0  0999 V2000
    0.7405   -9.5869   11.0345 C   0  0  0  0  0  0  0  0  0  0  0  0
    0.5504   -8.8457    9.8283 O   0  0  0  0  0  0  0  0  0  0  0  0
    1.6642   -8.1033    9.2976 C   0  0  2  0  0  0  0  0  0  0  0  0
    2.0631   -7.0473   10.3331 C   0  0  0  0  0  0  0  0  0  0  0  0
    2.9332   -6.1215    9.7206 O   0  0  0  0  0  0  0  0  0  0  0  0
    2.4302   -5.4262    8.6218 C   0  0  2  0  0  0  0  0  0  0  0  0
    1.7370   -6.1844    7.6814 O   0  0  0  0  0  0  0  0  0  0  0  0
    1.0473   -7.3664    8.0839 C   0  0  1  0  0  0  0  0  0  0  0  0
    1.0835   -8.2581    6.8543 C   0  0  0  0  0  0  0  0  0  0  0  0
    2.5387   -8.4270    6.4119 C   0  0  2  0  0  0  0  0  0  0  0  0
    2.8885   -9.6155    5.5126 C   0  0  1  0  0  0  0  0  0  0  0  0
    1.7570  -10.4176    4.8770 C   0  0  0  0  0  0  0  0  0  0  0  0
    3.7490   -9.3023    4.4479 O   0  0  0  0  0  0  0  0  0  0  0  0
    3.5930  -10.2192    6.7172 C   0  0  0  0  0  0  0  0  0  0  0  0
    3.5128   -8.8935    7.5196 C   0  0  2  0  0  0  0  0  0  0  0  0
    2.8455   -9.0677    8.9182 C   0  0  0  0  0  0  0  0  0  0  0  0
    4.9249   -8.2104    7.7036 C   0  0  1  0  0  0  0  0  0  0  0  0
    5.6203   -8.2319    6.4821 O   0  0  0  0  0  0  0  0  0  0  0  0
    7.0554   -8.1249    6.4921 C   0  0  2  0  0  0  0  0  0  0  0  0
    7.3945   -7.1459    5.3432 C   0  0  0  0  0  0  0  0  0  0  0  0
    6.9385   -7.6717    3.9703 C   0  0  1  0  0  0  0  0  0  0  0  0
    7.1255   -6.5787    2.8847 C   0  0  0  0  0  0  0  0  0  0  0  0
    6.0612   -6.5587    1.7628 C   0  0  1  0  0  0  0  0  0  0  0  0
    6.5654   -5.8555    0.4954 C   0  0  0  0  0  0  0  0  0  0  0  0
    5.4867   -7.9640    1.4557 C   0  0  0  0  0  0  0  0  0  0  0  0
    4.1432   -8.0433    1.5963 C   0  0  0  0  0  0  0  0  0  0  0  0
    3.7433   -6.7753    2.0535 C   0  0  0  0  0  0  0  0  0  0  0  0
    4.7668   -5.9511    2.1991 C   0  0  0  0  0  0  0  0  0  0  0  0
    4.3388   -4.7538    2.7443 N   0  0  0  0  0  0  0  0  0  0  0  0
    3.0511   -4.8812    2.9729 N   0  0  0  0  0  0  0  0  0  0  0  0
    2.6477   -6.1345    2.5733 N   0  0  0  0  0  0  0  0  0  0  0  0
    1.3234   -6.5850    2.7709 C   0  0  0  0  0  0  0  0  0  0  0  0
    0.6085   -6.1999    3.9224 C   0  0  0  0  0  0  0  0  0  0  0  0
   -0.7046   -6.6607    4.1151 C   0  0  0  0  0  0  0  0  0  0  0  0
   -1.3088   -7.4974    3.1576 C   0  0  0  0  0  0  0  0  0  0  0  0
   -2.5761   -7.9200    3.3433 F   0  0  0  0  0  0  0  0  0  0  0  0
   -0.6001   -7.8680    2.0100 C   0  0  0  0  0  0  0  0  0  0  0  0
    0.7190   -7.4189    1.8112 C   0  0  0  0  0  0  0  0  0  0  0  0
    6.4293   -9.1325    1.2323 C   0  0  0  0  0  0  0  0  0  0  0  0
    6.8070   -9.8403    2.5501 C   0  0  0  0  0  0  0  0  0  0  0  0
    7.6154   -9.0248    3.5901 C   0  0  2  0  0  0  0  0  0  0  0  0
    7.9253   -9.9166    4.8043 C   0  0  1  0  0  0  0  0  0  0  0  0
    9.1339   -9.5570    5.6458 C   0  0  0  0  0  0  0  0  0  0  0  0
    7.7534   -9.4642    6.2508 C   0  0  1  0  0  0  0  0  0  0  0  0
    7.5320  -10.4510    7.3870 C   0  0  0  0  0  0  0  0  0  0  0  0
    4.8647   -6.9402    8.3304 O   0  0  0  0  0  0  0  0  0  0  0  0
    4.8163   -5.7097    7.5768 C   0  0  2  0  0  0  0  0  0  0  0  0
    6.1510   -4.9556    7.7886 C   0  0  0  0  0  0  0  0  0  0  0  0
    6.2958   -3.6714    6.9479 C   0  0  0  0  0  0  0  0  0  0  0  0
    5.0691   -2.7422    6.9709 C   0  0  1  0  0  0  0  0  0  0  0  0
    5.4386   -1.3246    6.4986 C   0  0  0  0  0  0  0  0  0  0  0  0
    4.0905   -3.2179    6.0476 O   0  0  0  0  0  0  0  0  0  0  0  0
    3.1068   -4.2048    6.6719 O   0  0  0  0  0  0  0  0  0  0  0  0
    3.5985   -4.7583    7.8905 C   0  0  1  0  0  0  0  0  0  0  0  0
    3.8454   -3.5870    8.8564 C   0  0  2  0  0  0  0  0  0  0  0  0
    2.5679   -3.1271    9.1685 O   0  0  0  0  0  0  0  0  0  0  0  0
    1.6370   -4.2034    9.1240 C   0  0  1  0  0  0  0  0  0  0  0  0
    0.4800   -3.8011    8.2250 C   0  0  2  0  0  0  0  0  0  0  0  0
   -0.5852   -3.0535    8.8477 O   0  0  0  0  0  0  0  0  0  0  0  0
   -0.9003   -4.3771    8.4039 C   0  0  1  0  0  0  0  0  0  0  0  0
   -1.8772   -4.4760    7.2622 C   0  0  0  0  0  0  0  0  0  0  0  0
    4.6000   -2.5615    8.2950 O   0  0  0  0  0  0  0  0  0  0  0  0
   -0.1617  -10.1526   11.2602 H   0  0  0  0  0  0  0  0  0  0  0  0
    0.9152   -8.9463   11.8969 H   0  0  0  0  0  0  0  0  0  0  0  0
    1.5500  -10.3118   10.9683 H   0  0  0  0  0  0  0  0  0  0  0  0
    1.1784   -6.5486   10.7272 H   0  0  0  0  0  0  0  0  0  0  0  0
    2.5747   -7.5070   11.1800 H   0  0  0  0  0  0  0  0  0  0  0  0
    0.0186   -7.0940    8.3165 H   0  0  0  0  0  0  0  0  0  0  0  0
    0.6227   -9.2128    7.1177 H   0  0  0  0  0  0  0  0  0  0  0  0
    0.4785   -7.8445    6.0573 H   0  0  0  0  0  0  0  0  0  0  0  0
    2.9292   -7.5148    5.9606 H   0  0  0  0  0  0  0  0  0  0  0  0
    1.0973  -10.8287    5.6418 H   0  0  0  0  0  0  0  0  0  0  0  0
    2.1389  -11.2649    4.3045 H   0  0  0  0  0  0  0  0  0  0  0  0
    1.1516   -9.7933    4.2185 H   0  0  0  0  0  0  0  0  0  0  0  0
    4.5083   -8.9081    4.8538 H   0  0  0  0  0  0  0  0  0  0  0  0
    3.0210  -11.0460    7.1359 H   0  0  0  0  0  0  0  0  0  0  0  0
    4.5989  -10.5509    6.4867 H   0  0  0  0  0  0  0  0  0  0  0  0
    3.5807   -9.1405    9.7160 H   0  0  0  0  0  0  0  0  0  0  0  0
    2.3786  -10.0537    8.9160 H   0  0  0  0  0  0  0  0  0  0  0  0
    5.4920   -8.8306    8.3970 H   0  0  0  0  0  0  0  0  0  0  0  0
    7.4217   -7.7374    7.4441 H   0  0  0  0  0  0  0  0  0  0  0  0
    6.8881   -6.2028    5.5143 H   0  0  0  0  0  0  0  0  0  0  0  0
    8.4590   -6.9103    5.3302 H   0  0  0  0  0  0  0  0  0  0  0  0
    5.8696   -7.8354    4.0816 H   0  0  0  0  0  0  0  0  0  0  0  0
    7.1348   -5.5875    3.3389 H   0  0  0  0  0  0  0  0  0  0  0  0
    8.1173   -6.6978    2.4435 H   0  0  0  0  0  0  0  0  0  0  0  0
    5.7966   -5.8585   -0.2762 H   0  0  0  0  0  0  0  0  0  0  0  0
    7.4513   -6.3456    0.0908 H   0  0  0  0  0  0  0  0  0  0  0  0
    6.8245   -4.8174    0.6965 H   0  0  0  0  0  0  0  0  0  0  0  0
    3.4978   -8.9021    1.5261 H   0  0  0  0  0  0  0  0  0  0  0  0
    1.0636   -5.5684    4.6758 H   0  0  0  0  0  0  0  0  0  0  0  0
   -1.2693   -6.3893    4.9909 H   0  0  0  0  0  0  0  0  0  0  0  0
   -1.0745   -8.5125    1.2793 H   0  0  0  0  0  0  0  0  0  0  0  0
    1.2550   -7.7133    0.9239 H   0  0  0  0  0  0  0  0  0  0  0  0
    5.9175   -9.8498    0.5874 H   0  0  0  0  0  0  0  0  0  0  0  0
    7.3191   -8.7996    0.6923 H   0  0  0  0  0  0  0  0  0  0  0  0
    5.8980  -10.2319    3.0092 H   0  0  0  0  0  0  0  0  0  0  0  0
    7.3989  -10.7190    2.2816 H   0  0  0  0  0  0  0  0  0  0  0  0
    8.5836   -8.7889    3.1418 H   0  0  0  0  0  0  0  0  0  0  0  0
    7.7894  -10.9838    4.6280 H   0  0  0  0  0  0  0  0  0  0  0  0
    9.7672  -10.3900    5.9416 H   0  0  0  0  0  0  0  0  0  0  0  0
    9.6823   -8.6517    5.4000 H   0  0  0  0  0  0  0  0  0  0  0  0
    8.0599  -11.3866    7.1928 H   0  0  0  0  0  0  0  0  0  0  0  0
    6.4797  -10.6897    7.5024 H   0  0  0  0  0  0  0  0  0  0  0  0
    7.9096  -10.0499    8.3299 H   0  0  0  0  0  0  0  0  0  0  0  0
    4.7375   -5.9709    6.5215 H   0  0  0  0  0  0  0  0  0  0  0  0
    6.2538   -4.7107    8.8449 H   0  0  0  0  0  0  0  0  0  0  0  0
    7.0130   -5.5862    7.5935 H   0  0  0  0  0  0  0  0  0  0  0  0
    7.1626   -3.1298    7.3241 H   0  0  0  0  0  0  0  0  0  0  0  0
    6.5182   -3.9085    5.9074 H   0  0  0  0  0  0  0  0  0  0  0  0
    4.5637   -0.6724    6.5304 H   0  0  0  0  0  0  0  0  0  0  0  0
    5.8040   -1.3286    5.4732 H   0  0  0  0  0  0  0  0  0  0  0  0
    6.2027   -0.8687    7.1313 H   0  0  0  0  0  0  0  0  0  0  0  0
    4.3170   -3.9192    9.7807 H   0  0  0  0  0  0  0  0  0  0  0  0
    1.2563   -4.3989   10.1280 H   0  0  0  0  0  0  0  0  0  0  0  0
    0.7561   -3.4470    7.2305 H   0  0  0  0  0  0  0  0  0  0  0  0
   -1.0474   -5.1009    9.2071 H   0  0  0  0  0  0  0  0  0  0  0  0
   -1.7966   -5.4667    6.8320 H   0  0  0  0  0  0  0  0  0  0  0  0
   -1.6536   -3.7386    6.4899 H   0  0  0  0  0  0  0  0  0  0  0  0
   -2.8977   -4.3478    7.6205 H   0  0  0  0  0  0  0  0  0  0  0  0
  1  2  1  0
  1 63  1  0
  1 64  1  0
  1 65  1  0
  3  2  1  1
  3  8  1  0
  3 16  1  0
  3  4  1  0
  4  5  1  0
  4 66  1  0
  4 67  1  0
  6  5  1  1
  6 54  1  0
  6 57  1  0
  6  7  1  0
  7  8  1  0
  8  9  1  0
  8 68  1  1
  9 10  1  0
  9 69  1  0
  9 70  1  0
 10 15  1  0
 10 11  1  0
 10 71  1  6
 11 12  1  0
 11 13  1  6
 11 14  1  0
 12 72  1  0
 12 73  1  0
 12 74  1  0
 13 75  1  0
 15 14  1  6
 14 76  1  0
 14 77  1  0
 15 16  1  0
 15 17  1  0
 16 78  1  0
 16 79  1  0
 17 18  1  0
 17 46  1  0
 17 80  1  1
 18 19  1  0
 19 44  1  0
 19 20  1  0
 19 81  1  1
 20 21  1  0
 20 82  1  0
 20 83  1  0
 21 41  1  0
 21 22  1  0
 21 84  1  1
 22 23  1  0
 22 85  1  0
 22 86  1  0
 23 28  1  0
 23 24  1  6
 23 25  1  0
 24 87  1  0
 24 88  1  0
 24 89  1  0
 25 26  2  0
 25 39  1  0
 26 27  1  0
 26 90  1  0
 27 31  1  0
 27 28  2  0
 28 29  1  0
 29 30  2  0
 30 31  1  0
 31 32  1  0
 32 38  1  0
 32 33  2  0
 33 34  1  0
 33 91  1  0
 34 35  2  0
 34 92  1  0
 35 36  1  0
 35 37  1  0
 37 38  2  0
 37 93  1  0
 38 94  1  0
 39 40  1  0
 39 95  1  0
 39 96  1  0
 40 41  1  0
 40 97  1  0
 40 98  1  0
 41 42  1  0
 41 99  1  6
 42 44  1  0
 42 43  1  0
 42100  1  6
 43 44  1  0
 43101  1  0
 43102  1  0
 44 45  1  1
 45103  1  0
 45104  1  0
 45105  1  0
 46 47  1  0
 47 54  1  0
 47 48  1  0
 47106  1  6
 48 49  1  0
 48107  1  0
 48108  1  0
 49 50  1  0
 49109  1  0
 49110  1  0
 50 62  1  0
 50 51  1  6
 50 52  1  0
 51111  1  0
 51112  1  0
 51113  1  0
 52 53  1  0
 54 53  1  6
 54 55  1  0
 55 56  1  0
 55 62  1  0
 55114  1  1
 56 57  1  0
 57 58  1  0
 57115  1  1
 58 60  1  0
 58 59  1  0
 58116  1  6
 59 60  1  0
 60 61  1  0
 60117  1  1
 61118  1  0
 61119  1  0
 61120  1  0
M  END
>  <i_m_ct_stereo_status>  (10) 
1

>  <s_m_source_file>  (10) 
/var/tmp/pbs.5076253.sched01/tmpsnpm1fw8/0c_pn72ob.sdf

>  <i_m_source_file_index>  (10) 
13

>  <i_lp_mmshare_version>  (10) 
48012

>  <i_f3d_flags>  (10) 
0

>  <s_epik_input>  (10) 
W0NIM11bQ0BASF0xT1tDQEhdMVtDQEBIXTJPW0NAQEhdM09bQ0BdKFtDSDNdKShPTzQpW0NIMl1bQ0gyXVtDQEhdKFtDQEBdMzRbQ0BdMjU2KU9bQ0BASF0oW0NAQF03OFtDQEBIXShbQ0BAXShbQ0gzXSkoW09IXSlbQ0gyXTcpW0NIMl1bQ0BIXShPNilbQ0BdKFtDSDJdTzUpKFtDSDJdOClPW0NIM10pT1tDQEBIXShbQ0BAXTkoW0NIM10pW0NAQEhdMVtDSDJdOSlbQ0gyXVtDQEBIXShbQ0gyXTIpW0NAQEhdMVtDSDJdW0NIMl1DKFtDQEBdMTJbQ0gzXSk9W0NIXWMyYzFubm4yLWMxW2NIXVtjSF1jKEYpW2NIXVtjSF0x

>  <s_epik_cmdline>  (10) 
J2VwaWtfcHl0aG9uJywgJy1waHQnLCAnMi4wJywgJy1waCcsICc3LjAnLCAnLXRuJywgJzgnLCAnLW1hJywgJzIwMCcsICctaW1hZScsICc8aW5maWxlLm1hZT4nLCAnLW9tYWUnLCAnPG91dGZpbGUubWFlPic=

>  <r_epik_Ionization_Penalty>  (10) 
0.00243342

>  <r_epik_Ionization_Penalty_Charging>  (10) 
0

>  <r_epik_Ionization_Penalty_Neutral>  (10) 
0.00243342

>  <r_epik_State_Penalty>  (10) 
0.00168435

>  <r_epik_Charging_Adjusted_Penalty>  (10) 
0.00168435

>  <i_epik_Tot_Q>  (10) 
0

>  <i_epik_Tot_abs_Q>  (10) 
0

>  <s_epik_Chemistry_Notes>  (10) 
This compound contains an acetal/aminal-like group ( X-CH(R)-Y where X, Y are N, S, or O) that may be acid/base labile, releasing an aldehyde.

>  <s_lp_Force_Field>  (10) 
OPLS3e

>  <r_lp_Energy>  (10) 
118.256

>  <b_lp_Chiralities_Consistent>  (10) 
1

>  <s_lp_Variant>  (10) 
7:0-1

>  <s_i_glide_gridfile>  (10) 
pfpi4k_grid

>  <i_i_glide_lignum>  (10) 
13

>  <i_i_glide_rotatable_bonds>  (10) 
6

>  <r_i_docking_score>  (10) 
-3.28694

>  <r_i_glide_ligand_efficiency>  (10) 
-0.0530152

>  <r_i_glide_ligand_efficiency_sa>  (10) 
-0.209828

>  <r_i_glide_ligand_efficiency_ln>  (10) 
-0.641087

>  <r_i_glide_gscore>  (10) 
-3.28694

>  <r_i_glide_lipo>  (10) 
-0.532375

>  <r_i_glide_hbond>  (10) 
-0.16

>  <r_i_glide_metal>  (10) 
-0

>  <r_i_glide_rewards>  (10) 
-0.5

>  <r_i_glide_evdw>  (10) 
-33.0955

>  <r_i_glide_ecoul>  (10) 
-3.4786

>  <r_i_glide_erotb>  (10) 
0.118708

>  <r_i_glide_esite>  (10) 
-0.0367081

>  <r_i_glide_emodel>  (10) 
-47.8375

>  <r_i_glide_energy>  (10) 
-36.5741

>  <r_i_glide_einternal>  (10) 
1.51735

>  <r_i_glide_intrahb_reward>  (10) 
-0.5

>  <i_i_glide_confnum>  (10) 
2

>  <i_i_glide_posenum>  (10) 
12

>  <r_i_glide_eff_state_penalty>  (10) 
0

>  <ligand_id>  (10) 
7

>  <original_smiles>  (10) 
COC12COC34OC1CC1C(C)(O)CC1(C2)C(OC1CC2CC5(C)C(=Cc6c5nnn6-c5ccc(F)cc5)CCC2C2CC12C)OC1CCC2(C)OOC13C(OC4C1OC1C)O2

>  <smiles>  (10) 
[H]OC1(C([H])([H])[H])C([H])([H])C23C([H])(OC4([H])C([H])([H])C5([H])C([H])([H])C6(C([H])([H])[H])C(=C([H])c7c6nnn7-c6c([H])c([H])c(F)c([H])c6[H])C([H])([H])C([H])([H])C5([H])C5([H])C([H])([H])C45C([H])([H])[H])OC4([H])C([H])([H])C([H])([H])C5(C([H])([H])[H])OOC46C([H])(OC([H])(C4([H])OC4([H])C([H])([H])[H])C64OC([H])([H])C(OC([H])([H])[H])(C2([H])[H])C([H])(O4)C([H])([H])C13[H])O5

$$$$
7:0:1
     RDKit          3D

120133  0  0  1  0  0  0  0  0999 V2000
    0.7441   -9.5822   11.0417 C   0  0  0  0  0  0  0  0  0  0  0  0
    0.5542   -8.8421    9.8346 O   0  0  0  0  0  0  0  0  0  0  0  0
    1.6669   -8.1027    9.3014 C   0  0  2  0  0  0  0  0  0  0  0  0
    2.0661   -7.0456   10.3368 C   0  0  0  0  0  0  0  0  0  0  0  0
    2.9346   -6.1181    9.7257 O   0  0  0  0  0  0  0  0  0  0  0  0
    2.4323   -5.4239    8.6243 C   0  0  2  0  0  0  0  0  0  0  0  0
    1.7380   -6.1845    7.6852 O   0  0  0  0  0  0  0  0  0  0  0  0
    1.0496   -7.3653    8.0889 C   0  0  1  0  0  0  0  0  0  0  0  0
    1.0829   -8.2574    6.8607 C   0  0  0  0  0  0  0  0  0  0  0  0
    2.5357   -8.4279    6.4155 C   0  0  2  0  0  0  0  0  0  0  0  0
    2.8789   -9.6128    5.5101 C   0  0  1  0  0  0  0  0  0  0  0  0
    1.7459  -10.4225    4.8841 C   0  0  0  0  0  0  0  0  0  0  0  0
    3.7091   -9.2845    4.4229 O   0  0  0  0  0  0  0  0  0  0  0  0
    3.5929  -10.2180    6.7162 C   0  0  0  0  0  0  0  0  0  0  0  0
    3.5140   -8.8925    7.5205 C   0  0  2  0  0  0  0  0  0  0  0  0
    2.8484   -9.0675    8.9213 C   0  0  0  0  0  0  0  0  0  0  0  0
    4.9277   -8.2091    7.7108 C   0  0  1  0  0  0  0  0  0  0  0  0
    5.6302   -8.2261    6.4978 O   0  0  0  0  0  0  0  0  0  0  0  0
    7.0640   -8.1316    6.5002 C   0  0  2  0  0  0  0  0  0  0  0  0
    7.4029   -7.1548    5.3484 C   0  0  0  0  0  0  0  0  0  0  0  0
    6.9385   -7.6780    3.9768 C   0  0  1  0  0  0  0  0  0  0  0  0
    7.1331   -6.5839    2.8915 C   0  0  0  0  0  0  0  0  0  0  0  0
    6.0707   -6.5522    1.7692 C   0  0  1  0  0  0  0  0  0  0  0  0
    6.5794   -5.8552    0.5009 C   0  0  0  0  0  0  0  0  0  0  0  0
    5.4859   -7.9536    1.4602 C   0  0  0  0  0  0  0  0  0  0  0  0
    4.1478   -8.0229    1.6017 C   0  0  0  0  0  0  0  0  0  0  0  0
    3.7506   -6.7538    2.0608 C   0  0  0  0  0  0  0  0  0  0  0  0
    4.7820   -5.9353    2.2081 C   0  0  0  0  0  0  0  0  0  0  0  0
    4.3555   -4.7368    2.7524 N   0  0  0  0  0  0  0  0  0  0  0  0
    3.0677   -4.8579    2.9894 N   0  0  0  0  0  0  0  0  0  0  0  0
    2.6580   -6.1120    2.5891 N   0  0  0  0  0  0  0  0  0  0  0  0
    1.3368   -6.5659    2.7817 C   0  0  0  0  0  0  0  0  0  0  0  0
    0.7325   -7.4030    1.8229 C   0  0  0  0  0  0  0  0  0  0  0  0
   -0.5852   -7.8650    2.0156 C   0  0  0  0  0  0  0  0  0  0  0  0
   -1.2984   -7.4973    3.1606 C   0  0  0  0  0  0  0  0  0  0  0  0
   -2.5657   -7.9223    3.3343 F   0  0  0  0  0  0  0  0  0  0  0  0
   -0.7061   -6.6555    4.1129 C   0  0  0  0  0  0  0  0  0  0  0  0
    0.6091   -6.1903    3.9307 C   0  0  0  0  0  0  0  0  0  0  0  0
    6.4225   -9.1274    1.2314 C   0  0  0  0  0  0  0  0  0  0  0  0
    6.8041   -9.8396    2.5460 C   0  0  0  0  0  0  0  0  0  0  0  0
    7.6102   -9.0312    3.5921 C   0  0  2  0  0  0  0  0  0  0  0  0
    7.9133   -9.9287    4.8038 C   0  0  1  0  0  0  0  0  0  0  0  0
    9.1263   -9.5803    5.6432 C   0  0  0  0  0  0  0  0  0  0  0  0
    7.7483   -9.4782    6.2522 C   0  0  1  0  0  0  0  0  0  0  0  0
    7.5196  -10.4662    7.3860 C   0  0  0  0  0  0  0  0  0  0  0  0
    4.8651   -6.9388    8.3356 O   0  0  0  0  0  0  0  0  0  0  0  0
    4.8188   -5.7100    7.5784 C   0  0  2  0  0  0  0  0  0  0  0  0
    6.1531   -4.9552    7.7875 C   0  0  0  0  0  0  0  0  0  0  0  0
    6.2972   -3.6720    6.9459 C   0  0  0  0  0  0  0  0  0  0  0  0
    5.0709   -2.7412    6.9694 C   0  0  1  0  0  0  0  0  0  0  0  0
    5.4389   -1.3237    6.4955 C   0  0  0  0  0  0  0  0  0  0  0  0
    4.0893   -3.2157    6.0479 O   0  0  0  0  0  0  0  0  0  0  0  0
    3.1095   -4.2039    6.6722 O   0  0  0  0  0  0  0  0  0  0  0  0
    3.6001   -4.7589    7.8916 C   0  0  1  0  0  0  0  0  0  0  0  0
    3.8477   -3.5855    8.8576 C   0  0  2  0  0  0  0  0  0  0  0  0
    2.5707   -3.1251    9.1705 O   0  0  0  0  0  0  0  0  0  0  0  0
    1.6397   -4.2002    9.1267 C   0  0  1  0  0  0  0  0  0  0  0  0
    0.4791   -3.7961    8.2302 C   0  0  2  0  0  0  0  0  0  0  0  0
   -0.5812   -3.0537    8.8516 O   0  0  0  0  0  0  0  0  0  0  0  0
   -0.8983   -4.3801    8.4060 C   0  0  1  0  0  0  0  0  0  0  0  0
   -1.8772   -4.4780    7.2645 C   0  0  0  0  0  0  0  0  0  0  0  0
    4.6022   -2.5592    8.2957 O   0  0  0  0  0  0  0  0  0  0  0  0
   -0.1598  -10.1495   11.2610 H   0  0  0  0  0  0  0  0  0  0  0  0
    0.9172   -8.9399   11.9045 H   0  0  0  0  0  0  0  0  0  0  0  0
    1.5554  -10.3064   10.9773 H   0  0  0  0  0  0  0  0  0  0  0  0
    1.1825   -6.5450   10.7336 H   0  0  0  0  0  0  0  0  0  0  0  0
    2.5797   -7.5030   11.1840 H   0  0  0  0  0  0  0  0  0  0  0  0
    0.0214   -7.0917    8.3219 H   0  0  0  0  0  0  0  0  0  0  0  0
    0.6229   -9.2113    7.1240 H   0  0  0  0  0  0  0  0  0  0  0  0
    0.4792   -7.8447    6.0639 H   0  0  0  0  0  0  0  0  0  0  0  0
    2.9297   -7.5217    5.9619 H   0  0  0  0  0  0  0  0  0  0  0  0
    1.0867  -10.8328    5.6507 H   0  0  0  0  0  0  0  0  0  0  0  0
    2.1191  -11.2748    4.3109 H   0  0  0  0  0  0  0  0  0  0  0  0
    1.1380   -9.8015    4.2250 H   0  0  0  0  0  0  0  0  0  0  0  0
    3.9283  -10.1033    4.0034 H   0  0  0  0  0  0  0  0  0  0  0  0
    3.0202  -11.0403    7.1395 H   0  0  0  0  0  0  0  0  0  0  0  0
    4.6019  -10.5463    6.4807 H   0  0  0  0  0  0  0  0  0  0  0  0
    3.5829   -9.1393    9.7214 H   0  0  0  0  0  0  0  0  0  0  0  0
    2.3798  -10.0526    8.9199 H   0  0  0  0  0  0  0  0  0  0  0  0
    5.4931   -8.8289    8.4067 H   0  0  0  0  0  0  0  0  0  0  0  0
    7.4350   -7.7431    7.4499 H   0  0  0  0  0  0  0  0  0  0  0  0
    6.9026   -6.2079    5.5194 H   0  0  0  0  0  0  0  0  0  0  0  0
    8.4686   -6.9246    5.3294 H   0  0  0  0  0  0  0  0  0  0  0  0
    5.8684   -7.8398    4.0919 H   0  0  0  0  0  0  0  0  0  0  0  0
    7.1516   -5.5925    3.3453 H   0  0  0  0  0  0  0  0  0  0  0  0
    8.1241   -6.7078    2.4486 H   0  0  0  0  0  0  0  0  0  0  0  0
    5.8105   -5.8503   -0.2707 H   0  0  0  0  0  0  0  0  0  0  0  0
    7.4618   -6.3504    0.0954 H   0  0  0  0  0  0  0  0  0  0  0  0
    6.8465   -4.8180    0.7036 H   0  0  0  0  0  0  0  0  0  0  0  0
    3.4901   -8.8752    1.5219 H   0  0  0  0  0  0  0  0  0  0  0  0
    1.2774   -7.6871    0.9369 H   0  0  0  0  0  0  0  0  0  0  0  0
   -1.0412   -8.5162    1.2778 H   0  0  0  0  0  0  0  0  0  0  0  0
   -1.2679   -6.3946    4.9967 H   0  0  0  0  0  0  0  0  0  0  0  0
    1.0560   -5.5489    4.6808 H   0  0  0  0  0  0  0  0  0  0  0  0
    5.9056   -9.8415    0.5867 H   0  0  0  0  0  0  0  0  0  0  0  0
    7.3117   -8.8002    0.6907 H   0  0  0  0  0  0  0  0  0  0  0  0
    5.8986  -10.2366    3.0041 H   0  0  0  0  0  0  0  0  0  0  0  0
    7.3961  -10.7164    2.2758 H   0  0  0  0  0  0  0  0  0  0  0  0
    8.5795   -8.7998    3.1449 H   0  0  0  0  0  0  0  0  0  0  0  0
    7.7692  -10.9940    4.6251 H   0  0  0  0  0  0  0  0  0  0  0  0
    9.7547  -10.4173    5.9383 H   0  0  0  0  0  0  0  0  0  0  0  0
    9.6804   -8.6783    5.3995 H   0  0  0  0  0  0  0  0  0  0  0  0
    8.0394  -11.4054    7.1889 H   0  0  0  0  0  0  0  0  0  0  0  0
    6.4659  -10.6976    7.5032 H   0  0  0  0  0  0  0  0  0  0  0  0
    7.8999  -10.0693    8.3293 H   0  0  0  0  0  0  0  0  0  0  0  0
    4.7389   -5.9737    6.5236 H   0  0  0  0  0  0  0  0  0  0  0  0
    6.2570   -4.7102    8.8428 H   0  0  0  0  0  0  0  0  0  0  0  0
    7.0123   -5.5882    7.5926 H   0  0  0  0  0  0  0  0  0  0  0  0
    7.1640   -3.1302    7.3207 H   0  0  0  0  0  0  0  0  0  0  0  0
    6.5186   -3.9105    5.9061 H   0  0  0  0  0  0  0  0  0  0  0  0
    4.5644   -0.6714    6.5285 H   0  0  0  0  0  0  0  0  0  0  0  0
    5.8034   -1.3283    5.4707 H   0  0  0  0  0  0  0  0  0  0  0  0
    6.2032   -0.8678    7.1272 H   0  0  0  0  0  0  0  0  0  0  0  0
    4.3214   -3.9175    9.7812 H   0  0  0  0  0  0  0  0  0  0  0  0
    1.2604   -4.3956   10.1309 H   0  0  0  0  0  0  0  0  0  0  0  0
    0.7551   -3.4446    7.2366 H   0  0  0  0  0  0  0  0  0  0  0  0
   -1.0427   -5.1032    9.2114 H   0  0  0  0  0  0  0  0  0  0  0  0
   -1.7953   -5.4661    6.8335 H   0  0  0  0  0  0  0  0  0  0  0  0
   -1.6523   -3.7388    6.4961 H   0  0  0  0  0  0  0  0  0  0  0  0
   -2.8940   -4.3482    7.6251 H   0  0  0  0  0  0  0  0  0  0  0  0
  1  2  1  0
  1 63  1  0
  1 64  1  0
  1 65  1  0
  3  2  1  1
  3  8  1  0
  3 16  1  0
  3  4  1  0
  4  5  1  0
  4 66  1  0
  4 67  1  0
  6  5  1  1
  6 54  1  0
  6 57  1  0
  6  7  1  0
  7  8  1  0
  8  9  1  0
  8 68  1  1
  9 10  1  0
  9 69  1  0
  9 70  1  0
 10 15  1  0
 10 11  1  0
 10 71  1  6
 11 12  1  0
 11 13  1  6
 11 14  1  0
 12 72  1  0
 12 73  1  0
 12 74  1  0
 13 75  1  0
 15 14  1  6
 14 76  1  0
 14 77  1  0
 15 16  1  0
 15 17  1  0
 16 78  1  0
 16 79  1  0
 17 18  1  0
 17 46  1  0
 17 80  1  1
 18 19  1  0
 19 44  1  0
 19 20  1  0
 19 81  1  1
 20 21  1  0
 20 82  1  0
 20 83  1  0
 21 41  1  0
 21 22  1  0
 21 84  1  1
 22 23  1  0
 22 85  1  0
 22 86  1  0
 23 28  1  0
 23 24  1  6
 23 25  1  0
 24 87  1  0
 24 88  1  0
 24 89  1  0
 25 26  2  0
 25 39  1  0
 26 27  1  0
 26 90  1  0
 27 31  1  0
 27 28  2  0
 28 29  1  0
 29 30  2  0
 30 31  1  0
 31 32  1  0
 32 38  1  0
 32 33  2  0
 33 34  1  0
 33 91  1  0
 34 35  2  0
 34 92  1  0
 35 36  1  0
 35 37  1  0
 37 38  2  0
 37 93  1  0
 38 94  1  0
 39 40  1  0
 39 95  1  0
 39 96  1  0
 40 41  1  0
 40 97  1  0
 40 98  1  0
 41 42  1  0
 41 99  1  6
 42 44  1  0
 42 43  1  0
 42100  1  6
 43 44  1  0
 43101  1  0
 43102  1  0
 44 45  1  1
 45103  1  0
 45104  1  0
 45105  1  0
 46 47  1  0
 47 54  1  0
 47 48  1  0
 47106  1  6
 48 49  1  0
 48107  1  0
 48108  1  0
 49 50  1  0
 49109  1  0
 49110  1  0
 50 62  1  0
 50 51  1  6
 50 52  1  0
 51111  1  0
 51112  1  0
 51113  1  0
 52 53  1  0
 54 53  1  6
 54 55  1  0
 55 56  1  0
 55 62  1  0
 55114  1  1
 56 57  1  0
 57 58  1  0
 57115  1  1
 58 60  1  0
 58 59  1  0
 58116  1  6
 59 60  1  0
 60 61  1  0
 60117  1  1
 61118  1  0
 61119  1  0
 61120  1  0
M  END
>  <i_m_ct_stereo_status>  (11) 
1

>  <s_m_source_file>  (11) 
/var/tmp/pbs.5076253.sched01/tmpsnpm1fw8/0c_pn72ob.sdf

>  <i_m_source_file_index>  (11) 
13

>  <i_lp_mmshare_version>  (11) 
48012

>  <i_f3d_flags>  (11) 
0

>  <s_epik_input>  (11) 
W0NIM11bQ0BASF0xT1tDQEhdMVtDQEBIXTJPW0NAQEhdM09bQ0BdKFtDSDNdKShPTzQpW0NIMl1bQ0gyXVtDQEhdKFtDQEBdMzRbQ0BdMjU2KU9bQ0BASF0oW0NAQF03OFtDQEBIXShbQ0BAXShbQ0gzXSkoW09IXSlbQ0gyXTcpW0NIMl1bQ0BIXShPNilbQ0BdKFtDSDJdTzUpKFtDSDJdOClPW0NIM10pT1tDQEBIXShbQ0BAXTkoW0NIM10pW0NAQEhdMVtDSDJdOSlbQ0gyXVtDQEBIXShbQ0gyXTIpW0NAQEhdMVtDSDJdW0NIMl1DKFtDQEBdMTJbQ0gzXSk9W0NIXWMyYzFubm4yLWMxW2NIXVtjSF1jKEYpW2NIXVtjSF0x

>  <s_epik_cmdline>  (11) 
J2VwaWtfcHl0aG9uJywgJy1waHQnLCAnMi4wJywgJy1waCcsICc3LjAnLCAnLXRuJywgJzgnLCAnLW1hJywgJzIwMCcsICctaW1hZScsICc8aW5maWxlLm1hZT4nLCAnLW9tYWUnLCAnPG91dGZpbGUubWFlPic=

>  <r_epik_Ionization_Penalty>  (11) 
0.00243342

>  <r_epik_Ionization_Penalty_Charging>  (11) 
0

>  <r_epik_Ionization_Penalty_Neutral>  (11) 
0.00243342

>  <r_epik_State_Penalty>  (11) 
0.00168435

>  <r_epik_Charging_Adjusted_Penalty>  (11) 
0.00168435

>  <i_epik_Tot_Q>  (11) 
0

>  <i_epik_Tot_abs_Q>  (11) 
0

>  <s_epik_Chemistry_Notes>  (11) 
This compound contains an acetal/aminal-like group ( X-CH(R)-Y where X, Y are N, S, or O) that may be acid/base labile, releasing an aldehyde.

>  <s_lp_Force_Field>  (11) 
OPLS3e

>  <r_lp_Energy>  (11) 
118.256

>  <b_lp_Chiralities_Consistent>  (11) 
1

>  <s_lp_Variant>  (11) 
7:0-1

>  <s_i_glide_gridfile>  (11) 
pfpi4k_grid

>  <i_i_glide_lignum>  (11) 
13

>  <i_i_glide_rotatable_bonds>  (11) 
6

>  <r_i_docking_score>  (11) 
-2.8709

>  <r_i_glide_ligand_efficiency>  (11) 
-0.0463048

>  <r_i_glide_ligand_efficiency_sa>  (11) 
-0.183269

>  <r_i_glide_ligand_efficiency_ln>  (11) 
-0.559942

>  <r_i_glide_gscore>  (11) 
-2.8709

>  <r_i_glide_lipo>  (11) 
-0.53043

>  <r_i_glide_hbond>  (11) 
-0.16

>  <r_i_glide_metal>  (11) 
-0

>  <r_i_glide_rewards>  (11) 
0

>  <r_i_glide_evdw>  (11) 
-33.0835

>  <r_i_glide_ecoul>  (11) 
-4.0545

>  <r_i_glide_erotb>  (11) 
0.118708

>  <r_i_glide_esite>  (11) 
-0.0368248

>  <r_i_glide_emodel>  (11) 
-42.3127

>  <r_i_glide_energy>  (11) 
-37.138

>  <r_i_glide_einternal>  (11) 
2.19138

>  <r_i_glide_intrahb_reward>  (11) 
-0

>  <i_i_glide_confnum>  (11) 
2

>  <i_i_glide_posenum>  (11) 
18

>  <r_i_glide_eff_state_penalty>  (11) 
0

>  <ligand_id>  (11) 
7

>  <original_smiles>  (11) 
COC12COC34OC1CC1C(C)(O)CC1(C2)C(OC1CC2CC5(C)C(=Cc6c5nnn6-c5ccc(F)cc5)CCC2C2CC12C)OC1CCC2(C)OOC13C(OC4C1OC1C)O2

>  <smiles>  (11) 
[H]OC1(C([H])([H])[H])C([H])([H])C23C([H])(OC4([H])C([H])([H])C5([H])C([H])([H])C6(C([H])([H])[H])C(=C([H])c7c6nnn7-c6c([H])c([H])c(F)c([H])c6[H])C([H])([H])C([H])([H])C5([H])C5([H])C([H])([H])C45C([H])([H])[H])OC4([H])C([H])([H])C([H])([H])C5(C([H])([H])[H])OOC46C([H])(OC([H])(C4([H])OC4([H])C([H])([H])[H])C64OC([H])([H])C(OC([H])([H])[H])(C2([H])[H])C([H])(O4)C([H])([H])C13[H])O5

$$$$
7:0:2
     RDKit          3D

120133  0  0  1  0  0  0  0  0999 V2000
    0.3262   -9.1085   11.3481 C   0  0  0  0  0  0  0  0  0  0  0  0
    0.2128   -8.4632   10.0811 O   0  0  0  0  0  0  0  0  0  0  0  0
    1.3665   -7.8221    9.5339 C   0  0  2  0  0  0  0  0  0  0  0  0
    1.7701   -6.6755   10.4732 C   0  0  0  0  0  0  0  0  0  0  0  0
    2.7065   -5.8438    9.8255 O   0  0  0  0  0  0  0  0  0  0  0  0
    2.2918   -5.2548    8.6261 C   0  0  2  0  0  0  0  0  0  0  0  0
    1.6090   -6.0805    7.7390 O   0  0  0  0  0  0  0  0  0  0  0  0
    0.8337   -7.1845    8.2248 C   0  0  1  0  0  0  0  0  0  0  0  0
    0.8774   -8.1876    7.0796 C   0  0  0  0  0  0  0  0  0  0  0  0
    2.3537   -8.4650    6.7601 C   0  0  2  0  0  0  0  0  0  0  0  0
    2.6788   -9.7617    6.0323 C   0  0  1  0  0  0  0  0  0  0  0  0
    1.5496  -10.6049    5.4144 C   0  0  0  0  0  0  0  0  0  0  0  0
    3.5424   -9.5542    4.9640 O   0  0  0  0  0  0  0  0  0  0  0  0
    3.3654  -10.2374    7.3077 C   0  0  0  0  0  0  0  0  0  0  0  0
    3.2662   -8.8355    7.9471 C   0  0  2  0  0  0  0  0  0  0  0  0
    2.5299   -8.8496    9.3145 C   0  0  0  0  0  0  0  0  0  0  0  0
    4.6802   -8.1685    8.1483 C   0  0  1  0  0  0  0  0  0  0  0  0
    5.4598   -8.3564    7.0024 O   0  0  0  0  0  0  0  0  0  0  0  0
    6.8849   -8.5403    7.0940 C   0  0  2  0  0  0  0  0  0  0  0  0
    7.4413   -8.1793    5.7018 C   0  0  0  0  0  0  0  0  0  0  0  0
    6.9705   -9.1700    4.6166 C   0  0  1  0  0  0  0  0  0  0  0  0
    7.4177   -8.6927    3.2184 C   0  0  0  0  0  0  0  0  0  0  0  0
    6.4062   -8.9919    2.1192 C   0  0  1  0  0  0  0  0  0  0  0  0
    7.0455   -9.0115    0.7666 C   0  0  0  0  0  0  0  0  0  0  0  0
    5.5964  -10.2828    2.3194 C   0  0  0  0  0  0  0  0  0  0  0  0
    4.2729  -10.0913    2.2632 C   0  0  0  0  0  0  0  0  0  0  0  0
    4.0906   -8.6914    2.0794 C   0  0  0  0  0  0  0  0  0  0  0  0
    5.2546   -8.0543    2.0646 C   0  0  0  0  0  0  0  0  0  0  0  0
    5.0449   -6.7130    1.9497 N   0  0  0  0  0  0  0  0  0  0  0  0
    3.7190   -6.5127    2.0281 N   0  0  0  0  0  0  0  0  0  0  0  0
    3.0943   -7.7292    2.1389 N   0  0  0  0  0  0  0  0  0  0  0  0
    1.7007   -7.8572    2.3586 C   0  0  0  0  0  0  0  0  0  0  0  0
    1.0668   -9.1154    2.3210 C   0  0  0  0  0  0  0  0  0  0  0  0
   -0.3199   -9.2517    2.5532 C   0  0  0  0  0  0  0  0  0  0  0  0
   -1.0733   -8.1169    2.8694 C   0  0  0  0  0  0  0  0  0  0  0  0
   -2.3965   -8.2110    3.1016 F   0  0  0  0  0  0  0  0  0  0  0  0
   -0.4357   -6.8755    2.9865 C   0  0  0  0  0  0  0  0  0  0  0  0
    0.9265   -6.7257    2.6804 C   0  0  0  0  0  0  0  0  0  0  0  0
    6.2795  -11.5764    2.6613 C   0  0  0  0  0  0  0  0  0  0  0  0
    6.4717  -11.6987    4.1828 C   0  0  0  0  0  0  0  0  0  0  0  0
    7.3757  -10.6525    4.8823 C   0  0  2  0  0  0  0  0  0  0  0  0
    7.4615  -10.9932    6.3760 C   0  0  1  0  0  0  0  0  0  0  0  0
    8.6849  -10.4989    7.1231 C   0  0  0  0  0  0  0  0  0  0  0  0
    7.3261   -9.9618    7.4836 C   0  0  1  0  0  0  0  0  0  0  0  0
    6.8974  -10.3691    8.8779 C   0  0  0  0  0  0  0  0  0  0  0  0
    4.6302   -6.8353    8.5999 O   0  0  0  0  0  0  0  0  0  0  0  0
    4.7014   -5.7240    7.7027 C   0  0  2  0  0  0  0  0  0  0  0  0
    6.0648   -5.0259    7.9025 C   0  0  0  0  0  0  0  0  0  0  0  0
    6.3054   -3.8368    6.9601 C   0  0  0  0  0  0  0  0  0  0  0  0
    5.1182   -2.8654    6.8281 C   0  0  1  0  0  0  0  0  0  0  0  0
    5.5499   -1.5171    6.2438 C   0  0  0  0  0  0  0  0  0  0  0  0
    4.1574   -3.4166    5.9190 O   0  0  0  0  0  0  0  0  0  0  0  0
    3.0976   -4.2297    6.5931 O   0  0  0  0  0  0  0  0  0  0  0  0
    3.5023   -4.7137    7.8828 C   0  0  1  0  0  0  0  0  0  0  0  0
    3.7613   -3.4633    8.7472 C   0  0  2  0  0  0  0  0  0  0  0  0
    2.5034   -2.9186    8.9391 O   0  0  0  0  0  0  0  0  0  0  0  0
    1.5359   -3.9604    8.9597 C   0  0  1  0  0  0  0  0  0  0  0  0
    0.4325   -3.6262    7.9704 C   0  0  2  0  0  0  0  0  0  0  0  0
   -0.5565   -2.6934    8.4259 O   0  0  0  0  0  0  0  0  0  0  0  0
   -0.9952   -4.0350    8.2130 C   0  0  1  0  0  0  0  0  0  0  0  0
   -1.9641   -4.2291    7.0728 C   0  0  0  0  0  0  0  0  0  0  0  0
    4.5951   -2.5166    8.1152 O   0  0  0  0  0  0  0  0  0  0  0  0
   -0.6143   -9.6071   11.5797 H   0  0  0  0  0  0  0  0  0  0  0  0
    0.5159   -8.4066   12.1664 H   0  0  0  0  0  0  0  0  0  0  0  0
    1.0973   -9.8827   11.3752 H   0  0  0  0  0  0  0  0  0  0  0  0
    0.8964   -6.1059   10.7749 H   0  0  0  0  0  0  0  0  0  0  0  0
    2.2285   -7.0673   11.3934 H   0  0  0  0  0  0  0  0  0  0  0  0
   -0.1813   -6.8347    8.3844 H   0  0  0  0  0  0  0  0  0  0  0  0
    0.3529   -9.0909    7.4141 H   0  0  0  0  0  0  0  0  0  0  0  0
    0.3430   -7.8242    6.2023 H   0  0  0  0  0  0  0  0  0  0  0  0
    2.7874   -7.6472    6.2126 H   0  0  0  0  0  0  0  0  0  0  0  0
    0.7788  -10.8828    6.1165 H   0  0  0  0  0  0  0  0  0  0  0  0
    1.9166  -11.5217    4.9426 H   0  0  0  0  0  0  0  0  0  0  0  0
    1.0180  -10.0221    4.6784 H   0  0  0  0  0  0  0  0  0  0  0  0
    3.7201  -10.4118    4.6070 H   0  0  0  0  0  0  0  0  0  0  0  0
    2.7991  -10.9767    7.8529 H   0  0  0  0  0  0  0  0  0  0  0  0
    4.3764  -10.6010    7.1437 H   0  0  0  0  0  0  0  0  0  0  0  0
    3.2316   -8.8661   10.1504 H   0  0  0  0  0  0  0  0  0  0  0  0
    2.0301   -9.8120    9.3888 H   0  0  0  0  0  0  0  0  0  0  0  0
    5.1580   -8.6585    8.9735 H   0  0  0  0  0  0  0  0  0  0  0  0
    7.2931   -7.8487    7.8227 H   0  0  0  0  0  0  0  0  0  0  0  0
    7.1158   -7.1696    5.4337 H   0  0  0  0  0  0  0  0  0  0  0  0
    8.5352   -8.1374    5.6927 H   0  0  0  0  0  0  0  0  0  0  0  0
    5.8876   -9.0899    4.6413 H   0  0  0  0  0  0  0  0  0  0  0  0
    7.5803   -7.6105    3.1908 H   0  0  0  0  0  0  0  0  0  0  0  0
    8.3727   -9.1400    2.9587 H   0  0  0  0  0  0  0  0  0  0  0  0
    6.1702   -9.2088    0.1415 H   0  0  0  0  0  0  0  0  0  0  0  0
    7.7606   -9.7884    0.4765 H   0  0  0  0  0  0  0  0  0  0  0  0
    7.4838   -8.0341    0.5609 H   0  0  0  0  0  0  0  0  0  0  0  0
    3.4880  -10.8088    2.4124 H   0  0  0  0  0  0  0  0  0  0  0  0
    1.6172  -10.0171    2.1077 H   0  0  0  0  0  0  0  0  0  0  0  0
   -0.7793  -10.2376    2.5327 H   0  0  0  0  0  0  0  0  0  0  0  0
   -0.9929   -6.0303    3.3721 H   0  0  0  0  0  0  0  0  0  0  0  0
    1.3608   -5.7348    2.7380 H   0  0  0  0  0  0  0  0  0  0  0  0
    5.6527  -12.4020    2.3025 H   0  0  0  0  0  0  0  0  0  0  0  0
    7.2254  -11.6534    2.1196 H   0  0  0  0  0  0  0  0  0  0  0  0
    5.4867  -11.7129    4.6560 H   0  0  0  0  0  0  0  0  0  0  0  0
    6.8946  -12.6890    4.3648 H   0  0  0  0  0  0  0  0  0  0  0  0
    8.3856  -10.8016    4.4820 H   0  0  0  0  0  0  0  0  0  0  0  0
    7.1201  -11.9916    6.6312 H   0  0  0  0  0  0  0  0  0  0  0  0
    9.1468  -11.2081    7.7987 H   0  0  0  0  0  0  0  0  0  0  0  0
    9.3986   -9.8723    6.5906 H   0  0  0  0  0  0  0  0  0  0  0  0
    7.3644  -11.3208    9.1660 H   0  0  0  0  0  0  0  0  0  0  0  0
    5.8322  -10.4586    8.9362 H   0  0  0  0  0  0  0  0  0  0  0  0
    7.2340   -9.6413    9.6154 H   0  0  0  0  0  0  0  0  0  0  0  0
    4.6593   -6.0884    6.6695 H   0  0  0  0  0  0  0  0  0  0  0  0
    6.1479   -4.6931    8.9332 H   0  0  0  0  0  0  0  0  0  0  0  0
    6.8850   -5.7274    7.7690 H   0  0  0  0  0  0  0  0  0  0  0  0
    7.1766   -3.2946    7.3242 H   0  0  0  0  0  0  0  0  0  0  0  0
    6.5584   -4.1996    5.9639 H   0  0  0  0  0  0  0  0  0  0  0  0
    4.7033   -0.8353    6.1809 H   0  0  0  0  0  0  0  0  0  0  0  0
    5.9302   -1.6494    5.2469 H   0  0  0  0  0  0  0  0  0  0  0  0
    6.3152   -1.0352    6.8571 H   0  0  0  0  0  0  0  0  0  0  0  0
    4.1897   -3.7138    9.7106 H   0  0  0  0  0  0  0  0  0  0  0  0
    1.0996   -4.0330    9.9652 H   0  0  0  0  0  0  0  0  0  0  0  0
    0.7562   -3.4654    6.9415 H   0  0  0  0  0  0  0  0  0  0  0  0
   -1.2372   -4.5776    9.1274 H   0  0  0  0  0  0  0  0  0  0  0  0
   -1.9915   -5.2845    6.7954 H   0  0  0  0  0  0  0  0  0  0  0  0
   -1.6507   -3.6366    6.2149 H   0  0  0  0  0  0  0  0  0  0  0  0
   -2.9667   -3.9282    7.3690 H   0  0  0  0  0  0  0  0  0  0  0  0
  1  2  1  0
  1 63  1  0
  1 64  1  0
  1 65  1  0
  3  2  1  1
  3  8  1  0
  3 16  1  0
  3  4  1  0
  4  5  1  0
  4 66  1  0
  4 67  1  0
  6  5  1  1
  6 54  1  0
  6 57  1  0
  6  7  1  0
  7  8  1  0
  8  9  1  0
  8 68  1  1
  9 10  1  0
  9 69  1  0
  9 70  1  0
 10 15  1  0
 10 11  1  0
 10 71  1  6
 11 12  1  0
 11 13  1  6
 11 14  1  0
 12 72  1  0
 12 73  1  0
 12 74  1  0
 13 75  1  0
 15 14  1  6
 14 76  1  0
 14 77  1  0
 15 16  1  0
 15 17  1  0
 16 78  1  0
 16 79  1  0
 17 18  1  0
 17 46  1  0
 17 80  1  1
 18 19  1  0
 19 44  1  0
 19 20  1  0
 19 81  1  1
 20 21  1  0
 20 82  1  0
 20 83  1  0
 21 41  1  0
 21 22  1  0
 21 84  1  6
 22 23  1  0
 22 85  1  0
 22 86  1  0
 23 28  1  0
 23 24  1  6
 23 25  1  0
 24 87  1  0
 24 88  1  0
 24 89  1  0
 25 26  2  0
 25 39  1  0
 26 27  1  0
 26 90  1  0
 27 31  1  0
 27 28  2  0
 28 29  1  0
 29 30  2  0
 30 31  1  0
 31 32  1  0
 32 38  1  0
 32 33  2  0
 33 34  1  0
 33 91  1  0
 34 35  2  0
 34 92  1  0
 35 36  1  0
 35 37  1  0
 37 38  2  0
 37 93  1  0
 38 94  1  0
 39 40  1  0
 39 95  1  0
 39 96  1  0
 40 41  1  0
 40 97  1  0
 40 98  1  0
 41 42  1  0
 41 99  1  6
 42 44  1  0
 42 43  1  0
 42100  1  1
 43 44  1  0
 43101  1  0
 43102  1  0
 44 45  1  1
 45103  1  0
 45104  1  0
 45105  1  0
 46 47  1  0
 47 54  1  0
 47 48  1  0
 47106  1  6
 48 49  1  0
 48107  1  0
 48108  1  0
 49 50  1  0
 49109  1  0
 49110  1  0
 50 62  1  0
 50 51  1  6
 50 52  1  0
 51111  1  0
 51112  1  0
 51113  1  0
 52 53  1  0
 54 53  1  6
 54 55  1  0
 55 56  1  0
 55 62  1  0
 55114  1  1
 56 57  1  0
 57 58  1  0
 57115  1  1
 58 60  1  0
 58 59  1  0
 58116  1  6
 59 60  1  0
 60 61  1  0
 60117  1  1
 61118  1  0
 61119  1  0
 61120  1  0
M  END
>  <i_m_ct_stereo_status>  (12) 
1

>  <s_m_source_file>  (12) 
/var/tmp/pbs.5076253.sched01/tmpsnpm1fw8/0c_pn72ob.sdf

>  <i_m_source_file_index>  (12) 
13

>  <i_lp_mmshare_version>  (12) 
48012

>  <i_f3d_flags>  (12) 
0

>  <s_epik_input>  (12) 
W0NIM11bQ0BASF0xT1tDQEhdMVtDQEBIXTJPW0NAQEhdM09bQ0BdKFtDSDNdKShPTzQpW0NIMl1bQ0gyXVtDQEhdKFtDQEBdMzRbQ0BdMjU2KU9bQ0BASF0oW0NAQF03OFtDQEBIXShbQ0BAXShbQ0gzXSkoW09IXSlbQ0gyXTcpW0NIMl1bQ0BIXShPNilbQ0BdKFtDSDJdTzUpKFtDSDJdOClPW0NIM10pT1tDQEBIXShbQ0BAXTkoW0NIM10pW0NAQEhdMVtDSDJdOSlbQ0gyXVtDQEBIXShbQ0gyXTIpW0NAQEhdMVtDSDJdW0NIMl1DKFtDQEBdMTJbQ0gzXSk9W0NIXWMyYzFubm4yLWMxW2NIXVtjSF1jKEYpW2NIXVtjSF0x

>  <s_epik_cmdline>  (12) 
J2VwaWtfcHl0aG9uJywgJy1waHQnLCAnMi4wJywgJy1waCcsICc3LjAnLCAnLXRuJywgJzgnLCAnLW1hJywgJzIwMCcsICctaW1hZScsICc8aW5maWxlLm1hZT4nLCAnLW9tYWUnLCAnPG91dGZpbGUubWFlPic=

>  <r_epik_Ionization_Penalty>  (12) 
0.00243342

>  <r_epik_Ionization_Penalty_Charging>  (12) 
0

>  <r_epik_Ionization_Penalty_Neutral>  (12) 
0.00243342

>  <r_epik_State_Penalty>  (12) 
0.00168435

>  <r_epik_Charging_Adjusted_Penalty>  (12) 
0.00168435

>  <i_epik_Tot_Q>  (12) 
0

>  <i_epik_Tot_abs_Q>  (12) 
0

>  <s_epik_Chemistry_Notes>  (12) 
This compound contains an acetal/aminal-like group ( X-CH(R)-Y where X, Y are N, S, or O) that may be acid/base labile, releasing an aldehyde.

>  <s_lp_Force_Field>  (12) 
OPLS3e

>  <r_lp_Energy>  (12) 
118.256

>  <b_lp_Chiralities_Consistent>  (12) 
1

>  <s_lp_Variant>  (12) 
7:0-1

>  <s_i_glide_gridfile>  (12) 
pfpi4k_grid

>  <i_i_glide_lignum>  (12) 
13

>  <i_i_glide_rotatable_bonds>  (12) 
6

>  <r_i_docking_score>  (12) 
-1.79616

>  <r_i_glide_ligand_efficiency>  (12) 
-0.0289703

>  <r_i_glide_ligand_efficiency_sa>  (12) 
-0.114661

>  <r_i_glide_ligand_efficiency_ln>  (12) 
-0.350324

>  <r_i_glide_gscore>  (12) 
-1.79616

>  <r_i_glide_lipo>  (12) 
-0.234142

>  <r_i_glide_hbond>  (12) 
-0.174604

>  <r_i_glide_metal>  (12) 
-0

>  <r_i_glide_rewards>  (12) 
-0.000107432

>  <r_i_glide_evdw>  (12) 
-17.6495

>  <r_i_glide_ecoul>  (12) 
-3.97247

>  <r_i_glide_erotb>  (12) 
0.118708

>  <r_i_glide_esite>  (12) 
-0.0276707

>  <r_i_glide_emodel>  (12) 
-21.5387

>  <r_i_glide_energy>  (12) 
-21.6219

>  <r_i_glide_einternal>  (12) 
2.8836

>  <r_i_glide_intrahb_reward>  (12) 
-0

>  <i_i_glide_confnum>  (12) 
2

>  <i_i_glide_posenum>  (12) 
30

>  <r_i_glide_eff_state_penalty>  (12) 
0

>  <ligand_id>  (12) 
7

>  <original_smiles>  (12) 
COC12COC34OC1CC1C(C)(O)CC1(C2)C(OC1CC2CC5(C)C(=Cc6c5nnn6-c5ccc(F)cc5)CCC2C2CC12C)OC1CCC2(C)OOC13C(OC4C1OC1C)O2

>  <smiles>  (12) 
[H]OC1(C([H])([H])[H])C([H])([H])C23C([H])(OC4([H])C([H])([H])C5([H])C([H])([H])C6(C([H])([H])[H])C(=C([H])c7c6nnn7-c6c([H])c([H])c(F)c([H])c6[H])C([H])([H])C([H])([H])C5([H])C5([H])C([H])([H])C45C([H])([H])[H])OC4([H])C([H])([H])C([H])([H])C5(C([H])([H])[H])OOC46C([H])(OC([H])(C4([H])OC4([H])C([H])([H])[H])C64OC([H])([H])C(OC([H])([H])[H])(C2([H])[H])C([H])(O4)C([H])([H])C13[H])O5

$$$$
9:0:0
     RDKit          3D

 72 81  0  0  1  0  0  0  0  0999 V2000
   -1.8666    2.4731    3.0271 C   0  0  0  0  0  0  0  0  0  0  0  0
   -1.2004    3.6522    3.4585 O   0  0  0  0  0  0  0  0  0  0  0  0
   -0.2100    3.5503    4.4876 C   0  0  1  0  0  0  0  0  0  0  0  0
    0.2594    4.8773    4.8014 O   0  0  0  0  0  0  0  0  0  0  0  0
    1.2160    4.7784    3.7125 C   0  0  1  0  0  0  0  0  0  0  0  0
    2.5409    5.5323    3.8824 C   0  0  1  0  0  0  0  0  0  0  0  0
    3.3934    5.3787    2.6185 C   0  0  0  0  0  0  0  0  0  0  0  0
    2.2806    6.9972    4.1935 C   0  0  0  0  0  0  0  0  0  0  0  0
    3.2089    7.8490    4.4034 C   0  0  0  0  0  0  0  0  0  0  0  0
    2.4838    7.2953    5.6161 C   0  0  1  0  0  0  0  0  0  0  0  0
    1.5814    8.1865    6.2150 O   0  0  0  0  0  0  0  0  0  0  0  0
    2.8894    6.0059    6.2996 C   0  0  1  0  0  0  0  0  0  0  0  0
    1.7312    5.4516    6.8518 O   0  0  0  0  0  0  0  0  0  0  0  0
    1.8811    4.6317    7.9859 C   0  0  1  0  0  0  0  0  0  0  0  0
    0.5048    4.5414    8.6832 C   0  0  0  0  0  0  0  0  0  0  0  0
   -0.7777    4.5812    7.7928 C   0  0  2  0  0  0  0  0  0  0  0  0
   -1.8872    4.9874    8.5818 O   0  0  0  0  0  0  0  0  0  0  0  0
   -2.4199    4.0313    9.4607 C   0  0  0  0  0  0  0  0  0  0  0  0
   -2.1849    4.5346   10.8947 C   0  0  0  0  0  0  0  0  0  0  0  0
   -3.9245    3.9216    9.1427 C   0  0  0  0  0  0  0  0  0  0  0  0
   -1.8686    2.7289    9.3694 O   0  0  0  0  0  0  0  0  0  0  0  0
   -1.6231    2.2593    8.1249 C   0  0  0  0  0  0  0  0  0  0  0  0
   -1.8020    1.0689    7.7950 O   0  0  0  0  0  0  0  0  0  0  0  0
   -1.1662    3.2567    7.1153 C   0  0  1  0  0  0  0  0  0  0  0  0
   -2.0854    3.3582    6.0469 O   0  0  0  0  0  0  0  0  0  0  0  0
   -0.8160    2.8032    5.6936 C   0  0  1  0  0  0  0  0  0  0  0  0
    2.4809    3.2270    7.6673 C   0  0  2  0  0  0  0  0  0  0  0  0
    3.5683    3.3426    6.8185 O   0  0  0  0  0  0  0  0  0  0  0  0
    3.3165    3.5824    5.4314 C   0  0  2  0  0  0  0  0  0  0  0  0
    3.3245    5.0916    5.1375 C   0  0  1  0  0  0  0  0  0  0  0  0
    2.3913    2.6150    4.5803 C   0  0  1  0  0  0  0  0  0  0  0  0
    2.0864    1.2523    5.2506 C   0  0  1  0  0  0  0  0  0  0  0  0
    1.6269    0.1891    4.2839 C   0  0  0  0  0  0  0  0  0  0  0  0
    3.1088    0.8487    6.1362 O   0  0  0  0  0  0  0  0  0  0  0  0
    1.8280    1.0890    6.7264 C   0  0  2  0  0  0  0  0  0  0  0  0
    1.1753   -0.1373    7.4079 C   0  0  0  0  0  0  0  0  0  0  0  0
    0.0083   -0.5840    6.7965 O   0  0  0  0  0  0  0  0  0  0  0  0
    1.4825    2.3920    7.1690 O   0  0  0  0  0  0  0  0  0  0  0  0
    1.1812    3.2512    3.8286 C   0  0  1  0  0  0  0  0  0  0  0  0
    1.1428    2.6144    2.5559 O   0  0  0  0  0  0  0  0  0  0  0  0
   -2.3942    2.6611    2.0957 H   0  0  0  0  0  0  0  0  0  0  0  0
   -2.6113    2.1543    3.7513 H   0  0  0  0  0  0  0  0  0  0  0  0
   -1.1876    1.6441    2.8520 H   0  0  0  0  0  0  0  0  0  0  0  0
    0.7271    5.1266    2.8052 H   0  0  0  0  0  0  0  0  0  0  0  0
    3.6241    4.3291    2.4402 H   0  0  0  0  0  0  0  0  0  0  0  0
    4.3308    5.9369    2.6690 H   0  0  0  0  0  0  0  0  0  0  0  0
    2.8189    5.7410    1.7693 H   0  0  0  0  0  0  0  0  0  0  0  0
    4.1280    8.3692    4.1196 H   0  0  0  0  0  0  0  0  0  0  0  0
    1.5271    8.9360    5.6112 H   0  0  0  0  0  0  0  0  0  0  0  0
    3.6672    6.1796    7.0294 H   0  0  0  0  0  0  0  0  0  0  0  0
    2.5590    5.1446    8.6688 H   0  0  0  0  0  0  0  0  0  0  0  0
    0.4967    3.7201    9.4095 H   0  0  0  0  0  0  0  0  0  0  0  0
    0.4258    5.4464    9.2900 H   0  0  0  0  0  0  0  0  0  0  0  0
   -0.6887    5.3222    7.0026 H   0  0  0  0  0  0  0  0  0  0  0  0
   -1.1104    4.5340   11.0982 H   0  0  0  0  0  0  0  0  0  0  0  0
   -2.6625    3.8538   11.6079 H   0  0  0  0  0  0  0  0  0  0  0  0
   -2.5839    5.5508   11.0263 H   0  0  0  0  0  0  0  0  0  0  0  0
   -4.0543    3.5435    8.1263 H   0  0  0  0  0  0  0  0  0  0  0  0
   -4.3804    4.9134    9.2101 H   0  0  0  0  0  0  0  0  0  0  0  0
   -4.4293    3.2260    9.8281 H   0  0  0  0  0  0  0  0  0  0  0  0
   -0.8346    1.7207    5.5259 H   0  0  0  0  0  0  0  0  0  0  0  0
    2.8684    2.7793    8.5829 H   0  0  0  0  0  0  0  0  0  0  0  0
    4.2884    3.2808    5.0384 H   0  0  0  0  0  0  0  0  0  0  0  0
    4.3700    5.3492    4.9698 H   0  0  0  0  0  0  0  0  0  0  0  0
    3.0755    2.3027    3.7892 H   0  0  0  0  0  0  0  0  0  0  0  0
    0.6054    0.3705    3.9670 H   0  0  0  0  0  0  0  0  0  0  0  0
    1.6692   -0.7972    4.7513 H   0  0  0  0  0  0  0  0  0  0  0  0
    2.2575    0.1592    3.4091 H   0  0  0  0  0  0  0  0  0  0  0  0
    1.8881   -0.9584    7.3693 H   0  0  0  0  0  0  0  0  0  0  0  0
    1.0115    0.0452    8.4670 H   0  0  0  0  0  0  0  0  0  0  0  0
    0.0795   -0.3841    5.8707 H   0  0  0  0  0  0  0  0  0  0  0  0
    0.6828    3.2082    1.9547 H   0  0  0  0  0  0  0  0  0  0  0  0
  1  2  1  0
  1 41  1  0
  1 42  1  0
  1 43  1  0
  3  2  1  6
  3 26  1  0
  3 39  1  0
  3  4  1  0
  4  5  1  0
  5 39  1  0
  5  6  1  0
  5 44  1  6
  6 30  1  0
  6  7  1  6
  6  8  1  0
  7 45  1  0
  7 46  1  0
  7 47  1  0
  8 10  1  0
  8  9  2  0
  9 10  1  0
  9 48  1  0
 10 11  1  1
 10 12  1  0
 11 49  1  0
 12 30  1  0
 12 13  1  0
 12 50  1  1
 13 14  1  0
 14 15  1  0
 14 27  1  0
 14 51  1  1
 15 16  1  0
 15 52  1  0
 15 53  1  0
 16 24  1  0
 16 17  1  0
 16 54  1  6
 17 18  1  0
 18 19  1  0
 18 20  1  0
 18 21  1  0
 19 55  1  0
 19 56  1  0
 19 57  1  0
 20 58  1  0
 20 59  1  0
 20 60  1  0
 21 22  1  0
 22 23  2  0
 22 24  1  0
 24 26  1  0
 24 25  1  6
 25 26  1  0
 26 61  1  1
 27 38  1  0
 27 28  1  0
 27 62  1  1
 28 29  1  0
 29 30  1  0
 29 31  1  0
 29 63  1  6
 30 64  1  6
 31 32  1  0
 31 39  1  0
 31 65  1  6
 32 35  1  0
 32 33  1  6
 32 34  1  0
 33 66  1  0
 33 67  1  0
 33 68  1  0
 34 35  1  0
 35 36  1  6
 35 38  1  0
 36 37  1  0
 36 69  1  0
 36 70  1  0
 37 71  1  0
 39 40  1  6
 40 72  1  0
M  END
>  <i_m_ct_stereo_status>  (13) 
1

>  <s_m_source_file>  (13) 
/var/tmp/pbs.5076253.sched01/tmpsnpm1fw8/0c_pn72ob.sdf

>  <i_m_source_file_index>  (13) 
18

>  <i_lp_mmshare_version>  (13) 
48012

>  <i_f3d_flags>  (13) 
0

>  <s_epik_input>  (13) 
W09IXVtDSDJdW0NAXShPMSkoTzIpW0NAQF0xKFtDSDNdKVtDQEhdM1tDQEBdKFtPSF0pKFtDQF0oTzQpKFtDQEBIXTVPNilPW0NIM10pW0NAQEhdNFtDQEBdKFtDSDNdKShDPTdDKFtDSF03KShbT0hdKVtDQEhdOE85KVtDQEBIXThbQ0BIXTNPW0NASF0yW0NAQEhdOVtDSDJdW0NAQEhdKFtDQF0xNTYpT0MoW0NIM10pKFtDSDNdKU9DMT1P

>  <s_epik_cmdline>  (13) 
J2VwaWtfcHl0aG9uJywgJy1waHQnLCAnMi4wJywgJy1waCcsICc3LjAnLCAnLXRuJywgJzgnLCAnLW1hJywgJzIwMCcsICctaW1hZScsICc8aW5maWxlLm1hZT4nLCAnLW9tYWUnLCAnPG91dGZpbGUubWFlPic=

>  <r_lp_tautomer_probability>  (13) 
1

>  <r_epik_Ionization_Penalty>  (13) 
1.57205e-05

>  <r_epik_Ionization_Penalty_Charging>  (13) 
0

>  <r_epik_Ionization_Penalty_Neutral>  (13) 
1.57205e-05

>  <r_epik_State_Penalty>  (13) 
-0

>  <r_epik_Charging_Adjusted_Penalty>  (13) 
0

>  <i_epik_Tot_Q>  (13) 
0

>  <i_epik_Tot_abs_Q>  (13) 
0

>  <s_epik_Chemistry_Notes>  (13) 
This compound has an ester and may undergo hydrolysis at high or low pH. This compound contains an acetal/aminal-like group ( X-CH(R)-Y where X, Y are N, S, or O) that may be acid/base labile, releasing an aldehyde.

>  <s_lp_Force_Field>  (13) 
OPLS3e

>  <r_lp_Energy>  (13) 
110.322

>  <b_lp_Chiralities_Consistent>  (13) 
1

>  <s_lp_Variant>  (13) 
9:0-1

>  <s_i_glide_gridfile>  (13) 
pfpi4k_grid

>  <i_i_glide_lignum>  (13) 
18

>  <i_i_glide_rotatable_bonds>  (13) 
5

>  <r_i_docking_score>  (13) 
-2.99989

>  <r_i_glide_ligand_efficiency>  (13) 
-0.0749972

>  <r_i_glide_ligand_efficiency_sa>  (13) 
-0.256487

>  <r_i_glide_ligand_efficiency_ln>  (13) 
-0.639788

>  <r_i_glide_gscore>  (13) 
-2.99989

>  <r_i_glide_lipo>  (13) 
-0.168535

>  <r_i_glide_hbond>  (13) 
-0.126708

>  <r_i_glide_metal>  (13) 
-0

>  <r_i_glide_rewards>  (13) 
0

>  <r_i_glide_evdw>  (13) 
-20.3472

>  <r_i_glide_ecoul>  (13) 
-11.2348

>  <r_i_glide_erotb>  (13) 
0.0653066

>  <r_i_glide_esite>  (13) 
-0.0673752

>  <r_i_glide_emodel>  (13) 
-36.9663

>  <r_i_glide_energy>  (13) 
-31.582

>  <r_i_glide_einternal>  (13) 
0.812548

>  <r_i_glide_intrahb_reward>  (13) 
-0

>  <i_i_glide_confnum>  (13) 
3

>  <i_i_glide_posenum>  (13) 
25

>  <r_i_glide_eff_state_penalty>  (13) 
0

>  <ligand_id>  (13) 
9

>  <original_smiles>  (13) 
COC12OC3C4(C)C5=CC5(O)C5OC(CC6OC(C)(C)OC(=O)C67OC71)C1OC(C54)C(C4(C)OC4(CO)O1)C32O

>  <smiles>  (13) 
[H]OC([H])([H])C12OC3([H])OC4([H])C([H])(C1(C([H])([H])[H])O2)C1(O[H])C2([H])OC1(OC([H])([H])[H])C1([H])OC15C(=O)OC(C([H])([H])[H])(C([H])([H])[H])OC5([H])C([H])([H])C3([H])OC1([H])C3(O[H])C([H])=C3C2(C([H])([H])[H])C14[H]

$$$$
9:0:1
     RDKit          3D

 72 81  0  0  1  0  0  0  0  0999 V2000
    4.6669   -2.6902    5.4394 C   0  0  0  0  0  0  0  0  0  0  0  0
    3.7313   -3.6221    4.9010 O   0  0  0  0  0  0  0  0  0  0  0  0
    4.2288   -4.7362    4.1342 C   0  0  1  0  0  0  0  0  0  0  0  0
    3.1072   -5.4909    3.6131 O   0  0  0  0  0  0  0  0  0  0  0  0
    3.0328   -6.2111    4.8726 C   0  0  1  0  0  0  0  0  0  0  0  0
    2.5169   -7.6579    4.7906 C   0  0  1  0  0  0  0  0  0  0  0  0
    2.4332   -8.2696    6.2110 C   0  0  0  0  0  0  0  0  0  0  0  0
    1.1802   -7.7030    4.0888 C   0  0  0  0  0  0  0  0  0  0  0  0
    0.5504   -8.8180    3.8636 C   0  0  0  0  0  0  0  0  0  0  0  0
    1.3073   -8.1993    2.7016 C   0  0  1  0  0  0  0  0  0  0  0  0
    0.4503   -7.5726    1.7597 O   0  0  0  0  0  0  0  0  0  0  0  0
    2.7767   -8.4623    2.4357 C   0  0  1  0  0  0  0  0  0  0  0  0
    3.3090   -7.3150    1.8185 O   0  0  0  0  0  0  0  0  0  0  0  0
    4.4271   -7.4987    0.9849 C   0  0  1  0  0  0  0  0  0  0  0  0
    4.5430   -6.2547    0.0774 C   0  0  0  0  0  0  0  0  0  0  0  0
    4.1090   -4.8727    0.6613 C   0  0  2  0  0  0  0  0  0  0  0  0
    3.7965   -3.9873   -0.4115 O   0  0  0  0  0  0  0  0  0  0  0  0
    4.8560   -3.4250   -1.1404 C   0  0  0  0  0  0  0  0  0  0  0  0
    4.8194   -3.9827   -2.5667 C   0  0  0  0  0  0  0  0  0  0  0  0
    4.6466   -1.8982   -1.1282 C   0  0  0  0  0  0  0  0  0  0  0  0
    6.1415   -3.6873   -0.6597 O   0  0  0  0  0  0  0  0  0  0  0  0
    6.3239   -3.7113    0.6761 C   0  0  0  0  0  0  0  0  0  0  0  0
    7.3725   -3.3317    1.1747 O   0  0  0  0  0  0  0  0  0  0  0  0
    5.1460   -4.1745    1.5148 C   0  0  1  0  0  0  0  0  0  0  0  0
    4.6788   -3.1065    2.3337 O   0  0  0  0  0  0  0  0  0  0  0  0
    5.2182   -4.2185    3.0600 C   0  0  1  0  0  0  0  0  0  0  0  0
    5.7455   -7.8035    1.7392 C   0  0  2  0  0  0  0  0  0  0  0  0
    5.5421   -8.7498    2.7302 O   0  0  0  0  0  0  0  0  0  0  0  0
    4.9158   -8.3116    3.9392 C   0  0  2  0  0  0  0  0  0  0  0  0
    3.3962   -8.5316    3.8561 C   0  0  1  0  0  0  0  0  0  0  0  0
    5.5056   -7.1068    4.7842 C   0  0  1  0  0  0  0  0  0  0  0  0
    6.9382   -6.6820    4.3894 C   0  0  1  0  0  0  0  0  0  0  0  0
    7.6361   -5.8766    5.4785 C   0  0  0  0  0  0  0  0  0  0  0  0
    7.6951   -7.7905    3.9083 O   0  0  0  0  0  0  0  0  0  0  0  0
    7.4900   -6.7307    2.9651 C   0  0  2  0  0  0  0  0  0  0  0  0
    8.6863   -5.9060    2.5013 C   0  0  0  0  0  0  0  0  0  0  0  0
    9.0130   -6.2565    1.1845 O   0  0  0  0  0  0  0  0  0  0  0  0
    6.2611   -6.6284    2.2546 O   0  0  0  0  0  0  0  0  0  0  0  0
    4.5213   -5.9352    5.1057 C   0  0  1  0  0  0  0  0  0  0  0  0
    4.7998   -5.5543    6.4441 O   0  0  0  0  0  0  0  0  0  0  0  0
    4.1591   -2.0733    6.1802 H   0  0  0  0  0  0  0  0  0  0  0  0
    5.0734   -2.0093    4.6909 H   0  0  0  0  0  0  0  0  0  0  0  0
    5.4996   -3.1806    5.9382 H   0  0  0  0  0  0  0  0  0  0  0  0
    2.4228   -5.6402    5.5787 H   0  0  0  0  0  0  0  0  0  0  0  0
    3.4121   -8.2804    6.6851 H   0  0  0  0  0  0  0  0  0  0  0  0
    2.0795   -9.3023    6.2122 H   0  0  0  0  0  0  0  0  0  0  0  0
    1.7687   -7.7021    6.8620 H   0  0  0  0  0  0  0  0  0  0  0  0
    0.1125   -9.7460    4.1711 H   0  0  0  0  0  0  0  0  0  0  0  0
    0.2815   -8.2053    1.0749 H   0  0  0  0  0  0  0  0  0  0  0  0
    2.9137   -9.3702    1.8454 H   0  0  0  0  0  0  0  0  0  0  0  0
    4.2168   -8.3525    0.3400 H   0  0  0  0  0  0  0  0  0  0  0  0
    5.5112   -6.2225   -0.4214 H   0  0  0  0  0  0  0  0  0  0  0  0
    3.8299   -6.4372   -0.7274 H   0  0  0  0  0  0  0  0  0  0  0  0
    3.1860   -4.9482    1.2323 H   0  0  0  0  0  0  0  0  0  0  0  0
    5.0151   -5.0525   -2.5320 H   0  0  0  0  0  0  0  0  0  0  0  0
    5.5940   -3.5249   -3.1894 H   0  0  0  0  0  0  0  0  0  0  0  0
    3.8355   -3.8288   -3.0129 H   0  0  0  0  0  0  0  0  0  0  0  0
    4.6414   -1.5268   -0.1021 H   0  0  0  0  0  0  0  0  0  0  0  0
    3.6882   -1.6455   -1.5864 H   0  0  0  0  0  0  0  0  0  0  0  0
    5.4480   -1.3947   -1.6755 H   0  0  0  0  0  0  0  0  0  0  0  0
    6.2013   -4.0264    3.4769 H   0  0  0  0  0  0  0  0  0  0  0  0
    6.4630   -8.2543    1.0460 H   0  0  0  0  0  0  0  0  0  0  0  0
    5.2225   -9.1482    4.5669 H   0  0  0  0  0  0  0  0  0  0  0  0
    3.2312   -9.5695    4.1514 H   0  0  0  0  0  0  0  0  0  0  0  0
    5.6801   -7.5968    5.7467 H   0  0  0  0  0  0  0  0  0  0  0  0
    7.2345   -4.8670    5.5404 H   0  0  0  0  0  0  0  0  0  0  0  0
    8.7068   -5.8037    5.3009 H   0  0  0  0  0  0  0  0  0  0  0  0
    7.5009   -6.3468    6.4503 H   0  0  0  0  0  0  0  0  0  0  0  0
    8.4750   -4.8531    2.5531 H   0  0  0  0  0  0  0  0  0  0  0  0
    9.5468   -6.0494    3.1530 H   0  0  0  0  0  0  0  0  0  0  0  0
    9.6567   -6.9838    1.2399 H   0  0  0  0  0  0  0  0  0  0  0  0
    4.5981   -6.2908    6.9987 H   0  0  0  0  0  0  0  0  0  0  0  0
  1  2  1  0
  1 41  1  0
  1 42  1  0
  1 43  1  0
  3  2  1  1
  3 26  1  0
  3 39  1  0
  3  4  1  0
  4  5  1  0
  5 39  1  0
  5  6  1  0
  5 44  1  1
  6 30  1  0
  6  7  1  1
  6  8  1  0
  7 45  1  0
  7 46  1  0
  7 47  1  0
  8 10  1  0
  8  9  2  0
  9 10  1  0
  9 48  1  0
 10 11  1  6
 10 12  1  0
 11 49  1  0
 12 30  1  0
 12 13  1  0
 12 50  1  6
 13 14  1  0
 14 15  1  0
 14 27  1  0
 14 51  1  6
 15 16  1  0
 15 52  1  0
 15 53  1  0
 16 24  1  0
 16 17  1  0
 16 54  1  1
 17 18  1  0
 18 19  1  0
 18 20  1  0
 18 21  1  0
 19 55  1  0
 19 56  1  0
 19 57  1  0
 20 58  1  0
 20 59  1  0
 20 60  1  0
 21 22  1  0
 22 23  2  0
 22 24  1  0
 24 26  1  0
 24 25  1  1
 25 26  1  0
 26 61  1  6
 27 38  1  0
 27 28  1  0
 27 62  1  6
 28 29  1  0
 29 30  1  0
 29 31  1  0
 29 63  1  1
 30 64  1  1
 31 32  1  0
 31 39  1  0
 31 65  1  1
 32 35  1  0
 32 33  1  1
 32 34  1  0
 33 66  1  0
 33 67  1  0
 33 68  1  0
 34 35  1  0
 35 36  1  6
 35 38  1  0
 36 37  1  0
 36 69  1  0
 36 70  1  0
 37 71  1  0
 39 40  1  1
 40 72  1  0
M  END
>  <i_m_ct_stereo_status>  (14) 
1

>  <s_m_source_file>  (14) 
/var/tmp/pbs.5076253.sched01/tmpsnpm1fw8/0c_pn72ob.sdf

>  <i_m_source_file_index>  (14) 
18

>  <i_lp_mmshare_version>  (14) 
48012

>  <i_f3d_flags>  (14) 
0

>  <s_epik_input>  (14) 
W09IXVtDSDJdW0NAXShPMSkoTzIpW0NAQF0xKFtDSDNdKVtDQEhdM1tDQEBdKFtPSF0pKFtDQF0oTzQpKFtDQEBIXTVPNilPW0NIM10pW0NAQEhdNFtDQEBdKFtDSDNdKShDPTdDKFtDSF03KShbT0hdKVtDQEhdOE85KVtDQEBIXThbQ0BIXTNPW0NASF0yW0NAQEhdOVtDSDJdW0NAQEhdKFtDQF0xNTYpT0MoW0NIM10pKFtDSDNdKU9DMT1P

>  <s_epik_cmdline>  (14) 
J2VwaWtfcHl0aG9uJywgJy1waHQnLCAnMi4wJywgJy1waCcsICc3LjAnLCAnLXRuJywgJzgnLCAnLW1hJywgJzIwMCcsICctaW1hZScsICc8aW5maWxlLm1hZT4nLCAnLW9tYWUnLCAnPG91dGZpbGUubWFlPic=

>  <r_lp_tautomer_probability>  (14) 
1

>  <r_epik_Ionization_Penalty>  (14) 
1.57205e-05

>  <r_epik_Ionization_Penalty_Charging>  (14) 
0

>  <r_epik_Ionization_Penalty_Neutral>  (14) 
1.57205e-05

>  <r_epik_State_Penalty>  (14) 
-0

>  <r_epik_Charging_Adjusted_Penalty>  (14) 
0

>  <i_epik_Tot_Q>  (14) 
0

>  <i_epik_Tot_abs_Q>  (14) 
0

>  <s_epik_Chemistry_Notes>  (14) 
This compound has an ester and may undergo hydrolysis at high or low pH. This compound contains an acetal/aminal-like group ( X-CH(R)-Y where X, Y are N, S, or O) that may be acid/base labile, releasing an aldehyde.

>  <s_lp_Force_Field>  (14) 
OPLS3e

>  <r_lp_Energy>  (14) 
110.322

>  <b_lp_Chiralities_Consistent>  (14) 
1

>  <s_lp_Variant>  (14) 
9:0-1

>  <s_i_glide_gridfile>  (14) 
pfpi4k_grid

>  <i_i_glide_lignum>  (14) 
18

>  <i_i_glide_rotatable_bonds>  (14) 
5

>  <r_i_docking_score>  (14) 
-2.98113

>  <r_i_glide_ligand_efficiency>  (14) 
-0.0745282

>  <r_i_glide_ligand_efficiency_sa>  (14) 
-0.254883

>  <r_i_glide_ligand_efficiency_ln>  (14) 
-0.635787

>  <r_i_glide_gscore>  (14) 
-2.98113

>  <r_i_glide_lipo>  (14) 
-0.276517

>  <r_i_glide_hbond>  (14) 
0

>  <r_i_glide_metal>  (14) 
-0

>  <r_i_glide_rewards>  (14) 
-0.284212

>  <r_i_glide_evdw>  (14) 
-19.8763

>  <r_i_glide_ecoul>  (14) 
-9.79472

>  <r_i_glide_erotb>  (14) 
0.0457146

>  <r_i_glide_esite>  (14) 
-0.00309178

>  <r_i_glide_emodel>  (14) 
-33.9543

>  <r_i_glide_energy>  (14) 
-29.671

>  <r_i_glide_einternal>  (14) 
3.87223

>  <r_i_glide_intrahb_reward>  (14) 
-0

>  <i_i_glide_confnum>  (14) 
3

>  <i_i_glide_posenum>  (14) 
29

>  <r_i_glide_eff_state_penalty>  (14) 
0

>  <ligand_id>  (14) 
9

>  <original_smiles>  (14) 
COC12OC3C4(C)C5=CC5(O)C5OC(CC6OC(C)(C)OC(=O)C67OC71)C1OC(C54)C(C4(C)OC4(CO)O1)C32O

>  <smiles>  (14) 
[H]OC([H])([H])C12OC3([H])OC4([H])C([H])(C1(C([H])([H])[H])O2)C1(O[H])C2([H])OC1(OC([H])([H])[H])C1([H])OC15C(=O)OC(C([H])([H])[H])(C([H])([H])[H])OC5([H])C([H])([H])C3([H])OC1([H])C3(O[H])C([H])=C3C2(C([H])([H])[H])C14[H]

$$$$
9:0:2
     RDKit          3D

 72 81  0  0  1  0  0  0  0  0999 V2000
    4.5269   -2.0559    5.0182 C   0  0  0  0  0  0  0  0  0  0  0  0
    3.6469   -3.0247    4.4654 O   0  0  0  0  0  0  0  0  0  0  0  0
    4.2016   -4.1339    3.7331 C   0  0  1  0  0  0  0  0  0  0  0  0
    3.1270   -4.9091    3.1564 O   0  0  0  0  0  0  0  0  0  0  0  0
    2.9665   -5.6027    4.4177 C   0  0  1  0  0  0  0  0  0  0  0  0
    2.4708   -7.0512    4.3544 C   0  0  1  0  0  0  0  0  0  0  0  0
    2.2879   -7.6256    5.7766 C   0  0  0  0  0  0  0  0  0  0  0  0
    1.1744   -7.1233    3.5835 C   0  0  0  0  0  0  0  0  0  0  0  0
    0.5755   -8.2419    3.3524 C   0  0  0  0  0  0  0  0  0  0  0  0
    1.4029   -7.6406    2.2295 C   0  0  1  0  0  0  0  0  0  0  0  0
    0.5780   -7.0758    1.2325 O   0  0  0  0  0  0  0  0  0  0  0  0
    2.8901   -7.9189    2.0455 C   0  0  1  0  0  0  0  0  0  0  0  0
    3.4539   -6.7899    1.4267 O   0  0  0  0  0  0  0  0  0  0  0  0
    4.6334   -6.9787    0.6809 C   0  0  1  0  0  0  0  0  0  0  0  0
    4.8577   -5.7577   -0.2307 C   0  0  0  0  0  0  0  0  0  0  0  0
    4.3079   -4.3814    0.2580 C   0  0  2  0  0  0  0  0  0  0  0  0
    4.0431   -3.5387   -0.8553 O   0  0  0  0  0  0  0  0  0  0  0  0
    5.1397   -2.9799   -1.5277 C   0  0  0  0  0  0  0  0  0  0  0  0
    5.1925   -3.5632   -2.9396 C   0  0  0  0  0  0  0  0  0  0  0  0
    4.9246   -1.4475   -1.5699 C   0  0  0  0  0  0  0  0  0  0  0  0
    6.3795   -3.2312   -0.9622 O   0  0  0  0  0  0  0  0  0  0  0  0
    6.4689   -3.1305    0.3609 C   0  0  0  0  0  0  0  0  0  0  0  0
    7.4200   -2.5852    0.8729 O   0  0  0  0  0  0  0  0  0  0  0  0
    5.2617   -3.6279    1.1609 C   0  0  1  0  0  0  0  0  0  0  0  0
    4.7078   -2.5492    1.9044 O   0  0  0  0  0  0  0  0  0  0  0  0
    5.2402   -3.6073    2.7076 C   0  0  1  0  0  0  0  0  0  0  0  0
    5.8894   -7.2566    1.5636 C   0  0  2  0  0  0  0  0  0  0  0  0
    5.6089   -8.1938    2.5465 O   0  0  0  0  0  0  0  0  0  0  0  0
    4.9084   -7.7057    3.6906 C   0  0  2  0  0  0  0  0  0  0  0  0
    3.4085   -7.9445    3.5031 C   0  0  1  0  0  0  0  0  0  0  0  0
    5.4278   -6.4745    4.5373 C   0  0  1  0  0  0  0  0  0  0  0  0
    6.8857   -6.0579    4.2362 C   0  0  1  0  0  0  0  0  0  0  0  0
    7.4811   -5.2308    5.3594 C   0  0  0  0  0  0  0  0  0  0  0  0
    7.6632   -7.1845    3.8653 O   0  0  0  0  0  0  0  0  0  0  0  0
    7.5331   -6.1840    2.8548 C   0  0  2  0  0  0  0  0  0  0  0  0
    8.7666   -5.3630    2.4342 C   0  0  0  0  0  0  0  0  0  0  0  0
    9.3899   -5.8168    1.2950 O   0  0  0  0  0  0  0  0  0  0  0  0
    6.3516   -6.0712    2.1001 O   0  0  0  0  0  0  0  0  0  0  0  0
    4.4224   -5.3068    4.7448 C   0  0  1  0  0  0  0  0  0  0  0  0
    4.5673   -4.9296    6.0966 O   0  0  0  0  0  0  0  0  0  0  0  0
    3.9687   -1.4125    5.6958 H   0  0  0  0  0  0  0  0  0  0  0  0
    4.9586   -1.4085    4.2601 H   0  0  0  0  0  0  0  0  0  0  0  0
    5.3325   -2.5073    5.5869 H   0  0  0  0  0  0  0  0  0  0  0  0
    2.3305   -5.0139    5.0793 H   0  0  0  0  0  0  0  0  0  0  0  0
    3.2369   -7.6071    6.3108 H   0  0  0  0  0  0  0  0  0  0  0  0
    1.9418   -8.6629    5.7758 H   0  0  0  0  0  0  0  0  0  0  0  0
    1.5690   -7.0451    6.3630 H   0  0  0  0  0  0  0  0  0  0  0  0
    0.1106   -9.1752    3.6371 H   0  0  0  0  0  0  0  0  0  0  0  0
    0.4041   -7.7774    0.6171 H   0  0  0  0  0  0  0  0  0  0  0  0
    3.0653   -8.8475    1.4995 H   0  0  0  0  0  0  0  0  0  0  0  0
    4.4744   -7.8489    0.0524 H   0  0  0  0  0  0  0  0  0  0  0  0
    5.8914   -5.7024   -0.5931 H   0  0  0  0  0  0  0  0  0  0  0  0
    4.2757   -5.9716   -1.1161 H   0  0  0  0  0  0  0  0  0  0  0  0
    3.3547   -4.4571    0.7801 H   0  0  0  0  0  0  0  0  0  0  0  0
    5.3752   -4.6312   -2.8643 H   0  0  0  0  0  0  0  0  0  0  0  0
    6.0157   -3.1170   -3.5057 H   0  0  0  0  0  0  0  0  0  0  0  0
    4.2429   -3.4041   -3.4595 H   0  0  0  0  0  0  0  0  0  0  0  0
    4.8518   -1.0410   -0.5544 H   0  0  0  0  0  0  0  0  0  0  0  0
    3.9982   -1.2066   -2.0978 H   0  0  0  0  0  0  0  0  0  0  0  0
    5.7622   -0.9554   -2.0744 H   0  0  0  0  0  0  0  0  0  0  0  0
    6.1887   -3.3561    3.1638 H   0  0  0  0  0  0  0  0  0  0  0  0
    6.6908   -7.6836    0.9584 H   0  0  0  0  0  0  0  0  0  0  0  0
    5.1774   -8.5034    4.3762 H   0  0  0  0  0  0  0  0  0  0  0  0
    3.2419   -8.9697    3.8264 H   0  0  0  0  0  0  0  0  0  0  0  0
    5.5594   -6.9237    5.5225 H   0  0  0  0  0  0  0  0  0  0  0  0
    7.0385   -4.2414    5.3874 H   0  0  0  0  0  0  0  0  0  0  0  0
    8.5591   -5.1371    5.2568 H   0  0  0  0  0  0  0  0  0  0  0  0
    7.2964   -5.7003    6.3110 H   0  0  0  0  0  0  0  0  0  0  0  0
    8.5332   -4.3312    2.2191 H   0  0  0  0  0  0  0  0  0  0  0  0
    9.4620   -5.4002    3.2589 H   0  0  0  0  0  0  0  0  0  0  0  0
    9.7808   -6.7391    1.4491 H   0  0  0  0  0  0  0  0  0  0  0  0
    5.4141   -4.5094    6.1673 H   0  0  0  0  0  0  0  0  0  0  0  0
  1  2  1  0
  1 41  1  0
  1 42  1  0
  1 43  1  0
  3  2  1  1
  3 26  1  0
  3 39  1  0
  3  4  1  0
  4  5  1  0
  5 39  1  0
  5  6  1  0
  5 44  1  1
  6 30  1  0
  6  7  1  1
  6  8  1  0
  7 45  1  0
  7 46  1  0
  7 47  1  0
  8 10  1  0
  8  9  2  0
  9 10  1  0
  9 48  1  0
 10 11  1  6
 10 12  1  0
 11 49  1  0
 12 30  1  0
 12 13  1  0
 12 50  1  6
 13 14  1  0
 14 15  1  0
 14 27  1  0
 14 51  1  6
 15 16  1  0
 15 52  1  0
 15 53  1  0
 16 24  1  0
 16 17  1  0
 16 54  1  1
 17 18  1  0
 18 19  1  0
 18 20  1  0
 18 21  1  0
 19 55  1  0
 19 56  1  0
 19 57  1  0
 20 58  1  0
 20 59  1  0
 20 60  1  0
 21 22  1  0
 22 23  2  0
 22 24  1  0
 24 26  1  0
 24 25  1  6
 25 26  1  0
 26 61  1  1
 27 38  1  0
 27 28  1  0
 27 62  1  6
 28 29  1  0
 29 30  1  0
 29 31  1  0
 29 63  1  1
 30 64  1  1
 31 32  1  0
 31 39  1  0
 31 65  1  1
 32 35  1  0
 32 33  1  1
 32 34  1  0
 33 66  1  0
 33 67  1  0
 33 68  1  0
 34 35  1  0
 35 36  1  6
 35 38  1  0
 36 37  1  0
 36 69  1  0
 36 70  1  0
 37 71  1  0
 39 40  1  1
 40 72  1  0
M  END
>  <i_m_ct_stereo_status>  (15) 
1

>  <s_m_source_file>  (15) 
/var/tmp/pbs.5076253.sched01/tmpsnpm1fw8/0c_pn72ob.sdf

>  <i_m_source_file_index>  (15) 
18

>  <i_lp_mmshare_version>  (15) 
48012

>  <i_f3d_flags>  (15) 
0

>  <s_epik_input>  (15) 
W09IXVtDSDJdW0NAXShPMSkoTzIpW0NAQF0xKFtDSDNdKVtDQEhdM1tDQEBdKFtPSF0pKFtDQF0oTzQpKFtDQEBIXTVPNilPW0NIM10pW0NAQEhdNFtDQEBdKFtDSDNdKShDPTdDKFtDSF03KShbT0hdKVtDQEhdOE85KVtDQEBIXThbQ0BIXTNPW0NASF0yW0NAQEhdOVtDSDJdW0NAQEhdKFtDQF0xNTYpT0MoW0NIM10pKFtDSDNdKU9DMT1P

>  <s_epik_cmdline>  (15) 
J2VwaWtfcHl0aG9uJywgJy1waHQnLCAnMi4wJywgJy1waCcsICc3LjAnLCAnLXRuJywgJzgnLCAnLW1hJywgJzIwMCcsICctaW1hZScsICc8aW5maWxlLm1hZT4nLCAnLW9tYWUnLCAnPG91dGZpbGUubWFlPic=

>  <r_lp_tautomer_probability>  (15) 
1

>  <r_epik_Ionization_Penalty>  (15) 
1.57205e-05

>  <r_epik_Ionization_Penalty_Charging>  (15) 
0

>  <r_epik_Ionization_Penalty_Neutral>  (15) 
1.57205e-05

>  <r_epik_State_Penalty>  (15) 
-0

>  <r_epik_Charging_Adjusted_Penalty>  (15) 
0

>  <i_epik_Tot_Q>  (15) 
0

>  <i_epik_Tot_abs_Q>  (15) 
0

>  <s_epik_Chemistry_Notes>  (15) 
This compound has an ester and may undergo hydrolysis at high or low pH. This compound contains an acetal/aminal-like group ( X-CH(R)-Y where X, Y are N, S, or O) that may be acid/base labile, releasing an aldehyde.

>  <s_lp_Force_Field>  (15) 
OPLS3e

>  <r_lp_Energy>  (15) 
110.322

>  <b_lp_Chiralities_Consistent>  (15) 
1

>  <s_lp_Variant>  (15) 
9:0-1

>  <s_i_glide_gridfile>  (15) 
pfpi4k_grid

>  <i_i_glide_lignum>  (15) 
18

>  <i_i_glide_rotatable_bonds>  (15) 
5

>  <r_i_docking_score>  (15) 
-2.92083

>  <r_i_glide_ligand_efficiency>  (15) 
-0.0730208

>  <r_i_glide_ligand_efficiency_sa>  (15) 
-0.249728

>  <r_i_glide_ligand_efficiency_ln>  (15) 
-0.622927

>  <r_i_glide_gscore>  (15) 
-2.92083

>  <r_i_glide_lipo>  (15) 
-0.408034

>  <r_i_glide_hbond>  (15) 
0

>  <r_i_glide_metal>  (15) 
-0

>  <r_i_glide_rewards>  (15) 
-0.290394

>  <r_i_glide_evdw>  (15) 
-19.3046

>  <r_i_glide_ecoul>  (15) 
-8.6857

>  <r_i_glide_erotb>  (15) 
0.0457146

>  <r_i_glide_esite>  (15) 
-3.12149e-05

>  <r_i_glide_emodel>  (15) 
-32.64

>  <r_i_glide_energy>  (15) 
-27.9903

>  <r_i_glide_einternal>  (15) 
2.16924

>  <r_i_glide_intrahb_reward>  (15) 
-0

>  <i_i_glide_confnum>  (15) 
3

>  <i_i_glide_posenum>  (15) 
23

>  <r_i_glide_eff_state_penalty>  (15) 
0

>  <ligand_id>  (15) 
9

>  <original_smiles>  (15) 
COC12OC3C4(C)C5=CC5(O)C5OC(CC6OC(C)(C)OC(=O)C67OC71)C1OC(C54)C(C4(C)OC4(CO)O1)C32O

>  <smiles>  (15) 
[H]OC([H])([H])C12OC3([H])OC4([H])C([H])(C1(C([H])([H])[H])O2)C1(O[H])C2([H])OC1(OC([H])([H])[H])C1([H])OC15C(=O)OC(C([H])([H])[H])(C([H])([H])[H])OC5([H])C([H])([H])C3([H])OC1([H])C3(O[H])C([H])=C3C2(C([H])([H])[H])C14[H]

$$$$
9:1:0
     RDKit          3D

 72 81  0  0  1  0  0  0  0  0999 V2000
    1.6243   -6.2763    0.8179 C   0  0  0  0  0  0  0  0  0  0  0  0
    1.8522   -5.0980    0.0497 O   0  0  0  0  0  0  0  0  0  0  0  0
    2.8940   -4.1876    0.4626 C   0  0  1  0  0  0  0  0  0  0  0  0
    2.8477   -3.0122   -0.3727 O   0  0  0  0  0  0  0  0  0  0  0  0
    3.5905   -3.7274   -1.4028 C   0  0  1  0  0  0  0  0  0  0  0  0
    4.5534   -2.9505   -2.3137 C   0  0  1  0  0  0  0  0  0  0  0  0
    5.1874   -3.8973   -3.3252 C   0  0  0  0  0  0  0  0  0  0  0  0
    3.9224   -1.8152   -3.0384 C   0  0  0  0  0  0  0  0  0  0  0  0
    2.8246   -1.3048   -2.6537 C   0  0  0  0  0  0  0  0  0  0  0  0
    4.0458   -0.4842   -2.4042 C   0  0  2  0  0  0  0  0  0  0  0  0
    4.2045    0.5416   -3.3750 O   0  0  0  0  0  0  0  0  0  0  0  0
    4.9886   -0.7703   -1.2227 C   0  0  1  0  0  0  0  0  0  0  0  0
    4.1995   -0.8461   -0.0404 O   0  0  0  0  0  0  0  0  0  0  0  0
    4.7978   -0.5199    1.1951 C   0  0  1  0  0  0  0  0  0  0  0  0
    3.6519   -0.2934    2.2096 C   0  0  0  0  0  0  0  0  0  0  0  0
    2.3814   -1.2101    2.1143 C   0  0  2  0  0  0  0  0  0  0  0  0
    1.2864   -0.5542    2.7514 O   0  0  0  0  0  0  0  0  0  0  0  0
    1.2504   -0.5450    4.1571 C   0  0  0  0  0  0  0  0  0  0  0  0
    1.4699    0.8997    4.6303 C   0  0  0  0  0  0  0  0  0  0  0  0
   -0.1395   -1.0844    4.5535 C   0  0  0  0  0  0  0  0  0  0  0  0
    2.2264   -1.3264    4.8099 O   0  0  0  0  0  0  0  0  0  0  0  0
    2.6107   -2.4963    4.2448 C   0  0  0  0  0  0  0  0  0  0  0  0
    2.9010   -3.4788    4.9174 O   0  0  0  0  0  0  0  0  0  0  0  0
    2.5016   -2.6007    2.7554 C   0  0  1  0  0  0  0  0  0  0  0  0
    1.5107   -3.5697    2.4900 O   0  0  0  0  0  0  0  0  0  0  0  0
    2.8090   -3.9119    2.0002 C   0  0  1  0  0  0  0  0  0  0  0  0
    5.8469   -1.5559    1.6823 C   0  0  2  0  0  0  0  0  0  0  0  0
    6.6981   -1.9298    0.6541 O   0  0  0  0  0  0  0  0  0  0  0  0
    6.2136   -2.8857   -0.2944 C   0  0  2  0  0  0  0  0  0  0  0  0
    5.6042   -2.1691   -1.5083 C   0  0  1  0  0  0  0  0  0  0  0  0
    5.6160   -4.2732    0.1531 C   0  0  1  0  0  0  0  0  0  0  0  0
    5.8452   -4.6978    1.6058 C   0  0  1  0  0  0  0  0  0  0  0  0
    5.7809   -6.1988    1.8649 C   0  0  0  0  0  0  0  0  0  0  0  0
    7.0843   -4.2285    1.9981 O   0  0  0  0  0  0  0  0  0  0  0  0
    5.9593   -3.7043    2.7278 C   0  0  2  0  0  0  0  0  0  0  0  0
    5.7733   -4.1047    4.2058 C   0  0  0  0  0  0  0  0  0  0  0  0
    5.7775   -2.9880    5.0757 O   0  0  0  0  0  0  0  0  0  0  0  0
    5.1731   -2.6376    2.2153 O   0  0  0  0  0  0  0  0  0  0  0  0
    4.1948   -4.6062   -0.3166 C   0  0  1  0  0  0  0  0  0  0  0  0
    4.3639   -5.9589   -0.6054 O   0  0  0  0  0  0  0  0  0  0  0  0
    0.9232   -6.9281    0.2844 H   0  0  0  0  0  0  0  0  0  0  0  0
    1.1667   -6.0842    1.7952 H   0  0  0  0  0  0  0  0  0  0  0  0
    2.5375   -6.8548    0.9814 H   0  0  0  0  0  0  0  0  0  0  0  0
    2.8662   -4.2508   -2.0088 H   0  0  0  0  0  0  0  0  0  0  0  0
    5.7304   -4.6579   -2.7807 H   0  0  0  0  0  0  0  0  0  0  0  0
    5.9465   -3.3780   -3.9027 H   0  0  0  0  0  0  0  0  0  0  0  0
    4.4410   -4.3633   -3.9895 H   0  0  0  0  0  0  0  0  0  0  0  0
    1.8414   -1.3591   -2.3774 H   0  0  0  0  0  0  0  0  0  0  0  0
    3.5726    1.2264   -3.0967 H   0  0  0  0  0  0  0  0  0  0  0  0
    5.8078   -0.0672   -1.0956 H   0  0  0  0  0  0  0  0  0  0  0  0
    5.2949    0.4373    1.0458 H   0  0  0  0  0  0  0  0  0  0  0  0
    4.0500   -0.2526    3.2211 H   0  0  0  0  0  0  0  0  0  0  0  0
    3.2788    0.7140    2.0086 H   0  0  0  0  0  0  0  0  0  0  0  0
    2.0571   -1.3126    1.0802 H   0  0  0  0  0  0  0  0  0  0  0  0
    2.4700    1.2312    4.3481 H   0  0  0  0  0  0  0  0  0  0  0  0
    1.3897    0.9533    5.7152 H   0  0  0  0  0  0  0  0  0  0  0  0
    0.7403    1.5642    4.1719 H   0  0  0  0  0  0  0  0  0  0  0  0
   -0.2768   -2.0905    4.1586 H   0  0  0  0  0  0  0  0  0  0  0  0
   -0.9166   -0.4447    4.1406 H   0  0  0  0  0  0  0  0  0  0  0  0
   -0.2314   -1.1177    5.6363 H   0  0  0  0  0  0  0  0  0  0  0  0
    3.2515   -4.7332    2.5695 H   0  0  0  0  0  0  0  0  0  0  0  0
    6.4909   -1.0604    2.4167 H   0  0  0  0  0  0  0  0  0  0  0  0
    7.1746   -3.2053   -0.6943 H   0  0  0  0  0  0  0  0  0  0  0  0
    6.4361   -1.9536   -2.1808 H   0  0  0  0  0  0  0  0  0  0  0  0
    6.2804   -4.9563   -0.3845 H   0  0  0  0  0  0  0  0  0  0  0  0
    4.7428   -6.5205    1.9238 H   0  0  0  0  0  0  0  0  0  0  0  0
    6.2799   -6.4425    2.8125 H   0  0  0  0  0  0  0  0  0  0  0  0
    6.3031   -6.7576    1.0787 H   0  0  0  0  0  0  0  0  0  0  0  0
    4.8917   -4.7246    4.3656 H   0  0  0  0  0  0  0  0  0  0  0  0
    6.5998   -4.7343    4.5533 H   0  0  0  0  0  0  0  0  0  0  0  0
    5.0555   -2.4262    4.8344 H   0  0  0  0  0  0  0  0  0  0  0  0
    3.8661   -6.0930   -1.4311 H   0  0  0  0  0  0  0  0  0  0  0  0
  1  2  1  0
  1 41  1  0
  1 42  1  0
  1 43  1  0
  3  2  1  6
  3 26  1  0
  3 39  1  0
  3  4  1  0
  4  5  1  0
  5 39  1  0
  5  6  1  0
  5 44  1  6
  6 30  1  0
  6  7  1  6
  6  8  1  0
  7 45  1  0
  7 46  1  0
  7 47  1  0
  8 10  1  0
  8  9  2  0
  9 10  1  0
  9 48  1  0
 10 11  1  6
 10 12  1  0
 11 49  1  0
 12 30  1  0
 12 13  1  0
 12 50  1  1
 13 14  1  0
 14 15  1  0
 14 27  1  0
 14 51  1  6
 15 16  1  0
 15 52  1  0
 15 53  1  0
 16 24  1  0
 16 17  1  0
 16 54  1  6
 17 18  1  0
 18 19  1  0
 18 20  1  0
 18 21  1  0
 19 55  1  0
 19 56  1  0
 19 57  1  0
 20 58  1  0
 20 59  1  0
 20 60  1  0
 21 22  1  0
 22 23  2  0
 22 24  1  0
 24 26  1  0
 24 25  1  1
 25 26  1  0
 26 61  1  1
 27 38  1  0
 27 28  1  0
 27 62  1  1
 28 29  1  0
 29 30  1  0
 29 31  1  0
 29 63  1  6
 30 64  1  6
 31 32  1  0
 31 39  1  0
 31 65  1  6
 32 35  1  0
 32 33  1  1
 32 34  1  0
 33 66  1  0
 33 67  1  0
 33 68  1  0
 34 35  1  0
 35 36  1  1
 35 38  1  0
 36 37  1  0
 36 69  1  0
 36 70  1  0
 37 71  1  0
 39 40  1  6
 40 72  1  0
M  END
>  <i_m_ct_stereo_status>  (16) 
1

>  <s_m_source_file>  (16) 
/var/tmp/pbs.5076253.sched01/tmpsnpm1fw8/0c_pn72ob.sdf

>  <i_m_source_file_index>  (16) 
19

>  <i_lp_mmshare_version>  (16) 
48012

>  <i_f3d_flags>  (16) 
0

>  <s_epik_input>  (16) 
W09IXVtDSDJdW0NAXShPMSkoTzIpW0NAQF0xKFtDSDNdKVtDQEhdM1tDQEBdKFtPSF0pKFtDQF0oTzQpKFtDQEBIXTVPNilPW0NIM10pW0NAQEhdNFtDQEBdKFtDSDNdKShDPTdDKFtDSF03KShbT0hdKVtDQEhdOE85KVtDQEBIXThbQ0BIXTNPW0NASF0yW0NAQEhdOVtDSDJdW0NAQEhdKFtDQF0xNTYpT0MoW0NIM10pKFtDSDNdKU9DMT1P

>  <s_epik_cmdline>  (16) 
J2VwaWtfcHl0aG9uJywgJy1waHQnLCAnMi4wJywgJy1waCcsICc3LjAnLCAnLXRuJywgJzgnLCAnLW1hJywgJzIwMCcsICctaW1hZScsICc8aW5maWxlLm1hZT4nLCAnLW9tYWUnLCAnPG91dGZpbGUubWFlPic=

>  <r_lp_tautomer_probability>  (16) 
1

>  <r_epik_Ionization_Penalty>  (16) 
1.57205e-05

>  <r_epik_Ionization_Penalty_Charging>  (16) 
0

>  <r_epik_Ionization_Penalty_Neutral>  (16) 
1.57205e-05

>  <r_epik_State_Penalty>  (16) 
-0

>  <r_epik_Charging_Adjusted_Penalty>  (16) 
0

>  <i_epik_Tot_Q>  (16) 
0

>  <i_epik_Tot_abs_Q>  (16) 
0

>  <s_epik_Chemistry_Notes>  (16) 
This compound has an ester and may undergo hydrolysis at high or low pH. This compound contains an acetal/aminal-like group ( X-CH(R)-Y where X, Y are N, S, or O) that may be acid/base labile, releasing an aldehyde.

>  <s_lp_Force_Field>  (16) 
OPLS3e

>  <r_lp_Energy>  (16) 
106.426

>  <b_lp_Chiralities_Consistent>  (16) 
1

>  <s_lp_Variant>  (16) 
9:0-2

>  <s_i_glide_gridfile>  (16) 
pfpi4k_grid

>  <i_i_glide_lignum>  (16) 
19

>  <i_i_glide_rotatable_bonds>  (16) 
5

>  <r_i_docking_score>  (16) 
-2.57505

>  <r_i_glide_ligand_efficiency>  (16) 
-0.0643761

>  <r_i_glide_ligand_efficiency_sa>  (16) 
-0.220163

>  <r_i_glide_ligand_efficiency_ln>  (16) 
-0.549181

>  <r_i_glide_gscore>  (16) 
-2.57505

>  <r_i_glide_lipo>  (16) 
-0.622084

>  <r_i_glide_hbond>  (16) 
-0.370197

>  <r_i_glide_metal>  (16) 
-0

>  <r_i_glide_rewards>  (16) 
-0.222118

>  <r_i_glide_evdw>  (16) 
0.741112

>  <r_i_glide_ecoul>  (16) 
-9.59552

>  <r_i_glide_erotb>  (16) 
0.0653066

>  <r_i_glide_esite>  (16) 
-0.0236806

>  <r_i_glide_emodel>  (16) 
-8.26758

>  <r_i_glide_energy>  (16) 
-8.85441

>  <r_i_glide_einternal>  (16) 
5.72346

>  <r_i_glide_intrahb_reward>  (16) 
-0

>  <i_i_glide_confnum>  (16) 
2

>  <i_i_glide_posenum>  (16) 
14

>  <r_i_glide_eff_state_penalty>  (16) 
0

>  <ligand_id>  (16) 
9

>  <original_smiles>  (16) 
COC12OC3C4(C)C5=CC5(O)C5OC(CC6OC(C)(C)OC(=O)C67OC71)C1OC(C54)C(C4(C)OC4(CO)O1)C32O

>  <smiles>  (16) 
[H]OC([H])([H])C12OC3([H])OC4([H])C([H])(C1(C([H])([H])[H])O2)C1(O[H])C2([H])OC1(OC([H])([H])[H])C1([H])OC15C(=O)OC(C([H])([H])[H])(C([H])([H])[H])OC5([H])C([H])([H])C3([H])OC1([H])C3(O[H])C([H])=C3C2(C([H])([H])[H])C14[H]

$$$$
12:0:0
     RDKit          3D

123136  0  0  1  0  0  0  0  0999 V2000
    7.8252   -4.2068    0.2378 C   0  0  0  0  0  0  0  0  0  0  0  0
    7.0536   -3.3419    1.0561 O   0  0  0  0  0  0  0  0  0  0  0  0
    5.7095   -3.2011    0.6029 C   0  0  2  0  0  0  0  0  0  0  0  0
    5.5943   -2.4065   -0.6105 O   0  0  0  0  0  0  0  0  0  0  0  0
    5.3570   -1.2369    0.2198 C   0  0  1  0  0  0  0  0  0  0  0  0
    4.3419   -0.2786   -0.3720 C   0  0  0  0  0  0  0  0  0  0  0  0
    4.9342   -2.1214    1.3852 C   0  0  2  0  0  0  0  0  0  0  0  0
    5.5305   -1.7649    2.6294 O   0  0  0  0  0  0  0  0  0  0  0  0
    4.4538   -1.7953    3.5777 C   0  0  2  0  0  0  0  0  0  0  0  0
    3.5648   -2.9289    3.1360 C   0  0  1  0  0  0  0  0  0  0  0  0
    2.2022   -2.9400    3.7733 C   0  0  0  0  0  0  0  0  0  0  0  0
    1.6290   -1.8817    4.4021 C   0  0  0  0  0  0  0  0  0  0  0  0
    0.1267   -2.0241    4.7323 C   0  0  1  0  0  0  0  0  0  0  0  0
   -0.0944   -2.5147    6.0544 O   0  0  0  0  0  0  0  0  0  0  0  0
   -0.1143   -3.9130    6.2254 C   0  0  2  0  0  0  0  0  0  0  0  0
   -0.2811   -4.1526    7.7363 C   0  0  0  0  0  0  0  0  0  0  0  0
   -0.6837   -5.4713    8.0470 O   0  0  0  0  0  0  0  0  0  0  0  0
    0.4295   -6.2893    8.3244 C   0  0  1  0  0  0  0  0  0  0  0  0
    0.4638   -7.5461    7.6629 O   0  0  0  0  0  0  0  0  0  0  0  0
    1.3453   -6.5290    7.1760 C   0  0  1  0  0  0  0  0  0  0  0  0
    1.1029   -5.9879    5.7532 C   0  0  0  0  0  0  0  0  0  0  0  0
    2.3265   -6.3188    4.8909 C   0  0  0  0  0  0  0  0  0  0  0  0
   -0.1408   -6.6118    5.0855 C   0  0  0  0  0  0  0  0  0  0  0  0
    1.0420   -4.5596    5.7651 O   0  0  0  0  0  0  0  0  0  0  0  0
   -0.7437   -0.7580    4.4631 C   0  0  0  0  0  0  0  0  0  0  0  0
    0.0497    0.4828    4.8306 C   0  0  2  0  0  0  0  0  0  0  0  0
   -0.6597    1.7867    5.1561 C   0  0  1  0  0  0  0  0  0  0  0  0
   -1.4717    1.9281    6.3299 O   0  0  0  0  0  0  0  0  0  0  0  0
   -0.1364    2.4552    6.3572 C   0  0  2  0  0  0  0  0  0  0  0  0
    0.0602    3.9237    6.6149 C   0  0  0  0  0  0  0  0  0  0  0  0
    0.6986    3.5583    7.9472 C   0  0  1  0  0  0  0  0  0  0  0  0
   -0.1263    3.8982    9.0307 O   0  0  0  0  0  0  0  0  0  0  0  0
   -0.4827    2.7074    9.6277 C   0  0  0  0  0  0  0  0  0  0  0  0
    0.4557    2.4590   10.8227 C   0  0  0  0  0  0  0  0  0  0  0  0
   -1.9457    2.8311   10.0529 C   0  0  0  0  0  0  0  0  0  0  0  0
   -0.3767    1.6645    8.7048 O   0  0  0  0  0  0  0  0  0  0  0  0
    0.5417    2.0587    7.6861 C   0  0  1  0  0  0  0  0  0  0  0  0
    1.8119    1.1720    7.6015 C   0  0  2  0  0  0  0  0  0  0  0  0
    2.3431    1.1997    6.2774 O   0  0  0  0  0  0  0  0  0  0  0  0
    3.0386    0.0104    5.8421 C   0  0  1  0  0  0  0  0  0  0  0  0
    4.4848    0.6300    5.7436 C   0  0  0  0  0  0  0  0  0  0  0  0
    5.4646   -0.2979    6.1665 O   0  0  0  0  0  0  0  0  0  0  0  0
    5.3412   -0.5391    7.5519 C   0  0  2  0  0  0  0  0  0  0  0  0
    6.2681    0.3359    8.3990 C   0  0  0  0  0  0  0  0  0  0  0  0
    7.2893   -0.8211    8.4404 C   0  0  1  0  0  0  0  0  0  0  0  0
    8.0285   -1.0791    9.7522 C   0  0  0  0  0  0  0  0  0  0  0  0
    6.1449   -1.7605    8.0395 C   0  0  0  0  0  0  0  0  0  0  0  0
    4.0219   -0.4504    8.0580 O   0  0  0  0  0  0  0  0  0  0  0  0
    2.9687   -0.8512    7.1756 C   0  0  2  0  0  0  0  0  0  0  0  0
    3.1029   -2.3780    7.1002 C   0  0  0  0  0  0  0  0  0  0  0  0
    1.7163   -0.3336    7.9054 C   0  0  1  0  0  0  0  0  0  0  0  0
    1.8117   -0.5808    9.3124 O   0  0  0  0  0  0  0  0  0  0  0  0
    0.8616   -1.2508    9.9490 C   0  0  0  0  0  0  0  0  0  0  0  0
    1.1491   -1.5237   11.4162 C   0  0  0  0  0  0  0  0  0  0  0  0
   -0.1895   -1.6545    9.4299 O   0  0  0  0  0  0  0  0  0  0  0  0
    2.3575   -0.4838    4.4128 C   0  0  2  0  0  0  0  0  0  0  0  0
    1.3192    0.6210    3.9497 C   0  0  1  0  0  0  0  0  0  0  0  0
    0.9584    0.5194    2.5704 O   0  0  0  0  0  0  0  0  0  0  0  0
    0.5239    1.7059    1.9123 C   0  0  0  0  0  0  0  0  0  0  0  0
    3.4851   -0.6086    3.2998 C   0  0  2  0  0  0  0  0  0  0  0  0
    2.9451   -1.0517    2.0411 O   0  0  0  0  0  0  0  0  0  0  0  0
    3.4686   -2.3180    1.7665 C   0  0  1  0  0  0  0  0  0  0  0  0
    2.7152   -3.0687    0.8486 O   0  0  0  0  0  0  0  0  0  0  0  0
    8.8459   -4.2617    0.6108 H   0  0  0  0  0  0  0  0  0  0  0  0
    7.8691   -3.8466   -0.7903 H   0  0  0  0  0  0  0  0  0  0  0  0
    7.4224   -5.2195    0.2349 H   0  0  0  0  0  0  0  0  0  0  0  0
    5.1706   -4.1420    0.5130 H   0  0  0  0  0  0  0  0  0  0  0  0
    6.3088   -0.7566    0.4507 H   0  0  0  0  0  0  0  0  0  0  0  0
    4.2245    0.5619    0.3193 H   0  0  0  0  0  0  0  0  0  0  0  0
    3.3465   -0.7157   -0.5029 H   0  0  0  0  0  0  0  0  0  0  0  0
    4.6612    0.0978   -1.3432 H   0  0  0  0  0  0  0  0  0  0  0  0
    4.8266   -1.8852    4.5906 H   0  0  0  0  0  0  0  0  0  0  0  0
    4.0518   -3.9037    3.1219 H   0  0  0  0  0  0  0  0  0  0  0  0
    1.6397   -3.8310    3.5745 H   0  0  0  0  0  0  0  0  0  0  0  0
   -0.2810   -2.7697    4.0480 H   0  0  0  0  0  0  0  0  0  0  0  0
   -0.9848   -4.2747    5.6806 H   0  0  0  0  0  0  0  0  0  0  0  0
    0.6329   -3.8723    8.2764 H   0  0  0  0  0  0  0  0  0  0  0  0
   -1.1218   -3.5524    8.0803 H   0  0  0  0  0  0  0  0  0  0  0  0
    0.7944   -6.2916    9.3604 H   0  0  0  0  0  0  0  0  0  0  0  0
    2.3859   -6.6730    7.4455 H   0  0  0  0  0  0  0  0  0  0  0  0
    2.4937   -7.3930    4.8388 H   0  0  0  0  0  0  0  0  0  0  0  0
    3.2338   -5.8671    5.2934 H   0  0  0  0  0  0  0  0  0  0  0  0
    2.2120   -5.9729    3.8641 H   0  0  0  0  0  0  0  0  0  0  0  0
   -0.0155   -7.6828    4.9413 H   0  0  0  0  0  0  0  0  0  0  0  0
   -0.3226   -6.1736    4.1050 H   0  0  0  0  0  0  0  0  0  0  0  0
   -1.0454   -6.4895    5.6747 H   0  0  0  0  0  0  0  0  0  0  0  0
   -0.9820   -0.6935    3.4026 H   0  0  0  0  0  0  0  0  0  0  0  0
   -1.6996   -0.8189    5.0047 H   0  0  0  0  0  0  0  0  0  0  0  0
    0.3467    0.1540    5.8021 H   0  0  0  0  0  0  0  0  0  0  0  0
   -0.8980    2.4468    4.3136 H   0  0  0  0  0  0  0  0  0  0  0  0
    0.7890    4.3633    5.9340 H   0  0  0  0  0  0  0  0  0  0  0  0
   -0.8529    4.5208    6.6866 H   0  0  0  0  0  0  0  0  0  0  0  0
    1.7406    3.8679    8.0081 H   0  0  0  0  0  0  0  0  0  0  0  0
    1.4884    2.3368   10.5009 H   0  0  0  0  0  0  0  0  0  0  0  0
    0.1441    1.5655   11.3638 H   0  0  0  0  0  0  0  0  0  0  0  0
    0.4109    3.3048   11.5116 H   0  0  0  0  0  0  0  0  0  0  0  0
   -2.5674    3.0135    9.1709 H   0  0  0  0  0  0  0  0  0  0  0  0
   -2.0643    3.6672   10.7511 H   0  0  0  0  0  0  0  0  0  0  0  0
   -2.2679    1.9102   10.5479 H   0  0  0  0  0  0  0  0  0  0  0  0
    2.5685    1.5848    8.2627 H   0  0  0  0  0  0  0  0  0  0  0  0
    4.7725    1.0304    4.7813 H   0  0  0  0  0  0  0  0  0  0  0  0
    4.5721    1.4927    6.4107 H   0  0  0  0  0  0  0  0  0  0  0  0
    6.6378    1.2361    7.8864 H   0  0  0  0  0  0  0  0  0  0  0  0
    5.8525    0.5501    9.3909 H   0  0  0  0  0  0  0  0  0  0  0  0
    7.9647   -0.7229    7.5904 H   0  0  0  0  0  0  0  0  0  0  0  0
    7.3477   -1.1473   10.5959 H   0  0  0  0  0  0  0  0  0  0  0  0
    8.7301   -0.2764    9.9674 H   0  0  0  0  0  0  0  0  0  0  0  0
    8.5996   -2.0007    9.7201 H   0  0  0  0  0  0  0  0  0  0  0  0
    5.6920   -2.2461    8.9035 H   0  0  0  0  0  0  0  0  0  0  0  0
    6.4239   -2.4506    7.2383 H   0  0  0  0  0  0  0  0  0  0  0  0
    2.2133   -2.8018    6.6849 H   0  0  0  0  0  0  0  0  0  0  0  0
    3.2292   -2.8147    8.0906 H   0  0  0  0  0  0  0  0  0  0  0  0
    3.9451   -2.6901    6.4881 H   0  0  0  0  0  0  0  0  0  0  0  0
    0.8163   -0.7742    7.4808 H   0  0  0  0  0  0  0  0  0  0  0  0
    1.1884   -0.5740   11.9536 H   0  0  0  0  0  0  0  0  0  0  0  0
    2.0909   -2.0670   11.5474 H   0  0  0  0  0  0  0  0  0  0  0  0
    0.3486   -2.1286   11.8539 H   0  0  0  0  0  0  0  0  0  0  0  0
    1.7933    1.5965    4.0610 H   0  0  0  0  0  0  0  0  0  0  0  0
    0.3509    1.4956    0.8589 H   0  0  0  0  0  0  0  0  0  0  0  0
    1.2810    2.4865    1.9756 H   0  0  0  0  0  0  0  0  0  0  0  0
   -0.4161    2.0912    2.3043 H   0  0  0  0  0  0  0  0  0  0  0  0
    3.9873    0.3307    3.0578 H   0  0  0  0  0  0  0  0  0  0  0  0
    2.6094   -2.5383    0.0568 H   0  0  0  0  0  0  0  0  0  0  0  0
  1  2  1  0
  1 64  1  0
  1 65  1  0
  1 66  1  0
  2  3  1  0
  3  7  1  0
  3  4  1  0
  3 67  1  6
  4  5  1  0
  5  6  1  0
  5  7  1  0
  5 68  1  1
  6 69  1  0
  6 70  1  0
  6 71  1  0
  7 62  1  0
  7  8  1  1
  8  9  1  0
  9 60  1  0
  9 10  1  0
  9 72  1  1
 10 62  1  0
 10 11  1  0
 10 73  1  6
 11 12  2  0
 11 74  1  0
 56 12  1  1
 12 13  1  0
 13 14  1  0
 13 25  1  0
 13 75  1  6
 14 15  1  0
 15 24  1  0
 15 16  1  0
 15 76  1  6
 16 17  1  0
 16 77  1  0
 16 78  1  0
 17 18  1  0
 18 20  1  0
 18 19  1  0
 18 79  1  1
 19 20  1  0
 20 21  1  0
 20 80  1  1
 21 22  1  0
 21 23  1  0
 21 24  1  0
 22 81  1  0
 22 82  1  0
 22 83  1  0
 23 84  1  0
 23 85  1  0
 23 86  1  0
 25 26  1  0
 25 87  1  0
 25 88  1  0
 26 57  1  0
 26 27  1  0
 26 89  1  1
 27 29  1  0
 27 28  1  0
 27 90  1  6
 29 28  1  1
 29 37  1  0
 29 30  1  0
 30 31  1  0
 30 91  1  0
 30 92  1  0
 31 37  1  0
 31 32  1  0
 31 93  1  1
 32 33  1  0
 33 34  1  0
 33 35  1  0
 33 36  1  0
 34 94  1  0
 34 95  1  0
 34 96  1  0
 35 97  1  0
 35 98  1  0
 35 99  1  0
 37 36  1  1
 37 38  1  0
 38 51  1  0
 38 39  1  0
 38100  1  1
 39 40  1  0
 40 49  1  0
 40 41  1  6
 40 56  1  0
 41 42  1  0
 41101  1  0
 41102  1  0
 43 42  1  6
 43 47  1  0
 43 44  1  0
 43 48  1  0
 44 45  1  0
 44103  1  0
 44104  1  0
 45 46  1  0
 45 47  1  0
 45105  1  6
 46106  1  0
 46107  1  0
 46108  1  0
 47109  1  0
 47110  1  0
 48 49  1  0
 49 50  1  6
 49 51  1  0
 50111  1  0
 50112  1  0
 50113  1  0
 51 52  1  0
 51114  1  6
 52 53  1  0
 53 54  1  0
 53 55  2  0
 54115  1  0
 54116  1  0
 54117  1  0
 56 57  1  0
 56 60  1  0
 57 58  1  0
 57118  1  6
 58 59  1  0
 59119  1  0
 59120  1  0
 59121  1  0
 60 61  1  0
 60122  1  6
 61 62  1  0
 62 63  1  6
 63123  1  0
M  END
>  <i_m_ct_stereo_status>  (17) 
1

>  <s_m_source_file>  (17) 
/var/tmp/pbs.5076253.sched01/tmpsnpm1fw8/0c_pn72ob.sdf

>  <i_m_source_file_index>  (17) 
22

>  <i_lp_mmshare_version>  (17) 
48012

>  <i_f3d_flags>  (17) 
0

>  <s_epik_input>  (17) 
W0NIM11bQ0BASF0xT1tDQEBIXShPW0NIM10pW0NAXTEyW0NAQF0zKFtPSF0pW0NASF00W0NAQEhdKE8yKVtDQEBIXShPMylbQ0BdNTZbQ0BdNzhbQ0BAXShbQ0gzXSkoT1tDQEBdOShPW0NIMl04KVtDSDJdW0NAQEhdKFtDSDNdKVtDSDJdOSlbQ0BASF0oT0MoPU8pW0NIM10pW0NAQEhdKE83KVtDQF0xMltDQEBdMyhbQ0gyXVtDQEhdMU9DKE8yKShbQ0gzXSlbQ0gzXSlbQ0BIXShPMylbQ0hdKFtDQEBIXTZPW0NIM10pW0NIMl1bQ0BASF0oQzU9W0NIXTQpT1tDQEhdKFtDSDJdTzEpT0MoW0NIM10pKFtDSDNdKVtDQEhdKE8yKVtDQEBIXTEy

>  <s_epik_cmdline>  (17) 
J2VwaWtfcHl0aG9uJywgJy1waHQnLCAnMi4wJywgJy1waCcsICc3LjAnLCAnLXRuJywgJzgnLCAnLW1hJywgJzIwMCcsICctaW1hZScsICc8aW5maWxlLm1hZT4nLCAnLW9tYWUnLCAnPG91dGZpbGUubWFlPic=

>  <r_epik_Ionization_Penalty>  (17) 
0.000524652

>  <r_epik_Ionization_Penalty_Charging>  (17) 
0

>  <r_epik_Ionization_Penalty_Neutral>  (17) 
0.000524652

>  <r_epik_State_Penalty>  (17) 
0.000327471

>  <r_epik_Charging_Adjusted_Penalty>  (17) 
0.000327471

>  <i_epik_Tot_Q>  (17) 
0

>  <i_epik_Tot_abs_Q>  (17) 
0

>  <s_epik_Chemistry_Notes>  (17) 
This compound has an ester and may undergo hydrolysis at high or low pH. This compound contains an acetal/aminal-like group ( X-CH(R)-Y where X, Y are N, S, or O) that may be acid/base labile, releasing an aldehyde.

>  <s_lp_Force_Field>  (17) 
OPLS3e

>  <r_lp_Energy>  (17) 
115.526

>  <b_lp_Chiralities_Consistent>  (17) 
1

>  <s_lp_Variant>  (17) 
12:0-1

>  <s_i_glide_gridfile>  (17) 
pfpi4k_grid

>  <i_i_glide_lignum>  (17) 
22

>  <i_i_glide_rotatable_bonds>  (17) 
7

>  <r_i_docking_score>  (17) 
-3.03854

>  <r_i_glide_ligand_efficiency>  (17) 
-0.0482309

>  <r_i_glide_ligand_efficiency_sa>  (17) 
-0.191913

>  <r_i_glide_ligand_efficiency_ln>  (17) 
-0.590796

>  <r_i_glide_gscore>  (17) 
-3.03854

>  <r_i_glide_lipo>  (17) 
-0.365701

>  <r_i_glide_hbond>  (17) 
-0.16

>  <r_i_glide_metal>  (17) 
-0

>  <r_i_glide_rewards>  (17) 
-0.0811864

>  <r_i_glide_evdw>  (17) 
-31.5421

>  <r_i_glide_ecoul>  (17) 
-5.85123

>  <r_i_glide_erotb>  (17) 
0.0836062

>  <r_i_glide_esite>  (17) 
-0.0604746

>  <r_i_glide_emodel>  (17) 
-42.9842

>  <r_i_glide_energy>  (17) 
-37.3933

>  <r_i_glide_einternal>  (17) 
1.22609

>  <r_i_glide_intrahb_reward>  (17) 
-0

>  <i_i_glide_confnum>  (17) 
1

>  <i_i_glide_posenum>  (17) 
19

>  <r_i_glide_eff_state_penalty>  (17) 
0

>  <ligand_id>  (17) 
12

>  <original_smiles>  (17) 
COC1OC(C)C12OC1C3C=C4C(OC5COC6OC6C(C)(C)O5)CC5C6OC67CC6OC(C)(C)OC67C6OC7(COC8(CC(C)C8)OC7(C)C6OC(C)=O)C4(C5OC)C1OC32O

>  <smiles>  (17) 
[H]OC12OC3([H])C([H])(OC14C([H])(OC([H])([H])[H])OC4([H])C([H])([H])[H])C2([H])C([H])=C1C([H])(OC2([H])OC(C([H])([H])[H])(C([H])([H])[H])C4([H])OC4([H])OC2([H])[H])C([H])([H])C2([H])C4([H])OC45C([H])([H])C4([H])OC(C([H])([H])[H])(C([H])([H])[H])OC45C4([H])OC5(C([H])([H])OC6(OC5(C([H])([H])[H])C4([H])OC(=O)C([H])([H])[H])C([H])([H])C([H])(C([H])([H])[H])C6([H])[H])C13C2([H])OC([H])([H])[H]

$$$$
12:0:1
     RDKit          3D

123136  0  0  1  0  0  0  0  0999 V2000
    8.5277   -1.6702    0.4441 C   0  0  0  0  0  0  0  0  0  0  0  0
    7.4281   -1.1143    1.1504 O   0  0  0  0  0  0  0  0  0  0  0  0
    6.2853   -1.9397    1.2142 C   0  0  2  0  0  0  0  0  0  0  0  0
    5.5919   -1.9995   -0.0412 O   0  0  0  0  0  0  0  0  0  0  0  0
    4.7792   -0.8854    0.3700 C   0  0  1  0  0  0  0  0  0  0  0  0
    3.3640   -1.0287   -0.1515 C   0  0  0  0  0  0  0  0  0  0  0  0
    5.0999   -1.1723    1.8429 C   0  0  2  0  0  0  0  0  0  0  0  0
    5.4501   -0.0306    2.6213 O   0  0  0  0  0  0  0  0  0  0  0  0
    4.6987   -0.1322    3.8486 C   0  0  2  0  0  0  0  0  0  0  0  0
    4.6826   -1.6040    4.1551 C   0  0  1  0  0  0  0  0  0  0  0  0
    3.6639   -2.0119    5.1897 C   0  0  0  0  0  0  0  0  0  0  0  0
    2.5909   -1.2641    5.5544 C   0  0  0  0  0  0  0  0  0  0  0  0
    1.5118   -1.9982    6.3898 C   0  0  1  0  0  0  0  0  0  0  0  0
    1.6911   -1.8202    7.7915 O   0  0  0  0  0  0  0  0  0  0  0  0
    2.5499   -2.7264    8.4433 C   0  0  2  0  0  0  0  0  0  0  0  0
    2.5701   -2.2905    9.9263 C   0  0  0  0  0  0  0  0  0  0  0  0
    3.0889   -3.3126   10.7535 O   0  0  0  0  0  0  0  0  0  0  0  0
    4.4753   -3.1127   10.9997 C   0  0  1  0  0  0  0  0  0  0  0  0
    5.3077   -4.2592   10.7886 O   0  0  0  0  0  0  0  0  0  0  0  0
    5.3534   -3.2367    9.7776 C   0  0  1  0  0  0  0  0  0  0  0  0
    4.8601   -3.6218    8.3849 C   0  0  0  0  0  0  0  0  0  0  0  0
    6.0368   -3.4817    7.3998 C   0  0  0  0  0  0  0  0  0  0  0  0
    4.3434   -5.0741    8.3050 C   0  0  0  0  0  0  0  0  0  0  0  0
    3.8608   -2.6992    7.9259 O   0  0  0  0  0  0  0  0  0  0  0  0
    0.0319   -1.6947    6.0130 C   0  0  0  0  0  0  0  0  0  0  0  0
   -0.0854   -0.2276    5.6309 C   0  0  2  0  0  0  0  0  0  0  0  0
   -1.4109    0.4758    5.6503 C   0  0  1  0  0  0  0  0  0  0  0  0
   -2.1145    0.6924    6.8655 O   0  0  0  0  0  0  0  0  0  0  0  0
   -1.3998    1.8142    6.3439 C   0  0  2  0  0  0  0  0  0  0  0  0
   -2.1625    3.0597    6.0208 C   0  0  0  0  0  0  0  0  0  0  0  0
   -1.3533    3.7777    7.0939 C   0  0  1  0  0  0  0  0  0  0  0  0
   -2.1386    4.1236    8.2115 O   0  0  0  0  0  0  0  0  0  0  0  0
   -1.6353    3.3770    9.2576 C   0  0  0  0  0  0  0  0  0  0  0  0
   -0.6648    4.2637   10.0753 C   0  0  0  0  0  0  0  0  0  0  0  0
   -2.8140    2.8971   10.1018 C   0  0  0  0  0  0  0  0  0  0  0  0
   -0.9858    2.2458    8.7523 O   0  0  0  0  0  0  0  0  0  0  0  0
   -0.5575    2.5118    7.4258 C   0  0  1  0  0  0  0  0  0  0  0  0
    0.9831    2.5203    7.2408 C   0  0  2  0  0  0  0  0  0  0  0  0
    1.2979    2.1802    5.8994 O   0  0  0  0  0  0  0  0  0  0  0  0
    2.5561    1.5144    5.6904 C   0  0  1  0  0  0  0  0  0  0  0  0
    3.2649    2.6681    4.9013 C   0  0  0  0  0  0  0  0  0  0  0  0
    4.6164    2.7040    5.2733 O   0  0  0  0  0  0  0  0  0  0  0  0
    4.7876    3.1619    6.5971 C   0  0  2  0  0  0  0  0  0  0  0  0
    5.0296    4.6668    6.6830 C   0  0  0  0  0  0  0  0  0  0  0  0
    6.5374    4.3975    6.7642 C   0  0  1  0  0  0  0  0  0  0  0  0
    7.3751    5.2322    7.7324 C   0  0  0  0  0  0  0  0  0  0  0  0
    6.2032    2.9492    7.1209 C   0  0  0  0  0  0  0  0  0  0  0  0
    3.7414    2.7779    7.4597 O   0  0  0  0  0  0  0  0  0  0  0  0
    3.1180    1.5207    7.1740 C   0  0  2  0  0  0  0  0  0  0  0  0
    4.1776    0.4878    7.5679 C   0  0  0  0  0  0  0  0  0  0  0  0
    1.8574    1.5439    8.0547 C   0  0  1  0  0  0  0  0  0  0  0  0
    2.1725    2.0633    9.3419 O   0  0  0  0  0  0  0  0  0  0  0  0
    1.6202    1.5526   10.4482 C   0  0  0  0  0  0  0  0  0  0  0  0
    2.1151    2.2453   11.7101 C   0  0  0  0  0  0  0  0  0  0  0  0
    0.8010    0.6290   10.4921 O   0  0  0  0  0  0  0  0  0  0  0  0
    2.2930    0.1138    4.8355 C   0  0  2  0  0  0  0  0  0  0  0  0
    0.7742    0.1326    4.3946 C   0  0  1  0  0  0  0  0  0  0  0  0
    0.4102   -0.7573    3.3415 O   0  0  0  0  0  0  0  0  0  0  0  0
    0.3629   -0.2011    2.0268 C   0  0  0  0  0  0  0  0  0  0  0  0
    3.1977    0.0661    3.5329 C   0  0  2  0  0  0  0  0  0  0  0  0
    2.9600   -1.1387    2.7694 O   0  0  0  0  0  0  0  0  0  0  0  0
    4.1324   -1.8728    2.7719 C   0  0  1  0  0  0  0  0  0  0  0  0
    3.9692   -3.2377    2.4795 O   0  0  0  0  0  0  0  0  0  0  0  0
    9.3508   -0.9510    0.4920 H   0  0  0  0  0  0  0  0  0  0  0  0
    8.2926   -1.8435   -0.6044 H   0  0  0  0  0  0  0  0  0  0  0  0
    8.8788   -2.6062    0.8742 H   0  0  0  0  0  0  0  0  0  0  0  0
    6.4581   -2.9268    1.6501 H   0  0  0  0  0  0  0  0  0  0  0  0
    5.2448    0.0687    0.1020 H   0  0  0  0  0  0  0  0  0  0  0  0
    2.8191   -0.1601    0.1985 H   0  0  0  0  0  0  0  0  0  0  0  0
    2.8510   -1.9029    0.2463 H   0  0  0  0  0  0  0  0  0  0  0  0
    3.3320   -1.0623   -1.2354 H   0  0  0  0  0  0  0  0  0  0  0  0
    5.1217    0.5087    4.6224 H   0  0  0  0  0  0  0  0  0  0  0  0
    5.6766   -2.0534    4.3187 H   0  0  0  0  0  0  0  0  0  0  0  0
    3.7513   -3.0339    5.5181 H   0  0  0  0  0  0  0  0  0  0  0  0
    1.6112   -3.0608    6.1753 H   0  0  0  0  0  0  0  0  0  0  0  0
    2.0984   -3.7129    8.3370 H   0  0  0  0  0  0  0  0  0  0  0  0
    3.0866   -1.3340   10.0570 H   0  0  0  0  0  0  0  0  0  0  0  0
    1.5384   -2.1725   10.2541 H   0  0  0  0  0  0  0  0  0  0  0  0
    4.7367   -2.4841   11.8354 H   0  0  0  0  0  0  0  0  0  0  0  0
    6.2476   -2.6279    9.8149 H   0  0  0  0  0  0  0  0  0  0  0  0
    6.8593   -4.1413    7.6674 H   0  0  0  0  0  0  0  0  0  0  0  0
    6.4340   -2.4673    7.3855 H   0  0  0  0  0  0  0  0  0  0  0  0
    5.7567   -3.7383    6.3807 H   0  0  0  0  0  0  0  0  0  0  0  0
    5.1408   -5.7882    8.4982 H   0  0  0  0  0  0  0  0  0  0  0  0
    3.9498   -5.2915    7.3148 H   0  0  0  0  0  0  0  0  0  0  0  0
    3.5618   -5.2844    9.0295 H   0  0  0  0  0  0  0  0  0  0  0  0
   -0.2558   -2.3265    5.1696 H   0  0  0  0  0  0  0  0  0  0  0  0
   -0.6256   -1.9566    6.8462 H   0  0  0  0  0  0  0  0  0  0  0  0
    0.3864    0.1708    6.5070 H   0  0  0  0  0  0  0  0  0  0  0  0
   -2.0384    0.3736    4.7669 H   0  0  0  0  0  0  0  0  0  0  0  0
   -1.9257    3.4680    5.0343 H   0  0  0  0  0  0  0  0  0  0  0  0
   -3.2319    3.0155    6.2242 H   0  0  0  0  0  0  0  0  0  0  0  0
   -0.7191    4.5636    6.6939 H   0  0  0  0  0  0  0  0  0  0  0  0
    0.2015    4.5627    9.4871 H   0  0  0  0  0  0  0  0  0  0  0  0
   -0.3265    3.7339   10.9631 H   0  0  0  0  0  0  0  0  0  0  0  0
   -1.1767    5.1676   10.4097 H   0  0  0  0  0  0  0  0  0  0  0  0
   -3.4666    2.2807    9.4859 H   0  0  0  0  0  0  0  0  0  0  0  0
   -3.3765    3.7479   10.4951 H   0  0  0  0  0  0  0  0  0  0  0  0
   -2.4319    2.2944   10.9247 H   0  0  0  0  0  0  0  0  0  0  0  0
    1.3610    3.5284    7.4138 H   0  0  0  0  0  0  0  0  0  0  0  0
    3.1959    2.6325    3.8158 H   0  0  0  0  0  0  0  0  0  0  0  0
    2.8279    3.6441    5.1523 H   0  0  0  0  0  0  0  0  0  0  0  0
    4.7241    5.2328    5.7966 H   0  0  0  0  0  0  0  0  0  0  0  0
    4.6342    5.0807    7.6170 H   0  0  0  0  0  0  0  0  0  0  0  0
    6.9567    4.4076    5.7502 H   0  0  0  0  0  0  0  0  0  0  0  0
    6.9533    5.2393    8.7379 H   0  0  0  0  0  0  0  0  0  0  0  0
    7.4361    6.2685    7.4056 H   0  0  0  0  0  0  0  0  0  0  0  0
    8.3989    4.8716    7.8190 H   0  0  0  0  0  0  0  0  0  0  0  0
    6.2352    2.7792    8.1987 H   0  0  0  0  0  0  0  0  0  0  0  0
    6.8026    2.2337    6.5480 H   0  0  0  0  0  0  0  0  0  0  0  0
    3.6980   -0.4597    7.6485 H   0  0  0  0  0  0  0  0  0  0  0  0
    4.6262    0.7145    8.5374 H   0  0  0  0  0  0  0  0  0  0  0  0
    4.9869    0.4112    6.8407 H   0  0  0  0  0  0  0  0  0  0  0  0
    1.4258    0.5468    8.1266 H   0  0  0  0  0  0  0  0  0  0  0  0
    1.9497    3.3218   11.6414 H   0  0  0  0  0  0  0  0  0  0  0  0
    3.1845    2.0743   11.8426 H   0  0  0  0  0  0  0  0  0  0  0  0
    1.5911    1.8746   12.5916 H   0  0  0  0  0  0  0  0  0  0  0  0
    0.4931    1.1196    4.0288 H   0  0  0  0  0  0  0  0  0  0  0  0
    0.2315   -1.0385    1.3466 H   0  0  0  0  0  0  0  0  0  0  0  0
    1.2914    0.2309    1.7099 H   0  0  0  0  0  0  0  0  0  0  0  0
   -0.4586    0.5243    1.8963 H   0  0  0  0  0  0  0  0  0  0  0  0
    3.0384    0.8826    2.8339 H   0  0  0  0  0  0  0  0  0  0  0  0
    3.6544   -3.3007    1.5841 H   0  0  0  0  0  0  0  0  0  0  0  0
  1  2  1  0
  1 64  1  0
  1 65  1  0
  1 66  1  0
  2  3  1  0
  3  7  1  0
  3  4  1  0
  3 67  1  1
  4  5  1  0
  5  6  1  0
  5  7  1  0
  5 68  1  6
  6 69  1  0
  6 70  1  0
  6 71  1  0
  7 62  1  0
  7  8  1  1
  8  9  1  0
  9 60  1  0
  9 10  1  0
  9 72  1  1
 10 62  1  0
 10 11  1  0
 10 73  1  1
 11 12  2  0
 11 74  1  0
 56 12  1  1
 12 13  1  0
 13 14  1  0
 13 25  1  0
 13 75  1  1
 14 15  1  0
 15 24  1  0
 15 16  1  0
 15 76  1  1
 16 17  1  0
 16 77  1  0
 16 78  1  0
 17 18  1  0
 18 20  1  0
 18 19  1  0
 18 79  1  1
 19 20  1  0
 20 21  1  0
 20 80  1  6
 21 22  1  0
 21 23  1  0
 21 24  1  0
 22 81  1  0
 22 82  1  0
 22 83  1  0
 23 84  1  0
 23 85  1  0
 23 86  1  0
 25 26  1  0
 25 87  1  0
 25 88  1  0
 26 57  1  0
 26 27  1  0
 26 89  1  1
 27 29  1  0
 27 28  1  0
 27 90  1  6
 29 28  1  1
 29 37  1  0
 29 30  1  0
 30 31  1  0
 30 91  1  0
 30 92  1  0
 31 37  1  0
 31 32  1  0
 31 93  1  6
 32 33  1  0
 33 34  1  0
 33 35  1  0
 33 36  1  0
 34 94  1  0
 34 95  1  0
 34 96  1  0
 35 97  1  0
 35 98  1  0
 35 99  1  0
 37 36  1  1
 37 38  1  0
 38 51  1  0
 38 39  1  0
 38100  1  1
 39 40  1  0
 40 49  1  0
 40 41  1  6
 40 56  1  0
 41 42  1  0
 41101  1  0
 41102  1  0
 43 42  1  6
 43 47  1  0
 43 44  1  0
 43 48  1  0
 44 45  1  0
 44103  1  0
 44104  1  0
 45 46  1  0
 45 47  1  0
 45105  1  6
 46106  1  0
 46107  1  0
 46108  1  0
 47109  1  0
 47110  1  0
 48 49  1  0
 49 50  1  1
 49 51  1  0
 50111  1  0
 50112  1  0
 50113  1  0
 51 52  1  0
 51114  1  1
 52 53  1  0
 53 54  1  0
 53 55  2  0
 54115  1  0
 54116  1  0
 54117  1  0
 56 57  1  0
 56 60  1  0
 57 58  1  0
 57118  1  6
 58 59  1  0
 59119  1  0
 59120  1  0
 59121  1  0
 60 61  1  0
 60122  1  6
 61 62  1  0
 62 63  1  6
 63123  1  0
M  END
>  <i_m_ct_stereo_status>  (18) 
1

>  <s_m_source_file>  (18) 
/var/tmp/pbs.5076253.sched01/tmpsnpm1fw8/0c_pn72ob.sdf

>  <i_m_source_file_index>  (18) 
22

>  <i_lp_mmshare_version>  (18) 
48012

>  <i_f3d_flags>  (18) 
0

>  <s_epik_input>  (18) 
W0NIM11bQ0BASF0xT1tDQEBIXShPW0NIM10pW0NAXTEyW0NAQF0zKFtPSF0pW0NASF00W0NAQEhdKE8yKVtDQEBIXShPMylbQ0BdNTZbQ0BdNzhbQ0BAXShbQ0gzXSkoT1tDQEBdOShPW0NIMl04KVtDSDJdW0NAQEhdKFtDSDNdKVtDSDJdOSlbQ0BASF0oT0MoPU8pW0NIM10pW0NAQEhdKE83KVtDQF0xMltDQEBdMyhbQ0gyXVtDQEhdMU9DKE8yKShbQ0gzXSlbQ0gzXSlbQ0BIXShPMylbQ0hdKFtDQEBIXTZPW0NIM10pW0NIMl1bQ0BASF0oQzU9W0NIXTQpT1tDQEhdKFtDSDJdTzEpT0MoW0NIM10pKFtDSDNdKVtDQEhdKE8yKVtDQEBIXTEy

>  <s_epik_cmdline>  (18) 
J2VwaWtfcHl0aG9uJywgJy1waHQnLCAnMi4wJywgJy1waCcsICc3LjAnLCAnLXRuJywgJzgnLCAnLW1hJywgJzIwMCcsICctaW1hZScsICc8aW5maWxlLm1hZT4nLCAnLW9tYWUnLCAnPG91dGZpbGUubWFlPic=

>  <r_epik_Ionization_Penalty>  (18) 
0.000524652

>  <r_epik_Ionization_Penalty_Charging>  (18) 
0

>  <r_epik_Ionization_Penalty_Neutral>  (18) 
0.000524652

>  <r_epik_State_Penalty>  (18) 
0.000327471

>  <r_epik_Charging_Adjusted_Penalty>  (18) 
0.000327471

>  <i_epik_Tot_Q>  (18) 
0

>  <i_epik_Tot_abs_Q>  (18) 
0

>  <s_epik_Chemistry_Notes>  (18) 
This compound has an ester and may undergo hydrolysis at high or low pH. This compound contains an acetal/aminal-like group ( X-CH(R)-Y where X, Y are N, S, or O) that may be acid/base labile, releasing an aldehyde.

>  <s_lp_Force_Field>  (18) 
OPLS3e

>  <r_lp_Energy>  (18) 
115.526

>  <b_lp_Chiralities_Consistent>  (18) 
1

>  <s_lp_Variant>  (18) 
12:0-1

>  <s_i_glide_gridfile>  (18) 
pfpi4k_grid

>  <i_i_glide_lignum>  (18) 
22

>  <i_i_glide_rotatable_bonds>  (18) 
7

>  <r_i_docking_score>  (18) 
-2.70524

>  <r_i_glide_ligand_efficiency>  (18) 
-0.0429403

>  <r_i_glide_ligand_efficiency_sa>  (18) 
-0.170862

>  <r_i_glide_ligand_efficiency_ln>  (18) 
-0.52599

>  <r_i_glide_gscore>  (18) 
-2.70524

>  <r_i_glide_lipo>  (18) 
-0.417087

>  <r_i_glide_hbond>  (18) 
-0.364385

>  <r_i_glide_metal>  (18) 
-0

>  <r_i_glide_rewards>  (18) 
-0.176658

>  <r_i_glide_evdw>  (18) 
-24.0563

>  <r_i_glide_ecoul>  (18) 
-4.07416

>  <r_i_glide_erotb>  (18) 
0.0836062

>  <r_i_glide_esite>  (18) 
-0.016774

>  <r_i_glide_emodel>  (18) 
-31.4671

>  <r_i_glide_energy>  (18) 
-28.1305

>  <r_i_glide_einternal>  (18) 
3.93862

>  <r_i_glide_intrahb_reward>  (18) 
-0

>  <i_i_glide_confnum>  (18) 
1

>  <i_i_glide_posenum>  (18) 
4

>  <r_i_glide_eff_state_penalty>  (18) 
0

>  <ligand_id>  (18) 
12

>  <original_smiles>  (18) 
COC1OC(C)C12OC1C3C=C4C(OC5COC6OC6C(C)(C)O5)CC5C6OC67CC6OC(C)(C)OC67C6OC7(COC8(CC(C)C8)OC7(C)C6OC(C)=O)C4(C5OC)C1OC32O

>  <smiles>  (18) 
[H]OC12OC3([H])C([H])(OC14C([H])(OC([H])([H])[H])OC4([H])C([H])([H])[H])C2([H])C([H])=C1C([H])(OC2([H])OC(C([H])([H])[H])(C([H])([H])[H])C4([H])OC4([H])OC2([H])[H])C([H])([H])C2([H])C4([H])OC45C([H])([H])C4([H])OC(C([H])([H])[H])(C([H])([H])[H])OC45C4([H])OC5(C([H])([H])OC6(OC5(C([H])([H])[H])C4([H])OC(=O)C([H])([H])[H])C([H])([H])C([H])(C([H])([H])[H])C6([H])[H])C13C2([H])OC([H])([H])[H]

$$$$
13:0:0
     RDKit          3D

 45 48  0  0  1  0  0  0  0  0999 V2000
   -0.1133  -10.2234    2.4120 C   0  0  0  0  0  0  0  0  0  0  0  0
   -1.0314   -8.9896    2.3577 C   0  0  0  0  0  0  0  0  0  0  0  0
   -0.4318   -7.8917    3.0989 N   0  0  0  0  0  0  0  0  0  0  0  0
    0.2164   -6.7864    2.5679 C   0  0  0  0  0  0  0  0  0  0  0  0
    0.3442   -6.5915    1.2348 O   0  0  0  0  0  0  0  0  0  0  0  0
    0.6313   -5.9988    3.6162 C   0  0  0  0  0  0  0  0  0  0  0  0
    0.2435   -6.5804    4.8028 C   0  0  0  0  0  0  0  0  0  0  0  0
   -0.3938   -7.7541    4.4788 C   0  0  0  0  0  0  0  0  0  0  0  0
   -0.9530   -8.6474    5.3035 O   0  0  0  0  0  0  0  0  0  0  0  0
    0.6951   -5.6619    5.8976 C   0  0  1  0  0  0  0  0  0  0  0  0
   -0.0855   -5.7545    7.2321 C   0  0  0  0  0  0  0  0  0  0  0  0
    0.2013   -6.9829    7.8819 O   0  0  0  0  0  0  0  0  0  0  0  0
    2.2563   -5.6195    5.9490 C   0  0  1  0  0  0  0  0  0  0  0  0
    2.9943   -6.9443    6.1923 C   0  0  0  0  0  0  0  0  0  0  0  0
    3.6545   -7.1332    7.2148 O   0  0  0  0  0  0  0  0  0  0  0  0
    2.8591   -7.8090    5.1832 O   0  0  0  0  0  0  0  0  0  0  0  0
    3.3729   -9.1147    5.3103 C   0  0  0  0  0  0  0  0  0  0  0  0
    2.5319   -5.0557    4.5554 C   0  0  0  0  0  0  0  0  0  0  0  0
    1.3643   -4.7559    3.9435 C   0  0  0  0  0  0  0  0  0  0  0  0
    0.5624   -4.4458    5.0520 N   0  0  0  0  0  0  0  0  0  0  0  0
    0.2468   -3.1752    5.3845 C   0  0  0  0  0  0  0  0  0  0  0  0
   -0.2583   -2.9117    6.4809 O   0  0  0  0  0  0  0  0  0  0  0  0
    0.4609   -2.0622    4.3895 C   0  0  0  0  0  0  0  0  0  0  0  0
    1.2631   -1.9111    3.2619 C   0  0  0  0  0  0  0  0  0  0  0  0
    1.0520   -0.6737    2.5941 C   0  0  0  0  0  0  0  0  0  0  0  0
    0.1753    0.1642    3.2286 C   0  0  0  0  0  0  0  0  0  0  0  0
   -0.4649   -0.5943    4.6614 S   0  0  0  0  0  0  0  0  0  0  0  0
   -0.5381  -11.0272    1.8033 H   0  0  0  0  0  0  0  0  0  0  0  0
    0.0277  -10.5913    3.4335 H   0  0  0  0  0  0  0  0  0  0  0  0
    0.8749  -10.0089    1.9990 H   0  0  0  0  0  0  0  0  0  0  0  0
   -1.2154   -8.6903    1.3141 H   0  0  0  0  0  0  0  0  0  0  0  0
   -2.0072   -9.2186    2.7977 H   0  0  0  0  0  0  0  0  0  0  0  0
    0.2753   -7.4273    0.7902 H   0  0  0  0  0  0  0  0  0  0  0  0
   -1.2952   -9.4110    4.8391 H   0  0  0  0  0  0  0  0  0  0  0  0
    0.2069   -4.9660    7.9244 H   0  0  0  0  0  0  0  0  0  0  0  0
   -1.1557   -5.6570    7.0317 H   0  0  0  0  0  0  0  0  0  0  0  0
    0.1148   -7.6676    7.2344 H   0  0  0  0  0  0  0  0  0  0  0  0
    2.6102   -4.8735    6.6556 H   0  0  0  0  0  0  0  0  0  0  0  0
    3.1250   -9.6857    4.4154 H   0  0  0  0  0  0  0  0  0  0  0  0
    2.9277   -9.6117    6.1748 H   0  0  0  0  0  0  0  0  0  0  0  0
    4.4570   -9.0833    5.4277 H   0  0  0  0  0  0  0  0  0  0  0  0
    3.4410   -5.3231    4.0211 H   0  0  0  0  0  0  0  0  0  0  0  0
    1.9777   -2.6097    2.8182 H   0  0  0  0  0  0  0  0  0  0  0  0
    1.5568   -0.4630    1.6652 H   0  0  0  0  0  0  0  0  0  0  0  0
   -0.1413    1.1659    2.9375 H   0  0  0  0  0  0  0  0  0  0  0  0
  1  2  1  0
  1 28  1  0
  1 29  1  0
  1 30  1  0
  2  3  1  0
  2 31  1  0
  2 32  1  0
  3  8  1  0
  3  4  1  0
  4  5  1  0
  4  6  2  0
  5 33  1  0
  6 19  1  0
  6  7  1  0
  7  8  2  0
  7 10  1  0
  8  9  1  0
  9 34  1  0
 10 20  1  0
 10 11  1  1
 10 13  1  0
 11 12  1  0
 11 35  1  0
 11 36  1  0
 12 37  1  0
 13 14  1  0
 13 18  1  0
 13 38  1  1
 14 15  2  0
 14 16  1  0
 16 17  1  0
 17 39  1  0
 17 40  1  0
 17 41  1  0
 18 19  2  0
 18 42  1  0
 19 20  1  0
 20 21  1  0
 21 22  2  0
 21 23  1  0
 23 27  1  0
 23 24  2  0
 24 25  1  0
 24 43  1  0
 25 26  2  0
 25 44  1  0
 26 27  1  0
 26 45  1  0
M  END
>  <i_m_ct_stereo_status>  (19) 
1

>  <s_m_source_file>  (19) 
/var/tmp/pbs.5076253.sched01/tmpsnpm1fw8/0c_pn72ob.sdf

>  <i_m_source_file_index>  (19) 
23

>  <i_lp_mmshare_version>  (19) 
48012

>  <i_f3d_flags>  (19) 
0

>  <s_epik_input>  (19) 
W0NIM11bQ0gyXW4oYzFbT0hdKWMoW09IXSljKGMxW0NAQF0yM1tDSDJdW09IXSlDKD1bQ0hdW0NAQEhdMkMoPU8pT1tDSDNdKU4zQyg9TyljNFtjSF1bY0hdW2NIXXM0

>  <s_epik_cmdline>  (19) 
J2VwaWtfcHl0aG9uJywgJy1waHQnLCAnMi4wJywgJy1waCcsICc3LjAnLCAnLXRuJywgJzgnLCAnLW1hJywgJzIwMCcsICctaW1hZScsICc8aW5maWxlLm1hZT4nLCAnLW9tYWUnLCAnPG91dGZpbGUubWFlPic=

>  <r_epik_Ionization_Penalty>  (19) 
0.0157346

>  <r_epik_Ionization_Penalty_Charging>  (19) 
0

>  <r_epik_Ionization_Penalty_Neutral>  (19) 
0.0157346

>  <r_epik_State_Penalty>  (19) 
0.0117603

>  <r_epik_Charging_Adjusted_Penalty>  (19) 
0.0117603

>  <i_epik_Tot_Q>  (19) 
0

>  <i_epik_Tot_abs_Q>  (19) 
0

>  <s_epik_Chemistry_Notes>  (19) 
This compound has an ester and may undergo hydrolysis at high or low pH.

>  <s_lp_Force_Field>  (19) 
OPLS3e

>  <r_lp_Energy>  (19) 
98.9066

>  <b_lp_Chiralities_Consistent>  (19) 
1

>  <s_lp_Variant>  (19) 
13:0-1

>  <s_i_glide_gridfile>  (19) 
pfpi4k_grid

>  <i_i_glide_lignum>  (19) 
23

>  <i_i_glide_rotatable_bonds>  (19) 
9

>  <r_i_docking_score>  (19) 
-3.96068

>  <r_i_glide_ligand_efficiency>  (19) 
-0.146692

>  <r_i_glide_ligand_efficiency_sa>  (19) 
-0.440076

>  <r_i_glide_ligand_efficiency_ln>  (19) 
-0.921981

>  <r_i_glide_gscore>  (19) 
-3.96068

>  <r_i_glide_lipo>  (19) 
-0.351498

>  <r_i_glide_hbond>  (19) 
-0.154221

>  <r_i_glide_metal>  (19) 
-0

>  <r_i_glide_rewards>  (19) 
-1.2472

>  <r_i_glide_evdw>  (19) 
-23.8433

>  <r_i_glide_ecoul>  (19) 
-9.76011

>  <r_i_glide_erotb>  (19) 
0.511851

>  <r_i_glide_esite>  (19) 
-0.0634343

>  <r_i_glide_emodel>  (19) 
-46.2088

>  <r_i_glide_energy>  (19) 
-33.6034

>  <r_i_glide_einternal>  (19) 
3.86652

>  <r_i_glide_intrahb_reward>  (19) 
-0.5

>  <i_i_glide_confnum>  (19) 
5

>  <i_i_glide_posenum>  (19) 
13

>  <r_i_glide_eff_state_penalty>  (19) 
0

>  <ligand_id>  (19) 
13

>  <original_smiles>  (19) 
CCn1c(O)c2c(c1O)C1(CO)C(C(=O)OC)C=C2N1C(=O)c1cccs1

>  <smiles>  (19) 
[H]Oc1c2c(c(O[H])n1C([H])([H])C([H])([H])[H])C1(C([H])([H])O[H])N(C(=O)c3sc([H])c([H])c3[H])C2=C([H])C1([H])C(=O)OC([H])([H])[H]

$$$$
13:0:1
     RDKit          3D

 45 48  0  0  1  0  0  0  0  0999 V2000
   -0.0589  -10.2320    2.3255 C   0  0  0  0  0  0  0  0  0  0  0  0
   -1.0010   -9.0163    2.3610 C   0  0  0  0  0  0  0  0  0  0  0  0
   -0.3605   -7.9175    3.0589 N   0  0  0  0  0  0  0  0  0  0  0  0
    0.3454   -6.8580    2.4901 C   0  0  0  0  0  0  0  0  0  0  0  0
    0.4773   -6.7196    1.1586 O   0  0  0  0  0  0  0  0  0  0  0  0
    0.7860   -6.0445    3.5006 C   0  0  0  0  0  0  0  0  0  0  0  0
    0.3408   -6.5709    4.7066 C   0  0  0  0  0  0  0  0  0  0  0  0
   -0.3314   -7.7254    4.4322 C   0  0  0  0  0  0  0  0  0  0  0  0
   -0.9132   -8.6321    5.2797 O   0  0  0  0  0  0  0  0  0  0  0  0
    0.8222   -5.6053    5.7585 C   0  0  1  0  0  0  0  0  0  0  0  0
    0.0355   -5.6286    7.0943 C   0  0  0  0  0  0  0  0  0  0  0  0
   -1.2630   -5.0974    6.9090 O   0  0  0  0  0  0  0  0  0  0  0  0
    2.3769   -5.6413    5.8399 C   0  0  1  0  0  0  0  0  0  0  0  0
    3.0406   -6.9826    6.1618 C   0  0  0  0  0  0  0  0  0  0  0  0
    3.6640   -7.1499    7.2096 O   0  0  0  0  0  0  0  0  0  0  0  0
    2.9008   -7.8828    5.1845 O   0  0  0  0  0  0  0  0  0  0  0  0
    3.3584   -9.2011    5.3806 C   0  0  0  0  0  0  0  0  0  0  0  0
    2.7015   -5.1621    4.4259 C   0  0  0  0  0  0  0  0  0  0  0  0
    1.5638   -4.8232    3.7834 C   0  0  0  0  0  0  0  0  0  0  0  0
    0.7662   -4.4202    4.8586 N   0  0  0  0  0  0  0  0  0  0  0  0
    0.5391   -3.1179    5.1268 C   0  0  0  0  0  0  0  0  0  0  0  0
    0.0629   -2.7684    6.2156 O   0  0  0  0  0  0  0  0  0  0  0  0
    0.7976   -2.0664    4.0848 C   0  0  0  0  0  0  0  0  0  0  0  0
    1.5785   -2.0137    2.9324 C   0  0  0  0  0  0  0  0  0  0  0  0
    1.4218   -0.7968    2.2186 C   0  0  0  0  0  0  0  0  0  0  0  0
    0.6056    0.1185    2.8315 C   0  0  0  0  0  0  0  0  0  0  0  0
   -0.0409   -0.5389    4.3106 S   0  0  0  0  0  0  0  0  0  0  0  0
   -0.5186  -11.0422    1.7512 H   0  0  0  0  0  0  0  0  0  0  0  0
    0.1795  -10.5985    3.3280 H   0  0  0  0  0  0  0  0  0  0  0  0
    0.8824   -9.9924    1.8300 H   0  0  0  0  0  0  0  0  0  0  0  0
   -1.2835   -8.7041    1.3505 H   0  0  0  0  0  0  0  0  0  0  0  0
   -1.9333   -9.2730    2.8867 H   0  0  0  0  0  0  0  0  0  0  0  0
    0.3730   -7.5690    0.7478 H   0  0  0  0  0  0  0  0  0  0  0  0
   -1.2660   -9.3876    4.8220 H   0  0  0  0  0  0  0  0  0  0  0  0
   -0.0118   -6.6447    7.5117 H   0  0  0  0  0  0  0  0  0  0  0  0
    0.5437   -4.9983    7.8295 H   0  0  0  0  0  0  0  0  0  0  0  0
   -1.1501   -4.2119    6.5860 H   0  0  0  0  0  0  0  0  0  0  0  0
    2.7640   -4.8778    6.5101 H   0  0  0  0  0  0  0  0  0  0  0  0
    3.0986   -9.8000    4.5083 H   0  0  0  0  0  0  0  0  0  0  0  0
    2.8773   -9.6385    6.2578 H   0  0  0  0  0  0  0  0  0  0  0  0
    4.4414   -9.2136    5.5151 H   0  0  0  0  0  0  0  0  0  0  0  0
    3.6087   -5.4935    3.9337 H   0  0  0  0  0  0  0  0  0  0  0  0
    2.2346   -2.7684    2.4956 H   0  0  0  0  0  0  0  0  0  0  0  0
    1.9210   -0.6594    1.2728 H   0  0  0  0  0  0  0  0  0  0  0  0
    0.3230    1.1179    2.4876 H   0  0  0  0  0  0  0  0  0  0  0  0
  1  2  1  0
  1 28  1  0
  1 29  1  0
  1 30  1  0
  2  3  1  0
  2 31  1  0
  2 32  1  0
  3  8  1  0
  3  4  1  0
  4  5  1  0
  4  6  2  0
  5 33  1  0
  6 19  1  0
  6  7  1  0
  7  8  2  0
  7 10  1  0
  8  9  1  0
  9 34  1  0
 10 20  1  0
 10 11  1  1
 10 13  1  0
 11 12  1  0
 11 35  1  0
 11 36  1  0
 12 37  1  0
 13 14  1  0
 13 18  1  0
 13 38  1  1
 14 15  2  0
 14 16  1  0
 16 17  1  0
 17 39  1  0
 17 40  1  0
 17 41  1  0
 18 19  2  0
 18 42  1  0
 19 20  1  0
 20 21  1  0
 21 22  2  0
 21 23  1  0
 23 27  1  0
 23 24  2  0
 24 25  1  0
 24 43  1  0
 25 26  2  0
 25 44  1  0
 26 27  1  0
 26 45  1  0
M  END
>  <i_m_ct_stereo_status>  (20) 
1

>  <s_m_source_file>  (20) 
/var/tmp/pbs.5076253.sched01/tmpsnpm1fw8/0c_pn72ob.sdf

>  <i_m_source_file_index>  (20) 
23

>  <i_lp_mmshare_version>  (20) 
48012

>  <i_f3d_flags>  (20) 
0

>  <s_epik_input>  (20) 
W0NIM11bQ0gyXW4oYzFbT0hdKWMoW09IXSljKGMxW0NAQF0yM1tDSDJdW09IXSlDKD1bQ0hdW0NAQEhdMkMoPU8pT1tDSDNdKU4zQyg9TyljNFtjSF1bY0hdW2NIXXM0

>  <s_epik_cmdline>  (20) 
J2VwaWtfcHl0aG9uJywgJy1waHQnLCAnMi4wJywgJy1waCcsICc3LjAnLCAnLXRuJywgJzgnLCAnLW1hJywgJzIwMCcsICctaW1hZScsICc8aW5maWxlLm1hZT4nLCAnLW9tYWUnLCAnPG91dGZpbGUubWFlPic=

>  <r_epik_Ionization_Penalty>  (20) 
0.0157346

>  <r_epik_Ionization_Penalty_Charging>  (20) 
0

>  <r_epik_Ionization_Penalty_Neutral>  (20) 
0.0157346

>  <r_epik_State_Penalty>  (20) 
0.0117603

>  <r_epik_Charging_Adjusted_Penalty>  (20) 
0.0117603

>  <i_epik_Tot_Q>  (20) 
0

>  <i_epik_Tot_abs_Q>  (20) 
0

>  <s_epik_Chemistry_Notes>  (20) 
This compound has an ester and may undergo hydrolysis at high or low pH.

>  <s_lp_Force_Field>  (20) 
OPLS3e

>  <r_lp_Energy>  (20) 
98.9066

>  <b_lp_Chiralities_Consistent>  (20) 
1

>  <s_lp_Variant>  (20) 
13:0-1

>  <s_i_glide_gridfile>  (20) 
pfpi4k_grid

>  <i_i_glide_lignum>  (20) 
23

>  <i_i_glide_rotatable_bonds>  (20) 
9

>  <r_i_docking_score>  (20) 
-3.82358

>  <r_i_glide_ligand_efficiency>  (20) 
-0.141614

>  <r_i_glide_ligand_efficiency_sa>  (20) 
-0.424842

>  <r_i_glide_ligand_efficiency_ln>  (20) 
-0.890067

>  <r_i_glide_gscore>  (20) 
-3.82358

>  <r_i_glide_lipo>  (20) 
-0.338787

>  <r_i_glide_hbond>  (20) 
-0.233415

>  <r_i_glide_metal>  (20) 
-0

>  <r_i_glide_rewards>  (20) 
-1.2472

>  <r_i_glide_evdw>  (20) 
-23.9863

>  <r_i_glide_ecoul>  (20) 
-8.41417

>  <r_i_glide_erotb>  (20) 
0.511851

>  <r_i_glide_esite>  (20) 
-0.054594

>  <r_i_glide_emodel>  (20) 
-42.2592

>  <r_i_glide_energy>  (20) 
-32.4005

>  <r_i_glide_einternal>  (20) 
7.89846

>  <r_i_glide_intrahb_reward>  (20) 
-0.5

>  <i_i_glide_confnum>  (20) 
6

>  <i_i_glide_posenum>  (20) 
29

>  <r_i_glide_eff_state_penalty>  (20) 
0

>  <ligand_id>  (20) 
13

>  <original_smiles>  (20) 
CCn1c(O)c2c(c1O)C1(CO)C(C(=O)OC)C=C2N1C(=O)c1cccs1

>  <smiles>  (20) 
[H]Oc1c2c(c(O[H])n1C([H])([H])C([H])([H])[H])C1(C([H])([H])O[H])N(C(=O)c3sc([H])c([H])c3[H])C2=C([H])C1([H])C(=O)OC([H])([H])[H]

$$$$
13:0:2
     RDKit          3D

 45 48  0  0  1  0  0  0  0  0999 V2000
    0.2941  -10.2891    2.6422 C   0  0  0  0  0  0  0  0  0  0  0  0
   -0.8229   -9.2406    2.7870 C   0  0  0  0  0  0  0  0  0  0  0  0
   -0.3688   -8.0966    3.5569 N   0  0  0  0  0  0  0  0  0  0  0  0
    0.0677   -6.8715    3.0444 C   0  0  0  0  0  0  0  0  0  0  0  0
    0.0692   -6.5998    1.7096 O   0  0  0  0  0  0  0  0  0  0  0  0
    0.4427   -6.1145    4.1113 C   0  0  0  0  0  0  0  0  0  0  0  0
    0.2315   -6.7919    5.2967 C   0  0  0  0  0  0  0  0  0  0  0  0
   -0.2607   -8.0234    4.9581 C   0  0  0  0  0  0  0  0  0  0  0  0
   -0.5834   -9.0573    5.7706 O   0  0  0  0  0  0  0  0  0  0  0  0
    0.6606   -5.8738    6.4024 C   0  0  1  0  0  0  0  0  0  0  0  0
    0.0302   -6.1060    7.7927 C   0  0  0  0  0  0  0  0  0  0  0  0
    0.3431   -7.3814    8.3034 O   0  0  0  0  0  0  0  0  0  0  0  0
    2.1834   -5.5815    6.3267 C   0  0  1  0  0  0  0  0  0  0  0  0
    3.1334   -6.7700    6.4193 C   0  0  0  0  0  0  0  0  0  0  0  0
    3.8611   -6.8916    7.3988 O   0  0  0  0  0  0  0  0  0  0  0  0
    3.0525   -7.5955    5.3872 O   0  0  0  0  0  0  0  0  0  0  0  0
    3.7696   -8.8075    5.4069 C   0  0  0  0  0  0  0  0  0  0  0  0
    2.2372   -4.9083    4.9396 C   0  0  0  0  0  0  0  0  0  0  0  0
    0.9913   -4.7907    4.4398 C   0  0  0  0  0  0  0  0  0  0  0  0
    0.2786   -4.6446    5.6459 N   0  0  0  0  0  0  0  0  0  0  0  0
   -0.2275   -3.4571    6.1046 C   0  0  0  0  0  0  0  0  0  0  0  0
   -0.7149   -3.3317    7.2367 O   0  0  0  0  0  0  0  0  0  0  0  0
   -0.1684   -2.2495    5.2029 C   0  0  0  0  0  0  0  0  0  0  0  0
    0.7428   -1.7970    4.2855 C   0  0  0  0  0  0  0  0  0  0  0  0
    0.3396   -0.6029    3.6382 C   0  0  0  0  0  0  0  0  0  0  0  0
   -0.8460   -0.1090    4.1016 C   0  0  0  0  0  0  0  0  0  0  0  0
   -1.5010   -1.1262    5.3502 S   0  0  0  0  0  0  0  0  0  0  0  0
   -0.0758  -11.1365    2.0687 H   0  0  0  0  0  0  0  0  0  0  0  0
    0.6266  -10.6579    3.6128 H   0  0  0  0  0  0  0  0  0  0  0  0
    1.1552   -9.8824    2.1135 H   0  0  0  0  0  0  0  0  0  0  0  0
   -1.1705   -8.9230    1.7954 H   0  0  0  0  0  0  0  0  0  0  0  0
   -1.6945   -9.6739    3.2843 H   0  0  0  0  0  0  0  0  0  0  0  0
    0.0427   -7.4256    1.2555 H   0  0  0  0  0  0  0  0  0  0  0  0
   -1.1229   -9.7099    5.3117 H   0  0  0  0  0  0  0  0  0  0  0  0
    0.3989   -5.3688    8.5061 H   0  0  0  0  0  0  0  0  0  0  0  0
   -1.0458   -5.9998    7.7177 H   0  0  0  0  0  0  0  0  0  0  0  0
    1.2627   -7.5457    8.1776 H   0  0  0  0  0  0  0  0  0  0  0  0
    2.4788   -4.7990    7.0412 H   0  0  0  0  0  0  0  0  0  0  0  0
    3.5311   -9.3739    4.5072 H   0  0  0  0  0  0  0  0  0  0  0  0
    3.4932   -9.4093    6.2768 H   0  0  0  0  0  0  0  0  0  0  0  0
    4.8429   -8.6095    5.4294 H   0  0  0  0  0  0  0  0  0  0  0  0
    3.1439   -4.9510    4.3280 H   0  0  0  0  0  0  0  0  0  0  0  0
    1.6834   -2.2581    4.0172 H   0  0  0  0  0  0  0  0  0  0  0  0
    0.9430   -0.1807    2.8508 H   0  0  0  0  0  0  0  0  0  0  0  0
   -1.3778    0.7803    3.7673 H   0  0  0  0  0  0  0  0  0  0  0  0
  1  2  1  0
  1 28  1  0
  1 29  1  0
  1 30  1  0
  2  3  1  0
  2 31  1  0
  2 32  1  0
  3  8  1  0
  3  4  1  0
  4  5  1  0
  4  6  2  0
  5 33  1  0
  6 19  1  0
  6  7  1  0
  7  8  2  0
  7 10  1  0
  8  9  1  0
  9 34  1  0
 10 20  1  0
 10 11  1  1
 10 13  1  0
 11 12  1  0
 11 35  1  0
 11 36  1  0
 12 37  1  0
 13 14  1  0
 13 18  1  0
 13 38  1  1
 14 15  2  0
 14 16  1  0
 16 17  1  0
 17 39  1  0
 17 40  1  0
 17 41  1  0
 18 19  2  0
 18 42  1  0
 19 20  1  0
 20 21  1  0
 21 22  2  0
 21 23  1  0
 23 27  1  0
 23 24  2  0
 24 25  1  0
 24 43  1  0
 25 26  2  0
 25 44  1  0
 26 27  1  0
 26 45  1  0
M  END
>  <i_m_ct_stereo_status>  (21) 
1

>  <s_m_source_file>  (21) 
/var/tmp/pbs.5076253.sched01/tmpsnpm1fw8/0c_pn72ob.sdf

>  <i_m_source_file_index>  (21) 
23

>  <i_lp_mmshare_version>  (21) 
48012

>  <i_f3d_flags>  (21) 
0

>  <s_epik_input>  (21) 
W0NIM11bQ0gyXW4oYzFbT0hdKWMoW09IXSljKGMxW0NAQF0yM1tDSDJdW09IXSlDKD1bQ0hdW0NAQEhdMkMoPU8pT1tDSDNdKU4zQyg9TyljNFtjSF1bY0hdW2NIXXM0

>  <s_epik_cmdline>  (21) 
J2VwaWtfcHl0aG9uJywgJy1waHQnLCAnMi4wJywgJy1waCcsICc3LjAnLCAnLXRuJywgJzgnLCAnLW1hJywgJzIwMCcsICctaW1hZScsICc8aW5maWxlLm1hZT4nLCAnLW9tYWUnLCAnPG91dGZpbGUubWFlPic=

>  <r_epik_Ionization_Penalty>  (21) 
0.0157346

>  <r_epik_Ionization_Penalty_Charging>  (21) 
0

>  <r_epik_Ionization_Penalty_Neutral>  (21) 
0.0157346

>  <r_epik_State_Penalty>  (21) 
0.0117603

>  <r_epik_Charging_Adjusted_Penalty>  (21) 
0.0117603

>  <i_epik_Tot_Q>  (21) 
0

>  <i_epik_Tot_abs_Q>  (21) 
0

>  <s_epik_Chemistry_Notes>  (21) 
This compound has an ester and may undergo hydrolysis at high or low pH.

>  <s_lp_Force_Field>  (21) 
OPLS3e

>  <r_lp_Energy>  (21) 
98.9066

>  <b_lp_Chiralities_Consistent>  (21) 
1

>  <s_lp_Variant>  (21) 
13:0-1

>  <s_i_glide_gridfile>  (21) 
pfpi4k_grid

>  <i_i_glide_lignum>  (21) 
23

>  <i_i_glide_rotatable_bonds>  (21) 
9

>  <r_i_docking_score>  (21) 
-3.60746

>  <r_i_glide_ligand_efficiency>  (21) 
-0.13361

>  <r_i_glide_ligand_efficiency_sa>  (21) 
-0.400829

>  <r_i_glide_ligand_efficiency_ln>  (21) 
-0.839757

>  <r_i_glide_gscore>  (21) 
-3.60746

>  <r_i_glide_lipo>  (21) 
-0.175195

>  <r_i_glide_hbond>  (21) 
-0.194896

>  <r_i_glide_metal>  (21) 
-0

>  <r_i_glide_rewards>  (21) 
-0.747196

>  <r_i_glide_evdw>  (21) 
-24.683

>  <r_i_glide_ecoul>  (21) 
-11.342

>  <r_i_glide_erotb>  (21) 
0.511851

>  <r_i_glide_esite>  (21) 
-0.0665721

>  <r_i_glide_emodel>  (21) 
-41.9036

>  <r_i_glide_energy>  (21) 
-36.025

>  <r_i_glide_einternal>  (21) 
5.47534

>  <r_i_glide_intrahb_reward>  (21) 
-0

>  <i_i_glide_confnum>  (21) 
5

>  <i_i_glide_posenum>  (21) 
28

>  <r_i_glide_eff_state_penalty>  (21) 
0

>  <ligand_id>  (21) 
13

>  <original_smiles>  (21) 
CCn1c(O)c2c(c1O)C1(CO)C(C(=O)OC)C=C2N1C(=O)c1cccs1

>  <smiles>  (21) 
[H]Oc1c2c(c(O[H])n1C([H])([H])C([H])([H])[H])C1(C([H])([H])O[H])N(C(=O)c3sc([H])c([H])c3[H])C2=C([H])C1([H])C(=O)OC([H])([H])[H]

$$$$
13:1:0
     RDKit          3D

 44 47  0  0  1  0  0  0  0  0999 V2000
    6.3805   -1.6621    6.8959 C   0  0  0  0  0  0  0  0  0  0  0  0
    5.9117   -0.3713    6.2155 C   0  0  0  0  0  0  0  0  0  0  0  0
    4.8714   -0.6246    5.2394 N   0  0  0  0  0  0  0  0  0  0  0  0
    3.5366   -0.9664    5.5102 C   0  0  0  0  0  0  0  0  0  0  0  0
    3.0262   -1.0798    6.7628 O   0  0  0  0  0  0  0  0  0  0  0  0
    2.9621   -1.1822    4.3083 C   0  0  0  0  0  0  0  0  0  0  0  0
    3.8479   -0.9124    3.2657 C   0  0  0  0  0  0  0  0  0  0  0  0
    5.0223   -0.5741    3.8450 C   0  0  0  0  0  0  0  0  0  0  0  0
    6.1951   -0.2473    3.2547 O   0  0  0  0  0  0  0  0  0  0  0  0
    3.0826   -1.0658    1.9900 C   0  0  1  0  0  0  0  0  0  0  0  0
    3.6218   -0.3378    0.7367 C   0  0  0  0  0  0  0  0  0  0  0  0
    4.8780   -0.8440    0.3355 O   0  0  0  0  0  0  0  0  0  0  0  0
    2.6103   -2.5503    1.8171 C   0  0  1  0  0  0  0  0  0  0  0  0
    3.7168   -3.6196    1.8253 C   0  0  0  0  0  0  0  0  0  0  0  0
    4.9138   -3.3333    1.8238 O   0  0  0  0  0  0  0  0  0  0  0  0
    3.2452   -4.8676    1.7829 O   0  0  0  0  0  0  0  0  0  0  0  0
    4.1900   -5.9206    1.7173 C   0  0  0  0  0  0  0  0  0  0  0  0
    1.7187   -2.6557    3.0532 C   0  0  0  0  0  0  0  0  0  0  0  0
    1.6650   -1.4805    3.6919 C   0  0  0  0  0  0  0  0  0  0  0  0
    1.8431   -0.5656    2.6381 N   0  0  0  0  0  0  0  0  0  0  0  0
    1.1763    0.6134    2.4867 C   0  0  0  0  0  0  0  0  0  0  0  0
    1.5279    1.4698    1.6762 O   0  0  0  0  0  0  0  0  0  0  0  0
   -0.0100    0.8791    3.3608 C   0  0  0  0  0  0  0  0  0  0  0  0
   -0.7958    0.0676    4.1457 C   0  0  0  0  0  0  0  0  0  0  0  0
   -1.7988    0.7637    4.8548 C   0  0  0  0  0  0  0  0  0  0  0  0
   -1.8480    2.0976    4.5473 C   0  0  0  0  0  0  0  0  0  0  0  0
   -0.6092    2.5244    3.4003 S   0  0  0  0  0  0  0  0  0  0  0  0
    7.1738   -1.4571    7.6119 H   0  0  0  0  0  0  0  0  0  0  0  0
    6.7557   -2.3814    6.1696 H   0  0  0  0  0  0  0  0  0  0  0  0
    5.5630   -2.1365    7.4353 H   0  0  0  0  0  0  0  0  0  0  0  0
    5.5312    0.3375    6.9489 H   0  0  0  0  0  0  0  0  0  0  0  0
    6.7550    0.1093    5.7223 H   0  0  0  0  0  0  0  0  0  0  0  0
    6.0833   -0.3808    2.3220 H   0  0  0  0  0  0  0  0  0  0  0  0
    2.9207   -0.4933   -0.0858 H   0  0  0  0  0  0  0  0  0  0  0  0
    3.7550    0.7290    0.9135 H   0  0  0  0  0  0  0  0  0  0  0  0
    4.7947   -1.7846    0.2632 H   0  0  0  0  0  0  0  0  0  0  0  0
    1.9790   -2.6809    0.9352 H   0  0  0  0  0  0  0  0  0  0  0  0
    3.6677   -6.8728    1.6929 H   0  0  0  0  0  0  0  0  0  0  0  0
    4.8519   -5.9060    2.5857 H   0  0  0  0  0  0  0  0  0  0  0  0
    4.8051   -5.8378    0.8180 H   0  0  0  0  0  0  0  0  0  0  0  0
    1.5526   -3.6019    3.5449 H   0  0  0  0  0  0  0  0  0  0  0  0
   -0.7036   -0.9917    4.2797 H   0  0  0  0  0  0  0  0  0  0  0  0
   -2.4722    0.2247    5.5013 H   0  0  0  0  0  0  0  0  0  0  0  0
   -2.5663    2.8265    4.8939 H   0  0  0  0  0  0  0  0  0  0  0  0
  1  2  1  0
  1 28  1  0
  1 29  1  0
  1 30  1  0
  2  3  1  0
  2 31  1  0
  2 32  1  0
  3  8  1  0
  3  4  1  0
  4  5  1  0
  4  6  2  0
  6 19  1  0
  6  7  1  0
  7  8  2  0
  7 10  1  0
  8  9  1  0
  9 33  1  0
 10 20  1  0
 10 11  1  6
 10 13  1  0
 11 12  1  0
 11 34  1  0
 11 35  1  0
 12 36  1  0
 13 14  1  0
 13 18  1  0
 13 37  1  6
 14 15  2  0
 14 16  1  0
 16 17  1  0
 17 38  1  0
 17 39  1  0
 17 40  1  0
 18 19  2  0
 18 41  1  0
 19 20  1  0
 20 21  1  0
 21 22  2  0
 21 23  1  0
 23 27  1  0
 23 24  2  0
 24 25  1  0
 24 42  1  0
 25 26  2  0
 25 43  1  0
 26 27  1  0
 26 44  1  0
M  CHG  1   5  -1
M  END
>  <i_m_ct_stereo_status>  (22) 
1

>  <s_m_source_file>  (22) 
/var/tmp/pbs.5076253.sched01/tmpsnpm1fw8/0c_pn72ob.sdf

>  <i_m_source_file_index>  (22) 
24

>  <i_lp_mmshare_version>  (22) 
48012

>  <i_f3d_flags>  (22) 
0

>  <s_epik_input>  (22) 
W0NIM11bQ0gyXW4oYzFbT0hdKWMoW09IXSljKGMxW0NAQF0yM1tDSDJdW09IXSlDKD1bQ0hdW0NAQEhdMkMoPU8pT1tDSDNdKU4zQyg9TyljNFtjSF1bY0hdW2NIXXM0

>  <s_epik_cmdline>  (22) 
J2VwaWtfcHl0aG9uJywgJy1waHQnLCAnMi4wJywgJy1waCcsICc3LjAnLCAnLXRuJywgJzgnLCAnLW1hJywgJzIwMCcsICctaW1hZScsICc8aW5maWxlLm1hZT4nLCAnLW9tYWUnLCAnPG91dGZpbGUubWFlPic=

>  <r_epik_Ionization_Penalty>  (22) 
2.45701

>  <r_epik_Ionization_Penalty_Charging>  (22) 
2.45688

>  <r_epik_Ionization_Penalty_Neutral>  (22) 
0.000134138

>  <r_epik_State_Penalty>  (22) 
2.62336

>  <r_epik_Charging_Adjusted_Penalty>  (22) 
5.08024

>  <i_epik_Tot_Q>  (22) 
-1

>  <i_epik_Tot_abs_Q>  (22) 
1

>  <s_epik_Chemistry_Notes>  (22) 
This compound has an ester and may undergo hydrolysis at high or low pH.

>  <s_lp_Force_Field>  (22) 
OPLS3e

>  <r_lp_Energy>  (22) 
101.755

>  <b_lp_Chiralities_Consistent>  (22) 
1

>  <s_lp_Variant>  (22) 
13:0-2

>  <s_i_glide_gridfile>  (22) 
pfpi4k_grid

>  <i_i_glide_lignum>  (22) 
24

>  <i_i_glide_rotatable_bonds>  (22) 
8

>  <r_i_docking_score>  (22) 
-2.6477

>  <r_i_glide_ligand_efficiency>  (22) 
-0.098063

>  <r_i_glide_ligand_efficiency_sa>  (22) 
-0.294189

>  <r_i_glide_ligand_efficiency_ln>  (22) 
-0.616341

>  <r_i_glide_gscore>  (22) 
-2.6477

>  <r_i_glide_lipo>  (22) 
-0.227839

>  <r_i_glide_hbond>  (22) 
0

>  <r_i_glide_metal>  (22) 
-0

>  <r_i_glide_rewards>  (22) 
-1.80164

>  <r_i_glide_evdw>  (22) 
-23.9638

>  <r_i_glide_ecoul>  (22) 
0.807546

>  <r_i_glide_erotb>  (22) 
0.514232

>  <r_i_glide_esite>  (22) 
-0.0553976

>  <r_i_glide_emodel>  (22) 
-38.4564

>  <r_i_glide_energy>  (22) 
-23.1563

>  <r_i_glide_einternal>  (22) 
0.86879

>  <r_i_glide_intrahb_reward>  (22) 
-1

>  <i_i_glide_confnum>  (22) 
4

>  <i_i_glide_posenum>  (22) 
29

>  <r_i_glide_eff_state_penalty>  (22) 
0

>  <ligand_id>  (22) 
13

>  <original_smiles>  (22) 
CCn1c(O)c2c(c1O)C1(CO)C(C(=O)OC)C=C2N1C(=O)c1cccs1

>  <smiles>  (22) 
[H]Oc1c2c(c([O-])n1C([H])([H])C([H])([H])[H])C1=C([H])C([H])(C(=O)OC([H])([H])[H])C2(C([H])([H])O[H])N1C(=O)c1sc([H])c([H])c1[H]

$$$$
13:1:1
     RDKit          3D

 44 47  0  0  1  0  0  0  0  0999 V2000
    6.3185   -1.4977    7.1409 C   0  0  0  0  0  0  0  0  0  0  0  0
    5.6883   -0.2209    6.5730 C   0  0  0  0  0  0  0  0  0  0  0  0
    4.7653   -0.5089    5.4981 N   0  0  0  0  0  0  0  0  0  0  0  0
    3.4613   -1.0171    5.6177 C   0  0  0  0  0  0  0  0  0  0  0  0
    2.8682   -1.2752    6.8129 O   0  0  0  0  0  0  0  0  0  0  0  0
    3.0218   -1.2111    4.3600 C   0  0  0  0  0  0  0  0  0  0  0  0
    3.9506   -0.7604    3.4166 C   0  0  0  0  0  0  0  0  0  0  0  0
    5.0351   -0.3453    4.1207 C   0  0  0  0  0  0  0  0  0  0  0  0
    6.2180    0.1459    3.6704 O   0  0  0  0  0  0  0  0  0  0  0  0
    3.3133   -0.9067    2.0670 C   0  0  1  0  0  0  0  0  0  0  0  0
    3.8663   -0.0311    0.9279 C   0  0  0  0  0  0  0  0  0  0  0  0
    5.2470   -0.2447    0.7292 O   0  0  0  0  0  0  0  0  0  0  0  0
    3.0371   -2.4122    1.7556 C   0  0  1  0  0  0  0  0  0  0  0  0
    4.2541   -3.3557    1.8021 C   0  0  0  0  0  0  0  0  0  0  0  0
    5.4083   -2.9573    1.9554 O   0  0  0  0  0  0  0  0  0  0  0  0
    3.9272   -4.6381    1.6407 O   0  0  0  0  0  0  0  0  0  0  0  0
    4.9832   -5.5797    1.6112 C   0  0  0  0  0  0  0  0  0  0  0  0
    2.0597   -2.7042    2.8946 C   0  0  0  0  0  0  0  0  0  0  0  0
    1.8223   -1.5977    3.6115 C   0  0  0  0  0  0  0  0  0  0  0  0
    1.9822   -0.5874    2.6428 N   0  0  0  0  0  0  0  0  0  0  0  0
    1.1872    0.5112    2.5019 C   0  0  0  0  0  0  0  0  0  0  0  0
    1.4293    1.4024    1.6909 O   0  0  0  0  0  0  0  0  0  0  0  0
    0.0141    0.6621    3.4205 C   0  0  0  0  0  0  0  0  0  0  0  0
   -0.7496   -0.2369    4.1273 C   0  0  0  0  0  0  0  0  0  0  0  0
   -1.7531    0.3637    4.9255 C   0  0  0  0  0  0  0  0  0  0  0  0
   -1.7953    1.7240    4.7829 C   0  0  0  0  0  0  0  0  0  0  0  0
   -0.5969    2.2853    3.6475 S   0  0  0  0  0  0  0  0  0  0  0  0
    7.0190   -1.2595    7.9367 H   0  0  0  0  0  0  0  0  0  0  0  0
    6.8581   -2.0519    6.3764 H   0  0  0  0  0  0  0  0  0  0  0  0
    5.5551   -2.1561    7.5515 H   0  0  0  0  0  0  0  0  0  0  0  0
    5.1520    0.3244    7.3475 H   0  0  0  0  0  0  0  0  0  0  0  0
    6.4711    0.4418    6.2019 H   0  0  0  0  0  0  0  0  0  0  0  0
    6.2501   -0.0846    2.7492 H   0  0  0  0  0  0  0  0  0  0  0  0
    3.3183   -0.2517    0.0088 H   0  0  0  0  0  0  0  0  0  0  0  0
    3.7781    1.0274    1.1496 H   0  0  0  0  0  0  0  0  0  0  0  0
    5.5332    0.3644    0.0643 H   0  0  0  0  0  0  0  0  0  0  0  0
    2.4939   -2.5469    0.8155 H   0  0  0  0  0  0  0  0  0  0  0  0
    4.5746   -6.5784    1.4826 H   0  0  0  0  0  0  0  0  0  0  0  0
    5.5576   -5.5500    2.5398 H   0  0  0  0  0  0  0  0  0  0  0  0
    5.6629   -5.3691    0.7821 H   0  0  0  0  0  0  0  0  0  0  0  0
    1.9757   -3.6955    3.3126 H   0  0  0  0  0  0  0  0  0  0  0  0
   -0.6268   -1.3069    4.1458 H   0  0  0  0  0  0  0  0  0  0  0  0
   -2.4022   -0.2468    5.5323 H   0  0  0  0  0  0  0  0  0  0  0  0
   -2.4970    2.4116    5.2279 H   0  0  0  0  0  0  0  0  0  0  0  0
  1  2  1  0
  1 28  1  0
  1 29  1  0
  1 30  1  0
  2  3  1  0
  2 31  1  0
  2 32  1  0
  3  8  1  0
  3  4  1  0
  4  5  1  0
  4  6  2  0
  6 19  1  0
  6  7  1  0
  7  8  2  0
  7 10  1  0
  8  9  1  0
  9 33  1  0
 10 20  1  0
 10 11  1  6
 10 13  1  0
 11 12  1  0
 11 34  1  0
 11 35  1  0
 12 36  1  0
 13 14  1  0
 13 18  1  0
 13 37  1  6
 14 15  2  0
 14 16  1  0
 16 17  1  0
 17 38  1  0
 17 39  1  0
 17 40  1  0
 18 19  2  0
 18 41  1  0
 19 20  1  0
 20 21  1  0
 21 22  2  0
 21 23  1  0
 23 27  1  0
 23 24  2  0
 24 25  1  0
 24 42  1  0
 25 26  2  0
 25 43  1  0
 26 27  1  0
 26 44  1  0
M  CHG  1   5  -1
M  END
>  <i_m_ct_stereo_status>  (23) 
1

>  <s_m_source_file>  (23) 
/var/tmp/pbs.5076253.sched01/tmpsnpm1fw8/0c_pn72ob.sdf

>  <i_m_source_file_index>  (23) 
24

>  <i_lp_mmshare_version>  (23) 
48012

>  <i_f3d_flags>  (23) 
0

>  <s_epik_input>  (23) 
W0NIM11bQ0gyXW4oYzFbT0hdKWMoW09IXSljKGMxW0NAQF0yM1tDSDJdW09IXSlDKD1bQ0hdW0NAQEhdMkMoPU8pT1tDSDNdKU4zQyg9TyljNFtjSF1bY0hdW2NIXXM0

>  <s_epik_cmdline>  (23) 
J2VwaWtfcHl0aG9uJywgJy1waHQnLCAnMi4wJywgJy1waCcsICc3LjAnLCAnLXRuJywgJzgnLCAnLW1hJywgJzIwMCcsICctaW1hZScsICc8aW5maWxlLm1hZT4nLCAnLW9tYWUnLCAnPG91dGZpbGUubWFlPic=

>  <r_epik_Ionization_Penalty>  (23) 
2.45701

>  <r_epik_Ionization_Penalty_Charging>  (23) 
2.45688

>  <r_epik_Ionization_Penalty_Neutral>  (23) 
0.000134138

>  <r_epik_State_Penalty>  (23) 
2.62336

>  <r_epik_Charging_Adjusted_Penalty>  (23) 
5.08024

>  <i_epik_Tot_Q>  (23) 
-1

>  <i_epik_Tot_abs_Q>  (23) 
1

>  <s_epik_Chemistry_Notes>  (23) 
This compound has an ester and may undergo hydrolysis at high or low pH.

>  <s_lp_Force_Field>  (23) 
OPLS3e

>  <r_lp_Energy>  (23) 
101.755

>  <b_lp_Chiralities_Consistent>  (23) 
1

>  <s_lp_Variant>  (23) 
13:0-2

>  <s_i_glide_gridfile>  (23) 
pfpi4k_grid

>  <i_i_glide_lignum>  (23) 
24

>  <i_i_glide_rotatable_bonds>  (23) 
8

>  <r_i_docking_score>  (23) 
-2.50361

>  <r_i_glide_ligand_efficiency>  (23) 
-0.0927262

>  <r_i_glide_ligand_efficiency_sa>  (23) 
-0.278179

>  <r_i_glide_ligand_efficiency_ln>  (23) 
-0.582799

>  <r_i_glide_gscore>  (23) 
-2.50361

>  <r_i_glide_lipo>  (23) 
-0.235143

>  <r_i_glide_hbond>  (23) 
0

>  <r_i_glide_metal>  (23) 
-0

>  <r_i_glide_rewards>  (23) 
-1.29603

>  <r_i_glide_evdw>  (23) 
-24.5698

>  <r_i_glide_ecoul>  (23) 
-1.36602

>  <r_i_glide_erotb>  (23) 
0.514232

>  <r_i_glide_esite>  (23) 
-0.0532691

>  <r_i_glide_emodel>  (23) 
-35.096

>  <r_i_glide_energy>  (23) 
-25.9358

>  <r_i_glide_einternal>  (23) 
2.3068

>  <r_i_glide_intrahb_reward>  (23) 
-0.5

>  <i_i_glide_confnum>  (23) 
4

>  <i_i_glide_posenum>  (23) 
26

>  <r_i_glide_eff_state_penalty>  (23) 
0

>  <ligand_id>  (23) 
13

>  <original_smiles>  (23) 
CCn1c(O)c2c(c1O)C1(CO)C(C(=O)OC)C=C2N1C(=O)c1cccs1

>  <smiles>  (23) 
[H]Oc1c2c(c([O-])n1C([H])([H])C([H])([H])[H])C1=C([H])C([H])(C(=O)OC([H])([H])[H])C2(C([H])([H])O[H])N1C(=O)c1sc([H])c([H])c1[H]

$$$$
13:1:2
     RDKit          3D

 44 47  0  0  1  0  0  0  0  0999 V2000
    5.7090    1.4501    6.9551 C   0  0  0  0  0  0  0  0  0  0  0  0
    5.7242   -0.0387    6.6054 C   0  0  0  0  0  0  0  0  0  0  0  0
    4.7759   -0.3571    5.5586 N   0  0  0  0  0  0  0  0  0  0  0  0
    3.4571   -0.7991    5.7207 C   0  0  0  0  0  0  0  0  0  0  0  0
    2.8663   -0.9539    6.9244 O   0  0  0  0  0  0  0  0  0  0  0  0
    2.9761   -1.0225    4.4753 C   0  0  0  0  0  0  0  0  0  0  0  0
    3.9163   -0.6808    3.5106 C   0  0  0  0  0  0  0  0  0  0  0  0
    5.0276   -0.2835    4.1747 C   0  0  0  0  0  0  0  0  0  0  0  0
    6.2202    0.1342    3.6840 O   0  0  0  0  0  0  0  0  0  0  0  0
    3.2411   -0.8341    2.1829 C   0  0  1  0  0  0  0  0  0  0  0  0
    3.8280   -0.0267    1.0013 C   0  0  0  0  0  0  0  0  0  0  0  0
    5.2044   -0.2790    0.8113 O   0  0  0  0  0  0  0  0  0  0  0  0
    2.8625   -2.3328    1.9391 C   0  0  1  0  0  0  0  0  0  0  0  0
    4.0506   -3.3061    1.9777 C   0  0  0  0  0  0  0  0  0  0  0  0
    4.2236   -4.1229    2.8838 O   0  0  0  0  0  0  0  0  0  0  0  0
    4.8455   -3.1369    0.9225 O   0  0  0  0  0  0  0  0  0  0  0  0
    6.0563   -3.8509    0.8120 C   0  0  0  0  0  0  0  0  0  0  0  0
    1.8879   -2.5267    3.0966 C   0  0  0  0  0  0  0  0  0  0  0  0
    1.7399   -1.3703    3.7640 C   0  0  0  0  0  0  0  0  0  0  0  0
    1.9365   -0.4162    2.7494 N   0  0  0  0  0  0  0  0  0  0  0  0
    1.2060    0.7169    2.5720 C   0  0  0  0  0  0  0  0  0  0  0  0
    1.5185    1.5882    1.7623 O   0  0  0  0  0  0  0  0  0  0  0  0
   -0.0067    0.9260    3.4320 C   0  0  0  0  0  0  0  0  0  0  0  0
   -0.7620    0.0802    4.2102 C   0  0  0  0  0  0  0  0  0  0  0  0
   -1.8022    0.7285    4.8953 C   0  0  0  0  0  0  0  0  0  0  0  0
   -1.9295    2.0512    4.5741 C   0  0  0  0  0  0  0  0  0  0  0  0
   -0.7016    2.5327    3.4347 S   0  0  0  0  0  0  0  0  0  0  0  0
    6.4282    1.6611    7.7440 H   0  0  0  0  0  0  0  0  0  0  0  0
    4.7195    1.7473    7.3032 H   0  0  0  0  0  0  0  0  0  0  0  0
    5.9658    2.0513    6.0857 H   0  0  0  0  0  0  0  0  0  0  0  0
    6.7124   -0.3439    6.2598 H   0  0  0  0  0  0  0  0  0  0  0  0
    5.4887   -0.6529    7.4751 H   0  0  0  0  0  0  0  0  0  0  0  0
    6.2332   -0.1089    2.7656 H   0  0  0  0  0  0  0  0  0  0  0  0
    3.2638   -0.2473    0.0902 H   0  0  0  0  0  0  0  0  0  0  0  0
    3.7850    1.0438    1.1701 H   0  0  0  0  0  0  0  0  0  0  0  0
    5.4962    0.2693    0.0969 H   0  0  0  0  0  0  0  0  0  0  0  0
    2.3117   -2.4794    1.0051 H   0  0  0  0  0  0  0  0  0  0  0  0
    6.5861   -3.4925   -0.0699 H   0  0  0  0  0  0  0  0  0  0  0  0
    5.8463   -4.9138    0.6883 H   0  0  0  0  0  0  0  0  0  0  0  0
    6.6967   -3.6952    1.6836 H   0  0  0  0  0  0  0  0  0  0  0  0
    1.7892   -3.4871    3.5716 H   0  0  0  0  0  0  0  0  0  0  0  0
   -0.6151   -0.9810    4.3654 H   0  0  0  0  0  0  0  0  0  0  0  0
   -2.4576    0.1703    5.5494 H   0  0  0  0  0  0  0  0  0  0  0  0
   -2.6919    2.7458    4.9004 H   0  0  0  0  0  0  0  0  0  0  0  0
  1  2  1  0
  1 28  1  0
  1 29  1  0
  1 30  1  0
  2  3  1  0
  2 31  1  0
  2 32  1  0
  3  8  1  0
  3  4  1  0
  4  5  1  0
  4  6  2  0
  6 19  1  0
  6  7  1  0
  7  8  2  0
  7 10  1  0
  8  9  1  0
  9 33  1  0
 10 20  1  0
 10 11  1  6
 10 13  1  0
 11 12  1  0
 11 34  1  0
 11 35  1  0
 12 36  1  0
 13 14  1  0
 13 18  1  0
 13 37  1  6
 14 15  2  0
 14 16  1  0
 16 17  1  0
 17 38  1  0
 17 39  1  0
 17 40  1  0
 18 19  2  0
 18 41  1  0
 19 20  1  0
 20 21  1  0
 21 22  2  0
 21 23  1  0
 23 27  1  0
 23 24  2  0
 24 25  1  0
 24 42  1  0
 25 26  2  0
 25 43  1  0
 26 27  1  0
 26 44  1  0
M  CHG  1   5  -1
M  END
>  <i_m_ct_stereo_status>  (24) 
1

>  <s_m_source_file>  (24) 
/var/tmp/pbs.5076253.sched01/tmpsnpm1fw8/0c_pn72ob.sdf

>  <i_m_source_file_index>  (24) 
24

>  <i_lp_mmshare_version>  (24) 
48012

>  <i_f3d_flags>  (24) 
0

>  <s_epik_input>  (24) 
W0NIM11bQ0gyXW4oYzFbT0hdKWMoW09IXSljKGMxW0NAQF0yM1tDSDJdW09IXSlDKD1bQ0hdW0NAQEhdMkMoPU8pT1tDSDNdKU4zQyg9TyljNFtjSF1bY0hdW2NIXXM0

>  <s_epik_cmdline>  (24) 
J2VwaWtfcHl0aG9uJywgJy1waHQnLCAnMi4wJywgJy1waCcsICc3LjAnLCAnLXRuJywgJzgnLCAnLW1hJywgJzIwMCcsICctaW1hZScsICc8aW5maWxlLm1hZT4nLCAnLW9tYWUnLCAnPG91dGZpbGUubWFlPic=

>  <r_epik_Ionization_Penalty>  (24) 
2.45701

>  <r_epik_Ionization_Penalty_Charging>  (24) 
2.45688

>  <r_epik_Ionization_Penalty_Neutral>  (24) 
0.000134138

>  <r_epik_State_Penalty>  (24) 
2.62336

>  <r_epik_Charging_Adjusted_Penalty>  (24) 
5.08024

>  <i_epik_Tot_Q>  (24) 
-1

>  <i_epik_Tot_abs_Q>  (24) 
1

>  <s_epik_Chemistry_Notes>  (24) 
This compound has an ester and may undergo hydrolysis at high or low pH.

>  <s_lp_Force_Field>  (24) 
OPLS3e

>  <r_lp_Energy>  (24) 
101.755

>  <b_lp_Chiralities_Consistent>  (24) 
1

>  <s_lp_Variant>  (24) 
13:0-2

>  <s_i_glide_gridfile>  (24) 
pfpi4k_grid

>  <i_i_glide_lignum>  (24) 
24

>  <i_i_glide_rotatable_bonds>  (24) 
8

>  <r_i_docking_score>  (24) 
-2.40685

>  <r_i_glide_ligand_efficiency>  (24) 
-0.0891427

>  <r_i_glide_ligand_efficiency_sa>  (24) 
-0.267428

>  <r_i_glide_ligand_efficiency_ln>  (24) 
-0.560276

>  <r_i_glide_gscore>  (24) 
-2.40685

>  <r_i_glide_lipo>  (24) 
-0.264372

>  <r_i_glide_hbond>  (24) 
0

>  <r_i_glide_metal>  (24) 
-0

>  <r_i_glide_rewards>  (24) 
-1.28608

>  <r_i_glide_evdw>  (24) 
-24.3504

>  <r_i_glide_ecoul>  (24) 
-0.6932

>  <r_i_glide_erotb>  (24) 
0.514232

>  <r_i_glide_esite>  (24) 
-0.0491341

>  <r_i_glide_emodel>  (24) 
-34.5664

>  <r_i_glide_energy>  (24) 
-25.0436

>  <r_i_glide_einternal>  (24) 
1.34265

>  <r_i_glide_intrahb_reward>  (24) 
-0.5

>  <i_i_glide_confnum>  (24) 
5

>  <i_i_glide_posenum>  (24) 
27

>  <r_i_glide_eff_state_penalty>  (24) 
0

>  <ligand_id>  (24) 
13

>  <original_smiles>  (24) 
CCn1c(O)c2c(c1O)C1(CO)C(C(=O)OC)C=C2N1C(=O)c1cccs1

>  <smiles>  (24) 
[H]Oc1c2c(c([O-])n1C([H])([H])C([H])([H])[H])C1=C([H])C([H])(C(=O)OC([H])([H])[H])C2(C([H])([H])O[H])N1C(=O)c1sc([H])c([H])c1[H]

$$$$
16:0:0
     RDKit          3D

 49 55  0  0  1  0  0  0  0  0999 V2000
    2.9898    0.9639    3.1967 C   0  0  0  0  0  0  0  0  0  0  0  0
    3.4436   -0.3063    2.4777 C   0  0  2  0  0  0  0  0  0  0  0  0
    4.0863    0.1108    1.3158 O   0  0  0  0  0  0  0  0  0  0  0  0
    5.0020   -0.8140    0.8012 C   0  0  0  0  0  0  0  0  0  0  0  0
    4.7128   -2.1576    1.0474 O   0  0  0  0  0  0  0  0  0  0  0  0
    3.4400   -2.5176    0.6140 C   0  0  1  0  0  0  0  0  0  0  0  0
    3.4146   -3.8213    0.1237 O   0  0  0  0  0  0  0  0  0  0  0  0
    4.0512   -4.8372    0.8013 C   0  0  0  0  0  0  0  0  0  0  0  0
    4.7387   -5.8545    0.2811 C   0  0  0  0  0  0  0  0  0  0  0  0
    5.1340   -6.7704    1.4309 C   0  0  2  0  0  0  0  0  0  0  0  0
    3.9294   -7.3841    1.9126 O   0  0  0  0  0  0  0  0  0  0  0  0
    3.1257   -6.3198    2.5129 C   0  0  2  0  0  0  0  0  0  0  0  0
    2.5572   -6.6911    3.9367 C   0  0  0  0  0  0  0  0  0  0  0  0
    1.4989   -7.4865    3.1769 C   0  0  2  0  0  0  0  0  0  0  0  0
    1.6450   -6.4248    2.1081 C   0  0  2  0  0  0  0  0  0  0  0  0
    0.8290   -6.9853    0.9596 C   0  0  0  0  0  0  0  0  0  0  0  0
   -0.3672   -7.5146    1.7603 C   0  0  2  0  0  0  0  0  0  0  0  0
   -0.9221   -6.6723    2.7953 O   0  0  0  0  0  0  0  0  0  0  0  0
    0.0100   -7.6934    3.2142 C   0  0  2  0  0  0  0  0  0  0  0  0
   -0.5307   -8.7626    4.1275 C   0  0  0  0  0  0  0  0  0  0  0  0
    3.9458   -5.0161    2.2983 C   0  0  2  0  0  0  0  0  0  0  0  0
    3.7031   -3.7965    3.1887 C   0  0  0  0  0  0  0  0  0  0  0  0
    2.4680   -3.2212    2.8303 O   0  0  0  0  0  0  0  0  0  0  0  0
    2.4033   -2.3096    1.7650 C   0  0  1  0  0  0  0  0  0  0  0  0
    2.2655   -0.9768    2.1595 O   0  0  0  0  0  0  0  0  0  0  0  0
    5.2815   -5.6711    2.4380 C   0  0  0  0  0  0  0  0  0  0  0  0
    6.2234   -5.4054    3.1877 O   0  0  0  0  0  0  0  0  0  0  0  0
    2.3503    1.5411    2.5290 H   0  0  0  0  0  0  0  0  0  0  0  0
    3.8395    1.5833    3.4797 H   0  0  0  0  0  0  0  0  0  0  0  0
    2.4230    0.7175    4.0932 H   0  0  0  0  0  0  0  0  0  0  0  0
    4.0934   -0.8986    3.1350 H   0  0  0  0  0  0  0  0  0  0  0  0
    5.0661   -0.6283   -0.2745 H   0  0  0  0  0  0  0  0  0  0  0  0
    5.9867   -0.6221    1.2298 H   0  0  0  0  0  0  0  0  0  0  0  0
    3.1483   -1.9111   -0.2585 H   0  0  0  0  0  0  0  0  0  0  0  0
    4.9417   -6.0513   -0.7639 H   0  0  0  0  0  0  0  0  0  0  0  0
    6.0142   -7.3969    1.2757 H   0  0  0  0  0  0  0  0  0  0  0  0
    3.2221   -7.3187    4.5290 H   0  0  0  0  0  0  0  0  0  0  0  0
    2.1424   -5.8588    4.5062 H   0  0  0  0  0  0  0  0  0  0  0  0
    1.9781   -8.4325    2.9164 H   0  0  0  0  0  0  0  0  0  0  0  0
    1.1942   -5.4834    2.4329 H   0  0  0  0  0  0  0  0  0  0  0  0
    0.5288   -6.2538    0.2156 H   0  0  0  0  0  0  0  0  0  0  0  0
    1.3277   -7.8160    0.4962 H   0  0  0  0  0  0  0  0  0  0  0  0
   -1.0314   -8.2410    1.3115 H   0  0  0  0  0  0  0  0  0  0  0  0
   -0.1568   -9.7395    3.8238 H   0  0  0  0  0  0  0  0  0  0  0  0
   -1.6172   -8.7875    4.0798 H   0  0  0  0  0  0  0  0  0  0  0  0
   -0.2359   -8.5819    5.1609 H   0  0  0  0  0  0  0  0  0  0  0  0
    3.6144   -4.1248    4.2174 H   0  0  0  0  0  0  0  0  0  0  0  0
    4.5227   -3.0893    3.1971 H   0  0  0  0  0  0  0  0  0  0  0  0
    1.4254   -2.4920    1.3632 H   0  0  0  0  0  0  0  0  0  0  0  0
  1  2  1  0
  1 28  1  0
  1 29  1  0
  1 30  1  0
  2 25  1  0
  2  3  1  0
  2 31  1  1
  3  4  1  0
  4  5  1  0
  4 32  1  0
  4 33  1  0
  5  6  1  0
  6 24  1  0
  6  7  1  0
  6 34  1  6
  7  8  1  0
  8 21  1  0
  8  9  2  0
  9 10  1  0
  9 35  1  0
 10 26  1  0
 10 11  1  0
 10 36  1  6
 12 11  1  6
 12 15  1  0
 12 13  1  0
 12 21  1  0
 13 14  1  0
 13 37  1  0
 13 38  1  0
 14 19  1  0
 14 15  1  0
 14 39  1  6
 15 16  1  0
 15 40  1  1
 16 17  1  0
 16 41  1  0
 16 42  1  0
 17 19  1  0
 17 18  1  0
 17 43  1  6
 18 19  1  0
 19 20  1  1
 20 44  1  0
 20 45  1  0
 20 46  1  0
 21 22  1  1
 21 26  1  0
 22 23  1  0
 22 47  1  0
 22 48  1  0
 23 24  1  0
 24 25  1  0
 24 49  1  6
 26 27  2  0
M  END
>  <i_m_ct_stereo_status>  (25) 
1

>  <s_m_source_file>  (25) 
/var/tmp/pbs.5076253.sched01/tmpsnpm1fw8/0c_pn72ob.sdf

>  <i_m_source_file_index>  (25) 
26

>  <i_lp_mmshare_version>  (25) 
48012

>  <i_f3d_flags>  (25) 
0

>  <s_epik_input>  (25) 
TzFbQ0gyXU9bQ0BASF0oW0NIM10pT1tDQEhdKE9bQ0gyXTIpW0NAQEhdMU9DKD1bQ0hdW0NASF0oTzMpQzQ9TylbQ0BdMjRbQ0BAXTM1W0NAQEhdNltDQEBIXShbQ0gyXTUpW0NAXTcoW0NIM10pW0NAQEhdKE83KVtDSDJdNg==

>  <s_epik_cmdline>  (25) 
J2VwaWtfcHl0aG9uJywgJy1waHQnLCAnMi4wJywgJy1waCcsICc3LjAnLCAnLXRuJywgJzgnLCAnLW1hJywgJzIwMCcsICctaW1hZScsICc8aW5maWxlLm1hZT4nLCAnLW9tYWUnLCAnPG91dGZpbGUubWFlPic=

>  <r_lp_tautomer_probability>  (25) 
1

>  <r_epik_Ionization_Penalty>  (25) 
5.22197e-06

>  <r_epik_Ionization_Penalty_Charging>  (25) 
0

>  <r_epik_Ionization_Penalty_Neutral>  (25) 
5.22197e-06

>  <r_epik_State_Penalty>  (25) 
-0

>  <r_epik_Charging_Adjusted_Penalty>  (25) 
0

>  <i_epik_Tot_Q>  (25) 
0

>  <i_epik_Tot_abs_Q>  (25) 
0

>  <s_epik_Chemistry_Notes>  (25) 
This compound contains an acetal/aminal-like group ( X-CH(R)-Y where X, Y are N, S, or O) that may be acid/base labile, releasing an aldehyde.

>  <s_lp_Force_Field>  (25) 
OPLS3e

>  <r_lp_Energy>  (25) 
71.1567

>  <b_lp_Chiralities_Consistent>  (25) 
1

>  <s_lp_Variant>  (25) 
16:0-1

>  <s_i_glide_gridfile>  (25) 
pfpi4k_grid

>  <i_i_glide_lignum>  (25) 
26

>  <i_i_glide_rotatable_bonds>  (25) 
0

>  <r_i_docking_score>  (25) 
-3.23965

>  <r_i_glide_ligand_efficiency>  (25) 
-0.119987

>  <r_i_glide_ligand_efficiency_sa>  (25) 
-0.359961

>  <r_i_glide_ligand_efficiency_ln>  (25) 
-0.754136

>  <r_i_glide_gscore>  (25) 
-3.23965

>  <r_i_glide_lipo>  (25) 
-0.207781

>  <r_i_glide_hbond>  (25) 
-0.16

>  <r_i_glide_metal>  (25) 
-0

>  <r_i_glide_rewards>  (25) 
-1.01523

>  <r_i_glide_evdw>  (25) 
-24.5956

>  <r_i_glide_ecoul>  (25) 
-3.80696

>  <r_i_glide_erotb>  (25) 
0

>  <r_i_glide_esite>  (25) 
-0.0558177

>  <r_i_glide_emodel>  (25) 
-34.2699

>  <r_i_glide_energy>  (25) 
-28.4025

>  <r_i_glide_einternal>  (25) 
0

>  <r_i_glide_intrahb_reward>  (25) 
-0

>  <i_i_glide_confnum>  (25) 
2

>  <i_i_glide_posenum>  (25) 
22

>  <r_i_glide_eff_state_penalty>  (25) 
0

>  <ligand_id>  (25) 
16

>  <original_smiles>  (25) 
CC1OCOC2OC3=CC4OC5(CC6C5CC5OC56C)C3(COC2O1)C4=O

>  <smiles>  (25) 
[H]C1=C2OC3([H])OC([H])([H])OC([H])(C([H])([H])[H])OC3([H])OC([H])([H])C23C(=O)C1([H])OC31C([H])([H])C2([H])C1([H])C([H])([H])C1([H])OC12C([H])([H])[H]

$$$$
16:0:1
     RDKit          3D

 49 55  0  0  1  0  0  0  0  0999 V2000
    3.2560   -0.7296   -2.7262 C   0  0  0  0  0  0  0  0  0  0  0  0
    3.9023   -1.7515   -1.7917 C   0  0  2  0  0  0  0  0  0  0  0  0
    5.1255   -2.0612   -2.3761 O   0  0  0  0  0  0  0  0  0  0  0  0
    6.0839   -2.5621   -1.4938 C   0  0  0  0  0  0  0  0  0  0  0  0
    5.5904   -3.2341   -0.3813 O   0  0  0  0  0  0  0  0  0  0  0  0
    4.7560   -4.2941   -0.7272 C   0  0  1  0  0  0  0  0  0  0  0  0
    4.9227   -5.3753    0.1272 O   0  0  0  0  0  0  0  0  0  0  0  0
    4.9772   -5.1812    1.4932 C   0  0  0  0  0  0  0  0  0  0  0  0
    5.7466   -5.8125    2.3661 C   0  0  0  0  0  0  0  0  0  0  0  0
    5.3540   -5.3300    3.7551 C   0  0  2  0  0  0  0  0  0  0  0  0
    4.0386   -5.8398    4.0190 O   0  0  0  0  0  0  0  0  0  0  0  0
    3.1276   -5.1778    3.0890 C   0  0  2  0  0  0  0  0  0  0  0  0
    1.8302   -4.6183    3.7845 C   0  0  0  0  0  0  0  0  0  0  0  0
    1.3223   -6.0622    3.7410 C   0  0  2  0  0  0  0  0  0  0  0  0
    2.1340   -6.1681    2.4684 C   0  0  2  0  0  0  0  0  0  0  0  0
    2.0632   -7.6474    2.1363 C   0  0  0  0  0  0  0  0  0  0  0  0
    0.5651   -7.8727    2.4540 C   0  0  2  0  0  0  0  0  0  0  0  0
   -0.3972   -6.8632    2.0174 O   0  0  0  0  0  0  0  0  0  0  0  0
    0.0617   -6.7980    3.3820 C   0  0  2  0  0  0  0  0  0  0  0  0
   -0.9774   -6.9849    4.4561 C   0  0  0  0  0  0  0  0  0  0  0  0
    4.0316   -4.2566    2.2208 C   0  0  2  0  0  0  0  0  0  0  0  0
    3.4321   -3.0425    1.5085 C   0  0  0  0  0  0  0  0  0  0  0  0
    2.6550   -3.5012    0.4332 O   0  0  0  0  0  0  0  0  0  0  0  0
    3.2673   -3.8159   -0.7921 C   0  0  1  0  0  0  0  0  0  0  0  0
    3.0611   -2.8702   -1.8085 O   0  0  0  0  0  0  0  0  0  0  0  0
    4.9970   -3.9358    3.3121 C   0  0  0  0  0  0  0  0  0  0  0  0
    5.3630   -2.8490    3.7497 O   0  0  0  0  0  0  0  0  0  0  0  0
    3.1358   -1.1609   -3.7212 H   0  0  0  0  0  0  0  0  0  0  0  0
    3.8544    0.1786   -2.7978 H   0  0  0  0  0  0  0  0  0  0  0  0
    2.2691   -0.4608   -2.3526 H   0  0  0  0  0  0  0  0  0  0  0  0
    4.0027   -1.3158   -0.7833 H   0  0  0  0  0  0  0  0  0  0  0  0
    6.7634   -3.1887   -2.0769 H   0  0  0  0  0  0  0  0  0  0  0  0
    6.6559   -1.7359   -1.0872 H   0  0  0  0  0  0  0  0  0  0  0  0
    5.0530   -4.7033   -1.7085 H   0  0  0  0  0  0  0  0  0  0  0  0
    6.4915   -6.5763    2.1678 H   0  0  0  0  0  0  0  0  0  0  0  0
    6.1169   -5.4071    4.5308 H   0  0  0  0  0  0  0  0  0  0  0  0
    1.9960   -4.2554    4.8026 H   0  0  0  0  0  0  0  0  0  0  0  0
    1.2354   -3.9276    3.1862 H   0  0  0  0  0  0  0  0  0  0  0  0
    1.7904   -6.5559    4.5898 H   0  0  0  0  0  0  0  0  0  0  0  0
    1.6654   -5.6192    1.6558 H   0  0  0  0  0  0  0  0  0  0  0  0
    2.2929   -7.8978    1.1009 H   0  0  0  0  0  0  0  0  0  0  0  0
    2.6886   -8.2503    2.7990 H   0  0  0  0  0  0  0  0  0  0  0  0
    0.2036   -8.8754    2.6064 H   0  0  0  0  0  0  0  0  0  0  0  0
   -0.5692   -7.5836    5.2675 H   0  0  0  0  0  0  0  0  0  0  0  0
   -1.8488   -7.4901    4.0481 H   0  0  0  0  0  0  0  0  0  0  0  0
   -1.2891   -6.0204    4.8579 H   0  0  0  0  0  0  0  0  0  0  0  0
    2.7500   -2.5328    2.1791 H   0  0  0  0  0  0  0  0  0  0  0  0
    4.1599   -2.2936    1.2179 H   0  0  0  0  0  0  0  0  0  0  0  0
    2.6433   -4.6481   -1.1092 H   0  0  0  0  0  0  0  0  0  0  0  0
  1  2  1  0
  1 28  1  0
  1 29  1  0
  1 30  1  0
  2 25  1  0
  2  3  1  0
  2 31  1  1
  3  4  1  0
  4  5  1  0
  4 32  1  0
  4 33  1  0
  5  6  1  0
  6 24  1  0
  6  7  1  0
  6 34  1  6
  7  8  1  0
  8 21  1  0
  8  9  2  0
  9 10  1  0
  9 35  1  0
 10 26  1  0
 10 11  1  0
 10 36  1  1
 12 11  1  1
 12 15  1  0
 12 13  1  0
 12 21  1  0
 13 14  1  0
 13 37  1  0
 13 38  1  0
 14 19  1  0
 14 15  1  0
 14 39  1  1
 15 16  1  0
 15 40  1  6
 16 17  1  0
 16 41  1  0
 16 42  1  0
 17 19  1  0
 17 18  1  0
 17 43  1  1
 18 19  1  0
 19 20  1  1
 20 44  1  0
 20 45  1  0
 20 46  1  0
 21 22  1  6
 21 26  1  0
 22 23  1  0
 22 47  1  0
 22 48  1  0
 23 24  1  0
 24 25  1  0
 24 49  1  6
 26 27  2  0
M  END
>  <i_m_ct_stereo_status>  (26) 
1

>  <s_m_source_file>  (26) 
/var/tmp/pbs.5076253.sched01/tmpsnpm1fw8/0c_pn72ob.sdf

>  <i_m_source_file_index>  (26) 
26

>  <i_lp_mmshare_version>  (26) 
48012

>  <i_f3d_flags>  (26) 
0

>  <s_epik_input>  (26) 
TzFbQ0gyXU9bQ0BASF0oW0NIM10pT1tDQEhdKE9bQ0gyXTIpW0NAQEhdMU9DKD1bQ0hdW0NASF0oTzMpQzQ9TylbQ0BdMjRbQ0BAXTM1W0NAQEhdNltDQEBIXShbQ0gyXTUpW0NAXTcoW0NIM10pW0NAQEhdKE83KVtDSDJdNg==

>  <s_epik_cmdline>  (26) 
J2VwaWtfcHl0aG9uJywgJy1waHQnLCAnMi4wJywgJy1waCcsICc3LjAnLCAnLXRuJywgJzgnLCAnLW1hJywgJzIwMCcsICctaW1hZScsICc8aW5maWxlLm1hZT4nLCAnLW9tYWUnLCAnPG91dGZpbGUubWFlPic=

>  <r_lp_tautomer_probability>  (26) 
1

>  <r_epik_Ionization_Penalty>  (26) 
5.22197e-06

>  <r_epik_Ionization_Penalty_Charging>  (26) 
0

>  <r_epik_Ionization_Penalty_Neutral>  (26) 
5.22197e-06

>  <r_epik_State_Penalty>  (26) 
-0

>  <r_epik_Charging_Adjusted_Penalty>  (26) 
0

>  <i_epik_Tot_Q>  (26) 
0

>  <i_epik_Tot_abs_Q>  (26) 
0

>  <s_epik_Chemistry_Notes>  (26) 
This compound contains an acetal/aminal-like group ( X-CH(R)-Y where X, Y are N, S, or O) that may be acid/base labile, releasing an aldehyde.

>  <s_lp_Force_Field>  (26) 
OPLS3e

>  <r_lp_Energy>  (26) 
71.1567

>  <b_lp_Chiralities_Consistent>  (26) 
1

>  <s_lp_Variant>  (26) 
16:0-1

>  <s_i_glide_gridfile>  (26) 
pfpi4k_grid

>  <i_i_glide_lignum>  (26) 
26

>  <i_i_glide_rotatable_bonds>  (26) 
0

>  <r_i_docking_score>  (26) 
-2.9125

>  <r_i_glide_ligand_efficiency>  (26) 
-0.10787

>  <r_i_glide_ligand_efficiency_sa>  (26) 
-0.323611

>  <r_i_glide_ligand_efficiency_ln>  (26) 
-0.677981

>  <r_i_glide_gscore>  (26) 
-2.9125

>  <r_i_glide_lipo>  (26) 
-0.0586287

>  <r_i_glide_hbond>  (26) 
-0.16

>  <r_i_glide_metal>  (26) 
-0

>  <r_i_glide_rewards>  (26) 
-0.863209

>  <r_i_glide_evdw>  (26) 
-25.9818

>  <r_i_glide_ecoul>  (26) 
-3.01831

>  <r_i_glide_erotb>  (26) 
0

>  <r_i_glide_esite>  (26) 
-0.078824

>  <r_i_glide_emodel>  (26) 
-34.21

>  <r_i_glide_energy>  (26) 
-29.0001

>  <r_i_glide_einternal>  (26) 
0

>  <r_i_glide_intrahb_reward>  (26) 
-0

>  <i_i_glide_confnum>  (26) 
1

>  <i_i_glide_posenum>  (26) 
38

>  <r_i_glide_eff_state_penalty>  (26) 
0

>  <ligand_id>  (26) 
16

>  <original_smiles>  (26) 
CC1OCOC2OC3=CC4OC5(CC6C5CC5OC56C)C3(COC2O1)C4=O

>  <smiles>  (26) 
[H]C1=C2OC3([H])OC([H])([H])OC([H])(C([H])([H])[H])OC3([H])OC([H])([H])C23C(=O)C1([H])OC31C([H])([H])C2([H])C1([H])C([H])([H])C1([H])OC12C([H])([H])[H]

$$$$
16:0:2
     RDKit          3D

 49 55  0  0  1  0  0  0  0  0999 V2000
    4.2178   -0.8208   -2.3803 C   0  0  0  0  0  0  0  0  0  0  0  0
    4.6975   -1.7634   -1.2760 C   0  0  2  0  0  0  0  0  0  0  0  0
    6.0664   -1.9341   -1.4807 O   0  0  0  0  0  0  0  0  0  0  0  0
    6.7771   -2.3430   -0.3437 C   0  0  0  0  0  0  0  0  0  0  0  0
    6.0475   -3.0676    0.5991 O   0  0  0  0  0  0  0  0  0  0  0  0
    5.4626   -4.2101    0.0602 C   0  0  1  0  0  0  0  0  0  0  0  0
    5.4723   -5.2683    0.9576 O   0  0  0  0  0  0  0  0  0  0  0  0
    5.1181   -5.0732    2.2785 C   0  0  0  0  0  0  0  0  0  0  0  0
    5.6659   -5.6252    3.3501 C   0  0  0  0  0  0  0  0  0  0  0  0
    4.8512   -5.1808    4.5588 C   0  0  2  0  0  0  0  0  0  0  0  0
    3.5695   -5.8201    4.4528 O   0  0  0  0  0  0  0  0  0  0  0  0
    2.9037   -5.2562    3.2852 C   0  0  2  0  0  0  0  0  0  0  0  0
    1.4193   -4.8291    3.5743 C   0  0  0  0  0  0  0  0  0  0  0  0
    1.0757   -6.3121    3.4229 C   0  0  2  0  0  0  0  0  0  0  0  0
    2.2255   -6.3420    2.4381 C   0  0  2  0  0  0  0  0  0  0  0  0
    2.3955   -7.8228    2.1459 C   0  0  0  0  0  0  0  0  0  0  0  0
    0.8993   -8.1922    2.0385 C   0  0  2  0  0  0  0  0  0  0  0  0
    0.0143   -7.2923    1.3048 O   0  0  0  0  0  0  0  0  0  0  0  0
    0.0438   -7.1709    2.7403 C   0  0  2  0  0  0  0  0  0  0  0  0
   -1.2417   -7.4622    3.4730 C   0  0  0  0  0  0  0  0  0  0  0  0
    3.9219   -4.2459    2.6819 C   0  0  2  0  0  0  0  0  0  0  0  0
    3.4345   -3.1107    1.7804 C   0  0  0  0  0  0  0  0  0  0  0  0
    3.0535   -3.6539    0.5388 O   0  0  0  0  0  0  0  0  0  0  0  0
    4.0236   -3.8875   -0.4525 C   0  0  1  0  0  0  0  0  0  0  0  0
    4.0254   -2.9665   -1.5057 O   0  0  0  0  0  0  0  0  0  0  0  0
    4.5107   -3.8347    3.9901 C   0  0  0  0  0  0  0  0  0  0  0  0
    4.6536   -2.7094    4.4812 O   0  0  0  0  0  0  0  0  0  0  0  0
    4.4420   -1.2626   -3.3519 H   0  0  0  0  0  0  0  0  0  0  0  0
    4.7198    0.1431   -2.3123 H   0  0  0  0  0  0  0  0  0  0  0  0
    3.1417   -0.6662   -2.3127 H   0  0  0  0  0  0  0  0  0  0  0  0
    4.4637   -1.3268   -0.2882 H   0  0  0  0  0  0  0  0  0  0  0  0
    7.6465   -2.9082   -0.6934 H   0  0  0  0  0  0  0  0  0  0  0  0
    7.1450   -1.4621    0.1791 H   0  0  0  0  0  0  0  0  0  0  0  0
    6.0679   -4.5978   -0.7761 H   0  0  0  0  0  0  0  0  0  0  0  0
    6.5076   -6.3111    3.3946 H   0  0  0  0  0  0  0  0  0  0  0  0
    5.3656   -5.1838    5.5216 H   0  0  0  0  0  0  0  0  0  0  0  0
    1.2459   -4.4556    4.5847 H   0  0  0  0  0  0  0  0  0  0  0  0
    0.9670   -4.1997    2.8143 H   0  0  0  0  0  0  0  0  0  0  0  0
    1.3294   -6.7637    4.3784 H   0  0  0  0  0  0  0  0  0  0  0  0
    1.9599   -5.8430    1.5083 H   0  0  0  0  0  0  0  0  0  0  0  0
    2.9312   -8.0491    1.2240 H   0  0  0  0  0  0  0  0  0  0  0  0
    2.8662   -8.3576    2.9739 H   0  0  0  0  0  0  0  0  0  0  0  0
    0.6066   -9.2247    2.0981 H   0  0  0  0  0  0  0  0  0  0  0  0
   -1.0286   -8.0199    4.3823 H   0  0  0  0  0  0  0  0  0  0  0  0
   -1.9002   -8.0581    2.8456 H   0  0  0  0  0  0  0  0  0  0  0  0
   -1.7590   -6.5398    3.7385 H   0  0  0  0  0  0  0  0  0  0  0  0
    2.5467   -2.6685    2.2177 H   0  0  0  0  0  0  0  0  0  0  0  0
    4.1374   -2.2875    1.6942 H   0  0  0  0  0  0  0  0  0  0  0  0
    3.6249   -4.7700   -0.9417 H   0  0  0  0  0  0  0  0  0  0  0  0
  1  2  1  0
  1 28  1  0
  1 29  1  0
  1 30  1  0
  2 25  1  0
  2  3  1  0
  2 31  1  1
  3  4  1  0
  4  5  1  0
  4 32  1  0
  4 33  1  0
  5  6  1  0
  6 24  1  0
  6  7  1  0
  6 34  1  6
  7  8  1  0
  8 21  1  0
  8  9  2  0
  9 10  1  0
  9 35  1  0
 10 26  1  0
 10 11  1  0
 10 36  1  1
 12 11  1  1
 12 15  1  0
 12 13  1  0
 12 21  1  0
 13 14  1  0
 13 37  1  0
 13 38  1  0
 14 19  1  0
 14 15  1  0
 14 39  1  1
 15 16  1  0
 15 40  1  6
 16 17  1  0
 16 41  1  0
 16 42  1  0
 17 19  1  0
 17 18  1  0
 17 43  1  1
 18 19  1  0
 19 20  1  1
 20 44  1  0
 20 45  1  0
 20 46  1  0
 21 22  1  6
 21 26  1  0
 22 23  1  0
 22 47  1  0
 22 48  1  0
 23 24  1  0
 24 25  1  0
 24 49  1  6
 26 27  2  0
M  END
>  <i_m_ct_stereo_status>  (27) 
1

>  <s_m_source_file>  (27) 
/var/tmp/pbs.5076253.sched01/tmpsnpm1fw8/0c_pn72ob.sdf

>  <i_m_source_file_index>  (27) 
26

>  <i_lp_mmshare_version>  (27) 
48012

>  <i_f3d_flags>  (27) 
0

>  <s_epik_input>  (27) 
TzFbQ0gyXU9bQ0BASF0oW0NIM10pT1tDQEhdKE9bQ0gyXTIpW0NAQEhdMU9DKD1bQ0hdW0NASF0oTzMpQzQ9TylbQ0BdMjRbQ0BAXTM1W0NAQEhdNltDQEBIXShbQ0gyXTUpW0NAXTcoW0NIM10pW0NAQEhdKE83KVtDSDJdNg==

>  <s_epik_cmdline>  (27) 
J2VwaWtfcHl0aG9uJywgJy1waHQnLCAnMi4wJywgJy1waCcsICc3LjAnLCAnLXRuJywgJzgnLCAnLW1hJywgJzIwMCcsICctaW1hZScsICc8aW5maWxlLm1hZT4nLCAnLW9tYWUnLCAnPG91dGZpbGUubWFlPic=

>  <r_lp_tautomer_probability>  (27) 
1

>  <r_epik_Ionization_Penalty>  (27) 
5.22197e-06

>  <r_epik_Ionization_Penalty_Charging>  (27) 
0

>  <r_epik_Ionization_Penalty_Neutral>  (27) 
5.22197e-06

>  <r_epik_State_Penalty>  (27) 
-0

>  <r_epik_Charging_Adjusted_Penalty>  (27) 
0

>  <i_epik_Tot_Q>  (27) 
0

>  <i_epik_Tot_abs_Q>  (27) 
0

>  <s_epik_Chemistry_Notes>  (27) 
This compound contains an acetal/aminal-like group ( X-CH(R)-Y where X, Y are N, S, or O) that may be acid/base labile, releasing an aldehyde.

>  <s_lp_Force_Field>  (27) 
OPLS3e

>  <r_lp_Energy>  (27) 
71.1567

>  <b_lp_Chiralities_Consistent>  (27) 
1

>  <s_lp_Variant>  (27) 
16:0-1

>  <s_i_glide_gridfile>  (27) 
pfpi4k_grid

>  <i_i_glide_lignum>  (27) 
26

>  <i_i_glide_rotatable_bonds>  (27) 
0

>  <r_i_docking_score>  (27) 
-2.81208

>  <r_i_glide_ligand_efficiency>  (27) 
-0.104151

>  <r_i_glide_ligand_efficiency_sa>  (27) 
-0.312454

>  <r_i_glide_ligand_efficiency_ln>  (27) 
-0.654607

>  <r_i_glide_gscore>  (27) 
-2.81208

>  <r_i_glide_lipo>  (27) 
-0.0151936

>  <r_i_glide_hbond>  (27) 
-0.0987225

>  <r_i_glide_metal>  (27) 
-0

>  <r_i_glide_rewards>  (27) 
-0.925947

>  <r_i_glide_evdw>  (27) 
-27.5312

>  <r_i_glide_ecoul>  (27) 
-2.20817

>  <r_i_glide_erotb>  (27) 
0

>  <r_i_glide_esite>  (27) 
-0.0644377

>  <r_i_glide_emodel>  (27) 
-34.7439

>  <r_i_glide_energy>  (27) 
-29.7393

>  <r_i_glide_einternal>  (27) 
0

>  <r_i_glide_intrahb_reward>  (27) 
-0

>  <i_i_glide_confnum>  (27) 
2

>  <i_i_glide_posenum>  (27) 
40

>  <r_i_glide_eff_state_penalty>  (27) 
0

>  <ligand_id>  (27) 
16

>  <original_smiles>  (27) 
CC1OCOC2OC3=CC4OC5(CC6C5CC5OC56C)C3(COC2O1)C4=O

>  <smiles>  (27) 
[H]C1=C2OC3([H])OC([H])([H])OC([H])(C([H])([H])[H])OC3([H])OC([H])([H])C23C(=O)C1([H])OC31C([H])([H])C2([H])C1([H])C([H])([H])C1([H])OC12C([H])([H])[H]

$$$$
19:1:0
     RDKit          3D

102114  0  0  1  0  0  0  0  0999 V2000
    2.7320   -5.7427    0.2142 C   0  0  0  0  0  0  0  0  0  0  0  0
    3.5092   -4.5120    0.6922 C   0  0  2  0  0  0  0  0  0  0  0  0
    4.3163   -4.8760    1.7594 O   0  0  0  0  0  0  0  0  0  0  0  0
    4.3709   -3.7080    2.5353 C   0  0  2  0  0  0  0  0  0  0  0  0
    4.7398   -3.9486    3.9947 C   0  0  0  0  0  0  0  0  0  0  0  0
    3.7896   -3.2661    5.0140 C   0  0  1  0  0  0  0  0  0  0  0  0
    4.4173   -3.6840    6.3838 C   0  0  0  0  0  0  0  0  0  0  0  0
    3.8554   -1.7401    4.8552 C   0  0  0  0  0  0  0  0  0  0  0  0
    3.7369   -0.8562    5.8692 C   0  0  0  0  0  0  0  0  0  0  0  0
    3.6946    0.6580    5.8235 C   0  0  0  0  0  0  0  0  0  0  0  0
    2.2790    1.2794    5.7915 C   0  0  1  0  0  0  0  0  0  0  0  0
    1.7296    0.9576    4.4774 O   0  0  0  0  0  0  0  0  0  0  0  0
    1.0008    2.2683    4.5093 C   0  0  2  0  0  0  0  0  0  0  0  0
    0.2655    2.5780    5.6028 O   0  0  0  0  0  0  0  0  0  0  0  0
   -0.4050    1.4358    5.6773 C   0  0  1  0  0  0  0  0  0  0  0  0
   -0.4351    1.0037    6.9878 C   0  0  1  0  0  0  0  0  0  0  0  0
   -1.7654    0.5067    6.3820 O   0  0  0  0  0  0  0  0  0  0  0  0
   -1.7770    1.6952    5.4218 C   0  0  1  0  0  0  0  0  0  0  0  0
   -2.5237    2.9552    5.8910 C   0  0  0  0  0  0  0  0  0  0  0  0
   -1.7137    3.8320    6.6402 O   0  0  0  0  0  0  0  0  0  0  0  0
   -1.4194    1.7549    3.9393 O   0  0  0  0  0  0  0  0  0  0  0  0
   -0.1808    2.4855    3.4383 C   0  0  1  0  0  0  0  0  0  0  0  0
   -0.4155    3.8738    3.2990 O   0  0  0  0  0  0  0  0  0  0  0  0
    1.1777    0.5836    6.9424 C   0  0  2  0  0  0  0  0  0  0  0  0
    1.7292    0.5863    8.4058 C   0  0  1  0  0  0  0  0  0  0  0  0
    1.9256    1.9153    8.8565 O   0  0  0  0  0  0  0  0  0  0  0  0
    0.7333   -0.1045    9.3498 C   0  0  1  0  0  0  0  0  0  0  0  0
   -0.3065    0.6736    9.9361 O   0  0  0  0  0  0  0  0  0  0  0  0
    0.5923   -0.0422   10.8067 C   0  0  1  0  0  0  0  0  0  0  0  0
    0.9376   -1.3875   10.1444 C   0  0  2  0  0  0  0  0  0  0  0  0
    2.2637   -1.8312   10.4712 O   0  0  0  0  0  0  0  0  0  0  0  0
    2.2952   -3.2514   10.6919 C   0  0  0  0  0  0  0  0  0  0  0  0
    0.9601   -3.6968   10.2078 C   0  0  0  0  0  0  0  0  0  0  0  0
    0.6780   -4.1556    8.9868 C   0  0  0  0  0  0  0  0  0  0  0  0
   -0.4903   -3.2001    8.8367 C   0  0  0  0  0  0  0  0  0  0  0  0
   -0.0229   -2.5674   10.1526 C   0  0  2  0  0  0  0  0  0  0  0  0
    1.6356   -4.5499    7.8751 C   0  0  0  0  0  0  0  0  0  0  0  0
    1.0898   -5.3162    6.6382 C   0  0  2  0  0  0  0  0  0  0  0  0
   -0.4236   -5.1545    6.3663 C   0  0  0  0  0  0  0  0  0  0  0  0
    1.2271   -6.7085    6.9471 O   0  0  0  0  0  0  0  0  0  0  0  0
    1.8805   -7.3906    5.8765 C   0  0  0  0  0  0  0  0  0  0  0  0
    3.0574   -8.1631    6.4795 C   0  0  0  0  0  0  0  0  0  0  0  0
    0.8626   -8.3211    5.1936 C   0  0  0  0  0  0  0  0  0  0  0  0
    2.3547   -6.2983    4.9612 C   0  0  0  0  0  0  0  0  0  0  0  0
    1.9565   -5.1066    5.3886 C   0  0  0  0  0  0  0  0  0  0  0  0
    2.2866   -3.7513    4.7218 C   0  0  1  0  0  0  0  0  0  0  0  0
    1.1600   -2.7203    5.0318 C   0  0  0  0  0  0  0  0  0  0  0  0
    2.1061   -3.9258    3.3104 O   0  0  0  0  0  0  0  0  0  0  0  0
    2.9422   -3.2122    2.4391 C   0  0  1  0  0  0  0  0  0  0  0  0
    2.8752   -1.8342    2.6558 O   0  0  0  0  0  0  0  0  0  0  0  0
    3.9875   -1.2997    3.5639 O   0  0  0  0  0  0  0  0  0  0  0  0
    2.6134   -3.5399    1.1294 O   0  0  0  0  0  0  0  0  0  0  0  0
    2.2814    2.7911    5.1782 C   0  0  1  0  0  0  0  0  0  0  0  0
    2.3455    3.9920    6.1365 C   0  0  0  0  0  0  0  0  0  0  0  0
    2.0991   -6.1446    1.0075 H   0  0  0  0  0  0  0  0  0  0  0  0
    3.4280   -6.5171   -0.1114 H   0  0  0  0  0  0  0  0  0  0  0  0
    2.1031   -5.4551   -0.6263 H   0  0  0  0  0  0  0  0  0  0  0  0
    4.1384   -4.1040   -0.1067 H   0  0  0  0  0  0  0  0  0  0  0  0
    5.0455   -2.9900    2.0528 H   0  0  0  0  0  0  0  0  0  0  0  0
    4.7579   -5.0190    4.1800 H   0  0  0  0  0  0  0  0  0  0  0  0
    5.7639   -3.6071    4.1374 H   0  0  0  0  0  0  0  0  0  0  0  0
    4.3510   -4.7634    6.5343 H   0  0  0  0  0  0  0  0  0  0  0  0
    4.0060   -3.1942    7.2649 H   0  0  0  0  0  0  0  0  0  0  0  0
    5.4867   -3.4340    6.3899 H   0  0  0  0  0  0  0  0  0  0  0  0
    3.6143   -1.2163    6.8703 H   0  0  0  0  0  0  0  0  0  0  0  0
    4.2167    1.0297    6.7043 H   0  0  0  0  0  0  0  0  0  0  0  0
    4.2775    0.9944    4.9676 H   0  0  0  0  0  0  0  0  0  0  0  0
   -0.1877    0.5148    5.0811 H   0  0  0  0  0  0  0  0  0  0  0  0
   -0.6010    1.8321    7.6909 H   0  0  0  0  0  0  0  0  0  0  0  0
   -2.8648    3.5345    5.0318 H   0  0  0  0  0  0  0  0  0  0  0  0
   -3.4029    2.7181    6.4864 H   0  0  0  0  0  0  0  0  0  0  0  0
   -0.8362    3.8401    6.2624 H   0  0  0  0  0  0  0  0  0  0  0  0
    0.0930    2.1036    2.4560 H   0  0  0  0  0  0  0  0  0  0  0  0
   -0.2379    4.1102    2.3720 H   0  0  0  0  0  0  0  0  0  0  0  0
    1.1647   -0.4797    6.6960 H   0  0  0  0  0  0  0  0  0  0  0  0
    2.6873    0.0458    8.4732 H   0  0  0  0  0  0  0  0  0  0  0  0
    2.2985    1.8811    9.7248 H   0  0  0  0  0  0  0  0  0  0  0  0
    1.3265    0.4910   11.4411 H   0  0  0  0  0  0  0  0  0  0  0  0
    3.1377   -3.7869   10.2333 H   0  0  0  0  0  0  0  0  0  0  0  0
    2.3630   -3.4514   11.7559 H   0  0  0  0  0  0  0  0  0  0  0  0
   -0.4455   -2.4765    8.0332 H   0  0  0  0  0  0  0  0  0  0  0  0
   -1.4912   -3.5869    8.9267 H   0  0  0  0  0  0  0  0  0  0  0  0
   -0.7636   -2.5164   10.9371 H   0  0  0  0  0  0  0  0  0  0  0  0
    2.0254   -3.5862    7.5926 H   0  0  0  0  0  0  0  0  0  0  0  0
    2.4523   -5.1102    8.3186 H   0  0  0  0  0  0  0  0  0  0  0  0
   -0.7459   -4.1186    6.3040 H   0  0  0  0  0  0  0  0  0  0  0  0
   -1.0023   -5.6211    7.1612 H   0  0  0  0  0  0  0  0  0  0  0  0
   -0.7044   -5.6425    5.4336 H   0  0  0  0  0  0  0  0  0  0  0  0
    3.6178   -8.6989    5.7146 H   0  0  0  0  0  0  0  0  0  0  0  0
    2.7090   -8.8921    7.2086 H   0  0  0  0  0  0  0  0  0  0  0  0
    3.7474   -7.4897    6.9873 H   0  0  0  0  0  0  0  0  0  0  0  0
    1.3190   -8.8803    4.3752 H   0  0  0  0  0  0  0  0  0  0  0  0
    0.0193   -7.7663    4.7801 H   0  0  0  0  0  0  0  0  0  0  0  0
    0.4615   -9.0459    5.9040 H   0  0  0  0  0  0  0  0  0  0  0  0
    2.9474   -6.4861    4.0823 H   0  0  0  0  0  0  0  0  0  0  0  0
    1.0409   -2.5218    6.0934 H   0  0  0  0  0  0  0  0  0  0  0  0
    0.2003   -3.0773    4.6498 H   0  0  0  0  0  0  0  0  0  0  0  0
    1.2958   -1.7538    4.5509 H   0  0  0  0  0  0  0  0  0  0  0  0
    3.0449    2.8949    4.3935 H   0  0  0  0  0  0  0  0  0  0  0  0
    1.6724    3.8982    6.9907 H   0  0  0  0  0  0  0  0  0  0  0  0
    2.0850    4.9121    5.6195 H   0  0  0  0  0  0  0  0  0  0  0  0
    3.3485    4.1034    6.5434 H   0  0  0  0  0  0  0  0  0  0  0  0
  1  2  1  0
  1 55  1  0
  1 56  1  0
  1 57  1  0
  2 52  1  0
  2  3  1  0
  2 58  1  6
  3  4  1  0
  4 49  1  0
  4  5  1  0
  4 59  1  6
  5  6  1  0
  5 60  1  0
  5 61  1  0
  6 46  1  0
  6  7  1  1
  6  8  1  0
  7 62  1  0
  7 63  1  0
  7 64  1  0
  8 51  1  0
  8  9  2  3
  9 10  1  0
  9 65  1  0
 10 11  1  0
 10 66  1  0
 10 67  1  0
 11 24  1  0
 11 53  1  0
 11 12  1  6
 13 12  1  1
 13 22  1  0
 13 14  1  0
 13 53  1  0
 14 15  1  0
 15 18  1  0
 15 16  1  0
 15 68  1  6
 16 17  1  0
 16 24  1  0
 16 69  1  1
 17 18  1  0
 18 19  1  1
 18 21  1  0
 19 20  1  0
 19 70  1  0
 19 71  1  0
 20 72  1  0
 21 22  1  0
 22 23  1  0
 22 73  1  6
 23 74  1  0
 24 25  1  0
 24 75  1  6
 25 26  1  0
 25 27  1  0
 25 76  1  6
 26 77  1  0
 27 29  1  0
 27 30  1  0
 27 28  1  6
 28 29  1  0
 29 30  1  0
 29 78  1  1
 30 36  1  0
 30 31  1  1
 31 32  1  0
 32 33  1  0
 32 79  1  0
 32 80  1  0
 33 36  1  0
 33 34  2  0
 34 35  1  0
 34 37  1  0
 35 36  1  0
 35 81  1  0
 35 82  1  0
 36 83  1  1
 37 38  1  0
 37 84  1  0
 37 85  1  0
 38 45  1  0
 38 39  1  6
 38 40  1  0
 39 86  1  0
 39 87  1  0
 39 88  1  0
 40 41  1  0
 41 42  1  0
 41 43  1  0
 41 44  1  0
 42 89  1  0
 42 90  1  0
 42 91  1  0
 43 92  1  0
 43 93  1  0
 43 94  1  0
 44 45  2  0
 44 95  1  0
 45 46  1  0
 46 47  1  1
 46 48  1  0
 47 96  1  0
 47 97  1  0
 47 98  1  0
 48 49  1  0
 49 50  1  0
 49 52  1  6
 50 51  1  0
 53 54  1  0
 53 99  1  6
 54100  1  0
 54101  1  0
 54102  1  0
M  END
>  <i_m_ct_stereo_status>  (28) 
1

>  <s_m_source_file>  (28) 
/var/tmp/pbs.5076253.sched01/tmpsnpm1fw8/0c_pn72ob.sdf

>  <i_m_source_file_index>  (28) 
29

>  <i_lp_mmshare_version>  (28) 
48012

>  <i_f3d_flags>  (28) 
0

>  <s_epik_input>  (28) 
W0NIM11bQ0BASF0oTzEpT1tDQEhdKFtDSDJdMilbQ0BAXTEoTzMpT09DKD1bQ0hdXFtDSDJdNClcW0NAQF0yKFtDSDNdKVtDQF0zKFtDSDNdKUMoPVtDSF1DKE81KShbQ0gzXSlbQ0gzXSlbQ0BdNShbQ0gzXSlbQ0gyXUMoW0NIMl02KT1DKFtDSDJdTzcpW0NASF02W0NAXTcoW0NAQEhdOE85KVtDQF04OVtDQEhdKFtPSF0pW0NASF0oW0NAQF0xMjQpW0NASF0zW0NASF00W0NAQF0oTzMpKFtDSDJdW09IXSlPW0NAQEhdKFtPSF0pW0NAXShPMSkoTzQpW0NASF0yW0NIM10=

>  <s_epik_cmdline>  (28) 
J2VwaWtfcHl0aG9uJywgJy1waHQnLCAnMi4wJywgJy1waCcsICc3LjAnLCAnLXRuJywgJzgnLCAnLW1hJywgJzIwMCcsICctaW1hZScsICc8aW5maWxlLm1hZT4nLCAnLW9tYWUnLCAnPG91dGZpbGUubWFlPic=

>  <r_lp_tautomer_probability>  (28) 
1

>  <r_epik_Ionization_Penalty>  (28) 
2.33108e-05

>  <r_epik_Ionization_Penalty_Charging>  (28) 
0

>  <r_epik_Ionization_Penalty_Neutral>  (28) 
2.33108e-05

>  <r_epik_State_Penalty>  (28) 
-0

>  <r_epik_Charging_Adjusted_Penalty>  (28) 
0

>  <i_epik_Tot_Q>  (28) 
0

>  <i_epik_Tot_abs_Q>  (28) 
0

>  <s_epik_Chemistry_Notes>  (28) 
This compound contains an acetal/aminal-like group ( X-CH(R)-Y where X, Y are N, S, or O) that may be acid/base labile, releasing an aldehyde.

>  <s_lp_Force_Field>  (28) 
OPLS3e

>  <r_lp_Energy>  (28) 
315.461

>  <b_lp_Chiralities_Consistent>  (28) 
1

>  <s_lp_Variant>  (28) 
19:0-2

>  <s_i_glide_gridfile>  (28) 
pfpi4k_grid

>  <i_i_glide_lignum>  (28) 
29

>  <i_i_glide_rotatable_bonds>  (28) 
4

>  <r_i_docking_score>  (28) 
-3.08861

>  <r_i_glide_ligand_efficiency>  (28) 
-0.0571964

>  <r_i_glide_ligand_efficiency_sa>  (28) 
-0.216189

>  <r_i_glide_ligand_efficiency_ln>  (28) 
-0.619085

>  <r_i_glide_gscore>  (28) 
-3.08861

>  <r_i_glide_lipo>  (28) 
-0.130374

>  <r_i_glide_hbond>  (28) 
-0.16

>  <r_i_glide_metal>  (28) 
-0

>  <r_i_glide_rewards>  (28) 
-0.5

>  <r_i_glide_evdw>  (28) 
-23.9745

>  <r_i_glide_ecoul>  (28) 
-6.97405

>  <r_i_glide_erotb>  (28) 
0.0377848

>  <r_i_glide_esite>  (28) 
-0.0911829

>  <r_i_glide_emodel>  (28) 
-36.8602

>  <r_i_glide_energy>  (28) 
-30.9486

>  <r_i_glide_einternal>  (28) 
6.95109

>  <r_i_glide_intrahb_reward>  (28) 
-0.5

>  <i_i_glide_confnum>  (28) 
3

>  <i_i_glide_posenum>  (28) 
29

>  <r_i_glide_eff_state_penalty>  (28) 
0

>  <ligand_id>  (28) 
19

>  <original_smiles>  (28) 
CC1OC2CC3(C)C4=CCC56OC7(OC8C(OC8(CO)OC7O)C5C(O)C57OC5C75OCC7=C(CC75)CC5(C)OC(C)(C)C=C5C3(C)OC2(OO4)O1)C6C

>  <smiles>  (28) 
[H]OC([H])([H])C12OC([H])(O[H])C34OC1([H])C([H])(O2)C1([H])C([H])(O[H])C25OC2([H])C52OC([H])([H])C5=C(C([H])([H])C52[H])C([H])([H])C2(C([H])([H])[H])OC(C([H])([H])[H])(C([H])([H])[H])C([H])=C2C2(C([H])([H])[H])OC56OOC(=C([H])C([H])([H])C1(O3)C4([H])C([H])([H])[H])C2(C([H])([H])[H])C([H])([H])C5([H])OC([H])(C([H])([H])[H])O6

$$$$
19:1:1
     RDKit          3D

102114  0  0  1  0  0  0  0  0999 V2000
   -1.1983   -2.6599   12.2673 C   0  0  0  0  0  0  0  0  0  0  0  0
    0.0776   -3.4492   11.9612 C   0  0  2  0  0  0  0  0  0  0  0  0
    1.1193   -2.5629   11.7422 O   0  0  0  0  0  0  0  0  0  0  0  0
    1.9312   -3.2352   10.8189 C   0  0  2  0  0  0  0  0  0  0  0  0
    2.8496   -2.3232   10.0128 C   0  0  0  0  0  0  0  0  0  0  0  0
    2.8073   -2.5632    8.4777 C   0  0  1  0  0  0  0  0  0  0  0  0
    3.8281   -1.5038    7.9497 C   0  0  0  0  0  0  0  0  0  0  0  0
    3.2978   -3.9822    8.1547 C   0  0  0  0  0  0  0  0  0  0  0  0
    3.9829   -4.3169    7.0414 C   0  0  0  0  0  0  0  0  0  0  0  0
    4.4526   -5.6816    6.5722 C   0  0  0  0  0  0  0  0  0  0  0  0
    3.5120   -6.3994    5.5703 C   0  0  1  0  0  0  0  0  0  0  0  0
    2.3250   -6.7745    6.3327 O   0  0  0  0  0  0  0  0  0  0  0  0
    2.1939   -7.9938    5.4713 C   0  0  2  0  0  0  0  0  0  0  0  0
    2.2184   -7.8649    4.1205 O   0  0  0  0  0  0  0  0  0  0  0  0
    1.3310   -6.8731    4.0613 C   0  0  1  0  0  0  0  0  0  0  0  0
    1.7933   -5.9025    3.2027 C   0  0  1  0  0  0  0  0  0  0  0  0
    0.2626   -5.8601    3.0464 O   0  0  0  0  0  0  0  0  0  0  0  0
    0.1681   -7.3414    3.3941 C   0  0  1  0  0  0  0  0  0  0  0  0
    0.2735   -8.3177    2.2187 C   0  0  0  0  0  0  0  0  0  0  0  0
   -1.0077   -8.5302    1.6813 O   0  0  0  0  0  0  0  0  0  0  0  0
   -0.2125   -8.0326    4.7079 O   0  0  0  0  0  0  0  0  0  0  0  0
    0.7955   -8.7821    5.5651 C   0  0  1  0  0  0  0  0  0  0  0  0
    0.9919  -10.1077    5.1159 O   0  0  0  0  0  0  0  0  0  0  0  0
    2.9333   -5.3839    4.2947 C   0  0  2  0  0  0  0  0  0  0  0  0
    4.0683   -4.6569    3.5195 C   0  0  1  0  0  0  0  0  0  0  0  0
    4.9238   -5.5666    2.8709 O   0  0  0  0  0  0  0  0  0  0  0  0
    3.4793   -3.7238    2.4559 C   0  0  1  0  0  0  0  0  0  0  0  0
    3.2445   -4.2657    1.1630 O   0  0  0  0  0  0  0  0  0  0  0  0
    4.0918   -3.1220    1.2480 C   0  0  1  0  0  0  0  0  0  0  0  0
    3.6042   -2.2034    2.3685 C   0  0  2  0  0  0  0  0  0  0  0  0
    4.6801   -1.5219    3.0423 O   0  0  0  0  0  0  0  0  0  0  0  0
    4.3241   -0.1522    3.3510 C   0  0  0  0  0  0  0  0  0  0  0  0
    2.8611   -0.1178    3.0787 C   0  0  0  0  0  0  0  0  0  0  0  0
    1.8833   -0.2994    3.9834 C   0  0  0  0  0  0  0  0  0  0  0  0
    1.1995   -1.3411    3.1075 C   0  0  0  0  0  0  0  0  0  0  0  0
    2.4247   -1.2530    2.1955 C   0  0  2  0  0  0  0  0  0  0  0  0
    1.9934   -0.3562    5.4941 C   0  0  0  0  0  0  0  0  0  0  0  0
    0.6989   -0.2943    6.3495 C   0  0  2  0  0  0  0  0  0  0  0  0
   -0.5962   -0.7218    5.6217 C   0  0  0  0  0  0  0  0  0  0  0  0
    0.4790    1.0902    6.6377 O   0  0  0  0  0  0  0  0  0  0  0  0
    0.2627    1.2789    8.0350 C   0  0  0  0  0  0  0  0  0  0  0  0
    1.2421    2.3571    8.5087 C   0  0  0  0  0  0  0  0  0  0  0  0
   -1.2027    1.6937    8.2553 C   0  0  0  0  0  0  0  0  0  0  0  0
    0.5795   -0.0534    8.6518 C   0  0  0  0  0  0  0  0  0  0  0  0
    0.8733   -0.9561    7.7202 C   0  0  0  0  0  0  0  0  0  0  0  0
    1.2838   -2.4232    7.9817 C   0  0  1  0  0  0  0  0  0  0  0  0
    0.8750   -3.3141    6.7711 C   0  0  0  0  0  0  0  0  0  0  0  0
    0.3959   -2.9258    8.9943 O   0  0  0  0  0  0  0  0  0  0  0  0
    0.9000   -3.8677    9.9081 C   0  0  1  0  0  0  0  0  0  0  0  0
    1.4309   -4.9929    9.2621 O   0  0  0  0  0  0  0  0  0  0  0  0
    2.9338   -4.9366    9.0675 O   0  0  0  0  0  0  0  0  0  0  0  0
   -0.1125   -4.2044   10.8031 O   0  0  0  0  0  0  0  0  0  0  0  0
    3.7318   -8.0108    5.5607 C   0  0  1  0  0  0  0  0  0  0  0  0
    4.6587   -8.6310    4.5038 C   0  0  0  0  0  0  0  0  0  0  0  0
   -1.4686   -2.0119   11.4324 H   0  0  0  0  0  0  0  0  0  0  0  0
   -1.0563   -2.0464   13.1583 H   0  0  0  0  0  0  0  0  0  0  0  0
   -2.0164   -3.3538   12.4538 H   0  0  0  0  0  0  0  0  0  0  0  0
    0.3506   -4.1053   12.7920 H   0  0  0  0  0  0  0  0  0  0  0  0
    2.4906   -4.0153   11.3475 H   0  0  0  0  0  0  0  0  0  0  0  0
    2.5888   -1.2886   10.2258 H   0  0  0  0  0  0  0  0  0  0  0  0
    3.8628   -2.4514   10.3948 H   0  0  0  0  0  0  0  0  0  0  0  0
    3.4758   -0.4902    8.1398 H   0  0  0  0  0  0  0  0  0  0  0  0
    4.0830   -1.5819    6.8994 H   0  0  0  0  0  0  0  0  0  0  0  0
    4.7756   -1.6111    8.4844 H   0  0  0  0  0  0  0  0  0  0  0  0
    4.2588   -3.5521    6.3368 H   0  0  0  0  0  0  0  0  0  0  0  0
    5.4246   -5.5548    6.0981 H   0  0  0  0  0  0  0  0  0  0  0  0
    4.6301   -6.3046    7.4455 H   0  0  0  0  0  0  0  0  0  0  0  0
    0.9100   -6.3015    4.9258 H   0  0  0  0  0  0  0  0  0  0  0  0
    2.2712   -6.3385    2.3184 H   0  0  0  0  0  0  0  0  0  0  0  0
    0.9168   -7.9517    1.4257 H   0  0  0  0  0  0  0  0  0  0  0  0
    0.6857   -9.2836    2.5241 H   0  0  0  0  0  0  0  0  0  0  0  0
   -0.9098   -9.1667    0.9771 H   0  0  0  0  0  0  0  0  0  0  0  0
    0.4280   -8.8342    6.5899 H   0  0  0  0  0  0  0  0  0  0  0  0
    1.4540  -10.0523    4.2931 H   0  0  0  0  0  0  0  0  0  0  0  0
    2.4379   -4.5564    4.8065 H   0  0  0  0  0  0  0  0  0  0  0  0
    4.6906   -4.0546    4.1825 H   0  0  0  0  0  0  0  0  0  0  0  0
    4.4219   -6.1015    2.2716 H   0  0  0  0  0  0  0  0  0  0  0  0
    5.1663   -3.2240    1.0622 H   0  0  0  0  0  0  0  0  0  0  0  0
    4.6002    0.2020    4.3548 H   0  0  0  0  0  0  0  0  0  0  0  0
    4.8184    0.5134    2.6473 H   0  0  0  0  0  0  0  0  0  0  0  0
    1.0973   -2.3496    3.4929 H   0  0  0  0  0  0  0  0  0  0  0  0
    0.3067   -1.0653    2.5787 H   0  0  0  0  0  0  0  0  0  0  0  0
    2.2190   -1.0189    1.1644 H   0  0  0  0  0  0  0  0  0  0  0  0
    2.5071   -1.2944    5.6276 H   0  0  0  0  0  0  0  0  0  0  0  0
    2.6765    0.4259    5.8066 H   0  0  0  0  0  0  0  0  0  0  0  0
   -0.5313   -1.7001    5.1503 H   0  0  0  0  0  0  0  0  0  0  0  0
   -0.8431   -0.0081    4.8359 H   0  0  0  0  0  0  0  0  0  0  0  0
   -1.4394   -0.7439    6.3093 H   0  0  0  0  0  0  0  0  0  0  0  0
    1.1464    2.5448    9.5786 H   0  0  0  0  0  0  0  0  0  0  0  0
    1.0623    3.2957    7.9885 H   0  0  0  0  0  0  0  0  0  0  0  0
    2.2739    2.0637    8.3129 H   0  0  0  0  0  0  0  0  0  0  0  0
   -1.4184    1.8575    9.3128 H   0  0  0  0  0  0  0  0  0  0  0  0
   -1.8980    0.9434    7.8879 H   0  0  0  0  0  0  0  0  0  0  0  0
   -1.4234    2.6175    7.7212 H   0  0  0  0  0  0  0  0  0  0  0  0
    0.5781   -0.2257    9.7180 H   0  0  0  0  0  0  0  0  0  0  0  0
    1.3566   -3.0205    5.8454 H   0  0  0  0  0  0  0  0  0  0  0  0
   -0.2029   -3.2728    6.6143 H   0  0  0  0  0  0  0  0  0  0  0  0
    1.0857   -4.3708    6.9064 H   0  0  0  0  0  0  0  0  0  0  0  0
    4.0020   -8.3762    6.5611 H   0  0  0  0  0  0  0  0  0  0  0  0
    4.4923   -8.2306    3.5013 H   0  0  0  0  0  0  0  0  0  0  0  0
    4.5184   -9.7119    4.4505 H   0  0  0  0  0  0  0  0  0  0  0  0
    5.7037   -8.4340    4.7491 H   0  0  0  0  0  0  0  0  0  0  0  0
  1  2  1  0
  1 55  1  0
  1 56  1  0
  1 57  1  0
  2 52  1  0
  2  3  1  0
  2 58  1  1
  3  4  1  0
  4 49  1  0
  4  5  1  0
  4 59  1  1
  5  6  1  0
  5 60  1  0
  5 61  1  0
  6 46  1  0
  6  7  1  6
  6  8  1  0
  7 62  1  0
  7 63  1  0
  7 64  1  0
  8 51  1  0
  8  9  2  3
  9 10  1  0
  9 65  1  0
 10 11  1  0
 10 66  1  0
 10 67  1  0
 11 24  1  0
 11 53  1  0
 11 12  1  1
 13 12  1  1
 13 22  1  0
 13 14  1  0
 13 53  1  0
 14 15  1  0
 15 18  1  0
 15 16  1  0
 15 68  1  1
 16 17  1  0
 16 24  1  0
 16 69  1  6
 17 18  1  0
 18 19  1  6
 18 21  1  0
 19 20  1  0
 19 70  1  0
 19 71  1  0
 20 72  1  0
 21 22  1  0
 22 23  1  0
 22 73  1  1
 23 74  1  0
 24 25  1  0
 24 75  1  1
 25 26  1  0
 25 27  1  0
 25 76  1  1
 26 77  1  0
 27 29  1  0
 27 30  1  0
 27 28  1  6
 28 29  1  0
 29 30  1  0
 29 78  1  1
 30 36  1  0
 30 31  1  1
 31 32  1  0
 32 33  1  0
 32 79  1  0
 32 80  1  0
 33 36  1  0
 33 34  2  0
 34 35  1  0
 34 37  1  0
 35 36  1  0
 35 81  1  0
 35 82  1  0
 36 83  1  6
 37 38  1  0
 37 84  1  0
 37 85  1  0
 38 45  1  0
 38 39  1  6
 38 40  1  0
 39 86  1  0
 39 87  1  0
 39 88  1  0
 40 41  1  0
 41 42  1  0
 41 43  1  0
 41 44  1  0
 42 89  1  0
 42 90  1  0
 42 91  1  0
 43 92  1  0
 43 93  1  0
 43 94  1  0
 44 45  2  0
 44 95  1  0
 45 46  1  0
 46 47  1  6
 46 48  1  0
 47 96  1  0
 47 97  1  0
 47 98  1  0
 48 49  1  0
 49 50  1  0
 49 52  1  1
 50 51  1  0
 53 54  1  0
 53 99  1  1
 54100  1  0
 54101  1  0
 54102  1  0
M  END
>  <i_m_ct_stereo_status>  (29) 
1

>  <s_m_source_file>  (29) 
/var/tmp/pbs.5076253.sched01/tmpsnpm1fw8/0c_pn72ob.sdf

>  <i_m_source_file_index>  (29) 
29

>  <i_lp_mmshare_version>  (29) 
48012

>  <i_f3d_flags>  (29) 
0

>  <s_epik_input>  (29) 
W0NIM11bQ0BASF0oTzEpT1tDQEhdKFtDSDJdMilbQ0BAXTEoTzMpT09DKD1bQ0hdXFtDSDJdNClcW0NAQF0yKFtDSDNdKVtDQF0zKFtDSDNdKUMoPVtDSF1DKE81KShbQ0gzXSlbQ0gzXSlbQ0BdNShbQ0gzXSlbQ0gyXUMoW0NIMl02KT1DKFtDSDJdTzcpW0NASF02W0NAXTcoW0NAQEhdOE85KVtDQF04OVtDQEhdKFtPSF0pW0NASF0oW0NAQF0xMjQpW0NASF0zW0NASF00W0NAQF0oTzMpKFtDSDJdW09IXSlPW0NAQEhdKFtPSF0pW0NAXShPMSkoTzQpW0NASF0yW0NIM10=

>  <s_epik_cmdline>  (29) 
J2VwaWtfcHl0aG9uJywgJy1waHQnLCAnMi4wJywgJy1waCcsICc3LjAnLCAnLXRuJywgJzgnLCAnLW1hJywgJzIwMCcsICctaW1hZScsICc8aW5maWxlLm1hZT4nLCAnLW9tYWUnLCAnPG91dGZpbGUubWFlPic=

>  <r_lp_tautomer_probability>  (29) 
1

>  <r_epik_Ionization_Penalty>  (29) 
2.33108e-05

>  <r_epik_Ionization_Penalty_Charging>  (29) 
0

>  <r_epik_Ionization_Penalty_Neutral>  (29) 
2.33108e-05

>  <r_epik_State_Penalty>  (29) 
-0

>  <r_epik_Charging_Adjusted_Penalty>  (29) 
0

>  <i_epik_Tot_Q>  (29) 
0

>  <i_epik_Tot_abs_Q>  (29) 
0

>  <s_epik_Chemistry_Notes>  (29) 
This compound contains an acetal/aminal-like group ( X-CH(R)-Y where X, Y are N, S, or O) that may be acid/base labile, releasing an aldehyde.

>  <s_lp_Force_Field>  (29) 
OPLS3e

>  <r_lp_Energy>  (29) 
315.461

>  <b_lp_Chiralities_Consistent>  (29) 
1

>  <s_lp_Variant>  (29) 
19:0-2

>  <s_i_glide_gridfile>  (29) 
pfpi4k_grid

>  <i_i_glide_lignum>  (29) 
29

>  <i_i_glide_rotatable_bonds>  (29) 
4

>  <r_i_docking_score>  (29) 
-2.37146

>  <r_i_glide_ligand_efficiency>  (29) 
-0.0439159

>  <r_i_glide_ligand_efficiency_sa>  (29) 
-0.165992

>  <r_i_glide_ligand_efficiency_ln>  (29) 
-0.475339

>  <r_i_glide_gscore>  (29) 
-2.37146

>  <r_i_glide_lipo>  (29) 
-0.0445806

>  <r_i_glide_hbond>  (29) 
-0.0919253

>  <r_i_glide_metal>  (29) 
-0

>  <r_i_glide_rewards>  (29) 
0

>  <r_i_glide_evdw>  (29) 
-21.5279

>  <r_i_glide_ecoul>  (29) 
-7.39904

>  <r_i_glide_erotb>  (29) 
0.0377848

>  <r_i_glide_esite>  (29) 
-0.0864864

>  <r_i_glide_emodel>  (29) 
-33.1745

>  <r_i_glide_energy>  (29) 
-28.927

>  <r_i_glide_einternal>  (29) 
0.325514

>  <r_i_glide_intrahb_reward>  (29) 
-0

>  <i_i_glide_confnum>  (29) 
3

>  <i_i_glide_posenum>  (29) 
2

>  <r_i_glide_eff_state_penalty>  (29) 
0

>  <ligand_id>  (29) 
19

>  <original_smiles>  (29) 
CC1OC2CC3(C)C4=CCC56OC7(OC8C(OC8(CO)OC7O)C5C(O)C57OC5C75OCC7=C(CC75)CC5(C)OC(C)(C)C=C5C3(C)OC2(OO4)O1)C6C

>  <smiles>  (29) 
[H]OC([H])([H])C12OC([H])(O[H])C34OC1([H])C([H])(O2)C1([H])C([H])(O[H])C25OC2([H])C52OC([H])([H])C5=C(C([H])([H])C52[H])C([H])([H])C2(C([H])([H])[H])OC(C([H])([H])[H])(C([H])([H])[H])C([H])=C2C2(C([H])([H])[H])OC56OOC(=C([H])C([H])([H])C1(O3)C4([H])C([H])([H])[H])C2(C([H])([H])[H])C([H])([H])C5([H])OC([H])(C([H])([H])[H])O6

$$$$
19:1:2
     RDKit          3D

102114  0  0  1  0  0  0  0  0999 V2000
    4.2163   -6.9907    0.2782 C   0  0  0  0  0  0  0  0  0  0  0  0
    5.0225   -5.8586    0.9212 C   0  0  2  0  0  0  0  0  0  0  0  0
    5.5081   -6.2834    2.1473 O   0  0  0  0  0  0  0  0  0  0  0  0
    5.5447   -5.1077    2.9057 C   0  0  2  0  0  0  0  0  0  0  0  0
    5.5324   -5.3408    4.4156 C   0  0  0  0  0  0  0  0  0  0  0  0
    4.4776   -4.4988    5.1863 C   0  0  1  0  0  0  0  0  0  0  0  0
    4.7108   -4.9465    6.6616 C   0  0  0  0  0  0  0  0  0  0  0  0
    4.7929   -2.9997    5.0356 C   0  0  0  0  0  0  0  0  0  0  0  0
    4.5681   -2.0706    5.9845 C   0  0  0  0  0  0  0  0  0  0  0  0
    4.7481   -0.5616    5.9271 C   0  0  0  0  0  0  0  0  0  0  0  0
    3.4798    0.2494    5.5666 C   0  0  1  0  0  0  0  0  0  0  0  0
    3.2000   -0.0342    4.1582 O   0  0  0  0  0  0  0  0  0  0  0  0
    2.6666    1.3654    4.0167 C   0  0  2  0  0  0  0  0  0  0  0  0
    1.7378    1.8193    4.8972 O   0  0  0  0  0  0  0  0  0  0  0  0
    0.9342    0.7598    4.8223 C   0  0  1  0  0  0  0  0  0  0  0  0
    0.5585    0.3892    6.0912 C   0  0  1  0  0  0  0  0  0  0  0  0
   -0.6520    0.0278    5.2078 O   0  0  0  0  0  0  0  0  0  0  0  0
   -0.3027    1.1670    4.2464 C   0  0  1  0  0  0  0  0  0  0  0  0
   -0.9006    2.5478    4.5548 C   0  0  0  0  0  0  0  0  0  0  0  0
   -2.1838    2.6623    3.9887 O   0  0  0  0  0  0  0  0  0  0  0  0
    0.4127    1.1307    2.8920 O   0  0  0  0  0  0  0  0  0  0  0  0
    1.8142    1.6788    2.6884 C   0  0  1  0  0  0  0  0  0  0  0  0
    1.8126    3.0711    2.4807 O   0  0  0  0  0  0  0  0  0  0  0  0
    2.0591   -0.2437    6.4297 C   0  0  2  0  0  0  0  0  0  0  0  0
    2.2453   -0.2759    7.9771 C   0  0  1  0  0  0  0  0  0  0  0  0
    2.5408    1.0069    8.4932 O   0  0  0  0  0  0  0  0  0  0  0  0
    0.9688   -0.7779    8.6604 C   0  0  1  0  0  0  0  0  0  0  0  0
   -0.0512    0.1460    9.0143 O   0  0  0  0  0  0  0  0  0  0  0  0
    0.5153   -0.6497   10.0579 C   0  0  1  0  0  0  0  0  0  0  0  0
    0.8120   -2.0459    9.4902 C   0  0  2  0  0  0  0  0  0  0  0  0
    1.9595   -2.6644   10.1276 O   0  0  0  0  0  0  0  0  0  0  0  0
    1.7432   -4.0706   10.3556 C   0  0  0  0  0  0  0  0  0  0  0  0
    0.5046   -4.3485    9.5806 C   0  0  0  0  0  0  0  0  0  0  0  0
    0.4443   -4.8137    8.3189 C   0  0  0  0  0  0  0  0  0  0  0  0
   -0.5118   -3.7032    7.9102 C   0  0  0  0  0  0  0  0  0  0  0  0
   -0.2756   -3.1015    9.2913 C   0  0  2  0  0  0  0  0  0  0  0  0
    1.5668   -5.3661    7.4680 C   0  0  0  0  0  0  0  0  0  0  0  0
    1.2180   -6.0996    6.1431 C   0  0  2  0  0  0  0  0  0  0  0  0
   -0.1522   -5.7394    5.5247 C   0  0  0  0  0  0  0  0  0  0  0  0
    1.0836   -7.4841    6.4832 O   0  0  0  0  0  0  0  0  0  0  0  0
    1.8587   -8.2892    5.5973 C   0  0  0  0  0  0  0  0  0  0  0  0
    2.7466   -9.1921    6.4597 C   0  0  0  0  0  0  0  0  0  0  0  0
    0.9060   -9.0971    4.7001 C   0  0  0  0  0  0  0  0  0  0  0  0
    2.6799   -7.3062    4.8113 C   0  0  0  0  0  0  0  0  0  0  0  0
    2.3675   -6.0535    5.1304 C   0  0  0  0  0  0  0  0  0  0  0  0
    3.0306   -4.7814    4.5557 C   0  0  1  0  0  0  0  0  0  0  0  0
    2.0195   -3.5976    4.5866 C   0  0  0  0  0  0  0  0  0  0  0  0
    3.1533   -4.9887    3.1380 O   0  0  0  0  0  0  0  0  0  0  0  0
    4.2615   -4.4276    2.4808 C   0  0  1  0  0  0  0  0  0  0  0  0
    4.3415   -3.0441    2.6794 O   0  0  0  0  0  0  0  0  0  0  0  0
    5.2780   -2.6421    3.8062 O   0  0  0  0  0  0  0  0  0  0  0  0
    4.1965   -4.7545    1.1321 O   0  0  0  0  0  0  0  0  0  0  0  0
    3.8338    1.7199    4.9592 C   0  0  1  0  0  0  0  0  0  0  0  0
    3.8585    2.9315    5.9069 C   0  0  0  0  0  0  0  0  0  0  0  0
    3.3539   -7.2637    0.8952 H   0  0  0  0  0  0  0  0  0  0  0  0
    4.8412   -7.8689    0.1253 H   0  0  0  0  0  0  0  0  0  0  0  0
    3.8645   -6.6506   -0.6921 H   0  0  0  0  0  0  0  0  0  0  0  0
    5.8728   -5.5650    0.2926 H   0  0  0  0  0  0  0  0  0  0  0  0
    6.4045   -4.5090    2.5885 H   0  0  0  0  0  0  0  0  0  0  0  0
    5.3552   -6.3954    4.6043 H   0  0  0  0  0  0  0  0  0  0  0  0
    6.5367   -5.1360    4.7893 H   0  0  0  0  0  0  0  0  0  0  0  0
    4.4612   -6.0001    6.7958 H   0  0  0  0  0  0  0  0  0  0  0  0
    4.1826   -4.3764    7.4197 H   0  0  0  0  0  0  0  0  0  0  0  0
    5.7729   -4.8462    6.9147 H   0  0  0  0  0  0  0  0  0  0  0  0
    4.1756   -2.3722    6.9398 H   0  0  0  0  0  0  0  0  0  0  0  0
    5.1063   -0.2397    6.9012 H   0  0  0  0  0  0  0  0  0  0  0  0
    5.5572   -0.3450    5.2316 H   0  0  0  0  0  0  0  0  0  0  0  0
    1.1598   -0.2062    4.2960 H   0  0  0  0  0  0  0  0  0  0  0  0
    0.3644    1.2585    6.7262 H   0  0  0  0  0  0  0  0  0  0  0  0
   -0.9691    2.7417    5.6194 H   0  0  0  0  0  0  0  0  0  0  0  0
   -0.2867    3.3490    4.1451 H   0  0  0  0  0  0  0  0  0  0  0  0
   -2.1146    2.4577    3.0669 H   0  0  0  0  0  0  0  0  0  0  0  0
    2.2656    1.2131    1.8157 H   0  0  0  0  0  0  0  0  0  0  0  0
    1.1908    3.2713    1.7715 H   0  0  0  0  0  0  0  0  0  0  0  0
    1.9581   -1.3036    6.1901 H   0  0  0  0  0  0  0  0  0  0  0  0
    3.0743   -0.9288    8.2709 H   0  0  0  0  0  0  0  0  0  0  0  0
    1.8301    1.5963    8.2766 H   0  0  0  0  0  0  0  0  0  0  0  0
    1.1812   -0.2176   10.8178 H   0  0  0  0  0  0  0  0  0  0  0  0
    2.5847   -4.7366   10.1108 H   0  0  0  0  0  0  0  0  0  0  0  0
    1.5315   -4.2404   11.4079 H   0  0  0  0  0  0  0  0  0  0  0  0
   -0.1857   -3.0159    7.1343 H   0  0  0  0  0  0  0  0  0  0  0  0
   -1.5543   -3.9371    7.7601 H   0  0  0  0  0  0  0  0  0  0  0  0
   -1.1412   -2.9358    9.9036 H   0  0  0  0  0  0  0  0  0  0  0  0
    2.1413   -4.4718    7.2796 H   0  0  0  0  0  0  0  0  0  0  0  0
    2.1740   -6.0119    8.0906 H   0  0  0  0  0  0  0  0  0  0  0  0
   -0.2997   -4.6716    5.3873 H   0  0  0  0  0  0  0  0  0  0  0  0
   -0.9600   -6.0882    6.1631 H   0  0  0  0  0  0  0  0  0  0  0  0
   -0.2796   -6.2185    4.5540 H   0  0  0  0  0  0  0  0  0  0  0  0
    3.3855   -9.8281    5.8465 H   0  0  0  0  0  0  0  0  0  0  0  0
    2.1416   -9.8412    7.0914 H   0  0  0  0  0  0  0  0  0  0  0  0
    3.3902   -8.6002    7.1102 H   0  0  0  0  0  0  0  0  0  0  0  0
    1.4555   -9.7451    4.0150 H   0  0  0  0  0  0  0  0  0  0  0  0
    0.2691   -8.4484    4.0978 H   0  0  0  0  0  0  0  0  0  0  0  0
    0.2523   -9.7322    5.3001 H   0  0  0  0  0  0  0  0  0  0  0  0
    3.4240   -7.6059    4.0939 H   0  0  0  0  0  0  0  0  0  0  0  0
    1.6920   -3.3452    5.5894 H   0  0  0  0  0  0  0  0  0  0  0  0
    1.1350   -3.8351    3.9906 H   0  0  0  0  0  0  0  0  0  0  0  0
    2.4005   -2.6793    4.1441 H   0  0  0  0  0  0  0  0  0  0  0  0
    4.7579    1.6779    4.3733 H   0  0  0  0  0  0  0  0  0  0  0  0
    3.0017    2.9624    6.5834 H   0  0  0  0  0  0  0  0  0  0  0  0
    3.8576    3.8586    5.3393 H   0  0  0  0  0  0  0  0  0  0  0  0
    4.7478    2.9103    6.5322 H   0  0  0  0  0  0  0  0  0  0  0  0
  1  2  1  0
  1 55  1  0
  1 56  1  0
  1 57  1  0
  2 52  1  0
  2  3  1  0
  2 58  1  6
  3  4  1  0
  4 49  1  0
  4  5  1  0
  4 59  1  1
  5  6  1  0
  5 60  1  0
  5 61  1  0
  6 46  1  0
  6  7  1  1
  6  8  1  0
  7 62  1  0
  7 63  1  0
  7 64  1  0
  8 51  1  0
  8  9  2  3
  9 10  1  0
  9 65  1  0
 10 11  1  0
 10 66  1  0
 10 67  1  0
 11 24  1  0
 11 53  1  0
 11 12  1  6
 13 12  1  1
 13 22  1  0
 13 14  1  0
 13 53  1  0
 14 15  1  0
 15 18  1  0
 15 16  1  0
 15 68  1  6
 16 17  1  0
 16 24  1  0
 16 69  1  1
 17 18  1  0
 18 19  1  1
 18 21  1  0
 19 20  1  0
 19 70  1  0
 19 71  1  0
 20 72  1  0
 21 22  1  0
 22 23  1  0
 22 73  1  6
 23 74  1  0
 24 25  1  0
 24 75  1  6
 25 26  1  0
 25 27  1  0
 25 76  1  6
 26 77  1  0
 27 29  1  0
 27 30  1  0
 27 28  1  6
 28 29  1  0
 29 30  1  0
 29 78  1  1
 30 36  1  0
 30 31  1  1
 31 32  1  0
 32 33  1  0
 32 79  1  0
 32 80  1  0
 33 36  1  0
 33 34  2  0
 34 35  1  0
 34 37  1  0
 35 36  1  0
 35 81  1  0
 35 82  1  0
 36 83  1  1
 37 38  1  0
 37 84  1  0
 37 85  1  0
 38 45  1  0
 38 39  1  6
 38 40  1  0
 39 86  1  0
 39 87  1  0
 39 88  1  0
 40 41  1  0
 41 42  1  0
 41 43  1  0
 41 44  1  0
 42 89  1  0
 42 90  1  0
 42 91  1  0
 43 92  1  0
 43 93  1  0
 43 94  1  0
 44 45  2  0
 44 95  1  0
 45 46  1  0
 46 47  1  6
 46 48  1  0
 47 96  1  0
 47 97  1  0
 47 98  1  0
 48 49  1  0
 49 50  1  0
 49 52  1  6
 50 51  1  0
 53 54  1  0
 53 99  1  6
 54100  1  0
 54101  1  0
 54102  1  0
M  END
>  <i_m_ct_stereo_status>  (30) 
1

>  <s_m_source_file>  (30) 
/var/tmp/pbs.5076253.sched01/tmpsnpm1fw8/0c_pn72ob.sdf

>  <i_m_source_file_index>  (30) 
29

>  <i_lp_mmshare_version>  (30) 
48012

>  <i_f3d_flags>  (30) 
0

>  <s_epik_input>  (30) 
W0NIM11bQ0BASF0oTzEpT1tDQEhdKFtDSDJdMilbQ0BAXTEoTzMpT09DKD1bQ0hdXFtDSDJdNClcW0NAQF0yKFtDSDNdKVtDQF0zKFtDSDNdKUMoPVtDSF1DKE81KShbQ0gzXSlbQ0gzXSlbQ0BdNShbQ0gzXSlbQ0gyXUMoW0NIMl02KT1DKFtDSDJdTzcpW0NASF02W0NAXTcoW0NAQEhdOE85KVtDQF04OVtDQEhdKFtPSF0pW0NASF0oW0NAQF0xMjQpW0NASF0zW0NASF00W0NAQF0oTzMpKFtDSDJdW09IXSlPW0NAQEhdKFtPSF0pW0NAXShPMSkoTzQpW0NASF0yW0NIM10=

>  <s_epik_cmdline>  (30) 
J2VwaWtfcHl0aG9uJywgJy1waHQnLCAnMi4wJywgJy1waCcsICc3LjAnLCAnLXRuJywgJzgnLCAnLW1hJywgJzIwMCcsICctaW1hZScsICc8aW5maWxlLm1hZT4nLCAnLW9tYWUnLCAnPG91dGZpbGUubWFlPic=

>  <r_lp_tautomer_probability>  (30) 
1

>  <r_epik_Ionization_Penalty>  (30) 
2.33108e-05

>  <r_epik_Ionization_Penalty_Charging>  (30) 
0

>  <r_epik_Ionization_Penalty_Neutral>  (30) 
2.33108e-05

>  <r_epik_State_Penalty>  (30) 
-0

>  <r_epik_Charging_Adjusted_Penalty>  (30) 
0

>  <i_epik_Tot_Q>  (30) 
0

>  <i_epik_Tot_abs_Q>  (30) 
0

>  <s_epik_Chemistry_Notes>  (30) 
This compound contains an acetal/aminal-like group ( X-CH(R)-Y where X, Y are N, S, or O) that may be acid/base labile, releasing an aldehyde.

>  <s_lp_Force_Field>  (30) 
OPLS3e

>  <r_lp_Energy>  (30) 
315.461

>  <b_lp_Chiralities_Consistent>  (30) 
1

>  <s_lp_Variant>  (30) 
19:0-2

>  <s_i_glide_gridfile>  (30) 
pfpi4k_grid

>  <i_i_glide_lignum>  (30) 
29

>  <i_i_glide_rotatable_bonds>  (30) 
4

>  <r_i_docking_score>  (30) 
-2.11167

>  <r_i_glide_ligand_efficiency>  (30) 
-0.0391049

>  <r_i_glide_ligand_efficiency_sa>  (30) 
-0.147807

>  <r_i_glide_ligand_efficiency_ln>  (30) 
-0.423266

>  <r_i_glide_gscore>  (30) 
-2.11167

>  <r_i_glide_lipo>  (30) 
-0.194225

>  <r_i_glide_hbond>  (30) 
0

>  <r_i_glide_metal>  (30) 
-0

>  <r_i_glide_rewards>  (30) 
-0.132241

>  <r_i_glide_evdw>  (30) 
-25.5317

>  <r_i_glide_ecoul>  (30) 
-3.48969

>  <r_i_glide_erotb>  (30) 
0.0377848

>  <r_i_glide_esite>  (30) 
-0.0229499

>  <r_i_glide_emodel>  (30) 
-31.1388

>  <r_i_glide_energy>  (30) 
-29.0213

>  <r_i_glide_einternal>  (30) 
0.57223

>  <r_i_glide_intrahb_reward>  (30) 
-0

>  <i_i_glide_confnum>  (30) 
1

>  <i_i_glide_posenum>  (30) 
19

>  <r_i_glide_eff_state_penalty>  (30) 
0

>  <ligand_id>  (30) 
19

>  <original_smiles>  (30) 
CC1OC2CC3(C)C4=CCC56OC7(OC8C(OC8(CO)OC7O)C5C(O)C57OC5C75OCC7=C(CC75)CC5(C)OC(C)(C)C=C5C3(C)OC2(OO4)O1)C6C

>  <smiles>  (30) 
[H]OC([H])([H])C12OC([H])(O[H])C34OC1([H])C([H])(O2)C1([H])C([H])(O[H])C25OC2([H])C52OC([H])([H])C5=C(C([H])([H])C52[H])C([H])([H])C2(C([H])([H])[H])OC(C([H])([H])[H])(C([H])([H])[H])C([H])=C2C2(C([H])([H])[H])OC56OOC(=C([H])C([H])([H])C1(O3)C4([H])C([H])([H])[H])C2(C([H])([H])[H])C([H])([H])C5([H])OC([H])(C([H])([H])[H])O6

$$$$
20:0:0
     RDKit          3D

 80 89  0  0  1  0  0  0  0  0999 V2000
    6.0425   -2.0082    7.1446 C   0  0  0  0  0  0  0  0  0  0  0  0
    5.0048   -2.9583    7.2573 O   0  0  0  0  0  0  0  0  0  0  0  0
    3.9703   -2.5509    8.1434 C   0  0  2  0  0  0  0  0  0  0  0  0
    3.3007   -3.7867    8.6880 C   0  0  0  0  0  0  0  0  0  0  0  0
    2.0878   -3.8248    8.1624 C   0  0  0  0  0  0  0  0  0  0  0  0
    0.8681   -4.1167    8.6174 C   0  0  0  0  0  0  0  0  0  0  0  0
    0.3624   -3.0874    7.8747 C   0  0  0  0  0  0  0  0  0  0  0  0
    1.6933   -2.8514    7.1313 C   0  0  2  0  0  0  0  0  0  0  0  0
    1.6293   -3.2526    5.6447 C   0  0  2  0  0  0  0  0  0  0  0  0
    2.7721   -4.0690    5.2881 O   0  0  0  0  0  0  0  0  0  0  0  0
    3.6084   -3.5324    4.2900 C   0  0  2  0  0  0  0  0  0  0  0  0
    4.9508   -4.3622    4.1977 C   0  0  0  0  0  0  0  0  0  0  0  0
    5.5416   -4.2707    2.9141 O   0  0  0  0  0  0  0  0  0  0  0  0
    4.0290   -2.2611    4.7002 O   0  0  0  0  0  0  0  0  0  0  0  0
    3.0070   -1.3512    5.0513 C   0  0  2  0  0  0  0  0  0  0  0  0
    3.0978   -0.9149    6.3841 O   0  0  0  0  0  0  0  0  0  0  0  0
    2.7482   -1.7708    7.4805 C   0  0  2  0  0  0  0  0  0  0  0  0
    2.1674   -0.7263    8.4486 C   0  0  0  0  0  0  0  0  0  0  0  0
    1.6178   -1.9772    4.7686 C   0  0  2  0  0  0  0  0  0  0  0  0
    0.5315   -1.1360    5.2280 O   0  0  0  0  0  0  0  0  0  0  0  0
    0.1942    0.0171    4.4987 C   0  0  2  0  0  0  0  0  0  0  0  0
    1.2130    0.9600    4.6286 O   0  0  0  0  0  0  0  0  0  0  0  0
    1.0317    2.1507    3.8782 C   0  0  0  0  0  0  0  0  0  0  0  0
   -0.2078    2.8823    4.4081 C   0  0  1  0  0  0  0  0  0  0  0  0
   -0.4074    4.0840    3.6766 O   0  0  0  0  0  0  0  0  0  0  0  0
   -1.4320    1.9508    4.3550 C   0  0  1  0  0  0  0  0  0  0  0  0
   -1.7890    1.7415    2.9899 O   0  0  0  0  0  0  0  0  0  0  0  0
   -1.1051    0.6113    5.0848 C   0  0  1  0  0  0  0  0  0  0  0  0
   -2.1979   -0.2737    4.9230 O   0  0  0  0  0  0  0  0  0  0  0  0
    1.5271   -2.3951    3.2763 C   0  0  1  0  0  0  0  0  0  0  0  0
    1.6874   -1.2964    2.3959 O   0  0  0  0  0  0  0  0  0  0  0  0
    2.5743   -1.7349    1.4484 C   0  0  1  0  0  0  0  0  0  0  0  0
    3.2773   -0.5400    0.8212 C   0  0  0  0  0  0  0  0  0  0  0  0
    3.4846   -2.5430    2.0917 O   0  0  0  0  0  0  0  0  0  0  0  0
    2.7405   -3.3249    2.9736 C   0  0  1  0  0  0  0  0  0  0  0  0
    2.3448   -4.5129    2.3127 O   0  0  0  0  0  0  0  0  0  0  0  0
    1.4403   -5.4587    2.9035 C   0  0  2  0  0  0  0  0  0  0  0  0
    2.2003   -6.5428    3.7454 C   0  0  0  0  0  0  0  0  0  0  0  0
    2.1287   -7.4497    2.5509 C   0  0  1  0  0  0  0  0  0  0  0  0
    3.2579   -8.2500    1.9439 C   0  0  0  0  0  0  0  0  0  0  0  0
    2.1162   -8.8854    2.5823 O   0  0  0  0  0  0  0  0  0  0  0  0
    1.1595   -6.5558    1.8921 C   0  0  1  0  0  0  0  0  0  0  0  0
   -0.1503   -6.9301    1.2576 C   0  0  0  0  0  0  0  0  0  0  0  0
    0.9298   -6.3665    0.4765 O   0  0  0  0  0  0  0  0  0  0  0  0
    6.7453   -2.3895    6.4112 H   0  0  0  0  0  0  0  0  0  0  0  0
    6.5752   -1.8740    8.0873 H   0  0  0  0  0  0  0  0  0  0  0  0
    5.6750   -1.0431    6.7954 H   0  0  0  0  0  0  0  0  0  0  0  0
    4.3532   -2.0239    9.0171 H   0  0  0  0  0  0  0  0  0  0  0  0
    3.5575   -4.2355    9.6391 H   0  0  0  0  0  0  0  0  0  0  0  0
    0.4548   -4.7105    9.4247 H   0  0  0  0  0  0  0  0  0  0  0  0
   -0.5857   -2.5758    7.8307 H   0  0  0  0  0  0  0  0  0  0  0  0
    0.7152   -3.8284    5.4625 H   0  0  0  0  0  0  0  0  0  0  0  0
    5.6261   -4.0078    4.9848 H   0  0  0  0  0  0  0  0  0  0  0  0
    4.8629   -5.4339    4.4146 H   0  0  0  0  0  0  0  0  0  0  0  0
    5.7002   -3.3605    2.7131 H   0  0  0  0  0  0  0  0  0  0  0  0
    3.1916   -0.4766    4.4331 H   0  0  0  0  0  0  0  0  0  0  0  0
    1.8505   -1.1596    9.3968 H   0  0  0  0  0  0  0  0  0  0  0  0
    1.3026   -0.2517    7.9838 H   0  0  0  0  0  0  0  0  0  0  0  0
    2.8987    0.0561    8.6544 H   0  0  0  0  0  0  0  0  0  0  0  0
   -0.0158   -0.1941    3.4521 H   0  0  0  0  0  0  0  0  0  0  0  0
    1.9244    2.7603    4.0023 H   0  0  0  0  0  0  0  0  0  0  0  0
    0.9472    1.9180    2.8162 H   0  0  0  0  0  0  0  0  0  0  0  0
   -0.0268    3.1612    5.4464 H   0  0  0  0  0  0  0  0  0  0  0  0
   -0.2920    3.9098    2.7496 H   0  0  0  0  0  0  0  0  0  0  0  0
   -2.2671    2.4434    4.8486 H   0  0  0  0  0  0  0  0  0  0  0  0
   -2.6386    1.3461    2.8987 H   0  0  0  0  0  0  0  0  0  0  0  0
   -0.9394    0.7778    6.1493 H   0  0  0  0  0  0  0  0  0  0  0  0
   -2.6641   -0.0360    4.1313 H   0  0  0  0  0  0  0  0  0  0  0  0
    0.5795   -2.8802    3.0394 H   0  0  0  0  0  0  0  0  0  0  0  0
    2.0211   -2.3192    0.7165 H   0  0  0  0  0  0  0  0  0  0  0  0
    3.8179    0.0449    1.5635 H   0  0  0  0  0  0  0  0  0  0  0  0
    2.5073    0.0939    0.3965 H   0  0  0  0  0  0  0  0  0  0  0  0
    3.9533   -0.8824    0.0371 H   0  0  0  0  0  0  0  0  0  0  0  0
    0.5384   -5.0292    3.3312 H   0  0  0  0  0  0  0  0  0  0  0  0
    3.2354   -6.4373    4.0616 H   0  0  0  0  0  0  0  0  0  0  0  0
    1.5083   -6.8605    4.5273 H   0  0  0  0  0  0  0  0  0  0  0  0
    3.3051   -8.4291    0.8772 H   0  0  0  0  0  0  0  0  0  0  0  0
    4.1891   -8.3234    2.4869 H   0  0  0  0  0  0  0  0  0  0  0  0
   -0.3417   -7.9901    1.1244 H   0  0  0  0  0  0  0  0  0  0  0  0
   -0.9882   -6.2596    1.3841 H   0  0  0  0  0  0  0  0  0  0  0  0
  1  2  1  0
  1 45  1  0
  1 46  1  0
  1 47  1  0
  2  3  1  0
  3 17  1  0
  3  4  1  0
  3 48  1  1
  4  5  2  0
  4 49  1  0
  5  8  1  0
  5  6  1  0
  6  7  2  0
  6 50  1  0
  8  7  1  1
  7 51  1  0
  8 17  1  0
  8  9  1  0
  9 19  1  0
  9 10  1  0
  9 52  1  1
 10 11  1  0
 11 35  1  0
 11 12  1  6
 11 14  1  0
 12 13  1  0
 12 53  1  0
 12 54  1  0
 13 55  1  0
 14 15  1  0
 15 16  1  0
 15 19  1  0
 15 56  1  6
 16 17  1  0
 17 18  1  1
 18 57  1  0
 18 58  1  0
 18 59  1  0
 19 20  1  1
 19 30  1  0
 20 21  1  0
 21 28  1  0
 21 22  1  0
 21 60  1  6
 22 23  1  0
 23 24  1  0
 23 61  1  0
 23 62  1  0
 24 25  1  0
 24 26  1  0
 24 63  1  1
 25 64  1  0
 26 27  1  0
 26 28  1  0
 26 65  1  1
 27 66  1  0
 28 29  1  0
 28 67  1  1
 29 68  1  0
 30 35  1  0
 30 31  1  0
 30 69  1  1
 31 32  1  0
 32 33  1  0
 32 34  1  0
 32 70  1  6
 33 71  1  0
 33 72  1  0
 33 73  1  0
 34 35  1  0
 35 36  1  6
 36 37  1  0
 37 42  1  0
 37 38  1  0
 37 74  1  1
 38 39  1  0
 38 75  1  0
 38 76  1  0
 39 41  1  1
 39 40  1  0
 39 42  1  0
 40 41  1  0
 40 77  1  0
 40 78  1  0
 42 44  1  6
 42 43  1  0
 43 44  1  0
 43 79  1  0
 43 80  1  0
M  END
>  <i_m_ct_stereo_status>  (31) 
1

>  <s_m_source_file>  (31) 
/var/tmp/pbs.5076253.sched01/tmpsnpm1fw8/0c_pn72ob.sdf

>  <i_m_source_file_index>  (31) 
30

>  <i_lp_mmshare_version>  (31) 
48012

>  <i_f3d_flags>  (31) 
0

>  <s_epik_input>  (31) 
W0NIXTE9W0NIXUMoW0NAXTEyMyk9W0NIXVtDQEBIXShPW0NIM10pW0NAQF0zKFtDSDNdKU9bQ0BASF00W0NAXTUoT1tDQEBIXTZPW0NIMl1bQ0BASF0oW09IXSlbQ0BASF0oW09IXSlbQ0BIXTZbT0hdKVtDQEhdMk9bQ0BAXShPNCkoW0NIMl1bT0hdKVtDQF03KFtDQEBIXTVPW0NASF0oTzcpW0NIM10pT1tDQEhdKFtDSDJdOClbQ0BdOShbQ0gyXU85KVtDQF0xOFtDSDJdTzE=

>  <s_epik_cmdline>  (31) 
J2VwaWtfcHl0aG9uJywgJy1waHQnLCAnMi4wJywgJy1waCcsICc3LjAnLCAnLXRuJywgJzgnLCAnLW1hJywgJzIwMCcsICctaW1hZScsICc8aW5maWxlLm1hZT4nLCAnLW9tYWUnLCAnPG91dGZpbGUubWFlPic=

>  <r_lp_tautomer_probability>  (31) 
1

>  <r_epik_Ionization_Penalty>  (31) 
6.89602e-06

>  <r_epik_Ionization_Penalty_Charging>  (31) 
0

>  <r_epik_Ionization_Penalty_Neutral>  (31) 
6.89602e-06

>  <r_epik_State_Penalty>  (31) 
-0

>  <r_epik_Charging_Adjusted_Penalty>  (31) 
0

>  <i_epik_Tot_Q>  (31) 
0

>  <i_epik_Tot_abs_Q>  (31) 
0

>  <s_epik_Chemistry_Notes>  (31) 
This compound contains an acetal/aminal-like group ( X-CH(R)-Y where X, Y are N, S, or O) that may be acid/base labile, releasing an aldehyde.

>  <s_lp_Force_Field>  (31) 
OPLS3e

>  <r_lp_Energy>  (31) 
90.1911

>  <b_lp_Chiralities_Consistent>  (31) 
1

>  <s_lp_Variant>  (31) 
20:0-1

>  <s_i_glide_gridfile>  (31) 
pfpi4k_grid

>  <i_i_glide_lignum>  (31) 
30

>  <i_i_glide_rotatable_bonds>  (31) 
10

>  <r_i_docking_score>  (31) 
-2.99774

>  <r_i_glide_ligand_efficiency>  (31) 
-0.0681304

>  <r_i_glide_ligand_efficiency_sa>  (31) 
-0.240524

>  <r_i_glide_ligand_efficiency_ln>  (31) 
-0.626592

>  <r_i_glide_gscore>  (31) 
-2.99774

>  <r_i_glide_lipo>  (31) 
-0.0487468

>  <r_i_glide_hbond>  (31) 
-0.199407

>  <r_i_glide_metal>  (31) 
-0

>  <r_i_glide_rewards>  (31) 
0

>  <r_i_glide_evdw>  (31) 
-24.2056

>  <r_i_glide_ecoul>  (31) 
-10.738

>  <r_i_glide_erotb>  (31) 
0.135786

>  <r_i_glide_esite>  (31) 
-0.0643883

>  <r_i_glide_emodel>  (31) 
-35.892

>  <r_i_glide_energy>  (31) 
-34.9436

>  <r_i_glide_einternal>  (31) 
8.41869

>  <r_i_glide_intrahb_reward>  (31) 
-0

>  <i_i_glide_confnum>  (31) 
2

>  <i_i_glide_posenum>  (31) 
36

>  <r_i_glide_eff_state_penalty>  (31) 
0

>  <ligand_id>  (31) 
20

>  <original_smiles>  (31) 
COC1C=C2C=CC23C2OC4(CO)OC(OC13C)C2(OC1OCC(O)C(O)C1O)C1OC(C)OC14OC1CC2(CO2)C12CO2

>  <smiles>  (31) 
[H]OC([H])([H])C12OC3([H])OC4(C([H])([H])[H])C([H])(OC([H])([H])[H])C([H])=C5C([H])=C([H])C54C([H])(O1)C3(OC1([H])OC([H])([H])C([H])(O[H])C([H])(O[H])C1([H])O[H])C1([H])OC([H])(C([H])([H])[H])OC12OC1([H])C([H])([H])C2(OC2([H])[H])C12OC2([H])[H]

$$$$
20:0:1
     RDKit          3D

 80 89  0  0  1  0  0  0  0  0999 V2000
    6.2569   -3.3566    7.8049 C   0  0  0  0  0  0  0  0  0  0  0  0
    5.1351   -2.7552    7.1733 O   0  0  0  0  0  0  0  0  0  0  0  0
    4.0796   -2.4274    8.0764 C   0  0  2  0  0  0  0  0  0  0  0  0
    3.4434   -3.6685    8.6625 C   0  0  0  0  0  0  0  0  0  0  0  0
    2.2160   -3.7422    8.1608 C   0  0  0  0  0  0  0  0  0  0  0  0
    1.0087   -4.0149    8.6243 C   0  0  0  0  0  0  0  0  0  0  0  0
    0.4859   -3.0243    7.8986 C   0  0  0  0  0  0  0  0  0  0  0  0
    1.7951   -2.7817    7.1134 C   0  0  2  0  0  0  0  0  0  0  0  0
    1.7140   -3.2138    5.6362 C   0  0  2  0  0  0  0  0  0  0  0  0
    2.8600   -4.0197    5.2650 O   0  0  0  0  0  0  0  0  0  0  0  0
    3.6680   -3.4866    4.2390 C   0  0  2  0  0  0  0  0  0  0  0  0
    4.9969   -4.3190    4.1273 C   0  0  0  0  0  0  0  0  0  0  0  0
    5.5702   -4.2591    2.8159 O   0  0  0  0  0  0  0  0  0  0  0  0
    4.0824   -2.2018    4.6297 O   0  0  0  0  0  0  0  0  0  0  0  0
    3.0493   -1.3038    4.9801 C   0  0  2  0  0  0  0  0  0  0  0  0
    3.1780   -0.8438    6.3074 O   0  0  0  0  0  0  0  0  0  0  0  0
    2.8401   -1.6821    7.4229 C   0  0  2  0  0  0  0  0  0  0  0  0
    2.2696   -0.6213    8.3804 C   0  0  0  0  0  0  0  0  0  0  0  0
    1.6610   -1.9498    4.7452 C   0  0  2  0  0  0  0  0  0  0  0  0
    0.5683   -1.1189    5.1999 O   0  0  0  0  0  0  0  0  0  0  0  0
    0.2159    0.0322    4.4769 C   0  0  2  0  0  0  0  0  0  0  0  0
    1.2351    0.9857    4.6063 O   0  0  0  0  0  0  0  0  0  0  0  0
    1.0403    2.1738    3.8581 C   0  0  0  0  0  0  0  0  0  0  0  0
   -0.1991    2.8974    4.4001 C   0  0  1  0  0  0  0  0  0  0  0  0
   -0.4175    4.0999    3.6764 O   0  0  0  0  0  0  0  0  0  0  0  0
   -1.4055    1.9509    4.3518 C   0  0  1  0  0  0  0  0  0  0  0  0
   -1.6945    1.7256    2.9758 O   0  0  0  0  0  0  0  0  0  0  0  0
   -1.0793    0.6097    5.0733 C   0  0  1  0  0  0  0  0  0  0  0  0
   -2.1845   -0.2788    4.9162 O   0  0  0  0  0  0  0  0  0  0  0  0
    1.5470   -2.4046    3.2561 C   0  0  1  0  0  0  0  0  0  0  0  0
    1.6749   -1.3196    2.3548 O   0  0  0  0  0  0  0  0  0  0  0  0
    2.5429   -1.7656    1.3894 C   0  0  1  0  0  0  0  0  0  0  0  0
    3.2176   -0.5763    0.7265 C   0  0  0  0  0  0  0  0  0  0  0  0
    3.4759   -2.5548    2.0307 O   0  0  0  0  0  0  0  0  0  0  0  0
    2.7707   -3.3142    2.9478 C   0  0  1  0  0  0  0  0  0  0  0  0
    2.3917   -4.5298    2.3250 O   0  0  0  0  0  0  0  0  0  0  0  0
    1.4949   -5.4690    2.9366 C   0  0  2  0  0  0  0  0  0  0  0  0
    2.2936   -6.5365    3.7619 C   0  0  0  0  0  0  0  0  0  0  0  0
    2.1628   -7.4635    2.5738 C   0  0  1  0  0  0  0  0  0  0  0  0
    3.2528   -8.2750    1.9453 C   0  0  0  0  0  0  0  0  0  0  0  0
    2.1251   -8.8906    2.6156 O   0  0  0  0  0  0  0  0  0  0  0  0
    1.1703   -6.5624    1.9310 C   0  0  1  0  0  0  0  0  0  0  0  0
   -0.1434   -6.9434    1.3250 C   0  0  0  0  0  0  0  0  0  0  0  0
    0.9164   -6.3794    0.5255 O   0  0  0  0  0  0  0  0  0  0  0  0
    6.9924   -3.5894    7.0388 H   0  0  0  0  0  0  0  0  0  0  0  0
    6.0188   -4.2883    8.3237 H   0  0  0  0  0  0  0  0  0  0  0  0
    6.7026   -2.6665    8.5195 H   0  0  0  0  0  0  0  0  0  0  0  0
    4.4786   -1.8522    8.9157 H   0  0  0  0  0  0  0  0  0  0  0  0
    3.7236   -4.0962    9.6227 H   0  0  0  0  0  0  0  0  0  0  0  0
    0.6186   -4.6104    9.4753 H   0  0  0  0  0  0  0  0  0  0  0  0
   -0.4829   -2.5172    7.8537 H   0  0  0  0  0  0  0  0  0  0  0  0
    0.8048   -3.8010    5.4862 H   0  0  0  0  0  0  0  0  0  0  0  0
    5.6994   -3.9388    4.8923 H   0  0  0  0  0  0  0  0  0  0  0  0
    4.8714   -5.3604    4.3597 H   0  0  0  0  0  0  0  0  0  0  0  0
    4.8963   -4.5018    2.1861 H   0  0  0  0  0  0  0  0  0  0  0  0
    3.2078   -0.4363    4.3380 H   0  0  0  0  0  0  0  0  0  0  0  0
    1.9775   -1.0395    9.3446 H   0  0  0  0  0  0  0  0  0  0  0  0
    1.3913   -0.1704    7.9226 H   0  0  0  0  0  0  0  0  0  0  0  0
    2.9916    0.1785    8.5531 H   0  0  0  0  0  0  0  0  0  0  0  0
    0.0151   -0.1818    3.4330 H   0  0  0  0  0  0  0  0  0  0  0  0
    1.9278    2.7892    3.9828 H   0  0  0  0  0  0  0  0  0  0  0  0
    0.9513    1.9439    2.7961 H   0  0  0  0  0  0  0  0  0  0  0  0
   -0.0213    3.1680    5.4427 H   0  0  0  0  0  0  0  0  0  0  0  0
   -0.2962    3.9294    2.7382 H   0  0  0  0  0  0  0  0  0  0  0  0
   -2.2603    2.4329    4.8311 H   0  0  0  0  0  0  0  0  0  0  0  0
   -2.5356    1.3097    2.8723 H   0  0  0  0  0  0  0  0  0  0  0  0
   -0.9041    0.7812    6.1421 H   0  0  0  0  0  0  0  0  0  0  0  0
   -2.6580   -0.0381    4.1243 H   0  0  0  0  0  0  0  0  0  0  0  0
    0.5996   -2.9040    3.0462 H   0  0  0  0  0  0  0  0  0  0  0  0
    1.9845   -2.3731    0.6804 H   0  0  0  0  0  0  0  0  0  0  0  0
    3.7681    0.0307    1.4459 H   0  0  0  0  0  0  0  0  0  0  0  0
    2.4332    0.0412    0.3016 H   0  0  0  0  0  0  0  0  0  0  0  0
    3.8837   -0.9233   -0.0649 H   0  0  0  0  0  0  0  0  0  0  0  0
    0.5941   -5.0356    3.3773 H   0  0  0  0  0  0  0  0  0  0  0  0
    3.3175   -6.4344    4.0567 H   0  0  0  0  0  0  0  0  0  0  0  0
    1.6010   -6.8491    4.5580 H   0  0  0  0  0  0  0  0  0  0  0  0
    3.2750   -8.4556    0.8814 H   0  0  0  0  0  0  0  0  0  0  0  0
    4.1994   -8.3506    2.4696 H   0  0  0  0  0  0  0  0  0  0  0  0
   -0.3462   -8.0092    1.2001 H   0  0  0  0  0  0  0  0  0  0  0  0
   -0.9964   -6.2944    1.4695 H   0  0  0  0  0  0  0  0  0  0  0  0
  1  2  1  0
  1 45  1  0
  1 46  1  0
  1 47  1  0
  2  3  1  0
  3 17  1  0
  3  4  1  0
  3 48  1  1
  4  5  2  0
  4 49  1  0
  5  8  1  0
  5  6  1  0
  6  7  2  0
  6 50  1  0
  8  7  1  1
  7 51  1  0
  8 17  1  0
  8  9  1  0
  9 19  1  0
  9 10  1  0
  9 52  1  1
 10 11  1  0
 11 35  1  0
 11 12  1  6
 11 14  1  0
 12 13  1  0
 12 53  1  0
 12 54  1  0
 13 55  1  0
 14 15  1  0
 15 16  1  0
 15 19  1  0
 15 56  1  6
 16 17  1  0
 17 18  1  1
 18 57  1  0
 18 58  1  0
 18 59  1  0
 19 20  1  1
 19 30  1  0
 20 21  1  0
 21 28  1  0
 21 22  1  0
 21 60  1  6
 22 23  1  0
 23 24  1  0
 23 61  1  0
 23 62  1  0
 24 25  1  0
 24 26  1  0
 24 63  1  1
 25 64  1  0
 26 27  1  0
 26 28  1  0
 26 65  1  1
 27 66  1  0
 28 29  1  0
 28 67  1  1
 29 68  1  0
 30 35  1  0
 30 31  1  0
 30 69  1  1
 31 32  1  0
 32 33  1  0
 32 34  1  0
 32 70  1  6
 33 71  1  0
 33 72  1  0
 33 73  1  0
 34 35  1  0
 35 36  1  6
 36 37  1  0
 37 42  1  0
 37 38  1  0
 37 74  1  1
 38 39  1  0
 38 75  1  0
 38 76  1  0
 39 41  1  1
 39 40  1  0
 39 42  1  0
 40 41  1  0
 40 77  1  0
 40 78  1  0
 42 44  1  6
 42 43  1  0
 43 44  1  0
 43 79  1  0
 43 80  1  0
M  END
>  <i_m_ct_stereo_status>  (32) 
1

>  <s_m_source_file>  (32) 
/var/tmp/pbs.5076253.sched01/tmpsnpm1fw8/0c_pn72ob.sdf

>  <i_m_source_file_index>  (32) 
30

>  <i_lp_mmshare_version>  (32) 
48012

>  <i_f3d_flags>  (32) 
0

>  <s_epik_input>  (32) 
W0NIXTE9W0NIXUMoW0NAXTEyMyk9W0NIXVtDQEBIXShPW0NIM10pW0NAQF0zKFtDSDNdKU9bQ0BASF00W0NAXTUoT1tDQEBIXTZPW0NIMl1bQ0BASF0oW09IXSlbQ0BASF0oW09IXSlbQ0BIXTZbT0hdKVtDQEhdMk9bQ0BAXShPNCkoW0NIMl1bT0hdKVtDQF03KFtDQEBIXTVPW0NASF0oTzcpW0NIM10pT1tDQEhdKFtDSDJdOClbQ0BdOShbQ0gyXU85KVtDQF0xOFtDSDJdTzE=

>  <s_epik_cmdline>  (32) 
J2VwaWtfcHl0aG9uJywgJy1waHQnLCAnMi4wJywgJy1waCcsICc3LjAnLCAnLXRuJywgJzgnLCAnLW1hJywgJzIwMCcsICctaW1hZScsICc8aW5maWxlLm1hZT4nLCAnLW9tYWUnLCAnPG91dGZpbGUubWFlPic=

>  <r_lp_tautomer_probability>  (32) 
1

>  <r_epik_Ionization_Penalty>  (32) 
6.89602e-06

>  <r_epik_Ionization_Penalty_Charging>  (32) 
0

>  <r_epik_Ionization_Penalty_Neutral>  (32) 
6.89602e-06

>  <r_epik_State_Penalty>  (32) 
-0

>  <r_epik_Charging_Adjusted_Penalty>  (32) 
0

>  <i_epik_Tot_Q>  (32) 
0

>  <i_epik_Tot_abs_Q>  (32) 
0

>  <s_epik_Chemistry_Notes>  (32) 
This compound contains an acetal/aminal-like group ( X-CH(R)-Y where X, Y are N, S, or O) that may be acid/base labile, releasing an aldehyde.

>  <s_lp_Force_Field>  (32) 
OPLS3e

>  <r_lp_Energy>  (32) 
90.1911

>  <b_lp_Chiralities_Consistent>  (32) 
1

>  <s_lp_Variant>  (32) 
20:0-1

>  <s_i_glide_gridfile>  (32) 
pfpi4k_grid

>  <i_i_glide_lignum>  (32) 
30

>  <i_i_glide_rotatable_bonds>  (32) 
10

>  <r_i_docking_score>  (32) 
-2.96082

>  <r_i_glide_ligand_efficiency>  (32) 
-0.0672913

>  <r_i_glide_ligand_efficiency_sa>  (32) 
-0.237562

>  <r_i_glide_ligand_efficiency_ln>  (32) 
-0.618875

>  <r_i_glide_gscore>  (32) 
-2.96082

>  <r_i_glide_lipo>  (32) 
-0.0399016

>  <r_i_glide_hbond>  (32) 
-0.180103

>  <r_i_glide_metal>  (32) 
-0

>  <r_i_glide_rewards>  (32) 
0

>  <r_i_glide_evdw>  (32) 
-23.696

>  <r_i_glide_ecoul>  (32) 
-10.8289

>  <r_i_glide_erotb>  (32) 
0.135786

>  <r_i_glide_esite>  (32) 
-0.0674605

>  <r_i_glide_emodel>  (32) 
-36.7267

>  <r_i_glide_energy>  (32) 
-34.5249

>  <r_i_glide_einternal>  (32) 
5.95709

>  <r_i_glide_intrahb_reward>  (32) 
-0

>  <i_i_glide_confnum>  (32) 
4

>  <i_i_glide_posenum>  (32) 
11

>  <r_i_glide_eff_state_penalty>  (32) 
0

>  <ligand_id>  (32) 
20

>  <original_smiles>  (32) 
COC1C=C2C=CC23C2OC4(CO)OC(OC13C)C2(OC1OCC(O)C(O)C1O)C1OC(C)OC14OC1CC2(CO2)C12CO2

>  <smiles>  (32) 
[H]OC([H])([H])C12OC3([H])OC4(C([H])([H])[H])C([H])(OC([H])([H])[H])C([H])=C5C([H])=C([H])C54C([H])(O1)C3(OC1([H])OC([H])([H])C([H])(O[H])C([H])(O[H])C1([H])O[H])C1([H])OC([H])(C([H])([H])[H])OC12OC1([H])C([H])([H])C2(OC2([H])[H])C12OC2([H])[H]

$$$$
20:0:2
     RDKit          3D

 80 89  0  0  1  0  0  0  0  0999 V2000
    8.3222   -5.8946    4.8894 C   0  0  0  0  0  0  0  0  0  0  0  0
    6.9606   -5.8424    4.4890 O   0  0  0  0  0  0  0  0  0  0  0  0
    6.7150   -6.4879    3.2459 C   0  0  2  0  0  0  0  0  0  0  0  0
    7.1580   -5.6295    2.0748 C   0  0  0  0  0  0  0  0  0  0  0  0
    6.0394   -5.2118    1.4791 C   0  0  0  0  0  0  0  0  0  0  0  0
    5.6387   -5.1213    0.2188 C   0  0  0  0  0  0  0  0  0  0  0  0
    4.4211   -5.6349    0.5612 C   0  0  0  0  0  0  0  0  0  0  0  0
    4.7292   -5.5346    2.0626 C   0  0  2  0  0  0  0  0  0  0  0  0
    3.9263   -4.4305    2.7637 C   0  0  2  0  0  0  0  0  0  0  0  0
    4.7680   -3.6108    3.5968 O   0  0  0  0  0  0  0  0  0  0  0  0
    4.4437   -3.6098    4.9652 C   0  0  2  0  0  0  0  0  0  0  0  0
    5.5645   -2.8574    5.7122 C   0  0  0  0  0  0  0  0  0  0  0  0
    5.2713   -2.5908    7.0655 O   0  0  0  0  0  0  0  0  0  0  0  0
    4.4719   -4.9254    5.4484 O   0  0  0  0  0  0  0  0  0  0  0  0
    3.6785   -5.8328    4.7250 C   0  0  2  0  0  0  0  0  0  0  0  0
    4.4739   -6.8618    4.1856 O   0  0  0  0  0  0  0  0  0  0  0  0
    5.1834   -6.7141    2.9536 C   0  0  2  0  0  0  0  0  0  0  0  0
    4.9794   -8.0588    2.2138 C   0  0  0  0  0  0  0  0  0  0  0  0
    2.8380   -5.0849    3.6319 C   0  0  2  0  0  0  0  0  0  0  0  0
    2.0275   -5.9181    2.7745 O   0  0  0  0  0  0  0  0  0  0  0  0
    1.3899   -7.0598    3.2792 C   0  0  2  0  0  0  0  0  0  0  0  0
    2.3488   -8.0209    3.5412 O   0  0  0  0  0  0  0  0  0  0  0  0
    1.9319   -9.2581    4.0552 C   0  0  0  0  0  0  0  0  0  0  0  0
    1.0788   -9.9490    2.9919 C   0  0  1  0  0  0  0  0  0  0  0  0
    0.6136  -11.1928    3.4803 O   0  0  0  0  0  0  0  0  0  0  0  0
   -0.0801   -9.0185    2.5825 C   0  0  1  0  0  0  0  0  0  0  0  0
   -0.9791   -8.8679    3.6721 O   0  0  0  0  0  0  0  0  0  0  0  0
    0.4840   -7.6299    2.1466 C   0  0  1  0  0  0  0  0  0  0  0  0
   -0.5792   -6.7589    1.8063 O   0  0  0  0  0  0  0  0  0  0  0  0
    1.9947   -3.9531    4.3049 C   0  0  1  0  0  0  0  0  0  0  0  0
    1.0576   -4.4660    5.2451 O   0  0  0  0  0  0  0  0  0  0  0  0
    1.2225   -3.6575    6.3564 C   0  0  1  0  0  0  0  0  0  0  0  0
    0.7648   -4.3865    7.6253 C   0  0  0  0  0  0  0  0  0  0  0  0
    2.5649   -3.3850    6.4452 O   0  0  0  0  0  0  0  0  0  0  0  0
    2.9748   -3.0988    5.1506 C   0  0  1  0  0  0  0  0  0  0  0  0
    2.8290   -1.7144    4.9407 O   0  0  0  0  0  0  0  0  0  0  0  0
    2.9678   -1.1321    3.6465 C   0  0  2  0  0  0  0  0  0  0  0  0
    3.9106    0.1027    3.7707 C   0  0  0  0  0  0  0  0  0  0  0  0
    2.6816    0.9739    3.8061 C   0  0  1  0  0  0  0  0  0  0  0  0
    2.3962    2.1443    4.6846 C   0  0  0  0  0  0  0  0  0  0  0  0
    2.6120    2.2898    3.2645 O   0  0  0  0  0  0  0  0  0  0  0  0
    1.8366   -0.1608    3.3753 C   0  0  1  0  0  0  0  0  0  0  0  0
    0.7430   -0.2367    2.3634 C   0  0  0  0  0  0  0  0  0  0  0  0
    0.4878   -0.3651    3.7852 O   0  0  0  0  0  0  0  0  0  0  0  0
    8.4343   -5.3382    5.8210 H   0  0  0  0  0  0  0  0  0  0  0  0
    8.9947   -5.4618    4.1455 H   0  0  0  0  0  0  0  0  0  0  0  0
    8.6220   -6.9285    5.0675 H   0  0  0  0  0  0  0  0  0  0  0  0
    7.2471   -7.4376    3.2012 H   0  0  0  0  0  0  0  0  0  0  0  0
    8.1067   -5.7635    1.5784 H   0  0  0  0  0  0  0  0  0  0  0  0
    6.1379   -4.9839   -0.7192 H   0  0  0  0  0  0  0  0  0  0  0  0
    3.5486   -5.9525   -0.0116 H   0  0  0  0  0  0  0  0  0  0  0  0
    3.4566   -3.7997    2.0130 H   0  0  0  0  0  0  0  0  0  0  0  0
    6.4795   -3.4558    5.6635 H   0  0  0  0  0  0  0  0  0  0  0  0
    5.7535   -1.9144    5.2004 H   0  0  0  0  0  0  0  0  0  0  0  0
    5.0566   -3.4150    7.4794 H   0  0  0  0  0  0  0  0  0  0  0  0
    3.0232   -6.3025    5.4580 H   0  0  0  0  0  0  0  0  0  0  0  0
    5.6056   -8.1532    1.3245 H   0  0  0  0  0  0  0  0  0  0  0  0
    3.9526   -8.1604    1.8692 H   0  0  0  0  0  0  0  0  0  0  0  0
    5.1936   -8.8953    2.8831 H   0  0  0  0  0  0  0  0  0  0  0  0
    0.8063   -6.8180    4.1704 H   0  0  0  0  0  0  0  0  0  0  0  0
    2.8253   -9.8430    4.2558 H   0  0  0  0  0  0  0  0  0  0  0  0
    1.4041   -9.1294    5.0047 H   0  0  0  0  0  0  0  0  0  0  0  0
    1.6942  -10.1690    2.1186 H   0  0  0  0  0  0  0  0  0  0  0  0
    1.3467  -11.7189    3.7621 H   0  0  0  0  0  0  0  0  0  0  0  0
   -0.6361   -9.4794    1.7652 H   0  0  0  0  0  0  0  0  0  0  0  0
   -1.1872   -9.7381    4.0110 H   0  0  0  0  0  0  0  0  0  0  0  0
    1.0901   -7.7544    1.2546 H   0  0  0  0  0  0  0  0  0  0  0  0
   -1.2159   -7.2774    1.3236 H   0  0  0  0  0  0  0  0  0  0  0  0
    1.4666   -3.3277    3.5829 H   0  0  0  0  0  0  0  0  0  0  0  0
    0.6758   -2.7218    6.2076 H   0  0  0  0  0  0  0  0  0  0  0  0
    1.3363   -5.3041    7.7671 H   0  0  0  0  0  0  0  0  0  0  0  0
   -0.2950   -4.6277    7.5496 H   0  0  0  0  0  0  0  0  0  0  0  0
    0.9125   -3.7393    8.4906 H   0  0  0  0  0  0  0  0  0  0  0  0
    3.1494   -1.8110    2.8223 H   0  0  0  0  0  0  0  0  0  0  0  0
    4.5810    0.1850    4.6285 H   0  0  0  0  0  0  0  0  0  0  0  0
    4.4547    0.1793    2.8311 H   0  0  0  0  0  0  0  0  0  0  0  0
    1.3802    2.3049    5.0361 H   0  0  0  0  0  0  0  0  0  0  0  0
    3.2060    2.5238    5.3060 H   0  0  0  0  0  0  0  0  0  0  0  0
    0.4024    0.6807    1.8898 H   0  0  0  0  0  0  0  0  0  0  0  0
    0.6378   -1.1575    1.7908 H   0  0  0  0  0  0  0  0  0  0  0  0
  1  2  1  0
  1 45  1  0
  1 46  1  0
  1 47  1  0
  2  3  1  0
  3 17  1  0
  3  4  1  0
  3 48  1  1
  4  5  2  0
  4 49  1  0
  5  8  1  0
  5  6  1  0
  6  7  2  0
  6 50  1  0
  8  7  1  6
  7 51  1  0
  8 17  1  0
  8  9  1  0
  9 19  1  0
  9 10  1  0
  9 52  1  6
 10 11  1  0
 11 35  1  0
 11 12  1  1
 11 14  1  0
 12 13  1  0
 12 53  1  0
 12 54  1  0
 13 55  1  0
 14 15  1  0
 15 16  1  0
 15 19  1  0
 15 56  1  1
 16 17  1  0
 17 18  1  6
 18 57  1  0
 18 58  1  0
 18 59  1  0
 19 20  1  6
 19 30  1  0
 20 21  1  0
 21 28  1  0
 21 22  1  0
 21 60  1  1
 22 23  1  0
 23 24  1  0
 23 61  1  0
 23 62  1  0
 24 25  1  0
 24 26  1  0
 24 63  1  6
 25 64  1  0
 26 27  1  0
 26 28  1  0
 26 65  1  6
 27 66  1  0
 28 29  1  0
 28 67  1  6
 29 68  1  0
 30 35  1  0
 30 31  1  0
 30 69  1  6
 31 32  1  0
 32 33  1  0
 32 34  1  0
 32 70  1  6
 33 71  1  0
 33 72  1  0
 33 73  1  0
 34 35  1  0
 35 36  1  6
 36 37  1  0
 37 42  1  0
 37 38  1  0
 37 74  1  6
 38 39  1  0
 38 75  1  0
 38 76  1  0
 39 41  1  6
 39 40  1  0
 39 42  1  0
 40 41  1  0
 40 77  1  0
 40 78  1  0
 42 44  1  1
 42 43  1  0
 43 44  1  0
 43 79  1  0
 43 80  1  0
M  END
>  <i_m_ct_stereo_status>  (33) 
1

>  <s_m_source_file>  (33) 
/var/tmp/pbs.5076253.sched01/tmpsnpm1fw8/0c_pn72ob.sdf

>  <i_m_source_file_index>  (33) 
30

>  <i_lp_mmshare_version>  (33) 
48012

>  <i_f3d_flags>  (33) 
0

>  <s_epik_input>  (33) 
W0NIXTE9W0NIXUMoW0NAXTEyMyk9W0NIXVtDQEBIXShPW0NIM10pW0NAQF0zKFtDSDNdKU9bQ0BASF00W0NAXTUoT1tDQEBIXTZPW0NIMl1bQ0BASF0oW09IXSlbQ0BASF0oW09IXSlbQ0BIXTZbT0hdKVtDQEhdMk9bQ0BAXShPNCkoW0NIMl1bT0hdKVtDQF03KFtDQEBIXTVPW0NASF0oTzcpW0NIM10pT1tDQEhdKFtDSDJdOClbQ0BdOShbQ0gyXU85KVtDQF0xOFtDSDJdTzE=

>  <s_epik_cmdline>  (33) 
J2VwaWtfcHl0aG9uJywgJy1waHQnLCAnMi4wJywgJy1waCcsICc3LjAnLCAnLXRuJywgJzgnLCAnLW1hJywgJzIwMCcsICctaW1hZScsICc8aW5maWxlLm1hZT4nLCAnLW9tYWUnLCAnPG91dGZpbGUubWFlPic=

>  <r_lp_tautomer_probability>  (33) 
1

>  <r_epik_Ionization_Penalty>  (33) 
6.89602e-06

>  <r_epik_Ionization_Penalty_Charging>  (33) 
0

>  <r_epik_Ionization_Penalty_Neutral>  (33) 
6.89602e-06

>  <r_epik_State_Penalty>  (33) 
-0

>  <r_epik_Charging_Adjusted_Penalty>  (33) 
0

>  <i_epik_Tot_Q>  (33) 
0

>  <i_epik_Tot_abs_Q>  (33) 
0

>  <s_epik_Chemistry_Notes>  (33) 
This compound contains an acetal/aminal-like group ( X-CH(R)-Y where X, Y are N, S, or O) that may be acid/base labile, releasing an aldehyde.

>  <s_lp_Force_Field>  (33) 
OPLS3e

>  <r_lp_Energy>  (33) 
90.1911

>  <b_lp_Chiralities_Consistent>  (33) 
1

>  <s_lp_Variant>  (33) 
20:0-1

>  <s_i_glide_gridfile>  (33) 
pfpi4k_grid

>  <i_i_glide_lignum>  (33) 
30

>  <i_i_glide_rotatable_bonds>  (33) 
10

>  <r_i_docking_score>  (33) 
-2.87852

>  <r_i_glide_ligand_efficiency>  (33) 
-0.065421

>  <r_i_glide_ligand_efficiency_sa>  (33) 
-0.230959

>  <r_i_glide_ligand_efficiency_ln>  (33) 
-0.601674

>  <r_i_glide_gscore>  (33) 
-2.87852

>  <r_i_glide_lipo>  (33) 
-0.449724

>  <r_i_glide_hbond>  (33) 
0

>  <r_i_glide_metal>  (33) 
-0

>  <r_i_glide_rewards>  (33) 
-0.00838105

>  <r_i_glide_evdw>  (33) 
-26.4203

>  <r_i_glide_ecoul>  (33) 
-8.12784

>  <r_i_glide_erotb>  (33) 
0.135786

>  <r_i_glide_esite>  (33) 
-0.0160131

>  <r_i_glide_emodel>  (33) 
-35.9215

>  <r_i_glide_energy>  (33) 
-34.5481

>  <r_i_glide_einternal>  (33) 
5.24761

>  <r_i_glide_intrahb_reward>  (33) 
-0

>  <i_i_glide_confnum>  (33) 
2

>  <i_i_glide_posenum>  (33) 
21

>  <r_i_glide_eff_state_penalty>  (33) 
0

>  <ligand_id>  (33) 
20

>  <original_smiles>  (33) 
COC1C=C2C=CC23C2OC4(CO)OC(OC13C)C2(OC1OCC(O)C(O)C1O)C1OC(C)OC14OC1CC2(CO2)C12CO2

>  <smiles>  (33) 
[H]OC([H])([H])C12OC3([H])OC4(C([H])([H])[H])C([H])(OC([H])([H])[H])C([H])=C5C([H])=C([H])C54C([H])(O1)C3(OC1([H])OC([H])([H])C([H])(O[H])C([H])(O[H])C1([H])O[H])C1([H])OC([H])(C([H])([H])[H])OC12OC1([H])C([H])([H])C2(OC2([H])[H])C12OC2([H])[H]

$$$$
22:0:0
     RDKit          3D

105114  0  0  1  0  0  0  0  0999 V2000
   -0.4834   -3.4716   10.0073 C   0  0  0  0  0  0  0  0  0  0  0  0
   -0.4500   -2.6382    8.8511 O   0  0  0  0  0  0  0  0  0  0  0  0
    0.7705   -2.7067    8.1017 C   0  0  2  0  0  0  0  0  0  0  0  0
    1.9604   -2.0474    8.8336 C   0  0  0  0  0  0  0  0  0  0  0  0
    2.7536   -1.4477    7.9228 C   0  0  0  0  0  0  0  0  0  0  0  0
    3.0648    0.0054    8.0446 C   0  0  0  0  0  0  0  0  0  0  0  0
    3.4070    0.5181    9.1075 O   0  0  0  0  0  0  0  0  0  0  0  0
    2.7855    0.7612    6.8716 O   0  0  0  0  0  0  0  0  0  0  0  0
    2.6408    0.2328    5.5109 C   0  0  1  0  0  0  0  0  0  0  0  0
    3.3001   -1.1240    5.4867 C   0  0  2  0  0  0  0  0  0  0  0  0
    3.8582   -1.6174    4.0703 C   0  0  1  0  0  0  0  0  0  0  0  0
    4.7002   -0.4493    3.4510 C   0  0  0  0  0  0  0  0  0  0  0  0
    4.9651   -2.7475    4.1325 C   0  0  0  0  0  0  0  0  0  0  0  0
    5.4701   -3.2900    2.7562 C   0  0  1  0  0  0  0  0  0  0  0  0
    5.8223   -4.6589    2.9341 O   0  0  0  0  0  0  0  0  0  0  0  0
    4.3841   -3.1770    1.6853 C   0  0  1  0  0  0  0  0  0  0  0  0
    4.3863   -4.1379    0.6656 O   0  0  0  0  0  0  0  0  0  0  0  0
    3.0576   -4.2048    0.2546 C   0  0  0  0  0  0  0  0  0  0  0  0
    2.8797   -3.4810   -1.0842 C   0  0  0  0  0  0  0  0  0  0  0  0
    2.6843   -5.6811    0.1882 C   0  0  0  0  0  0  0  0  0  0  0  0
    2.2304   -3.5636    1.1792 O   0  0  0  0  0  0  0  0  0  0  0  0
    3.0233   -3.3164    2.3047 C   0  0  2  0  0  0  0  0  0  0  0  0
    2.6619   -2.0874    3.1737 C   0  0  2  0  0  0  0  0  0  0  0  0
    1.9584   -0.9794    2.3800 C   0  0  0  0  0  0  0  0  0  0  0  0
    1.5256    0.3012    3.1224 C   0  0  0  0  0  0  0  0  0  0  0  0
    1.2825    0.3400    4.6629 C   0  0  2  0  0  0  0  0  0  0  0  0
    0.7201    1.7699    4.8494 C   0  0  0  0  0  0  0  0  0  0  0  0
    0.1165   -0.5036    4.9323 O   0  0  0  0  0  0  0  0  0  0  0  0
    0.4131   -1.9218    5.4791 O   0  0  0  0  0  0  0  0  0  0  0  0
    0.8674   -1.7757    6.8138 C   0  0  1  0  0  0  0  0  0  0  0  0
    0.0990   -0.4959    7.4025 C   0  0  0  0  0  0  0  0  0  0  0  0
    2.4472   -1.9449    6.5411 C   0  0  2  0  0  0  0  0  0  0  0  0
    2.8821   -3.4571    6.4197 C   0  0  0  0  0  0  0  0  0  0  0  0
    3.8311   -3.8938    7.0661 O   0  0  0  0  0  0  0  0  0  0  0  0
    2.0947   -4.2005    5.5646 O   0  0  0  0  0  0  0  0  0  0  0  0
    2.2627   -5.6003    5.5115 C   0  0  2  0  0  0  0  0  0  0  0  0
    3.2687   -5.9502    4.6260 O   0  0  0  0  0  0  0  0  0  0  0  0
    3.4173   -7.3471    4.4652 C   0  0  2  0  0  0  0  0  0  0  0  0
    4.6411   -7.7309    3.6190 C   0  0  0  0  0  0  0  0  0  0  0  0
    4.7963   -9.2612    3.6740 C   0  0  0  0  0  0  0  0  0  0  0  0
    3.5773   -9.9754    3.0715 C   0  0  1  0  0  0  0  0  0  0  0  0
    3.7686  -11.5133    3.1495 C   0  0  0  0  0  0  0  0  0  0  0  0
    2.2115   -9.5133    3.6870 C   0  0  2  0  0  0  0  0  0  0  0  0
    1.1433  -10.0172    2.6752 C   0  0  0  0  0  0  0  0  0  0  0  0
   -0.2931   -9.6211    2.9260 C   0  0  0  0  0  0  0  0  0  0  0  0
   -0.5063   -8.1757    3.3789 C   0  0  2  0  0  0  0  0  0  0  0  0
   -1.9962   -7.8430    3.2679 C   0  0  0  0  0  0  0  0  0  0  0  0
    0.1852   -7.2137    2.5845 O   0  0  0  0  0  0  0  0  0  0  0  0
    1.7077   -7.3883    2.6871 O   0  0  0  0  0  0  0  0  0  0  0  0
    2.0989   -7.9612    3.9317 C   0  0  2  0  0  0  0  0  0  0  0  0
    1.0857   -7.5772    5.0346 C   0  0  1  0  0  0  0  0  0  0  0  0
    1.0483   -6.1754    5.1439 O   0  0  0  0  0  0  0  0  0  0  0  0
   -0.1789   -8.0888    4.7557 O   0  0  0  0  0  0  0  0  0  0  0  0
   -1.4499   -3.3836   10.5038 H   0  0  0  0  0  0  0  0  0  0  0  0
    0.2764   -3.1986   10.7405 H   0  0  0  0  0  0  0  0  0  0  0  0
   -0.3454   -4.5219    9.7466 H   0  0  0  0  0  0  0  0  0  0  0  0
    0.9456   -3.7634    7.9207 H   0  0  0  0  0  0  0  0  0  0  0  0
    1.8236   -1.6391    9.8235 H   0  0  0  0  0  0  0  0  0  0  0  0
    3.3033    0.9223    4.9996 H   0  0  0  0  0  0  0  0  0  0  0  0
    4.2603   -0.9794    5.9816 H   0  0  0  0  0  0  0  0  0  0  0  0
    5.1918   -0.7127    2.5204 H   0  0  0  0  0  0  0  0  0  0  0  0
    5.5037   -0.1392    4.1244 H   0  0  0  0  0  0  0  0  0  0  0  0
    4.1569    0.4531    3.2055 H   0  0  0  0  0  0  0  0  0  0  0  0
    5.8091   -2.4356    4.7486 H   0  0  0  0  0  0  0  0  0  0  0  0
    4.5822   -3.6295    4.6194 H   0  0  0  0  0  0  0  0  0  0  0  0
    6.3417   -2.7402    2.4062 H   0  0  0  0  0  0  0  0  0  0  0  0
    5.0460   -5.1658    3.0774 H   0  0  0  0  0  0  0  0  0  0  0  0
    4.4421   -2.2150    1.1834 H   0  0  0  0  0  0  0  0  0  0  0  0
    3.1278   -2.4255   -0.9796 H   0  0  0  0  0  0  0  0  0  0  0  0
    1.8421   -3.5645   -1.4023 H   0  0  0  0  0  0  0  0  0  0  0  0
    3.5214   -3.9278   -1.8437 H   0  0  0  0  0  0  0  0  0  0  0  0
    2.8632   -6.1255    1.1558 H   0  0  0  0  0  0  0  0  0  0  0  0
    3.3688   -6.1973   -0.4781 H   0  0  0  0  0  0  0  0  0  0  0  0
    1.6501   -5.8210   -0.1244 H   0  0  0  0  0  0  0  0  0  0  0  0
    3.0043   -4.2218    2.9095 H   0  0  0  0  0  0  0  0  0  0  0  0
    1.8849   -2.4700    3.8123 H   0  0  0  0  0  0  0  0  0  0  0  0
    2.5733   -0.7039    1.5217 H   0  0  0  0  0  0  0  0  0  0  0  0
    1.0597   -1.4130    1.9421 H   0  0  0  0  0  0  0  0  0  0  0  0
    2.2271    1.0907    2.8619 H   0  0  0  0  0  0  0  0  0  0  0  0
    0.6144    0.6285    2.6239 H   0  0  0  0  0  0  0  0  0  0  0  0
    1.3429    2.5136    4.3526 H   0  0  0  0  0  0  0  0  0  0  0  0
    0.6526    2.1018    5.8807 H   0  0  0  0  0  0  0  0  0  0  0  0
   -0.2828    1.8444    4.4229 H   0  0  0  0  0  0  0  0  0  0  0  0
    0.1940   -0.3316    8.4774 H   0  0  0  0  0  0  0  0  0  0  0  0
   -0.9641   -0.5659    7.2067 H   0  0  0  0  0  0  0  0  0  0  0  0
    0.3915    0.4644    7.0355 H   0  0  0  0  0  0  0  0  0  0  0  0
    2.5031   -5.9915    6.4913 H   0  0  0  0  0  0  0  0  0  0  0  0
    3.6207   -7.7361    5.4641 H   0  0  0  0  0  0  0  0  0  0  0  0
    4.5467   -7.4011    2.5844 H   0  0  0  0  0  0  0  0  0  0  0  0
    5.5491   -7.2729    4.0131 H   0  0  0  0  0  0  0  0  0  0  0  0
    5.6942   -9.5565    3.1291 H   0  0  0  0  0  0  0  0  0  0  0  0
    4.9433   -9.5906    4.7033 H   0  0  0  0  0  0  0  0  0  0  0  0
    3.5965   -9.6958    2.0136 H   0  0  0  0  0  0  0  0  0  0  0  0
    3.5996  -11.8778    4.1618 H   0  0  0  0  0  0  0  0  0  0  0  0
    4.7666  -11.8206    2.8383 H   0  0  0  0  0  0  0  0  0  0  0  0
    3.0889  -12.0549    2.4932 H   0  0  0  0  0  0  0  0  0  0  0  0
    2.0836  -10.0128    4.6473 H   0  0  0  0  0  0  0  0  0  0  0  0
    1.4092   -9.6885    1.6670 H   0  0  0  0  0  0  0  0  0  0  0  0
    1.1150  -11.1060    2.6314 H   0  0  0  0  0  0  0  0  0  0  0  0
   -0.8537   -9.8390    2.0199 H   0  0  0  0  0  0  0  0  0  0  0  0
   -0.6907  -10.2841    3.6825 H   0  0  0  0  0  0  0  0  0  0  0  0
   -2.1879   -6.8128    3.5643 H   0  0  0  0  0  0  0  0  0  0  0  0
   -2.5800   -8.5043    3.9066 H   0  0  0  0  0  0  0  0  0  0  0  0
   -2.3459   -7.9792    2.2451 H   0  0  0  0  0  0  0  0  0  0  0  0
    1.3721   -7.9956    6.0016 H   0  0  0  0  0  0  0  0  0  0  0  0
  1  2  1  0
  1 54  1  0
  1 55  1  0
  1 56  1  0
  2  3  1  0
  3 30  1  0
  3  4  1  0
  3 57  1  6
  4  5  2  0
  4 58  1  0
  5 32  1  0
  5  6  1  0
  6  7  2  0
  6  8  1  0
  8  9  1  0
  9 26  1  0
  9 10  1  0
  9 59  1  6
 10 32  1  0
 10 11  1  0
 10 60  1  1
 11 23  1  0
 11 12  1  6
 11 13  1  0
 12 61  1  0
 12 62  1  0
 12 63  1  0
 13 14  1  0
 13 64  1  0
 13 65  1  0
 14 15  1  0
 14 16  1  0
 14 66  1  6
 15 67  1  0
 16 22  1  0
 16 17  1  0
 16 68  1  6
 17 18  1  0
 18 19  1  0
 18 20  1  0
 18 21  1  0
 19 69  1  0
 19 70  1  0
 19 71  1  0
 20 72  1  0
 20 73  1  0
 20 74  1  0
 21 22  1  0
 22 23  1  0
 22 75  1  1
 23 24  1  0
 23 76  1  1
 24 25  1  0
 24 77  1  0
 24 78  1  0
 25 26  1  0
 25 79  1  0
 25 80  1  0
 26 27  1  6
 26 28  1  0
 27 81  1  0
 27 82  1  0
 27 83  1  0
 28 29  1  0
 29 30  1  0
 30 31  1  1
 30 32  1  0
 31 84  1  0
 31 85  1  0
 31 86  1  0
 32 33  1  1
 33 34  2  0
 33 35  1  0
 35 36  1  0
 36 52  1  0
 36 37  1  0
 36 87  1  1
 37 38  1  0
 38 50  1  0
 38 39  1  0
 38 88  1  1
 39 40  1  0
 39 89  1  0
 39 90  1  0
 40 41  1  0
 40 91  1  0
 40 92  1  0
 41 42  1  0
 41 43  1  0
 41 93  1  6
 42 94  1  0
 42 95  1  0
 42 96  1  0
 43 50  1  0
 43 44  1  0
 43 97  1  1
 44 45  1  0
 44 98  1  0
 44 99  1  0
 45 46  1  0
 45100  1  0
 45101  1  0
 46 53  1  0
 46 47  1  1
 46 48  1  0
 47102  1  0
 47103  1  0
 47104  1  0
 48 49  1  0
 50 49  1  6
 50 51  1  0
 51 52  1  0
 51 53  1  0
 51105  1  1
M  END
>  <i_m_ct_stereo_status>  (34) 
1

>  <s_m_source_file>  (34) 
/var/tmp/pbs.5076253.sched01/tmpsnpm1fw8/0c_pn72ob.sdf

>  <i_m_source_file_index>  (34) 
35

>  <i_lp_mmshare_version>  (34) 
48012

>  <i_f3d_flags>  (34) 
0

>  <s_epik_input>  (34) 
W0NIM11DKE8xKShbQ0gzXSlPW0NASF0oW0NAQEhdKFtDSDJdMilbT0hdKVtDQEhdMVtDQEBIXTNbQ0gyXVtDSDJdW0NAXShbQ0gzXSkoW0NAQEhdNFtDQEBIXTVbQ0BAXTIzW0NIM10pT09bQ0BdNihbQ0gzXSlbQ0BAXTUoQyhDKD1PKU80KT1bQ0hdW0NASF02T1tDSDNdKUMoPU8pT1tDQEhdKE9bQ0BIXTdbQ0BdMTg5KU9bQ0BIXTFPW0NAQF0oW0NIM10pKE9POSlbQ0gyXVtDSDJdW0NASF04W0NASF0oW0NIM10pW0NIMl1bQ0gyXTc=

>  <s_epik_cmdline>  (34) 
J2VwaWtfcHl0aG9uJywgJy1waHQnLCAnMi4wJywgJy1waCcsICc3LjAnLCAnLXRuJywgJzgnLCAnLW1hJywgJzIwMCcsICctaW1hZScsICc8aW5maWxlLm1hZT4nLCAnLW9tYWUnLCAnPG91dGZpbGUubWFlPic=

>  <r_lp_tautomer_probability>  (34) 
1

>  <r_epik_Ionization_Penalty>  (34) 
4.60029e-08

>  <r_epik_Ionization_Penalty_Charging>  (34) 
0

>  <r_epik_Ionization_Penalty_Neutral>  (34) 
4.60029e-08

>  <r_epik_State_Penalty>  (34) 
-0

>  <r_epik_Charging_Adjusted_Penalty>  (34) 
0

>  <i_epik_Tot_Q>  (34) 
0

>  <i_epik_Tot_abs_Q>  (34) 
0

>  <s_epik_Chemistry_Notes>  (34) 
This compound has an ester and may undergo hydrolysis at high or low pH. This compound contains an acetal/aminal-like group ( X-CH(R)-Y where X, Y are N, S, or O) that may be acid/base labile, releasing an aldehyde.

>  <s_lp_Force_Field>  (34) 
OPLS3e

>  <r_lp_Energy>  (34) 
177.663

>  <b_lp_Chiralities_Consistent>  (34) 
1

>  <s_lp_Variant>  (34) 
22:0-1

>  <s_i_glide_gridfile>  (34) 
pfpi4k_grid

>  <i_i_glide_lignum>  (34) 
35

>  <i_i_glide_rotatable_bonds>  (34) 
5

>  <r_i_docking_score>  (34) 
-2.88219

>  <r_i_glide_ligand_efficiency>  (34) 
-0.0543809

>  <r_i_glide_ligand_efficiency_sa>  (34) 
-0.20427

>  <r_i_glide_ligand_efficiency_ln>  (34) 
-0.579883

>  <r_i_glide_gscore>  (34) 
-2.88219

>  <r_i_glide_lipo>  (34) 
-0.361173

>  <r_i_glide_hbond>  (34) 
-0.16

>  <r_i_glide_metal>  (34) 
-0

>  <r_i_glide_rewards>  (34) 
-0.5

>  <r_i_glide_evdw>  (34) 
-26.4975

>  <r_i_glide_ecoul>  (34) 
-3.82785

>  <r_i_glide_erotb>  (34) 
0.115639

>  <r_i_glide_esite>  (34) 
-0.0776055

>  <r_i_glide_emodel>  (34) 
-38.9921

>  <r_i_glide_energy>  (34) 
-30.3253

>  <r_i_glide_einternal>  (34) 
3.06699

>  <r_i_glide_intrahb_reward>  (34) 
-0.5

>  <i_i_glide_confnum>  (34) 
3

>  <i_i_glide_posenum>  (34) 
11

>  <r_i_glide_eff_state_penalty>  (34) 
0

>  <ligand_id>  (34) 
22

>  <original_smiles>  (34) 
COC1C=C2C(=O)OC3C4C5(C)CC(O)C6OC(C)(C)OC6C5CCC3(C)OOC1(C)C24C(=O)OC1OC2CCC(C)C3CCC4(C)OOC23C(O1)O4

>  <smiles>  (34) 
[H]OC1([H])C([H])([H])C2(C([H])([H])[H])C([H])(C([H])([H])C([H])([H])C3(C([H])([H])[H])OOC4(C([H])([H])[H])C([H])(OC([H])([H])[H])C([H])=C5C(=O)OC3([H])C2([H])C54C(=O)OC2([H])OC3([H])OC4(C([H])([H])[H])OOC35C([H])(O2)C([H])([H])C([H])([H])C([H])(C([H])([H])[H])C5([H])C([H])([H])C4([H])[H])C2([H])OC(C([H])([H])[H])(C([H])([H])[H])OC12[H]

$$$$
22:0:1
     RDKit          3D

105114  0  0  1  0  0  0  0  0999 V2000
    2.8488   -0.7317    7.2711 C   0  0  0  0  0  0  0  0  0  0  0  0
    3.1037   -2.0577    7.7288 O   0  0  0  0  0  0  0  0  0  0  0  0
    2.2691   -3.0379    7.1205 C   0  0  2  0  0  0  0  0  0  0  0  0
    0.8432   -3.0211    7.7081 C   0  0  0  0  0  0  0  0  0  0  0  0
    0.3837   -4.2630    7.7608 C   0  0  0  0  0  0  0  0  0  0  0  0
   -0.1193   -4.8208    9.0747 C   0  0  0  0  0  0  0  0  0  0  0  0
   -0.8635   -4.1861    9.7972 O   0  0  0  0  0  0  0  0  0  0  0  0
    0.4721   -6.0550    9.4436 O   0  0  0  0  0  0  0  0  0  0  0  0
    1.1587   -6.9976    8.5520 C   0  0  1  0  0  0  0  0  0  0  0  0
    0.6832   -6.6915    7.1428 C   0  0  2  0  0  0  0  0  0  0  0  0
    0.6889   -7.9204    6.1072 C   0  0  1  0  0  0  0  0  0  0  0  0
    0.0521   -9.1926    6.7939 C   0  0  0  0  0  0  0  0  0  0  0  0
   -0.2406   -7.7196    4.8380 C   0  0  0  0  0  0  0  0  0  0  0  0
   -0.2063   -8.9000    3.7963 C   0  0  1  0  0  0  0  0  0  0  0  0
   -0.4900   -8.3632    2.5118 O   0  0  0  0  0  0  0  0  0  0  0  0
    1.1863   -9.5605    3.7785 C   0  0  1  0  0  0  0  0  0  0  0  0
    1.6493  -10.0596    2.5500 O   0  0  0  0  0  0  0  0  0  0  0  0
    3.0381  -10.0026    2.6354 C   0  0  0  0  0  0  0  0  0  0  0  0
    3.5818  -11.4093    2.9147 C   0  0  0  0  0  0  0  0  0  0  0  0
    3.5514   -9.3772    1.3302 C   0  0  0  0  0  0  0  0  0  0  0  0
    3.4204   -9.1944    3.7034 O   0  0  0  0  0  0  0  0  0  0  0  0
    2.2467   -8.5522    4.1350 C   0  0  2  0  0  0  0  0  0  0  0  0
    2.1638   -8.1549    5.6304 C   0  0  2  0  0  0  0  0  0  0  0  0
    3.0101   -9.0707    6.5349 C   0  0  0  0  0  0  0  0  0  0  0  0
    3.0420   -8.7871    8.0529 C   0  0  0  0  0  0  0  0  0  0  0  0
    2.7033   -7.3885    8.6625 C   0  0  2  0  0  0  0  0  0  0  0  0
    3.0430   -7.6057   10.1569 C   0  0  0  0  0  0  0  0  0  0  0  0
    3.7427   -6.4700    8.2422 O   0  0  0  0  0  0  0  0  0  0  0  0
    3.4194   -5.5628    7.0538 O   0  0  0  0  0  0  0  0  0  0  0  0
    2.5377   -4.5632    7.5128 C   0  0  1  0  0  0  0  0  0  0  0  0
    2.9353   -4.3138    9.0469 C   0  0  0  0  0  0  0  0  0  0  0  0
    1.1923   -5.2023    6.9100 C   0  0  2  0  0  0  0  0  0  0  0  0
    0.9631   -4.8266    5.4031 C   0  0  0  0  0  0  0  0  0  0  0  0
   -0.1758   -4.6096    5.0015 O   0  0  0  0  0  0  0  0  0  0  0  0
    2.1110   -4.7521    4.6486 O   0  0  0  0  0  0  0  0  0  0  0  0
    2.0933   -3.9369    3.4814 C   0  0  2  0  0  0  0  0  0  0  0  0
    2.4342   -4.6804    2.3311 O   0  0  0  0  0  0  0  0  0  0  0  0
    2.5041   -3.8494    1.1688 C   0  0  2  0  0  0  0  0  0  0  0  0
    2.6251   -4.6435   -0.1401 C   0  0  0  0  0  0  0  0  0  0  0  0
    2.4265   -3.6729   -1.3096 C   0  0  0  0  0  0  0  0  0  0  0  0
    3.5202   -2.6015   -1.3205 C   0  0  1  0  0  0  0  0  0  0  0  0
    3.3306   -1.6674   -2.5413 C   0  0  0  0  0  0  0  0  0  0  0  0
    3.6308   -1.8197    0.0244 C   0  0  2  0  0  0  0  0  0  0  0  0
    4.9864   -1.0917   -0.0679 C   0  0  0  0  0  0  0  0  0  0  0  0
    5.4112   -0.3308    1.1571 C   0  0  0  0  0  0  0  0  0  0  0  0
    5.1686   -1.0165    2.5060 C   0  0  2  0  0  0  0  0  0  0  0  0
    5.9407   -0.2643    3.5910 C   0  0  0  0  0  0  0  0  0  0  0  0
    5.6203   -2.3743    2.5435 O   0  0  0  0  0  0  0  0  0  0  0  0
    4.8481   -3.2602    1.5619 O   0  0  0  0  0  0  0  0  0  0  0  0
    3.5519   -2.7252    1.3108 C   0  0  2  0  0  0  0  0  0  0  0  0
    3.0199   -1.9634    2.5639 C   0  0  1  0  0  0  0  0  0  0  0  0
    2.9785   -2.8444    3.6633 O   0  0  0  0  0  0  0  0  0  0  0  0
    3.8048   -0.8570    2.8435 O   0  0  0  0  0  0  0  0  0  0  0  0
    3.5645   -0.0385    7.7110 H   0  0  0  0  0  0  0  0  0  0  0  0
    1.8497   -0.3968    7.5496 H   0  0  0  0  0  0  0  0  0  0  0  0
    2.9432   -0.6487    6.1863 H   0  0  0  0  0  0  0  0  0  0  0  0
    2.2475   -2.8115    6.0570 H   0  0  0  0  0  0  0  0  0  0  0  0
    0.5620   -2.2499    8.4285 H   0  0  0  0  0  0  0  0  0  0  0  0
    0.6629   -7.9112    8.8594 H   0  0  0  0  0  0  0  0  0  0  0  0
   -0.3998   -6.5980    7.2260 H   0  0  0  0  0  0  0  0  0  0  0  0
   -0.0410  -10.0425    6.1340 H   0  0  0  0  0  0  0  0  0  0  0  0
   -0.9867   -9.0441    7.1476 H   0  0  0  0  0  0  0  0  0  0  0  0
    0.5697   -9.5762    7.6576 H   0  0  0  0  0  0  0  0  0  0  0  0
   -1.2768   -7.5838    5.1308 H   0  0  0  0  0  0  0  0  0  0  0  0
    0.0456   -6.8050    4.3119 H   0  0  0  0  0  0  0  0  0  0  0  0
   -0.9597   -9.6770    3.9875 H   0  0  0  0  0  0  0  0  0  0  0  0
   -0.3479   -9.0387    1.8642 H   0  0  0  0  0  0  0  0  0  0  0  0
    1.2350  -10.3961    4.4788 H   0  0  0  0  0  0  0  0  0  0  0  0
    3.2284  -11.7823    3.8758 H   0  0  0  0  0  0  0  0  0  0  0  0
    4.6720  -11.3772    2.9293 H   0  0  0  0  0  0  0  0  0  0  0  0
    3.2353  -12.0992    2.1501 H   0  0  0  0  0  0  0  0  0  0  0  0
    3.1352   -8.3789    1.1971 H   0  0  0  0  0  0  0  0  0  0  0  0
    3.2274   -9.9785    0.4853 H   0  0  0  0  0  0  0  0  0  0  0  0
    4.6400   -9.3251    1.3405 H   0  0  0  0  0  0  0  0  0  0  0  0
    2.1318   -7.6624    3.5088 H   0  0  0  0  0  0  0  0  0  0  0  0
    2.6871   -7.2091    5.6416 H   0  0  0  0  0  0  0  0  0  0  0  0
    2.7034  -10.1079    6.3823 H   0  0  0  0  0  0  0  0  0  0  0  0
    4.0415   -9.0267    6.1897 H   0  0  0  0  0  0  0  0  0  0  0  0
    2.4100   -9.5245    8.5440 H   0  0  0  0  0  0  0  0  0  0  0  0
    4.0371   -9.0844    8.3882 H   0  0  0  0  0  0  0  0  0  0  0  0
    2.5664   -8.5074   10.5384 H   0  0  0  0  0  0  0  0  0  0  0  0
    2.7083   -6.8046   10.8063 H   0  0  0  0  0  0  0  0  0  0  0  0
    4.1206   -7.7055   10.2954 H   0  0  0  0  0  0  0  0  0  0  0  0
    2.4509   -3.4736    9.5364 H   0  0  0  0  0  0  0  0  0  0  0  0
    4.0064   -4.1179    9.1445 H   0  0  0  0  0  0  0  0  0  0  0  0
    2.7057   -5.0879    9.7486 H   0  0  0  0  0  0  0  0  0  0  0  0
    1.0998   -3.4829    3.3307 H   0  0  0  0  0  0  0  0  0  0  0  0
    1.5827   -3.2683    1.1290 H   0  0  0  0  0  0  0  0  0  0  0  0
    3.5913   -5.1468   -0.1868 H   0  0  0  0  0  0  0  0  0  0  0  0
    1.8747   -5.4313   -0.1734 H   0  0  0  0  0  0  0  0  0  0  0  0
    2.4533   -4.2185   -2.2414 H   0  0  0  0  0  0  0  0  0  0  0  0
    1.4385   -3.2181   -1.2749 H   0  0  0  0  0  0  0  0  0  0  0  0
    4.4527   -3.1506   -1.4793 H   0  0  0  0  0  0  0  0  0  0  0  0
    2.5009   -0.9823   -2.3765 H   0  0  0  0  0  0  0  0  0  0  0  0
    3.1190   -2.2171   -3.4591 H   0  0  0  0  0  0  0  0  0  0  0  0
    4.2043   -1.0499   -2.7506 H   0  0  0  0  0  0  0  0  0  0  0  0
    2.8187   -1.0933    0.0782 H   0  0  0  0  0  0  0  0  0  0  0  0
    5.7810   -1.8056   -0.3030 H   0  0  0  0  0  0  0  0  0  0  0  0
    4.9837   -0.3550   -0.8706 H   0  0  0  0  0  0  0  0  0  0  0  0
    6.4714   -0.1505    1.0061 H   0  0  0  0  0  0  0  0  0  0  0  0
    4.8825    0.6164    1.1412 H   0  0  0  0  0  0  0  0  0  0  0  0
    5.8084   -0.7494    4.5579 H   0  0  0  0  0  0  0  0  0  0  0  0
    5.6150    0.7681    3.6908 H   0  0  0  0  0  0  0  0  0  0  0  0
    7.0008   -0.2604    3.3480 H   0  0  0  0  0  0  0  0  0  0  0  0
    2.0124   -1.5599    2.3977 H   0  0  0  0  0  0  0  0  0  0  0  0
  1  2  1  0
  1 54  1  0
  1 55  1  0
  1 56  1  0
  2  3  1  0
  3 30  1  0
  3  4  1  0
  3 57  1  6
  4  5  2  0
  4 58  1  0
  5 32  1  0
  5  6  1  0
  6  7  2  0
  6  8  1  0
  8  9  1  0
  9 26  1  0
  9 10  1  0
  9 59  1  1
 10 32  1  0
 10 11  1  0
 10 60  1  1
 11 23  1  0
 11 12  1  1
 11 13  1  0
 12 61  1  0
 12 62  1  0
 12 63  1  0
 13 14  1  0
 13 64  1  0
 13 65  1  0
 14 15  1  0
 14 16  1  0
 14 66  1  1
 15 67  1  0
 16 22  1  0
 16 17  1  0
 16 68  1  1
 17 18  1  0
 18 19  1  0
 18 20  1  0
 18 21  1  0
 19 69  1  0
 19 70  1  0
 19 71  1  0
 20 72  1  0
 20 73  1  0
 20 74  1  0
 21 22  1  0
 22 23  1  0
 22 75  1  6
 23 24  1  0
 23 76  1  6
 24 25  1  0
 24 77  1  0
 24 78  1  0
 25 26  1  0
 25 79  1  0
 25 80  1  0
 26 27  1  1
 26 28  1  0
 27 81  1  0
 27 82  1  0
 27 83  1  0
 28 29  1  0
 29 30  1  0
 30 31  1  1
 30 32  1  0
 31 84  1  0
 31 85  1  0
 31 86  1  0
 32 33  1  6
 33 34  2  0
 33 35  1  0
 35 36  1  0
 36 52  1  0
 36 37  1  0
 36 87  1  6
 37 38  1  0
 38 50  1  0
 38 39  1  0
 38 88  1  6
 39 40  1  0
 39 89  1  0
 39 90  1  0
 40 41  1  0
 40 91  1  0
 40 92  1  0
 41 42  1  0
 41 43  1  0
 41 93  1  6
 42 94  1  0
 42 95  1  0
 42 96  1  0
 43 50  1  0
 43 44  1  0
 43 97  1  1
 44 45  1  0
 44 98  1  0
 44 99  1  0
 45 46  1  0
 45100  1  0
 45101  1  0
 46 53  1  0
 46 47  1  1
 46 48  1  0
 47102  1  0
 47103  1  0
 47104  1  0
 48 49  1  0
 50 49  1  1
 50 51  1  0
 51 52  1  0
 51 53  1  0
 51105  1  6
M  END
>  <i_m_ct_stereo_status>  (35) 
1

>  <s_m_source_file>  (35) 
/var/tmp/pbs.5076253.sched01/tmpsnpm1fw8/0c_pn72ob.sdf

>  <i_m_source_file_index>  (35) 
35

>  <i_lp_mmshare_version>  (35) 
48012

>  <i_f3d_flags>  (35) 
0

>  <s_epik_input>  (35) 
W0NIM11DKE8xKShbQ0gzXSlPW0NASF0oW0NAQEhdKFtDSDJdMilbT0hdKVtDQEhdMVtDQEBIXTNbQ0gyXVtDSDJdW0NAXShbQ0gzXSkoW0NAQEhdNFtDQEBIXTVbQ0BAXTIzW0NIM10pT09bQ0BdNihbQ0gzXSlbQ0BAXTUoQyhDKD1PKU80KT1bQ0hdW0NASF02T1tDSDNdKUMoPU8pT1tDQEhdKE9bQ0BIXTdbQ0BdMTg5KU9bQ0BIXTFPW0NAQF0oW0NIM10pKE9POSlbQ0gyXVtDSDJdW0NASF04W0NASF0oW0NIM10pW0NIMl1bQ0gyXTc=

>  <s_epik_cmdline>  (35) 
J2VwaWtfcHl0aG9uJywgJy1waHQnLCAnMi4wJywgJy1waCcsICc3LjAnLCAnLXRuJywgJzgnLCAnLW1hJywgJzIwMCcsICctaW1hZScsICc8aW5maWxlLm1hZT4nLCAnLW9tYWUnLCAnPG91dGZpbGUubWFlPic=

>  <r_lp_tautomer_probability>  (35) 
1

>  <r_epik_Ionization_Penalty>  (35) 
4.60029e-08

>  <r_epik_Ionization_Penalty_Charging>  (35) 
0

>  <r_epik_Ionization_Penalty_Neutral>  (35) 
4.60029e-08

>  <r_epik_State_Penalty>  (35) 
-0

>  <r_epik_Charging_Adjusted_Penalty>  (35) 
0

>  <i_epik_Tot_Q>  (35) 
0

>  <i_epik_Tot_abs_Q>  (35) 
0

>  <s_epik_Chemistry_Notes>  (35) 
This compound has an ester and may undergo hydrolysis at high or low pH. This compound contains an acetal/aminal-like group ( X-CH(R)-Y where X, Y are N, S, or O) that may be acid/base labile, releasing an aldehyde.

>  <s_lp_Force_Field>  (35) 
OPLS3e

>  <r_lp_Energy>  (35) 
177.663

>  <b_lp_Chiralities_Consistent>  (35) 
1

>  <s_lp_Variant>  (35) 
22:0-1

>  <s_i_glide_gridfile>  (35) 
pfpi4k_grid

>  <i_i_glide_lignum>  (35) 
35

>  <i_i_glide_rotatable_bonds>  (35) 
5

>  <r_i_docking_score>  (35) 
-2.58427

>  <r_i_glide_ligand_efficiency>  (35) 
-0.0487598

>  <r_i_glide_ligand_efficiency_sa>  (35) 
-0.183156

>  <r_i_glide_ligand_efficiency_ln>  (35) 
-0.519943

>  <r_i_glide_gscore>  (35) 
-2.58427

>  <r_i_glide_lipo>  (35) 
-0.256508

>  <r_i_glide_hbond>  (35) 
0

>  <r_i_glide_metal>  (35) 
-0

>  <r_i_glide_rewards>  (35) 
-0.158506

>  <r_i_glide_evdw>  (35) 
-26.3084

>  <r_i_glide_ecoul>  (35) 
-6.13954

>  <r_i_glide_erotb>  (35) 
0.115639

>  <r_i_glide_esite>  (35) 
-0.0485407

>  <r_i_glide_emodel>  (35) 
-31.5362

>  <r_i_glide_energy>  (35) 
-32.448

>  <r_i_glide_einternal>  (35) 
9.31959

>  <r_i_glide_intrahb_reward>  (35) 
-0

>  <i_i_glide_confnum>  (35) 
3

>  <i_i_glide_posenum>  (35) 
17

>  <r_i_glide_eff_state_penalty>  (35) 
0

>  <ligand_id>  (35) 
22

>  <original_smiles>  (35) 
COC1C=C2C(=O)OC3C4C5(C)CC(O)C6OC(C)(C)OC6C5CCC3(C)OOC1(C)C24C(=O)OC1OC2CCC(C)C3CCC4(C)OOC23C(O1)O4

>  <smiles>  (35) 
[H]OC1([H])C([H])([H])C2(C([H])([H])[H])C([H])(C([H])([H])C([H])([H])C3(C([H])([H])[H])OOC4(C([H])([H])[H])C([H])(OC([H])([H])[H])C([H])=C5C(=O)OC3([H])C2([H])C54C(=O)OC2([H])OC3([H])OC4(C([H])([H])[H])OOC35C([H])(O2)C([H])([H])C([H])([H])C([H])(C([H])([H])[H])C5([H])C([H])([H])C4([H])[H])C2([H])OC(C([H])([H])[H])(C([H])([H])[H])OC12[H]

$$$$
22:0:2
     RDKit          3D

105114  0  0  1  0  0  0  0  0999 V2000
    2.1485   -7.6056    7.3316 C   0  0  0  0  0  0  0  0  0  0  0  0
    1.5603   -6.4133    7.8485 O   0  0  0  0  0  0  0  0  0  0  0  0
    2.1889   -5.2078    7.3708 C   0  0  2  0  0  0  0  0  0  0  0  0
    3.5667   -4.9790    8.0277 C   0  0  0  0  0  0  0  0  0  0  0  0
    3.7337   -3.6305    8.2251 C   0  0  0  0  0  0  0  0  0  0  0  0
    3.9692   -3.1186    9.5831 C   0  0  0  0  0  0  0  0  0  0  0  0
    4.8074   -3.6121   10.3515 O   0  0  0  0  0  0  0  0  0  0  0  0
    3.0687   -2.0920   10.0026 O   0  0  0  0  0  0  0  0  0  0  0  0
    2.2427   -1.2562    9.1245 C   0  0  1  0  0  0  0  0  0  0  0  0
    2.8630   -1.3053    7.7556 C   0  0  2  0  0  0  0  0  0  0  0  0
    2.5693   -0.0376    6.8139 C   0  0  1  0  0  0  0  0  0  0  0  0
    2.8843    1.2588    7.6228 C   0  0  0  0  0  0  0  0  0  0  0  0
    3.5865    0.1968    5.6525 C   0  0  0  0  0  0  0  0  0  0  0  0
    3.3208    1.3544    4.6539 C   0  0  1  0  0  0  0  0  0  0  0  0
    3.8310    0.9250    3.4141 O   0  0  0  0  0  0  0  0  0  0  0  0
    1.8108    1.6120    4.5381 C   0  0  1  0  0  0  0  0  0  0  0  0
    1.3184    2.0915    3.3201 O   0  0  0  0  0  0  0  0  0  0  0  0
   -0.0273    1.6909    3.3073 C   0  0  0  0  0  0  0  0  0  0  0  0
   -0.9229    2.8950    3.6203 C   0  0  0  0  0  0  0  0  0  0  0  0
   -0.3176    1.0762    1.9353 C   0  0  0  0  0  0  0  0  0  0  0  0
   -0.2616    0.7347    4.3089 O   0  0  0  0  0  0  0  0  0  0  0  0
    1.0127    0.3468    4.7572 C   0  0  2  0  0  0  0  0  0  0  0  0
    1.1151   -0.1316    6.2324 C   0  0  2  0  0  0  0  0  0  0  0  0
    0.0384    0.4784    7.1361 C   0  0  0  0  0  0  0  0  0  0  0  0
    0.0422    0.0882    8.6312 C   0  0  0  0  0  0  0  0  0  0  0  0
    0.6331   -1.2496    9.1562 C   0  0  2  0  0  0  0  0  0  0  0  0
    0.1889   -1.2348   10.6367 C   0  0  0  0  0  0  0  0  0  0  0  0
   -0.1627   -2.3289    8.5792 O   0  0  0  0  0  0  0  0  0  0  0  0
    0.4532   -3.0537    7.3734 O   0  0  0  0  0  0  0  0  0  0  0  0
    1.5535   -3.8323    7.8475 C   0  0  1  0  0  0  0  0  0  0  0  0
    1.1397   -4.2981    9.3188 C   0  0  0  0  0  0  0  0  0  0  0  0
    2.7627   -2.8554    7.3962 C   0  0  2  0  0  0  0  0  0  0  0  0
    3.0786   -2.9909    5.8703 C   0  0  0  0  0  0  0  0  0  0  0  0
    2.1577   -3.2029    5.0774 O   0  0  0  0  0  0  0  0  0  0  0  0
    4.3811   -2.8036    5.5042 O   0  0  0  0  0  0  0  0  0  0  0  0
    4.7176   -2.9327    4.1400 C   0  0  2  0  0  0  0  0  0  0  0  0
    3.9050   -2.1734    3.2819 O   0  0  0  0  0  0  0  0  0  0  0  0
    4.2986   -2.2139    1.9064 C   0  0  2  0  0  0  0  0  0  0  0  0
    3.3837   -1.3559    0.9908 C   0  0  0  0  0  0  0  0  0  0  0  0
    3.8169   -1.5155   -0.4886 C   0  0  0  0  0  0  0  0  0  0  0  0
    3.8719   -2.9862   -0.9581 C   0  0  1  0  0  0  0  0  0  0  0  0
    4.3645   -3.0199   -2.4321 C   0  0  0  0  0  0  0  0  0  0  0  0
    4.7435   -3.8209    0.0293 C   0  0  2  0  0  0  0  0  0  0  0  0
    4.9407   -5.3073   -0.3799 C   0  0  0  0  0  0  0  0  0  0  0  0
    3.9047   -6.2878    0.1791 C   0  0  0  0  0  0  0  0  0  0  0  0
    3.8548   -6.3005    1.7168 C   0  0  2  0  0  0  0  0  0  0  0  0
    3.6278   -7.7150    2.2466 C   0  0  0  0  0  0  0  0  0  0  0  0
    2.7790   -5.4918    2.1842 O   0  0  0  0  0  0  0  0  0  0  0  0
    2.8792   -4.1222    1.5513 O   0  0  0  0  0  0  0  0  0  0  0  0
    4.2376   -3.6774    1.4975 C   0  0  2  0  0  0  0  0  0  0  0  0
    5.1474   -4.4771    2.4848 C   0  0  1  0  0  0  0  0  0  0  0  0
    4.7173   -4.2583    3.7872 O   0  0  0  0  0  0  0  0  0  0  0  0
    5.1104   -5.8465    2.2100 O   0  0  0  0  0  0  0  0  0  0  0  0
    1.5982   -8.4825    7.6686 H   0  0  0  0  0  0  0  0  0  0  0  0
    3.1819   -7.7282    7.6604 H   0  0  0  0  0  0  0  0  0  0  0  0
    2.1455   -7.6288    6.2389 H   0  0  0  0  0  0  0  0  0  0  0  0
    2.2910   -5.3497    6.2975 H   0  0  0  0  0  0  0  0  0  0  0  0
    3.9361   -5.6860    8.7389 H   0  0  0  0  0  0  0  0  0  0  0  0
    2.4911   -0.2820    9.5360 H   0  0  0  0  0  0  0  0  0  0  0  0
    3.9316   -1.1453    7.9056 H   0  0  0  0  0  0  0  0  0  0  0  0
    2.8090    2.1573    7.0273 H   0  0  0  0  0  0  0  0  0  0  0  0
    3.9094    1.2313    7.9934 H   0  0  0  0  0  0  0  0  0  0  0  0
    2.2603    1.4528    8.4781 H   0  0  0  0  0  0  0  0  0  0  0  0
    4.6303    0.1920    5.9750 H   0  0  0  0  0  0  0  0  0  0  0  0
    3.4368   -0.6498    5.0158 H   0  0  0  0  0  0  0  0  0  0  0  0
    3.8561    2.2664    4.9368 H   0  0  0  0  0  0  0  0  0  0  0  0
    3.9524    1.6834    2.8560 H   0  0  0  0  0  0  0  0  0  0  0  0
    1.5166    2.3353    5.2926 H   0  0  0  0  0  0  0  0  0  0  0  0
   -0.7017    3.2944    4.6075 H   0  0  0  0  0  0  0  0  0  0  0  0
   -1.9696    2.5844    3.5945 H   0  0  0  0  0  0  0  0  0  0  0  0
   -0.7734    3.6794    2.8760 H   0  0  0  0  0  0  0  0  0  0  0  0
    0.3428    0.2312    1.7377 H   0  0  0  0  0  0  0  0  0  0  0  0
   -0.1474    1.8224    1.1585 H   0  0  0  0  0  0  0  0  0  0  0  0
   -1.3597    0.7570    1.8713 H   0  0  0  0  0  0  0  0  0  0  0  0
    1.3772   -0.4307    4.0768 H   0  0  0  0  0  0  0  0  0  0  0  0
    0.8462   -1.1727    6.1427 H   0  0  0  0  0  0  0  0  0  0  0  0
    0.0908    1.5652    7.0614 H   0  0  0  0  0  0  0  0  0  0  0  0
   -0.9332    0.2193    6.7197 H   0  0  0  0  0  0  0  0  0  0  0  0
    0.4640    0.9094    9.2049 H   0  0  0  0  0  0  0  0  0  0  0  0
   -0.9899    0.1594    8.9436 H   0  0  0  0  0  0  0  0  0  0  0  0
    0.4139   -0.2786   11.1106 H   0  0  0  0  0  0  0  0  0  0  0  0
    0.6651   -1.9822   11.2605 H   0  0  0  0  0  0  0  0  0  0  0  0
   -0.8870   -1.3950   10.7206 H   0  0  0  0  0  0  0  0  0  0  0  0
    1.7890   -5.0440    9.7808 H   0  0  0  0  0  0  0  0  0  0  0  0
    0.1510   -4.7500    9.3187 H   0  0  0  0  0  0  0  0  0  0  0  0
    1.1329   -3.5597   10.0862 H   0  0  0  0  0  0  0  0  0  0  0  0
    5.6990   -2.5270    4.0429 H   0  0  0  0  0  0  0  0  0  0  0  0
    5.3037   -1.8118    1.8435 H   0  0  0  0  0  0  0  0  0  0  0  0
    2.3345   -1.6252    1.0950 H   0  0  0  0  0  0  0  0  0  0  0  0
    3.4322   -0.2939    1.2188 H   0  0  0  0  0  0  0  0  0  0  0  0
    3.1275   -0.9646   -1.1265 H   0  0  0  0  0  0  0  0  0  0  0  0
    4.7900   -1.0438   -0.6175 H   0  0  0  0  0  0  0  0  0  0  0  0
    2.8455   -3.3586   -0.9215 H   0  0  0  0  0  0  0  0  0  0  0  0
    5.4343   -2.8177   -2.4780 H   0  0  0  0  0  0  0  0  0  0  0  0
    3.8486   -2.2859   -3.0535 H   0  0  0  0  0  0  0  0  0  0  0  0
    4.1855   -3.9709   -2.9337 H   0  0  0  0  0  0  0  0  0  0  0  0
    5.7343   -3.3751    0.0008 H   0  0  0  0  0  0  0  0  0  0  0  0
    4.9787   -5.4903   -1.4502 H   0  0  0  0  0  0  0  0  0  0  0  0
    5.9379   -5.6170   -0.0558 H   0  0  0  0  0  0  0  0  0  0  0  0
    2.9136   -6.1052   -0.2336 H   0  0  0  0  0  0  0  0  0  0  0  0
    4.2138   -7.2655   -0.1878 H   0  0  0  0  0  0  0  0  0  0  0  0
    3.5635   -7.7294    3.3356 H   0  0  0  0  0  0  0  0  0  0  0  0
    4.4466   -8.3685    1.9415 H   0  0  0  0  0  0  0  0  0  0  0  0
    2.7051   -8.1214    1.8391 H   0  0  0  0  0  0  0  0  0  0  0  0
    6.1825   -4.1363    2.4171 H   0  0  0  0  0  0  0  0  0  0  0  0
  1  2  1  0
  1 54  1  0
  1 55  1  0
  1 56  1  0
  2  3  1  0
  3 30  1  0
  3  4  1  0
  3 57  1  6
  4  5  2  0
  4 58  1  0
  5 32  1  0
  5  6  1  0
  6  7  2  0
  6  8  1  0
  8  9  1  0
  9 26  1  0
  9 10  1  0
  9 59  1  1
 10 32  1  0
 10 11  1  0
 10 60  1  1
 11 23  1  0
 11 12  1  1
 11 13  1  0
 12 61  1  0
 12 62  1  0
 12 63  1  0
 13 14  1  0
 13 64  1  0
 13 65  1  0
 14 15  1  0
 14 16  1  0
 14 66  1  1
 15 67  1  0
 16 22  1  0
 16 17  1  0
 16 68  1  1
 17 18  1  0
 18 19  1  0
 18 20  1  0
 18 21  1  0
 19 69  1  0
 19 70  1  0
 19 71  1  0
 20 72  1  0
 20 73  1  0
 20 74  1  0
 21 22  1  0
 22 23  1  0
 22 75  1  6
 23 24  1  0
 23 76  1  6
 24 25  1  0
 24 77  1  0
 24 78  1  0
 25 26  1  0
 25 79  1  0
 25 80  1  0
 26 27  1  1
 26 28  1  0
 27 81  1  0
 27 82  1  0
 27 83  1  0
 28 29  1  0
 29 30  1  0
 30 31  1  1
 30 32  1  0
 31 84  1  0
 31 85  1  0
 31 86  1  0
 32 33  1  6
 33 34  2  0
 33 35  1  0
 35 36  1  0
 36 52  1  0
 36 37  1  0
 36 87  1  1
 37 38  1  0
 38 50  1  0
 38 39  1  0
 38 88  1  1
 39 40  1  0
 39 89  1  0
 39 90  1  0
 40 41  1  0
 40 91  1  0
 40 92  1  0
 41 42  1  0
 41 43  1  0
 41 93  1  6
 42 94  1  0
 42 95  1  0
 42 96  1  0
 43 50  1  0
 43 44  1  0
 43 97  1  1
 44 45  1  0
 44 98  1  0
 44 99  1  0
 45 46  1  0
 45100  1  0
 45101  1  0
 46 53  1  0
 46 47  1  1
 46 48  1  0
 47102  1  0
 47103  1  0
 47104  1  0
 48 49  1  0
 50 49  1  6
 50 51  1  0
 51 52  1  0
 51 53  1  0
 51105  1  1
M  END
>  <i_m_ct_stereo_status>  (36) 
1

>  <s_m_source_file>  (36) 
/var/tmp/pbs.5076253.sched01/tmpsnpm1fw8/0c_pn72ob.sdf

>  <i_m_source_file_index>  (36) 
35

>  <i_lp_mmshare_version>  (36) 
48012

>  <i_f3d_flags>  (36) 
0

>  <s_epik_input>  (36) 
W0NIM11DKE8xKShbQ0gzXSlPW0NASF0oW0NAQEhdKFtDSDJdMilbT0hdKVtDQEhdMVtDQEBIXTNbQ0gyXVtDSDJdW0NAXShbQ0gzXSkoW0NAQEhdNFtDQEBIXTVbQ0BAXTIzW0NIM10pT09bQ0BdNihbQ0gzXSlbQ0BAXTUoQyhDKD1PKU80KT1bQ0hdW0NASF02T1tDSDNdKUMoPU8pT1tDQEhdKE9bQ0BIXTdbQ0BdMTg5KU9bQ0BIXTFPW0NAQF0oW0NIM10pKE9POSlbQ0gyXVtDSDJdW0NASF04W0NASF0oW0NIM10pW0NIMl1bQ0gyXTc=

>  <s_epik_cmdline>  (36) 
J2VwaWtfcHl0aG9uJywgJy1waHQnLCAnMi4wJywgJy1waCcsICc3LjAnLCAnLXRuJywgJzgnLCAnLW1hJywgJzIwMCcsICctaW1hZScsICc8aW5maWxlLm1hZT4nLCAnLW9tYWUnLCAnPG91dGZpbGUubWFlPic=

>  <r_lp_tautomer_probability>  (36) 
1

>  <r_epik_Ionization_Penalty>  (36) 
4.60029e-08

>  <r_epik_Ionization_Penalty_Charging>  (36) 
0

>  <r_epik_Ionization_Penalty_Neutral>  (36) 
4.60029e-08

>  <r_epik_State_Penalty>  (36) 
-0

>  <r_epik_Charging_Adjusted_Penalty>  (36) 
0

>  <i_epik_Tot_Q>  (36) 
0

>  <i_epik_Tot_abs_Q>  (36) 
0

>  <s_epik_Chemistry_Notes>  (36) 
This compound has an ester and may undergo hydrolysis at high or low pH. This compound contains an acetal/aminal-like group ( X-CH(R)-Y where X, Y are N, S, or O) that may be acid/base labile, releasing an aldehyde.

>  <s_lp_Force_Field>  (36) 
OPLS3e

>  <r_lp_Energy>  (36) 
177.663

>  <b_lp_Chiralities_Consistent>  (36) 
1

>  <s_lp_Variant>  (36) 
22:0-1

>  <s_i_glide_gridfile>  (36) 
pfpi4k_grid

>  <i_i_glide_lignum>  (36) 
35

>  <i_i_glide_rotatable_bonds>  (36) 
5

>  <r_i_docking_score>  (36) 
-2.08819

>  <r_i_glide_ligand_efficiency>  (36) 
-0.0393998

>  <r_i_glide_ligand_efficiency_sa>  (36) 
-0.147997

>  <r_i_glide_ligand_efficiency_ln>  (36) 
-0.420134

>  <r_i_glide_gscore>  (36) 
-2.08819

>  <r_i_glide_lipo>  (36) 
-0.109756

>  <r_i_glide_hbond>  (36) 
-0.16

>  <r_i_glide_metal>  (36) 
-0

>  <r_i_glide_rewards>  (36) 
-0.122581

>  <r_i_glide_evdw>  (36) 
-25.8651

>  <r_i_glide_ecoul>  (36) 
-3.20284

>  <r_i_glide_erotb>  (36) 
0.115639

>  <r_i_glide_esite>  (36) 
-0.0378097

>  <r_i_glide_emodel>  (36) 
-31.4065

>  <r_i_glide_energy>  (36) 
-29.0679

>  <r_i_glide_einternal>  (36) 
1.76445

>  <r_i_glide_intrahb_reward>  (36) 
-0

>  <i_i_glide_confnum>  (36) 
1

>  <i_i_glide_posenum>  (36) 
16

>  <r_i_glide_eff_state_penalty>  (36) 
0

>  <ligand_id>  (36) 
22

>  <original_smiles>  (36) 
COC1C=C2C(=O)OC3C4C5(C)CC(O)C6OC(C)(C)OC6C5CCC3(C)OOC1(C)C24C(=O)OC1OC2CCC(C)C3CCC4(C)OOC23C(O1)O4

>  <smiles>  (36) 
[H]OC1([H])C([H])([H])C2(C([H])([H])[H])C([H])(C([H])([H])C([H])([H])C3(C([H])([H])[H])OOC4(C([H])([H])[H])C([H])(OC([H])([H])[H])C([H])=C5C(=O)OC3([H])C2([H])C54C(=O)OC2([H])OC3([H])OC4(C([H])([H])[H])OOC35C([H])(O2)C([H])([H])C([H])([H])C([H])(C([H])([H])[H])C5([H])C([H])([H])C4([H])[H])C2([H])OC(C([H])([H])[H])(C([H])([H])[H])OC12[H]

$$$$
26:0:0
     RDKit          3D

 71 80  0  0  1  0  0  0  0  0999 V2000
    0.1064   -8.3536    5.6557 C   0  0  0  0  0  0  0  0  0  0  0  0
    1.5547   -8.1904    5.1522 C   0  0  0  0  0  0  0  0  0  0  0  0
    2.4434   -7.7578    6.3434 C   0  0  0  0  0  0  0  0  0  0  0  0
    2.0857   -9.5268    4.5684 C   0  0  0  0  0  0  0  0  0  0  0  0
    2.3239   -9.2972    3.0683 C   0  0  0  0  0  0  0  0  0  0  0  0
    2.6052   -7.8013    2.9425 C   0  0  1  0  0  0  0  0  0  0  0  0
    3.9172   -7.6127    3.4538 O   0  0  0  0  0  0  0  0  0  0  0  0
    4.3424   -6.2782    3.7229 C   0  0  0  0  0  0  0  0  0  0  0  0
    3.3102   -5.1900    4.2036 C   0  0  1  0  0  0  0  0  0  0  0  0
    3.7373   -4.9284    5.5580 O   0  0  0  0  0  0  0  0  0  0  0  0
    4.7924   -4.0283    5.4436 C   0  0  1  0  0  0  0  0  0  0  0  0
    4.8674   -3.4710    4.1496 O   0  0  0  0  0  0  0  0  0  0  0  0
    3.5796   -3.7241    3.6314 C   0  0  2  0  0  0  0  0  0  0  0  0
    2.7179   -2.6153    4.2423 C   0  0  2  0  0  0  0  0  0  0  0  0
    1.2851   -2.6163    4.1219 O   0  0  0  0  0  0  0  0  0  0  0  0
    2.0085   -1.9163    3.1216 C   0  0  1  0  0  0  0  0  0  0  0  0
    1.8539   -0.4204    2.8996 C   0  0  0  0  0  0  0  0  0  0  0  0
    0.7330   -0.1764    2.0835 O   0  0  0  0  0  0  0  0  0  0  0  0
    2.3068   -2.6875    1.9933 O   0  0  0  0  0  0  0  0  0  0  0  0
    3.5993   -3.2551    2.1345 C   0  0  2  0  0  0  0  0  0  0  0  0
    3.9562   -4.0661    0.8306 C   0  0  1  0  0  0  0  0  0  0  0  0
    3.0628   -5.3296    0.6122 C   0  0  0  0  0  0  0  0  0  0  0  0
    3.5522   -6.5482    1.1346 O   0  0  0  0  0  0  0  0  0  0  0  0
    2.3989   -7.3924    1.5841 O   0  0  0  0  0  0  0  0  0  0  0  0
    3.7029   -3.1858   -0.3884 C   0  0  0  0  0  0  0  0  0  0  0  0
    3.4363   -1.8866   -0.5021 C   0  0  0  0  0  0  0  0  0  0  0  0
    4.2450   -1.8013   -1.7802 C   0  0  1  0  0  0  0  0  0  0  0  0
    5.1633   -0.7378   -1.8704 O   0  0  0  0  0  0  0  0  0  0  0  0
    4.8064   -3.1885   -1.3781 C   0  0  1  0  0  0  0  0  0  0  0  0
    5.8792   -3.3034   -0.4727 O   0  0  0  0  0  0  0  0  0  0  0  0
    5.5366   -4.2268    0.5407 C   0  0  1  0  0  0  0  0  0  0  0  0
    6.5256   -3.8934    1.6791 C   0  0  0  0  0  0  0  0  0  0  0  0
    5.8319   -5.5222    0.0917 O   0  0  0  0  0  0  0  0  0  0  0  0
    5.1592   -3.2299    6.6664 C   0  0  1  0  0  0  0  0  0  0  0  0
    6.5903   -3.1746    6.8077 O   0  0  0  0  0  0  0  0  0  0  0  0
    6.0415   -4.3590    6.2062 C   0  0  2  0  0  0  0  0  0  0  0  0
    1.8063   -5.6975    4.1769 C   0  0  1  0  0  0  0  0  0  0  0  0
    1.0211   -5.0439    3.1915 O   0  0  0  0  0  0  0  0  0  0  0  0
    1.5905   -7.2156    3.9264 C   0  0  2  0  0  0  0  0  0  0  0  0
    0.0552   -9.0551    6.4889 H   0  0  0  0  0  0  0  0  0  0  0  0
   -0.5508   -8.7365    4.8720 H   0  0  0  0  0  0  0  0  0  0  0  0
   -0.2947   -7.3976    5.9942 H   0  0  0  0  0  0  0  0  0  0  0  0
    3.4853   -7.6236    6.0509 H   0  0  0  0  0  0  0  0  0  0  0  0
    2.4309   -8.5155    7.1291 H   0  0  0  0  0  0  0  0  0  0  0  0
    2.0970   -6.8274    6.7946 H   0  0  0  0  0  0  0  0  0  0  0  0
    3.0376   -9.7984    5.0313 H   0  0  0  0  0  0  0  0  0  0  0  0
    1.4057  -10.3645    4.7341 H   0  0  0  0  0  0  0  0  0  0  0  0
    3.1352   -9.9082    2.6720 H   0  0  0  0  0  0  0  0  0  0  0  0
    1.4209   -9.5520    2.5124 H   0  0  0  0  0  0  0  0  0  0  0  0
    5.1103   -6.4246    4.4811 H   0  0  0  0  0  0  0  0  0  0  0  0
    4.9017   -5.9247    2.8710 H   0  0  0  0  0  0  0  0  0  0  0  0
    3.1250   -2.0016    5.0458 H   0  0  0  0  0  0  0  0  0  0  0  0
    1.7448    0.0971    3.8529 H   0  0  0  0  0  0  0  0  0  0  0  0
    2.7492   -0.0358    2.4099 H   0  0  0  0  0  0  0  0  0  0  0  0
    0.9439   -0.4481    1.1750 H   0  0  0  0  0  0  0  0  0  0  0  0
    4.2793   -2.3925    2.1326 H   0  0  0  0  0  0  0  0  0  0  0  0
    2.0510   -5.1285    0.9591 H   0  0  0  0  0  0  0  0  0  0  0  0
    2.9419   -5.5195   -0.4487 H   0  0  0  0  0  0  0  0  0  0  0  0
    2.9616   -1.1135    0.1088 H   0  0  0  0  0  0  0  0  0  0  0  0
    3.6765   -1.8398   -2.7021 H   0  0  0  0  0  0  0  0  0  0  0  0
    4.8088   -0.0108   -1.3794 H   0  0  0  0  0  0  0  0  0  0  0  0
    4.8110   -3.9540   -2.1562 H   0  0  0  0  0  0  0  0  0  0  0  0
    7.5434   -4.0057    1.2984 H   0  0  0  0  0  0  0  0  0  0  0  0
    6.4256   -4.5607    2.5295 H   0  0  0  0  0  0  0  0  0  0  0  0
    6.4182   -2.8600    2.0089 H   0  0  0  0  0  0  0  0  0  0  0  0
    5.2094   -5.7333   -0.5919 H   0  0  0  0  0  0  0  0  0  0  0  0
    4.5678   -3.3804    7.5910 H   0  0  0  0  0  0  0  0  0  0  0  0
    6.0591   -5.2814    6.8166 H   0  0  0  0  0  0  0  0  0  0  0  0
    1.3171   -5.4226    5.1103 H   0  0  0  0  0  0  0  0  0  0  0  0
    1.0738   -4.1055    3.3624 H   0  0  0  0  0  0  0  0  0  0  0  0
    0.6134   -7.3339    3.4414 H   0  0  0  0  0  0  0  0  0  0  0  0
  1  2  1  0
  1 40  1  0
  1 41  1  0
  1 42  1  0
  2 39  1  0
  2  3  1  0
  2  4  1  0
  3 43  1  0
  3 44  1  0
  3 45  1  0
  4  5  1  0
  4 46  1  0
  4 47  1  0
  6  5  1  6
  5 48  1  0
  5 49  1  0
  6 24  1  0
  6 39  1  0
  6  7  1  0
  7  8  1  0
  8  9  1  0
  8 50  1  0
  8 51  1  0
  9 13  1  0
  9 10  1  1
  9 37  1  0
 11 10  1  1
 11 36  1  0
 11 12  1  0
 11 34  1  0
 13 12  1  1
 13 20  1  0
 13 14  1  0
 14 16  1  0
 14 15  1  0
 14 52  1  1
 15 16  1  0
 16 17  1  6
 16 19  1  0
 17 18  1  0
 17 53  1  0
 17 54  1  0
 18 55  1  0
 19 20  1  0
 20 21  1  0
 20 56  1  1
 21 31  1  0
 21 22  1  0
 21 25  1  6
 22 23  1  0
 22 57  1  0
 22 58  1  0
 23 24  1  0
 25 29  1  0
 25 26  2  0
 26 27  1  0
 26 59  1  0
 27 28  1  0
 27 29  1  0
 27 60  1  6
 28 61  1  0
 29 30  1  0
 29 62  1  6
 30 31  1  0
 31 32  1  0
 31 33  1  6
 32 63  1  0
 32 64  1  0
 32 65  1  0
 33 66  1  0
 34 36  1  0
 34 35  1  0
 34 67  1  1
 35 36  1  0
 36 68  1  1
 37 38  1  0
 37 39  1  0
 37 69  1  1
 38 70  1  0
 39 71  1  6
M  END
>  <i_m_ct_stereo_status>  (37) 
1

>  <s_m_source_file>  (37) 
/var/tmp/pbs.5076253.sched01/tmp9xbr3gte/40_qt8sgg8.sdf

>  <i_m_source_file_index>  (37) 
1

>  <i_lp_mmshare_version>  (37) 
48012

>  <i_f3d_flags>  (37) 
0

>  <s_epik_input>  (37) 
W0NIMl0xW0NIMl1DKFtDSDNdKShbQ0gzXSlbQ0BIXShbQ0BdMTIzKVtDQEhdKFtPSF0pW0NAQF00KFtDSDJdTzIpW0NAXTUoT1tDQF02KE80KVtDQEhdN1tDQEBIXTZPNylbQ0BIXThbQ0BAXShPOCkoW0NIMl1bT0hdKU9bQ0hdNVtDQEBdOShbQ0gyXU9PMylDPTFbQ0BASF0oW0NAQEhdKFtDSF0xKVtPSF0pT1tDQF05KFtDSDNdKVtPSF0=

>  <s_epik_cmdline>  (37) 
J2VwaWtfcHl0aG9uJywgJy1waHQnLCAnMi4wJywgJy1waCcsICc3LjAnLCAnLXRuJywgJzgnLCAnLW1hJywgJzIwMCcsICctaW1hZScsICc8aW5maWxlLm1hZT4nLCAnLW9tYWUnLCAnPG91dGZpbGUubWFlPic=

>  <r_lp_tautomer_probability>  (37) 
1

>  <r_epik_Ionization_Penalty>  (37) 
4.21108e-05

>  <r_epik_Ionization_Penalty_Charging>  (37) 
0

>  <r_epik_Ionization_Penalty_Neutral>  (37) 
4.21108e-05

>  <r_epik_State_Penalty>  (37) 
-0

>  <r_epik_Charging_Adjusted_Penalty>  (37) 
0

>  <i_epik_Tot_Q>  (37) 
0

>  <i_epik_Tot_abs_Q>  (37) 
0

>  <s_lp_Force_Field>  (37) 
OPLS3e

>  <r_lp_Energy>  (37) 
98.6227

>  <b_lp_Chiralities_Consistent>  (37) 
1

>  <s_lp_Variant>  (37) 
26:0-1

>  <s_i_glide_gridfile>  (37) 
pfpi4k_grid

>  <i_i_glide_lignum>  (37) 
1

>  <i_i_glide_rotatable_bonds>  (37) 
5

>  <r_i_docking_score>  (37) 
-2.77156

>  <r_i_glide_ligand_efficiency>  (37) 
-0.0710656

>  <r_i_glide_ligand_efficiency_sa>  (37) 
-0.240998

>  <r_i_glide_ligand_efficiency_ln>  (37) 
-0.5943

>  <r_i_glide_gscore>  (37) 
-2.77156

>  <r_i_glide_lipo>  (37) 
-0.120636

>  <r_i_glide_hbond>  (37) 
0

>  <r_i_glide_metal>  (37) 
-0

>  <r_i_glide_rewards>  (37) 
-0.595438

>  <r_i_glide_evdw>  (37) 
-21.8871

>  <r_i_glide_ecoul>  (37) 
-6.8027

>  <r_i_glide_erotb>  (37) 
0.0679544

>  <r_i_glide_esite>  (37) 
-0.00867878

>  <r_i_glide_emodel>  (37) 
-35.9394

>  <r_i_glide_energy>  (37) 
-28.6898

>  <r_i_glide_einternal>  (37) 
4.98224

>  <r_i_glide_intrahb_reward>  (37) 
-0.5

>  <i_i_glide_confnum>  (37) 
2

>  <i_i_glide_posenum>  (37) 
40

>  <r_i_glide_eff_state_penalty>  (37) 
0

>  <ligand_id>  (37) 
26

>  <original_smiles>  (37) 
CC1(C)CCC23OCC4(OC5(OC46C4OC4(CO)OC6C4(COO2)C2=CC(O)C2OC4(C)O)C2OC25)C(O)C13

>  <smiles>  (37) 
[H]OC([H])([H])C12OC1([H])C13OC4(OC15C([H])([H])OC1(OOC([H])([H])C6(C7=C([H])C([H])(O[H])C7([H])OC6(O[H])C([H])([H])[H])C3([H])O2)C([H])([H])C([H])([H])C(C([H])([H])[H])(C([H])([H])[H])C1([H])C5([H])O[H])C1([H])OC14[H]

$$$$
26:0:1
     RDKit          3D

 71 80  0  0  1  0  0  0  0  0999 V2000
    0.1495   -8.7073    5.2158 C   0  0  0  0  0  0  0  0  0  0  0  0
    1.6161   -8.4490    4.8137 C   0  0  0  0  0  0  0  0  0  0  0  0
    2.3978   -7.9854    6.0663 C   0  0  0  0  0  0  0  0  0  0  0  0
    2.2676   -9.7382    4.2469 C   0  0  0  0  0  0  0  0  0  0  0  0
    2.5918   -9.4668    2.7685 C   0  0  0  0  0  0  0  0  0  0  0  0
    2.7879   -7.9559    2.6839 C   0  0  1  0  0  0  0  0  0  0  0  0
    4.0499   -7.6999    3.2862 O   0  0  0  0  0  0  0  0  0  0  0  0
    4.3719   -6.3444    3.6046 C   0  0  0  0  0  0  0  0  0  0  0  0
    3.2437   -5.3316    4.0344 C   0  0  1  0  0  0  0  0  0  0  0  0
    3.5629   -5.0730    5.4138 O   0  0  0  0  0  0  0  0  0  0  0  0
    4.5645   -4.1073    5.3836 C   0  0  1  0  0  0  0  0  0  0  0  0
    4.6892   -3.5292    4.1071 O   0  0  0  0  0  0  0  0  0  0  0  0
    3.4608   -3.8430    3.5058 C   0  0  2  0  0  0  0  0  0  0  0  0
    2.4909   -2.7992    4.0805 C   0  0  2  0  0  0  0  0  0  0  0  0
    1.0769   -2.8558    3.8324 O   0  0  0  0  0  0  0  0  0  0  0  0
    1.8624   -2.1034    2.9193 C   0  0  1  0  0  0  0  0  0  0  0  0
    1.5752   -0.6265    2.6976 C   0  0  0  0  0  0  0  0  0  0  0  0
    2.7498    0.1410    2.8739 O   0  0  0  0  0  0  0  0  0  0  0  0
    2.2428   -2.8431    1.7967 O   0  0  0  0  0  0  0  0  0  0  0  0
    3.5535   -3.3471    2.0171 C   0  0  2  0  0  0  0  0  0  0  0  0
    4.0432   -4.1050    0.7221 C   0  0  1  0  0  0  0  0  0  0  0  0
    3.2476   -5.4150    0.4270 C   0  0  0  0  0  0  0  0  0  0  0  0
    3.7763   -6.6094    0.9635 O   0  0  0  0  0  0  0  0  0  0  0  0
    2.6489   -7.5298    1.3225 O   0  0  0  0  0  0  0  0  0  0  0  0
    3.8222   -3.2235   -0.4940 C   0  0  0  0  0  0  0  0  0  0  0  0
    3.4767   -1.9250   -0.6043 C   0  0  0  0  0  0  0  0  0  0  0  0
    4.3576   -1.7804   -1.8274 C   0  0  1  0  0  0  0  0  0  0  0  0
    5.2138   -0.6606   -1.8421 O   0  0  0  0  0  0  0  0  0  0  0  0
    4.9845   -3.1281   -1.4118 C   0  0  1  0  0  0  0  0  0  0  0  0
    5.9969   -3.1961   -0.4354 O   0  0  0  0  0  0  0  0  0  0  0  0
    5.6462   -4.1633    0.5350 C   0  0  1  0  0  0  0  0  0  0  0  0
    6.5331   -3.7959    1.7382 C   0  0  0  0  0  0  0  0  0  0  0  0
    6.0448   -5.4340    0.0712 O   0  0  0  0  0  0  0  0  0  0  0  0
    4.7983   -3.3064    6.6414 C   0  0  1  0  0  0  0  0  0  0  0  0
    6.2118   -3.1640    6.8768 O   0  0  0  0  0  0  0  0  0  0  0  0
    5.7806   -4.3706    6.2252 C   0  0  2  0  0  0  0  0  0  0  0  0
    1.7782   -5.9284    3.8924 C   0  0  1  0  0  0  0  0  0  0  0  0
    1.0182   -5.2990    2.8702 O   0  0  0  0  0  0  0  0  0  0  0  0
    1.6749   -7.4538    3.6062 C   0  0  2  0  0  0  0  0  0  0  0  0
    0.0858   -9.4259    6.0335 H   0  0  0  0  0  0  0  0  0  0  0  0
   -0.4276   -9.1169    4.3840 H   0  0  0  0  0  0  0  0  0  0  0  0
   -0.3379   -7.7870    5.5397 H   0  0  0  0  0  0  0  0  0  0  0  0
    3.4460   -7.7818    5.8458 H   0  0  0  0  0  0  0  0  0  0  0  0
    2.3817   -8.7573    6.8384 H   0  0  0  0  0  0  0  0  0  0  0  0
    1.9663   -7.0869    6.5072 H   0  0  0  0  0  0  0  0  0  0  0  0
    3.2026   -9.9616    4.7679 H   0  0  0  0  0  0  0  0  0  0  0  0
    1.6328  -10.6197    4.3530 H   0  0  0  0  0  0  0  0  0  0  0  0
    3.4633  -10.0216    2.4186 H   0  0  0  0  0  0  0  0  0  0  0  0
    1.7456   -9.7666    2.1492 H   0  0  0  0  0  0  0  0  0  0  0  0
    5.0955   -6.4578    4.4108 H   0  0  0  0  0  0  0  0  0  0  0  0
    4.9657   -5.9401    2.7954 H   0  0  0  0  0  0  0  0  0  0  0  0
    2.8111   -2.1802    4.9226 H   0  0  0  0  0  0  0  0  0  0  0  0
    1.2007   -0.4953    1.6795 H   0  0  0  0  0  0  0  0  0  0  0  0
    0.8051   -0.2863    3.3909 H   0  0  0  0  0  0  0  0  0  0  0  0
    2.5688    1.0281    2.5879 H   0  0  0  0  0  0  0  0  0  0  0  0
    4.1713   -2.4432    2.0679 H   0  0  0  0  0  0  0  0  0  0  0  0
    2.2022   -5.2835    0.6966 H   0  0  0  0  0  0  0  0  0  0  0  0
    3.2343   -5.5810   -0.6436 H   0  0  0  0  0  0  0  0  0  0  0  0
    2.9220   -1.2067   -0.0123 H   0  0  0  0  0  0  0  0  0  0  0  0
    3.8615   -1.8442   -2.7870 H   0  0  0  0  0  0  0  0  0  0  0  0
    4.9541   -0.0894   -1.1418 H   0  0  0  0  0  0  0  0  0  0  0  0
    5.0898   -3.8817   -2.1953 H   0  0  0  0  0  0  0  0  0  0  0  0
    7.5792   -3.8371    1.4274 H   0  0  0  0  0  0  0  0  0  0  0  0
    6.4161   -4.4826    2.5728 H   0  0  0  0  0  0  0  0  0  0  0  0
    6.3393   -2.7753    2.0789 H   0  0  0  0  0  0  0  0  0  0  0  0
    5.4612   -5.6786   -0.6195 H   0  0  0  0  0  0  0  0  0  0  0  0
    4.1537   -3.5072    7.5288 H   0  0  0  0  0  0  0  0  0  0  0  0
    5.8167   -5.3047    6.8255 H   0  0  0  0  0  0  0  0  0  0  0  0
    1.2133   -5.6996    4.7963 H   0  0  0  0  0  0  0  0  0  0  0  0
    1.0392   -4.3590    3.0399 H   0  0  0  0  0  0  0  0  0  0  0  0
    0.7421   -7.6196    3.0538 H   0  0  0  0  0  0  0  0  0  0  0  0
  1  2  1  0
  1 40  1  0
  1 41  1  0
  1 42  1  0
  2 39  1  0
  2  3  1  0
  2  4  1  0
  3 43  1  0
  3 44  1  0
  3 45  1  0
  4  5  1  0
  4 46  1  0
  4 47  1  0
  6  5  1  6
  5 48  1  0
  5 49  1  0
  6 24  1  0
  6 39  1  0
  6  7  1  0
  7  8  1  0
  8  9  1  0
  8 50  1  0
  8 51  1  0
  9 13  1  0
  9 10  1  1
  9 37  1  0
 11 10  1  1
 11 36  1  0
 11 12  1  0
 11 34  1  0
 13 12  1  1
 13 20  1  0
 13 14  1  0
 14 16  1  0
 14 15  1  0
 14 52  1  1
 15 16  1  0
 16 17  1  6
 16 19  1  0
 17 18  1  0
 17 53  1  0
 17 54  1  0
 18 55  1  0
 19 20  1  0
 20 21  1  0
 20 56  1  1
 21 31  1  0
 21 22  1  0
 21 25  1  6
 22 23  1  0
 22 57  1  0
 22 58  1  0
 23 24  1  0
 25 29  1  0
 25 26  2  0
 26 27  1  0
 26 59  1  0
 27 28  1  0
 27 29  1  0
 27 60  1  6
 28 61  1  0
 29 30  1  0
 29 62  1  6
 30 31  1  0
 31 32  1  0
 31 33  1  6
 32 63  1  0
 32 64  1  0
 32 65  1  0
 33 66  1  0
 34 36  1  0
 34 35  1  0
 34 67  1  1
 35 36  1  0
 36 68  1  1
 37 38  1  0
 37 39  1  0
 37 69  1  1
 38 70  1  0
 39 71  1  6
M  END
>  <i_m_ct_stereo_status>  (38) 
1

>  <s_m_source_file>  (38) 
/var/tmp/pbs.5076253.sched01/tmp9xbr3gte/40_qt8sgg8.sdf

>  <i_m_source_file_index>  (38) 
1

>  <i_lp_mmshare_version>  (38) 
48012

>  <i_f3d_flags>  (38) 
0

>  <s_epik_input>  (38) 
W0NIMl0xW0NIMl1DKFtDSDNdKShbQ0gzXSlbQ0BIXShbQ0BdMTIzKVtDQEhdKFtPSF0pW0NAQF00KFtDSDJdTzIpW0NAXTUoT1tDQF02KE80KVtDQEhdN1tDQEBIXTZPNylbQ0BIXThbQ0BAXShPOCkoW0NIMl1bT0hdKU9bQ0hdNVtDQEBdOShbQ0gyXU9PMylDPTFbQ0BASF0oW0NAQEhdKFtDSF0xKVtPSF0pT1tDQF05KFtDSDNdKVtPSF0=

>  <s_epik_cmdline>  (38) 
J2VwaWtfcHl0aG9uJywgJy1waHQnLCAnMi4wJywgJy1waCcsICc3LjAnLCAnLXRuJywgJzgnLCAnLW1hJywgJzIwMCcsICctaW1hZScsICc8aW5maWxlLm1hZT4nLCAnLW9tYWUnLCAnPG91dGZpbGUubWFlPic=

>  <r_lp_tautomer_probability>  (38) 
1

>  <r_epik_Ionization_Penalty>  (38) 
4.21108e-05

>  <r_epik_Ionization_Penalty_Charging>  (38) 
0

>  <r_epik_Ionization_Penalty_Neutral>  (38) 
4.21108e-05

>  <r_epik_State_Penalty>  (38) 
-0

>  <r_epik_Charging_Adjusted_Penalty>  (38) 
0

>  <i_epik_Tot_Q>  (38) 
0

>  <i_epik_Tot_abs_Q>  (38) 
0

>  <s_lp_Force_Field>  (38) 
OPLS3e

>  <r_lp_Energy>  (38) 
98.6227

>  <b_lp_Chiralities_Consistent>  (38) 
1

>  <s_lp_Variant>  (38) 
26:0-1

>  <s_i_glide_gridfile>  (38) 
pfpi4k_grid

>  <i_i_glide_lignum>  (38) 
1

>  <i_i_glide_rotatable_bonds>  (38) 
5

>  <r_i_docking_score>  (38) 
-2.74084

>  <r_i_glide_ligand_efficiency>  (38) 
-0.070278

>  <r_i_glide_ligand_efficiency_sa>  (38) 
-0.238327

>  <r_i_glide_ligand_efficiency_ln>  (38) 
-0.587714

>  <r_i_glide_gscore>  (38) 
-2.74084

>  <r_i_glide_lipo>  (38) 
-0.142499

>  <r_i_glide_hbond>  (38) 
0

>  <r_i_glide_metal>  (38) 
-0

>  <r_i_glide_rewards>  (38) 
-0.59907

>  <r_i_glide_evdw>  (38) 
-20.2294

>  <r_i_glide_ecoul>  (38) 
-6.96684

>  <r_i_glide_erotb>  (38) 
0.0679544

>  <r_i_glide_esite>  (38) 
-0.01073

>  <r_i_glide_emodel>  (38) 
-34.111

>  <r_i_glide_energy>  (38) 
-27.1963

>  <r_i_glide_einternal>  (38) 
1.59386

>  <r_i_glide_intrahb_reward>  (38) 
-0.5

>  <i_i_glide_confnum>  (38) 
4

>  <i_i_glide_posenum>  (38) 
5

>  <r_i_glide_eff_state_penalty>  (38) 
0

>  <ligand_id>  (38) 
26

>  <original_smiles>  (38) 
CC1(C)CCC23OCC4(OC5(OC46C4OC4(CO)OC6C4(COO2)C2=CC(O)C2OC4(C)O)C2OC25)C(O)C13

>  <smiles>  (38) 
[H]OC([H])([H])C12OC1([H])C13OC4(OC15C([H])([H])OC1(OOC([H])([H])C6(C7=C([H])C([H])(O[H])C7([H])OC6(O[H])C([H])([H])[H])C3([H])O2)C([H])([H])C([H])([H])C(C([H])([H])[H])(C([H])([H])[H])C1([H])C5([H])O[H])C1([H])OC14[H]

$$$$
26:0:2
     RDKit          3D

 71 80  0  0  1  0  0  0  0  0999 V2000
    0.3101   -9.3422    5.4481 C   0  0  0  0  0  0  0  0  0  0  0  0
    1.7757   -9.0085    5.1033 C   0  0  0  0  0  0  0  0  0  0  0  0
    2.4672   -8.4586    6.3730 C   0  0  0  0  0  0  0  0  0  0  0  0
    2.5242  -10.2779    4.6105 C   0  0  0  0  0  0  0  0  0  0  0  0
    2.8980  -10.0367    3.1408 C   0  0  0  0  0  0  0  0  0  0  0  0
    3.0102   -8.5169    3.0148 C   0  0  1  0  0  0  0  0  0  0  0  0
    4.2255   -8.1621    3.6577 O   0  0  0  0  0  0  0  0  0  0  0  0
    4.4562   -6.7859    3.9416 C   0  0  0  0  0  0  0  0  0  0  0  0
    3.2506   -5.8278    4.2794 C   0  0  1  0  0  0  0  0  0  0  0  0
    3.4875   -5.5101    5.6676 O   0  0  0  0  0  0  0  0  0  0  0  0
    4.4376   -4.4898    5.6512 C   0  0  1  0  0  0  0  0  0  0  0  0
    4.5990   -3.9309    4.3565 O   0  0  0  0  0  0  0  0  0  0  0  0
    3.4053   -4.3407    3.7161 C   0  0  2  0  0  0  0  0  0  0  0  0
    2.3572   -3.3355    4.2175 C   0  0  2  0  0  0  0  0  0  0  0  0
    0.9596   -3.4670    3.9230 O   0  0  0  0  0  0  0  0  0  0  0  0
    1.7462   -2.7216    3.0077 C   0  0  1  0  0  0  0  0  0  0  0  0
    1.3869   -1.2717    2.7147 C   0  0  0  0  0  0  0  0  0  0  0  0
    2.4866   -0.4248    2.9665 O   0  0  0  0  0  0  0  0  0  0  0  0
    2.2180   -3.4814    1.9241 O   0  0  0  0  0  0  0  0  0  0  0  0
    3.5329   -3.8954    2.2129 C   0  0  2  0  0  0  0  0  0  0  0  0
    4.1297   -4.6632    0.9725 C   0  0  1  0  0  0  0  0  0  0  0  0
    3.4305   -6.0301    0.6848 C   0  0  0  0  0  0  0  0  0  0  0  0
    3.9929   -7.1746    1.2924 O   0  0  0  0  0  0  0  0  0  0  0  0
    2.9024   -8.1421    1.6356 O   0  0  0  0  0  0  0  0  0  0  0  0
    3.9111   -3.8300   -0.2880 C   0  0  0  0  0  0  0  0  0  0  0  0
    3.5017   -2.5738   -0.4637 C   0  0  0  0  0  0  0  0  0  0  0  0
    4.4387   -2.4028   -1.6465 C   0  0  1  0  0  0  0  0  0  0  0  0
    5.2228   -1.2332   -1.6638 O   0  0  0  0  0  0  0  0  0  0  0  0
    5.1117   -3.7083   -1.1492 C   0  0  1  0  0  0  0  0  0  0  0  0
    6.0815   -3.6826   -0.1296 O   0  0  0  0  0  0  0  0  0  0  0  0
    5.7402   -4.6327    0.8580 C   0  0  1  0  0  0  0  0  0  0  0  0
    6.5478   -4.1759    2.0756 C   0  0  0  0  0  0  0  0  0  0  0  0
    6.2413   -5.8851    0.4772 O   0  0  0  0  0  0  0  0  0  0  0  0
    4.5615   -3.6413    6.8867 C   0  0  1  0  0  0  0  0  0  0  0  0
    5.9516   -3.4012    7.1715 O   0  0  0  0  0  0  0  0  0  0  0  0
    5.6193   -4.6569    6.5549 C   0  0  2  0  0  0  0  0  0  0  0  0
    1.8273   -6.5119    4.1037 C   0  0  1  0  0  0  0  0  0  0  0  0
    1.0799   -5.9986    3.0095 O   0  0  0  0  0  0  0  0  0  0  0  0
    1.8293   -8.0479    3.8687 C   0  0  2  0  0  0  0  0  0  0  0  0
    0.2485  -10.0391    6.2851 H   0  0  0  0  0  0  0  0  0  0  0  0
   -0.1941   -9.8103    4.6007 H   0  0  0  0  0  0  0  0  0  0  0  0
   -0.2493   -8.4442    5.7164 H   0  0  0  0  0  0  0  0  0  0  0  0
    3.5121   -8.2019    6.1933 H   0  0  0  0  0  0  0  0  0  0  0  0
    2.4568   -9.2044    7.1700 H   0  0  0  0  0  0  0  0  0  0  0  0
    1.9637   -7.5718    6.7606 H   0  0  0  0  0  0  0  0  0  0  0  0
    3.4448  -10.4268    5.1806 H   0  0  0  0  0  0  0  0  0  0  0  0
    1.9339  -11.1894    4.7210 H   0  0  0  0  0  0  0  0  0  0  0  0
    3.8148  -10.5485    2.8476 H   0  0  0  0  0  0  0  0  0  0  0  0
    2.0999  -10.4040    2.4947 H   0  0  0  0  0  0  0  0  0  0  0  0
    5.1461   -6.8308    4.7837 H   0  0  0  0  0  0  0  0  0  0  0  0
    5.0608   -6.3747    3.1509 H   0  0  0  0  0  0  0  0  0  0  0  0
    2.6118   -2.6697    5.0464 H   0  0  0  0  0  0  0  0  0  0  0  0
    1.0916   -1.1871    1.6672 H   0  0  0  0  0  0  0  0  0  0  0  0
    0.5387   -0.9701    3.3283 H   0  0  0  0  0  0  0  0  0  0  0  0
    2.2753    0.4415    2.6441 H   0  0  0  0  0  0  0  0  0  0  0  0
    4.1012   -2.9568    2.2616 H   0  0  0  0  0  0  0  0  0  0  0  0
    2.3649   -5.9456    0.8937 H   0  0  0  0  0  0  0  0  0  0  0  0
    3.4799   -6.2524   -0.3727 H   0  0  0  0  0  0  0  0  0  0  0  0
    2.8699   -1.8604    0.0734 H   0  0  0  0  0  0  0  0  0  0  0  0
    3.9931   -2.5297   -2.6279 H   0  0  0  0  0  0  0  0  0  0  0  0
    4.9229   -0.6846   -0.9516 H   0  0  0  0  0  0  0  0  0  0  0  0
    5.3001   -4.4736   -1.9028 H   0  0  0  0  0  0  0  0  0  0  0  0
    7.6065   -4.1741    1.8128 H   0  0  0  0  0  0  0  0  0  0  0  0
    6.4337   -4.8412    2.9319 H   0  0  0  0  0  0  0  0  0  0  0  0
    6.2744   -3.1635    2.3737 H   0  0  0  0  0  0  0  0  0  0  0  0
    5.7289   -6.1831   -0.2623 H   0  0  0  0  0  0  0  0  0  0  0  0
    3.8883   -3.8374    7.7458 H   0  0  0  0  0  0  0  0  0  0  0  0
    5.6908   -5.5688    7.1784 H   0  0  0  0  0  0  0  0  0  0  0  0
    1.2064   -6.2881    4.9729 H   0  0  0  0  0  0  0  0  0  0  0  0
    1.5274   -6.2201    2.2055 H   0  0  0  0  0  0  0  0  0  0  0  0
    0.9358   -8.3011    3.2811 H   0  0  0  0  0  0  0  0  0  0  0  0
  1  2  1  0
  1 40  1  0
  1 41  1  0
  1 42  1  0
  2 39  1  0
  2  3  1  0
  2  4  1  0
  3 43  1  0
  3 44  1  0
  3 45  1  0
  4  5  1  0
  4 46  1  0
  4 47  1  0
  6  5  1  6
  5 48  1  0
  5 49  1  0
  6 24  1  0
  6 39  1  0
  6  7  1  0
  7  8  1  0
  8  9  1  0
  8 50  1  0
  8 51  1  0
  9 13  1  0
  9 10  1  1
  9 37  1  0
 11 10  1  6
 11 36  1  0
 11 12  1  0
 11 34  1  0
 13 12  1  1
 13 20  1  0
 13 14  1  0
 14 16  1  0
 14 15  1  0
 14 52  1  1
 15 16  1  0
 16 17  1  6
 16 19  1  0
 17 18  1  0
 17 53  1  0
 17 54  1  0
 18 55  1  0
 19 20  1  0
 20 21  1  0
 20 56  1  1
 21 31  1  0
 21 22  1  0
 21 25  1  6
 22 23  1  0
 22 57  1  0
 22 58  1  0
 23 24  1  0
 25 29  1  0
 25 26  2  0
 26 27  1  0
 26 59  1  0
 27 28  1  0
 27 29  1  0
 27 60  1  6
 28 61  1  0
 29 30  1  0
 29 62  1  6
 30 31  1  0
 31 32  1  0
 31 33  1  6
 32 63  1  0
 32 64  1  0
 32 65  1  0
 33 66  1  0
 34 36  1  0
 34 35  1  0
 34 67  1  1
 35 36  1  0
 36 68  1  1
 37 38  1  0
 37 39  1  0
 37 69  1  1
 38 70  1  0
 39 71  1  6
M  END
>  <i_m_ct_stereo_status>  (39) 
1

>  <s_m_source_file>  (39) 
/var/tmp/pbs.5076253.sched01/tmp9xbr3gte/40_qt8sgg8.sdf

>  <i_m_source_file_index>  (39) 
1

>  <i_lp_mmshare_version>  (39) 
48012

>  <i_f3d_flags>  (39) 
0

>  <s_epik_input>  (39) 
W0NIMl0xW0NIMl1DKFtDSDNdKShbQ0gzXSlbQ0BIXShbQ0BdMTIzKVtDQEhdKFtPSF0pW0NAQF00KFtDSDJdTzIpW0NAXTUoT1tDQF02KE80KVtDQEhdN1tDQEBIXTZPNylbQ0BIXThbQ0BAXShPOCkoW0NIMl1bT0hdKU9bQ0hdNVtDQEBdOShbQ0gyXU9PMylDPTFbQ0BASF0oW0NAQEhdKFtDSF0xKVtPSF0pT1tDQF05KFtDSDNdKVtPSF0=

>  <s_epik_cmdline>  (39) 
J2VwaWtfcHl0aG9uJywgJy1waHQnLCAnMi4wJywgJy1waCcsICc3LjAnLCAnLXRuJywgJzgnLCAnLW1hJywgJzIwMCcsICctaW1hZScsICc8aW5maWxlLm1hZT4nLCAnLW9tYWUnLCAnPG91dGZpbGUubWFlPic=

>  <r_lp_tautomer_probability>  (39) 
1

>  <r_epik_Ionization_Penalty>  (39) 
4.21108e-05

>  <r_epik_Ionization_Penalty_Charging>  (39) 
0

>  <r_epik_Ionization_Penalty_Neutral>  (39) 
4.21108e-05

>  <r_epik_State_Penalty>  (39) 
-0

>  <r_epik_Charging_Adjusted_Penalty>  (39) 
0

>  <i_epik_Tot_Q>  (39) 
0

>  <i_epik_Tot_abs_Q>  (39) 
0

>  <s_lp_Force_Field>  (39) 
OPLS3e

>  <r_lp_Energy>  (39) 
98.6227

>  <b_lp_Chiralities_Consistent>  (39) 
1

>  <s_lp_Variant>  (39) 
26:0-1

>  <s_i_glide_gridfile>  (39) 
pfpi4k_grid

>  <i_i_glide_lignum>  (39) 
1

>  <i_i_glide_rotatable_bonds>  (39) 
5

>  <r_i_docking_score>  (39) 
-1.95979

>  <r_i_glide_ligand_efficiency>  (39) 
-0.0502511

>  <r_i_glide_ligand_efficiency_sa>  (39) 
-0.170412

>  <r_i_glide_ligand_efficiency_ln>  (39) 
-0.420236

>  <r_i_glide_gscore>  (39) 
-1.95979

>  <r_i_glide_lipo>  (39) 
-0.103569

>  <r_i_glide_hbond>  (39) 
0

>  <r_i_glide_metal>  (39) 
-0

>  <r_i_glide_rewards>  (39) 
-0.117571

>  <r_i_glide_evdw>  (39) 
-23.0588

>  <r_i_glide_ecoul>  (39) 
-4.32158

>  <r_i_glide_erotb>  (39) 
0.0679544

>  <r_i_glide_esite>  (39) 
-0.00543346

>  <r_i_glide_emodel>  (39) 
-29.274

>  <r_i_glide_energy>  (39) 
-27.3803

>  <r_i_glide_einternal>  (39) 
1.17474

>  <r_i_glide_intrahb_reward>  (39) 
-0

>  <i_i_glide_confnum>  (39) 
1

>  <i_i_glide_posenum>  (39) 
21

>  <r_i_glide_eff_state_penalty>  (39) 
0

>  <ligand_id>  (39) 
26

>  <original_smiles>  (39) 
CC1(C)CCC23OCC4(OC5(OC46C4OC4(CO)OC6C4(COO2)C2=CC(O)C2OC4(C)O)C2OC25)C(O)C13

>  <smiles>  (39) 
[H]OC([H])([H])C12OC1([H])C13OC4(OC15C([H])([H])OC1(OOC([H])([H])C6(C7=C([H])C([H])(O[H])C7([H])OC6(O[H])C([H])([H])[H])C3([H])O2)C([H])([H])C([H])([H])C(C([H])([H])[H])(C([H])([H])[H])C1([H])C5([H])O[H])C1([H])OC14[H]

$$$$
26:1:0
     RDKit          3D

 71 80  0  0  1  0  0  0  0  0999 V2000
    0.1484   -8.3615    5.6444 C   0  0  0  0  0  0  0  0  0  0  0  0
    1.5967   -8.1769    5.1389 C   0  0  0  0  0  0  0  0  0  0  0  0
    2.4813   -7.7434    6.3313 C   0  0  0  0  0  0  0  0  0  0  0  0
    2.1372   -9.5140    4.5579 C   0  0  0  0  0  0  0  0  0  0  0  0
    2.3685   -9.2847    3.0585 C   0  0  0  0  0  0  0  0  0  0  0  0
    2.6401   -7.7841    2.9297 C   0  0  1  0  0  0  0  0  0  0  0  0
    3.9507   -7.5787    3.4379 O   0  0  0  0  0  0  0  0  0  0  0  0
    4.3792   -6.2435    3.6864 C   0  0  0  0  0  0  0  0  0  0  0  0
    3.3069   -5.1617    4.1183 C   0  0  1  0  0  0  0  0  0  0  0  0
    3.5544   -4.9814    5.5136 O   0  0  0  0  0  0  0  0  0  0  0  0
    4.6937   -4.1387    5.5379 C   0  0  1  0  0  0  0  0  0  0  0  0
    4.8533   -3.4464    4.3487 O   0  0  0  0  0  0  0  0  0  0  0  0
    3.6367   -3.6755    3.6362 C   0  0  2  0  0  0  0  0  0  0  0  0
    2.7396   -2.5887    4.2117 C   0  0  2  0  0  0  0  0  0  0  0  0
    1.3005   -2.6349    4.0998 O   0  0  0  0  0  0  0  0  0  0  0  0
    1.9829   -1.9113    3.0954 C   0  0  1  0  0  0  0  0  0  0  0  0
    1.8270   -0.4049    2.8966 C   0  0  0  0  0  0  0  0  0  0  0  0
    0.6985   -0.1574    2.0637 O   0  0  0  0  0  0  0  0  0  0  0  0
    2.3009   -2.6710    1.9673 O   0  0  0  0  0  0  0  0  0  0  0  0
    3.6216   -3.2007    2.1132 C   0  0  2  0  0  0  0  0  0  0  0  0
    3.9674   -4.0320    0.8128 C   0  0  1  0  0  0  0  0  0  0  0  0
    3.0809   -5.3084    0.5994 C   0  0  0  0  0  0  0  0  0  0  0  0
    3.5774   -6.5251    1.1194 O   0  0  0  0  0  0  0  0  0  0  0  0
    2.4294   -7.3783    1.5727 O   0  0  0  0  0  0  0  0  0  0  0  0
    3.7055   -3.1644   -0.4095 C   0  0  0  0  0  0  0  0  0  0  0  0
    3.4353   -1.8601   -0.5147 C   0  0  0  0  0  0  0  0  0  0  0  0
    4.2440   -1.7721   -1.7950 C   0  0  1  0  0  0  0  0  0  0  0  0
    5.1519   -0.7032   -1.8794 O   0  0  0  0  0  0  0  0  0  0  0  0
    4.8181   -3.1554   -1.3924 C   0  0  1  0  0  0  0  0  0  0  0  0
    5.8876   -3.2553   -0.4829 O   0  0  0  0  0  0  0  0  0  0  0  0
    5.5434   -4.1902    0.5262 C   0  0  1  0  0  0  0  0  0  0  0  0
    6.5287   -3.8535    1.6718 C   0  0  0  0  0  0  0  0  0  0  0  0
    5.8401   -5.4888    0.0794 O   0  0  0  0  0  0  0  0  0  0  0  0
    5.0268   -3.3811    6.7886 C   0  0  2  0  0  0  0  0  0  0  0  0
    5.7561   -4.2015    7.7426 O   0  0  0  0  0  0  0  0  0  0  0  0
    5.9277   -4.4983    6.3259 C   0  0  1  0  0  0  0  0  0  0  0  0
    1.8287   -5.6776    4.1311 C   0  0  1  0  0  0  0  0  0  0  0  0
    1.0178   -5.0424    3.1727 O   0  0  0  0  0  0  0  0  0  0  0  0
    1.6294   -7.1996    3.9136 C   0  0  2  0  0  0  0  0  0  0  0  0
    0.1033   -9.0637    6.4800 H   0  0  0  0  0  0  0  0  0  0  0  0
   -0.5054   -8.7513    4.8645 H   0  0  0  0  0  0  0  0  0  0  0  0
   -0.2616   -7.4089    5.9850 H   0  0  0  0  0  0  0  0  0  0  0  0
    3.5222   -7.5995    6.0359 H   0  0  0  0  0  0  0  0  0  0  0  0
    2.4752   -8.4996    7.1166 H   0  0  0  0  0  0  0  0  0  0  0  0
    2.1299   -6.8141    6.7795 H   0  0  0  0  0  0  0  0  0  0  0  0
    3.0914   -9.7798    5.0192 H   0  0  0  0  0  0  0  0  0  0  0  0
    1.4658  -10.3626    4.7278 H   0  0  0  0  0  0  0  0  0  0  0  0
    3.1819   -9.8912    2.6582 H   0  0  0  0  0  0  0  0  0  0  0  0
    1.4650   -9.5479    2.5039 H   0  0  0  0  0  0  0  0  0  0  0  0
    5.1279   -6.3843    4.4696 H   0  0  0  0  0  0  0  0  0  0  0  0
    4.9526   -5.9057    2.8356 H   0  0  0  0  0  0  0  0  0  0  0  0
    3.0996   -1.9850    5.0427 H   0  0  0  0  0  0  0  0  0  0  0  0
    1.7286    0.1009    3.8560 H   0  0  0  0  0  0  0  0  0  0  0  0
    2.7204   -0.0247    2.4021 H   0  0  0  0  0  0  0  0  0  0  0  0
    0.9161   -0.3905    1.1760 H   0  0  0  0  0  0  0  0  0  0  0  0
    4.2792   -2.3251    2.0836 H   0  0  0  0  0  0  0  0  0  0  0  0
    2.0661   -5.1176    0.9482 H   0  0  0  0  0  0  0  0  0  0  0  0
    2.9607   -5.5006   -0.4614 H   0  0  0  0  0  0  0  0  0  0  0  0
    2.9572   -1.0966    0.0943 H   0  0  0  0  0  0  0  0  0  0  0  0
    3.6786   -1.8262   -2.7155 H   0  0  0  0  0  0  0  0  0  0  0  0
    4.8737   -0.0408   -1.2626 H   0  0  0  0  0  0  0  0  0  0  0  0
    4.8206   -3.9255   -2.1625 H   0  0  0  0  0  0  0  0  0  0  0  0
    7.5513   -3.9544    1.2939 H   0  0  0  0  0  0  0  0  0  0  0  0
    6.4333   -4.5191    2.5218 H   0  0  0  0  0  0  0  0  0  0  0  0
    6.4121   -2.8245    1.9992 H   0  0  0  0  0  0  0  0  0  0  0  0
    5.2191   -5.6982   -0.6019 H   0  0  0  0  0  0  0  0  0  0  0  0
    5.3928   -2.3433    6.6756 H   0  0  0  0  0  0  0  0  0  0  0  0
    6.9098   -4.2227    5.8918 H   0  0  0  0  0  0  0  0  0  0  0  0
    1.3706   -5.4073    5.0876 H   0  0  0  0  0  0  0  0  0  0  0  0
    1.0554   -4.1075    3.3611 H   0  0  0  0  0  0  0  0  0  0  0  0
    0.6522   -7.3296    3.4376 H   0  0  0  0  0  0  0  0  0  0  0  0
  1  2  1  0
  1 40  1  0
  1 41  1  0
  1 42  1  0
  2 39  1  0
  2  3  1  0
  2  4  1  0
  3 43  1  0
  3 44  1  0
  3 45  1  0
  4  5  1  0
  4 46  1  0
  4 47  1  0
  6  5  1  6
  5 48  1  0
  5 49  1  0
  6 24  1  0
  6 39  1  0
  6  7  1  0
  7  8  1  0
  8  9  1  0
  8 50  1  0
  8 51  1  0
  9 13  1  0
  9 10  1  1
  9 37  1  0
 11 10  1  1
 11 36  1  0
 11 12  1  0
 11 34  1  0
 13 12  1  1
 13 20  1  0
 13 14  1  0
 14 16  1  0
 14 15  1  0
 14 52  1  1
 15 16  1  0
 16 17  1  6
 16 19  1  0
 17 18  1  0
 17 53  1  0
 17 54  1  0
 18 55  1  0
 19 20  1  0
 20 21  1  0
 20 56  1  1
 21 31  1  0
 21 22  1  0
 21 25  1  6
 22 23  1  0
 22 57  1  0
 22 58  1  0
 23 24  1  0
 25 29  1  0
 25 26  2  0
 26 27  1  0
 26 59  1  0
 27 28  1  0
 27 29  1  0
 27 60  1  6
 28 61  1  0
 29 30  1  0
 29 62  1  6
 30 31  1  0
 31 32  1  0
 31 33  1  6
 32 63  1  0
 32 64  1  0
 32 65  1  0
 33 66  1  0
 34 36  1  0
 34 35  1  0
 34 67  1  6
 35 36  1  0
 36 68  1  6
 37 38  1  0
 37 39  1  0
 37 69  1  1
 38 70  1  0
 39 71  1  6
M  END
>  <i_m_ct_stereo_status>  (40) 
1

>  <s_m_source_file>  (40) 
/var/tmp/pbs.5076253.sched01/tmp9xbr3gte/40_qt8sgg8.sdf

>  <i_m_source_file_index>  (40) 
2

>  <i_lp_mmshare_version>  (40) 
48012

>  <i_f3d_flags>  (40) 
0

>  <s_epik_input>  (40) 
W0NIMl0xW0NIMl1DKFtDSDNdKShbQ0gzXSlbQ0BIXShbQ0BdMTIzKVtDQEhdKFtPSF0pW0NAQF00KFtDSDJdTzIpW0NAXTUoT1tDQF02KE80KVtDQEhdN1tDQEBIXTZPNylbQ0BIXThbQ0BAXShPOCkoW0NIMl1bT0hdKU9bQ0hdNVtDQEBdOShbQ0gyXU9PMylDPTFbQ0BASF0oW0NAQEhdKFtDSF0xKVtPSF0pT1tDQF05KFtDSDNdKVtPSF0=

>  <s_epik_cmdline>  (40) 
J2VwaWtfcHl0aG9uJywgJy1waHQnLCAnMi4wJywgJy1waCcsICc3LjAnLCAnLXRuJywgJzgnLCAnLW1hJywgJzIwMCcsICctaW1hZScsICc8aW5maWxlLm1hZT4nLCAnLW9tYWUnLCAnPG91dGZpbGUubWFlPic=

>  <r_lp_tautomer_probability>  (40) 
1

>  <r_epik_Ionization_Penalty>  (40) 
4.21108e-05

>  <r_epik_Ionization_Penalty_Charging>  (40) 
0

>  <r_epik_Ionization_Penalty_Neutral>  (40) 
4.21108e-05

>  <r_epik_State_Penalty>  (40) 
-0

>  <r_epik_Charging_Adjusted_Penalty>  (40) 
0

>  <i_epik_Tot_Q>  (40) 
0

>  <i_epik_Tot_abs_Q>  (40) 
0

>  <s_lp_Force_Field>  (40) 
OPLS3e

>  <r_lp_Energy>  (40) 
98.1924

>  <b_lp_Chiralities_Consistent>  (40) 
1

>  <s_lp_Variant>  (40) 
26:0-2

>  <s_i_glide_gridfile>  (40) 
pfpi4k_grid

>  <i_i_glide_lignum>  (40) 
2

>  <i_i_glide_rotatable_bonds>  (40) 
5

>  <r_i_docking_score>  (40) 
-2.67707

>  <r_i_glide_ligand_efficiency>  (40) 
-0.0686429

>  <r_i_glide_ligand_efficiency_sa>  (40) 
-0.232783

>  <r_i_glide_ligand_efficiency_ln>  (40) 
-0.574041

>  <r_i_glide_gscore>  (40) 
-2.67707

>  <r_i_glide_lipo>  (40) 
-0.112024

>  <r_i_glide_hbond>  (40) 
0

>  <r_i_glide_metal>  (40) 
-0

>  <r_i_glide_rewards>  (40) 
-0.593185

>  <r_i_glide_evdw>  (40) 
-21.3578

>  <r_i_glide_ecoul>  (40) 
-6.42029

>  <r_i_glide_erotb>  (40) 
0.0679544

>  <r_i_glide_esite>  (40) 
-0.00888711

>  <r_i_glide_emodel>  (40) 
-34.4048

>  <r_i_glide_energy>  (40) 
-27.7781

>  <r_i_glide_einternal>  (40) 
4.88521

>  <r_i_glide_intrahb_reward>  (40) 
-0.5

>  <i_i_glide_confnum>  (40) 
3

>  <i_i_glide_posenum>  (40) 
8

>  <r_i_glide_eff_state_penalty>  (40) 
0

>  <ligand_id>  (40) 
26

>  <original_smiles>  (40) 
CC1(C)CCC23OCC4(OC5(OC46C4OC4(CO)OC6C4(COO2)C2=CC(O)C2OC4(C)O)C2OC25)C(O)C13

>  <smiles>  (40) 
[H]OC([H])([H])C12OC1([H])C13OC4(OC15C([H])([H])OC1(OOC([H])([H])C6(C7=C([H])C([H])(O[H])C7([H])OC6(O[H])C([H])([H])[H])C3([H])O2)C([H])([H])C([H])([H])C(C([H])([H])[H])(C([H])([H])[H])C1([H])C5([H])O[H])C1([H])OC14[H]

$$$$
26:1:1
     RDKit          3D

 71 80  0  0  1  0  0  0  0  0999 V2000
    1.9769   -5.0032    7.8466 C   0  0  0  0  0  0  0  0  0  0  0  0
    3.3152   -4.6462    7.1643 C   0  0  0  0  0  0  0  0  0  0  0  0
    3.9454   -3.4499    7.9153 C   0  0  0  0  0  0  0  0  0  0  0  0
    4.2878   -5.8584    7.2245 C   0  0  0  0  0  0  0  0  0  0  0  0
    4.5196   -6.3126    5.7767 C   0  0  0  0  0  0  0  0  0  0  0  0
    4.3017   -5.0550    4.9304 C   0  0  1  0  0  0  0  0  0  0  0  0
    5.4458   -4.2425    5.1475 O   0  0  0  0  0  0  0  0  0  0  0  0
    5.4034   -2.8929    4.6984 C   0  0  0  0  0  0  0  0  0  0  0  0
    4.0269   -2.1273    4.6897 C   0  0  1  0  0  0  0  0  0  0  0  0
    4.1294   -1.2340    5.8112 O   0  0  0  0  0  0  0  0  0  0  0  0
    4.9360   -0.1790    5.3264 C   0  0  1  0  0  0  0  0  0  0  0  0
    4.9342   -0.1397    3.9401 O   0  0  0  0  0  0  0  0  0  0  0  0
    3.8872   -1.0342    3.5353 C   0  0  2  0  0  0  0  0  0  0  0  0
    2.6606   -0.1298    3.6323 C   0  0  2  0  0  0  0  0  0  0  0  0
    1.3280   -0.6742    3.6693 O   0  0  0  0  0  0  0  0  0  0  0  0
    1.8431   -0.2944    2.3986 C   0  0  1  0  0  0  0  0  0  0  0  0
    1.1449    0.7710    1.5643 C   0  0  0  0  0  0  0  0  0  0  0  0
    1.5346    2.0848    1.9240 O   0  0  0  0  0  0  0  0  0  0  0  0
    2.4181   -1.3788    1.7196 O   0  0  0  0  0  0  0  0  0  0  0  0
    3.8250   -1.3725    1.9729 C   0  0  2  0  0  0  0  0  0  0  0  0
    4.5083   -2.5738    1.1696 C   0  0  1  0  0  0  0  0  0  0  0  0
    4.0799   -4.0026    1.6704 C   0  0  0  0  0  0  0  0  0  0  0  0
    4.9027   -4.6018    2.6558 O   0  0  0  0  0  0  0  0  0  0  0  0
    4.0618   -5.4400    3.5694 O   0  0  0  0  0  0  0  0  0  0  0  0
    4.0747   -2.5230   -0.2746 C   0  0  0  0  0  0  0  0  0  0  0  0
    3.4141   -1.5720   -0.9404 C   0  0  0  0  0  0  0  0  0  0  0  0
    4.1675   -1.8670   -2.1910 C   0  0  1  0  0  0  0  0  0  0  0  0
    4.5655   -0.7118   -2.8981 O   0  0  0  0  0  0  0  0  0  0  0  0
    5.1716   -2.6228   -1.2826 C   0  0  1  0  0  0  0  0  0  0  0  0
    6.1628   -1.9586   -0.5375 O   0  0  0  0  0  0  0  0  0  0  0  0
    6.0629   -2.3483    0.8221 C   0  0  1  0  0  0  0  0  0  0  0  0
    6.7756   -1.2055    1.5586 C   0  0  0  0  0  0  0  0  0  0  0  0
    6.7928   -3.5348    1.0194 O   0  0  0  0  0  0  0  0  0  0  0  0
    4.9464    1.1504    6.0159 C   0  0  2  0  0  0  0  0  0  0  0  0
    5.8445    1.1564    7.1323 O   0  0  0  0  0  0  0  0  0  0  0  0
    6.1777    0.2871    6.0403 C   0  0  1  0  0  0  0  0  0  0  0  0
    2.7921   -2.9969    5.0864 C   0  0  1  0  0  0  0  0  0  0  0  0
    1.8866   -3.1703    4.0202 O   0  0  0  0  0  0  0  0  0  0  0  0
    3.1008   -4.4156    5.6261 C   0  0  2  0  0  0  0  0  0  0  0  0
    2.1125   -5.2005    8.9115 H   0  0  0  0  0  0  0  0  0  0  0  0
    1.5289   -5.8970    7.4068 H   0  0  0  0  0  0  0  0  0  0  0  0
    1.2586   -4.1880    7.7481 H   0  0  0  0  0  0  0  0  0  0  0  0
    4.9022   -3.1533    7.4835 H   0  0  0  0  0  0  0  0  0  0  0  0
    4.1343   -3.7016    8.9606 H   0  0  0  0  0  0  0  0  0  0  0  0
    3.2899   -2.5786    7.9116 H   0  0  0  0  0  0  0  0  0  0  0  0
    5.2504   -5.5635    7.6516 H   0  0  0  0  0  0  0  0  0  0  0  0
    3.9150   -6.6828    7.8370 H   0  0  0  0  0  0  0  0  0  0  0  0
    5.5068   -6.7501    5.6246 H   0  0  0  0  0  0  0  0  0  0  0  0
    3.7815   -7.0703    5.5090 H   0  0  0  0  0  0  0  0  0  0  0  0
    6.1117   -2.4109    5.3729 H   0  0  0  0  0  0  0  0  0  0  0  0
    5.8483   -2.8335    3.7192 H   0  0  0  0  0  0  0  0  0  0  0  0
    2.7687    0.8662    4.0534 H   0  0  0  0  0  0  0  0  0  0  0  0
    1.4598    0.6070    0.5327 H   0  0  0  0  0  0  0  0  0  0  0  0
    0.0644    0.6383    1.5970 H   0  0  0  0  0  0  0  0  0  0  0  0
    1.0254    2.7146    1.4188 H   0  0  0  0  0  0  0  0  0  0  0  0
    4.1675   -0.4656    1.4671 H   0  0  0  0  0  0  0  0  0  0  0  0
    3.0380   -3.9851    1.9944 H   0  0  0  0  0  0  0  0  0  0  0  0
    4.0857   -4.7178    0.8459 H   0  0  0  0  0  0  0  0  0  0  0  0
    2.7488   -0.7572   -0.6680 H   0  0  0  0  0  0  0  0  0  0  0  0
    3.6861   -2.5523   -2.8763 H   0  0  0  0  0  0  0  0  0  0  0  0
    4.5331   -0.0089   -2.2730 H   0  0  0  0  0  0  0  0  0  0  0  0
    5.4700   -3.6317   -1.5827 H   0  0  0  0  0  0  0  0  0  0  0  0
    7.8078   -1.1475    1.2038 H   0  0  0  0  0  0  0  0  0  0  0  0
    6.7658   -1.3408    2.6317 H   0  0  0  0  0  0  0  0  0  0  0  0
    6.2991   -0.2586    1.3320 H   0  0  0  0  0  0  0  0  0  0  0  0
    6.2923   -4.2367    0.6228 H   0  0  0  0  0  0  0  0  0  0  0  0
    4.9577    2.0422    5.3718 H   0  0  0  0  0  0  0  0  0  0  0  0
    7.0268    0.5896    5.4052 H   0  0  0  0  0  0  0  0  0  0  0  0
    2.2135   -2.4584    5.8434 H   0  0  0  0  0  0  0  0  0  0  0  0
    1.6375   -2.3002    3.7192 H   0  0  0  0  0  0  0  0  0  0  0  0
    2.2464   -5.0481    5.3696 H   0  0  0  0  0  0  0  0  0  0  0  0
  1  2  1  0
  1 40  1  0
  1 41  1  0
  1 42  1  0
  2 39  1  0
  2  3  1  0
  2  4  1  0
  3 43  1  0
  3 44  1  0
  3 45  1  0
  4  5  1  0
  4 46  1  0
  4 47  1  0
  6  5  1  1
  5 48  1  0
  5 49  1  0
  6 24  1  0
  6 39  1  0
  6  7  1  0
  7  8  1  0
  8  9  1  0
  8 50  1  0
  8 51  1  0
  9 13  1  0
  9 10  1  1
  9 37  1  0
 11 10  1  1
 11 36  1  0
 11 12  1  0
 11 34  1  0
 13 12  1  6
 13 20  1  0
 13 14  1  0
 14 16  1  0
 14 15  1  0
 14 52  1  1
 15 16  1  0
 16 17  1  6
 16 19  1  0
 17 18  1  0
 17 53  1  0
 17 54  1  0
 18 55  1  0
 19 20  1  0
 20 21  1  0
 20 56  1  6
 21 31  1  0
 21 22  1  0
 21 25  1  6
 22 23  1  0
 22 57  1  0
 22 58  1  0
 23 24  1  0
 25 29  1  0
 25 26  2  0
 26 27  1  0
 26 59  1  0
 27 28  1  0
 27 29  1  0
 27 60  1  6
 28 61  1  0
 29 30  1  0
 29 62  1  6
 30 31  1  0
 31 32  1  0
 31 33  1  6
 32 63  1  0
 32 64  1  0
 32 65  1  0
 33 66  1  0
 34 36  1  0
 34 35  1  0
 34 67  1  6
 35 36  1  0
 36 68  1  6
 37 38  1  0
 37 39  1  0
 37 69  1  1
 38 70  1  0
 39 71  1  6
M  END
>  <i_m_ct_stereo_status>  (41) 
1

>  <s_m_source_file>  (41) 
/var/tmp/pbs.5076253.sched01/tmp9xbr3gte/40_qt8sgg8.sdf

>  <i_m_source_file_index>  (41) 
2

>  <i_lp_mmshare_version>  (41) 
48012

>  <i_f3d_flags>  (41) 
0

>  <s_epik_input>  (41) 
W0NIMl0xW0NIMl1DKFtDSDNdKShbQ0gzXSlbQ0BIXShbQ0BdMTIzKVtDQEhdKFtPSF0pW0NAQF00KFtDSDJdTzIpW0NAXTUoT1tDQF02KE80KVtDQEhdN1tDQEBIXTZPNylbQ0BIXThbQ0BAXShPOCkoW0NIMl1bT0hdKU9bQ0hdNVtDQEBdOShbQ0gyXU9PMylDPTFbQ0BASF0oW0NAQEhdKFtDSF0xKVtPSF0pT1tDQF05KFtDSDNdKVtPSF0=

>  <s_epik_cmdline>  (41) 
J2VwaWtfcHl0aG9uJywgJy1waHQnLCAnMi4wJywgJy1waCcsICc3LjAnLCAnLXRuJywgJzgnLCAnLW1hJywgJzIwMCcsICctaW1hZScsICc8aW5maWxlLm1hZT4nLCAnLW9tYWUnLCAnPG91dGZpbGUubWFlPic=

>  <r_lp_tautomer_probability>  (41) 
1

>  <r_epik_Ionization_Penalty>  (41) 
4.21108e-05

>  <r_epik_Ionization_Penalty_Charging>  (41) 
0

>  <r_epik_Ionization_Penalty_Neutral>  (41) 
4.21108e-05

>  <r_epik_State_Penalty>  (41) 
-0

>  <r_epik_Charging_Adjusted_Penalty>  (41) 
0

>  <i_epik_Tot_Q>  (41) 
0

>  <i_epik_Tot_abs_Q>  (41) 
0

>  <s_lp_Force_Field>  (41) 
OPLS3e

>  <r_lp_Energy>  (41) 
98.1924

>  <b_lp_Chiralities_Consistent>  (41) 
1

>  <s_lp_Variant>  (41) 
26:0-2

>  <s_i_glide_gridfile>  (41) 
pfpi4k_grid

>  <i_i_glide_lignum>  (41) 
2

>  <i_i_glide_rotatable_bonds>  (41) 
5

>  <r_i_docking_score>  (41) 
-2.54973

>  <r_i_glide_ligand_efficiency>  (41) 
-0.0653776

>  <r_i_glide_ligand_efficiency_sa>  (41) 
-0.221709

>  <r_i_glide_ligand_efficiency_ln>  (41) 
-0.546734

>  <r_i_glide_gscore>  (41) 
-2.54973

>  <r_i_glide_lipo>  (41) 
-0.184841

>  <r_i_glide_hbond>  (41) 
-0.0182095

>  <r_i_glide_metal>  (41) 
-0

>  <r_i_glide_rewards>  (41) 
-0.66246

>  <r_i_glide_evdw>  (41) 
-17.9599

>  <r_i_glide_ecoul>  (41) 
-5.49462

>  <r_i_glide_erotb>  (41) 
0.0679544

>  <r_i_glide_esite>  (41) 
-0.0299841

>  <r_i_glide_emodel>  (41) 
-30.0134

>  <r_i_glide_energy>  (41) 
-23.4545

>  <r_i_glide_einternal>  (41) 
3.43699

>  <r_i_glide_intrahb_reward>  (41) 
-0.5

>  <i_i_glide_confnum>  (41) 
1

>  <i_i_glide_posenum>  (41) 
40

>  <r_i_glide_eff_state_penalty>  (41) 
0

>  <ligand_id>  (41) 
26

>  <original_smiles>  (41) 
CC1(C)CCC23OCC4(OC5(OC46C4OC4(CO)OC6C4(COO2)C2=CC(O)C2OC4(C)O)C2OC25)C(O)C13

>  <smiles>  (41) 
[H]OC([H])([H])C12OC1([H])C13OC4(OC15C([H])([H])OC1(OOC([H])([H])C6(C7=C([H])C([H])(O[H])C7([H])OC6(O[H])C([H])([H])[H])C3([H])O2)C([H])([H])C([H])([H])C(C([H])([H])[H])(C([H])([H])[H])C1([H])C5([H])O[H])C1([H])OC14[H]

$$$$
26:1:2
     RDKit          3D

 71 80  0  0  1  0  0  0  0  0999 V2000
    0.0933   -9.0397    5.5708 C   0  0  0  0  0  0  0  0  0  0  0  0
    1.5670   -8.7666    5.1997 C   0  0  0  0  0  0  0  0  0  0  0  0
    2.3016   -8.2439    6.4550 C   0  0  0  0  0  0  0  0  0  0  0  0
    2.2508  -10.0750    4.7096 C   0  0  0  0  0  0  0  0  0  0  0  0
    2.6083   -9.8634    3.2309 C   0  0  0  0  0  0  0  0  0  0  0  0
    2.7851   -8.3512    3.0877 C   0  0  1  0  0  0  0  0  0  0  0  0
    4.0239   -8.0401    3.7072 O   0  0  0  0  0  0  0  0  0  0  0  0
    4.3287   -6.6692    3.9537 C   0  0  0  0  0  0  0  0  0  0  0  0
    3.1454   -5.6598    4.2560 C   0  0  1  0  0  0  0  0  0  0  0  0
    3.2456   -5.4478    5.6656 O   0  0  0  0  0  0  0  0  0  0  0  0
    4.3082   -4.5285    5.7823 C   0  0  1  0  0  0  0  0  0  0  0  0
    4.5412   -3.8487    4.5992 O   0  0  0  0  0  0  0  0  0  0  0  0
    3.4192   -4.1624    3.7735 C   0  0  2  0  0  0  0  0  0  0  0  0
    2.4048   -3.1241    4.2395 C   0  0  2  0  0  0  0  0  0  0  0  0
    0.9895   -3.2383    3.9694 O   0  0  0  0  0  0  0  0  0  0  0  0
    1.7574   -2.5082    3.0291 C   0  0  1  0  0  0  0  0  0  0  0  0
    1.4532   -1.0446    2.7537 C   0  0  0  0  0  0  0  0  0  0  0  0
    2.5915   -0.2457    3.0112 O   0  0  0  0  0  0  0  0  0  0  0  0
    2.2043   -3.2831    1.9521 O   0  0  0  0  0  0  0  0  0  0  0  0
    3.5237   -3.7262    2.2386 C   0  0  2  0  0  0  0  0  0  0  0  0
    4.0426   -4.5590    0.9943 C   0  0  1  0  0  0  0  0  0  0  0  0
    3.2784   -5.8994    0.7291 C   0  0  0  0  0  0  0  0  0  0  0  0
    3.8001   -7.0576    1.3449 O   0  0  0  0  0  0  0  0  0  0  0  0
    2.6741   -7.9820    1.7074 O   0  0  0  0  0  0  0  0  0  0  0  0
    3.8418   -3.7295   -0.2704 C   0  0  0  0  0  0  0  0  0  0  0  0
    3.4873   -2.4646   -0.4485 C   0  0  0  0  0  0  0  0  0  0  0  0
    4.4148   -2.3402   -1.6381 C   0  0  1  0  0  0  0  0  0  0  0  0
    5.2449   -1.2010   -1.6565 O   0  0  0  0  0  0  0  0  0  0  0  0
    5.0395   -3.6699   -1.1461 C   0  0  1  0  0  0  0  0  0  0  0  0
    6.0250   -3.6850   -0.1414 O   0  0  0  0  0  0  0  0  0  0  0  0
    5.6476   -4.6098    0.8593 C   0  0  1  0  0  0  0  0  0  0  0  0
    6.4867   -4.1772    2.0737 C   0  0  0  0  0  0  0  0  0  0  0  0
    6.0882   -5.8922    0.4893 O   0  0  0  0  0  0  0  0  0  0  0  0
    4.4829   -3.7114    7.0354 C   0  0  2  0  0  0  0  0  0  0  0  0
    5.2040   -4.4161    8.0750 O   0  0  0  0  0  0  0  0  0  0  0  0
    5.4940   -4.7641    6.6956 C   0  0  1  0  0  0  0  0  0  0  0  0
    1.7086   -6.2796    4.1439 C   0  0  1  0  0  0  0  0  0  0  0  0
    0.9560   -5.7611    3.0744 O   0  0  0  0  0  0  0  0  0  0  0  0
    1.6476   -7.8188    3.9552 C   0  0  2  0  0  0  0  0  0  0  0  0
    0.0164   -9.7312    6.4133 H   0  0  0  0  0  0  0  0  0  0  0  0
   -0.4527   -9.4815    4.7375 H   0  0  0  0  0  0  0  0  0  0  0  0
   -0.4163   -8.1150    5.8454 H   0  0  0  0  0  0  0  0  0  0  0  0
    3.3537   -8.0335    6.2549 H   0  0  0  0  0  0  0  0  0  0  0  0
    2.2708   -8.9828    7.2570 H   0  0  0  0  0  0  0  0  0  0  0  0
    1.8437   -7.3332    6.8405 H   0  0  0  0  0  0  0  0  0  0  0  0
    3.1722  -10.2618    5.2677 H   0  0  0  0  0  0  0  0  0  0  0  0
    1.6257  -10.9640    4.8423 H   0  0  0  0  0  0  0  0  0  0  0  0
    3.4960  -10.4187    2.9257 H   0  0  0  0  0  0  0  0  0  0  0  0
    1.7819  -10.2019    2.6012 H   0  0  0  0  0  0  0  0  0  0  0  0
    5.0097   -6.7368    4.8065 H   0  0  0  0  0  0  0  0  0  0  0  0
    4.9601   -6.3098    3.1508 H   0  0  0  0  0  0  0  0  0  0  0  0
    2.6554   -2.4852    5.0813 H   0  0  0  0  0  0  0  0  0  0  0  0
    1.1725   -0.9471    1.6999 H   0  0  0  0  0  0  0  0  0  0  0  0
    0.6157   -0.7084    3.3649 H   0  0  0  0  0  0  0  0  0  0  0  0
    2.4222    0.6228    2.6799 H   0  0  0  0  0  0  0  0  0  0  0  0
    4.1142   -2.8046    2.2386 H   0  0  0  0  0  0  0  0  0  0  0  0
    2.2241   -5.7694    0.9619 H   0  0  0  0  0  0  0  0  0  0  0  0
    3.3015   -6.1383   -0.3285 H   0  0  0  0  0  0  0  0  0  0  0  0
    2.8984   -1.7143    0.0928 H   0  0  0  0  0  0  0  0  0  0  0  0
    3.9597   -2.4578   -2.6129 H   0  0  0  0  0  0  0  0  0  0  0  0
    4.9115   -0.6056   -1.0070 H   0  0  0  0  0  0  0  0  0  0  0  0
    5.1556   -4.4579   -1.8923 H   0  0  0  0  0  0  0  0  0  0  0  0
    7.5450   -4.2184    1.7940 H   0  0  0  0  0  0  0  0  0  0  0  0
    6.3591   -4.8252    2.9332 H   0  0  0  0  0  0  0  0  0  0  0  0
    6.2597   -3.1529    2.3606 H   0  0  0  0  0  0  0  0  0  0  0  0
    5.5434   -6.1783   -0.2268 H   0  0  0  0  0  0  0  0  0  0  0  0
    4.7847   -2.6508    6.8935 H   0  0  0  0  0  0  0  0  0  0  0  0
    6.4829   -4.4151    6.3162 H   0  0  0  0  0  0  0  0  0  0  0  0
    1.1446   -6.0190    5.0424 H   0  0  0  0  0  0  0  0  0  0  0  0
    1.4302   -5.9640    2.2891 H   0  0  0  0  0  0  0  0  0  0  0  0
    0.7314   -8.0396    3.3962 H   0  0  0  0  0  0  0  0  0  0  0  0
  1  2  1  0
  1 40  1  0
  1 41  1  0
  1 42  1  0
  2 39  1  0
  2  3  1  0
  2  4  1  0
  3 43  1  0
  3 44  1  0
  3 45  1  0
  4  5  1  0
  4 46  1  0
  4 47  1  0
  6  5  1  6
  5 48  1  0
  5 49  1  0
  6 24  1  0
  6 39  1  0
  6  7  1  0
  7  8  1  0
  8  9  1  0
  8 50  1  0
  8 51  1  0
  9 13  1  0
  9 10  1  1
  9 37  1  0
 11 10  1  6
 11 36  1  0
 11 12  1  0
 11 34  1  0
 13 12  1  1
 13 20  1  0
 13 14  1  0
 14 16  1  0
 14 15  1  0
 14 52  1  1
 15 16  1  0
 16 17  1  6
 16 19  1  0
 17 18  1  0
 17 53  1  0
 17 54  1  0
 18 55  1  0
 19 20  1  0
 20 21  1  0
 20 56  1  1
 21 31  1  0
 21 22  1  0
 21 25  1  6
 22 23  1  0
 22 57  1  0
 22 58  1  0
 23 24  1  0
 25 29  1  0
 25 26  2  0
 26 27  1  0
 26 59  1  0
 27 28  1  0
 27 29  1  0
 27 60  1  6
 28 61  1  0
 29 30  1  0
 29 62  1  6
 30 31  1  0
 31 32  1  0
 31 33  1  6
 32 63  1  0
 32 64  1  0
 32 65  1  0
 33 66  1  0
 34 36  1  0
 34 35  1  0
 34 67  1  6
 35 36  1  0
 36 68  1  6
 37 38  1  0
 37 39  1  0
 37 69  1  1
 38 70  1  0
 39 71  1  6
M  END
>  <i_m_ct_stereo_status>  (42) 
1

>  <s_m_source_file>  (42) 
/var/tmp/pbs.5076253.sched01/tmp9xbr3gte/40_qt8sgg8.sdf

>  <i_m_source_file_index>  (42) 
2

>  <i_lp_mmshare_version>  (42) 
48012

>  <i_f3d_flags>  (42) 
0

>  <s_epik_input>  (42) 
W0NIMl0xW0NIMl1DKFtDSDNdKShbQ0gzXSlbQ0BIXShbQ0BdMTIzKVtDQEhdKFtPSF0pW0NAQF00KFtDSDJdTzIpW0NAXTUoT1tDQF02KE80KVtDQEhdN1tDQEBIXTZPNylbQ0BIXThbQ0BAXShPOCkoW0NIMl1bT0hdKU9bQ0hdNVtDQEBdOShbQ0gyXU9PMylDPTFbQ0BASF0oW0NAQEhdKFtDSF0xKVtPSF0pT1tDQF05KFtDSDNdKVtPSF0=

>  <s_epik_cmdline>  (42) 
J2VwaWtfcHl0aG9uJywgJy1waHQnLCAnMi4wJywgJy1waCcsICc3LjAnLCAnLXRuJywgJzgnLCAnLW1hJywgJzIwMCcsICctaW1hZScsICc8aW5maWxlLm1hZT4nLCAnLW9tYWUnLCAnPG91dGZpbGUubWFlPic=

>  <r_lp_tautomer_probability>  (42) 
1

>  <r_epik_Ionization_Penalty>  (42) 
4.21108e-05

>  <r_epik_Ionization_Penalty_Charging>  (42) 
0

>  <r_epik_Ionization_Penalty_Neutral>  (42) 
4.21108e-05

>  <r_epik_State_Penalty>  (42) 
-0

>  <r_epik_Charging_Adjusted_Penalty>  (42) 
0

>  <i_epik_Tot_Q>  (42) 
0

>  <i_epik_Tot_abs_Q>  (42) 
0

>  <s_lp_Force_Field>  (42) 
OPLS3e

>  <r_lp_Energy>  (42) 
98.1924

>  <b_lp_Chiralities_Consistent>  (42) 
1

>  <s_lp_Variant>  (42) 
26:0-2

>  <s_i_glide_gridfile>  (42) 
pfpi4k_grid

>  <i_i_glide_lignum>  (42) 
2

>  <i_i_glide_rotatable_bonds>  (42) 
5

>  <r_i_docking_score>  (42) 
-1.87453

>  <r_i_glide_ligand_efficiency>  (42) 
-0.0480648

>  <r_i_glide_ligand_efficiency_sa>  (42) 
-0.162998

>  <r_i_glide_ligand_efficiency_ln>  (42) 
-0.401952

>  <r_i_glide_gscore>  (42) 
-1.87453

>  <r_i_glide_lipo>  (42) 
-0.0903206

>  <r_i_glide_hbond>  (42) 
0

>  <r_i_glide_metal>  (42) 
-0

>  <r_i_glide_rewards>  (42) 
-0.10992

>  <r_i_glide_evdw>  (42) 
-23.0129

>  <r_i_glide_ecoul>  (42) 
-3.91336

>  <r_i_glide_erotb>  (42) 
0.0679544

>  <r_i_glide_esite>  (42) 
-0.0045926

>  <r_i_glide_emodel>  (42) 
-29.1558

>  <r_i_glide_energy>  (42) 
-26.9263

>  <r_i_glide_einternal>  (42) 
1.3294

>  <r_i_glide_intrahb_reward>  (42) 
-0

>  <i_i_glide_confnum>  (42) 
4

>  <i_i_glide_posenum>  (42) 
33

>  <r_i_glide_eff_state_penalty>  (42) 
0

>  <ligand_id>  (42) 
26

>  <original_smiles>  (42) 
CC1(C)CCC23OCC4(OC5(OC46C4OC4(CO)OC6C4(COO2)C2=CC(O)C2OC4(C)O)C2OC25)C(O)C13

>  <smiles>  (42) 
[H]OC([H])([H])C12OC1([H])C13OC4(OC15C([H])([H])OC1(OOC([H])([H])C6(C7=C([H])C([H])(O[H])C7([H])OC6(O[H])C([H])([H])[H])C3([H])O2)C([H])([H])C([H])([H])C(C([H])([H])[H])(C([H])([H])[H])C1([H])C5([H])O[H])C1([H])OC14[H]

$$$$
27:0:0
     RDKit          3D

 64 71  0  0  1  0  0  0  0  0999 V2000
    3.2703    2.2667    4.7069 C   0  0  0  0  0  0  0  0  0  0  0  0
    2.3381    1.2026    4.6325 O   0  0  0  0  0  0  0  0  0  0  0  0
    2.7692   -0.0675    4.4575 C   0  0  0  0  0  0  0  0  0  0  0  0
    3.9588   -0.3909    4.3940 O   0  0  0  0  0  0  0  0  0  0  0  0
    1.6130   -1.1020    4.3656 C   0  0  1  0  0  0  0  0  0  0  0  0
    0.4327   -0.4660    3.8831 O   0  0  0  0  0  0  0  0  0  0  0  0
    1.8254   -2.3746    3.5227 C   0  0  0  0  0  0  0  0  0  0  0  0
    2.6315   -2.3270    2.2698 C   0  0  0  0  0  0  0  0  0  0  0  0
    2.6240   -1.0343    1.4447 C   0  0  0  0  0  0  0  0  0  0  0  0
    3.3156   -3.2626    1.8734 O   0  0  0  0  0  0  0  0  0  0  0  0
    1.2824   -3.4391    4.1494 C   0  0  0  0  0  0  0  0  0  0  0  0
    1.2578   -4.8888    3.9986 C   0  0  0  0  0  0  0  0  0  0  0  0
    1.6164   -5.6471    2.9756 C   0  0  0  0  0  0  0  0  0  0  0  0
    1.5294   -7.1686    2.9586 C   0  0  1  0  0  0  0  0  0  0  0  0
    1.6782   -7.5235    1.6014 O   0  0  0  0  0  0  0  0  0  0  0  0
    2.5698   -7.7837    3.8793 C   0  0  2  0  0  0  0  0  0  0  0  0
    3.0159   -9.2424    3.5400 C   0  0  0  0  0  0  0  0  0  0  0  0
    2.1113  -10.1623    2.6688 C   0  0  0  0  0  0  0  0  0  0  0  0
    0.6185  -10.2912    3.0582 C   0  0  0  0  0  0  0  0  0  0  0  0
   -0.2906   -9.0352    2.8939 C   0  0  0  0  0  0  0  0  0  0  0  0
    0.2418   -7.7715    3.6167 C   0  0  2  0  0  0  0  0  0  0  0  0
   -0.6852   -6.7029    3.7316 O   0  0  0  0  0  0  0  0  0  0  0  0
   -0.5301   -6.0844    5.1332 O   0  0  0  0  0  0  0  0  0  0  0  0
    0.7864   -5.5347    5.2946 C   0  0  2  0  0  0  0  0  0  0  0  0
    0.7482   -4.3364    6.2956 C   0  0  0  0  0  0  0  0  0  0  0  0
    0.6156   -3.0548    5.4273 C   0  0  1  0  0  0  0  0  0  0  0  0
    1.2937   -1.7010    5.7768 C   0  0  2  0  0  0  0  0  0  0  0  0
    0.5348   -0.7384    6.7327 C   0  0  0  0  0  0  0  0  0  0  0  0
    1.0505   -1.1059    8.0982 C   0  0  0  0  0  0  0  0  0  0  0  0
    2.4427   -1.5585    7.7902 C   0  0  2  0  0  0  0  0  0  0  0  0
    3.4998   -1.9903    8.7662 C   0  0  0  0  0  0  0  0  0  0  0  0
    3.5139   -0.6786    8.1645 O   0  0  0  0  0  0  0  0  0  0  0  0
    2.5134   -2.0425    6.4569 O   0  0  0  0  0  0  0  0  0  0  0  0
    1.7419   -6.4813    5.8039 O   0  0  0  0  0  0  0  0  0  0  0  0
    1.8221   -7.7655    5.2314 C   0  0  1  0  0  0  0  0  0  0  0  0
    0.5772   -8.2549    4.9144 O   0  0  0  0  0  0  0  0  0  0  0  0
    2.7516    3.2101    4.8894 H   0  0  0  0  0  0  0  0  0  0  0  0
    3.8181    2.3555    3.7676 H   0  0  0  0  0  0  0  0  0  0  0  0
    3.9810    2.1060    5.5193 H   0  0  0  0  0  0  0  0  0  0  0  0
   -0.2302   -1.1141    3.7521 H   0  0  0  0  0  0  0  0  0  0  0  0
    1.5957   -0.7058    1.2777 H   0  0  0  0  0  0  0  0  0  0  0  0
    3.1174   -1.1828    0.4822 H   0  0  0  0  0  0  0  0  0  0  0  0
    3.1569   -0.2228    1.9437 H   0  0  0  0  0  0  0  0  0  0  0  0
    1.9845   -5.2192    2.0584 H   0  0  0  0  0  0  0  0  0  0  0  0
    1.6394   -8.4644    1.5445 H   0  0  0  0  0  0  0  0  0  0  0  0
    3.4513   -7.1526    3.9659 H   0  0  0  0  0  0  0  0  0  0  0  0
    3.9553   -9.1583    2.9896 H   0  0  0  0  0  0  0  0  0  0  0  0
    3.2893   -9.7671    4.4562 H   0  0  0  0  0  0  0  0  0  0  0  0
    2.2082   -9.9328    1.6077 H   0  0  0  0  0  0  0  0  0  0  0  0
    2.5468  -11.1622    2.7347 H   0  0  0  0  0  0  0  0  0  0  0  0
    0.2077  -11.0829    2.4346 H   0  0  0  0  0  0  0  0  0  0  0  0
    0.5463  -10.6781    4.0775 H   0  0  0  0  0  0  0  0  0  0  0  0
   -0.4596   -8.8250    1.8356 H   0  0  0  0  0  0  0  0  0  0  0  0
   -1.2702   -9.3033    3.2970 H   0  0  0  0  0  0  0  0  0  0  0  0
   -0.0458   -4.4341    7.0384 H   0  0  0  0  0  0  0  0  0  0  0  0
    1.6958   -4.3243    6.8347 H   0  0  0  0  0  0  0  0  0  0  0  0
   -0.4357   -2.8841    5.1886 H   0  0  0  0  0  0  0  0  0  0  0  0
    0.8108    0.3079    6.5578 H   0  0  0  0  0  0  0  0  0  0  0  0
   -0.5476   -0.8053    6.6318 H   0  0  0  0  0  0  0  0  0  0  0  0
    1.0489   -0.2664    8.7981 H   0  0  0  0  0  0  0  0  0  0  0  0
    0.5016   -1.9616    8.5010 H   0  0  0  0  0  0  0  0  0  0  0  0
    3.2329   -2.0253    9.8189 H   0  0  0  0  0  0  0  0  0  0  0  0
    4.2568   -2.6882    8.4108 H   0  0  0  0  0  0  0  0  0  0  0  0
    2.3058   -8.4218    5.9624 H   0  0  0  0  0  0  0  0  0  0  0  0
  1  2  1  0
  1 37  1  0
  1 38  1  0
  1 39  1  0
  2  3  1  0
  3  4  2  0
  3  5  1  0
  5 27  1  0
  5  6  1  6
  5  7  1  0
  6 40  1  0
  7  8  1  0
  7 11  2  0
  8  9  1  0
  8 10  2  0
  9 41  1  0
  9 42  1  0
  9 43  1  0
 11 26  1  0
 11 12  1  0
 12 24  1  0
 12 13  2  0
 13 14  1  0
 13 44  1  0
 14 21  1  0
 14 15  1  6
 14 16  1  0
 15 45  1  0
 16 35  1  0
 16 17  1  0
 16 46  1  1
 17 18  1  0
 17 47  1  0
 17 48  1  0
 18 19  1  0
 18 49  1  0
 18 50  1  0
 19 20  1  0
 19 51  1  0
 19 52  1  0
 21 20  1  6
 20 53  1  0
 20 54  1  0
 21 36  1  0
 21 22  1  0
 22 23  1  0
 23 24  1  0
 24 25  1  1
 24 34  1  0
 25 26  1  0
 25 55  1  0
 25 56  1  0
 26 27  1  0
 26 57  1  6
 27 33  1  1
 27 28  1  0
 28 29  1  0
 28 58  1  0
 28 59  1  0
 29 30  1  0
 29 60  1  0
 29 61  1  0
 30 32  1  6
 30 31  1  0
 30 33  1  0
 31 32  1  0
 31 62  1  0
 31 63  1  0
 34 35  1  0
 35 36  1  0
 35 64  1  1
M  END
>  <i_m_ct_stereo_status>  (43) 
1

>  <s_m_source_file>  (43) 
/var/tmp/pbs.5076253.sched01/tmp9xbr3gte/40_qt8sgg8.sdf

>  <i_m_source_file_index>  (43) 
3

>  <i_lp_mmshare_version>  (43) 
48012

>  <i_f3d_flags>  (43) 
0

>  <s_epik_input>  (43) 
TzFbQ0gyXVtDQEBdMShPMilbQ0gyXVtDSDJdW0NAXTIoW0NAQF0oW09IXSkoQyg9TylPW0NIM10pQz0zQyg9TylbQ0gzXSlbQ0BIXShbQ0gyXTQpQzNDKD1bQ0hdNSlbQ0BAXTQoT082KU9bQ0BASF0oTzcpW0NASF0oW0NAXTUoW0NAXTY3OClbT0hdKVtDSDJdW0NIMl1bQ0gyXVtDSDJdOA==

>  <s_epik_cmdline>  (43) 
J2VwaWtfcHl0aG9uJywgJy1waHQnLCAnMi4wJywgJy1waCcsICc3LjAnLCAnLXRuJywgJzgnLCAnLW1hJywgJzIwMCcsICctaW1hZScsICc8aW5maWxlLm1hZT4nLCAnLW9tYWUnLCAnPG91dGZpbGUubWFlPic=

>  <r_epik_Ionization_Penalty>  (43) 
0.00176567

>  <r_epik_Ionization_Penalty_Charging>  (43) 
0

>  <r_epik_Ionization_Penalty_Neutral>  (43) 
0.00176567

>  <r_epik_State_Penalty>  (43) 
0.00114183

>  <r_epik_Charging_Adjusted_Penalty>  (43) 
0.00114183

>  <i_epik_Tot_Q>  (43) 
0

>  <i_epik_Tot_abs_Q>  (43) 
0

>  <s_epik_Chemistry_Notes>  (43) 
This compound has an ester and may undergo hydrolysis at high or low pH. This compound contains an acetal/aminal-like group ( X-CH(R)-Y where X, Y are N, S, or O) that may be acid/base labile, releasing an aldehyde.

>  <s_lp_Force_Field>  (43) 
OPLS3e

>  <r_lp_Energy>  (43) 
44.7304

>  <b_lp_Chiralities_Consistent>  (43) 
1

>  <s_lp_Variant>  (43) 
27:0-1

>  <s_i_glide_gridfile>  (43) 
pfpi4k_grid

>  <i_i_glide_lignum>  (43) 
3

>  <i_i_glide_rotatable_bonds>  (43) 
5

>  <r_i_docking_score>  (43) 
-2.16293

>  <r_i_glide_ligand_efficiency>  (43) 
-0.0600815

>  <r_i_glide_ligand_efficiency_sa>  (43) 
-0.198385

>  <r_i_glide_ligand_efficiency_ln>  (43) 
-0.471894

>  <r_i_glide_gscore>  (43) 
-2.16293

>  <r_i_glide_lipo>  (43) 
-0.180601

>  <r_i_glide_hbond>  (43) 
-0.0845661

>  <r_i_glide_metal>  (43) 
-0

>  <r_i_glide_rewards>  (43) 
0

>  <r_i_glide_evdw>  (43) 
-27.9094

>  <r_i_glide_ecoul>  (43) 
-3.54628

>  <r_i_glide_erotb>  (43) 
0.0803406

>  <r_i_glide_esite>  (43) 
-0.0506945

>  <r_i_glide_emodel>  (43) 
-32.5323

>  <r_i_glide_energy>  (43) 
-31.4557

>  <r_i_glide_einternal>  (43) 
4.61415

>  <r_i_glide_intrahb_reward>  (43) 
-0

>  <i_i_glide_confnum>  (43) 
1

>  <i_i_glide_posenum>  (43) 
28

>  <r_i_glide_eff_state_penalty>  (43) 
0

>  <ligand_id>  (43) 
27

>  <original_smiles>  (43) 
COC(=O)C1(O)C(C(C)=O)=C2C3=CC4(O)C5CCCCC46OOC3(CC2C12CCC1(CO1)O2)OC5O6

>  <smiles>  (43) 
[H]OC1(C(=O)OC([H])([H])[H])C(C(=O)C([H])([H])[H])=C2C3=C([H])C4(O[H])C56OOC3(OC([H])(O5)C4([H])C([H])([H])C([H])([H])C([H])([H])C6([H])[H])C([H])([H])C2([H])C12OC1(OC1([H])[H])C([H])([H])C2([H])[H]

$$$$
27:0:1
     RDKit          3D

 64 71  0  0  1  0  0  0  0  0999 V2000
    3.4135    1.8152    4.4826 C   0  0  0  0  0  0  0  0  0  0  0  0
    2.4841    0.7735    4.2384 O   0  0  0  0  0  0  0  0  0  0  0  0
    2.9067   -0.5046    4.1735 C   0  0  0  0  0  0  0  0  0  0  0  0
    4.0889   -0.8513    4.2736 O   0  0  0  0  0  0  0  0  0  0  0  0
    1.7396   -1.5202    3.9899 C   0  0  1  0  0  0  0  0  0  0  0  0
    0.6575   -0.8944    3.2999 O   0  0  0  0  0  0  0  0  0  0  0  0
    2.0224   -2.8628    3.2986 C   0  0  0  0  0  0  0  0  0  0  0  0
    3.0072   -2.9487    2.1759 C   0  0  0  0  0  0  0  0  0  0  0  0
    3.1196   -1.7475    1.2303 C   0  0  0  0  0  0  0  0  0  0  0  0
    3.7384   -3.9073    1.9860 O   0  0  0  0  0  0  0  0  0  0  0  0
    1.3561   -3.8556    3.9173 C   0  0  0  0  0  0  0  0  0  0  0  0
    1.3015   -5.3086    3.8797 C   0  0  0  0  0  0  0  0  0  0  0  0
    1.7774   -6.1628    2.9887 C   0  0  0  0  0  0  0  0  0  0  0  0
    1.6434   -7.6734    3.0776 C   0  0  1  0  0  0  0  0  0  0  0  0
    1.9927   -8.1499    1.7965 O   0  0  0  0  0  0  0  0  0  0  0  0
    2.5110   -8.2327    4.1937 C   0  0  2  0  0  0  0  0  0  0  0  0
    2.9511   -9.7249    4.0460 C   0  0  0  0  0  0  0  0  0  0  0  0
    2.1560  -10.6959    3.1258 C   0  0  0  0  0  0  0  0  0  0  0  0
    0.6182  -10.7520    3.2937 C   0  0  0  0  0  0  0  0  0  0  0  0
   -0.2105   -9.4930    2.8976 C   0  0  0  0  0  0  0  0  0  0  0  0
    0.2492   -8.1866    3.5843 C   0  0  2  0  0  0  0  0  0  0  0  0
   -0.6415   -7.0846    3.4649 O   0  0  0  0  0  0  0  0  0  0  0  0
   -0.6754   -6.3605    4.8246 O   0  0  0  0  0  0  0  0  0  0  0  0
    0.6220   -5.8350    5.1391 C   0  0  2  0  0  0  0  0  0  0  0  0
    0.4750   -4.5559    6.0235 C   0  0  0  0  0  0  0  0  0  0  0  0
    0.5245   -3.3464    5.0491 C   0  0  1  0  0  0  0  0  0  0  0  0
    1.1935   -1.9824    5.3851 C   0  0  2  0  0  0  0  0  0  0  0  0
    0.3226   -0.9320    6.1336 C   0  0  0  0  0  0  0  0  0  0  0  0
    0.6205   -1.1944    7.5824 C   0  0  0  0  0  0  0  0  0  0  0  0
    2.0211   -1.6996    7.5301 C   0  0  2  0  0  0  0  0  0  0  0  0
    2.9123   -2.0722    8.6816 C   0  0  0  0  0  0  0  0  0  0  0  0
    3.0553   -0.8140    7.9851 O   0  0  0  0  0  0  0  0  0  0  0  0
    2.2821   -2.2957    6.2685 O   0  0  0  0  0  0  0  0  0  0  0  0
    1.4576   -6.7542    5.8602 O   0  0  0  0  0  0  0  0  0  0  0  0
    1.5747   -8.0849    5.4114 C   0  0  1  0  0  0  0  0  0  0  0  0
    0.3727   -8.5687    4.9537 O   0  0  0  0  0  0  0  0  0  0  0  0
    2.9064    2.7800    4.5366 H   0  0  0  0  0  0  0  0  0  0  0  0
    4.1489    1.8595    3.6823 H   0  0  0  0  0  0  0  0  0  0  0  0
    3.9376    1.6530    5.4247 H   0  0  0  0  0  0  0  0  0  0  0  0
    0.9540   -0.6042    2.4510 H   0  0  0  0  0  0  0  0  0  0  0  0
    2.1309   -1.4500    0.8814 H   0  0  0  0  0  0  0  0  0  0  0  0
    3.7589   -1.9825    0.3768 H   0  0  0  0  0  0  0  0  0  0  0  0
    3.5675   -0.8818    1.7187 H   0  0  0  0  0  0  0  0  0  0  0  0
    2.2918   -5.8211    2.1026 H   0  0  0  0  0  0  0  0  0  0  0  0
    1.9296   -9.0864    1.8062 H   0  0  0  0  0  0  0  0  0  0  0  0
    3.3922   -7.6173    4.3598 H   0  0  0  0  0  0  0  0  0  0  0  0
    3.9635   -9.7098    3.6380 H   0  0  0  0  0  0  0  0  0  0  0  0
    3.0667  -10.1771    5.0317 H   0  0  0  0  0  0  0  0  0  0  0  0
    2.4233  -10.5621    2.0788 H   0  0  0  0  0  0  0  0  0  0  0  0
    2.5377  -11.6980    3.3369 H   0  0  0  0  0  0  0  0  0  0  0  0
    0.2692  -11.5814    2.6807 H   0  0  0  0  0  0  0  0  0  0  0  0
    0.3851  -11.0530    4.3181 H   0  0  0  0  0  0  0  0  0  0  0  0
   -0.2191   -9.3612    1.8181 H   0  0  0  0  0  0  0  0  0  0  0  0
   -1.2462   -9.7060    3.1714 H   0  0  0  0  0  0  0  0  0  0  0  0
   -0.4260   -4.5719    6.6420 H   0  0  0  0  0  0  0  0  0  0  0  0
    1.3310   -4.5212    6.6960 H   0  0  0  0  0  0  0  0  0  0  0  0
   -0.4686   -3.1647    4.6354 H   0  0  0  0  0  0  0  0  0  0  0  0
    0.6438    0.0946    5.9304 H   0  0  0  0  0  0  0  0  0  0  0  0
   -0.7345   -0.9882    5.8765 H   0  0  0  0  0  0  0  0  0  0  0  0
    0.5475   -0.2968    8.2048 H   0  0  0  0  0  0  0  0  0  0  0  0
   -0.0112   -1.9991    7.9643 H   0  0  0  0  0  0  0  0  0  0  0  0
    2.4899   -2.0102    9.6822 H   0  0  0  0  0  0  0  0  0  0  0  0
    3.6864   -2.8116    8.5012 H   0  0  0  0  0  0  0  0  0  0  0  0
    1.9188   -8.6902    6.2549 H   0  0  0  0  0  0  0  0  0  0  0  0
  1  2  1  0
  1 37  1  0
  1 38  1  0
  1 39  1  0
  2  3  1  0
  3  4  2  0
  3  5  1  0
  5 27  1  0
  5  6  1  6
  5  7  1  0
  6 40  1  0
  7  8  1  0
  7 11  2  0
  8  9  1  0
  8 10  2  0
  9 41  1  0
  9 42  1  0
  9 43  1  0
 11 26  1  0
 11 12  1  0
 12 24  1  0
 12 13  2  0
 13 14  1  0
 13 44  1  0
 14 21  1  0
 14 15  1  6
 14 16  1  0
 15 45  1  0
 16 35  1  0
 16 17  1  0
 16 46  1  1
 17 18  1  0
 17 47  1  0
 17 48  1  0
 18 19  1  0
 18 49  1  0
 18 50  1  0
 19 20  1  0
 19 51  1  0
 19 52  1  0
 21 20  1  6
 20 53  1  0
 20 54  1  0
 21 36  1  0
 21 22  1  0
 22 23  1  0
 23 24  1  0
 24 25  1  1
 24 34  1  0
 25 26  1  0
 25 55  1  0
 25 56  1  0
 26 27  1  0
 26 57  1  6
 27 33  1  1
 27 28  1  0
 28 29  1  0
 28 58  1  0
 28 59  1  0
 29 30  1  0
 29 60  1  0
 29 61  1  0
 30 32  1  6
 30 31  1  0
 30 33  1  0
 31 32  1  0
 31 62  1  0
 31 63  1  0
 34 35  1  0
 35 36  1  0
 35 64  1  1
M  END
>  <i_m_ct_stereo_status>  (44) 
1

>  <s_m_source_file>  (44) 
/var/tmp/pbs.5076253.sched01/tmp9xbr3gte/40_qt8sgg8.sdf

>  <i_m_source_file_index>  (44) 
3

>  <i_lp_mmshare_version>  (44) 
48012

>  <i_f3d_flags>  (44) 
0

>  <s_epik_input>  (44) 
TzFbQ0gyXVtDQEBdMShPMilbQ0gyXVtDSDJdW0NAXTIoW0NAQF0oW09IXSkoQyg9TylPW0NIM10pQz0zQyg9TylbQ0gzXSlbQ0BIXShbQ0gyXTQpQzNDKD1bQ0hdNSlbQ0BAXTQoT082KU9bQ0BASF0oTzcpW0NASF0oW0NAXTUoW0NAXTY3OClbT0hdKVtDSDJdW0NIMl1bQ0gyXVtDSDJdOA==

>  <s_epik_cmdline>  (44) 
J2VwaWtfcHl0aG9uJywgJy1waHQnLCAnMi4wJywgJy1waCcsICc3LjAnLCAnLXRuJywgJzgnLCAnLW1hJywgJzIwMCcsICctaW1hZScsICc8aW5maWxlLm1hZT4nLCAnLW9tYWUnLCAnPG91dGZpbGUubWFlPic=

>  <r_epik_Ionization_Penalty>  (44) 
0.00176567

>  <r_epik_Ionization_Penalty_Charging>  (44) 
0

>  <r_epik_Ionization_Penalty_Neutral>  (44) 
0.00176567

>  <r_epik_State_Penalty>  (44) 
0.00114183

>  <r_epik_Charging_Adjusted_Penalty>  (44) 
0.00114183

>  <i_epik_Tot_Q>  (44) 
0

>  <i_epik_Tot_abs_Q>  (44) 
0

>  <s_epik_Chemistry_Notes>  (44) 
This compound has an ester and may undergo hydrolysis at high or low pH. This compound contains an acetal/aminal-like group ( X-CH(R)-Y where X, Y are N, S, or O) that may be acid/base labile, releasing an aldehyde.

>  <s_lp_Force_Field>  (44) 
OPLS3e

>  <r_lp_Energy>  (44) 
44.7304

>  <b_lp_Chiralities_Consistent>  (44) 
1

>  <s_lp_Variant>  (44) 
27:0-1

>  <s_i_glide_gridfile>  (44) 
pfpi4k_grid

>  <i_i_glide_lignum>  (44) 
3

>  <i_i_glide_rotatable_bonds>  (44) 
5

>  <r_i_docking_score>  (44) 
-1.93925

>  <r_i_glide_ligand_efficiency>  (44) 
-0.0538679

>  <r_i_glide_ligand_efficiency_sa>  (44) 
-0.177868

>  <r_i_glide_ligand_efficiency_ln>  (44) 
-0.423091

>  <r_i_glide_gscore>  (44) 
-1.93925

>  <r_i_glide_lipo>  (44) 
-0.131241

>  <r_i_glide_hbond>  (44) 
-0.0431242

>  <r_i_glide_metal>  (44) 
-0

>  <r_i_glide_rewards>  (44) 
0

>  <r_i_glide_evdw>  (44) 
-28.3834

>  <r_i_glide_ecoul>  (44) 
-2.49063

>  <r_i_glide_erotb>  (44) 
0.0803406

>  <r_i_glide_esite>  (44) 
-0.0524559

>  <r_i_glide_emodel>  (44) 
-30.8497

>  <r_i_glide_energy>  (44) 
-30.8741

>  <r_i_glide_einternal>  (44) 
6.00128

>  <r_i_glide_intrahb_reward>  (44) 
-0

>  <i_i_glide_confnum>  (44) 
1

>  <i_i_glide_posenum>  (44) 
18

>  <r_i_glide_eff_state_penalty>  (44) 
0

>  <ligand_id>  (44) 
27

>  <original_smiles>  (44) 
COC(=O)C1(O)C(C(C)=O)=C2C3=CC4(O)C5CCCCC46OOC3(CC2C12CCC1(CO1)O2)OC5O6

>  <smiles>  (44) 
[H]OC1(C(=O)OC([H])([H])[H])C(C(=O)C([H])([H])[H])=C2C3=C([H])C4(O[H])C56OOC3(OC([H])(O5)C4([H])C([H])([H])C([H])([H])C([H])([H])C6([H])[H])C([H])([H])C2([H])C12OC1(OC1([H])[H])C([H])([H])C2([H])[H]

$$$$
27:0:2
     RDKit          3D

 64 71  0  0  1  0  0  0  0  0999 V2000
    3.6280   -8.7454    1.2816 C   0  0  0  0  0  0  0  0  0  0  0  0
    3.6186   -7.7771    2.3161 O   0  0  0  0  0  0  0  0  0  0  0  0
    2.9158   -6.6299    2.1815 C   0  0  0  0  0  0  0  0  0  0  0  0
    2.2900   -6.3043    1.1661 O   0  0  0  0  0  0  0  0  0  0  0  0
    2.9340   -5.7580    3.4759 C   0  0  1  0  0  0  0  0  0  0  0  0
    4.1354   -5.9987    4.2098 O   0  0  0  0  0  0  0  0  0  0  0  0
    2.7819   -4.2412    3.3437 C   0  0  0  0  0  0  0  0  0  0  0  0
    3.3572   -3.5160    2.1828 C   0  0  0  0  0  0  0  0  0  0  0  0
    4.7606   -3.9344    1.7213 C   0  0  0  0  0  0  0  0  0  0  0  0
    2.7643   -2.6477    1.5632 O   0  0  0  0  0  0  0  0  0  0  0  0
    2.0003   -3.7568    4.3332 C   0  0  0  0  0  0  0  0  0  0  0  0
    1.3591   -2.5036    4.6767 C   0  0  0  0  0  0  0  0  0  0  0  0
    1.5460   -1.2852    4.1772 C   0  0  0  0  0  0  0  0  0  0  0  0
    0.7976   -0.0425    4.6543 C   0  0  1  0  0  0  0  0  0  0  0  0
    1.5118    1.0478    4.1191 O   0  0  0  0  0  0  0  0  0  0  0  0
   -0.6498   -0.0796    4.2124 C   0  0  2  0  0  0  0  0  0  0  0  0
   -1.3745    1.2995    4.0855 C   0  0  0  0  0  0  0  0  0  0  0  0
   -0.8327    2.5532    4.8324 C   0  0  0  0  0  0  0  0  0  0  0  0
   -0.5315    2.4149    6.3441 C   0  0  0  0  0  0  0  0  0  0  0  0
    0.6531    1.4901    6.7575 C   0  0  0  0  0  0  0  0  0  0  0  0
    0.5625    0.0477    6.2005 C   0  0  2  0  0  0  0  0  0  0  0  0
    1.4547   -0.8894    6.7850 O   0  0  0  0  0  0  0  0  0  0  0  0
    0.6837   -2.2016    6.9931 O   0  0  0  0  0  0  0  0  0  0  0  0
    0.2854   -2.7380    5.7230 C   0  0  2  0  0  0  0  0  0  0  0  0
    0.2094   -4.3003    5.7998 C   0  0  0  0  0  0  0  0  0  0  0  0
    1.5673   -4.8326    5.2662 C   0  0  1  0  0  0  0  0  0  0  0  0
    1.7275   -6.1251    4.4132 C   0  0  2  0  0  0  0  0  0  0  0  0
    1.8809   -7.4644    5.1890 C   0  0  0  0  0  0  0  0  0  0  0  0
    0.4764   -7.9730    5.3029 C   0  0  0  0  0  0  0  0  0  0  0  0
   -0.1581   -7.4215    4.0708 C   0  0  2  0  0  0  0  0  0  0  0  0
   -1.5553   -7.6498    3.5825 C   0  0  0  0  0  0  0  0  0  0  0  0
   -0.4276   -8.3334    2.9993 O   0  0  0  0  0  0  0  0  0  0  0  0
    0.5051   -6.2378    3.6604 O   0  0  0  0  0  0  0  0  0  0  0  0
   -1.0036   -2.2676    5.2899 O   0  0  0  0  0  0  0  0  0  0  0  0
   -1.3003   -0.8945    5.3458 C   0  0  1  0  0  0  0  0  0  0  0  0
   -0.7951   -0.3160    6.4849 O   0  0  0  0  0  0  0  0  0  0  0  0
    4.2052   -9.6258    1.5678 H   0  0  0  0  0  0  0  0  0  0  0  0
    4.0847   -8.3231    0.3829 H   0  0  0  0  0  0  0  0  0  0  0  0
    2.6152   -9.0758    1.0398 H   0  0  0  0  0  0  0  0  0  0  0  0
    4.8823   -5.8211    3.6605 H   0  0  0  0  0  0  0  0  0  0  0  0
    5.4616   -3.9071    2.5568 H   0  0  0  0  0  0  0  0  0  0  0  0
    5.1235   -3.2760    0.9315 H   0  0  0  0  0  0  0  0  0  0  0  0
    4.7600   -4.9478    1.3178 H   0  0  0  0  0  0  0  0  0  0  0  0
    2.2776   -1.1104    3.4090 H   0  0  0  0  0  0  0  0  0  0  0  0
    1.3927    1.0421    3.1810 H   0  0  0  0  0  0  0  0  0  0  0  0
   -0.7595   -0.6301    3.2844 H   0  0  0  0  0  0  0  0  0  0  0  0
   -1.3461    1.5597    3.0264 H   0  0  0  0  0  0  0  0  0  0  0  0
   -2.4353    1.1854    4.2995 H   0  0  0  0  0  0  0  0  0  0  0  0
    0.0283    2.9789    4.3160 H   0  0  0  0  0  0  0  0  0  0  0  0
   -1.5954    3.3264    4.7217 H   0  0  0  0  0  0  0  0  0  0  0  0
   -0.3077    3.4142    6.7144 H   0  0  0  0  0  0  0  0  0  0  0  0
   -1.4444    2.1252    6.8665 H   0  0  0  0  0  0  0  0  0  0  0  0
    1.6017    1.9426    6.4698 H   0  0  0  0  0  0  0  0  0  0  0  0
    0.6644    1.4590    7.8476 H   0  0  0  0  0  0  0  0  0  0  0  0
   -0.0249   -4.6655    6.8021 H   0  0  0  0  0  0  0  0  0  0  0  0
   -0.5786   -4.6263    5.1403 H   0  0  0  0  0  0  0  0  0  0  0  0
    2.3034   -4.8332    6.0717 H   0  0  0  0  0  0  0  0  0  0  0  0
    2.4370   -8.2187    4.6227 H   0  0  0  0  0  0  0  0  0  0  0  0
    2.3908   -7.3536    6.1465 H   0  0  0  0  0  0  0  0  0  0  0  0
    0.4107   -9.0638    5.3299 H   0  0  0  0  0  0  0  0  0  0  0  0
   -0.0195   -7.5245    6.1661 H   0  0  0  0  0  0  0  0  0  0  0  0
   -2.2004   -8.2587    4.2040 H   0  0  0  0  0  0  0  0  0  0  0  0
   -2.0141   -6.8796    2.9663 H   0  0  0  0  0  0  0  0  0  0  0  0
   -2.3892   -0.7954    5.3300 H   0  0  0  0  0  0  0  0  0  0  0  0
  1  2  1  0
  1 37  1  0
  1 38  1  0
  1 39  1  0
  2  3  1  0
  3  4  2  0
  3  5  1  0
  5 27  1  0
  5  6  1  1
  5  7  1  0
  6 40  1  0
  7  8  1  0
  7 11  2  0
  8  9  1  0
  8 10  2  0
  9 41  1  0
  9 42  1  0
  9 43  1  0
 11 26  1  0
 11 12  1  0
 12 24  1  0
 12 13  2  0
 13 14  1  0
 13 44  1  0
 14 21  1  0
 14 15  1  6
 14 16  1  0
 15 45  1  0
 16 35  1  0
 16 17  1  0
 16 46  1  6
 17 18  1  0
 17 47  1  0
 17 48  1  0
 18 19  1  0
 18 49  1  0
 18 50  1  0
 19 20  1  0
 19 51  1  0
 19 52  1  0
 21 20  1  1
 20 53  1  0
 20 54  1  0
 21 36  1  0
 21 22  1  0
 22 23  1  0
 23 24  1  0
 24 25  1  1
 24 34  1  0
 25 26  1  0
 25 55  1  0
 25 56  1  0
 26 27  1  0
 26 57  1  1
 27 33  1  6
 27 28  1  0
 28 29  1  0
 28 58  1  0
 28 59  1  0
 29 30  1  0
 29 60  1  0
 29 61  1  0
 30 32  1  6
 30 31  1  0
 30 33  1  0
 31 32  1  0
 31 62  1  0
 31 63  1  0
 34 35  1  0
 35 36  1  0
 35 64  1  1
M  END
>  <i_m_ct_stereo_status>  (45) 
1

>  <s_m_source_file>  (45) 
/var/tmp/pbs.5076253.sched01/tmp9xbr3gte/40_qt8sgg8.sdf

>  <i_m_source_file_index>  (45) 
3

>  <i_lp_mmshare_version>  (45) 
48012

>  <i_f3d_flags>  (45) 
0

>  <s_epik_input>  (45) 
TzFbQ0gyXVtDQEBdMShPMilbQ0gyXVtDSDJdW0NAXTIoW0NAQF0oW09IXSkoQyg9TylPW0NIM10pQz0zQyg9TylbQ0gzXSlbQ0BIXShbQ0gyXTQpQzNDKD1bQ0hdNSlbQ0BAXTQoT082KU9bQ0BASF0oTzcpW0NASF0oW0NAXTUoW0NAXTY3OClbT0hdKVtDSDJdW0NIMl1bQ0gyXVtDSDJdOA==

>  <s_epik_cmdline>  (45) 
J2VwaWtfcHl0aG9uJywgJy1waHQnLCAnMi4wJywgJy1waCcsICc3LjAnLCAnLXRuJywgJzgnLCAnLW1hJywgJzIwMCcsICctaW1hZScsICc8aW5maWxlLm1hZT4nLCAnLW9tYWUnLCAnPG91dGZpbGUubWFlPic=

>  <r_epik_Ionization_Penalty>  (45) 
0.00176567

>  <r_epik_Ionization_Penalty_Charging>  (45) 
0

>  <r_epik_Ionization_Penalty_Neutral>  (45) 
0.00176567

>  <r_epik_State_Penalty>  (45) 
0.00114183

>  <r_epik_Charging_Adjusted_Penalty>  (45) 
0.00114183

>  <i_epik_Tot_Q>  (45) 
0

>  <i_epik_Tot_abs_Q>  (45) 
0

>  <s_epik_Chemistry_Notes>  (45) 
This compound has an ester and may undergo hydrolysis at high or low pH. This compound contains an acetal/aminal-like group ( X-CH(R)-Y where X, Y are N, S, or O) that may be acid/base labile, releasing an aldehyde.

>  <s_lp_Force_Field>  (45) 
OPLS3e

>  <r_lp_Energy>  (45) 
44.7304

>  <b_lp_Chiralities_Consistent>  (45) 
1

>  <s_lp_Variant>  (45) 
27:0-1

>  <s_i_glide_gridfile>  (45) 
pfpi4k_grid

>  <i_i_glide_lignum>  (45) 
3

>  <i_i_glide_rotatable_bonds>  (45) 
5

>  <r_i_docking_score>  (45) 
-1.7441

>  <r_i_glide_ligand_efficiency>  (45) 
-0.0484472

>  <r_i_glide_ligand_efficiency_sa>  (45) 
-0.159969

>  <r_i_glide_ligand_efficiency_ln>  (45) 
-0.380516

>  <r_i_glide_gscore>  (45) 
-1.7441

>  <r_i_glide_lipo>  (45) 
-0.030076

>  <r_i_glide_hbond>  (45) 
-0.0470397

>  <r_i_glide_metal>  (45) 
-0

>  <r_i_glide_rewards>  (45) 
-0.0020073

>  <r_i_glide_evdw>  (45) 
-30.0246

>  <r_i_glide_ecoul>  (45) 
-0.948437

>  <r_i_glide_erotb>  (45) 
0.0803406

>  <r_i_glide_esite>  (45) 
-0.101821

>  <r_i_glide_emodel>  (45) 
-30.8622

>  <r_i_glide_energy>  (45) 
-30.9731

>  <r_i_glide_einternal>  (45) 
5.70407

>  <r_i_glide_intrahb_reward>  (45) 
-0

>  <i_i_glide_confnum>  (45) 
1

>  <i_i_glide_posenum>  (45) 
6

>  <r_i_glide_eff_state_penalty>  (45) 
0

>  <ligand_id>  (45) 
27

>  <original_smiles>  (45) 
COC(=O)C1(O)C(C(C)=O)=C2C3=CC4(O)C5CCCCC46OOC3(CC2C12CCC1(CO1)O2)OC5O6

>  <smiles>  (45) 
[H]OC1(C(=O)OC([H])([H])[H])C(C(=O)C([H])([H])[H])=C2C3=C([H])C4(O[H])C56OOC3(OC([H])(O5)C4([H])C([H])([H])C([H])([H])C([H])([H])C6([H])[H])C([H])([H])C2([H])C12OC1(OC1([H])[H])C([H])([H])C2([H])[H]

$$$$
31:0:0
     RDKit          3D

 56 70  0  0  1  0  0  0  0  0999 V2000
    3.6714   -8.9457    8.2568 O   0  0  0  0  0  0  0  0  0  0  0  0
    3.1184   -8.1058    7.5563 C   0  0  0  0  0  0  0  0  0  0  0  0
    2.4821   -6.9093    8.1144 C   0  0  0  0  0  0  0  0  0  0  0  0
    2.2425   -6.0497    7.1366 C   0  0  0  0  0  0  0  0  0  0  0  0
    2.7965   -6.5206    5.8048 C   0  0  2  0  0  0  0  0  0  0  0  0
    2.1198   -5.9769    4.5552 C   0  0  2  0  0  0  0  0  0  0  0  0
    1.2709   -6.7817    3.7565 O   0  0  0  0  0  0  0  0  0  0  0  0
    2.5201   -6.3832    3.1421 C   0  0  2  0  0  0  0  0  0  0  0  0
    3.5554   -7.5254    2.8579 C   0  0  2  0  0  0  0  0  0  0  0  0
    3.7798   -7.7271    1.3638 C   0  0  2  0  0  0  0  0  0  0  0  0
    5.1675   -7.8373    1.0209 O   0  0  0  0  0  0  0  0  0  0  0  0
    4.4594   -6.7262    0.4745 C   0  0  2  0  0  0  0  0  0  0  0  0
    4.6889   -5.3381    1.0226 C   0  0  1  0  0  0  0  0  0  0  0  0
    5.5108   -5.3329    2.1981 O   0  0  0  0  0  0  0  0  0  0  0  0
    6.0536   -4.6681    1.0662 C   0  0  2  0  0  0  0  0  0  0  0  0
    6.2248   -3.1907    1.2927 C   0  0  1  0  0  0  0  0  0  0  0  0
    7.0553   -2.4578    0.3249 O   0  0  0  0  0  0  0  0  0  0  0  0
    5.6393   -2.2898    0.2857 C   0  0  2  0  0  0  0  0  0  0  0  0
    5.0396   -1.0409    0.5486 O   0  0  0  0  0  0  0  0  0  0  0  0
    4.1009   -1.1061   -0.4597 C   0  0  0  0  0  0  0  0  0  0  0  0
    4.5718   -1.2167   -1.6386 N   0  0  0  0  0  0  0  0  0  0  0  0
    4.7533   -2.4504   -0.8795 C   0  0  1  0  0  0  0  0  0  0  0  0
    3.8086   -3.5200   -1.0403 O   0  0  0  0  0  0  0  0  0  0  0  0
    2.8060   -3.8062   -0.0642 C   0  0  1  0  0  0  0  0  0  0  0  0
    1.8317   -4.6161   -0.7155 O   0  0  0  0  0  0  0  0  0  0  0  0
    3.3861   -4.5931    1.1616 C   0  0  2  0  0  0  0  0  0  0  0  0
    3.1219   -4.0470    2.4555 O   0  0  0  0  0  0  0  0  0  0  0  0
    2.3609   -5.2257    2.1245 C   0  0  2  0  0  0  0  0  0  0  0  0
    3.4537   -8.9184    3.6086 C   0  0  1  0  0  0  0  0  0  0  0  0
    4.2083   -9.9539    2.9981 O   0  0  0  0  0  0  0  0  0  0  0  0
    3.9086   -8.8331    5.0857 C   0  0  2  0  0  0  0  0  0  0  0  0
    3.2426  -10.0073    5.5690 O   0  0  0  0  0  0  0  0  0  0  0  0
    2.0869   -9.1622    5.3999 C   0  0  2  0  0  0  0  0  0  0  0  0
    0.7859   -9.9068    5.6424 C   0  0  0  0  0  0  0  0  0  0  0  0
    0.9074  -10.2998    4.1395 C   0  0  1  0  0  0  0  0  0  0  0  0
    1.0870  -11.6385    3.7172 O   0  0  0  0  0  0  0  0  0  0  0  0
    0.8789   -9.2863    3.0859 O   0  0  0  0  0  0  0  0  0  0  0  0
    2.0272   -9.2747    3.9324 C   0  0  2  0  0  0  0  0  0  0  0  0
    2.9484   -8.0327    6.0236 C   0  0  1  0  0  0  0  0  0  0  0  0
    2.2342   -6.8122    9.1699 H   0  0  0  0  0  0  0  0  0  0  0  0
    3.7910   -6.0616    5.7681 H   0  0  0  0  0  0  0  0  0  0  0  0
    1.7724   -5.0827    7.2611 H   0  0  0  0  0  0  0  0  0  0  0  0
    1.7270   -4.9706    4.6858 H   0  0  0  0  0  0  0  0  0  0  0  0
    4.4937   -7.1403    3.2458 H   0  0  0  0  0  0  0  0  0  0  0  0
    3.1044   -8.4394    0.8763 H   0  0  0  0  0  0  0  0  0  0  0  0
    4.2247   -6.8053   -0.5862 H   0  0  0  0  0  0  0  0  0  0  0  0
    6.8489   -5.2038    0.5503 H   0  0  0  0  0  0  0  0  0  0  0  0
    6.3883   -2.8373    2.3204 H   0  0  0  0  0  0  0  0  0  0  0  0
    2.2832   -2.9059    0.2759 H   0  0  0  0  0  0  0  0  0  0  0  0
    2.3193   -5.1536   -1.3291 H   0  0  0  0  0  0  0  0  0  0  0  0
    1.3170   -5.0119    1.9068 H   0  0  0  0  0  0  0  0  0  0  0  0
    3.9877  -10.7858    3.4006 H   0  0  0  0  0  0  0  0  0  0  0  0
    4.9771   -8.7682    5.2866 H   0  0  0  0  0  0  0  0  0  0  0  0
    0.9050  -10.6633    6.4141 H   0  0  0  0  0  0  0  0  0  0  0  0
   -0.0202   -9.2080    5.9184 H   0  0  0  0  0  0  0  0  0  0  0  0
    1.8993  -11.9727    4.0852 H   0  0  0  0  0  0  0  0  0  0  0  0
  1  2  2  0
 39  2  1  1
  2  3  1  0
  3  4  2  0
  3 40  1  0
  4 42  1  0
  4  5  1  0
  5  6  1  0
  5 41  1  6
  5 39  1  0
  6  8  1  0
  6  7  1  0
  6 43  1  6
  8  7  1  6
  8 28  1  0
  8  9  1  0
  9 10  1  0
  9 29  1  0
  9 44  1  1
 10 12  1  0
 10 11  1  0
 10 45  1  6
 11 12  1  0
 12 13  1  0
 12 46  1  6
 13 15  1  0
 13 26  1  0
 13 14  1  1
 14 15  1  0
 15 16  1  0
 15 47  1  6
 16 18  1  0
 16 17  1  0
 16 48  1  1
 18 17  1  6
 18 22  1  0
 18 19  1  0
 19 20  1  0
 20 22  1  0
 20 21  2  0
 21 22  1  0
 22 23  1  6
 23 24  1  0
 24 25  1  0
 24 26  1  0
 24 49  1  1
 25 50  1  0
 26 28  1  0
 26 27  1  1
 27 28  1  0
 28 51  1  6
 29 38  1  0
 29 30  1  6
 29 31  1  0
 30 52  1  0
 31 32  1  0
 31 53  1  6
 31 39  1  0
 33 32  1  1
 33 38  1  0
 33 34  1  0
 33 39  1  0
 34 35  1  0
 34 54  1  0
 34 55  1  0
 35 38  1  0
 35 36  1  6
 35 37  1  0
 36 56  1  0
 38 37  1  6
M  END
>  <i_m_ct_stereo_status>  (46) 
1

>  <s_m_source_file>  (46) 
/var/tmp/pbs.5076253.sched01/tmp9xbr3gte/40_qt8sgg8.sdf

>  <i_m_source_file_index>  (46) 
7

>  <i_lp_mmshare_version>  (46) 
48012

>  <i_f3d_flags>  (46) 
1

>  <s_epik_input>  (46) 
W0NIXT0xW0NIMl1DKD1PKVtDQF0yKEMxW0NAQEhdKE8zKVtDQF0zNDUpW0NAQF02N1tDQF04KFtDQF0oTzgpKFtDSDJdNylbT0hdKVtDQF0oW09IXSkoW0NAQEhdMk82KVtDQEhdNFtDQEhdOVtDQEhdKE85KVtDQEBdMTJbQ0BdMyhbQ0BASF01TzMpW0NASF0oW09IXSlPQzM0W0NAXTUoW0NASF0oTzUpW0NASF0yTzEpT0MzPU40

>  <s_epik_cmdline>  (46) 
J2VwaWtfcHl0aG9uJywgJy1waHQnLCAnMi4wJywgJy1waCcsICc3LjAnLCAnLXRuJywgJzgnLCAnLW1hJywgJzIwMCcsICctaW1hZScsICc8aW5maWxlLm1hZT4nLCAnLW9tYWUnLCAnPG91dGZpbGUubWFlPic=

>  <r_lp_tautomer_probability>  (46) 
1

>  <r_epik_Ionization_Penalty>  (46) 
0.000359221

>  <r_epik_Ionization_Penalty_Charging>  (46) 
0

>  <r_epik_Ionization_Penalty_Neutral>  (46) 
0.000359221

>  <r_epik_State_Penalty>  (46) 
-0

>  <r_epik_Charging_Adjusted_Penalty>  (46) 
0

>  <i_epik_Tot_Q>  (46) 
0

>  <i_epik_Tot_abs_Q>  (46) 
0

>  <s_epik_Chemistry_Notes>  (46) 
This compound has an imine and may undergo hydrolysis. This compound contains an acetal/aminal-like group ( X-CH(R)-Y where X, Y are N, S, or O) that may be acid/base labile, releasing an aldehyde.

>  <s_lp_Force_Field>  (46) 
OPLS3e

>  <r_lp_Energy>  (46) 
168.877

>  <b_lp_Chiralities_Consistent>  (46) 
1

>  <s_lp_Variant>  (46) 
31:0-1

>  <s_i_glide_gridfile>  (46) 
pfpi4k_grid

>  <i_i_glide_lignum>  (46) 
7

>  <i_i_glide_rotatable_bonds>  (46) 
3

>  <r_i_docking_score>  (46) 
-2.93403

>  <r_i_glide_ligand_efficiency>  (46) 
-0.0752315

>  <r_i_glide_ligand_efficiency_sa>  (46) 
-0.255126

>  <r_i_glide_ligand_efficiency_ln>  (46) 
-0.629139

>  <r_i_glide_gscore>  (46) 
-2.93403

>  <r_i_glide_lipo>  (46) 
-0.398054

>  <r_i_glide_hbond>  (46) 
0

>  <r_i_glide_metal>  (46) 
-0

>  <r_i_glide_rewards>  (46) 
-0.0472963

>  <r_i_glide_evdw>  (46) 
-30.3446

>  <r_i_glide_ecoul>  (46) 
-5.73818

>  <r_i_glide_erotb>  (46) 
0

>  <r_i_glide_esite>  (46) 
-0.110721

>  <r_i_glide_emodel>  (46) 
-39.4399

>  <r_i_glide_energy>  (46) 
-36.0828

>  <r_i_glide_einternal>  (46) 
2.23954

>  <r_i_glide_intrahb_reward>  (46) 
-0

>  <i_i_glide_confnum>  (46) 
2

>  <i_i_glide_posenum>  (46) 
5

>  <r_i_glide_eff_state_penalty>  (46) 
0

>  <ligand_id>  (46) 
31

>  <original_smiles>  (46) 
O=C1CC=C2C3OC34C(C3OC3C35OC3C3OC36OC3=NC36OC(O)C53OC43)C3(O)C4OC5(CC6(O)OC635)C124

>  <smiles>  (46) 
[H]OC1([H])OC23N=C2OC32OC2([H])C2([H])OC23C2([H])OC2([H])C2([H])C4(OC4([H])C4([H])C([H])=C([H])C(=O)C45C4([H])OC56C([H])([H])C5(O[H])OC56C42O[H])C2([H])OC123

$$$$
31:0:1
     RDKit          3D

 56 70  0  0  1  0  0  0  0  0999 V2000
    3.8272   -8.1451    8.5261 O   0  0  0  0  0  0  0  0  0  0  0  0
    3.3352   -7.2976    7.7740 C   0  0  0  0  0  0  0  0  0  0  0  0
    2.8517   -6.0135    8.2523 C   0  0  0  0  0  0  0  0  0  0  0  0
    2.6395   -5.2175    7.2026 C   0  0  0  0  0  0  0  0  0  0  0  0
    3.0639   -5.8591    5.8980 C   0  0  2  0  0  0  0  0  0  0  0  0
    2.3683   -5.3572    4.6404 C   0  0  2  0  0  0  0  0  0  0  0  0
    1.4047   -6.1314    3.9527 O   0  0  0  0  0  0  0  0  0  0  0  0
    2.6502   -5.9187    3.2510 C   0  0  2  0  0  0  0  0  0  0  0  0
    3.5568   -7.1797    3.0256 C   0  0  2  0  0  0  0  0  0  0  0  0
    3.6751   -7.5285    1.5410 C   0  0  2  0  0  0  0  0  0  0  0  0
    5.0152   -7.8187    1.1304 O   0  0  0  0  0  0  0  0  0  0  0  0
    4.4046   -6.6848    0.5274 C   0  0  2  0  0  0  0  0  0  0  0  0
    4.7893   -5.2904    0.9495 C   0  0  1  0  0  0  0  0  0  0  0  0
    5.6855   -5.2656    2.0695 O   0  0  0  0  0  0  0  0  0  0  0  0
    6.2177   -4.7616    0.8560 C   0  0  2  0  0  0  0  0  0  0  0  0
    6.5568   -3.2980    0.9430 C   0  0  1  0  0  0  0  0  0  0  0  0
    7.3753   -2.7360   -0.1383 O   0  0  0  0  0  0  0  0  0  0  0  0
    5.9890   -2.4192   -0.0995 C   0  0  2  0  0  0  0  0  0  0  0  0
    5.5573   -1.0867    0.0534 O   0  0  0  0  0  0  0  0  0  0  0  0
    4.5549   -1.1669   -0.8750 C   0  0  0  0  0  0  0  0  0  0  0  0
    4.9217   -1.4352   -2.0820 N   0  0  0  0  0  0  0  0  0  0  0  0
    5.0182   -2.6034   -1.1851 C   0  0  1  0  0  0  0  0  0  0  0  0
    3.9841   -3.5701   -1.2191 O   0  0  0  0  0  0  0  0  0  0  0  0
    3.0113   -3.6871   -0.1899 C   0  0  1  0  0  0  0  0  0  0  0  0
    1.9596   -4.4636   -0.7229 O   0  0  0  0  0  0  0  0  0  0  0  0
    3.5755   -4.4076    1.0758 C   0  0  2  0  0  0  0  0  0  0  0  0
    3.4374   -3.7212    2.3175 O   0  0  0  0  0  0  0  0  0  0  0  0
    2.5409   -4.8346    2.1461 C   0  0  2  0  0  0  0  0  0  0  0  0
    3.3619   -8.4833    3.9053 C   0  0  1  0  0  0  0  0  0  0  0  0
    3.9722   -9.6308    3.3296 O   0  0  0  0  0  0  0  0  0  0  0  0
    3.9291   -8.3190    5.3500 C   0  0  2  0  0  0  0  0  0  0  0  0
    3.1849   -9.3772    5.9914 O   0  0  0  0  0  0  0  0  0  0  0  0
    2.1057   -8.4377    5.8024 C   0  0  2  0  0  0  0  0  0  0  0  0
    0.7539   -9.0008    6.1767 C   0  0  0  0  0  0  0  0  0  0  0  0
    0.7017   -9.5087    4.7152 C   0  0  1  0  0  0  0  0  0  0  0  0
    0.6587  -10.8962    4.4879 O   0  0  0  0  0  0  0  0  0  0  0  0
    0.7507   -8.6058    3.5710 O   0  0  0  0  0  0  0  0  0  0  0  0
    1.9347   -8.6547    4.3682 C   0  0  2  0  0  0  0  0  0  0  0  0
    3.1076   -7.3482    6.2559 C   0  0  1  0  0  0  0  0  0  0  0  0
    2.6819   -5.7939    9.2958 H   0  0  0  0  0  0  0  0  0  0  0  0
    4.0902   -5.5105    5.7662 H   0  0  0  0  0  0  0  0  0  0  0  0
    2.2740   -4.2030    7.2610 H   0  0  0  0  0  0  0  0  0  0  0  0
    2.0882   -4.3109    4.6937 H   0  0  0  0  0  0  0  0  0  0  0  0
    4.5477   -6.8515    3.3235 H   0  0  0  0  0  0  0  0  0  0  0  0
    2.9006   -8.1937    1.1570 H   0  0  0  0  0  0  0  0  0  0  0  0
    4.1205   -6.8176   -0.5120 H   0  0  0  0  0  0  0  0  0  0  0  0
    6.9281   -5.4145    0.3625 H   0  0  0  0  0  0  0  0  0  0  0  0
    6.8079   -2.8770    1.9271 H   0  0  0  0  0  0  0  0  0  0  0  0
    2.5720   -2.7220    0.0748 H   0  0  0  0  0  0  0  0  0  0  0  0
    2.3567   -5.0693   -1.3325 H   0  0  0  0  0  0  0  0  0  0  0  0
    1.5198   -4.5223    1.9574 H   0  0  0  0  0  0  0  0  0  0  0  0
    3.4628   -9.9119    2.5764 H   0  0  0  0  0  0  0  0  0  0  0  0
    5.0080   -8.3425    5.4960 H   0  0  0  0  0  0  0  0  0  0  0  0
    0.8076   -9.7652    6.9577 H   0  0  0  0  0  0  0  0  0  0  0  0
    0.0172   -8.2423    6.4161 H   0  0  0  0  0  0  0  0  0  0  0  0
   -0.2510  -11.1595    4.6502 H   0  0  0  0  0  0  0  0  0  0  0  0
  1  2  2  0
 39  2  1  1
  2  3  1  0
  3  4  2  0
  3 40  1  0
  4 42  1  0
  4  5  1  0
  5  6  1  0
  5 41  1  6
  5 39  1  0
  6  8  1  0
  6  7  1  0
  6 43  1  6
  8  7  1  6
  8 28  1  0
  8  9  1  0
  9 10  1  0
  9 29  1  0
  9 44  1  1
 10 12  1  0
 10 11  1  0
 10 45  1  6
 11 12  1  0
 12 13  1  0
 12 46  1  6
 13 15  1  0
 13 26  1  0
 13 14  1  1
 14 15  1  0
 15 16  1  0
 15 47  1  6
 16 18  1  0
 16 17  1  0
 16 48  1  1
 18 17  1  6
 18 22  1  0
 18 19  1  0
 19 20  1  0
 20 22  1  0
 20 21  2  0
 21 22  1  0
 22 23  1  6
 23 24  1  0
 24 25  1  0
 24 26  1  0
 24 49  1  1
 25 50  1  0
 26 28  1  0
 26 27  1  1
 27 28  1  0
 28 51  1  6
 29 38  1  0
 29 30  1  6
 29 31  1  0
 30 52  1  0
 31 32  1  0
 31 53  1  6
 31 39  1  0
 33 32  1  1
 33 38  1  0
 33 34  1  0
 33 39  1  0
 34 35  1  0
 34 54  1  0
 34 55  1  0
 35 38  1  0
 35 36  1  1
 35 37  1  0
 36 56  1  0
 38 37  1  6
M  END
>  <i_m_ct_stereo_status>  (47) 
1

>  <s_m_source_file>  (47) 
/var/tmp/pbs.5076253.sched01/tmp9xbr3gte/40_qt8sgg8.sdf

>  <i_m_source_file_index>  (47) 
7

>  <i_lp_mmshare_version>  (47) 
48012

>  <i_f3d_flags>  (47) 
1

>  <s_epik_input>  (47) 
W0NIXT0xW0NIMl1DKD1PKVtDQF0yKEMxW0NAQEhdKE8zKVtDQF0zNDUpW0NAQF02N1tDQF04KFtDQF0oTzgpKFtDSDJdNylbT0hdKVtDQF0oW09IXSkoW0NAQEhdMk82KVtDQEhdNFtDQEhdOVtDQEhdKE85KVtDQEBdMTJbQ0BdMyhbQ0BASF01TzMpW0NASF0oW09IXSlPQzM0W0NAXTUoW0NASF0oTzUpW0NASF0yTzEpT0MzPU40

>  <s_epik_cmdline>  (47) 
J2VwaWtfcHl0aG9uJywgJy1waHQnLCAnMi4wJywgJy1waCcsICc3LjAnLCAnLXRuJywgJzgnLCAnLW1hJywgJzIwMCcsICctaW1hZScsICc8aW5maWxlLm1hZT4nLCAnLW9tYWUnLCAnPG91dGZpbGUubWFlPic=

>  <r_lp_tautomer_probability>  (47) 
1

>  <r_epik_Ionization_Penalty>  (47) 
0.000359221

>  <r_epik_Ionization_Penalty_Charging>  (47) 
0

>  <r_epik_Ionization_Penalty_Neutral>  (47) 
0.000359221

>  <r_epik_State_Penalty>  (47) 
-0

>  <r_epik_Charging_Adjusted_Penalty>  (47) 
0

>  <i_epik_Tot_Q>  (47) 
0

>  <i_epik_Tot_abs_Q>  (47) 
0

>  <s_epik_Chemistry_Notes>  (47) 
This compound has an imine and may undergo hydrolysis. This compound contains an acetal/aminal-like group ( X-CH(R)-Y where X, Y are N, S, or O) that may be acid/base labile, releasing an aldehyde.

>  <s_lp_Force_Field>  (47) 
OPLS3e

>  <r_lp_Energy>  (47) 
168.877

>  <b_lp_Chiralities_Consistent>  (47) 
1

>  <s_lp_Variant>  (47) 
31:0-1

>  <s_i_glide_gridfile>  (47) 
pfpi4k_grid

>  <i_i_glide_lignum>  (47) 
7

>  <i_i_glide_rotatable_bonds>  (47) 
3

>  <r_i_docking_score>  (47) 
-2.92269

>  <r_i_glide_ligand_efficiency>  (47) 
-0.0749407

>  <r_i_glide_ligand_efficiency_sa>  (47) 
-0.25414

>  <r_i_glide_ligand_efficiency_ln>  (47) 
-0.626707

>  <r_i_glide_gscore>  (47) 
-2.92269

>  <r_i_glide_lipo>  (47) 
-0.425875

>  <r_i_glide_hbond>  (47) 
0

>  <r_i_glide_metal>  (47) 
-0

>  <r_i_glide_rewards>  (47) 
0

>  <r_i_glide_evdw>  (47) 
-29.5136

>  <r_i_glide_ecoul>  (47) 
-6.08145

>  <r_i_glide_erotb>  (47) 
0

>  <r_i_glide_esite>  (47) 
-0.108913

>  <r_i_glide_emodel>  (47) 
-39.0817

>  <r_i_glide_energy>  (47) 
-35.595

>  <r_i_glide_einternal>  (47) 
1.2484

>  <r_i_glide_intrahb_reward>  (47) 
-0

>  <i_i_glide_confnum>  (47) 
1

>  <i_i_glide_posenum>  (47) 
1

>  <r_i_glide_eff_state_penalty>  (47) 
0

>  <ligand_id>  (47) 
31

>  <original_smiles>  (47) 
O=C1CC=C2C3OC34C(C3OC3C35OC3C3OC36OC3=NC36OC(O)C53OC43)C3(O)C4OC5(CC6(O)OC635)C124

>  <smiles>  (47) 
[H]OC1([H])OC23N=C2OC32OC2([H])C2([H])OC23C2([H])OC2([H])C2([H])C4(OC4([H])C4([H])C([H])=C([H])C(=O)C45C4([H])OC56C([H])([H])C5(O[H])OC56C42O[H])C2([H])OC123

$$$$
31:0:2
     RDKit          3D

 56 70  0  0  1  0  0  0  0  0999 V2000
    3.9951   -7.9165    8.5098 O   0  0  0  0  0  0  0  0  0  0  0  0
    3.5013   -7.0735    7.7621 C   0  0  0  0  0  0  0  0  0  0  0  0
    3.0544   -5.7680    8.2307 C   0  0  0  0  0  0  0  0  0  0  0  0
    2.8266   -4.9857    7.1771 C   0  0  0  0  0  0  0  0  0  0  0  0
    3.1995   -5.6546    5.8716 C   0  0  2  0  0  0  0  0  0  0  0  0
    2.4804   -5.1584    4.6241 C   0  0  2  0  0  0  0  0  0  0  0  0
    1.4833   -5.9227    3.9782 O   0  0  0  0  0  0  0  0  0  0  0  0
    2.7112   -5.7450    3.2376 C   0  0  2  0  0  0  0  0  0  0  0  0
    3.5872   -7.0302    3.0074 C   0  0  2  0  0  0  0  0  0  0  0  0
    3.6594   -7.4081    1.5294 C   0  0  2  0  0  0  0  0  0  0  0  0
    4.9835   -7.7196    1.0827 O   0  0  0  0  0  0  0  0  0  0  0  0
    4.3646   -6.5872    0.4841 C   0  0  2  0  0  0  0  0  0  0  0  0
    4.7933   -5.1903    0.8703 C   0  0  1  0  0  0  0  0  0  0  0  0
    5.7211   -5.1689    1.9634 O   0  0  0  0  0  0  0  0  0  0  0  0
    6.2267   -4.6970    0.7270 C   0  0  2  0  0  0  0  0  0  0  0  0
    6.6017   -3.2380    0.7751 C   0  0  1  0  0  0  0  0  0  0  0  0
    7.3983   -2.7143   -0.3372 O   0  0  0  0  0  0  0  0  0  0  0  0
    6.0242   -2.3661   -0.2627 C   0  0  2  0  0  0  0  0  0  0  0  0
    5.6164   -1.0268   -0.1113 O   0  0  0  0  0  0  0  0  0  0  0  0
    4.5859   -1.0940   -1.0158 C   0  0  0  0  0  0  0  0  0  0  0  0
    4.9069   -1.3933   -2.2308 N   0  0  0  0  0  0  0  0  0  0  0  0
    5.0110   -2.5460   -1.3181 C   0  0  1  0  0  0  0  0  0  0  0  0
    3.9614   -3.4979   -1.2923 O   0  0  0  0  0  0  0  0  0  0  0  0
    3.0197   -3.5506   -0.2397 C   0  0  1  0  0  0  0  0  0  0  0  0
    1.9267   -4.3002   -0.6971 O   0  0  0  0  0  0  0  0  0  0  0  0
    3.5986   -4.2717    1.0211 C   0  0  2  0  0  0  0  0  0  0  0  0
    3.5139   -3.5744    2.2639 O   0  0  0  0  0  0  0  0  0  0  0  0
    2.5941   -4.6731    2.1225 C   0  0  2  0  0  0  0  0  0  0  0  0
    3.3877   -8.3163    3.9158 C   0  0  1  0  0  0  0  0  0  0  0  0
    3.9682   -9.4945    3.3748 O   0  0  0  0  0  0  0  0  0  0  0  0
    3.9985   -8.1374    5.3366 C   0  0  2  0  0  0  0  0  0  0  0  0
    3.2603   -9.1759    6.0041 O   0  0  0  0  0  0  0  0  0  0  0  0
    2.1912   -8.2198    5.8451 C   0  0  2  0  0  0  0  0  0  0  0  0
    0.8375   -8.7492    6.2665 C   0  0  0  0  0  0  0  0  0  0  0  0
    0.7317   -9.2786    4.8224 C   0  0  1  0  0  0  0  0  0  0  0  0
    0.6723  -10.6740    4.6245 O   0  0  0  0  0  0  0  0  0  0  0  0
    0.7494   -8.3918    3.6627 O   0  0  0  0  0  0  0  0  0  0  0  0
    1.9666   -8.4462    4.4157 C   0  0  2  0  0  0  0  0  0  0  0  0
    3.2213   -7.1403    6.2518 C   0  0  1  0  0  0  0  0  0  0  0  0
    2.9200   -5.5284    9.2785 H   0  0  0  0  0  0  0  0  0  0  0  0
    4.2298   -5.3290    5.7042 H   0  0  0  0  0  0  0  0  0  0  0  0
    2.4844   -3.9621    7.2299 H   0  0  0  0  0  0  0  0  0  0  0  0
    2.2213   -4.1043    4.6730 H   0  0  0  0  0  0  0  0  0  0  0  0
    4.5937   -6.7162    3.2736 H   0  0  0  0  0  0  0  0  0  0  0  0
    2.8640   -8.0709    1.1828 H   0  0  0  0  0  0  0  0  0  0  0  0
    4.0425   -6.7273   -0.5439 H   0  0  0  0  0  0  0  0  0  0  0  0
    6.9096   -5.3763    0.2213 H   0  0  0  0  0  0  0  0  0  0  0  0
    6.9035   -2.8134    1.7425 H   0  0  0  0  0  0  0  0  0  0  0  0
    2.6186   -2.5591    0.0196 H   0  0  0  0  0  0  0  0  0  0  0  0
    1.8078   -4.0941   -1.6272 H   0  0  0  0  0  0  0  0  0  0  0  0
    1.5710   -4.3464    1.9619 H   0  0  0  0  0  0  0  0  0  0  0  0
    3.7223  -10.2319    3.9234 H   0  0  0  0  0  0  0  0  0  0  0  0
    5.0831   -8.1769    5.4494 H   0  0  0  0  0  0  0  0  0  0  0  0
    0.8991   -9.4971    7.0618 H   0  0  0  0  0  0  0  0  0  0  0  0
    0.1264   -7.9632    6.5165 H   0  0  0  0  0  0  0  0  0  0  0  0
   -0.2364  -10.9454    4.7886 H   0  0  0  0  0  0  0  0  0  0  0  0
  1  2  2  0
 39  2  1  1
  2  3  1  0
  3  4  2  0
  3 40  1  0
  4 42  1  0
  4  5  1  0
  5  6  1  0
  5 41  1  6
  5 39  1  0
  6  8  1  0
  6  7  1  0
  6 43  1  6
  8  7  1  6
  8 28  1  0
  8  9  1  0
  9 10  1  0
  9 29  1  0
  9 44  1  1
 10 12  1  0
 10 11  1  0
 10 45  1  6
 11 12  1  0
 12 13  1  0
 12 46  1  6
 13 15  1  0
 13 26  1  0
 13 14  1  1
 14 15  1  0
 15 16  1  0
 15 47  1  6
 16 18  1  0
 16 17  1  0
 16 48  1  1
 18 17  1  6
 18 22  1  0
 18 19  1  0
 19 20  1  0
 20 22  1  0
 20 21  2  0
 21 22  1  0
 22 23  1  6
 23 24  1  0
 24 25  1  0
 24 26  1  0
 24 49  1  1
 25 50  1  0
 26 28  1  0
 26 27  1  1
 27 28  1  0
 28 51  1  6
 29 38  1  0
 29 30  1  6
 29 31  1  0
 30 52  1  0
 31 32  1  0
 31 53  1  6
 31 39  1  0
 33 32  1  1
 33 38  1  0
 33 34  1  0
 33 39  1  0
 34 35  1  0
 34 54  1  0
 34 55  1  0
 35 38  1  0
 35 36  1  1
 35 37  1  0
 36 56  1  0
 38 37  1  6
M  END
>  <i_m_ct_stereo_status>  (48) 
1

>  <s_m_source_file>  (48) 
/var/tmp/pbs.5076253.sched01/tmp9xbr3gte/40_qt8sgg8.sdf

>  <i_m_source_file_index>  (48) 
7

>  <i_lp_mmshare_version>  (48) 
48012

>  <i_f3d_flags>  (48) 
1

>  <s_epik_input>  (48) 
W0NIXT0xW0NIMl1DKD1PKVtDQF0yKEMxW0NAQEhdKE8zKVtDQF0zNDUpW0NAQF02N1tDQF04KFtDQF0oTzgpKFtDSDJdNylbT0hdKVtDQF0oW09IXSkoW0NAQEhdMk82KVtDQEhdNFtDQEhdOVtDQEhdKE85KVtDQEBdMTJbQ0BdMyhbQ0BASF01TzMpW0NASF0oW09IXSlPQzM0W0NAXTUoW0NASF0oTzUpW0NASF0yTzEpT0MzPU40

>  <s_epik_cmdline>  (48) 
J2VwaWtfcHl0aG9uJywgJy1waHQnLCAnMi4wJywgJy1waCcsICc3LjAnLCAnLXRuJywgJzgnLCAnLW1hJywgJzIwMCcsICctaW1hZScsICc8aW5maWxlLm1hZT4nLCAnLW9tYWUnLCAnPG91dGZpbGUubWFlPic=

>  <r_lp_tautomer_probability>  (48) 
1

>  <r_epik_Ionization_Penalty>  (48) 
0.000359221

>  <r_epik_Ionization_Penalty_Charging>  (48) 
0

>  <r_epik_Ionization_Penalty_Neutral>  (48) 
0.000359221

>  <r_epik_State_Penalty>  (48) 
-0

>  <r_epik_Charging_Adjusted_Penalty>  (48) 
0

>  <i_epik_Tot_Q>  (48) 
0

>  <i_epik_Tot_abs_Q>  (48) 
0

>  <s_epik_Chemistry_Notes>  (48) 
This compound has an imine and may undergo hydrolysis. This compound contains an acetal/aminal-like group ( X-CH(R)-Y where X, Y are N, S, or O) that may be acid/base labile, releasing an aldehyde.

>  <s_lp_Force_Field>  (48) 
OPLS3e

>  <r_lp_Energy>  (48) 
168.877

>  <b_lp_Chiralities_Consistent>  (48) 
1

>  <s_lp_Variant>  (48) 
31:0-1

>  <s_i_glide_gridfile>  (48) 
pfpi4k_grid

>  <i_i_glide_lignum>  (48) 
7

>  <i_i_glide_rotatable_bonds>  (48) 
3

>  <r_i_docking_score>  (48) 
-2.65249

>  <r_i_glide_ligand_efficiency>  (48) 
-0.0680127

>  <r_i_glide_ligand_efficiency_sa>  (48) 
-0.230645

>  <r_i_glide_ligand_efficiency_ln>  (48) 
-0.56877

>  <r_i_glide_gscore>  (48) 
-2.65249

>  <r_i_glide_lipo>  (48) 
-0.456487

>  <r_i_glide_hbond>  (48) 
0

>  <r_i_glide_metal>  (48) 
-0

>  <r_i_glide_rewards>  (48) 
0

>  <r_i_glide_evdw>  (48) 
-29.4861

>  <r_i_glide_ecoul>  (48) 
-4.0851

>  <r_i_glide_erotb>  (48) 
0

>  <r_i_glide_esite>  (48) 
-0.108937

>  <r_i_glide_emodel>  (48) 
-36.5215

>  <r_i_glide_energy>  (48) 
-33.5712

>  <r_i_glide_einternal>  (48) 
1.07918

>  <r_i_glide_intrahb_reward>  (48) 
-0

>  <i_i_glide_confnum>  (48) 
2

>  <i_i_glide_posenum>  (48) 
6

>  <r_i_glide_eff_state_penalty>  (48) 
0

>  <ligand_id>  (48) 
31

>  <original_smiles>  (48) 
O=C1CC=C2C3OC34C(C3OC3C35OC3C3OC36OC3=NC36OC(O)C53OC43)C3(O)C4OC5(CC6(O)OC635)C124

>  <smiles>  (48) 
[H]OC1([H])OC23N=C2OC32OC2([H])C2([H])OC23C2([H])OC2([H])C2([H])C4(OC4([H])C4([H])C([H])=C([H])C(=O)C45C4([H])OC56C([H])([H])C5(O[H])OC56C42O[H])C2([H])OC123

$$$$
32:0:0
     RDKit          3D

 77 82  0  0  1  0  0  0  0  0999 V2000
    0.4333   -2.1946    4.1750 C   0  0  0  0  0  0  0  0  0  0  0  0
    1.3562   -2.7383    3.2330 O   0  0  0  0  0  0  0  0  0  0  0  0
    2.7600   -2.4960    3.4059 C   0  0  2  0  0  0  0  0  0  0  0  0
    3.1983   -2.3353    4.8383 C   0  0  0  0  0  0  0  0  0  0  0  0
    3.4654   -1.0333    4.7730 C   0  0  0  0  0  0  0  0  0  0  0  0
    3.9445    0.0510    5.7417 C   0  0  0  0  0  0  0  0  0  0  0  0
    5.1362    0.8575    5.2077 C   0  0  0  0  0  0  0  0  0  0  0  0
    4.2223   -0.4797    7.1595 C   0  0  0  0  0  0  0  0  0  0  0  0
    3.0640   -0.9449    3.2885 C   0  0  1  0  0  0  0  0  0  0  0  0
    4.1292   -0.4391    2.3102 C   0  0  0  0  0  0  0  0  0  0  0  0
    3.8192   -1.0038    1.0448 O   0  0  0  0  0  0  0  0  0  0  0  0
    4.6053   -0.5190   -0.0232 C   0  0  0  0  0  0  0  0  0  0  0  0
    4.5264   -1.4156   -1.2521 C   0  0  0  0  0  0  0  0  0  0  0  0
    3.4174   -1.3570   -2.1196 C   0  0  0  0  0  0  0  0  0  0  0  0
    3.3384   -2.1952   -3.2486 C   0  0  0  0  0  0  0  0  0  0  0  0
    4.3777   -3.1055   -3.5188 C   0  0  0  0  0  0  0  0  0  0  0  0
    5.4980   -3.1572   -2.6702 C   0  0  0  0  0  0  0  0  0  0  0  0
    5.5751   -2.3112   -1.5464 C   0  0  0  0  0  0  0  0  0  0  0  0
    3.5180   -3.3430    5.7113 O   0  0  0  0  0  0  0  0  0  0  0  0
    4.0972   -4.5261    5.1275 C   0  0  0  0  0  0  0  0  0  0  0  0
    5.6015   -4.1828    5.2006 C   0  0  0  0  0  0  0  0  0  0  0  0
    3.8449   -5.6579    6.1530 C   0  0  0  0  0  0  0  0  0  0  0  0
    3.5933   -4.9144    3.6566 C   0  0  2  0  0  0  0  0  0  0  0  0
    2.1535   -5.5290    3.6726 C   0  0  0  0  0  0  0  0  0  0  0  0
    2.0379   -6.8148    4.2756 O   0  0  0  0  0  0  0  0  0  0  0  0
    2.1665   -7.9412    3.4174 C   0  0  2  0  0  0  0  0  0  0  0  0
    2.4306   -9.2025    4.2495 C   0  0  1  0  0  0  0  0  0  0  0  0
    1.2014  -10.0781    4.5220 C   0  0  0  0  0  0  0  0  0  0  0  0
    3.4306   -9.9470    3.5572 O   0  0  0  0  0  0  0  0  0  0  0  0
    3.7627   -9.3257    2.3558 C   0  0  1  0  0  0  0  0  0  0  0  0
    3.0340   -9.8528    1.2749 O   0  0  0  0  0  0  0  0  0  0  0  0
    3.3996   -7.8567    2.5469 C   0  0  2  0  0  0  0  0  0  0  0  0
    4.4445   -7.2044    3.2524 O   0  0  0  0  0  0  0  0  0  0  0  0
    4.5739   -5.8746    2.9506 C   0  0  0  0  0  0  0  0  0  0  0  0
    5.4915   -5.4912    2.0483 C   0  0  0  0  0  0  0  0  0  0  0  0
    5.7174   -4.0772    1.7450 C   0  0  0  0  0  0  0  0  0  0  0  0
    6.6960   -3.6934    1.1184 O   0  0  0  0  0  0  0  0  0  0  0  0
    4.8364   -3.2310    2.3250 O   0  0  0  0  0  0  0  0  0  0  0  0
    3.5374   -3.6467    2.7443 C   0  0  2  0  0  0  0  0  0  0  0  0
   -0.5709   -2.4494    3.8504 H   0  0  0  0  0  0  0  0  0  0  0  0
    0.4705   -1.1093    4.2506 H   0  0  0  0  0  0  0  0  0  0  0  0
    0.5677   -2.6187    5.1694 H   0  0  0  0  0  0  0  0  0  0  0  0
    3.1080    0.7442    5.8317 H   0  0  0  0  0  0  0  0  0  0  0  0
    4.8875    1.3452    4.2666 H   0  0  0  0  0  0  0  0  0  0  0  0
    6.0061    0.2193    5.0508 H   0  0  0  0  0  0  0  0  0  0  0  0
    5.4176    1.6541    5.8980 H   0  0  0  0  0  0  0  0  0  0  0  0
    3.3365   -0.9362    7.5982 H   0  0  0  0  0  0  0  0  0  0  0  0
    4.5267    0.3252    7.8288 H   0  0  0  0  0  0  0  0  0  0  0  0
    5.0196   -1.2192    7.1561 H   0  0  0  0  0  0  0  0  0  0  0  0
    2.1449   -0.3834    3.1260 H   0  0  0  0  0  0  0  0  0  0  0  0
    4.0991    0.6482    2.2444 H   0  0  0  0  0  0  0  0  0  0  0  0
    5.1403   -0.7145    2.6153 H   0  0  0  0  0  0  0  0  0  0  0  0
    4.2216    0.4674   -0.2633 H   0  0  0  0  0  0  0  0  0  0  0  0
    5.6474   -0.4070    0.2760 H   0  0  0  0  0  0  0  0  0  0  0  0
    2.6179   -0.6586   -1.9189 H   0  0  0  0  0  0  0  0  0  0  0  0
    2.4738   -2.1426   -3.8965 H   0  0  0  0  0  0  0  0  0  0  0  0
    4.3173   -3.7625   -4.3747 H   0  0  0  0  0  0  0  0  0  0  0  0
    6.3015   -3.8499   -2.8715 H   0  0  0  0  0  0  0  0  0  0  0  0
    6.4459   -2.3531   -0.9091 H   0  0  0  0  0  0  0  0  0  0  0  0
    6.2429   -5.0034    4.8774 H   0  0  0  0  0  0  0  0  0  0  0  0
    5.8908   -3.9305    6.2221 H   0  0  0  0  0  0  0  0  0  0  0  0
    5.8280   -3.3043    4.6024 H   0  0  0  0  0  0  0  0  0  0  0  0
    4.2350   -6.6184    5.8086 H   0  0  0  0  0  0  0  0  0  0  0  0
    2.7846   -5.7881    6.3623 H   0  0  0  0  0  0  0  0  0  0  0  0
    4.3182   -5.4481    7.1123 H   0  0  0  0  0  0  0  0  0  0  0  0
    1.5096   -4.8944    4.2754 H   0  0  0  0  0  0  0  0  0  0  0  0
    1.7102   -5.5490    2.6739 H   0  0  0  0  0  0  0  0  0  0  0  0
    1.2774   -8.0698    2.7988 H   0  0  0  0  0  0  0  0  0  0  0  0
    2.8784   -8.9118    5.1992 H   0  0  0  0  0  0  0  0  0  0  0  0
    0.4371   -9.5299    5.0732 H   0  0  0  0  0  0  0  0  0  0  0  0
    1.4753  -10.9474    5.1218 H   0  0  0  0  0  0  0  0  0  0  0  0
    0.7595  -10.4422    3.5945 H   0  0  0  0  0  0  0  0  0  0  0  0
    4.8219   -9.4753    2.1314 H   0  0  0  0  0  0  0  0  0  0  0  0
    3.3973  -10.7138    1.0640 H   0  0  0  0  0  0  0  0  0  0  0  0
    3.2054   -7.4008    1.5751 H   0  0  0  0  0  0  0  0  0  0  0  0
    6.1524   -6.1979    1.5661 H   0  0  0  0  0  0  0  0  0  0  0  0
    3.0205   -3.9038    1.8233 H   0  0  0  0  0  0  0  0  0  0  0  0
  1  2  1  0
  1 40  1  0
  1 41  1  0
  1 42  1  0
  3  2  1  1
  3  9  1  0
  3 39  1  0
  3  4  1  0
  4  5  2  0
  4 19  1  0
  5  6  1  0
  5  9  1  0
  6  7  1  0
  6  8  1  0
  6 43  1  0
  7 44  1  0
  7 45  1  0
  7 46  1  0
  8 47  1  0
  8 48  1  0
  8 49  1  0
  9 10  1  0
  9 50  1  1
 10 11  1  0
 10 51  1  0
 10 52  1  0
 11 12  1  0
 12 13  1  0
 12 53  1  0
 12 54  1  0
 13 18  1  0
 13 14  2  0
 14 15  1  0
 14 55  1  0
 15 16  2  0
 15 56  1  0
 16 17  1  0
 16 57  1  0
 17 18  2  0
 17 58  1  0
 18 59  1  0
 19 20  1  0
 20 21  1  0
 20 22  1  0
 23 20  1  1
 21 60  1  0
 21 61  1  0
 21 62  1  0
 22 63  1  0
 22 64  1  0
 22 65  1  0
 23 34  1  0
 23 39  1  0
 23 24  1  0
 24 25  1  0
 24 66  1  0
 24 67  1  0
 25 26  1  0
 26 32  1  0
 26 27  1  0
 26 68  1  6
 27 28  1  0
 27 29  1  0
 27 69  1  1
 28 70  1  0
 28 71  1  0
 28 72  1  0
 29 30  1  0
 30 31  1  0
 30 32  1  0
 30 73  1  6
 31 74  1  0
 32 33  1  0
 32 75  1  6
 33 34  1  0
 34 35  2  0
 35 36  1  0
 35 76  1  0
 36 37  2  0
 36 38  1  0
 38 39  1  0
 39 77  1  6
M  END
>  <i_m_ct_stereo_status>  (49) 
1

>  <s_m_source_file>  (49) 
/var/tmp/pbs.5076253.sched01/tmp9xbr3gte/40_qt8sgg8.sdf

>  <i_m_source_file_index>  (49) 
8

>  <i_lp_mmshare_version>  (49) 
48012

>  <i_f3d_flags>  (49) 
0

>  <s_epik_input>  (49) 
W09IXVtDQEBIXTFPW0NASF0oW0NIM10pW0NAQEhdKE9bQ0gyXTIpW0NASF0xT0MoW0NAQF0yMzQpPVtDSF1DKD1PKU9bQ0BASF00W0NAQF01KE9bQ0gzXSlDKE9DMyhbQ0gzXSlbQ0gzXSk9QyhbQ0hdKFtDSDNdKVtDSDNdKVtDQEhdNVtDSDJdT1tDSDJdYzZbY0hdW2NIXVtjSF1bY0hdW2NIXTY=

>  <s_epik_cmdline>  (49) 
J2VwaWtfcHl0aG9uJywgJy1waHQnLCAnMi4wJywgJy1waCcsICc3LjAnLCAnLXRuJywgJzgnLCAnLW1hJywgJzIwMCcsICctaW1hZScsICc8aW5maWxlLm1hZT4nLCAnLW9tYWUnLCAnPG91dGZpbGUubWFlPic=

>  <r_lp_tautomer_probability>  (49) 
1

>  <r_epik_Ionization_Penalty>  (49) 
2.69677e-06

>  <r_epik_Ionization_Penalty_Charging>  (49) 
0

>  <r_epik_Ionization_Penalty_Neutral>  (49) 
2.69677e-06

>  <r_epik_State_Penalty>  (49) 
-0

>  <r_epik_Charging_Adjusted_Penalty>  (49) 
0

>  <i_epik_Tot_Q>  (49) 
0

>  <i_epik_Tot_abs_Q>  (49) 
0

>  <s_epik_Chemistry_Notes>  (49) 
This compound has an ester and may undergo hydrolysis at high or low pH. This compound contains an acetal/aminal-like group ( X-CH(R)-Y where X, Y are N, S, or O) that may be acid/base labile, releasing an aldehyde.

>  <s_lp_Force_Field>  (49) 
OPLS3e

>  <r_lp_Energy>  (49) 
43.7489

>  <b_lp_Chiralities_Consistent>  (49) 
1

>  <s_lp_Variant>  (49) 
32:0-1

>  <s_i_glide_gridfile>  (49) 
pfpi4k_grid

>  <i_i_glide_lignum>  (49) 
8

>  <i_i_glide_rotatable_bonds>  (49) 
7

>  <r_i_docking_score>  (49) 
-2.41774

>  <r_i_glide_ligand_efficiency>  (49) 
-0.0619934

>  <r_i_glide_ligand_efficiency_sa>  (49) 
-0.210233

>  <r_i_glide_ligand_efficiency_ln>  (49) 
-0.518433

>  <r_i_glide_gscore>  (49) 
-2.41774

>  <r_i_glide_lipo>  (49) 
-0.748173

>  <r_i_glide_hbond>  (49) 
0

>  <r_i_glide_metal>  (49) 
-0

>  <r_i_glide_rewards>  (49) 
-0.0668354

>  <r_i_glide_evdw>  (49) 
-28.796

>  <r_i_glide_ecoul>  (49) 
-2.29144

>  <r_i_glide_erotb>  (49) 
0.210786

>  <r_i_glide_esite>  (49) 
-0.030007

>  <r_i_glide_emodel>  (49) 
-34.5623

>  <r_i_glide_energy>  (49) 
-31.0874

>  <r_i_glide_einternal>  (49) 
2.3061

>  <r_i_glide_intrahb_reward>  (49) 
-0

>  <i_i_glide_confnum>  (49) 
1

>  <i_i_glide_posenum>  (49) 
21

>  <r_i_glide_eff_state_penalty>  (49) 
0

>  <ligand_id>  (49) 
32

>  <original_smiles>  (49) 
COC12C(=C(C(C)C)C1COCc1ccccc1)OC(C)(C)C13COC4C(C)OC(O)C4OC1=CC(=O)OC23

>  <smiles>  (49) 
[H]OC1([H])OC([H])(C([H])([H])[H])C2([H])OC([H])([H])C34C(=C([H])C(=O)OC3([H])C3(OC([H])([H])[H])C(=C(C([H])(C([H])([H])[H])C([H])([H])[H])C3([H])C([H])([H])OC([H])([H])c3c([H])c([H])c([H])c([H])c3[H])OC4(C([H])([H])[H])C([H])([H])[H])OC12[H]

$$$$
32:0:1
     RDKit          3D

 77 82  0  0  1  0  0  0  0  0999 V2000
    1.1432   -1.3927    2.3164 C   0  0  0  0  0  0  0  0  0  0  0  0
    2.1118   -2.4358    2.4097 O   0  0  0  0  0  0  0  0  0  0  0  0
    2.8626   -2.5747    3.6244 C   0  0  2  0  0  0  0  0  0  0  0  0
    2.1304   -2.1732    4.8862 C   0  0  0  0  0  0  0  0  0  0  0  0
    2.8424   -1.0751    5.1262 C   0  0  0  0  0  0  0  0  0  0  0  0
    2.8514    0.0375    6.1751 C   0  0  0  0  0  0  0  0  0  0  0  0
    2.5041    1.4014    5.5475 C   0  0  0  0  0  0  0  0  0  0  0  0
    4.1785    0.1150    6.9437 C   0  0  0  0  0  0  0  0  0  0  0  0
    3.7130   -1.2620    3.8817 C   0  0  1  0  0  0  0  0  0  0  0  0
    5.2333   -1.3536    4.0688 C   0  0  0  0  0  0  0  0  0  0  0  0
    5.7747   -1.9249    2.8788 O   0  0  0  0  0  0  0  0  0  0  0  0
    5.8588   -1.0274    1.7819 C   0  0  0  0  0  0  0  0  0  0  0  0
    6.1563   -1.7460    0.4863 C   0  0  0  0  0  0  0  0  0  0  0  0
    5.0869   -2.1414   -0.3426 C   0  0  0  0  0  0  0  0  0  0  0  0
    5.3468   -2.7965   -1.5576 C   0  0  0  0  0  0  0  0  0  0  0  0
    6.6747   -3.0516   -1.9393 C   0  0  0  0  0  0  0  0  0  0  0  0
    7.7452   -2.6657   -1.1143 C   0  0  0  0  0  0  0  0  0  0  0  0
    7.4853   -2.0047    0.1012 C   0  0  0  0  0  0  0  0  0  0  0  0
    1.2991   -2.9637    5.6358 O   0  0  0  0  0  0  0  0  0  0  0  0
    1.6022   -4.3712    5.6411 C   0  0  0  0  0  0  0  0  0  0  0  0
    2.5465   -4.4725    6.8602 C   0  0  0  0  0  0  0  0  0  0  0  0
    0.2734   -5.0583    6.0356 C   0  0  0  0  0  0  0  0  0  0  0  0
    2.2257   -4.9741    4.2940 C   0  0  2  0  0  0  0  0  0  0  0  0
    1.1541   -5.1246    3.1638 C   0  0  0  0  0  0  0  0  0  0  0  0
    0.1421   -6.1065    3.3795 O   0  0  0  0  0  0  0  0  0  0  0  0
    0.3904   -7.4113    2.8774 C   0  0  2  0  0  0  0  0  0  0  0  0
   -0.5564   -8.4162    3.5441 C   0  0  1  0  0  0  0  0  0  0  0  0
   -1.7939   -8.7867    2.7201 C   0  0  0  0  0  0  0  0  0  0  0  0
    0.2200   -9.5763    3.8219 O   0  0  0  0  0  0  0  0  0  0  0  0
    1.5176   -9.4237    3.3566 C   0  0  1  0  0  0  0  0  0  0  0  0
    1.6833   -9.9918    2.0816 O   0  0  0  0  0  0  0  0  0  0  0  0
    1.7545   -7.9260    3.2784 C   0  0  2  0  0  0  0  0  0  0  0  0
    2.0970   -7.4284    4.5638 O   0  0  0  0  0  0  0  0  0  0  0  0
    2.9147   -6.3322    4.5462 C   0  0  0  0  0  0  0  0  0  0  0  0
    4.2403   -6.4889    4.6936 C   0  0  0  0  0  0  0  0  0  0  0  0
    5.1464   -5.3364    4.7218 C   0  0  0  0  0  0  0  0  0  0  0  0
    6.3243   -5.4265    5.0489 O   0  0  0  0  0  0  0  0  0  0  0  0
    4.5627   -4.1466    4.4569 O   0  0  0  0  0  0  0  0  0  0  0  0
    3.3413   -4.0368    3.7307 C   0  0  2  0  0  0  0  0  0  0  0  0
    0.7042   -1.4423    1.3269 H   0  0  0  0  0  0  0  0  0  0  0  0
    1.5532   -0.3904    2.4148 H   0  0  0  0  0  0  0  0  0  0  0  0
    0.3387   -1.5052    3.0431 H   0  0  0  0  0  0  0  0  0  0  0  0
    2.0675   -0.1977    6.8936 H   0  0  0  0  0  0  0  0  0  0  0  0
    1.5194    1.3980    5.0806 H   0  0  0  0  0  0  0  0  0  0  0  0
    3.2279    1.7051    4.7925 H   0  0  0  0  0  0  0  0  0  0  0  0
    2.4885    2.1854    6.3035 H   0  0  0  0  0  0  0  0  0  0  0  0
    4.3888   -0.8215    7.4614 H   0  0  0  0  0  0  0  0  0  0  0  0
    4.1527    0.9133    7.6879 H   0  0  0  0  0  0  0  0  0  0  0  0
    5.0132    0.3376    6.2828 H   0  0  0  0  0  0  0  0  0  0  0  0
    3.4926   -0.4914    3.1501 H   0  0  0  0  0  0  0  0  0  0  0  0
    5.6920   -0.3846    4.2660 H   0  0  0  0  0  0  0  0  0  0  0  0
    5.5036   -1.9677    4.9291 H   0  0  0  0  0  0  0  0  0  0  0  0
    4.9350   -0.4716    1.6251 H   0  0  0  0  0  0  0  0  0  0  0  0
    6.6130   -0.2910    2.0024 H   0  0  0  0  0  0  0  0  0  0  0  0
    4.0676   -1.9430   -0.0456 H   0  0  0  0  0  0  0  0  0  0  0  0
    4.5270   -3.1071   -2.1870 H   0  0  0  0  0  0  0  0  0  0  0  0
    6.8723   -3.5576   -2.8695 H   0  0  0  0  0  0  0  0  0  0  0  0
    8.7635   -2.8598   -1.4204 H   0  0  0  0  0  0  0  0  0  0  0  0
    8.3033   -1.6936    0.7344 H   0  0  0  0  0  0  0  0  0  0  0  0
    2.8134   -5.5030    7.0981 H   0  0  0  0  0  0  0  0  0  0  0  0
    2.0670   -4.0484    7.7439 H   0  0  0  0  0  0  0  0  0  0  0  0
    3.4611   -3.9013    6.7095 H   0  0  0  0  0  0  0  0  0  0  0  0
    0.3695   -6.1453    6.0640 H   0  0  0  0  0  0  0  0  0  0  0  0
   -0.5345   -4.8158    5.3463 H   0  0  0  0  0  0  0  0  0  0  0  0
   -0.0653   -4.7437    7.0222 H   0  0  0  0  0  0  0  0  0  0  0  0
    0.6192   -4.1816    3.0937 H   0  0  0  0  0  0  0  0  0  0  0  0
    1.6110   -5.2861    2.1840 H   0  0  0  0  0  0  0  0  0  0  0  0
    0.2799   -7.4377    1.7935 H   0  0  0  0  0  0  0  0  0  0  0  0
   -0.8719   -8.0249    4.5127 H   0  0  0  0  0  0  0  0  0  0  0  0
   -2.4122   -7.9128    2.5178 H   0  0  0  0  0  0  0  0  0  0  0  0
   -2.4034   -9.4990    3.2753 H   0  0  0  0  0  0  0  0  0  0  0  0
   -1.5213   -9.2506    1.7712 H   0  0  0  0  0  0  0  0  0  0  0  0
    2.2221   -9.9270    4.0200 H   0  0  0  0  0  0  0  0  0  0  0  0
    0.9940   -9.6892    1.5061 H   0  0  0  0  0  0  0  0  0  0  0  0
    2.5250   -7.7077    2.5369 H   0  0  0  0  0  0  0  0  0  0  0  0
    4.6872   -7.4618    4.8524 H   0  0  0  0  0  0  0  0  0  0  0  0
    3.5999   -4.3811    2.7299 H   0  0  0  0  0  0  0  0  0  0  0  0
  1  2  1  0
  1 40  1  0
  1 41  1  0
  1 42  1  0
  3  2  1  6
  3  9  1  0
  3 39  1  0
  3  4  1  0
  4  5  2  0
  4 19  1  0
  5  6  1  0
  5  9  1  0
  6  7  1  0
  6  8  1  0
  6 43  1  0
  7 44  1  0
  7 45  1  0
  7 46  1  0
  8 47  1  0
  8 48  1  0
  8 49  1  0
  9 10  1  0
  9 50  1  6
 10 11  1  0
 10 51  1  0
 10 52  1  0
 11 12  1  0
 12 13  1  0
 12 53  1  0
 12 54  1  0
 13 18  1  0
 13 14  2  0
 14 15  1  0
 14 55  1  0
 15 16  2  0
 15 56  1  0
 16 17  1  0
 16 57  1  0
 17 18  2  0
 17 58  1  0
 18 59  1  0
 19 20  1  0
 20 21  1  0
 20 22  1  0
 23 20  1  1
 21 60  1  0
 21 61  1  0
 21 62  1  0
 22 63  1  0
 22 64  1  0
 22 65  1  0
 23 34  1  0
 23 39  1  0
 23 24  1  0
 24 25  1  0
 24 66  1  0
 24 67  1  0
 25 26  1  0
 26 32  1  0
 26 27  1  0
 26 68  1  6
 27 28  1  0
 27 29  1  0
 27 69  1  1
 28 70  1  0
 28 71  1  0
 28 72  1  0
 29 30  1  0
 30 31  1  0
 30 32  1  0
 30 73  1  1
 31 74  1  0
 32 33  1  0
 32 75  1  6
 33 34  1  0
 34 35  2  0
 35 36  1  0
 35 76  1  0
 36 37  2  0
 36 38  1  0
 38 39  1  0
 39 77  1  6
M  END
>  <i_m_ct_stereo_status>  (50) 
1

>  <s_m_source_file>  (50) 
/var/tmp/pbs.5076253.sched01/tmp9xbr3gte/40_qt8sgg8.sdf

>  <i_m_source_file_index>  (50) 
8

>  <i_lp_mmshare_version>  (50) 
48012

>  <i_f3d_flags>  (50) 
0

>  <s_epik_input>  (50) 
W09IXVtDQEBIXTFPW0NASF0oW0NIM10pW0NAQEhdKE9bQ0gyXTIpW0NASF0xT0MoW0NAQF0yMzQpPVtDSF1DKD1PKU9bQ0BASF00W0NAQF01KE9bQ0gzXSlDKE9DMyhbQ0gzXSlbQ0gzXSk9QyhbQ0hdKFtDSDNdKVtDSDNdKVtDQEhdNVtDSDJdT1tDSDJdYzZbY0hdW2NIXVtjSF1bY0hdW2NIXTY=

>  <s_epik_cmdline>  (50) 
J2VwaWtfcHl0aG9uJywgJy1waHQnLCAnMi4wJywgJy1waCcsICc3LjAnLCAnLXRuJywgJzgnLCAnLW1hJywgJzIwMCcsICctaW1hZScsICc8aW5maWxlLm1hZT4nLCAnLW9tYWUnLCAnPG91dGZpbGUubWFlPic=

>  <r_lp_tautomer_probability>  (50) 
1

>  <r_epik_Ionization_Penalty>  (50) 
2.69677e-06

>  <r_epik_Ionization_Penalty_Charging>  (50) 
0

>  <r_epik_Ionization_Penalty_Neutral>  (50) 
2.69677e-06

>  <r_epik_State_Penalty>  (50) 
-0

>  <r_epik_Charging_Adjusted_Penalty>  (50) 
0

>  <i_epik_Tot_Q>  (50) 
0

>  <i_epik_Tot_abs_Q>  (50) 
0

>  <s_epik_Chemistry_Notes>  (50) 
This compound has an ester and may undergo hydrolysis at high or low pH. This compound contains an acetal/aminal-like group ( X-CH(R)-Y where X, Y are N, S, or O) that may be acid/base labile, releasing an aldehyde.

>  <s_lp_Force_Field>  (50) 
OPLS3e

>  <r_lp_Energy>  (50) 
43.7489

>  <b_lp_Chiralities_Consistent>  (50) 
1

>  <s_lp_Variant>  (50) 
32:0-1

>  <s_i_glide_gridfile>  (50) 
pfpi4k_grid

>  <i_i_glide_lignum>  (50) 
8

>  <i_i_glide_rotatable_bonds>  (50) 
7

>  <r_i_docking_score>  (50) 
-2.26033

>  <r_i_glide_ligand_efficiency>  (50) 
-0.0579571

>  <r_i_glide_ligand_efficiency_sa>  (50) 
-0.196545

>  <r_i_glide_ligand_efficiency_ln>  (50) 
-0.484679

>  <r_i_glide_gscore>  (50) 
-2.26033

>  <r_i_glide_lipo>  (50) 
-0.339153

>  <r_i_glide_hbond>  (50) 
-0.0876181

>  <r_i_glide_metal>  (50) 
-0

>  <r_i_glide_rewards>  (50) 
-1.72128e-05

>  <r_i_glide_evdw>  (50) 
-26.3474

>  <r_i_glide_ecoul>  (50) 
-4.79158

>  <r_i_glide_erotb>  (50) 
0.210786

>  <r_i_glide_esite>  (50) 
-0.00822025

>  <r_i_glide_emodel>  (50) 
-33.9683

>  <r_i_glide_energy>  (50) 
-31.139

>  <r_i_glide_einternal>  (50) 
2.82612

>  <r_i_glide_intrahb_reward>  (50) 
-0

>  <i_i_glide_confnum>  (50) 
1

>  <i_i_glide_posenum>  (50) 
32

>  <r_i_glide_eff_state_penalty>  (50) 
0

>  <ligand_id>  (50) 
32

>  <original_smiles>  (50) 
COC12C(=C(C(C)C)C1COCc1ccccc1)OC(C)(C)C13COC4C(C)OC(O)C4OC1=CC(=O)OC23

>  <smiles>  (50) 
[H]OC1([H])OC([H])(C([H])([H])[H])C2([H])OC([H])([H])C34C(=C([H])C(=O)OC3([H])C3(OC([H])([H])[H])C(=C(C([H])(C([H])([H])[H])C([H])([H])[H])C3([H])C([H])([H])OC([H])([H])c3c([H])c([H])c([H])c([H])c3[H])OC4(C([H])([H])[H])C([H])([H])[H])OC12[H]

$$$$
32:0:2
     RDKit          3D

 77 82  0  0  1  0  0  0  0  0999 V2000
    0.4730   -2.0523    3.9874 C   0  0  0  0  0  0  0  0  0  0  0  0
    1.3693   -2.6128    3.0320 O   0  0  0  0  0  0  0  0  0  0  0  0
    2.7773   -2.3632    3.1774 C   0  0  2  0  0  0  0  0  0  0  0  0
    3.2360   -2.0734    4.5869 C   0  0  0  0  0  0  0  0  0  0  0  0
    3.4739   -0.7764    4.4077 C   0  0  0  0  0  0  0  0  0  0  0  0
    4.0087    0.3904    5.2434 C   0  0  0  0  0  0  0  0  0  0  0  0
    4.3662   -0.0195    6.6839 C   0  0  0  0  0  0  0  0  0  0  0  0
    2.9970    1.5502    5.2496 C   0  0  0  0  0  0  0  0  0  0  0  0
    3.0766   -0.8277    2.9182 C   0  0  1  0  0  0  0  0  0  0  0  0
    4.1379   -0.4073    1.8911 C   0  0  0  0  0  0  0  0  0  0  0  0
    3.8339   -1.1097    0.6867 O   0  0  0  0  0  0  0  0  0  0  0  0
    4.7324   -0.8872   -0.3806 C   0  0  0  0  0  0  0  0  0  0  0  0
    4.4410   -1.7586   -1.5921 C   0  0  0  0  0  0  0  0  0  0  0  0
    3.4103   -1.4066   -2.4905 C   0  0  0  0  0  0  0  0  0  0  0  0
    3.1299   -2.2175   -3.6088 C   0  0  0  0  0  0  0  0  0  0  0  0
    3.8806   -3.3856   -3.8318 C   0  0  0  0  0  0  0  0  0  0  0  0
    4.9093   -3.7353   -2.9440 C   0  0  0  0  0  0  0  0  0  0  0  0
    5.2025   -2.9177   -1.8402 C   0  0  0  0  0  0  0  0  0  0  0  0
    3.5716   -2.9999    5.5401 O   0  0  0  0  0  0  0  0  0  0  0  0
    4.1357   -4.2342    5.0541 C   0  0  0  0  0  0  0  0  0  0  0  0
    5.6395   -3.8915    5.0754 C   0  0  0  0  0  0  0  0  0  0  0  0
    3.8952   -5.2666    6.1773 C   0  0  0  0  0  0  0  0  0  0  0  0
    3.6108   -4.7498    3.6303 C   0  0  2  0  0  0  0  0  0  0  0  0
    2.1688   -5.3596    3.7189 C   0  0  0  0  0  0  0  0  0  0  0  0
    2.0588   -6.5896    4.4290 O   0  0  0  0  0  0  0  0  0  0  0  0
    2.1770   -7.7872    3.6742 C   0  0  2  0  0  0  0  0  0  0  0  0
    2.4512   -8.9708    4.6092 C   0  0  1  0  0  0  0  0  0  0  0  0
    1.2212   -9.8082    4.9775 C   0  0  0  0  0  0  0  0  0  0  0  0
    3.4273   -9.7819    3.9587 O   0  0  0  0  0  0  0  0  0  0  0  0
    3.7588   -9.2619    2.7098 C   0  0  1  0  0  0  0  0  0  0  0  0
    3.0205   -9.8637    1.6756 O   0  0  0  0  0  0  0  0  0  0  0  0
    3.3982   -7.7831    2.7820 C   0  0  2  0  0  0  0  0  0  0  0  0
    4.4452   -7.0695    3.4146 O   0  0  0  0  0  0  0  0  0  0  0  0
    4.5765   -5.7763    2.9977 C   0  0  0  0  0  0  0  0  0  0  0  0
    5.4936   -5.4814    2.0646 C   0  0  0  0  0  0  0  0  0  0  0  0
    5.7365   -4.0923    1.6605 C   0  0  0  0  0  0  0  0  0  0  0  0
    6.7259   -3.7562    1.0254 O   0  0  0  0  0  0  0  0  0  0  0  0
    4.8473   -3.1950    2.1436 O   0  0  0  0  0  0  0  0  0  0  0  0
    3.5493   -3.5666    2.6110 C   0  0  2  0  0  0  0  0  0  0  0  0
   -0.5389   -2.3161    3.6961 H   0  0  0  0  0  0  0  0  0  0  0  0
    0.5209   -0.9655    4.0360 H   0  0  0  0  0  0  0  0  0  0  0  0
    0.6340   -2.4540    4.9879 H   0  0  0  0  0  0  0  0  0  0  0  0
    4.9261    0.7503    4.7701 H   0  0  0  0  0  0  0  0  0  0  0  0
    5.1487   -0.7773    6.7078 H   0  0  0  0  0  0  0  0  0  0  0  0
    3.5058   -0.4064    7.2300 H   0  0  0  0  0  0  0  0  0  0  0  0
    4.7374    0.8358    7.2485 H   0  0  0  0  0  0  0  0  0  0  0  0
    2.8108    1.9181    4.2417 H   0  0  0  0  0  0  0  0  0  0  0  0
    3.3686    2.3914    5.8338 H   0  0  0  0  0  0  0  0  0  0  0  0
    2.0396    1.2560    5.6816 H   0  0  0  0  0  0  0  0  0  0  0  0
    2.1521   -0.2960    2.7062 H   0  0  0  0  0  0  0  0  0  0  0  0
    4.0954    0.6660    1.7024 H   0  0  0  0  0  0  0  0  0  0  0  0
    5.1520   -0.6290    2.2270 H   0  0  0  0  0  0  0  0  0  0  0  0
    4.6138    0.1399   -0.6854 H   0  0  0  0  0  0  0  0  0  0  0  0
    5.7647   -1.0270   -0.0614 H   0  0  0  0  0  0  0  0  0  0  0  0
    2.8124   -0.5238   -2.3213 H   0  0  0  0  0  0  0  0  0  0  0  0
    2.3281   -1.9539   -4.2847 H   0  0  0  0  0  0  0  0  0  0  0  0
    3.6718   -4.0276   -4.6673 H   0  0  0  0  0  0  0  0  0  0  0  0
    5.4493   -4.6489   -3.0960 H   0  0  0  0  0  0  0  0  0  0  0  0
    6.0107   -3.1997   -1.1870 H   0  0  0  0  0  0  0  0  0  0  0  0
    6.2723   -4.7419    4.8145 H   0  0  0  0  0  0  0  0  0  0  0  0
    5.9420   -3.5508    6.0669 H   0  0  0  0  0  0  0  0  0  0  0  0
    5.8447   -3.0654    4.3990 H   0  0  0  0  0  0  0  0  0  0  0  0
    4.2810   -6.2539    5.9114 H   0  0  0  0  0  0  0  0  0  0  0  0
    2.8358   -5.3748    6.4105 H   0  0  0  0  0  0  0  0  0  0  0  0
    4.3837   -4.9726    7.1058 H   0  0  0  0  0  0  0  0  0  0  0  0
    1.5352   -4.6690    4.2687 H   0  0  0  0  0  0  0  0  0  0  0  0
    1.7155   -5.4652    2.7305 H   0  0  0  0  0  0  0  0  0  0  0  0
    1.2797   -7.9582    3.0834 H   0  0  0  0  0  0  0  0  0  0  0  0
    2.9139   -8.5948    5.5228 H   0  0  0  0  0  0  0  0  0  0  0  0
    0.4678   -9.2079    5.4873 H   0  0  0  0  0  0  0  0  0  0  0  0
    1.5026  -10.6218    5.6487 H   0  0  0  0  0  0  0  0  0  0  0  0
    0.7642  -10.2526    4.0929 H   0  0  0  0  0  0  0  0  0  0  0  0
    4.8159   -9.4242    2.4941 H   0  0  0  0  0  0  0  0  0  0  0  0
    3.4044  -10.7228    1.4861 H   0  0  0  0  0  0  0  0  0  0  0  0
    3.1929   -7.4004    1.7807 H   0  0  0  0  0  0  0  0  0  0  0  0
    6.1369   -6.2287    1.6253 H   0  0  0  0  0  0  0  0  0  0  0  0
    3.0247   -3.9085    1.7178 H   0  0  0  0  0  0  0  0  0  0  0  0
  1  2  1  0
  1 40  1  0
  1 41  1  0
  1 42  1  0
  3  2  1  1
  3  9  1  0
  3 39  1  0
  3  4  1  0
  4  5  2  0
  4 19  1  0
  5  6  1  0
  5  9  1  0
  6  7  1  0
  6  8  1  0
  6 43  1  0
  7 44  1  0
  7 45  1  0
  7 46  1  0
  8 47  1  0
  8 48  1  0
  8 49  1  0
  9 10  1  0
  9 50  1  1
 10 11  1  0
 10 51  1  0
 10 52  1  0
 11 12  1  0
 12 13  1  0
 12 53  1  0
 12 54  1  0
 13 18  1  0
 13 14  2  0
 14 15  1  0
 14 55  1  0
 15 16  2  0
 15 56  1  0
 16 17  1  0
 16 57  1  0
 17 18  2  0
 17 58  1  0
 18 59  1  0
 19 20  1  0
 20 21  1  0
 20 22  1  0
 23 20  1  1
 21 60  1  0
 21 61  1  0
 21 62  1  0
 22 63  1  0
 22 64  1  0
 22 65  1  0
 23 34  1  0
 23 39  1  0
 23 24  1  0
 24 25  1  0
 24 66  1  0
 24 67  1  0
 25 26  1  0
 26 32  1  0
 26 27  1  0
 26 68  1  6
 27 28  1  0
 27 29  1  0
 27 69  1  1
 28 70  1  0
 28 71  1  0
 28 72  1  0
 29 30  1  0
 30 31  1  0
 30 32  1  0
 30 73  1  6
 31 74  1  0
 32 33  1  0
 32 75  1  6
 33 34  1  0
 34 35  2  0
 35 36  1  0
 35 76  1  0
 36 37  2  0
 36 38  1  0
 38 39  1  0
 39 77  1  6
M  END
>  <i_m_ct_stereo_status>  (51) 
1

>  <s_m_source_file>  (51) 
/var/tmp/pbs.5076253.sched01/tmp9xbr3gte/40_qt8sgg8.sdf

>  <i_m_source_file_index>  (51) 
8

>  <i_lp_mmshare_version>  (51) 
48012

>  <i_f3d_flags>  (51) 
0

>  <s_epik_input>  (51) 
W09IXVtDQEBIXTFPW0NASF0oW0NIM10pW0NAQEhdKE9bQ0gyXTIpW0NASF0xT0MoW0NAQF0yMzQpPVtDSF1DKD1PKU9bQ0BASF00W0NAQF01KE9bQ0gzXSlDKE9DMyhbQ0gzXSlbQ0gzXSk9QyhbQ0hdKFtDSDNdKVtDSDNdKVtDQEhdNVtDSDJdT1tDSDJdYzZbY0hdW2NIXVtjSF1bY0hdW2NIXTY=

>  <s_epik_cmdline>  (51) 
J2VwaWtfcHl0aG9uJywgJy1waHQnLCAnMi4wJywgJy1waCcsICc3LjAnLCAnLXRuJywgJzgnLCAnLW1hJywgJzIwMCcsICctaW1hZScsICc8aW5maWxlLm1hZT4nLCAnLW9tYWUnLCAnPG91dGZpbGUubWFlPic=

>  <r_lp_tautomer_probability>  (51) 
1

>  <r_epik_Ionization_Penalty>  (51) 
2.69677e-06

>  <r_epik_Ionization_Penalty_Charging>  (51) 
0

>  <r_epik_Ionization_Penalty_Neutral>  (51) 
2.69677e-06

>  <r_epik_State_Penalty>  (51) 
-0

>  <r_epik_Charging_Adjusted_Penalty>  (51) 
0

>  <i_epik_Tot_Q>  (51) 
0

>  <i_epik_Tot_abs_Q>  (51) 
0

>  <s_epik_Chemistry_Notes>  (51) 
This compound has an ester and may undergo hydrolysis at high or low pH. This compound contains an acetal/aminal-like group ( X-CH(R)-Y where X, Y are N, S, or O) that may be acid/base labile, releasing an aldehyde.

>  <s_lp_Force_Field>  (51) 
OPLS3e

>  <r_lp_Energy>  (51) 
43.7489

>  <b_lp_Chiralities_Consistent>  (51) 
1

>  <s_lp_Variant>  (51) 
32:0-1

>  <s_i_glide_gridfile>  (51) 
pfpi4k_grid

>  <i_i_glide_lignum>  (51) 
8

>  <i_i_glide_rotatable_bonds>  (51) 
7

>  <r_i_docking_score>  (51) 
-2.17574

>  <r_i_glide_ligand_efficiency>  (51) 
-0.0557882

>  <r_i_glide_ligand_efficiency_sa>  (51) 
-0.18919

>  <r_i_glide_ligand_efficiency_ln>  (51) 
-0.466541

>  <r_i_glide_gscore>  (51) 
-2.17574

>  <r_i_glide_lipo>  (51) 
-0.609517

>  <r_i_glide_hbond>  (51) 
0

>  <r_i_glide_metal>  (51) 
-0

>  <r_i_glide_rewards>  (51) 
-0.0723547

>  <r_i_glide_evdw>  (51) 
-29.2518

>  <r_i_glide_ecoul>  (51) 
-1.47596

>  <r_i_glide_erotb>  (51) 
0.210786

>  <r_i_glide_esite>  (51) 
-0.02067

>  <r_i_glide_emodel>  (51) 
-33.5638

>  <r_i_glide_energy>  (51) 
-30.7278

>  <r_i_glide_einternal>  (51) 
2.09562

>  <r_i_glide_intrahb_reward>  (51) 
-0

>  <i_i_glide_confnum>  (51) 
1

>  <i_i_glide_posenum>  (51) 
2

>  <r_i_glide_eff_state_penalty>  (51) 
0

>  <ligand_id>  (51) 
32

>  <original_smiles>  (51) 
COC12C(=C(C(C)C)C1COCc1ccccc1)OC(C)(C)C13COC4C(C)OC(O)C4OC1=CC(=O)OC23

>  <smiles>  (51) 
[H]OC1([H])OC([H])(C([H])([H])[H])C2([H])OC([H])([H])C34C(=C([H])C(=O)OC3([H])C3(OC([H])([H])[H])C(=C(C([H])(C([H])([H])[H])C([H])([H])[H])C3([H])C([H])([H])OC([H])([H])c3c([H])c([H])c([H])c([H])c3[H])OC4(C([H])([H])[H])C([H])([H])[H])OC12[H]

$$$$
34:0:0
     RDKit          3D

 92100  0  0  1  0  0  0  0  0999 V2000
    6.7458   -5.0576    7.9830 C   0  0  0  0  0  0  0  0  0  0  0  0
    5.7891   -4.7124    6.8557 C   0  0  1  0  0  0  0  0  0  0  0  0
    6.3420   -3.9102    5.7099 C   0  0  0  0  0  0  0  0  0  0  0  0
    6.0664   -5.3675    5.4963 C   0  0  2  0  0  0  0  0  0  0  0  0
    5.0890   -5.7005    4.3834 C   0  0  1  0  0  0  0  0  0  0  0  0
    5.5038   -5.2343    2.9744 C   0  0  0  0  0  0  0  0  0  0  0  0
    4.3697   -4.7441    2.2454 O   0  0  0  0  0  0  0  0  0  0  0  0
    4.6679   -4.0218    1.0937 C   0  0  2  0  0  0  0  0  0  0  0  0
    5.2140   -2.7963    1.5063 O   0  0  0  0  0  0  0  0  0  0  0  0
    5.3394   -1.8045    0.4789 C   0  0  2  0  0  0  0  0  0  0  0  0
    6.6923   -1.1209    0.4872 C   0  0  0  0  0  0  0  0  0  0  0  0
    7.5165   -1.8545   -0.3842 O   0  0  0  0  0  0  0  0  0  0  0  0
    4.1808   -0.9408    0.3447 O   0  0  0  0  0  0  0  0  0  0  0  0
    4.4194   -1.8270   -0.7441 C   0  0  1  0  0  0  0  0  0  0  0  0
    4.9190   -1.1792   -2.0288 C   0  0  0  0  0  0  0  0  0  0  0  0
    3.9148   -0.9800   -2.9994 O   0  0  0  0  0  0  0  0  0  0  0  0
    3.5317   -3.0250   -0.9385 C   0  0  1  0  0  0  0  0  0  0  0  0
    4.2394   -3.8707   -1.8289 O   0  0  0  0  0  0  0  0  0  0  0  0
    3.2947   -3.7803    0.3793 C   0  0  1  0  0  0  0  0  0  0  0  0
    2.6261   -4.9805    0.0597 O   0  0  0  0  0  0  0  0  0  0  0  0
    4.6846   -7.0802    4.4760 O   0  0  0  0  0  0  0  0  0  0  0  0
    3.6379   -6.1211    4.5930 C   0  0  1  0  0  0  0  0  0  0  0  0
    2.7925   -6.0812    5.8845 C   0  0  1  0  0  0  0  0  0  0  0  0
    1.5561   -6.8156    5.6972 O   0  0  0  0  0  0  0  0  0  0  0  0
    1.5851   -8.1570    5.2357 C   0  0  2  0  0  0  0  0  0  0  0  0
    1.9904   -8.2823    3.8877 O   0  0  0  0  0  0  0  0  0  0  0  0
    1.1561   -7.5879    2.9392 C   0  0  1  0  0  0  0  0  0  0  0  0
    1.7856   -7.6924    1.5508 C   0  0  0  0  0  0  0  0  0  0  0  0
    0.9159   -7.0827    0.5991 O   0  0  0  0  0  0  0  0  0  0  0  0
   -0.2624   -8.1532    2.9853 C   0  0  1  0  0  0  0  0  0  0  0  0
   -0.2873   -9.4920    2.5099 O   0  0  0  0  0  0  0  0  0  0  0  0
   -0.7767   -8.0924    4.4088 C   0  0  1  0  0  0  0  0  0  0  0  0
   -2.0654   -8.6527    4.4483 O   0  0  0  0  0  0  0  0  0  0  0  0
    0.1770   -8.7691    5.4105 C   0  0  1  0  0  0  0  0  0  0  0  0
    0.1999  -10.1853    5.2088 O   0  0  0  0  0  0  0  0  0  0  0  0
    3.5375   -6.6161    7.1406 C   0  0  0  0  0  0  0  0  0  0  0  0
    3.8903   -5.5570    8.0240 O   0  0  0  0  0  0  0  0  0  0  0  0
    4.3887   -4.3993    7.4060 C   0  0  1  0  0  0  0  0  0  0  0  0
    4.4890   -3.3861    8.3680 O   0  0  0  0  0  0  0  0  0  0  0  0
    3.6045   -3.9238    6.3418 O   0  0  0  0  0  0  0  0  0  0  0  0
    2.3715   -4.6032    6.1286 C   0  0  1  0  0  0  0  0  0  0  0  0
    1.6409   -3.8930    4.9551 C   0  0  0  0  0  0  0  0  0  0  0  0
    0.6927   -2.9488    5.4999 O   0  0  0  0  0  0  0  0  0  0  0  0
    0.7265   -2.9983    6.8878 C   0  0  1  0  0  0  0  0  0  0  0  0
   -0.5285   -3.0285    7.5045 O   0  0  0  0  0  0  0  0  0  0  0  0
   -0.4930   -4.0535    8.5092 C   0  0  1  0  0  0  0  0  0  0  0  0
   -1.8678   -4.7212    8.5094 C   0  0  0  0  0  0  0  0  0  0  0  0
   -2.6216   -4.2449    9.6103 O   0  0  0  0  0  0  0  0  0  0  0  0
    0.6500   -4.9541    8.0984 C   0  0  0  0  0  0  0  0  0  0  0  0
    1.3506   -4.2916    7.1952 C   0  0  0  0  0  0  0  0  0  0  0  0
    6.8821   -4.2102    8.6529 H   0  0  0  0  0  0  0  0  0  0  0  0
    7.7265   -5.3070    7.5736 H   0  0  0  0  0  0  0  0  0  0  0  0
    6.3866   -5.9187    8.5443 H   0  0  0  0  0  0  0  0  0  0  0  0
    5.6799   -3.2125    5.1959 H   0  0  0  0  0  0  0  0  0  0  0  0
    7.3923   -3.6433    5.7518 H   0  0  0  0  0  0  0  0  0  0  0  0
    6.9272   -6.0385    5.4898 H   0  0  0  0  0  0  0  0  0  0  0  0
    6.2160   -4.4143    3.0910 H   0  0  0  0  0  0  0  0  0  0  0  0
    6.0451   -6.0413    2.4589 H   0  0  0  0  0  0  0  0  0  0  0  0
    5.3986   -4.5406    0.4397 H   0  0  0  0  0  0  0  0  0  0  0  0
    6.5896   -0.1166    0.0740 H   0  0  0  0  0  0  0  0  0  0  0  0
    7.1235   -0.9828    1.4894 H   0  0  0  0  0  0  0  0  0  0  0  0
    7.5799   -2.7508   -0.0414 H   0  0  0  0  0  0  0  0  0  0  0  0
    5.3810   -0.2189   -1.8165 H   0  0  0  0  0  0  0  0  0  0  0  0
    5.7033   -1.8217   -2.4327 H   0  0  0  0  0  0  0  0  0  0  0  0
    3.2102   -0.4954   -2.5928 H   0  0  0  0  0  0  0  0  0  0  0  0
    2.5789   -2.6905   -1.3387 H   0  0  0  0  0  0  0  0  0  0  0  0
    3.6275   -4.5071   -2.1711 H   0  0  0  0  0  0  0  0  0  0  0  0
    2.6736   -3.2224    1.0868 H   0  0  0  0  0  0  0  0  0  0  0  0
    3.1401   -5.4192   -0.6049 H   0  0  0  0  0  0  0  0  0  0  0  0
    3.0371   -5.9604    3.7031 H   0  0  0  0  0  0  0  0  0  0  0  0
    2.3298   -8.6911    5.8376 H   0  0  0  0  0  0  0  0  0  0  0  0
    1.0795   -6.5346    3.2011 H   0  0  0  0  0  0  0  0  0  0  0  0
    2.7747   -7.2320    1.5283 H   0  0  0  0  0  0  0  0  0  0  0  0
    1.9457   -8.7332    1.2664 H   0  0  0  0  0  0  0  0  0  0  0  0
    0.2084   -7.7273    0.4305 H   0  0  0  0  0  0  0  0  0  0  0  0
   -0.9093   -7.5291    2.3597 H   0  0  0  0  0  0  0  0  0  0  0  0
    0.2238  -10.0123    3.1515 H   0  0  0  0  0  0  0  0  0  0  0  0
   -0.8612   -7.0444    4.6891 H   0  0  0  0  0  0  0  0  0  0  0  0
   -1.9745   -9.6257    4.4572 H   0  0  0  0  0  0  0  0  0  0  0  0
   -0.1402   -8.5622    6.4349 H   0  0  0  0  0  0  0  0  0  0  0  0
   -0.6807  -10.5563    5.3089 H   0  0  0  0  0  0  0  0  0  0  0  0
    2.8808   -7.2866    7.6991 H   0  0  0  0  0  0  0  0  0  0  0  0
    4.4281   -7.1875    6.8755 H   0  0  0  0  0  0  0  0  0  0  0  0
    3.6402   -3.2757    8.7670 H   0  0  0  0  0  0  0  0  0  0  0  0
    2.3344   -3.4349    4.2486 H   0  0  0  0  0  0  0  0  0  0  0  0
    1.0474   -4.5994    4.3772 H   0  0  0  0  0  0  0  0  0  0  0  0
    1.3758   -2.2300    7.3048 H   0  0  0  0  0  0  0  0  0  0  0  0
   -0.2304   -3.6626    9.4922 H   0  0  0  0  0  0  0  0  0  0  0  0
   -2.4226   -4.5640    7.5830 H   0  0  0  0  0  0  0  0  0  0  0  0
   -1.7115   -5.7915    8.5540 H   0  0  0  0  0  0  0  0  0  0  0  0
   -3.2367   -4.9228    9.8726 H   0  0  0  0  0  0  0  0  0  0  0  0
    0.7657   -5.9894    8.3863 H   0  0  0  0  0  0  0  0  0  0  0  0
  2  1  1  1
  1 51  1  0
  1 52  1  0
  1 53  1  0
  2  4  1  0
  2 38  1  0
  2  3  1  0
  3  4  1  0
  3 54  1  0
  3 55  1  0
  4  5  1  0
  4 56  1  1
  5 22  1  0
  5  6  1  6
  5 21  1  0
  6  7  1  0
  6 57  1  0
  6 58  1  0
  7  8  1  0
  8 19  1  0
  8  9  1  0
  8 59  1  6
  9 10  1  0
 10 14  1  0
 10 11  1  6
 10 13  1  0
 11 12  1  0
 11 60  1  0
 11 61  1  0
 12 62  1  0
 13 14  1  0
 14 15  1  6
 14 17  1  0
 15 16  1  0
 15 63  1  0
 15 64  1  0
 16 65  1  0
 17 18  1  0
 17 19  1  0
 17 66  1  6
 18 67  1  0
 19 20  1  0
 19 68  1  1
 20 69  1  0
 21 22  1  0
 22 23  1  0
 22 70  1  6
 23 41  1  0
 23 24  1  6
 23 36  1  0
 24 25  1  0
 25 34  1  0
 25 26  1  0
 25 71  1  1
 26 27  1  0
 27 28  1  0
 27 30  1  0
 27 72  1  1
 28 29  1  0
 28 73  1  0
 28 74  1  0
 29 75  1  0
 30 31  1  0
 30 32  1  0
 30 76  1  6
 31 77  1  0
 32 33  1  0
 32 34  1  0
 32 78  1  1
 33 79  1  0
 34 35  1  0
 34 80  1  1
 35 81  1  0
 36 37  1  0
 36 82  1  0
 36 83  1  0
 37 38  1  0
 38 39  1  1
 38 40  1  0
 39 84  1  0
 40 41  1  0
 41 50  1  0
 41 42  1  6
 42 43  1  0
 42 85  1  0
 42 86  1  0
 43 44  1  0
 44 50  1  0
 44 45  1  0
 44 87  1  1
 45 46  1  0
 46 47  1  0
 46 49  1  0
 46 88  1  1
 47 48  1  0
 47 89  1  0
 47 90  1  0
 48 91  1  0
 49 50  2  0
 49 92  1  0
M  END
>  <i_m_ct_stereo_status>  (52) 
1

>  <s_m_source_file>  (52) 
/var/tmp/pbs.5076253.sched01/tmp9xbr3gte/40_qt8sgg8.sdf

>  <i_m_source_file_index>  (52) 
10

>  <i_lp_mmshare_version>  (52) 
48012

>  <i_f3d_flags>  (52) 
0

>  <s_epik_input>  (52) 
W09IXVtDSDJdW0NAQF0xMltDQEBdKE8yKShbQ0gyXVtPSF0pW0NAQEhdKFtPSF0pW0NAQEhdKFtPSF0pW0NAQEhdKE8xKU9bQ0gyXVtDQEBdKE8zKShbQ0BASF00W0NAQF0oW0NIM10pKFtDSDJdNClbQ0BdKE81KShbT0hdKU9bQ0gyXTYpW0NAQEhdM1tDQEBdNihbQ0BAXTU3QzhbQ0BASF0oT1tDSDJdNylPW0NASF0oW0NIXT04KVtDSDJdW09IXSlPW0NAQEhdOU9bQ0BASF0oW0NIMl1bT0hdKVtDQEBIXShbT0hdKVtDQEBIXShbT0hdKVtDQEhdOVtPSF0=

>  <s_epik_cmdline>  (52) 
J2VwaWtfcHl0aG9uJywgJy1waHQnLCAnMi4wJywgJy1waCcsICc3LjAnLCAnLXRuJywgJzgnLCAnLW1hJywgJzIwMCcsICctaW1hZScsICc8aW5maWxlLm1hZT4nLCAnLW9tYWUnLCAnPG91dGZpbGUubWFlPic=

>  <r_lp_tautomer_probability>  (52) 
1

>  <r_epik_Ionization_Penalty>  (52) 
9.71394e-05

>  <r_epik_Ionization_Penalty_Charging>  (52) 
0

>  <r_epik_Ionization_Penalty_Neutral>  (52) 
9.71394e-05

>  <r_epik_State_Penalty>  (52) 
-0

>  <r_epik_Charging_Adjusted_Penalty>  (52) 
0

>  <i_epik_Tot_Q>  (52) 
0

>  <i_epik_Tot_abs_Q>  (52) 
0

>  <s_epik_Chemistry_Notes>  (52) 
This compound contains an acetal/aminal-like group ( X-CH(R)-Y where X, Y are N, S, or O) that may be acid/base labile, releasing an aldehyde.

>  <s_lp_Force_Field>  (52) 
OPLS3e

>  <r_lp_Energy>  (52) 
27.5386

>  <b_lp_Chiralities_Consistent>  (52) 
1

>  <s_lp_Variant>  (52) 
34:0-1

>  <s_i_glide_gridfile>  (52) 
pfpi4k_grid

>  <i_i_glide_lignum>  (52) 
10

>  <i_i_glide_rotatable_bonds>  (52) 
19

>  <r_i_docking_score>  (52) 
-5.07247

>  <r_i_glide_ligand_efficiency>  (52) 
-0.101449

>  <r_i_glide_ligand_efficiency_sa>  (52) 
-0.373743

>  <r_i_glide_ligand_efficiency_ln>  (52) 
-1.03266

>  <r_i_glide_gscore>  (52) 
-5.07247

>  <r_i_glide_lipo>  (52) 
-0.0199064

>  <r_i_glide_hbond>  (52) 
-0.0357277

>  <r_i_glide_metal>  (52) 
-0

>  <r_i_glide_rewards>  (52) 
-0.61968

>  <r_i_glide_evdw>  (52) 
-20.1864

>  <r_i_glide_ecoul>  (52) 
-24.3918

>  <r_i_glide_erotb>  (52) 
0.187401

>  <r_i_glide_esite>  (52) 
-0.0214246

>  <r_i_glide_emodel>  (52) 
-59.5241

>  <r_i_glide_energy>  (52) 
-44.5782

>  <r_i_glide_einternal>  (52) 
6.13207

>  <r_i_glide_intrahb_reward>  (52) 
-0.5

>  <i_i_glide_confnum>  (52) 
5

>  <i_i_glide_posenum>  (52) 
2

>  <r_i_glide_eff_state_penalty>  (52) 
0

>  <ligand_id>  (52) 
34

>  <original_smiles>  (52) 
CC12CC1C1(COC3OC4(CO)OC4(CO)C(O)C3O)OC1C1(OC3OC(CO)C(O)C(O)C3O)COC2(O)OC12COC1OC(CO)C=C12

>  <smiles>  (52) 
[H]OC([H])([H])C1([H])OC2([H])OC([H])([H])C3(OC4(O[H])OC([H])([H])C3(OC3([H])OC([H])(C([H])([H])O[H])C([H])(O[H])C([H])(O[H])C3([H])O[H])C3([H])OC3(C([H])([H])OC3([H])OC5(C([H])([H])O[H])OC5(C([H])([H])O[H])C([H])(O[H])C3([H])O[H])C3([H])C([H])([H])C43C([H])([H])[H])C2=C1[H]

$$$$
34:0:1
     RDKit          3D

 92100  0  0  1  0  0  0  0  0999 V2000
    4.7866   -3.5924    9.2395 C   0  0  0  0  0  0  0  0  0  0  0  0
    3.9552   -3.1245    8.0559 C   0  0  1  0  0  0  0  0  0  0  0  0
    3.2855   -1.7759    8.1659 C   0  0  0  0  0  0  0  0  0  0  0  0
    4.4780   -1.9224    7.2535 C   0  0  2  0  0  0  0  0  0  0  0  0
    4.2376   -1.5627    5.7942 C   0  0  1  0  0  0  0  0  0  0  0  0
    3.7975   -0.1092    5.5638 C   0  0  0  0  0  0  0  0  0  0  0  0
    2.6572   -0.0766    4.7232 O   0  0  0  0  0  0  0  0  0  0  0  0
    2.1082    1.1842    4.5277 C   0  0  2  0  0  0  0  0  0  0  0  0
    1.4223    1.5779    5.6807 O   0  0  0  0  0  0  0  0  0  0  0  0
    0.6167    2.7535    5.6213 C   0  0  2  0  0  0  0  0  0  0  0  0
    0.8300    3.7392    6.7581 C   0  0  0  0  0  0  0  0  0  0  0  0
    1.7868    4.6955    6.3611 O   0  0  0  0  0  0  0  0  0  0  0  0
   -0.7454    2.4559    5.2624 O   0  0  0  0  0  0  0  0  0  0  0  0
    0.0164    3.1631    4.2881 C   0  0  1  0  0  0  0  0  0  0  0  0
   -0.3936    4.6291    4.0817 C   0  0  0  0  0  0  0  0  0  0  0  0
   -1.3057    4.8531    3.0303 O   0  0  0  0  0  0  0  0  0  0  0  0
    0.4832    2.4182    3.0460 C   0  0  1  0  0  0  0  0  0  0  0  0
    1.5151    3.2193    2.4881 O   0  0  0  0  0  0  0  0  0  0  0  0
    1.0979    1.0333    3.3627 C   0  0  1  0  0  0  0  0  0  0  0  0
    1.6943    0.5256    2.1659 O   0  0  0  0  0  0  0  0  0  0  0  0
    5.3579   -1.9832    4.9861 O   0  0  0  0  0  0  0  0  0  0  0  0
    4.1086   -2.5538    4.6370 C   0  0  1  0  0  0  0  0  0  0  0  0
    3.9273   -4.0857    4.7481 C   0  0  1  0  0  0  0  0  0  0  0  0
    4.1004   -4.7055    3.4600 O   0  0  0  0  0  0  0  0  0  0  0  0
    5.2816   -4.4487    2.7374 C   0  0  2  0  0  0  0  0  0  0  0  0
    5.2793   -3.2078    2.0460 O   0  0  0  0  0  0  0  0  0  0  0  0
    4.2217   -3.0430    1.0751 C   0  0  1  0  0  0  0  0  0  0  0  0
    4.2903   -1.6068    0.5044 C   0  0  0  0  0  0  0  0  0  0  0  0
    3.4186   -1.3997   -0.6129 O   0  0  0  0  0  0  0  0  0  0  0  0
    4.3690   -4.1401   -0.0047 C   0  0  1  0  0  0  0  0  0  0  0  0
    5.5289   -3.9255   -0.8092 O   0  0  0  0  0  0  0  0  0  0  0  0
    4.4080   -5.5231    0.6609 C   0  0  1  0  0  0  0  0  0  0  0  0
    4.5483   -6.5466   -0.3203 O   0  0  0  0  0  0  0  0  0  0  0  0
    5.4907   -5.5996    1.7463 C   0  0  1  0  0  0  0  0  0  0  0  0
    6.8035   -5.4862    1.2056 O   0  0  0  0  0  0  0  0  0  0  0  0
    4.8690   -4.7710    5.7685 C   0  0  0  0  0  0  0  0  0  0  0  0
    4.1551   -5.2089    6.9168 O   0  0  0  0  0  0  0  0  0  0  0  0
    3.2086   -4.3059    7.4221 C   0  0  1  0  0  0  0  0  0  0  0  0
    2.4373   -4.9506    8.4019 O   0  0  0  0  0  0  0  0  0  0  0  0
    2.3429   -3.8070    6.4393 O   0  0  0  0  0  0  0  0  0  0  0  0
    2.4574   -4.3641    5.1405 C   0  0  1  0  0  0  0  0  0  0  0  0
    1.3835   -3.6938    4.2570 C   0  0  0  0  0  0  0  0  0  0  0  0
    0.2215   -4.5451    4.2508 O   0  0  0  0  0  0  0  0  0  0  0  0
    0.4655   -5.7133    4.9560 C   0  0  1  0  0  0  0  0  0  0  0  0
    0.1150   -6.8914    4.2886 O   0  0  0  0  0  0  0  0  0  0  0  0
    1.1855   -7.8435    4.4636 C   0  0  1  0  0  0  0  0  0  0  0  0
    1.2894   -8.6895    3.1808 C   0  0  0  0  0  0  0  0  0  0  0  0
    0.1916   -9.5773    3.0941 O   0  0  0  0  0  0  0  0  0  0  0  0
    2.3831   -6.9699    4.7673 C   0  0  0  0  0  0  0  0  0  0  0  0
    1.9273   -5.7725    5.0851 C   0  0  0  0  0  0  0  0  0  0  0  0
    4.1497   -3.9954   10.0262 H   0  0  0  0  0  0  0  0  0  0  0  0
    5.3386   -2.7557    9.6620 H   0  0  0  0  0  0  0  0  0  0  0  0
    5.5048   -4.3511    8.9303 H   0  0  0  0  0  0  0  0  0  0  0  0
    2.3225   -1.6382    7.6765 H   0  0  0  0  0  0  0  0  0  0  0  0
    3.4382   -1.2028    9.0747 H   0  0  0  0  0  0  0  0  0  0  0  0
    5.4151   -1.5204    7.6348 H   0  0  0  0  0  0  0  0  0  0  0  0
    3.5604    0.3594    6.5233 H   0  0  0  0  0  0  0  0  0  0  0  0
    4.6277    0.4659    5.1441 H   0  0  0  0  0  0  0  0  0  0  0  0
    2.8649    1.9401    4.3074 H   0  0  0  0  0  0  0  0  0  0  0  0
   -0.0973    4.2668    6.9468 H   0  0  0  0  0  0  0  0  0  0  0  0
    1.0819    3.2529    7.7013 H   0  0  0  0  0  0  0  0  0  0  0  0
    1.5632    4.9955    5.4880 H   0  0  0  0  0  0  0  0  0  0  0  0
   -0.8187    5.0459    4.9935 H   0  0  0  0  0  0  0  0  0  0  0  0
    0.5149    5.1908    3.8772 H   0  0  0  0  0  0  0  0  0  0  0  0
   -0.8415    4.6610    2.2127 H   0  0  0  0  0  0  0  0  0  0  0  0
   -0.3524    2.3163    2.3476 H   0  0  0  0  0  0  0  0  0  0  0  0
    1.1033    3.7297    1.7887 H   0  0  0  0  0  0  0  0  0  0  0  0
    0.3248    0.3375    3.6779 H   0  0  0  0  0  0  0  0  0  0  0  0
    1.0568    0.5304    1.4585 H   0  0  0  0  0  0  0  0  0  0  0  0
    3.6840   -2.1368    3.7283 H   0  0  0  0  0  0  0  0  0  0  0  0
    6.1162   -4.4097    3.4500 H   0  0  0  0  0  0  0  0  0  0  0  0
    3.2680   -3.1617    1.5847 H   0  0  0  0  0  0  0  0  0  0  0  0
    4.0831   -0.8644    1.2773 H   0  0  0  0  0  0  0  0  0  0  0  0
    5.3068   -1.4122    0.1663 H   0  0  0  0  0  0  0  0  0  0  0  0
    2.4767   -1.4034   -0.3488 H   0  0  0  0  0  0  0  0  0  0  0  0
    3.4941   -4.1015   -0.6512 H   0  0  0  0  0  0  0  0  0  0  0  0
    5.5257   -4.5760   -1.5266 H   0  0  0  0  0  0  0  0  0  0  0  0
    3.4474   -5.6711    1.1559 H   0  0  0  0  0  0  0  0  0  0  0  0
    3.9051   -6.3959   -1.0258 H   0  0  0  0  0  0  0  0  0  0  0  0
    5.4137   -6.5400    2.2994 H   0  0  0  0  0  0  0  0  0  0  0  0
    6.7914   -4.7258    0.6026 H   0  0  0  0  0  0  0  0  0  0  0  0
    5.3113   -5.6671    5.3276 H   0  0  0  0  0  0  0  0  0  0  0  0
    5.7035   -4.1375    6.0723 H   0  0  0  0  0  0  0  0  0  0  0  0
    2.0474   -5.7170    8.0021 H   0  0  0  0  0  0  0  0  0  0  0  0
    1.1355   -2.6802    4.5743 H   0  0  0  0  0  0  0  0  0  0  0  0
    1.7188   -3.6159    3.2232 H   0  0  0  0  0  0  0  0  0  0  0  0
    0.0531   -5.6538    5.9601 H   0  0  0  0  0  0  0  0  0  0  0  0
    1.0162   -8.4814    5.3331 H   0  0  0  0  0  0  0  0  0  0  0  0
    1.3020   -8.0499    2.2963 H   0  0  0  0  0  0  0  0  0  0  0  0
    2.2072   -9.2811    3.1747 H   0  0  0  0  0  0  0  0  0  0  0  0
    0.1476  -10.1223    3.8748 H   0  0  0  0  0  0  0  0  0  0  0  0
    3.4110   -7.2705    4.6000 H   0  0  0  0  0  0  0  0  0  0  0  0
  2  1  1  1
  1 51  1  0
  1 52  1  0
  1 53  1  0
  2  4  1  0
  2 38  1  0
  2  3  1  0
  3  4  1  0
  3 54  1  0
  3 55  1  0
  4  5  1  0
  4 56  1  1
  5 22  1  0
  5  6  1  1
  5 21  1  0
  6  7  1  0
  6 57  1  0
  6 58  1  0
  7  8  1  0
  8 19  1  0
  8  9  1  0
  8 59  1  6
  9 10  1  0
 10 14  1  0
 10 11  1  1
 10 13  1  0
 11 12  1  0
 11 60  1  0
 11 61  1  0
 12 62  1  0
 13 14  1  0
 14 15  1  6
 14 17  1  0
 15 16  1  0
 15 63  1  0
 15 64  1  0
 16 65  1  0
 17 18  1  0
 17 19  1  0
 17 66  1  6
 18 67  1  0
 19 20  1  0
 19 68  1  1
 20 69  1  0
 21 22  1  0
 22 23  1  0
 22 70  1  6
 23 41  1  0
 23 24  1  6
 23 36  1  0
 24 25  1  0
 25 34  1  0
 25 26  1  0
 25 71  1  1
 26 27  1  0
 27 28  1  0
 27 30  1  0
 27 72  1  1
 28 29  1  0
 28 73  1  0
 28 74  1  0
 29 75  1  0
 30 31  1  0
 30 32  1  0
 30 76  1  6
 31 77  1  0
 32 33  1  0
 32 34  1  0
 32 78  1  1
 33 79  1  0
 34 35  1  0
 34 80  1  1
 35 81  1  0
 36 37  1  0
 36 82  1  0
 36 83  1  0
 37 38  1  0
 38 39  1  1
 38 40  1  0
 39 84  1  0
 40 41  1  0
 41 50  1  0
 41 42  1  6
 42 43  1  0
 42 85  1  0
 42 86  1  0
 43 44  1  0
 44 50  1  0
 44 45  1  0
 44 87  1  1
 45 46  1  0
 46 47  1  0
 46 49  1  0
 46 88  1  1
 47 48  1  0
 47 89  1  0
 47 90  1  0
 48 91  1  0
 49 50  2  0
 49 92  1  0
M  END
>  <i_m_ct_stereo_status>  (53) 
1

>  <s_m_source_file>  (53) 
/var/tmp/pbs.5076253.sched01/tmp9xbr3gte/40_qt8sgg8.sdf

>  <i_m_source_file_index>  (53) 
10

>  <i_lp_mmshare_version>  (53) 
48012

>  <i_f3d_flags>  (53) 
0

>  <s_epik_input>  (53) 
W09IXVtDSDJdW0NAQF0xMltDQEBdKE8yKShbQ0gyXVtPSF0pW0NAQEhdKFtPSF0pW0NAQEhdKFtPSF0pW0NAQEhdKE8xKU9bQ0gyXVtDQEBdKE8zKShbQ0BASF00W0NAQF0oW0NIM10pKFtDSDJdNClbQ0BdKE81KShbT0hdKU9bQ0gyXTYpW0NAQEhdM1tDQEBdNihbQ0BAXTU3QzhbQ0BASF0oT1tDSDJdNylPW0NASF0oW0NIXT04KVtDSDJdW09IXSlPW0NAQEhdOU9bQ0BASF0oW0NIMl1bT0hdKVtDQEBIXShbT0hdKVtDQEBIXShbT0hdKVtDQEhdOVtPSF0=

>  <s_epik_cmdline>  (53) 
J2VwaWtfcHl0aG9uJywgJy1waHQnLCAnMi4wJywgJy1waCcsICc3LjAnLCAnLXRuJywgJzgnLCAnLW1hJywgJzIwMCcsICctaW1hZScsICc8aW5maWxlLm1hZT4nLCAnLW9tYWUnLCAnPG91dGZpbGUubWFlPic=

>  <r_lp_tautomer_probability>  (53) 
1

>  <r_epik_Ionization_Penalty>  (53) 
9.71394e-05

>  <r_epik_Ionization_Penalty_Charging>  (53) 
0

>  <r_epik_Ionization_Penalty_Neutral>  (53) 
9.71394e-05

>  <r_epik_State_Penalty>  (53) 
-0

>  <r_epik_Charging_Adjusted_Penalty>  (53) 
0

>  <i_epik_Tot_Q>  (53) 
0

>  <i_epik_Tot_abs_Q>  (53) 
0

>  <s_epik_Chemistry_Notes>  (53) 
This compound contains an acetal/aminal-like group ( X-CH(R)-Y where X, Y are N, S, or O) that may be acid/base labile, releasing an aldehyde.

>  <s_lp_Force_Field>  (53) 
OPLS3e

>  <r_lp_Energy>  (53) 
27.5386

>  <b_lp_Chiralities_Consistent>  (53) 
1

>  <s_lp_Variant>  (53) 
34:0-1

>  <s_i_glide_gridfile>  (53) 
pfpi4k_grid

>  <i_i_glide_lignum>  (53) 
10

>  <i_i_glide_rotatable_bonds>  (53) 
19

>  <r_i_docking_score>  (53) 
-4.33374

>  <r_i_glide_ligand_efficiency>  (53) 
-0.0866747

>  <r_i_glide_ligand_efficiency_sa>  (53) 
-0.319312

>  <r_i_glide_ligand_efficiency_ln>  (53) 
-0.882271

>  <r_i_glide_gscore>  (53) 
-4.33374

>  <r_i_glide_lipo>  (53) 
-0.143119

>  <r_i_glide_hbond>  (53) 
0

>  <r_i_glide_metal>  (53) 
-0

>  <r_i_glide_rewards>  (53) 
-0.525979

>  <r_i_glide_evdw>  (53) 
-19.5101

>  <r_i_glide_ecoul>  (53) 
-19.0944

>  <r_i_glide_erotb>  (53) 
0.187401

>  <r_i_glide_esite>  (53) 
-0.0123749

>  <r_i_glide_emodel>  (53) 
-54.5317

>  <r_i_glide_energy>  (53) 
-38.6045

>  <r_i_glide_einternal>  (53) 
3.78212

>  <r_i_glide_intrahb_reward>  (53) 
-0.5

>  <i_i_glide_confnum>  (53) 
2

>  <i_i_glide_posenum>  (53) 
6

>  <r_i_glide_eff_state_penalty>  (53) 
0

>  <ligand_id>  (53) 
34

>  <original_smiles>  (53) 
CC12CC1C1(COC3OC4(CO)OC4(CO)C(O)C3O)OC1C1(OC3OC(CO)C(O)C(O)C3O)COC2(O)OC12COC1OC(CO)C=C12

>  <smiles>  (53) 
[H]OC([H])([H])C1([H])OC2([H])OC([H])([H])C3(OC4(O[H])OC([H])([H])C3(OC3([H])OC([H])(C([H])([H])O[H])C([H])(O[H])C([H])(O[H])C3([H])O[H])C3([H])OC3(C([H])([H])OC3([H])OC5(C([H])([H])O[H])OC5(C([H])([H])O[H])C([H])(O[H])C3([H])O[H])C3([H])C([H])([H])C43C([H])([H])[H])C2=C1[H]

$$$$
34:0:2
     RDKit          3D

 92100  0  0  1  0  0  0  0  0999 V2000
    6.5119   -2.4170    6.3829 C   0  0  0  0  0  0  0  0  0  0  0  0
    5.2301   -2.1896    5.5986 C   0  0  1  0  0  0  0  0  0  0  0  0
    4.3778   -1.0209    6.0056 C   0  0  0  0  0  0  0  0  0  0  0  0
    5.1429   -0.9499    4.6961 C   0  0  2  0  0  0  0  0  0  0  0  0
    4.2747   -0.7581    3.4584 C   0  0  1  0  0  0  0  0  0  0  0  0
    3.4723    0.5421    3.4186 C   0  0  0  0  0  0  0  0  0  0  0  0
    2.0921    0.2630    3.2475 O   0  0  0  0  0  0  0  0  0  0  0  0
    1.2561    1.3684    3.4320 C   0  0  2  0  0  0  0  0  0  0  0  0
    1.4656    2.0383    4.6566 O   0  0  0  0  0  0  0  0  0  0  0  0
    1.0340    1.3672    5.8590 C   0  0  2  0  0  0  0  0  0  0  0  0
    1.1730    2.2189    7.0948 C   0  0  0  0  0  0  0  0  0  0  0  0
   -0.0281    2.9445    7.2637 O   0  0  0  0  0  0  0  0  0  0  0  0
    1.3624   -0.0277    6.0116 O   0  0  0  0  0  0  0  0  0  0  0  0
   -0.0151    0.2431    5.7216 C   0  0  1  0  0  0  0  0  0  0  0  0
   -0.9375   -0.1063    6.8654 C   0  0  0  0  0  0  0  0  0  0  0  0
   -1.9207    0.9198    6.9792 O   0  0  0  0  0  0  0  0  0  0  0  0
   -0.4942   -0.2122    4.3465 C   0  0  1  0  0  0  0  0  0  0  0  0
   -1.8664   -0.5516    4.2840 O   0  0  0  0  0  0  0  0  0  0  0  0
   -0.2161    0.8696    3.2841 C   0  0  1  0  0  0  0  0  0  0  0  0
   -1.1303    1.9520    3.4197 O   0  0  0  0  0  0  0  0  0  0  0  0
    5.0308   -1.0266    2.2732 O   0  0  0  0  0  0  0  0  0  0  0  0
    3.8699   -1.8233    2.4426 C   0  0  1  0  0  0  0  0  0  0  0  0
    4.0503   -3.3434    2.5316 C   0  0  1  0  0  0  0  0  0  0  0  0
    3.7739   -3.9358    1.2426 O   0  0  0  0  0  0  0  0  0  0  0  0
    4.3492   -3.3327    0.0942 C   0  0  2  0  0  0  0  0  0  0  0  0
    3.7022   -2.1447   -0.2462 O   0  0  0  0  0  0  0  0  0  0  0  0
    4.1642   -1.4960   -1.4321 C   0  0  1  0  0  0  0  0  0  0  0  0
    5.6154   -1.0642   -1.2251 C   0  0  0  0  0  0  0  0  0  0  0  0
    5.7190   -0.2922   -0.0605 O   0  0  0  0  0  0  0  0  0  0  0  0
    3.9128   -2.3747   -2.6697 C   0  0  1  0  0  0  0  0  0  0  0  0
    4.2659   -1.7323   -3.9131 O   0  0  0  0  0  0  0  0  0  0  0  0
    4.6090   -3.7315   -2.4708 C   0  0  1  0  0  0  0  0  0  0  0  0
    6.0092   -3.5649   -2.5782 O   0  0  0  0  0  0  0  0  0  0  0  0
    4.2369   -4.3190   -1.0757 C   0  0  1  0  0  0  0  0  0  0  0  0
    5.0047   -5.4686   -0.7364 O   0  0  0  0  0  0  0  0  0  0  0  0
    5.4603   -3.7567    3.0528 C   0  0  0  0  0  0  0  0  0  0  0  0
    5.3929   -4.2626    4.3924 O   0  0  0  0  0  0  0  0  0  0  0  0
    4.5549   -3.5317    5.2619 C   0  0  1  0  0  0  0  0  0  0  0  0
    4.3769   -4.2409    6.4524 O   0  0  0  0  0  0  0  0  0  0  0  0
    3.2775   -3.2775    4.7313 O   0  0  0  0  0  0  0  0  0  0  0  0
    2.9831   -3.8943    3.4835 C   0  0  1  0  0  0  0  0  0  0  0  0
    1.5481   -3.5266    3.0854 C   0  0  0  0  0  0  0  0  0  0  0  0
    0.6861   -4.6034    3.5121 O   0  0  0  0  0  0  0  0  0  0  0  0
    1.4324   -5.6350    4.0555 C   0  0  1  0  0  0  0  0  0  0  0  0
    1.1121   -6.8938    3.5496 O   0  0  0  0  0  0  0  0  0  0  0  0
    2.3391   -7.5946    3.2717 C   0  0  1  0  0  0  0  0  0  0  0  0
    2.1224   -8.4648    2.0224 C   0  0  0  0  0  0  0  0  0  0  0  0
    1.3435   -9.5864    2.3782 O   0  0  0  0  0  0  0  0  0  0  0  0
    3.3483   -6.4789    3.1058 C   0  0  0  0  0  0  0  0  0  0  0  0
    2.7991   -5.3812    3.6047 C   0  0  0  0  0  0  0  0  0  0  0  0
    6.2818   -2.8305    7.3606 H   0  0  0  0  0  0  0  0  0  0  0  0
    7.0303   -1.4657    6.5281 H   0  0  0  0  0  0  0  0  0  0  0  0
    7.1561   -3.1181    5.8552 H   0  0  0  0  0  0  0  0  0  0  0  0
    3.2951   -1.1661    5.9715 H   0  0  0  0  0  0  0  0  0  0  0  0
    4.7451   -0.3314    6.7613 H   0  0  0  0  0  0  0  0  0  0  0  0
    6.0432   -0.3062    4.6613 H   0  0  0  0  0  0  0  0  0  0  0  0
    3.6431    1.1117    4.3340 H   0  0  0  0  0  0  0  0  0  0  0  0
    3.7984    1.1763    2.5942 H   0  0  0  0  0  0  0  0  0  0  0  0
    1.4747    2.1016    2.6697 H   0  0  0  0  0  0  0  0  0  0  0  0
    1.2948    1.5715    7.9546 H   0  0  0  0  0  0  0  0  0  0  0  0
    2.0878    2.8171    7.0288 H   0  0  0  0  0  0  0  0  0  0  0  0
   -0.1426    3.4548    6.4761 H   0  0  0  0  0  0  0  0  0  0  0  0
   -1.3234   -1.1321    6.7458 H   0  0  0  0  0  0  0  0  0  0  0  0
   -0.3789   -0.0490    7.7957 H   0  0  0  0  0  0  0  0  0  0  0  0
   -1.4888    1.7772    6.9709 H   0  0  0  0  0  0  0  0  0  0  0  0
    0.0615   -1.1165    4.1342 H   0  0  0  0  0  0  0  0  0  0  0  0
   -2.3262    0.2802    4.2142 H   0  0  0  0  0  0  0  0  0  0  0  0
   -0.3365    0.4207    2.2787 H   0  0  0  0  0  0  0  0  0  0  0  0
   -0.9472    2.5714    2.7257 H   0  0  0  0  0  0  0  0  0  0  0  0
    3.0173   -1.5240    1.8326 H   0  0  0  0  0  0  0  0  0  0  0  0
    5.3948   -3.0594    0.2902 H   0  0  0  0  0  0  0  0  0  0  0  0
    3.5020   -0.6605   -1.5923 H   0  0  0  0  0  0  0  0  0  0  0  0
    6.3052   -1.9191   -1.1272 H   0  0  0  0  0  0  0  0  0  0  0  0
    5.8681   -0.4585   -2.0811 H   0  0  0  0  0  0  0  0  0  0  0  0
    5.4399    0.6467   -0.2311 H   0  0  0  0  0  0  0  0  0  0  0  0
    2.8464   -2.5643   -2.7549 H   0  0  0  0  0  0  0  0  0  0  0  0
    3.8281   -0.8662   -3.9748 H   0  0  0  0  0  0  0  0  0  0  0  0
    4.2789   -4.3936   -3.2774 H   0  0  0  0  0  0  0  0  0  0  0  0
    6.4223   -4.4259   -2.4498 H   0  0  0  0  0  0  0  0  0  0  0  0
    3.1980   -4.6068   -1.1227 H   0  0  0  0  0  0  0  0  0  0  0  0
    4.7728   -6.1726   -1.3628 H   0  0  0  0  0  0  0  0  0  0  0  0
    5.8816   -4.5524    2.4398 H   0  0  0  0  0  0  0  0  0  0  0  0
    6.1837   -2.9492    3.0064 H   0  0  0  0  0  0  0  0  0  0  0  0
    4.0031   -5.0751    6.2264 H   0  0  0  0  0  0  0  0  0  0  0  0
    1.2858   -2.5617    3.5049 H   0  0  0  0  0  0  0  0  0  0  0  0
    1.4836   -3.4308    1.9982 H   0  0  0  0  0  0  0  0  0  0  0  0
    1.4107   -5.5854    5.1432 H   0  0  0  0  0  0  0  0  0  0  0  0
    2.6581   -8.1924    4.1258 H   0  0  0  0  0  0  0  0  0  0  0  0
    1.6164   -7.8992    1.2396 H   0  0  0  0  0  0  0  0  0  0  0  0
    3.0708   -8.8307    1.6243 H   0  0  0  0  0  0  0  0  0  0  0  0
    1.0014   -9.9800    1.5866 H   0  0  0  0  0  0  0  0  0  0  0  0
    4.2628   -6.5531    2.5402 H   0  0  0  0  0  0  0  0  0  0  0  0
  2  1  1  1
  1 51  1  0
  1 52  1  0
  1 53  1  0
  2  4  1  0
  2 38  1  0
  2  3  1  0
  3  4  1  0
  3 54  1  0
  3 55  1  0
  4  5  1  0
  4 56  1  1
  5 22  1  0
  5  6  1  6
  5 21  1  0
  6  7  1  0
  6 57  1  0
  6 58  1  0
  7  8  1  0
  8 19  1  0
  8  9  1  0
  8 59  1  6
  9 10  1  0
 10 14  1  0
 10 11  1  1
 10 13  1  0
 11 12  1  0
 11 60  1  0
 11 61  1  0
 12 62  1  0
 13 14  1  0
 14 15  1  1
 14 17  1  0
 15 16  1  0
 15 63  1  0
 15 64  1  0
 16 65  1  0
 17 18  1  0
 17 19  1  0
 17 66  1  6
 18 67  1  0
 19 20  1  0
 19 68  1  6
 20 69  1  0
 21 22  1  0
 22 23  1  0
 22 70  1  6
 23 41  1  0
 23 24  1  6
 23 36  1  0
 24 25  1  0
 25 34  1  0
 25 26  1  0
 25 71  1  1
 26 27  1  0
 27 28  1  0
 27 30  1  0
 27 72  1  6
 28 29  1  0
 28 73  1  0
 28 74  1  0
 29 75  1  0
 30 31  1  0
 30 32  1  0
 30 76  1  6
 31 77  1  0
 32 33  1  0
 32 34  1  0
 32 78  1  6
 33 79  1  0
 34 35  1  0
 34 80  1  6
 35 81  1  0
 36 37  1  0
 36 82  1  0
 36 83  1  0
 37 38  1  0
 38 39  1  1
 38 40  1  0
 39 84  1  0
 40 41  1  0
 41 50  1  0
 41 42  1  6
 42 43  1  0
 42 85  1  0
 42 86  1  0
 43 44  1  0
 44 50  1  0
 44 45  1  0
 44 87  1  1
 45 46  1  0
 46 47  1  0
 46 49  1  0
 46 88  1  1
 47 48  1  0
 47 89  1  0
 47 90  1  0
 48 91  1  0
 49 50  2  0
 49 92  1  0
M  END
>  <i_m_ct_stereo_status>  (54) 
1

>  <s_m_source_file>  (54) 
/var/tmp/pbs.5076253.sched01/tmp9xbr3gte/40_qt8sgg8.sdf

>  <i_m_source_file_index>  (54) 
10

>  <i_lp_mmshare_version>  (54) 
48012

>  <i_f3d_flags>  (54) 
0

>  <s_epik_input>  (54) 
W09IXVtDSDJdW0NAQF0xMltDQEBdKE8yKShbQ0gyXVtPSF0pW0NAQEhdKFtPSF0pW0NAQEhdKFtPSF0pW0NAQEhdKE8xKU9bQ0gyXVtDQEBdKE8zKShbQ0BASF00W0NAQF0oW0NIM10pKFtDSDJdNClbQ0BdKE81KShbT0hdKU9bQ0gyXTYpW0NAQEhdM1tDQEBdNihbQ0BAXTU3QzhbQ0BASF0oT1tDSDJdNylPW0NASF0oW0NIXT04KVtDSDJdW09IXSlPW0NAQEhdOU9bQ0BASF0oW0NIMl1bT0hdKVtDQEBIXShbT0hdKVtDQEBIXShbT0hdKVtDQEhdOVtPSF0=

>  <s_epik_cmdline>  (54) 
J2VwaWtfcHl0aG9uJywgJy1waHQnLCAnMi4wJywgJy1waCcsICc3LjAnLCAnLXRuJywgJzgnLCAnLW1hJywgJzIwMCcsICctaW1hZScsICc8aW5maWxlLm1hZT4nLCAnLW9tYWUnLCAnPG91dGZpbGUubWFlPic=

>  <r_lp_tautomer_probability>  (54) 
1

>  <r_epik_Ionization_Penalty>  (54) 
9.71394e-05

>  <r_epik_Ionization_Penalty_Charging>  (54) 
0

>  <r_epik_Ionization_Penalty_Neutral>  (54) 
9.71394e-05

>  <r_epik_State_Penalty>  (54) 
-0

>  <r_epik_Charging_Adjusted_Penalty>  (54) 
0

>  <i_epik_Tot_Q>  (54) 
0

>  <i_epik_Tot_abs_Q>  (54) 
0

>  <s_epik_Chemistry_Notes>  (54) 
This compound contains an acetal/aminal-like group ( X-CH(R)-Y where X, Y are N, S, or O) that may be acid/base labile, releasing an aldehyde.

>  <s_lp_Force_Field>  (54) 
OPLS3e

>  <r_lp_Energy>  (54) 
27.5386

>  <b_lp_Chiralities_Consistent>  (54) 
1

>  <s_lp_Variant>  (54) 
34:0-1

>  <s_i_glide_gridfile>  (54) 
pfpi4k_grid

>  <i_i_glide_lignum>  (54) 
10

>  <i_i_glide_rotatable_bonds>  (54) 
19

>  <r_i_docking_score>  (54) 
-3.43494

>  <r_i_glide_ligand_efficiency>  (54) 
-0.0686987

>  <r_i_glide_ligand_efficiency_sa>  (54) 
-0.253088

>  <r_i_glide_ligand_efficiency_ln>  (54) 
-0.699291

>  <r_i_glide_gscore>  (54) 
-3.43494

>  <r_i_glide_lipo>  (54) 
-0.249352

>  <r_i_glide_hbond>  (54) 
0

>  <r_i_glide_metal>  (54) 
-0

>  <r_i_glide_rewards>  (54) 
-0.54965

>  <r_i_glide_evdw>  (54) 
-21.9293

>  <r_i_glide_ecoul>  (54) 
-15.9012

>  <r_i_glide_erotb>  (54) 
0.187401

>  <r_i_glide_esite>  (54) 
-0.0264595

>  <r_i_glide_emodel>  (54) 
-46.759

>  <r_i_glide_energy>  (54) 
-37.8305

>  <r_i_glide_einternal>  (54) 
6.40585

>  <r_i_glide_intrahb_reward>  (54) 
-0.5

>  <i_i_glide_confnum>  (54) 
1

>  <i_i_glide_posenum>  (54) 
20

>  <r_i_glide_eff_state_penalty>  (54) 
0

>  <ligand_id>  (54) 
34

>  <original_smiles>  (54) 
CC12CC1C1(COC3OC4(CO)OC4(CO)C(O)C3O)OC1C1(OC3OC(CO)C(O)C(O)C3O)COC2(O)OC12COC1OC(CO)C=C12

>  <smiles>  (54) 
[H]OC([H])([H])C1([H])OC2([H])OC([H])([H])C3(OC4(O[H])OC([H])([H])C3(OC3([H])OC([H])(C([H])([H])O[H])C([H])(O[H])C([H])(O[H])C3([H])O[H])C3([H])OC3(C([H])([H])OC3([H])OC5(C([H])([H])O[H])OC5(C([H])([H])O[H])C([H])(O[H])C3([H])O[H])C3([H])C([H])([H])C43C([H])([H])[H])C2=C1[H]

$$$$
35:0:0
     RDKit          3D

 79 88  0  0  1  0  0  0  0  0999 V2000
   -2.3320    3.0873    5.8556 C   0  0  0  0  0  0  0  0  0  0  0  0
   -1.2644    3.1621    4.7432 C   0  0  1  0  0  0  0  0  0  0  0  0
   -1.7719    4.2139    3.6341 C   0  0  1  0  0  0  0  0  0  0  0  0
   -0.8763    5.2536    3.2780 O   0  0  0  0  0  0  0  0  0  0  0  0
   -2.1870    3.4448    2.4983 O   0  0  0  0  0  0  0  0  0  0  0  0
   -1.6397    2.0753    2.4158 C   0  0  1  0  0  0  0  0  0  0  0  0
   -0.0483    1.6402    2.4019 C   0  0  2  0  0  0  0  0  0  0  0  0
    0.8191    0.9580    3.4156 O   0  0  0  0  0  0  0  0  0  0  0  0
    1.0991    1.6040    4.8032 C   0  0  1  0  0  0  0  0  0  0  0  0
    2.6547    1.5677    5.0598 C   0  0  1  0  0  0  0  0  0  0  0  0
    3.4137    2.2226    3.8745 C   0  0  0  0  0  0  0  0  0  0  0  0
    2.8972    3.4552    3.4101 O   0  0  0  0  0  0  0  0  0  0  0  0
    3.0180    2.3647    6.1846 O   0  0  0  0  0  0  0  0  0  0  0  0
    3.9894    1.8895    6.9734 C   0  0  0  0  0  0  0  0  0  0  0  0
    4.4279    2.4215    7.9875 O   0  0  0  0  0  0  0  0  0  0  0  0
    4.5040    0.5663    6.4074 C   0  0  2  0  0  0  0  0  0  0  0  0
    4.7482   -0.3514    7.4610 O   0  0  0  0  0  0  0  0  0  0  0  0
    5.8257    0.7491    5.6323 C   0  0  0  0  0  0  0  0  0  0  0  0
    6.9625    1.5973    6.1954 C   0  0  0  0  0  0  0  0  0  0  0  0
    7.5317    1.0128    7.3476 O   0  0  0  0  0  0  0  0  0  0  0  0
    5.9720    0.1757    4.4321 C   0  0  0  0  0  0  0  0  0  0  0  0
    4.9841   -0.7110    3.8878 C   0  0  0  0  0  0  0  0  0  0  0  0
    3.7254   -0.8054    4.3556 C   0  0  0  0  0  0  0  0  0  0  0  0
    2.7958   -1.9403    3.8504 C   0  0  1  0  0  0  0  0  0  0  0  0
    1.4723   -1.4781    3.8327 O   0  0  0  0  0  0  0  0  0  0  0  0
    3.0632   -2.4289    2.3060 C   0  0  1  0  0  0  0  0  0  0  0  0
    2.1253   -1.9972    1.3463 O   0  0  0  0  0  0  0  0  0  0  0  0
    4.2977   -3.0886    1.5704 C   0  0  0  0  0  0  0  0  0  0  0  0
    5.4169   -2.6442    1.0007 C   0  0  0  0  0  0  0  0  0  0  0  0
    6.1767   -3.9144    1.4297 C   0  0  0  0  0  0  0  0  0  0  0  0
    4.9056   -4.3347    2.2304 C   0  0  2  0  0  0  0  0  0  0  0  0
    4.3518   -5.6912    2.3924 O   0  0  0  0  0  0  0  0  0  0  0  0
    3.4820   -5.7885    3.6345 C   0  0  0  0  0  0  0  0  0  0  0  0
    2.5662   -4.4669    3.8899 C   0  0  1  0  0  0  0  0  0  0  0  0
    1.1424   -4.5628    4.3972 C   0  0  0  0  0  0  0  0  0  0  0  0
    1.3170   -3.4441    5.3145 O   0  0  0  0  0  0  0  0  0  0  0  0
    2.6705   -3.2211    4.8244 C   0  0  2  0  0  0  0  0  0  0  0  0
    3.6723   -3.2915    5.8234 O   0  0  0  0  0  0  0  0  0  0  0  0
    2.9155   -3.8335    2.6480 C   0  0  2  0  0  0  0  0  0  0  0  0
    4.3353   -3.7008    3.1800 O   0  0  0  0  0  0  0  0  0  0  0  0
    3.2858    0.1586    5.5006 C   0  0  2  0  0  0  0  0  0  0  0  0
    2.3568   -0.5050    6.3512 O   0  0  0  0  0  0  0  0  0  0  0  0
    0.2525    2.9752    5.3463 C   0  0  1  0  0  0  0  0  0  0  0  0
    0.9292    4.2206    5.2845 O   0  0  0  0  0  0  0  0  0  0  0  0
   -0.0484    2.6900    3.1084 O   0  0  0  0  0  0  0  0  0  0  0  0
   -1.3040    2.0868    3.7851 C   0  0  1  0  0  0  0  0  0  0  0  0
   -1.5186    0.8068    4.4219 O   0  0  0  0  0  0  0  0  0  0  0  0
   -3.3355    2.9434    5.4571 H   0  0  0  0  0  0  0  0  0  0  0  0
   -2.3272    4.0151    6.4273 H   0  0  0  0  0  0  0  0  0  0  0  0
   -2.1392    2.2752    6.5578 H   0  0  0  0  0  0  0  0  0  0  0  0
   -2.6778    4.6822    3.9900 H   0  0  0  0  0  0  0  0  0  0  0  0
   -0.3005    4.9185    2.5687 H   0  0  0  0  0  0  0  0  0  0  0  0
   -2.2938    1.3401    2.0390 H   0  0  0  0  0  0  0  0  0  0  0  0
    0.3778    1.8022    1.4138 H   0  0  0  0  0  0  0  0  0  0  0  0
    0.6761    0.8740    5.4814 H   0  0  0  0  0  0  0  0  0  0  0  0
    4.4409    2.4078    4.1857 H   0  0  0  0  0  0  0  0  0  0  0  0
    3.4328    1.5456    3.0140 H   0  0  0  0  0  0  0  0  0  0  0  0
    2.0749    3.2874    2.9650 H   0  0  0  0  0  0  0  0  0  0  0  0
    5.1625   -1.1213    7.0889 H   0  0  0  0  0  0  0  0  0  0  0  0
    7.7689    1.6595    5.4612 H   0  0  0  0  0  0  0  0  0  0  0  0
    6.6445    2.6238    6.3776 H   0  0  0  0  0  0  0  0  0  0  0  0
    8.2911    1.5323    7.6085 H   0  0  0  0  0  0  0  0  0  0  0  0
    6.8956    0.3169    3.8759 H   0  0  0  0  0  0  0  0  0  0  0  0
    5.3552   -1.3950    3.1484 H   0  0  0  0  0  0  0  0  0  0  0  0
    1.4123   -0.8049    3.1795 H   0  0  0  0  0  0  0  0  0  0  0  0
    2.3560   -1.1412    1.0078 H   0  0  0  0  0  0  0  0  0  0  0  0
    5.7185   -1.6877    0.5916 H   0  0  0  0  0  0  0  0  0  0  0  0
    6.4048   -4.6192    0.6427 H   0  0  0  0  0  0  0  0  0  0  0  0
    7.0402   -3.7795    2.0829 H   0  0  0  0  0  0  0  0  0  0  0  0
    2.8636   -6.6832    3.5779 H   0  0  0  0  0  0  0  0  0  0  0  0
    4.1649   -5.9190    4.4714 H   0  0  0  0  0  0  0  0  0  0  0  0
    0.4052   -4.3963    3.6055 H   0  0  0  0  0  0  0  0  0  0  0  0
    0.9541   -5.4827    4.9434 H   0  0  0  0  0  0  0  0  0  0  0  0
    3.4641   -4.0354    6.3572 H   0  0  0  0  0  0  0  0  0  0  0  0
    2.5864   -4.4710    1.7999 H   0  0  0  0  0  0  0  0  0  0  0  0
    1.6444   -0.8343    5.8132 H   0  0  0  0  0  0  0  0  0  0  0  0
    0.1560    2.8323    6.4190 H   0  0  0  0  0  0  0  0  0  0  0  0
    1.1558    4.3940    4.3753 H   0  0  0  0  0  0  0  0  0  0  0  0
   -2.3485    0.4637    4.1089 H   0  0  0  0  0  0  0  0  0  0  0  0
  2  1  1  1
  1 48  1  0
  1 49  1  0
  1 50  1  0
  2 43  1  0
  2 46  1  0
  2  3  1  0
  3  4  1  0
  3  5  1  0
  3 51  1  1
  4 52  1  0
  5  6  1  0
  6 46  1  0
  6  7  1  0
  6 53  1  1
  7  8  1  0
  7 45  1  0
  7 54  1  6
  8  9  1  0
  9 10  1  0
  9 43  1  0
  9 55  1  1
 10 41  1  0
 10 11  1  6
 10 13  1  0
 11 12  1  0
 11 56  1  0
 11 57  1  0
 12 58  1  0
 13 14  1  0
 14 15  2  0
 14 16  1  0
 16 41  1  0
 16 17  1  1
 16 18  1  0
 17 59  1  0
 18 19  1  0
 18 21  2  0
 19 20  1  0
 19 60  1  0
 19 61  1  0
 20 62  1  0
 21 22  1  0
 21 63  1  0
 22 23  2  0
 22 64  1  0
 23 24  1  0
 23 41  1  0
 24 37  1  0
 24 25  1  6
 24 26  1  0
 25 65  1  0
 26 39  1  0
 26 27  1  6
 26 28  1  0
 27 66  1  0
 28 31  1  0
 28 29  2  0
 29 30  1  0
 29 67  1  0
 30 31  1  0
 30 68  1  0
 30 69  1  0
 31 40  1  0
 31 32  1  6
 32 33  1  0
 34 33  1  1
 33 70  1  0
 33 71  1  0
 34 37  1  0
 34 35  1  0
 34 39  1  0
 35 36  1  0
 35 72  1  0
 35 73  1  0
 36 37  1  0
 37 38  1  1
 38 74  1  0
 39 40  1  0
 39 75  1  6
 41 42  1  1
 42 76  1  0
 43 44  1  0
 43 77  1  1
 44 78  1  0
 45 46  1  0
 46 47  1  1
 47 79  1  0
M  END
>  <i_m_ct_stereo_status>  (55) 
1

>  <s_m_source_file>  (55) 
/var/tmp/pbs.5076253.sched01/tmp9xbr3gte/40_qt8sgg8.sdf

>  <i_m_source_file_index>  (55) 
11

>  <i_lp_mmshare_version>  (55) 
48012

>  <i_f3d_flags>  (55) 
0

>  <s_epik_input>  (55) 
W0NIM11bQ0BAXTEyW0NAQF0zKFtPSF0pW0NAQEhdKE9bQ0BASF0xW09IXSlbQ0BASF0oTzMpT1tDQEhdKFtDQEhdMltPSF0pW0NAQF0oW0NIMl1bT0hdKShPQzQ9TylbQ0BdKFtPSF0pKFtDQF00NVtPSF0pQyg9W0NIXVtDSF09QzVbQ0gyXVtPSF0pW0NAXTYoW09IXSlbQ0BAXShbT0hdKShPW0NIMl03KVtDQF03KFtDSDJdTzgpW0NASF0oTzkpW0NAXTYoW09IXSlDKFtDQF0xODkpPVtDSF1bQ0gyXTE=

>  <s_epik_cmdline>  (55) 
J2VwaWtfcHl0aG9uJywgJy1waHQnLCAnMi4wJywgJy1waCcsICc3LjAnLCAnLXRuJywgJzgnLCAnLW1hJywgJzIwMCcsICctaW1hZScsICc8aW5maWxlLm1hZT4nLCAnLW9tYWUnLCAnPG91dGZpbGUubWFlPic=

>  <r_epik_Ionization_Penalty>  (55) 
0.0434088

>  <r_epik_Ionization_Penalty_Charging>  (55) 
0

>  <r_epik_Ionization_Penalty_Neutral>  (55) 
0.0434088

>  <r_epik_State_Penalty>  (55) 
0.0290471

>  <r_epik_Charging_Adjusted_Penalty>  (55) 
0.0290471

>  <i_epik_Tot_Q>  (55) 
0

>  <i_epik_Tot_abs_Q>  (55) 
0

>  <s_epik_Chemistry_Notes>  (55) 
This compound has an ester and may undergo hydrolysis at high or low pH. This compound contains an acetal/aminal-like group ( X-CH(R)-Y where X, Y are N, S, or O) that may be acid/base labile, releasing an aldehyde.

>  <s_lp_Force_Field>  (55) 
OPLS3e

>  <r_lp_Energy>  (55) 
465.263

>  <b_lp_Chiralities_Consistent>  (55) 
1

>  <s_lp_Variant>  (55) 
35:0-1

>  <s_i_glide_gridfile>  (55) 
pfpi4k_grid

>  <i_i_glide_lignum>  (55) 
11

>  <i_i_glide_rotatable_bonds>  (55) 
14

>  <r_i_docking_score>  (55) 
-4.60596

>  <r_i_glide_ligand_efficiency>  (55) 
-0.0979992

>  <r_i_glide_ligand_efficiency_sa>  (55) 
-0.353662

>  <r_i_glide_ligand_efficiency_ln>  (55) 
-0.949654

>  <r_i_glide_gscore>  (55) 
-4.60596

>  <r_i_glide_lipo>  (55) 
-0.577632

>  <r_i_glide_hbond>  (55) 
0

>  <r_i_glide_metal>  (55) 
-0

>  <r_i_glide_rewards>  (55) 
-1.5317

>  <r_i_glide_evdw>  (55) 
-24.3246

>  <r_i_glide_ecoul>  (55) 
-7.42768

>  <r_i_glide_erotb>  (55) 
0.0299887

>  <r_i_glide_esite>  (55) 
-0.196239

>  <r_i_glide_emodel>  (55) 
-53.5742

>  <r_i_glide_energy>  (55) 
-31.7522

>  <r_i_glide_einternal>  (55) 
5.41503

>  <r_i_glide_intrahb_reward>  (55) 
-1.5

>  <i_i_glide_confnum>  (55) 
1

>  <i_i_glide_posenum>  (55) 
3

>  <r_i_glide_eff_state_penalty>  (55) 
0

>  <ligand_id>  (55) 
35

>  <original_smiles>  (55) 
CC12C(O)OC3C(OC(C4(CO)OC(=O)C5(O)C(CO)=CC=C(C6(O)C7(O)C8=CCC89OCC8(COC86O)C7O9)C54O)C1O)OC32O

>  <smiles>  (55) 
[H]OC([H])([H])C1=C([H])C([H])=C(C2(O[H])C3(O[H])OC([H])([H])C34C([H])([H])OC35OC4([H])C2(O[H])C3=C([H])C5([H])[H])C2(O[H])C1(O[H])C(=O)OC2(C([H])([H])O[H])C1([H])OC2([H])OC3(O[H])C2([H])OC([H])(O[H])C3(C([H])([H])[H])C1([H])O[H]

$$$$
35:0:1
     RDKit          3D

 79 88  0  0  1  0  0  0  0  0999 V2000
    3.4461   -2.7682    0.2167 C   0  0  0  0  0  0  0  0  0  0  0  0
    4.4544   -3.0987    1.3486 C   0  0  1  0  0  0  0  0  0  0  0  0
    5.7415   -3.7637    0.7031 C   0  0  1  0  0  0  0  0  0  0  0  0
    6.9449   -3.1047    1.0332 O   0  0  0  0  0  0  0  0  0  0  0  0
    5.7379   -5.1545    1.1330 O   0  0  0  0  0  0  0  0  0  0  0  0
    4.7896   -5.5100    2.2352 C   0  0  1  0  0  0  0  0  0  0  0  0
    4.8770   -4.8807    3.7714 C   0  0  2  0  0  0  0  0  0  0  0  0
    3.9936   -3.9369    4.5363 O   0  0  0  0  0  0  0  0  0  0  0  0
    3.8536   -2.4578    4.0759 C   0  0  1  0  0  0  0  0  0  0  0  0
    4.0246   -1.4735    5.3122 C   0  0  1  0  0  0  0  0  0  0  0  0
    3.5597   -2.1848    6.6227 C   0  0  0  0  0  0  0  0  0  0  0  0
    2.1913   -2.5564    6.6086 O   0  0  0  0  0  0  0  0  0  0  0  0
    5.4130   -1.3136    5.5828 O   0  0  0  0  0  0  0  0  0  0  0  0
    5.7960   -0.0760    5.9420 C   0  0  0  0  0  0  0  0  0  0  0  0
    6.9532    0.3009    6.1005 O   0  0  0  0  0  0  0  0  0  0  0  0
    4.5606    0.8169    6.1082 C   0  0  2  0  0  0  0  0  0  0  0  0
    4.8379    2.1402    5.6605 O   0  0  0  0  0  0  0  0  0  0  0  0
    4.1110    0.9312    7.5629 C   0  0  0  0  0  0  0  0  0  0  0  0
    5.1041    1.2278    8.6756 C   0  0  0  0  0  0  0  0  0  0  0  0
    5.9158    0.1107    8.9988 O   0  0  0  0  0  0  0  0  0  0  0  0
    2.7910    0.8509    7.8651 C   0  0  0  0  0  0  0  0  0  0  0  0
    1.7969    0.6967    6.8411 C   0  0  0  0  0  0  0  0  0  0  0  0
    2.0570    0.3530    5.5758 C   0  0  0  0  0  0  0  0  0  0  0  0
    0.9376    0.3504    4.5077 C   0  0  1  0  0  0  0  0  0  0  0  0
    1.0204   -0.8537    3.7811 O   0  0  0  0  0  0  0  0  0  0  0  0
   -0.6292    0.2842    5.0405 C   0  0  1  0  0  0  0  0  0  0  0  0
   -1.3473   -0.9371    4.8418 O   0  0  0  0  0  0  0  0  0  0  0  0
   -1.4601    1.2461    5.9869 C   0  0  0  0  0  0  0  0  0  0  0  0
   -1.5791    1.4216    7.3205 C   0  0  0  0  0  0  0  0  0  0  0  0
   -1.7845    2.9347    7.1395 C   0  0  0  0  0  0  0  0  0  0  0  0
   -1.4645    2.7409    5.6339 C   0  0  2  0  0  0  0  0  0  0  0  0
   -2.0862    3.4372    4.4789 O   0  0  0  0  0  0  0  0  0  0  0  0
   -1.1708    3.4145    3.2653 C   0  0  0  0  0  0  0  0  0  0  0  0
   -0.3635    2.0142    3.0710 C   0  0  1  0  0  0  0  0  0  0  0  0
   -0.1253    1.3888    1.7144 C   0  0  0  0  0  0  0  0  0  0  0  0
    1.2409    0.9828    2.0602 O   0  0  0  0  0  0  0  0  0  0  0  0
    1.0709    1.5233    3.3936 C   0  0  2  0  0  0  0  0  0  0  0  0
    1.9794    2.5913    3.7215 O   0  0  0  0  0  0  0  0  0  0  0  0
   -1.0522    1.3411    4.1301 C   0  0  2  0  0  0  0  0  0  0  0  0
   -0.3840    2.2915    5.1139 O   0  0  0  0  0  0  0  0  0  0  0  0
    3.5448    0.0472    5.1944 C   0  0  2  0  0  0  0  0  0  0  0  0
    3.8040    0.5009    3.8799 O   0  0  0  0  0  0  0  0  0  0  0  0
    4.3946   -1.9647    2.5398 C   0  0  1  0  0  0  0  0  0  0  0  0
    5.5978   -1.2090    2.6173 O   0  0  0  0  0  0  0  0  0  0  0  0
    5.3397   -3.9464    3.0494 O   0  0  0  0  0  0  0  0  0  0  0  0
    4.1520   -4.2569    2.1112 C   0  0  1  0  0  0  0  0  0  0  0  0
    2.7305   -4.3161    2.3732 O   0  0  0  0  0  0  0  0  0  0  0  0
    3.2708   -3.6254   -0.4314 H   0  0  0  0  0  0  0  0  0  0  0  0
    3.8198   -1.9531   -0.4042 H   0  0  0  0  0  0  0  0  0  0  0  0
    2.4718   -2.4403    0.5945 H   0  0  0  0  0  0  0  0  0  0  0  0
    5.6816   -3.7501   -0.3801 H   0  0  0  0  0  0  0  0  0  0  0  0
    6.9092   -2.9303    1.9623 H   0  0  0  0  0  0  0  0  0  0  0  0
    4.1058   -6.3550    2.0965 H   0  0  0  0  0  0  0  0  0  0  0  0
    5.6481   -5.3551    4.3703 H   0  0  0  0  0  0  0  0  0  0  0  0
    2.7808   -2.4523    3.9623 H   0  0  0  0  0  0  0  0  0  0  0  0
    4.1695   -3.0789    6.7949 H   0  0  0  0  0  0  0  0  0  0  0  0
    3.7469   -1.5993    7.5234 H   0  0  0  0  0  0  0  0  0  0  0  0
    2.0850   -3.2256    5.9512 H   0  0  0  0  0  0  0  0  0  0  0  0
    4.0509    2.6544    5.7132 H   0  0  0  0  0  0  0  0  0  0  0  0
    5.7194    2.0904    8.4131 H   0  0  0  0  0  0  0  0  0  0  0  0
    4.5623    1.4929    9.5861 H   0  0  0  0  0  0  0  0  0  0  0  0
    5.3624   -0.6046    9.2657 H   0  0  0  0  0  0  0  0  0  0  0  0
    2.4655    0.9473    8.8884 H   0  0  0  0  0  0  0  0  0  0  0  0
    0.7944    0.9091    7.1425 H   0  0  0  0  0  0  0  0  0  0  0  0
    1.6780   -0.7057    3.1176 H   0  0  0  0  0  0  0  0  0  0  0  0
   -0.9850   -1.3314    4.0565 H   0  0  0  0  0  0  0  0  0  0  0  0
   -1.3599    0.8051    8.1734 H   0  0  0  0  0  0  0  0  0  0  0  0
   -2.7998    3.2898    7.3049 H   0  0  0  0  0  0  0  0  0  0  0  0
   -1.0726    3.5920    7.6391 H   0  0  0  0  0  0  0  0  0  0  0  0
   -1.7585    3.6481    2.3853 H   0  0  0  0  0  0  0  0  0  0  0  0
   -0.4533    4.2239    3.3856 H   0  0  0  0  0  0  0  0  0  0  0  0
   -0.7822    0.5476    1.5063 H   0  0  0  0  0  0  0  0  0  0  0  0
   -0.1531    2.1136    0.9061 H   0  0  0  0  0  0  0  0  0  0  0  0
    2.0025    3.1575    2.9736 H   0  0  0  0  0  0  0  0  0  0  0  0
   -2.1371    1.2786    3.8900 H   0  0  0  0  0  0  0  0  0  0  0  0
    3.5902    1.4272    3.8426 H   0  0  0  0  0  0  0  0  0  0  0  0
    3.6540   -1.2572    2.1826 H   0  0  0  0  0  0  0  0  0  0  0  0
    5.4139   -0.4712    3.1826 H   0  0  0  0  0  0  0  0  0  0  0  0
    2.3163   -4.5702    1.5697 H   0  0  0  0  0  0  0  0  0  0  0  0
  2  1  1  6
  1 48  1  0
  1 49  1  0
  1 50  1  0
  2 43  1  0
  2 46  1  0
  2  3  1  0
  3  4  1  0
  3  5  1  0
  3 51  1  6
  4 52  1  0
  5  6  1  0
  6 46  1  0
  6  7  1  0
  6 53  1  1
  7  8  1  0
  7 45  1  0
  7 54  1  1
  8  9  1  0
  9 10  1  0
  9 43  1  0
  9 55  1  6
 10 41  1  0
 10 11  1  1
 10 13  1  0
 11 12  1  0
 11 56  1  0
 11 57  1  0
 12 58  1  0
 13 14  1  0
 14 15  2  0
 14 16  1  0
 16 41  1  0
 16 17  1  6
 16 18  1  0
 17 59  1  0
 18 19  1  0
 18 21  2  0
 19 20  1  0
 19 60  1  0
 19 61  1  0
 20 62  1  0
 21 22  1  0
 21 63  1  0
 22 23  2  0
 22 64  1  0
 23 24  1  0
 23 41  1  0
 24 37  1  0
 24 25  1  6
 24 26  1  0
 25 65  1  0
 26 39  1  0
 26 27  1  6
 26 28  1  0
 27 66  1  0
 28 31  1  0
 28 29  2  0
 29 30  1  0
 29 67  1  0
 30 31  1  0
 30 68  1  0
 30 69  1  0
 31 40  1  0
 31 32  1  6
 32 33  1  0
 34 33  1  6
 33 70  1  0
 33 71  1  0
 34 37  1  0
 34 35  1  0
 34 39  1  0
 35 36  1  0
 35 72  1  0
 35 73  1  0
 36 37  1  0
 37 38  1  1
 38 74  1  0
 39 40  1  0
 39 75  1  6
 41 42  1  6
 42 76  1  0
 43 44  1  0
 43 77  1  6
 44 78  1  0
 45 46  1  0
 46 47  1  1
 47 79  1  0
M  END
>  <i_m_ct_stereo_status>  (56) 
1

>  <s_m_source_file>  (56) 
/var/tmp/pbs.5076253.sched01/tmp9xbr3gte/40_qt8sgg8.sdf

>  <i_m_source_file_index>  (56) 
11

>  <i_lp_mmshare_version>  (56) 
48012

>  <i_f3d_flags>  (56) 
0

>  <s_epik_input>  (56) 
W0NIM11bQ0BAXTEyW0NAQF0zKFtPSF0pW0NAQEhdKE9bQ0BASF0xW09IXSlbQ0BASF0oTzMpT1tDQEhdKFtDQEhdMltPSF0pW0NAQF0oW0NIMl1bT0hdKShPQzQ9TylbQ0BdKFtPSF0pKFtDQF00NVtPSF0pQyg9W0NIXVtDSF09QzVbQ0gyXVtPSF0pW0NAXTYoW09IXSlbQ0BAXShbT0hdKShPW0NIMl03KVtDQF03KFtDSDJdTzgpW0NASF0oTzkpW0NAXTYoW09IXSlDKFtDQF0xODkpPVtDSF1bQ0gyXTE=

>  <s_epik_cmdline>  (56) 
J2VwaWtfcHl0aG9uJywgJy1waHQnLCAnMi4wJywgJy1waCcsICc3LjAnLCAnLXRuJywgJzgnLCAnLW1hJywgJzIwMCcsICctaW1hZScsICc8aW5maWxlLm1hZT4nLCAnLW9tYWUnLCAnPG91dGZpbGUubWFlPic=

>  <r_epik_Ionization_Penalty>  (56) 
0.0434088

>  <r_epik_Ionization_Penalty_Charging>  (56) 
0

>  <r_epik_Ionization_Penalty_Neutral>  (56) 
0.0434088

>  <r_epik_State_Penalty>  (56) 
0.0290471

>  <r_epik_Charging_Adjusted_Penalty>  (56) 
0.0290471

>  <i_epik_Tot_Q>  (56) 
0

>  <i_epik_Tot_abs_Q>  (56) 
0

>  <s_epik_Chemistry_Notes>  (56) 
This compound has an ester and may undergo hydrolysis at high or low pH. This compound contains an acetal/aminal-like group ( X-CH(R)-Y where X, Y are N, S, or O) that may be acid/base labile, releasing an aldehyde.

>  <s_lp_Force_Field>  (56) 
OPLS3e

>  <r_lp_Energy>  (56) 
465.263

>  <b_lp_Chiralities_Consistent>  (56) 
1

>  <s_lp_Variant>  (56) 
35:0-1

>  <s_i_glide_gridfile>  (56) 
pfpi4k_grid

>  <i_i_glide_lignum>  (56) 
11

>  <i_i_glide_rotatable_bonds>  (56) 
14

>  <r_i_docking_score>  (56) 
-3.58593

>  <r_i_glide_ligand_efficiency>  (56) 
-0.0762964

>  <r_i_glide_ligand_efficiency_sa>  (56) 
-0.275341

>  <r_i_glide_ligand_efficiency_ln>  (56) 
-0.739345

>  <r_i_glide_gscore>  (56) 
-3.58593

>  <r_i_glide_lipo>  (56) 
-0.0947725

>  <r_i_glide_hbond>  (56) 
0

>  <r_i_glide_metal>  (56) 
-0

>  <r_i_glide_rewards>  (56) 
-1.20477

>  <r_i_glide_evdw>  (56) 
-29.5437

>  <r_i_glide_ecoul>  (56) 
-5.44521

>  <r_i_glide_erotb>  (56) 
0.0299887

>  <r_i_glide_esite>  (56) 
-0.0224115

>  <r_i_glide_emodel>  (56) 
-50.1978

>  <r_i_glide_energy>  (56) 
-34.9889

>  <r_i_glide_einternal>  (56) 
4.56562

>  <r_i_glide_intrahb_reward>  (56) 
-1

>  <i_i_glide_confnum>  (56) 
5

>  <i_i_glide_posenum>  (56) 
37

>  <r_i_glide_eff_state_penalty>  (56) 
0

>  <ligand_id>  (56) 
35

>  <original_smiles>  (56) 
CC12C(O)OC3C(OC(C4(CO)OC(=O)C5(O)C(CO)=CC=C(C6(O)C7(O)C8=CCC89OCC8(COC86O)C7O9)C54O)C1O)OC32O

>  <smiles>  (56) 
[H]OC([H])([H])C1=C([H])C([H])=C(C2(O[H])C3(O[H])OC([H])([H])C34C([H])([H])OC35OC4([H])C2(O[H])C3=C([H])C5([H])[H])C2(O[H])C1(O[H])C(=O)OC2(C([H])([H])O[H])C1([H])OC2([H])OC3(O[H])C2([H])OC([H])(O[H])C3(C([H])([H])[H])C1([H])O[H]

$$$$
35:0:2
     RDKit          3D

 79 88  0  0  1  0  0  0  0  0999 V2000
    2.7626   -3.1257    1.1173 C   0  0  0  0  0  0  0  0  0  0  0  0
    3.8934   -3.2343    2.1697 C   0  0  1  0  0  0  0  0  0  0  0  0
    5.1283   -3.9788    1.5191 C   0  0  1  0  0  0  0  0  0  0  0  0
    6.3336   -3.2339    1.6015 O   0  0  0  0  0  0  0  0  0  0  0  0
    5.2268   -5.2729    2.1813 O   0  0  0  0  0  0  0  0  0  0  0  0
    4.4043   -5.4416    3.4244 C   0  0  1  0  0  0  0  0  0  0  0  0
    4.6253   -4.5566    4.8017 C   0  0  2  0  0  0  0  0  0  0  0  0
    3.7935   -3.5048    5.4868 O   0  0  0  0  0  0  0  0  0  0  0  0
    3.5537   -2.1307    4.7896 C   0  0  1  0  0  0  0  0  0  0  0  0
    3.8191   -0.9437    5.8160 C   0  0  1  0  0  0  0  0  0  0  0  0
    3.5070   -1.4233    7.2692 C   0  0  0  0  0  0  0  0  0  0  0  0
    2.1503   -1.8114    7.4537 O   0  0  0  0  0  0  0  0  0  0  0  0
    5.2146   -0.7003    5.9197 O   0  0  0  0  0  0  0  0  0  0  0  0
    5.5826    0.5833    6.0336 C   0  0  0  0  0  0  0  0  0  0  0  0
    6.7238    1.0110    6.0376 O   0  0  0  0  0  0  0  0  0  0  0  0
    4.3228    1.4646    6.1514 C   0  0  2  0  0  0  0  0  0  0  0  0
    4.4871    2.6841    5.4389 O   0  0  0  0  0  0  0  0  0  0  0  0
    4.0047    1.8338    7.6056 C   0  0  0  0  0  0  0  0  0  0  0  0
    5.1339    2.3330    8.5185 C   0  0  0  0  0  0  0  0  0  0  0  0
    4.7590    2.4647    9.8854 O   0  0  0  0  0  0  0  0  0  0  0  0
    2.7289    1.7558    8.0486 C   0  0  0  0  0  0  0  0  0  0  0  0
    1.6503    1.4099    7.1549 C   0  0  0  0  0  0  0  0  0  0  0  0
    1.8138    0.8590    5.9621 C   0  0  0  0  0  0  0  0  0  0  0  0
    0.5899    0.6531    5.0373 C   0  0  1  0  0  0  0  0  0  0  0  0
    0.6432   -0.6673    4.5354 O   0  0  0  0  0  0  0  0  0  0  0  0
   -0.9073    0.6325    5.7436 C   0  0  1  0  0  0  0  0  0  0  0  0
   -1.6216   -0.5948    5.8188 O   0  0  0  0  0  0  0  0  0  0  0  0
   -1.6652    1.7479    6.6146 C   0  0  0  0  0  0  0  0  0  0  0  0
   -1.6922    2.1302    7.8685 C   0  0  0  0  0  0  0  0  0  0  0  0
   -1.9488    3.5898    7.4770 C   0  0  0  0  0  0  0  0  0  0  0  0
   -1.7725    3.1460    5.9974 C   0  0  2  0  0  0  0  0  0  0  0  0
   -2.5438    3.6088    4.8129 O   0  0  0  0  0  0  0  0  0  0  0  0
   -1.7624    3.3936    3.5311 C   0  0  0  0  0  0  0  0  0  0  0  0
   -0.9147    2.0071    3.4943 C   0  0  1  0  0  0  0  0  0  0  0  0
   -0.7862    1.1638    2.2492 C   0  0  0  0  0  0  0  0  0  0  0  0
    0.6113    0.8411    2.5178 O   0  0  0  0  0  0  0  0  0  0  0  0
    0.5554    1.6121    3.7336 C   0  0  2  0  0  0  0  0  0  0  0  0
    1.4509    2.7557    3.7633 O   0  0  0  0  0  0  0  0  0  0  0  0
   -1.4645    1.5168    4.7198 C   0  0  2  0  0  0  0  0  0  0  0  0
   -0.7371    2.6367    5.4466 O   0  0  0  0  0  0  0  0  0  0  0  0
    3.2616    0.5198    5.4843 C   0  0  2  0  0  0  0  0  0  0  0  0
    3.3774    0.7432    4.0929 O   0  0  0  0  0  0  0  0  0  0  0  0
    3.9147   -1.9136    3.1457 C   0  0  1  0  0  0  0  0  0  0  0  0
    5.0877   -1.1252    2.9679 O   0  0  0  0  0  0  0  0  0  0  0  0
    4.9713   -3.7537    3.8865 O   0  0  0  0  0  0  0  0  0  0  0  0
    3.7104   -4.2512    3.1477 C   0  0  1  0  0  0  0  0  0  0  0  0
    2.3236   -4.2875    3.5696 O   0  0  0  0  0  0  0  0  0  0  0  0
    2.5557   -4.0859    0.6499 H   0  0  0  0  0  0  0  0  0  0  0  0
    3.0447   -2.4266    0.3293 H   0  0  0  0  0  0  0  0  0  0  0  0
    1.8237   -2.7536    1.5396 H   0  0  0  0  0  0  0  0  0  0  0  0
    4.9626   -4.1521    0.4577 H   0  0  0  0  0  0  0  0  0  0  0  0
    6.3681   -2.8736    2.4711 H   0  0  0  0  0  0  0  0  0  0  0  0
    3.7380   -6.3038    3.5277 H   0  0  0  0  0  0  0  0  0  0  0  0
    5.4906   -4.8893    5.3772 H   0  0  0  0  0  0  0  0  0  0  0  0
    2.4721   -2.1643    4.7974 H   0  0  0  0  0  0  0  0  0  0  0  0
    4.1609   -2.2704    7.5160 H   0  0  0  0  0  0  0  0  0  0  0  0
    3.7732   -0.6944    8.0358 H   0  0  0  0  0  0  0  0  0  0  0  0
    2.0101   -2.5957    6.9608 H   0  0  0  0  0  0  0  0  0  0  0  0
    3.7018    3.1880    5.4987 H   0  0  0  0  0  0  0  0  0  0  0  0
    5.9956    1.6649    8.5080 H   0  0  0  0  0  0  0  0  0  0  0  0
    5.4480    3.3184    8.1640 H   0  0  0  0  0  0  0  0  0  0  0  0
    3.9601    2.9565    9.9435 H   0  0  0  0  0  0  0  0  0  0  0  0
    2.4412    2.0004    9.0533 H   0  0  0  0  0  0  0  0  0  0  0  0
    0.6807    1.6505    7.5274 H   0  0  0  0  0  0  0  0  0  0  0  0
    1.2672   -0.6224    3.8327 H   0  0  0  0  0  0  0  0  0  0  0  0
   -1.4202   -1.0924    5.0399 H   0  0  0  0  0  0  0  0  0  0  0  0
   -1.3845    1.6609    8.8138 H   0  0  0  0  0  0  0  0  0  0  0  0
   -2.9536    3.9519    7.6741 H   0  0  0  0  0  0  0  0  0  0  0  0
   -1.2183    4.3377    7.7824 H   0  0  0  0  0  0  0  0  0  0  0  0
   -2.4368    3.4585    2.6802 H   0  0  0  0  0  0  0  0  0  0  0  0
   -1.0710    4.2314    3.4518 H   0  0  0  0  0  0  0  0  0  0  0  0
   -1.4599    0.3083    2.2671 H   0  0  0  0  0  0  0  0  0  0  0  0
   -0.8780    1.7328    1.3257 H   0  0  0  0  0  0  0  0  0  0  0  0
    1.3626    3.1862    2.9296 H   0  0  0  0  0  0  0  0  0  0  0  0
   -2.5614    1.3850    4.6147 H   0  0  0  0  0  0  0  0  0  0  0  0
    3.1586    1.6521    3.9312 H   0  0  0  0  0  0  0  0  0  0  0  0
    3.1125   -1.2959    2.7435 H   0  0  0  0  0  0  0  0  0  0  0  0
    4.8971   -0.2827    3.3495 H   0  0  0  0  0  0  0  0  0  0  0  0
    1.8553   -4.8562    2.9813 H   0  0  0  0  0  0  0  0  0  0  0  0
  2  1  1  6
  1 48  1  0
  1 49  1  0
  1 50  1  0
  2 43  1  0
  2 46  1  0
  2  3  1  0
  3  4  1  0
  3  5  1  0
  3 51  1  6
  4 52  1  0
  5  6  1  0
  6 46  1  0
  6  7  1  0
  6 53  1  1
  7  8  1  0
  7 45  1  0
  7 54  1  1
  8  9  1  0
  9 10  1  0
  9 43  1  0
  9 55  1  6
 10 41  1  0
 10 11  1  1
 10 13  1  0
 11 12  1  0
 11 56  1  0
 11 57  1  0
 12 58  1  0
 13 14  1  0
 14 15  2  0
 14 16  1  0
 16 41  1  0
 16 17  1  6
 16 18  1  0
 17 59  1  0
 18 19  1  0
 18 21  2  0
 19 20  1  0
 19 60  1  0
 19 61  1  0
 20 62  1  0
 21 22  1  0
 21 63  1  0
 22 23  2  0
 22 64  1  0
 23 24  1  0
 23 41  1  0
 24 37  1  0
 24 25  1  6
 24 26  1  0
 25 65  1  0
 26 39  1  0
 26 27  1  6
 26 28  1  0
 27 66  1  0
 28 31  1  0
 28 29  2  0
 29 30  1  0
 29 67  1  0
 30 31  1  0
 30 68  1  0
 30 69  1  0
 31 40  1  0
 31 32  1  6
 32 33  1  0
 34 33  1  6
 33 70  1  0
 33 71  1  0
 34 37  1  0
 34 35  1  0
 34 39  1  0
 35 36  1  0
 35 72  1  0
 35 73  1  0
 36 37  1  0
 37 38  1  1
 38 74  1  0
 39 40  1  0
 39 75  1  6
 41 42  1  6
 42 76  1  0
 43 44  1  0
 43 77  1  6
 44 78  1  0
 45 46  1  0
 46 47  1  1
 47 79  1  0
M  END
>  <i_m_ct_stereo_status>  (57) 
1

>  <s_m_source_file>  (57) 
/var/tmp/pbs.5076253.sched01/tmp9xbr3gte/40_qt8sgg8.sdf

>  <i_m_source_file_index>  (57) 
11

>  <i_lp_mmshare_version>  (57) 
48012

>  <i_f3d_flags>  (57) 
0

>  <s_epik_input>  (57) 
W0NIM11bQ0BAXTEyW0NAQF0zKFtPSF0pW0NAQEhdKE9bQ0BASF0xW09IXSlbQ0BASF0oTzMpT1tDQEhdKFtDQEhdMltPSF0pW0NAQF0oW0NIMl1bT0hdKShPQzQ9TylbQ0BdKFtPSF0pKFtDQF00NVtPSF0pQyg9W0NIXVtDSF09QzVbQ0gyXVtPSF0pW0NAXTYoW09IXSlbQ0BAXShbT0hdKShPW0NIMl03KVtDQF03KFtDSDJdTzgpW0NASF0oTzkpW0NAXTYoW09IXSlDKFtDQF0xODkpPVtDSF1bQ0gyXTE=

>  <s_epik_cmdline>  (57) 
J2VwaWtfcHl0aG9uJywgJy1waHQnLCAnMi4wJywgJy1waCcsICc3LjAnLCAnLXRuJywgJzgnLCAnLW1hJywgJzIwMCcsICctaW1hZScsICc8aW5maWxlLm1hZT4nLCAnLW9tYWUnLCAnPG91dGZpbGUubWFlPic=

>  <r_epik_Ionization_Penalty>  (57) 
0.0434088

>  <r_epik_Ionization_Penalty_Charging>  (57) 
0

>  <r_epik_Ionization_Penalty_Neutral>  (57) 
0.0434088

>  <r_epik_State_Penalty>  (57) 
0.0290471

>  <r_epik_Charging_Adjusted_Penalty>  (57) 
0.0290471

>  <i_epik_Tot_Q>  (57) 
0

>  <i_epik_Tot_abs_Q>  (57) 
0

>  <s_epik_Chemistry_Notes>  (57) 
This compound has an ester and may undergo hydrolysis at high or low pH. This compound contains an acetal/aminal-like group ( X-CH(R)-Y where X, Y are N, S, or O) that may be acid/base labile, releasing an aldehyde.

>  <s_lp_Force_Field>  (57) 
OPLS3e

>  <r_lp_Energy>  (57) 
465.263

>  <b_lp_Chiralities_Consistent>  (57) 
1

>  <s_lp_Variant>  (57) 
35:0-1

>  <s_i_glide_gridfile>  (57) 
pfpi4k_grid

>  <i_i_glide_lignum>  (57) 
11

>  <i_i_glide_rotatable_bonds>  (57) 
14

>  <r_i_docking_score>  (57) 
-3.53925

>  <r_i_glide_ligand_efficiency>  (57) 
-0.0753032

>  <r_i_glide_ligand_efficiency_sa>  (57) 
-0.271756

>  <r_i_glide_ligand_efficiency_ln>  (57) 
-0.72972

>  <r_i_glide_gscore>  (57) 
-3.53925

>  <r_i_glide_lipo>  (57) 
-0.0583919

>  <r_i_glide_hbond>  (57) 
0

>  <r_i_glide_metal>  (57) 
-0

>  <r_i_glide_rewards>  (57) 
-1.16687

>  <r_i_glide_evdw>  (57) 
-26.2232

>  <r_i_glide_ecoul>  (57) 
-6.73623

>  <r_i_glide_erotb>  (57) 
0.0299887

>  <r_i_glide_esite>  (57) 
-0.0223801

>  <r_i_glide_emodel>  (57) 
-47.1185

>  <r_i_glide_energy>  (57) 
-32.9595

>  <r_i_glide_einternal>  (57) 
6.20065

>  <r_i_glide_intrahb_reward>  (57) 
-1

>  <i_i_glide_confnum>  (57) 
3

>  <i_i_glide_posenum>  (57) 
40

>  <r_i_glide_eff_state_penalty>  (57) 
0

>  <ligand_id>  (57) 
35

>  <original_smiles>  (57) 
CC12C(O)OC3C(OC(C4(CO)OC(=O)C5(O)C(CO)=CC=C(C6(O)C7(O)C8=CCC89OCC8(COC86O)C7O9)C54O)C1O)OC32O

>  <smiles>  (57) 
[H]OC([H])([H])C1=C([H])C([H])=C(C2(O[H])C3(O[H])OC([H])([H])C34C([H])([H])OC35OC4([H])C2(O[H])C3=C([H])C5([H])[H])C2(O[H])C1(O[H])C(=O)OC2(C([H])([H])O[H])C1([H])OC2([H])OC3(O[H])C2([H])OC([H])(O[H])C3(C([H])([H])[H])C1([H])O[H]

$$$$
35:1:0
     RDKit          3D

 78 87  0  0  1  0  0  0  0  0999 V2000
    0.9096    0.9105    4.1856 C   0  0  0  0  0  0  0  0  0  0  0  0
    0.3106   -0.2062    5.0756 C   0  0  1  0  0  0  0  0  0  0  0  0
   -1.2466    0.0780    5.2689 C   0  0  1  0  0  0  0  0  0  0  0  0
   -2.0759   -0.9963    4.8772 O   0  0  0  0  0  0  0  0  0  0  0  0
   -1.4432    0.4913    6.6650 O   0  0  0  0  0  0  0  0  0  0  0  0
   -0.2711    0.2868    7.5650 C   0  0  1  0  0  0  0  0  0  0  0  0
    0.3648   -1.1873    7.9776 C   0  0  2  0  0  0  0  0  0  0  0  0
    1.6156   -1.9182    7.5904 O   0  0  0  0  0  0  0  0  0  0  0  0
    1.8729   -2.3756    6.1313 C   0  0  1  0  0  0  0  0  0  0  0  0
    2.1535   -3.9449    6.0533 C   0  0  1  0  0  0  0  0  0  0  0  0
    3.0879   -4.2808    4.8394 C   0  0  0  0  0  0  0  0  0  0  0  0
    2.6507   -3.8935    3.5433 O   0  0  0  0  0  0  0  0  0  0  0  0
    3.0514   -4.1687    7.1404 O   0  0  0  0  0  0  0  0  0  0  0  0
    2.5332   -4.6822    8.2419 C   0  0  0  0  0  0  0  0  0  0  0  0
    3.1468   -4.8322    9.2979 O   0  0  0  0  0  0  0  0  0  0  0  0
    1.0602   -5.0183    8.0373 C   0  0  2  0  0  0  0  0  0  0  0  0
    0.3354   -4.0033    8.7106 O   0  0  0  0  0  0  0  0  0  0  0  0
    0.7437   -6.3631    8.7378 C   0  0  0  0  0  0  0  0  0  0  0  0
    0.4684   -6.3505   10.2490 C   0  0  0  0  0  0  0  0  0  0  0  0
   -0.1707   -7.5371   10.6848 O   0  0  0  0  0  0  0  0  0  0  0  0
    0.7380   -7.5048    8.0411 C   0  0  0  0  0  0  0  0  0  0  0  0
    0.9010   -7.5008    6.6163 C   0  0  0  0  0  0  0  0  0  0  0  0
    0.9741   -6.4103    5.7774 C   0  0  0  0  0  0  0  0  0  0  0  0
    0.8300   -6.7083    4.2113 C   0  0  1  0  0  0  0  0  0  0  0  0
    0.6014   -5.5363    3.4307 O   0  0  0  0  0  0  0  0  0  0  0  0
    2.1655   -7.3950    3.5396 C   0  0  1  0  0  0  0  0  0  0  0  0
    2.8523   -6.6499    2.5505 O   0  0  0  0  0  0  0  0  0  0  0  0
    3.0469   -8.6281    3.9741 C   0  0  0  0  0  0  0  0  0  0  0  0
    3.8358   -8.8197    5.0492 C   0  0  0  0  0  0  0  0  0  0  0  0
    3.3914  -10.2939    5.1613 C   0  0  0  0  0  0  0  0  0  0  0  0
    2.2853   -9.9598    4.1278 C   0  0  2  0  0  0  0  0  0  0  0  0
    1.6258  -10.8308    3.1248 O   0  0  0  0  0  0  0  0  0  0  0  0
    0.2001  -10.3644    2.8023 C   0  0  0  0  0  0  0  0  0  0  0  0
    0.0523   -8.7364    2.7677 C   0  0  1  0  0  0  0  0  0  0  0  0
   -0.7815   -8.0427    1.7117 C   0  0  0  0  0  0  0  0  0  0  0  0
   -1.2418   -7.0437    2.6585 O   0  0  0  0  0  0  0  0  0  0  0  0
   -0.4589   -7.6305    3.7433 C   0  0  2  0  0  0  0  0  0  0  0  0
   -1.2983   -8.0794    4.7879 O   0  0  0  0  0  0  0  0  0  0  0  0
    1.4505   -8.4861    2.9043 C   0  0  2  0  0  0  0  0  0  0  0  0
    1.3741   -9.0863    4.2714 O   0  0  0  0  0  0  0  0  0  0  0  0
    0.9494   -4.9593    6.4349 C   0  0  2  0  0  0  0  0  0  0  0  0
   -0.2432   -4.4656    6.1677 O   0  0  0  0  0  0  0  0  0  0  0  0
    1.0616   -1.6533    4.8340 C   0  0  1  0  0  0  0  0  0  0  0  0
    0.2270   -2.5023    4.0780 O   0  0  0  0  0  0  0  0  0  0  0  0
   -0.1026   -1.3536    6.8058 O   0  0  0  0  0  0  0  0  0  0  0  0
    0.5751   -0.0152    6.4658 C   0  0  1  0  0  0  0  0  0  0  0  0
    1.9375    0.4019    6.6618 O   0  0  0  0  0  0  0  0  0  0  0  0
    0.6369    1.9038    4.5495 H   0  0  0  0  0  0  0  0  0  0  0  0
    0.5532    0.8159    3.1628 H   0  0  0  0  0  0  0  0  0  0  0  0
    2.0025    0.8761    4.1504 H   0  0  0  0  0  0  0  0  0  0  0  0
   -1.5522    0.9134    4.6377 H   0  0  0  0  0  0  0  0  0  0  0  0
   -2.8789   -0.6347    4.5347 H   0  0  0  0  0  0  0  0  0  0  0  0
    0.0432    1.1213    8.1792 H   0  0  0  0  0  0  0  0  0  0  0  0
   -0.2182   -1.7021    8.7370 H   0  0  0  0  0  0  0  0  0  0  0  0
    2.8794   -1.9622    6.0195 H   0  0  0  0  0  0  0  0  0  0  0  0
    4.0359   -3.7581    4.9356 H   0  0  0  0  0  0  0  0  0  0  0  0
    3.3722   -5.3258    4.8255 H   0  0  0  0  0  0  0  0  0  0  0  0
    3.1251   -4.3828    2.8828 H   0  0  0  0  0  0  0  0  0  0  0  0
    0.6982   -3.9205    9.5773 H   0  0  0  0  0  0  0  0  0  0  0  0
    1.4070   -6.2333   10.7970 H   0  0  0  0  0  0  0  0  0  0  0  0
   -0.1913   -5.5348   10.5418 H   0  0  0  0  0  0  0  0  0  0  0  0
    0.4498   -8.2457   10.6003 H   0  0  0  0  0  0  0  0  0  0  0  0
    0.4921   -8.4533    8.5097 H   0  0  0  0  0  0  0  0  0  0  0  0
    0.7872   -8.4847    6.2280 H   0  0  0  0  0  0  0  0  0  0  0  0
    1.3047   -4.9113    3.6005 H   0  0  0  0  0  0  0  0  0  0  0  0
    3.5500   -7.1831    2.1975 H   0  0  0  0  0  0  0  0  0  0  0  0
    4.4029   -8.1609    5.6926 H   0  0  0  0  0  0  0  0  0  0  0  0
    4.0980  -11.0417    4.7982 H   0  0  0  0  0  0  0  0  0  0  0  0
    2.9901  -10.6191    6.1197 H   0  0  0  0  0  0  0  0  0  0  0  0
   -0.1123  -10.8125    1.8578 H   0  0  0  0  0  0  0  0  0  0  0  0
   -0.4670  -10.7485    3.5730 H   0  0  0  0  0  0  0  0  0  0  0  0
   -0.1907   -7.6319    0.8866 H   0  0  0  0  0  0  0  0  0  0  0  0
   -1.6088   -8.6521    1.3472 H   0  0  0  0  0  0  0  0  0  0  0  0
   -1.5681   -8.9661    4.5935 H   0  0  0  0  0  0  0  0  0  0  0  0
    1.9752   -8.9087    2.0240 H   0  0  0  0  0  0  0  0  0  0  0  0
    1.8591   -1.4543    4.1160 H   0  0  0  0  0  0  0  0  0  0  0  0
    0.0065   -2.0766    3.2684 H   0  0  0  0  0  0  0  0  0  0  0  0
    2.4811   -0.3233    6.4084 H   0  0  0  0  0  0  0  0  0  0  0  0
  2  1  1  6
  1 48  1  0
  1 49  1  0
  1 50  1  0
  2 43  1  0
  2 46  1  0
  2  3  1  0
  3  4  1  0
  3  5  1  0
  3 51  1  6
  4 52  1  0
  5  6  1  0
  6 46  1  0
  6  7  1  0
  6 53  1  1
  7  8  1  0
  7 45  1  0
  7 54  1  1
  8  9  1  0
  9 10  1  0
  9 43  1  0
  9 55  1  6
 10 41  1  0
 10 11  1  6
 10 13  1  0
 11 12  1  0
 11 56  1  0
 11 57  1  0
 12 58  1  0
 13 14  1  0
 14 15  2  0
 14 16  1  0
 16 41  1  0
 16 17  1  1
 16 18  1  0
 17 59  1  0
 18 19  1  0
 18 21  2  0
 19 20  1  0
 19 60  1  0
 19 61  1  0
 20 62  1  0
 21 22  1  0
 21 63  1  0
 22 23  2  0
 22 64  1  0
 23 24  1  0
 23 41  1  0
 24 37  1  0
 24 25  1  6
 24 26  1  0
 25 65  1  0
 26 39  1  0
 26 27  1  6
 26 28  1  0
 27 66  1  0
 28 31  1  0
 28 29  2  0
 29 30  1  0
 29 67  1  0
 30 31  1  0
 30 68  1  0
 30 69  1  0
 31 40  1  0
 31 32  1  6
 32 33  1  0
 34 33  1  1
 33 70  1  0
 33 71  1  0
 34 37  1  0
 34 35  1  0
 34 39  1  0
 35 36  1  0
 35 72  1  0
 35 73  1  0
 36 37  1  0
 37 38  1  1
 38 74  1  0
 39 40  1  0
 39 75  1  6
 41 42  1  1
 43 44  1  0
 43 76  1  6
 44 77  1  0
 45 46  1  0
 46 47  1  6
 47 78  1  0
M  CHG  1  42  -1
M  END
>  <i_m_ct_stereo_status>  (58) 
1

>  <s_m_source_file>  (58) 
/var/tmp/pbs.5076253.sched01/tmp9xbr3gte/40_qt8sgg8.sdf

>  <i_m_source_file_index>  (58) 
12

>  <i_lp_mmshare_version>  (58) 
48012

>  <i_f3d_flags>  (58) 
0

>  <s_epik_input>  (58) 
W0NIM11bQ0BAXTEyW0NAQF0zKFtPSF0pW0NAQEhdKE9bQ0BASF0xW09IXSlbQ0BASF0oTzMpT1tDQEhdKFtDQEhdMltPSF0pW0NAQF0oW0NIMl1bT0hdKShPQzQ9TylbQ0BdKFtPSF0pKFtDQF00NVtPSF0pQyg9W0NIXVtDSF09QzVbQ0gyXVtPSF0pW0NAXTYoW09IXSlbQ0BAXShbT0hdKShPW0NIMl03KVtDQF03KFtDSDJdTzgpW0NASF0oTzkpW0NAXTYoW09IXSlDKFtDQF0xODkpPVtDSF1bQ0gyXTE=

>  <s_epik_cmdline>  (58) 
J2VwaWtfcHl0aG9uJywgJy1waHQnLCAnMi4wJywgJy1waCcsICc3LjAnLCAnLXRuJywgJzgnLCAnLW1hJywgJzIwMCcsICctaW1hZScsICc8aW5maWxlLm1hZT4nLCAnLW9tYWUnLCAnPG91dGZpbGUubWFlPic=

>  <r_epik_Ionization_Penalty>  (58) 
1.69587

>  <r_epik_Ionization_Penalty_Charging>  (58) 
1.69549

>  <r_epik_Ionization_Penalty_Neutral>  (58) 
0.00037582

>  <r_epik_State_Penalty>  (58) 
1.80105

>  <r_epik_Charging_Adjusted_Penalty>  (58) 
3.49654

>  <i_epik_Tot_Q>  (58) 
-1

>  <i_epik_Tot_abs_Q>  (58) 
1

>  <s_epik_Chemistry_Notes>  (58) 
This compound has an ester and may undergo hydrolysis at high or low pH. This compound contains an acetal/aminal-like group ( X-CH(R)-Y where X, Y are N, S, or O) that may be acid/base labile, releasing an aldehyde.

>  <s_lp_Force_Field>  (58) 
OPLS3e

>  <r_lp_Energy>  (58) 
492.533

>  <b_lp_Chiralities_Consistent>  (58) 
1

>  <s_lp_Variant>  (58) 
35:0-2

>  <s_i_glide_gridfile>  (58) 
pfpi4k_grid

>  <i_i_glide_lignum>  (58) 
12

>  <i_i_glide_rotatable_bonds>  (58) 
13

>  <r_i_docking_score>  (58) 
-5.30486

>  <r_i_glide_ligand_efficiency>  (58) 
-0.112869

>  <r_i_glide_ligand_efficiency_sa>  (58) 
-0.407326

>  <r_i_glide_ligand_efficiency_ln>  (58) 
-1.09375

>  <r_i_glide_gscore>  (58) 
-5.30486

>  <r_i_glide_lipo>  (58) 
-0.106561

>  <r_i_glide_hbond>  (58) 
-0.610408

>  <r_i_glide_metal>  (58) 
-0

>  <r_i_glide_rewards>  (58) 
-1

>  <r_i_glide_evdw>  (58) 
-27.0553

>  <r_i_glide_ecoul>  (58) 
-14.0226

>  <r_i_glide_erotb>  (58) 
0.0310373

>  <r_i_glide_esite>  (58) 
-0.16277

>  <r_i_glide_emodel>  (58) 
-62.0607

>  <r_i_glide_energy>  (58) 
-41.0779

>  <r_i_glide_einternal>  (58) 
13.2733

>  <r_i_glide_intrahb_reward>  (58) 
-1

>  <i_i_glide_confnum>  (58) 
6

>  <i_i_glide_posenum>  (58) 
26

>  <r_i_glide_eff_state_penalty>  (58) 
0

>  <ligand_id>  (58) 
35

>  <original_smiles>  (58) 
CC12C(O)OC3C(OC(C4(CO)OC(=O)C5(O)C(CO)=CC=C(C6(O)C7(O)C8=CCC89OCC8(COC86O)C7O9)C54O)C1O)OC32O

>  <smiles>  (58) 
[H]OC([H])([H])C1=C([H])C([H])=C(C2(O[H])C3(O[H])OC([H])([H])C34C([H])([H])OC35OC4([H])C2(O[H])C3=C([H])C5([H])[H])C2([O-])C1(O[H])C(=O)OC2(C([H])([H])O[H])C1([H])OC2([H])OC3(O[H])C2([H])OC([H])(O[H])C3(C([H])([H])[H])C1([H])O[H]

$$$$
35:1:1
     RDKit          3D

 78 87  0  0  1  0  0  0  0  0999 V2000
    0.6897   -0.5547    8.7644 C   0  0  0  0  0  0  0  0  0  0  0  0
    0.7542   -0.1646    7.2682 C   0  0  1  0  0  0  0  0  0  0  0  0
    0.0075    1.2365    7.0972 C   0  0  1  0  0  0  0  0  0  0  0  0
    0.7885    2.2065    6.4402 O   0  0  0  0  0  0  0  0  0  0  0  0
   -1.2576    0.9521    6.4045 O   0  0  0  0  0  0  0  0  0  0  0  0
   -1.3487   -0.3739    5.7406 C   0  0  1  0  0  0  0  0  0  0  0  0
   -0.3702   -0.9149    4.5187 C   0  0  2  0  0  0  0  0  0  0  0  0
    0.6753   -1.9777    4.4775 O   0  0  0  0  0  0  0  0  0  0  0  0
    2.0050   -1.8102    5.2537 C   0  0  1  0  0  0  0  0  0  0  0  0
    3.2420   -1.9659    4.2567 C   0  0  1  0  0  0  0  0  0  0  0  0
    3.3681   -0.6736    3.3860 C   0  0  0  0  0  0  0  0  0  0  0  0
    4.6263   -0.4839    2.7604 O   0  0  0  0  0  0  0  0  0  0  0  0
    4.3523   -1.8691    5.1352 O   0  0  0  0  0  0  0  0  0  0  0  0
    4.9725   -2.9858    5.4249 C   0  0  0  0  0  0  0  0  0  0  0  0
    5.9223   -3.0838    6.2047 O   0  0  0  0  0  0  0  0  0  0  0  0
    4.2984   -4.1645    4.7296 C   0  0  2  0  0  0  0  0  0  0  0  0
    3.4990   -4.7818    5.7231 O   0  0  0  0  0  0  0  0  0  0  0  0
    5.3969   -5.1617    4.2740 C   0  0  0  0  0  0  0  0  0  0  0  0
    5.9629   -6.1923    5.2559 C   0  0  0  0  0  0  0  0  0  0  0  0
    6.9449   -5.6464    6.1111 O   0  0  0  0  0  0  0  0  0  0  0  0
    5.8258   -5.1670    3.0090 C   0  0  0  0  0  0  0  0  0  0  0  0
    5.2415   -4.3141    2.0167 C   0  0  0  0  0  0  0  0  0  0  0  0
    4.1348   -3.5193    2.1563 C   0  0  0  0  0  0  0  0  0  0  0  0
    3.5125   -2.8990    0.8124 C   0  0  1  0  0  0  0  0  0  0  0  0
    2.2539   -2.2578    1.0491 O   0  0  0  0  0  0  0  0  0  0  0  0
    4.4279   -1.7494    0.0950 C   0  0  1  0  0  0  0  0  0  0  0  0
    3.8672   -0.4545    0.0919 O   0  0  0  0  0  0  0  0  0  0  0  0
    5.9620   -1.7030   -0.2820 C   0  0  0  0  0  0  0  0  0  0  0  0
    7.0748   -1.6925    0.4859 C   0  0  0  0  0  0  0  0  0  0  0  0
    7.8276   -2.6043   -0.5112 C   0  0  0  0  0  0  0  0  0  0  0  0
    6.4625   -2.8234   -1.2244 C   0  0  2  0  0  0  0  0  0  0  0  0
    6.1729   -3.0844   -2.6534 O   0  0  0  0  0  0  0  0  0  0  0  0
    4.8675   -3.8716   -2.8286 C   0  0  0  0  0  0  0  0  0  0  0  0
    3.7101   -3.4305   -1.7544 C   0  0  1  0  0  0  0  0  0  0  0  0
    2.2648   -3.3107   -2.1666 C   0  0  0  0  0  0  0  0  0  0  0  0
    1.8092   -3.8178   -0.8882 O   0  0  0  0  0  0  0  0  0  0  0  0
    3.1595   -3.9732   -0.3839 C   0  0  2  0  0  0  0  0  0  0  0  0
    3.4670   -5.3119   -0.0832 O   0  0  0  0  0  0  0  0  0  0  0  0
    4.4330   -2.3220   -1.2433 C   0  0  2  0  0  0  0  0  0  0  0  0
    5.4138   -3.3100   -0.6993 O   0  0  0  0  0  0  0  0  0  0  0  0
    3.4458   -3.4364    3.5924 C   0  0  2  0  0  0  0  0  0  0  0  0
    2.3136   -4.1389    3.4949 O   0  0  0  0  0  0  0  0  0  0  0  0
    2.1482   -0.6831    6.5329 C   0  0  1  0  0  0  0  0  0  0  0  0
    3.0027    0.4203    6.2949 O   0  0  0  0  0  0  0  0  0  0  0  0
    0.3899   -0.1366    5.1924 O   0  0  0  0  0  0  0  0  0  0  0  0
   -0.1986   -0.8333    6.4407 C   0  0  1  0  0  0  0  0  0  0  0  0
   -0.2688   -2.2246    6.7894 O   0  0  0  0  0  0  0  0  0  0  0  0
   -0.3213   -0.4700    9.1601 H   0  0  0  0  0  0  0  0  0  0  0  0
    1.3199    0.1103    9.3510 H   0  0  0  0  0  0  0  0  0  0  0  0
    1.0286   -1.5756    8.9500 H   0  0  0  0  0  0  0  0  0  0  0  0
   -0.2554    1.6710    8.0661 H   0  0  0  0  0  0  0  0  0  0  0  0
    1.0133    1.8414    5.5903 H   0  0  0  0  0  0  0  0  0  0  0  0
   -2.2315   -0.9734    5.9081 H   0  0  0  0  0  0  0  0  0  0  0  0
   -0.5964   -0.4785    3.5459 H   0  0  0  0  0  0  0  0  0  0  0  0
    2.0222   -2.7351    5.8294 H   0  0  0  0  0  0  0  0  0  0  0  0
    2.5425   -0.5913    2.6893 H   0  0  0  0  0  0  0  0  0  0  0  0
    3.2548    0.2258    3.9743 H   0  0  0  0  0  0  0  0  0  0  0  0
    4.4690   -0.0932    1.9058 H   0  0  0  0  0  0  0  0  0  0  0  0
    2.9321   -5.3818    5.2533 H   0  0  0  0  0  0  0  0  0  0  0  0
    5.1758   -6.6546    5.8539 H   0  0  0  0  0  0  0  0  0  0  0  0
    6.4449   -6.9964    4.6910 H   0  0  0  0  0  0  0  0  0  0  0  0
    6.5527   -4.8922    6.5389 H   0  0  0  0  0  0  0  0  0  0  0  0
    6.5787   -5.8843    2.6993 H   0  0  0  0  0  0  0  0  0  0  0  0
    5.6989   -4.4927    1.0643 H   0  0  0  0  0  0  0  0  0  0  0  0
    1.9202   -1.9163    0.2127 H   0  0  0  0  0  0  0  0  0  0  0  0
    2.9974   -0.4800   -0.3154 H   0  0  0  0  0  0  0  0  0  0  0  0
    7.2662   -1.3287    1.4782 H   0  0  0  0  0  0  0  0  0  0  0  0
    8.5721   -2.1190   -1.1401 H   0  0  0  0  0  0  0  0  0  0  0  0
    8.2561   -3.5183   -0.1061 H   0  0  0  0  0  0  0  0  0  0  0  0
    4.5214   -3.7664   -3.8628 H   0  0  0  0  0  0  0  0  0  0  0  0
    5.0737   -4.9319   -2.6834 H   0  0  0  0  0  0  0  0  0  0  0  0
    1.9743   -2.2761   -2.3755 H   0  0  0  0  0  0  0  0  0  0  0  0
    1.9904   -3.9649   -2.9972 H   0  0  0  0  0  0  0  0  0  0  0  0
    3.2588   -5.8172   -0.8693 H   0  0  0  0  0  0  0  0  0  0  0  0
    4.6155   -1.5957   -2.0586 H   0  0  0  0  0  0  0  0  0  0  0  0
    2.7159   -1.2242    7.2996 H   0  0  0  0  0  0  0  0  0  0  0  0
    2.6491    0.9268    5.5736 H   0  0  0  0  0  0  0  0  0  0  0  0
    0.5111   -2.6395    6.4334 H   0  0  0  0  0  0  0  0  0  0  0  0
  2  1  1  1
  1 48  1  0
  1 49  1  0
  1 50  1  0
  2 43  1  0
  2 46  1  0
  2  3  1  0
  3  4  1  0
  3  5  1  0
  3 51  1  1
  4 52  1  0
  5  6  1  0
  6 46  1  0
  6  7  1  0
  6 53  1  1
  7  8  1  0
  7 45  1  0
  7 54  1  6
  8  9  1  0
  9 10  1  0
  9 43  1  0
  9 55  1  1
 10 41  1  0
 10 11  1  6
 10 13  1  0
 11 12  1  0
 11 56  1  0
 11 57  1  0
 12 58  1  0
 13 14  1  0
 14 15  2  0
 14 16  1  0
 16 41  1  0
 16 17  1  1
 16 18  1  0
 17 59  1  0
 18 19  1  0
 18 21  2  0
 19 20  1  0
 19 60  1  0
 19 61  1  0
 20 62  1  0
 21 22  1  0
 21 63  1  0
 22 23  2  0
 22 64  1  0
 23 24  1  0
 23 41  1  0
 24 37  1  0
 24 25  1  1
 24 26  1  0
 25 65  1  0
 26 39  1  0
 26 27  1  6
 26 28  1  0
 27 66  1  0
 28 31  1  0
 28 29  2  0
 29 30  1  0
 29 67  1  0
 30 31  1  0
 30 68  1  0
 30 69  1  0
 31 40  1  0
 31 32  1  6
 32 33  1  0
 34 33  1  6
 33 70  1  0
 33 71  1  0
 34 37  1  0
 34 35  1  0
 34 39  1  0
 35 36  1  0
 35 72  1  0
 35 73  1  0
 36 37  1  0
 37 38  1  1
 38 74  1  0
 39 40  1  0
 39 75  1  6
 41 42  1  6
 43 44  1  0
 43 76  1  1
 44 77  1  0
 45 46  1  0
 46 47  1  6
 47 78  1  0
M  CHG  1  42  -1
M  END
>  <i_m_ct_stereo_status>  (59) 
1

>  <s_m_source_file>  (59) 
/var/tmp/pbs.5076253.sched01/tmp9xbr3gte/40_qt8sgg8.sdf

>  <i_m_source_file_index>  (59) 
12

>  <i_lp_mmshare_version>  (59) 
48012

>  <i_f3d_flags>  (59) 
0

>  <s_epik_input>  (59) 
W0NIM11bQ0BAXTEyW0NAQF0zKFtPSF0pW0NAQEhdKE9bQ0BASF0xW09IXSlbQ0BASF0oTzMpT1tDQEhdKFtDQEhdMltPSF0pW0NAQF0oW0NIMl1bT0hdKShPQzQ9TylbQ0BdKFtPSF0pKFtDQF00NVtPSF0pQyg9W0NIXVtDSF09QzVbQ0gyXVtPSF0pW0NAXTYoW09IXSlbQ0BAXShbT0hdKShPW0NIMl03KVtDQF03KFtDSDJdTzgpW0NASF0oTzkpW0NAXTYoW09IXSlDKFtDQF0xODkpPVtDSF1bQ0gyXTE=

>  <s_epik_cmdline>  (59) 
J2VwaWtfcHl0aG9uJywgJy1waHQnLCAnMi4wJywgJy1waCcsICc3LjAnLCAnLXRuJywgJzgnLCAnLW1hJywgJzIwMCcsICctaW1hZScsICc8aW5maWxlLm1hZT4nLCAnLW9tYWUnLCAnPG91dGZpbGUubWFlPic=

>  <r_epik_Ionization_Penalty>  (59) 
1.69587

>  <r_epik_Ionization_Penalty_Charging>  (59) 
1.69549

>  <r_epik_Ionization_Penalty_Neutral>  (59) 
0.00037582

>  <r_epik_State_Penalty>  (59) 
1.80105

>  <r_epik_Charging_Adjusted_Penalty>  (59) 
3.49654

>  <i_epik_Tot_Q>  (59) 
-1

>  <i_epik_Tot_abs_Q>  (59) 
1

>  <s_epik_Chemistry_Notes>  (59) 
This compound has an ester and may undergo hydrolysis at high or low pH. This compound contains an acetal/aminal-like group ( X-CH(R)-Y where X, Y are N, S, or O) that may be acid/base labile, releasing an aldehyde.

>  <s_lp_Force_Field>  (59) 
OPLS3e

>  <r_lp_Energy>  (59) 
492.533

>  <b_lp_Chiralities_Consistent>  (59) 
1

>  <s_lp_Variant>  (59) 
35:0-2

>  <s_i_glide_gridfile>  (59) 
pfpi4k_grid

>  <i_i_glide_lignum>  (59) 
12

>  <i_i_glide_rotatable_bonds>  (59) 
13

>  <r_i_docking_score>  (59) 
-4.01164

>  <r_i_glide_ligand_efficiency>  (59) 
-0.0853541

>  <r_i_glide_ligand_efficiency_sa>  (59) 
-0.308028

>  <r_i_glide_ligand_efficiency_ln>  (59) 
-0.827118

>  <r_i_glide_gscore>  (59) 
-4.01164

>  <r_i_glide_lipo>  (59) 
-0.243654

>  <r_i_glide_hbond>  (59) 
-0.0162155

>  <r_i_glide_metal>  (59) 
-0

>  <r_i_glide_rewards>  (59) 
-1.0236

>  <r_i_glide_evdw>  (59) 
-28.9589

>  <r_i_glide_ecoul>  (59) 
-8.03182

>  <r_i_glide_erotb>  (59) 
0.0217261

>  <r_i_glide_esite>  (59) 
-0.0971823

>  <r_i_glide_emodel>  (59) 
-57.0351

>  <r_i_glide_energy>  (59) 
-36.9907

>  <r_i_glide_einternal>  (59) 
6.73649

>  <r_i_glide_intrahb_reward>  (59) 
-1

>  <i_i_glide_confnum>  (59) 
5

>  <i_i_glide_posenum>  (59) 
3

>  <r_i_glide_eff_state_penalty>  (59) 
0

>  <ligand_id>  (59) 
35

>  <original_smiles>  (59) 
CC12C(O)OC3C(OC(C4(CO)OC(=O)C5(O)C(CO)=CC=C(C6(O)C7(O)C8=CCC89OCC8(COC86O)C7O9)C54O)C1O)OC32O

>  <smiles>  (59) 
[H]OC([H])([H])C1=C([H])C([H])=C(C2(O[H])C3(O[H])OC([H])([H])C34C([H])([H])OC35OC4([H])C2(O[H])C3=C([H])C5([H])[H])C2([O-])C1(O[H])C(=O)OC2(C([H])([H])O[H])C1([H])OC2([H])OC3(O[H])C2([H])OC([H])(O[H])C3(C([H])([H])[H])C1([H])O[H]

$$$$
35:1:2
     RDKit          3D

 78 87  0  0  1  0  0  0  0  0999 V2000
    5.2981   -3.7274   -3.1534 C   0  0  0  0  0  0  0  0  0  0  0  0
    4.3980   -3.1604   -2.0533 C   0  0  1  0  0  0  0  0  0  0  0  0
    3.1651   -2.4090   -2.7645 C   0  0  1  0  0  0  0  0  0  0  0  0
    1.8979   -2.8433   -2.3491 O   0  0  0  0  0  0  0  0  0  0  0  0
    3.3794   -0.9898   -2.5741 O   0  0  0  0  0  0  0  0  0  0  0  0
    4.4135   -0.6208   -1.5578 C   0  0  1  0  0  0  0  0  0  0  0  0
    4.3254   -0.9428    0.0615 C   0  0  2  0  0  0  0  0  0  0  0  0
    5.0613   -1.8946    0.9512 O   0  0  0  0  0  0  0  0  0  0  0  0
    4.9543   -3.4312    0.7734 C   0  0  1  0  0  0  0  0  0  0  0  0
    4.5154   -4.1646    2.1212 C   0  0  1  0  0  0  0  0  0  0  0  0
    4.9366   -5.6509    2.0901 C   0  0  0  0  0  0  0  0  0  0  0  0
    6.2244   -5.9043    1.5355 O   0  0  0  0  0  0  0  0  0  0  0  0
    5.3332   -3.5937    3.1187 O   0  0  0  0  0  0  0  0  0  0  0  0
    4.7532   -2.6785    3.8955 C   0  0  0  0  0  0  0  0  0  0  0  0
    5.3386   -2.0267    4.7438 O   0  0  0  0  0  0  0  0  0  0  0  0
    3.2975   -2.5147    3.5330 C   0  0  2  0  0  0  0  0  0  0  0  0
    3.2371   -1.3505    2.7368 O   0  0  0  0  0  0  0  0  0  0  0  0
    2.4664   -2.2948    4.8103 C   0  0  0  0  0  0  0  0  0  0  0  0
    2.4198   -0.8818    5.3918 C   0  0  0  0  0  0  0  0  0  0  0  0
    1.6614    0.0125    4.5907 O   0  0  0  0  0  0  0  0  0  0  0  0
    1.8787   -3.3230    5.4366 C   0  0  0  0  0  0  0  0  0  0  0  0
    1.8891   -4.6589    4.8772 C   0  0  0  0  0  0  0  0  0  0  0  0
    2.3122   -5.0049    3.6086 C   0  0  0  0  0  0  0  0  0  0  0  0
    1.8361   -6.4124    3.0423 C   0  0  1  0  0  0  0  0  0  0  0  0
    1.7196   -6.4292    1.6244 O   0  0  0  0  0  0  0  0  0  0  0  0
    2.8770   -7.6331    3.3702 C   0  0  1  0  0  0  0  0  0  0  0  0
    3.4391   -8.3484    2.2428 O   0  0  0  0  0  0  0  0  0  0  0  0
    3.6181   -8.0345    4.7223 C   0  0  0  0  0  0  0  0  0  0  0  0
    4.5434   -7.3833    5.4671 C   0  0  0  0  0  0  0  0  0  0  0  0
    3.8903   -7.8759    6.7697 C   0  0  0  0  0  0  0  0  0  0  0  0
    2.6832   -8.3182    5.9133 C   0  0  2  0  0  0  0  0  0  0  0  0
    1.7542   -9.4464    6.1472 O   0  0  0  0  0  0  0  0  0  0  0  0
    0.3926   -9.2190    5.4886 C   0  0  0  0  0  0  0  0  0  0  0  0
    0.4847   -8.4560    4.0358 C   0  0  1  0  0  0  0  0  0  0  0  0
   -0.3608   -8.8642    2.8608 C   0  0  0  0  0  0  0  0  0  0  0  0
   -0.4355   -7.4680    2.3624 O   0  0  0  0  0  0  0  0  0  0  0  0
    0.3411   -6.9741    3.4947 C   0  0  2  0  0  0  0  0  0  0  0  0
   -0.4733   -6.1675    4.3499 O   0  0  0  0  0  0  0  0  0  0  0  0
    1.8990   -8.4876    4.0064 C   0  0  2  0  0  0  0  0  0  0  0  0
    1.9518   -7.5594    5.2010 O   0  0  0  0  0  0  0  0  0  0  0  0
    3.0284   -3.8657    2.7082 C   0  0  2  0  0  0  0  0  0  0  0  0
    2.2005   -3.5117    1.7733 O   0  0  0  0  0  0  0  0  0  0  0  0
    4.4143   -4.0967   -0.6852 C   0  0  1  0  0  0  0  0  0  0  0  0
    3.1377   -4.6531   -0.5742 O   0  0  0  0  0  0  0  0  0  0  0  0
    3.7357   -1.9128   -0.4973 O   0  0  0  0  0  0  0  0  0  0  0  0
    4.8991   -1.9534   -1.5010 C   0  0  1  0  0  0  0  0  0  0  0  0
    6.3134   -2.0429   -1.2452 O   0  0  0  0  0  0  0  0  0  0  0  0
    5.5227   -2.9613   -3.8937 H   0  0  0  0  0  0  0  0  0  0  0  0
    4.8079   -4.5572   -3.6593 H   0  0  0  0  0  0  0  0  0  0  0  0
    6.2491   -4.0792   -2.7494 H   0  0  0  0  0  0  0  0  0  0  0  0
    3.2071   -2.5783   -3.8376 H   0  0  0  0  0  0  0  0  0  0  0  0
    1.5841   -2.2316   -1.6838 H   0  0  0  0  0  0  0  0  0  0  0  0
    5.1576    0.1162   -1.8594 H   0  0  0  0  0  0  0  0  0  0  0  0
    3.6296   -0.3088    0.5932 H   0  0  0  0  0  0  0  0  0  0  0  0
    6.0080   -3.6760    0.7200 H   0  0  0  0  0  0  0  0  0  0  0  0
    4.9599   -6.0639    3.0942 H   0  0  0  0  0  0  0  0  0  0  0  0
    4.2458   -6.2419    1.4828 H   0  0  0  0  0  0  0  0  0  0  0  0
    6.1579   -5.8112    0.5967 H   0  0  0  0  0  0  0  0  0  0  0  0
    3.6031   -1.6305    1.8831 H   0  0  0  0  0  0  0  0  0  0  0  0
    1.9534   -0.9106    6.3754 H   0  0  0  0  0  0  0  0  0  0  0  0
    3.4288   -0.4687    5.5067 H   0  0  0  0  0  0  0  0  0  0  0  0
    2.0708    0.0460    3.7309 H   0  0  0  0  0  0  0  0  0  0  0  0
    1.2749   -3.1156    6.3167 H   0  0  0  0  0  0  0  0  0  0  0  0
    1.3898   -5.3870    5.4778 H   0  0  0  0  0  0  0  0  0  0  0  0
    1.6636   -7.3352    1.3742 H   0  0  0  0  0  0  0  0  0  0  0  0
    2.9859   -9.1660    2.0724 H   0  0  0  0  0  0  0  0  0  0  0  0
    5.3341   -6.6773    5.2614 H   0  0  0  0  0  0  0  0  0  0  0  0
    4.3902   -8.7166    7.2687 H   0  0  0  0  0  0  0  0  0  0  0  0
    3.6351   -7.1244    7.5195 H   0  0  0  0  0  0  0  0  0  0  0  0
   -0.1134  -10.1702    5.3831 H   0  0  0  0  0  0  0  0  0  0  0  0
   -0.1892   -8.6202    6.1853 H   0  0  0  0  0  0  0  0  0  0  0  0
    0.1354   -9.5329    2.1581 H   0  0  0  0  0  0  0  0  0  0  0  0
   -1.3450   -9.2263    3.1592 H   0  0  0  0  0  0  0  0  0  0  0  0
   -1.0780   -6.7387    4.7980 H   0  0  0  0  0  0  0  0  0  0  0  0
    2.2015   -9.5638    3.9820 H   0  0  0  0  0  0  0  0  0  0  0  0
    5.0606   -4.9400   -0.9032 H   0  0  0  0  0  0  0  0  0  0  0  0
    3.0237   -5.2119   -1.3388 H   0  0  0  0  0  0  0  0  0  0  0  0
    6.4132   -2.6280   -0.5149 H   0  0  0  0  0  0  0  0  0  0  0  0
  2  1  1  6
  1 48  1  0
  1 49  1  0
  1 50  1  0
  2 43  1  0
  2 46  1  0
  2  3  1  0
  3  4  1  0
  3  5  1  0
  3 51  1  6
  4 52  1  0
  5  6  1  0
  6 46  1  0
  6  7  1  0
  6 53  1  1
  7  8  1  0
  7 45  1  0
  7 54  1  1
  8  9  1  0
  9 10  1  0
  9 43  1  0
  9 55  1  6
 10 41  1  0
 10 11  1  6
 10 13  1  0
 11 12  1  0
 11 56  1  0
 11 57  1  0
 12 58  1  0
 13 14  1  0
 14 15  2  0
 14 16  1  0
 16 41  1  0
 16 17  1  6
 16 18  1  0
 17 59  1  0
 18 19  1  0
 18 21  2  0
 19 20  1  0
 19 60  1  0
 19 61  1  0
 20 62  1  0
 21 22  1  0
 21 63  1  0
 22 23  2  0
 22 64  1  0
 23 24  1  0
 23 41  1  0
 24 37  1  0
 24 25  1  6
 24 26  1  0
 25 65  1  0
 26 39  1  0
 26 27  1  6
 26 28  1  0
 27 66  1  0
 28 31  1  0
 28 29  2  0
 29 30  1  0
 29 67  1  0
 30 31  1  0
 30 68  1  0
 30 69  1  0
 31 40  1  0
 31 32  1  1
 32 33  1  0
 34 33  1  1
 33 70  1  0
 33 71  1  0
 34 37  1  0
 34 35  1  0
 34 39  1  0
 35 36  1  0
 35 72  1  0
 35 73  1  0
 36 37  1  0
 37 38  1  1
 38 74  1  0
 39 40  1  0
 39 75  1  1
 41 42  1  6
 43 44  1  0
 43 76  1  6
 44 77  1  0
 45 46  1  0
 46 47  1  1
 47 78  1  0
M  CHG  1  42  -1
M  END
>  <i_m_ct_stereo_status>  (60) 
1

>  <s_m_source_file>  (60) 
/var/tmp/pbs.5076253.sched01/tmp9xbr3gte/40_qt8sgg8.sdf

>  <i_m_source_file_index>  (60) 
12

>  <i_lp_mmshare_version>  (60) 
48012

>  <i_f3d_flags>  (60) 
0

>  <s_epik_input>  (60) 
W0NIM11bQ0BAXTEyW0NAQF0zKFtPSF0pW0NAQEhdKE9bQ0BASF0xW09IXSlbQ0BASF0oTzMpT1tDQEhdKFtDQEhdMltPSF0pW0NAQF0oW0NIMl1bT0hdKShPQzQ9TylbQ0BdKFtPSF0pKFtDQF00NVtPSF0pQyg9W0NIXVtDSF09QzVbQ0gyXVtPSF0pW0NAXTYoW09IXSlbQ0BAXShbT0hdKShPW0NIMl03KVtDQF03KFtDSDJdTzgpW0NASF0oTzkpW0NAXTYoW09IXSlDKFtDQF0xODkpPVtDSF1bQ0gyXTE=

>  <s_epik_cmdline>  (60) 
J2VwaWtfcHl0aG9uJywgJy1waHQnLCAnMi4wJywgJy1waCcsICc3LjAnLCAnLXRuJywgJzgnLCAnLW1hJywgJzIwMCcsICctaW1hZScsICc8aW5maWxlLm1hZT4nLCAnLW9tYWUnLCAnPG91dGZpbGUubWFlPic=

>  <r_epik_Ionization_Penalty>  (60) 
1.69587

>  <r_epik_Ionization_Penalty_Charging>  (60) 
1.69549

>  <r_epik_Ionization_Penalty_Neutral>  (60) 
0.00037582

>  <r_epik_State_Penalty>  (60) 
1.80105

>  <r_epik_Charging_Adjusted_Penalty>  (60) 
3.49654

>  <i_epik_Tot_Q>  (60) 
-1

>  <i_epik_Tot_abs_Q>  (60) 
1

>  <s_epik_Chemistry_Notes>  (60) 
This compound has an ester and may undergo hydrolysis at high or low pH. This compound contains an acetal/aminal-like group ( X-CH(R)-Y where X, Y are N, S, or O) that may be acid/base labile, releasing an aldehyde.

>  <s_lp_Force_Field>  (60) 
OPLS3e

>  <r_lp_Energy>  (60) 
492.533

>  <b_lp_Chiralities_Consistent>  (60) 
1

>  <s_lp_Variant>  (60) 
35:0-2

>  <s_i_glide_gridfile>  (60) 
pfpi4k_grid

>  <i_i_glide_lignum>  (60) 
12

>  <i_i_glide_rotatable_bonds>  (60) 
13

>  <r_i_docking_score>  (60) 
-3.34829

>  <r_i_glide_ligand_efficiency>  (60) 
-0.0712402

>  <r_i_glide_ligand_efficiency_sa>  (60) 
-0.257094

>  <r_i_glide_ligand_efficiency_ln>  (60) 
-0.690348

>  <r_i_glide_gscore>  (60) 
-3.34829

>  <r_i_glide_lipo>  (60) 
-0.164835

>  <r_i_glide_hbond>  (60) 
0

>  <r_i_glide_metal>  (60) 
-0

>  <r_i_glide_rewards>  (60) 
-0.544527

>  <r_i_glide_evdw>  (60) 
-26.61

>  <r_i_glide_ecoul>  (60) 
-8.23041

>  <r_i_glide_erotb>  (60) 
0.0310373

>  <r_i_glide_esite>  (60) 
-0.104908

>  <r_i_glide_emodel>  (60) 
-42.4773

>  <r_i_glide_energy>  (60) 
-34.8404

>  <r_i_glide_einternal>  (60) 
14.9893

>  <r_i_glide_intrahb_reward>  (60) 
-0.5

>  <i_i_glide_confnum>  (60) 
6

>  <i_i_glide_posenum>  (60) 
2

>  <r_i_glide_eff_state_penalty>  (60) 
0

>  <ligand_id>  (60) 
35

>  <original_smiles>  (60) 
CC12C(O)OC3C(OC(C4(CO)OC(=O)C5(O)C(CO)=CC=C(C6(O)C7(O)C8=CCC89OCC8(COC86O)C7O9)C54O)C1O)OC32O

>  <smiles>  (60) 
[H]OC([H])([H])C1=C([H])C([H])=C(C2(O[H])C3(O[H])OC([H])([H])C34C([H])([H])OC35OC4([H])C2(O[H])C3=C([H])C5([H])[H])C2([O-])C1(O[H])C(=O)OC2(C([H])([H])O[H])C1([H])OC2([H])OC3(O[H])C2([H])OC([H])(O[H])C3(C([H])([H])[H])C1([H])O[H]

$$$$
36:0:0
     RDKit          3D

 52 58  0  0  1  0  0  0  0  0999 V2000
    0.4298    1.8293    5.1745 C   0  0  0  0  0  0  0  0  0  0  0  0
    0.4864    0.2905    5.0600 C   0  0  1  0  0  0  0  0  0  0  0  0
   -0.1585   -0.1646    3.7323 C   0  0  0  0  0  0  0  0  0  0  0  0
    0.6221    0.4395    2.5360 C   0  0  1  0  0  0  0  0  0  0  0  0
    0.5401    1.9807    2.6574 C   0  0  0  0  0  0  0  0  0  0  0  0
    1.1906    2.4391    3.9783 C   0  0  2  0  0  0  0  0  0  0  0  0
    2.6615    1.9729    4.0021 C   0  0  0  0  0  0  0  0  0  0  0  0
    2.7318    0.4292    3.8933 C   0  0  1  0  0  0  0  0  0  0  0  0
    1.9575   -0.1759    5.0918 C   0  0  0  0  0  0  0  0  0  0  0  0
    2.0972   -0.0546    2.5507 C   0  0  0  0  0  0  0  0  0  0  0  0
    2.7763    0.4634    1.4132 O   0  0  0  0  0  0  0  0  0  0  0  0
    4.2032   -0.0436    1.4186 O   0  0  0  0  0  0  0  0  0  0  0  0
    4.2091   -1.4713    1.3739 C   0  0  0  0  0  0  0  0  0  0  0  0
    3.5009   -1.9828    2.4994 O   0  0  0  0  0  0  0  0  0  0  0  0
    2.0834   -1.4752    2.4658 O   0  0  0  0  0  0  0  0  0  0  0  0
    3.6361   -2.0242    0.0296 C   0  0  2  0  0  0  0  0  0  0  0  0
    3.7003   -3.5753   -0.0015 C   0  0  0  0  0  0  0  0  0  0  0  0
    5.1646   -4.0341    0.1104 C   0  0  1  0  0  0  0  0  0  0  0  0
    5.9657   -3.4823   -1.0855 C   0  0  0  0  0  0  0  0  0  0  0  0
    5.9052   -1.9472   -1.0590 C   0  0  1  0  0  0  0  0  0  0  0  0
    4.4447   -1.4805   -1.1746 C   0  0  0  0  0  0  0  0  0  0  0  0
    6.5091   -1.4290    0.2653 C   0  0  0  0  0  0  0  0  0  0  0  0
    5.6884   -1.9545    1.4722 C   0  0  2  0  0  0  0  0  0  0  0  0
    5.7524   -3.5069    1.4383 C   0  0  0  0  0  0  0  0  0  0  0  0
    0.8825    2.1534    6.1140 H   0  0  0  0  0  0  0  0  0  0  0  0
   -0.6010    2.1818    5.1934 H   0  0  0  0  0  0  0  0  0  0  0  0
   -0.0607   -0.1440    5.8998 H   0  0  0  0  0  0  0  0  0  0  0  0
   -0.1531   -1.2537    3.6814 H   0  0  0  0  0  0  0  0  0  0  0  0
   -1.2054    0.1425    3.7019 H   0  0  0  0  0  0  0  0  0  0  0  0
    0.1462    0.1382    1.6026 H   0  0  0  0  0  0  0  0  0  0  0  0
    1.0376    2.4626    1.8151 H   0  0  0  0  0  0  0  0  0  0  0  0
   -0.5001    2.3106    2.6252 H   0  0  0  0  0  0  0  0  0  0  0  0
    1.1400    3.5276    4.0465 H   0  0  0  0  0  0  0  0  0  0  0  0
    3.2052    2.4413    3.1810 H   0  0  0  0  0  0  0  0  0  0  0  0
    3.1410    2.3120    4.9227 H   0  0  0  0  0  0  0  0  0  0  0  0
    3.7711    0.1241    3.9665 H   0  0  0  0  0  0  0  0  0  0  0  0
    2.4164    0.1251    6.0354 H   0  0  0  0  0  0  0  0  0  0  0  0
    1.9940   -1.2654    5.0667 H   0  0  0  0  0  0  0  0  0  0  0  0
    2.6114   -1.7180   -0.0908 H   0  0  0  0  0  0  0  0  0  0  0  0
    3.1182   -3.9995    0.8151 H   0  0  0  0  0  0  0  0  0  0  0  0
    3.2617   -3.9640   -0.9199 H   0  0  0  0  0  0  0  0  0  0  0  0
    5.2150   -5.1233    0.0938 H   0  0  0  0  0  0  0  0  0  0  0  0
    7.0011   -3.8221   -1.0454 H   0  0  0  0  0  0  0  0  0  0  0  0
    5.5565   -3.8639   -2.0235 H   0  0  0  0  0  0  0  0  0  0  0  0
    6.4753   -1.5731   -1.9071 H   0  0  0  0  0  0  0  0  0  0  0  0
    4.0098   -1.8263   -2.1120 H   0  0  0  0  0  0  0  0  0  0  0  0
    4.3988   -0.3928   -1.2052 H   0  0  0  0  0  0  0  0  0  0  0  0
    7.5514   -1.7508    0.3518 H   0  0  0  0  0  0  0  0  0  0  0  0
    6.5210   -0.3384    0.2658 H   0  0  0  0  0  0  0  0  0  0  0  0
    6.1367   -1.5821    2.3974 H   0  0  0  0  0  0  0  0  0  0  0  0
    5.1992   -3.9331    2.2769 H   0  0  0  0  0  0  0  0  0  0  0  0
    6.7855   -3.8480    1.5433 H   0  0  0  0  0  0  0  0  0  0  0  0
  1  6  1  0
  1  2  1  0
  1 25  1  0
  1 26  1  0
  2  9  1  0
  2  3  1  0
  2 27  1  1
  3  4  1  0
  3 28  1  0
  3 29  1  0
  4 10  1  0
  4  5  1  0
  4 30  1  6
  5  6  1  0
  5 31  1  0
  5 32  1  0
  6  7  1  0
  6 33  1  1
  7  8  1  0
  7 34  1  0
  7 35  1  0
  8  9  1  0
  8 10  1  0
  8 36  1  6
  9 37  1  0
  9 38  1  0
 10 15  1  0
 10 11  1  0
 11 12  1  0
 12 13  1  0
 13 23  1  0
 13 14  1  0
 13 16  1  0
 14 15  1  0
 16 21  1  0
 16 17  1  0
 16 39  1  6
 17 18  1  0
 17 40  1  0
 17 41  1  0
 18 24  1  0
 18 19  1  0
 18 42  1  1
 19 20  1  0
 19 43  1  0
 19 44  1  0
 20 21  1  0
 20 22  1  0
 20 45  1  6
 21 46  1  0
 21 47  1  0
 22 23  1  0
 22 48  1  0
 22 49  1  0
 23 24  1  0
 23 50  1  1
 24 51  1  0
 24 52  1  0
M  END
>  <i_m_ct_stereo_status>  (61) 
1

>  <s_m_source_file>  (61) 
/var/tmp/pbs.5076253.sched01/tmp9xbr3gte/40_qt8sgg8.sdf

>  <i_m_source_file_index>  (61) 
13

>  <i_lp_mmshare_version>  (61) 
48012

>  <i_f3d_flags>  (61) 
0

>  <s_epik_input>  (61) 
W0NIMl0xW0NASF0yW0NIMl1bQ0BIXShbQ0gyXTMpW0NIMl1bQ0BASF0xW0NIMl1bQ0BIXTNDMjRPT0M1KE9PNClbQ0BIXTZbQ0gyXVtDQEBIXTdbQ0gyXVtDQEhdKFtDSDJdNilbQ0gyXVtDQEhdNVtDSDJdNw==

>  <s_epik_cmdline>  (61) 
J2VwaWtfcHl0aG9uJywgJy1waHQnLCAnMi4wJywgJy1waCcsICc3LjAnLCAnLXRuJywgJzgnLCAnLW1hJywgJzIwMCcsICctaW1hZScsICc8aW5maWxlLm1hZT4nLCAnLW9tYWUnLCAnPG91dGZpbGUubWFlPic=

>  <r_lp_tautomer_probability>  (61) 
1

>  <r_epik_Ionization_Penalty>  (61) 
0

>  <r_epik_Ionization_Penalty_Charging>  (61) 
0

>  <r_epik_Ionization_Penalty_Neutral>  (61) 
0

>  <r_epik_State_Penalty>  (61) 
-0

>  <r_epik_Charging_Adjusted_Penalty>  (61) 
0

>  <i_epik_Tot_Q>  (61) 
0

>  <i_epik_Tot_abs_Q>  (61) 
0

>  <s_lp_Force_Field>  (61) 
OPLS3e

>  <r_lp_Energy>  (61) 
-4.94424

>  <b_lp_Chiralities_Consistent>  (61) 
1

>  <s_lp_Variant>  (61) 
36:0-1

>  <s_i_glide_gridfile>  (61) 
pfpi4k_grid

>  <i_i_glide_lignum>  (61) 
13

>  <i_i_glide_rotatable_bonds>  (61) 
0

>  <r_i_docking_score>  (61) 
-2.83465

>  <r_i_glide_ligand_efficiency>  (61) 
-0.118111

>  <r_i_glide_ligand_efficiency_sa>  (61) 
-0.34069

>  <r_i_glide_ligand_efficiency_ln>  (61) 
-0.678462

>  <r_i_glide_gscore>  (61) 
-2.83465

>  <r_i_glide_lipo>  (61) 
-0.347589

>  <r_i_glide_hbond>  (61) 
0

>  <r_i_glide_metal>  (61) 
-0

>  <r_i_glide_rewards>  (61) 
-1.1425

>  <r_i_glide_evdw>  (61) 
-25.7552

>  <r_i_glide_ecoul>  (61) 
-0.22743

>  <r_i_glide_erotb>  (61) 
0

>  <r_i_glide_esite>  (61) 
-0.022692

>  <r_i_glide_emodel>  (61) 
-30.62

>  <r_i_glide_energy>  (61) 
-25.9827

>  <r_i_glide_einternal>  (61) 
0

>  <r_i_glide_intrahb_reward>  (61) 
-0

>  <i_i_glide_confnum>  (61) 
2

>  <i_i_glide_posenum>  (61) 
11

>  <r_i_glide_eff_state_penalty>  (61) 
0

>  <ligand_id>  (61) 
36

>  <original_smiles>  (61) 
C1C2CC3CC1CC(C2)C31OOC2(OO1)C1CC3CC(C1)CC2C3

>  <smiles>  (61) 
[H]C1([H])C2([H])C([H])([H])C3([H])C([H])([H])C1([H])C([H])([H])C([H])(C2([H])[H])C31OOC2(OO1)C1([H])C([H])([H])C3([H])C([H])([H])C([H])(C1([H])[H])C([H])([H])C2([H])C3([H])[H]

$$$$
36:0:1
     RDKit          3D

 52 58  0  0  1  0  0  0  0  0999 V2000
    5.0713   -2.3648   -0.6906 C   0  0  0  0  0  0  0  0  0  0  0  0
    5.7454   -3.5715    0.0006 C   0  0  1  0  0  0  0  0  0  0  0  0
    5.6971   -3.3986    1.5323 C   0  0  0  0  0  0  0  0  0  0  0  0
    4.2236   -3.3243    2.0064 C   0  0  1  0  0  0  0  0  0  0  0  0
    3.5652   -2.0994    1.3187 C   0  0  0  0  0  0  0  0  0  0  0  0
    3.6071   -2.2745   -0.2113 C   0  0  2  0  0  0  0  0  0  0  0  0
    2.8578   -3.5677   -0.5930 C   0  0  0  0  0  0  0  0  0  0  0  0
    3.5270   -4.7850    0.0898 C   0  0  1  0  0  0  0  0  0  0  0  0
    4.9964   -4.8648   -0.3840 C   0  0  0  0  0  0  0  0  0  0  0  0
    3.4797   -4.6436    1.6385 C   0  0  0  0  0  0  0  0  0  0  0  0
    2.1457   -4.5757    2.1414 O   0  0  0  0  0  0  0  0  0  0  0  0
    1.4288   -5.8706    1.8150 O   0  0  0  0  0  0  0  0  0  0  0  0
    2.1195   -6.9671    2.4279 C   0  0  0  0  0  0  0  0  0  0  0  0
    3.4598   -7.0160    1.9365 O   0  0  0  0  0  0  0  0  0  0  0  0
    4.1547   -5.7230    2.2852 O   0  0  0  0  0  0  0  0  0  0  0  0
    2.0653   -6.9103    3.9873 C   0  0  2  0  0  0  0  0  0  0  0  0
    2.7807   -8.1411    4.5977 C   0  0  0  0  0  0  0  0  0  0  0  0
    2.0772   -9.4342    4.1439 C   0  0  1  0  0  0  0  0  0  0  0  0
    0.6147   -9.4258    4.6324 C   0  0  0  0  0  0  0  0  0  0  0  0
   -0.1051   -8.2068    4.0209 C   0  0  1  0  0  0  0  0  0  0  0  0
    0.5957   -6.9085    4.4736 C   0  0  0  0  0  0  0  0  0  0  0  0
   -0.0639   -8.2985    2.4801 C   0  0  0  0  0  0  0  0  0  0  0  0
    1.4078   -8.2822    1.9939 C   0  0  2  0  0  0  0  0  0  0  0  0
    2.1238   -9.5154    2.6032 C   0  0  0  0  0  0  0  0  0  0  0  0
    5.1059   -2.4831   -1.7762 H   0  0  0  0  0  0  0  0  0  0  0  0
    5.6034   -1.4381   -0.4658 H   0  0  0  0  0  0  0  0  0  0  0  0
    6.7837   -3.6321   -0.3307 H   0  0  0  0  0  0  0  0  0  0  0  0
    6.2115   -4.2333    2.0085 H   0  0  0  0  0  0  0  0  0  0  0  0
    6.2379   -2.4962    1.8245 H   0  0  0  0  0  0  0  0  0  0  0  0
    4.2002   -3.1803    3.0871 H   0  0  0  0  0  0  0  0  0  0  0  0
    2.5332   -1.9715    1.6473 H   0  0  0  0  0  0  0  0  0  0  0  0
    4.0932   -1.1838    1.5964 H   0  0  0  0  0  0  0  0  0  0  0  0
    3.1308   -1.4169   -0.6904 H   0  0  0  0  0  0  0  0  0  0  0  0
    1.8183   -3.4834   -0.2999 H   0  0  0  0  0  0  0  0  0  0  0  0
    2.8602   -3.6941   -1.6766 H   0  0  0  0  0  0  0  0  0  0  0  0
    3.0138   -5.6893   -0.2327 H   0  0  0  0  0  0  0  0  0  0  0  0
    5.0282   -5.0085   -1.4643 H   0  0  0  0  0  0  0  0  0  0  0  0
    5.5017   -5.7258    0.0544 H   0  0  0  0  0  0  0  0  0  0  0  0
    2.5534   -6.0078    4.3498 H   0  0  0  0  0  0  0  0  0  0  0  0
    3.8256   -8.1725    4.2975 H   0  0  0  0  0  0  0  0  0  0  0  0
    2.7787   -8.0894    5.6857 H   0  0  0  0  0  0  0  0  0  0  0  0
    2.5784  -10.3028    4.5697 H   0  0  0  0  0  0  0  0  0  0  0  0
    0.1070  -10.3535    4.3524 H   0  0  0  0  0  0  0  0  0  0  0  0
    0.5768   -9.3882    5.7232 H   0  0  0  0  0  0  0  0  0  0  0  0
   -1.1408   -8.2154    4.3591 H   0  0  0  0  0  0  0  0  0  0  0  0
    0.5546   -6.8272    5.5595 H   0  0  0  0  0  0  0  0  0  0  0  0
    0.0610   -6.0435    4.0870 H   0  0  0  0  0  0  0  0  0  0  0  0
   -0.5596   -9.2184    2.1530 H   0  0  0  0  0  0  0  0  0  0  0  0
   -0.6284   -7.4762    2.0399 H   0  0  0  0  0  0  0  0  0  0  0  0
    1.4156   -8.3610    0.9037 H   0  0  0  0  0  0  0  0  0  0  0  0
    3.1615   -9.5723    2.2698 H   0  0  0  0  0  0  0  0  0  0  0  0
    1.6461  -10.4412    2.2718 H   0  0  0  0  0  0  0  0  0  0  0  0
  1  6  1  0
  1  2  1  0
  1 25  1  0
  1 26  1  0
  2  9  1  0
  2  3  1  0
  2 27  1  6
  3  4  1  0
  3 28  1  0
  3 29  1  0
  4 10  1  0
  4  5  1  0
  4 30  1  1
  5  6  1  0
  5 31  1  0
  5 32  1  0
  6  7  1  0
  6 33  1  6
  7  8  1  0
  7 34  1  0
  7 35  1  0
  8  9  1  0
  8 10  1  0
  8 36  1  1
  9 37  1  0
  9 38  1  0
 10 15  1  0
 10 11  1  0
 11 12  1  0
 12 13  1  0
 13 23  1  0
 13 14  1  0
 13 16  1  0
 14 15  1  0
 16 21  1  0
 16 17  1  0
 16 39  1  1
 17 18  1  0
 17 40  1  0
 17 41  1  0
 18 24  1  0
 18 19  1  0
 18 42  1  1
 19 20  1  0
 19 43  1  0
 19 44  1  0
 20 21  1  0
 20 22  1  0
 20 45  1  1
 21 46  1  0
 21 47  1  0
 22 23  1  0
 22 48  1  0
 22 49  1  0
 23 24  1  0
 23 50  1  6
 24 51  1  0
 24 52  1  0
M  END
>  <i_m_ct_stereo_status>  (62) 
1

>  <s_m_source_file>  (62) 
/var/tmp/pbs.5076253.sched01/tmp9xbr3gte/40_qt8sgg8.sdf

>  <i_m_source_file_index>  (62) 
13

>  <i_lp_mmshare_version>  (62) 
48012

>  <i_f3d_flags>  (62) 
0

>  <s_epik_input>  (62) 
W0NIMl0xW0NASF0yW0NIMl1bQ0BIXShbQ0gyXTMpW0NIMl1bQ0BASF0xW0NIMl1bQ0BIXTNDMjRPT0M1KE9PNClbQ0BIXTZbQ0gyXVtDQEBIXTdbQ0gyXVtDQEhdKFtDSDJdNilbQ0gyXVtDQEhdNVtDSDJdNw==

>  <s_epik_cmdline>  (62) 
J2VwaWtfcHl0aG9uJywgJy1waHQnLCAnMi4wJywgJy1waCcsICc3LjAnLCAnLXRuJywgJzgnLCAnLW1hJywgJzIwMCcsICctaW1hZScsICc8aW5maWxlLm1hZT4nLCAnLW9tYWUnLCAnPG91dGZpbGUubWFlPic=

>  <r_lp_tautomer_probability>  (62) 
1

>  <r_epik_Ionization_Penalty>  (62) 
0

>  <r_epik_Ionization_Penalty_Charging>  (62) 
0

>  <r_epik_Ionization_Penalty_Neutral>  (62) 
0

>  <r_epik_State_Penalty>  (62) 
-0

>  <r_epik_Charging_Adjusted_Penalty>  (62) 
0

>  <i_epik_Tot_Q>  (62) 
0

>  <i_epik_Tot_abs_Q>  (62) 
0

>  <s_lp_Force_Field>  (62) 
OPLS3e

>  <r_lp_Energy>  (62) 
-4.94424

>  <b_lp_Chiralities_Consistent>  (62) 
1

>  <s_lp_Variant>  (62) 
36:0-1

>  <s_i_glide_gridfile>  (62) 
pfpi4k_grid

>  <i_i_glide_lignum>  (62) 
13

>  <i_i_glide_rotatable_bonds>  (62) 
0

>  <r_i_docking_score>  (62) 
-2.78362

>  <r_i_glide_ligand_efficiency>  (62) 
-0.115984

>  <r_i_glide_ligand_efficiency_sa>  (62) 
-0.334556

>  <r_i_glide_ligand_efficiency_ln>  (62) 
-0.666247

>  <r_i_glide_gscore>  (62) 
-2.78362

>  <r_i_glide_lipo>  (62) 
-0.184754

>  <r_i_glide_hbond>  (62) 
-0.0642748

>  <r_i_glide_metal>  (62) 
-0

>  <r_i_glide_rewards>  (62) 
-1.15047

>  <r_i_glide_evdw>  (62) 
-24.6754

>  <r_i_glide_ecoul>  (62) 
-0.930624

>  <r_i_glide_erotb>  (62) 
0

>  <r_i_glide_esite>  (62) 
-0.0107537

>  <r_i_glide_emodel>  (62) 
-30.1658

>  <r_i_glide_energy>  (62) 
-25.606

>  <r_i_glide_einternal>  (62) 
0

>  <r_i_glide_intrahb_reward>  (62) 
-0

>  <i_i_glide_confnum>  (62) 
2

>  <i_i_glide_posenum>  (62) 
4

>  <r_i_glide_eff_state_penalty>  (62) 
0

>  <ligand_id>  (62) 
36

>  <original_smiles>  (62) 
C1C2CC3CC1CC(C2)C31OOC2(OO1)C1CC3CC(C1)CC2C3

>  <smiles>  (62) 
[H]C1([H])C2([H])C([H])([H])C3([H])C([H])([H])C1([H])C([H])([H])C([H])(C2([H])[H])C31OOC2(OO1)C1([H])C([H])([H])C3([H])C([H])([H])C([H])(C1([H])[H])C([H])([H])C2([H])C3([H])[H]

$$$$
36:0:2
     RDKit          3D

 52 58  0  0  1  0  0  0  0  0999 V2000
    0.5127    2.5032    4.6279 C   0  0  0  0  0  0  0  0  0  0  0  0
    1.9608    2.6926    4.1233 C   0  0  1  0  0  0  0  0  0  0  0  0
    2.9112    1.7289    4.8591 C   0  0  0  0  0  0  0  0  0  0  0  0
    2.4886    0.2561    4.5656 C   0  0  1  0  0  0  0  0  0  0  0  0
    1.0390    0.0835    5.1094 C   0  0  0  0  0  0  0  0  0  0  0  0
    0.0869    1.0428    4.3678 C   0  0  2  0  0  0  0  0  0  0  0  0
    0.1480    0.7511    2.8542 C   0  0  0  0  0  0  0  0  0  0  0  0
    1.5975    0.9324    2.3312 C   0  0  1  0  0  0  0  0  0  0  0  0
    2.0204    2.3990    2.6141 C   0  0  0  0  0  0  0  0  0  0  0  0
    2.5719   -0.0339    3.0551 C   0  0  0  0  0  0  0  0  0  0  0  0
    2.2546   -1.4026    2.8352 O   0  0  0  0  0  0  0  0  0  0  0  0
    2.3740   -1.7078    1.3727 O   0  0  0  0  0  0  0  0  0  0  0  0
    3.6942   -1.4662    0.9177 C   0  0  0  0  0  0  0  0  0  0  0  0
    4.0125   -0.1087    1.1685 O   0  0  0  0  0  0  0  0  0  0  0  0
    3.9148    0.1634    2.6459 O   0  0  0  0  0  0  0  0  0  0  0  0
    4.7225   -2.4328    1.5617 C   0  0  2  0  0  0  0  0  0  0  0  0
    6.1491   -2.1604    1.0188 C   0  0  0  0  0  0  0  0  0  0  0  0
    6.1808   -2.3807   -0.5042 C   0  0  1  0  0  0  0  0  0  0  0  0
    5.7963   -3.8387   -0.8229 C   0  0  0  0  0  0  0  0  0  0  0  0
    4.3806   -4.1160   -0.2957 C   0  0  1  0  0  0  0  0  0  0  0  0
    4.3468   -3.9017    1.2305 C   0  0  0  0  0  0  0  0  0  0  0  0
    3.3817   -3.1526   -0.9729 C   0  0  0  0  0  0  0  0  0  0  0  0
    3.7478   -1.6844   -0.6192 C   0  0  2  0  0  0  0  0  0  0  0  0
    5.1761   -1.4145   -1.1704 C   0  0  0  0  0  0  0  0  0  0  0  0
   -0.1587    3.1901    4.1079 H   0  0  0  0  0  0  0  0  0  0  0  0
    0.4373    2.7460    5.6899 H   0  0  0  0  0  0  0  0  0  0  0  0
    2.2679    3.7256    4.3121 H   0  0  0  0  0  0  0  0  0  0  0  0
    3.9322    1.9011    4.5219 H   0  0  0  0  0  0  0  0  0  0  0  0
    2.8985    1.9349    5.9316 H   0  0  0  0  0  0  0  0  0  0  0  0
    3.1501   -0.4093    5.1233 H   0  0  0  0  0  0  0  0  0  0  0  0
    0.7033   -0.9464    4.9816 H   0  0  0  0  0  0  0  0  0  0  0  0
    1.0067    0.2888    6.1824 H   0  0  0  0  0  0  0  0  0  0  0  0
   -0.9306    0.9070    4.7348 H   0  0  0  0  0  0  0  0  0  0  0  0
   -0.1854   -0.2665    2.6643 H   0  0  0  0  0  0  0  0  0  0  0  0
   -0.5362    1.4100    2.3170 H   0  0  0  0  0  0  0  0  0  0  0  0
    1.5950    0.7782    1.2583 H   0  0  0  0  0  0  0  0  0  0  0  0
    1.3805    3.0979    2.0810 H   0  0  0  0  0  0  0  0  0  0  0  0
    3.0217    2.5851    2.2442 H   0  0  0  0  0  0  0  0  0  0  0  0
    4.7352   -2.3202    2.6434 H   0  0  0  0  0  0  0  0  0  0  0  0
    6.4639   -1.1451    1.2501 H   0  0  0  0  0  0  0  0  0  0  0  0
    6.8746   -2.8198    1.4930 H   0  0  0  0  0  0  0  0  0  0  0  0
    7.1801   -2.1979   -0.8900 H   0  0  0  0  0  0  0  0  0  0  0  0
    5.8380   -4.0230   -1.8996 H   0  0  0  0  0  0  0  0  0  0  0  0
    6.5111   -4.5219   -0.3589 H   0  0  0  0  0  0  0  0  0  0  0  0
    4.1145   -5.1422   -0.5425 H   0  0  0  0  0  0  0  0  0  0  0  0
    5.0364   -4.5932    1.7141 H   0  0  0  0  0  0  0  0  0  0  0  0
    3.3586   -4.1448    1.6128 H   0  0  0  0  0  0  0  0  0  0  0  0
    3.3969   -3.3066   -2.0598 H   0  0  0  0  0  0  0  0  0  0  0  0
    2.3671   -3.3798   -0.6506 H   0  0  0  0  0  0  0  0  0  0  0  0
    3.0259   -1.0312   -1.1278 H   0  0  0  0  0  0  0  0  0  0  0  0
    5.4648   -0.3842   -0.9701 H   0  0  0  0  0  0  0  0  0  0  0  0
    5.2018   -1.5397   -2.2586 H   0  0  0  0  0  0  0  0  0  0  0  0
  1  6  1  0
  1  2  1  0
  1 25  1  0
  1 26  1  0
  2  9  1  0
  2  3  1  0
  2 27  1  6
  3  4  1  0
  3 28  1  0
  3 29  1  0
  4 10  1  0
  4  5  1  0
  4 30  1  1
  5  6  1  0
  5 31  1  0
  5 32  1  0
  6  7  1  0
  6 33  1  1
  7  8  1  0
  7 34  1  0
  7 35  1  0
  8  9  1  0
  8 10  1  0
  8 36  1  6
  9 37  1  0
  9 38  1  0
 10 15  1  0
 10 11  1  0
 11 12  1  0
 12 13  1  0
 13 23  1  0
 13 14  1  0
 13 16  1  0
 14 15  1  0
 16 21  1  0
 16 17  1  0
 16 39  1  1
 17 18  1  0
 17 40  1  0
 17 41  1  0
 18 24  1  0
 18 19  1  0
 18 42  1  6
 19 20  1  0
 19 43  1  0
 19 44  1  0
 20 21  1  0
 20 22  1  0
 20 45  1  1
 21 46  1  0
 21 47  1  0
 22 23  1  0
 22 48  1  0
 22 49  1  0
 23 24  1  0
 23 50  1  6
 24 51  1  0
 24 52  1  0
M  END
>  <i_m_ct_stereo_status>  (63) 
1

>  <s_m_source_file>  (63) 
/var/tmp/pbs.5076253.sched01/tmp9xbr3gte/40_qt8sgg8.sdf

>  <i_m_source_file_index>  (63) 
13

>  <i_lp_mmshare_version>  (63) 
48012

>  <i_f3d_flags>  (63) 
0

>  <s_epik_input>  (63) 
W0NIMl0xW0NASF0yW0NIMl1bQ0BIXShbQ0gyXTMpW0NIMl1bQ0BASF0xW0NIMl1bQ0BIXTNDMjRPT0M1KE9PNClbQ0BIXTZbQ0gyXVtDQEBIXTdbQ0gyXVtDQEhdKFtDSDJdNilbQ0gyXVtDQEhdNVtDSDJdNw==

>  <s_epik_cmdline>  (63) 
J2VwaWtfcHl0aG9uJywgJy1waHQnLCAnMi4wJywgJy1waCcsICc3LjAnLCAnLXRuJywgJzgnLCAnLW1hJywgJzIwMCcsICctaW1hZScsICc8aW5maWxlLm1hZT4nLCAnLW9tYWUnLCAnPG91dGZpbGUubWFlPic=

>  <r_lp_tautomer_probability>  (63) 
1

>  <r_epik_Ionization_Penalty>  (63) 
0

>  <r_epik_Ionization_Penalty_Charging>  (63) 
0

>  <r_epik_Ionization_Penalty_Neutral>  (63) 
0

>  <r_epik_State_Penalty>  (63) 
-0

>  <r_epik_Charging_Adjusted_Penalty>  (63) 
0

>  <i_epik_Tot_Q>  (63) 
0

>  <i_epik_Tot_abs_Q>  (63) 
0

>  <s_lp_Force_Field>  (63) 
OPLS3e

>  <r_lp_Energy>  (63) 
-4.94424

>  <b_lp_Chiralities_Consistent>  (63) 
1

>  <s_lp_Variant>  (63) 
36:0-1

>  <s_i_glide_gridfile>  (63) 
pfpi4k_grid

>  <i_i_glide_lignum>  (63) 
13

>  <i_i_glide_rotatable_bonds>  (63) 
0

>  <r_i_docking_score>  (63) 
-2.67691

>  <r_i_glide_ligand_efficiency>  (63) 
-0.111538

>  <r_i_glide_ligand_efficiency_sa>  (63) 
-0.321731

>  <r_i_glide_ligand_efficiency_ln>  (63) 
-0.640707

>  <r_i_glide_gscore>  (63) 
-2.67691

>  <r_i_glide_lipo>  (63) 
-0.230696

>  <r_i_glide_hbond>  (63) 
0

>  <r_i_glide_metal>  (63) 
-0

>  <r_i_glide_rewards>  (63) 
-1.1425

>  <r_i_glide_evdw>  (63) 
-25.5451

>  <r_i_glide_ecoul>  (63) 
0.0774784

>  <r_i_glide_erotb>  (63) 
0

>  <r_i_glide_esite>  (63) 
-0.0380873

>  <r_i_glide_emodel>  (63) 
-29.7905

>  <r_i_glide_energy>  (63) 
-25.4676

>  <r_i_glide_einternal>  (63) 
0

>  <r_i_glide_intrahb_reward>  (63) 
-0

>  <i_i_glide_confnum>  (63) 
4

>  <i_i_glide_posenum>  (63) 
10

>  <r_i_glide_eff_state_penalty>  (63) 
0

>  <ligand_id>  (63) 
36

>  <original_smiles>  (63) 
C1C2CC3CC1CC(C2)C31OOC2(OO1)C1CC3CC(C1)CC2C3

>  <smiles>  (63) 
[H]C1([H])C2([H])C([H])([H])C3([H])C([H])([H])C1([H])C([H])([H])C([H])(C2([H])[H])C31OOC2(OO1)C1([H])C([H])([H])C3([H])C([H])([H])C([H])(C1([H])[H])C([H])([H])C2([H])C3([H])[H]

$$$$
40:0:0
     RDKit          3D

 74 84  0  0  1  0  0  0  0  0999 V2000
    1.3752    2.9384    3.3547 C   0  0  0  0  0  0  0  0  0  0  0  0
    0.6928    1.5583    3.2968 C   0  0  2  0  0  0  0  0  0  0  0  0
   -0.8385    1.6731    3.2449 C   0  0  0  0  0  0  0  0  0  0  0  0
   -1.3337    2.0273    4.6126 C   0  0  0  0  0  0  0  0  0  0  0  0
   -2.3477    2.7581    5.0550 C   0  0  0  0  0  0  0  0  0  0  0  0
   -2.1852    2.7250    6.5674 C   0  0  1  0  0  0  0  0  0  0  0  0
   -2.5493    1.4530    7.0484 O   0  0  0  0  0  0  0  0  0  0  0  0
   -1.4539    0.6226    6.6264 C   0  0  0  0  0  0  0  0  0  0  0  0
   -0.5901    1.6149    5.8448 C   0  0  2  0  0  0  0  0  0  0  0  0
   -0.8038    2.7016    6.6593 O   0  0  0  0  0  0  0  0  0  0  0  0
    0.7658    1.2808    5.7085 O   0  0  0  0  0  0  0  0  0  0  0  0
    1.1506    0.6576    4.5064 C   0  0  2  0  0  0  0  0  0  0  0  0
    2.5227    0.5374    4.3335 O   0  0  0  0  0  0  0  0  0  0  0  0
    3.3717   -0.0062    5.3050 C   0  0  1  0  0  0  0  0  0  0  0  0
    4.1431    1.1006    5.7347 O   0  0  0  0  0  0  0  0  0  0  0  0
    2.7174   -0.6249    6.7358 C   0  0  2  0  0  0  0  0  0  0  0  0
    2.1832    0.4028    7.5298 O   0  0  0  0  0  0  0  0  0  0  0  0
    3.8448   -1.1568    7.6143 C   0  0  0  0  0  0  0  0  0  0  0  0
    4.5687   -2.2054    6.8232 C   0  0  0  0  0  0  0  0  0  0  0  0
    4.0907   -2.2661    5.3311 C   0  0  1  0  0  0  0  0  0  0  0  0
    2.6785   -2.7839    4.7533 C   0  0  2  0  0  0  0  0  0  0  0  0
    2.0717   -3.0786    6.1345 C   0  0  0  0  0  0  0  0  0  0  0  0
    1.7754   -1.7263    6.6548 O   0  0  0  0  0  0  0  0  0  0  0  0
    3.2942   -3.6873    3.5799 C   0  0  2  0  0  0  0  0  0  0  0  0
    4.5127   -3.0337    3.0916 O   0  0  0  0  0  0  0  0  0  0  0  0
    4.4538   -1.5767    2.9997 C   0  0  0  0  0  0  0  0  0  0  0  0
    3.9369   -0.5823    1.9358 C   0  0  1  0  0  0  0  0  0  0  0  0
    5.0103    0.0619    1.2958 O   0  0  0  0  0  0  0  0  0  0  0  0
    3.7431   -1.9656    1.5986 C   0  0  2  0  0  0  0  0  0  0  0  0
    2.4531   -2.5196    1.6860 O   0  0  0  0  0  0  0  0  0  0  0  0
    2.5261   -3.7930    2.2380 C   0  0  1  0  0  0  0  0  0  0  0  0
    3.2654   -4.6699    1.4148 O   0  0  0  0  0  0  0  0  0  0  0  0
    3.7223   -4.1287    0.1945 C   0  0  1  0  0  0  0  0  0  0  0  0
    2.6470   -4.0691   -0.7241 O   0  0  0  0  0  0  0  0  0  0  0  0
    4.4084   -2.7145    0.3979 C   0  0  1  0  0  0  0  0  0  0  0  0
    4.3905   -1.9316   -0.9422 C   0  0  0  0  0  0  0  0  0  0  0  0
    5.7980   -2.8936    0.6325 O   0  0  0  0  0  0  0  0  0  0  0  0
    4.3660   -1.0521    4.5351 C   0  0  1  0  0  0  0  0  0  0  0  0
    5.7150   -0.6504    4.7067 O   0  0  0  0  0  0  0  0  0  0  0  0
    1.3302   -2.1085    4.1937 C   0  0  2  0  0  0  0  0  0  0  0  0
    1.1414   -1.2005    3.1420 O   0  0  0  0  0  0  0  0  0  0  0  0
    0.6306   -0.7534    4.3951 C   0  0  2  0  0  0  0  0  0  0  0  0
    1.1119    3.4933    4.2557 H   0  0  0  0  0  0  0  0  0  0  0  0
    1.0635    3.5317    2.4994 H   0  0  0  0  0  0  0  0  0  0  0  0
    2.4615    2.8612    3.3052 H   0  0  0  0  0  0  0  0  0  0  0  0
    1.0182    1.0862    2.3694 H   0  0  0  0  0  0  0  0  0  0  0  0
   -1.1728    2.3977    2.5052 H   0  0  0  0  0  0  0  0  0  0  0  0
   -1.2742    0.7186    2.9659 H   0  0  0  0  0  0  0  0  0  0  0  0
   -3.1233    3.2624    4.5030 H   0  0  0  0  0  0  0  0  0  0  0  0
   -2.6548    3.5611    7.0899 H   0  0  0  0  0  0  0  0  0  0  0  0
   -0.9116    0.2687    7.5029 H   0  0  0  0  0  0  0  0  0  0  0  0
   -1.7985   -0.2169    6.0215 H   0  0  0  0  0  0  0  0  0  0  0  0
    4.6415    1.3964    4.9889 H   0  0  0  0  0  0  0  0  0  0  0  0
    1.6264    0.9221    6.9531 H   0  0  0  0  0  0  0  0  0  0  0  0
    4.5250   -0.3515    7.8954 H   0  0  0  0  0  0  0  0  0  0  0  0
    3.4304   -1.5751    8.5323 H   0  0  0  0  0  0  0  0  0  0  0  0
    5.6301   -1.9672    6.8523 H   0  0  0  0  0  0  0  0  0  0  0  0
    4.5340   -3.1704    7.3298 H   0  0  0  0  0  0  0  0  0  0  0  0
    4.8440   -3.0413    5.1762 H   0  0  0  0  0  0  0  0  0  0  0  0
    1.1208   -3.6058    6.0784 H   0  0  0  0  0  0  0  0  0  0  0  0
    2.6395   -3.7174    6.8078 H   0  0  0  0  0  0  0  0  0  0  0  0
    3.4951   -4.6994    3.9289 H   0  0  0  0  0  0  0  0  0  0  0  0
    3.0669    0.0441    2.0883 H   0  0  0  0  0  0  0  0  0  0  0  0
    4.6685    0.4779    0.5163 H   0  0  0  0  0  0  0  0  0  0  0  0
    1.5182   -4.1901    2.3579 H   0  0  0  0  0  0  0  0  0  0  0  0
    4.4322   -4.8282   -0.2543 H   0  0  0  0  0  0  0  0  0  0  0  0
    2.7279   -4.8038   -1.3175 H   0  0  0  0  0  0  0  0  0  0  0  0
    3.3934   -1.5793   -1.2060 H   0  0  0  0  0  0  0  0  0  0  0  0
    4.7554   -2.5532   -1.7632 H   0  0  0  0  0  0  0  0  0  0  0  0
    5.0462   -1.0613   -0.9282 H   0  0  0  0  0  0  0  0  0  0  0  0
    6.1571   -2.0617    0.9082 H   0  0  0  0  0  0  0  0  0  0  0  0
    5.9070   -0.0036    4.0466 H   0  0  0  0  0  0  0  0  0  0  0  0
    0.5945   -2.8996    4.1004 H   0  0  0  0  0  0  0  0  0  0  0  0
   -0.4464   -0.8429    4.4716 H   0  0  0  0  0  0  0  0  0  0  0  0
  1  2  1  0
  1 43  1  0
  1 44  1  0
  1 45  1  0
  2 12  1  0
  2  3  1  0
  2 46  1  6
  3  4  1  0
  3 47  1  0
  3 48  1  0
  4  9  1  0
  4  5  2  0
  5  6  1  0
  5 49  1  0
  6 10  1  0
  6  7  1  0
  6 50  1  1
  7  8  1  0
  8  9  1  0
  8 51  1  0
  8 52  1  0
  9 10  1  0
  9 11  1  6
 12 11  1  1
 12 42  1  0
 12 13  1  0
 13 14  1  0
 14 38  1  0
 14 15  1  1
 14 16  1  0
 15 53  1  0
 16 23  1  0
 16 17  1  1
 16 18  1  0
 17 54  1  0
 18 19  1  0
 18 55  1  0
 18 56  1  0
 19 20  1  0
 19 57  1  0
 19 58  1  0
 20 38  1  0
 20 21  1  0
 20 59  1  6
 21 22  1  1
 21 24  1  0
 21 40  1  0
 22 23  1  0
 22 60  1  0
 22 61  1  0
 24 31  1  0
 24 25  1  0
 24 62  1  1
 25 26  1  0
 26 29  1  0
 26 27  1  0
 26 38  1  0
 27 28  1  0
 27 29  1  0
 27 63  1  1
 28 64  1  0
 29 35  1  0
 29 30  1  1
 30 31  1  0
 31 32  1  0
 31 65  1  1
 32 33  1  0
 33 34  1  0
 33 35  1  0
 33 66  1  6
 34 67  1  0
 35 36  1  0
 35 37  1  1
 36 68  1  0
 36 69  1  0
 36 70  1  0
 37 71  1  0
 38 39  1  1
 39 72  1  0
 40 42  1  0
 40 41  1  0
 40 73  1  6
 41 42  1  0
 42 74  1  6
M  END
>  <i_m_ct_stereo_status>  (64) 
1

>  <s_m_source_file>  (64) 
/var/tmp/pbs.5076253.sched01/tmp9xbr3gte/40_qt8sgg8.sdf

>  <i_m_source_file_index>  (64) 
17

>  <i_lp_mmshare_version>  (64) 
48012

>  <i_f3d_flags>  (64) 
0

>  <s_epik_input>  (64) 
W0NIMl0xT1tDQEBIXShPMilbQ0hdPUMoW0NAXTEyMylbQ0gyXVtDQEBIXShbQ0gzXSlbQ0BAXTQoTzMpW0NAQEhdNVtDQEBIXShPNSlbQ0BAXTY3W0NIXThDKFtPSF0pKFtDQF0oTzQpKFtPSF0pW0NAXShbT0hdKShbQ0gyXVtDSDJdOClPW0NIMl02KVtDQEBdMTlbQ0BdMihbQ0BASF0xW09IXSlPW0NASF0oW0NASF03TzkpT1tDQEBIXShbT0hdKVtDQF0yKFtDSDNdKVtPSF0=

>  <s_epik_cmdline>  (64) 
J2VwaWtfcHl0aG9uJywgJy1waHQnLCAnMi4wJywgJy1waCcsICc3LjAnLCAnLXRuJywgJzgnLCAnLW1hJywgJzIwMCcsICctaW1hZScsICc8aW5maWxlLm1hZT4nLCAnLW9tYWUnLCAnPG91dGZpbGUubWFlPic=

>  <r_lp_tautomer_probability>  (64) 
1

>  <r_epik_Ionization_Penalty>  (64) 
0.000175812

>  <r_epik_Ionization_Penalty_Charging>  (64) 
0

>  <r_epik_Ionization_Penalty_Neutral>  (64) 
0.000175812

>  <r_epik_State_Penalty>  (64) 
-0

>  <r_epik_Charging_Adjusted_Penalty>  (64) 
0

>  <i_epik_Tot_Q>  (64) 
0

>  <i_epik_Tot_abs_Q>  (64) 
0

>  <s_epik_Chemistry_Notes>  (64) 
This compound contains an acetal/aminal-like group ( X-CH(R)-Y where X, Y are N, S, or O) that may be acid/base labile, releasing an aldehyde.

>  <s_lp_Force_Field>  (64) 
OPLS3e

>  <r_lp_Energy>  (64) 
309.546

>  <b_lp_Chiralities_Consistent>  (64) 
1

>  <s_lp_Variant>  (64) 
40:0-1

>  <s_i_glide_gridfile>  (64) 
pfpi4k_grid

>  <i_i_glide_lignum>  (64) 
17

>  <i_i_glide_rotatable_bonds>  (64) 
6

>  <r_i_docking_score>  (64) 
-3.75086

>  <r_i_glide_ligand_efficiency>  (64) 
-0.0893063

>  <r_i_glide_ligand_efficiency_sa>  (64) 
-0.310431

>  <r_i_glide_ligand_efficiency_ln>  (64) 
-0.791711

>  <r_i_glide_gscore>  (64) 
-3.75086

>  <r_i_glide_lipo>  (64) 
-0.0914401

>  <r_i_glide_hbond>  (64) 
-0.0911049

>  <r_i_glide_metal>  (64) 
-0

>  <r_i_glide_rewards>  (64) 
-1.14629

>  <r_i_glide_evdw>  (64) 
-28.5031

>  <r_i_glide_ecoul>  (64) 
-6.49387

>  <r_i_glide_erotb>  (64) 
0

>  <r_i_glide_esite>  (64) 
-0.0227878

>  <r_i_glide_emodel>  (64) 
-51.2059

>  <r_i_glide_energy>  (64) 
-34.997

>  <r_i_glide_einternal>  (64) 
1.66741

>  <r_i_glide_intrahb_reward>  (64) 
-1

>  <i_i_glide_confnum>  (64) 
1

>  <i_i_glide_posenum>  (64) 
19

>  <r_i_glide_eff_state_penalty>  (64) 
0

>  <ligand_id>  (64) 
40

>  <original_smiles>  (64) 
CC1CC2=CC3OCC2(O3)OC12OC1(O)C3(O)CCC4C(CO3)(C3OC5(C(O)C56OC3OC(O)C6(C)O)C41O)C1OC12

>  <smiles>  (64) 
[H]OC1([H])OC2([H])OC3(C([H])(O[H])C34OC2([H])C23C([H])([H])OC5(O[H])C([H])([H])C([H])([H])C2([H])C4(O[H])C5(O[H])OC2(OC45OC([H])(OC4([H])[H])C([H])=C5C([H])([H])C2([H])C([H])([H])[H])C2([H])OC23[H])C1(O[H])C([H])([H])[H]

$$$$
40:0:1
     RDKit          3D

 74 84  0  0  1  0  0  0  0  0999 V2000
    1.5671    2.9274    3.3940 C   0  0  0  0  0  0  0  0  0  0  0  0
    0.7724    1.6075    3.3510 C   0  0  2  0  0  0  0  0  0  0  0  0
   -0.7391    1.8447    3.1981 C   0  0  0  0  0  0  0  0  0  0  0  0
   -1.2899    2.2852    4.5192 C   0  0  0  0  0  0  0  0  0  0  0  0
   -2.2652    3.1133    4.8663 C   0  0  0  0  0  0  0  0  0  0  0  0
   -2.1833    3.1493    6.3859 C   0  0  1  0  0  0  0  0  0  0  0  0
   -2.6783    1.9432    6.9075 O   0  0  0  0  0  0  0  0  0  0  0  0
   -1.6479    0.9962    6.5849 C   0  0  0  0  0  0  0  0  0  0  0  0
   -0.6555    1.8720    5.8100 C   0  0  2  0  0  0  0  0  0  0  0  0
   -0.8167    3.0148    6.5579 O   0  0  0  0  0  0  0  0  0  0  0  0
    0.6734    1.4226    5.7719 O   0  0  0  0  0  0  0  0  0  0  0  0
    1.0792    0.7232    4.6197 C   0  0  2  0  0  0  0  0  0  0  0  0
    2.4492    0.4904    4.5462 O   0  0  0  0  0  0  0  0  0  0  0  0
    3.1837   -0.1064    5.5806 C   0  0  1  0  0  0  0  0  0  0  0  0
    4.0630    0.9174    6.0112 O   0  0  0  0  0  0  0  0  0  0  0  0
    2.3881   -0.5938    6.9893 C   0  0  2  0  0  0  0  0  0  0  0  0
    1.9039    0.5132    7.7040 O   0  0  0  0  0  0  0  0  0  0  0  0
    3.4058   -1.1831    7.9603 C   0  0  0  0  0  0  0  0  0  0  0  0
    4.0792   -2.3250    7.2575 C   0  0  0  0  0  0  0  0  0  0  0  0
    3.6853   -2.4195    5.7402 C   0  0  1  0  0  0  0  0  0  0  0  0
    2.2725   -2.8291    5.0920 C   0  0  2  0  0  0  0  0  0  0  0  0
    1.5608   -3.0079    6.4428 C   0  0  0  0  0  0  0  0  0  0  0  0
    1.3563   -1.6132    6.8928 O   0  0  0  0  0  0  0  0  0  0  0  0
    2.8810   -3.8286    3.9936 C   0  0  2  0  0  0  0  0  0  0  0  0
    4.1794   -3.3053    3.5583 O   0  0  0  0  0  0  0  0  0  0  0  0
    4.2558   -1.8524    3.4061 C   0  0  0  0  0  0  0  0  0  0  0  0
    3.8962   -0.8530    2.2822 C   0  0  1  0  0  0  0  0  0  0  0  0
    5.0449   -0.3048    1.6787 O   0  0  0  0  0  0  0  0  0  0  0  0
    3.6023   -2.2305    1.9792 C   0  0  2  0  0  0  0  0  0  0  0  0
    2.2644   -2.6698    2.0095 O   0  0  0  0  0  0  0  0  0  0  0  0
    2.1934   -3.9212    2.6101 C   0  0  1  0  0  0  0  0  0  0  0  0
    2.8935   -4.8934    1.8644 O   0  0  0  0  0  0  0  0  0  0  0  0
    3.4713   -4.4443    0.6588 C   0  0  1  0  0  0  0  0  0  0  0  0
    2.4685   -4.3363   -0.3328 O   0  0  0  0  0  0  0  0  0  0  0  0
    4.2661   -3.0874    0.8525 C   0  0  1  0  0  0  0  0  0  0  0  0
    4.3962   -2.3659   -0.5119 C   0  0  0  0  0  0  0  0  0  0  0  0
    5.6194   -3.3765    1.1766 O   0  0  0  0  0  0  0  0  0  0  0  0
    4.1094   -1.2757    4.9090 C   0  0  1  0  0  0  0  0  0  0  0  0
    5.4790   -1.0178    5.1457 O   0  0  0  0  0  0  0  0  0  0  0  0
    1.0292   -2.0624    4.4226 C   0  0  2  0  0  0  0  0  0  0  0  0
    0.9903   -1.1848    3.3275 O   0  0  0  0  0  0  0  0  0  0  0  0
    0.4446   -0.6426    4.5276 C   0  0  2  0  0  0  0  0  0  0  0  0
    1.2994    3.5401    4.2553 H   0  0  0  0  0  0  0  0  0  0  0  0
    1.3656    3.5129    2.4974 H   0  0  0  0  0  0  0  0  0  0  0  0
    2.6433    2.7536    3.4205 H   0  0  0  0  0  0  0  0  0  0  0  0
    1.1086    1.0692    2.4638 H   0  0  0  0  0  0  0  0  0  0  0  0
   -0.9646    2.5671    2.4173 H   0  0  0  0  0  0  0  0  0  0  0  0
   -1.2376    0.9207    2.9215 H   0  0  0  0  0  0  0  0  0  0  0  0
   -2.9517    3.6628    4.2430 H   0  0  0  0  0  0  0  0  0  0  0  0
   -2.6042    4.0457    6.8454 H   0  0  0  0  0  0  0  0  0  0  0  0
   -1.1887    0.6290    7.5032 H   0  0  0  0  0  0  0  0  0  0  0  0
   -2.0388    0.1715    5.9882 H   0  0  0  0  0  0  0  0  0  0  0  0
    4.6229    1.1193    5.2756 H   0  0  0  0  0  0  0  0  0  0  0  0
    1.4363    1.0568    7.0729 H   0  0  0  0  0  0  0  0  0  0  0  0
    4.1343   -0.4250    8.2546 H   0  0  0  0  0  0  0  0  0  0  0  0
    2.8989   -1.5229    8.8649 H   0  0  0  0  0  0  0  0  0  0  0  0
    5.1543   -2.1824    7.3499 H   0  0  0  0  0  0  0  0  0  0  0  0
    3.9277   -3.2589    7.8005 H   0  0  0  0  0  0  0  0  0  0  0  0
    4.3748   -3.2643    5.6649 H   0  0  0  0  0  0  0  0  0  0  0  0
    0.5727   -3.4563    6.3451 H   0  0  0  0  0  0  0  0  0  0  0  0
    2.0296   -3.6632    7.1736 H   0  0  0  0  0  0  0  0  0  0  0  0
    2.9721   -4.8371    4.3921 H   0  0  0  0  0  0  0  0  0  0  0  0
    3.0730   -0.1546    2.3552 H   0  0  0  0  0  0  0  0  0  0  0  0
    4.7794    0.0527    0.8454 H   0  0  0  0  0  0  0  0  0  0  0  0
    1.1488   -4.2239    2.6830 H   0  0  0  0  0  0  0  0  0  0  0  0
    4.1414   -5.2255    0.2901 H   0  0  0  0  0  0  0  0  0  0  0  0
    2.6855   -4.9306   -1.0385 H   0  0  0  0  0  0  0  0  0  0  0  0
    3.4501   -1.9425   -0.8486 H   0  0  0  0  0  0  0  0  0  0  0  0
    4.7527   -3.0528   -1.2825 H   0  0  0  0  0  0  0  0  0  0  0  0
    5.1248   -1.5565   -0.4863 H   0  0  0  0  0  0  0  0  0  0  0  0
    6.0541   -2.5625    1.3805 H   0  0  0  0  0  0  0  0  0  0  0  0
    5.5790   -0.8296    6.0644 H   0  0  0  0  0  0  0  0  0  0  0  0
    0.2313   -2.7880    4.3093 H   0  0  0  0  0  0  0  0  0  0  0  0
   -0.6407   -0.6355    4.5394 H   0  0  0  0  0  0  0  0  0  0  0  0
  1  2  1  0
  1 43  1  0
  1 44  1  0
  1 45  1  0
  2 12  1  0
  2  3  1  0
  2 46  1  6
  3  4  1  0
  3 47  1  0
  3 48  1  0
  4  9  1  0
  4  5  2  0
  5  6  1  0
  5 49  1  0
  6 10  1  0
  6  7  1  0
  6 50  1  1
  7  8  1  0
  8  9  1  0
  8 51  1  0
  8 52  1  0
  9 10  1  0
  9 11  1  6
 12 11  1  1
 12 42  1  0
 12 13  1  0
 13 14  1  0
 14 38  1  0
 14 15  1  1
 14 16  1  0
 15 53  1  0
 16 23  1  0
 16 17  1  1
 16 18  1  0
 17 54  1  0
 18 19  1  0
 18 55  1  0
 18 56  1  0
 19 20  1  0
 19 57  1  0
 19 58  1  0
 20 38  1  0
 20 21  1  0
 20 59  1  6
 21 22  1  1
 21 24  1  0
 21 40  1  0
 22 23  1  0
 22 60  1  0
 22 61  1  0
 24 31  1  0
 24 25  1  0
 24 62  1  1
 25 26  1  0
 26 29  1  0
 26 27  1  0
 26 38  1  0
 27 28  1  0
 27 29  1  0
 27 63  1  1
 28 64  1  0
 29 35  1  0
 29 30  1  1
 30 31  1  0
 31 32  1  0
 31 65  1  1
 32 33  1  0
 33 34  1  0
 33 35  1  0
 33 66  1  6
 34 67  1  0
 35 36  1  0
 35 37  1  1
 36 68  1  0
 36 69  1  0
 36 70  1  0
 37 71  1  0
 38 39  1  1
 39 72  1  0
 40 42  1  0
 40 41  1  0
 40 73  1  6
 41 42  1  0
 42 74  1  6
M  END
>  <i_m_ct_stereo_status>  (65) 
1

>  <s_m_source_file>  (65) 
/var/tmp/pbs.5076253.sched01/tmp9xbr3gte/40_qt8sgg8.sdf

>  <i_m_source_file_index>  (65) 
17

>  <i_lp_mmshare_version>  (65) 
48012

>  <i_f3d_flags>  (65) 
0

>  <s_epik_input>  (65) 
W0NIMl0xT1tDQEBIXShPMilbQ0hdPUMoW0NAXTEyMylbQ0gyXVtDQEBIXShbQ0gzXSlbQ0BAXTQoTzMpW0NAQEhdNVtDQEBIXShPNSlbQ0BAXTY3W0NIXThDKFtPSF0pKFtDQF0oTzQpKFtPSF0pW0NAXShbT0hdKShbQ0gyXVtDSDJdOClPW0NIMl02KVtDQEBdMTlbQ0BdMihbQ0BASF0xW09IXSlPW0NASF0oW0NASF03TzkpT1tDQEBIXShbT0hdKVtDQF0yKFtDSDNdKVtPSF0=

>  <s_epik_cmdline>  (65) 
J2VwaWtfcHl0aG9uJywgJy1waHQnLCAnMi4wJywgJy1waCcsICc3LjAnLCAnLXRuJywgJzgnLCAnLW1hJywgJzIwMCcsICctaW1hZScsICc8aW5maWxlLm1hZT4nLCAnLW9tYWUnLCAnPG91dGZpbGUubWFlPic=

>  <r_lp_tautomer_probability>  (65) 
1

>  <r_epik_Ionization_Penalty>  (65) 
0.000175812

>  <r_epik_Ionization_Penalty_Charging>  (65) 
0

>  <r_epik_Ionization_Penalty_Neutral>  (65) 
0.000175812

>  <r_epik_State_Penalty>  (65) 
-0

>  <r_epik_Charging_Adjusted_Penalty>  (65) 
0

>  <i_epik_Tot_Q>  (65) 
0

>  <i_epik_Tot_abs_Q>  (65) 
0

>  <s_epik_Chemistry_Notes>  (65) 
This compound contains an acetal/aminal-like group ( X-CH(R)-Y where X, Y are N, S, or O) that may be acid/base labile, releasing an aldehyde.

>  <s_lp_Force_Field>  (65) 
OPLS3e

>  <r_lp_Energy>  (65) 
309.546

>  <b_lp_Chiralities_Consistent>  (65) 
1

>  <s_lp_Variant>  (65) 
40:0-1

>  <s_i_glide_gridfile>  (65) 
pfpi4k_grid

>  <i_i_glide_lignum>  (65) 
17

>  <i_i_glide_rotatable_bonds>  (65) 
6

>  <r_i_docking_score>  (65) 
-3.34811

>  <r_i_glide_ligand_efficiency>  (65) 
-0.0797169

>  <r_i_glide_ligand_efficiency_sa>  (65) 
-0.277098

>  <r_i_glide_ligand_efficiency_ln>  (65) 
-0.7067

>  <r_i_glide_gscore>  (65) 
-3.34811

>  <r_i_glide_lipo>  (65) 
-0.0457628

>  <r_i_glide_hbond>  (65) 
0

>  <r_i_glide_metal>  (65) 
-0

>  <r_i_glide_rewards>  (65) 
-1.13254

>  <r_i_glide_evdw>  (65) 
-30.4162

>  <r_i_glide_ecoul>  (65) 
-4.19093

>  <r_i_glide_erotb>  (65) 
0

>  <r_i_glide_esite>  (65) 
-0.0203539

>  <r_i_glide_emodel>  (65) 
-49.6216

>  <r_i_glide_energy>  (65) 
-34.6072

>  <r_i_glide_einternal>  (65) 
2.11051

>  <r_i_glide_intrahb_reward>  (65) 
-1

>  <i_i_glide_confnum>  (65) 
1

>  <i_i_glide_posenum>  (65) 
23

>  <r_i_glide_eff_state_penalty>  (65) 
0

>  <ligand_id>  (65) 
40

>  <original_smiles>  (65) 
CC1CC2=CC3OCC2(O3)OC12OC1(O)C3(O)CCC4C(CO3)(C3OC5(C(O)C56OC3OC(O)C6(C)O)C41O)C1OC12

>  <smiles>  (65) 
[H]OC1([H])OC2([H])OC3(C([H])(O[H])C34OC2([H])C23C([H])([H])OC5(O[H])C([H])([H])C([H])([H])C2([H])C4(O[H])C5(O[H])OC2(OC45OC([H])(OC4([H])[H])C([H])=C5C([H])([H])C2([H])C([H])([H])[H])C2([H])OC23[H])C1(O[H])C([H])([H])[H]

$$$$
40:0:2
     RDKit          3D

 74 84  0  0  1  0  0  0  0  0999 V2000
    1.5361    2.7184    3.3530 C   0  0  0  0  0  0  0  0  0  0  0  0
    0.7063    1.4192    3.3553 C   0  0  2  0  0  0  0  0  0  0  0  0
   -0.7992    1.6939    3.2062 C   0  0  0  0  0  0  0  0  0  0  0  0
   -1.3261    2.1965    4.5162 C   0  0  0  0  0  0  0  0  0  0  0  0
   -2.2754    3.0602    4.8435 C   0  0  0  0  0  0  0  0  0  0  0  0
   -2.1791    3.1426    6.3610 C   0  0  1  0  0  0  0  0  0  0  0  0
   -2.7025    1.9686    6.9261 O   0  0  0  0  0  0  0  0  0  0  0  0
   -1.7007    0.9843    6.6259 C   0  0  0  0  0  0  0  0  0  0  0  0
   -0.6906    1.8054    5.8149 C   0  0  2  0  0  0  0  0  0  0  0  0
   -0.8155    2.9759    6.5267 O   0  0  0  0  0  0  0  0  0  0  0  0
    0.6249    1.3179    5.7798 O   0  0  0  0  0  0  0  0  0  0  0  0
    1.0001    0.5683    4.6482 C   0  0  2  0  0  0  0  0  0  0  0  0
    2.3624    0.2881    4.5673 O   0  0  0  0  0  0  0  0  0  0  0  0
    3.0946   -0.2835    5.6191 C   0  0  1  0  0  0  0  0  0  0  0  0
    3.9828    0.7480    6.0143 O   0  0  0  0  0  0  0  0  0  0  0  0
    2.2983   -0.7046    7.0490 C   0  0  2  0  0  0  0  0  0  0  0  0
    1.8498    0.4384    7.7323 O   0  0  0  0  0  0  0  0  0  0  0  0
    3.3064   -1.2876    8.0300 C   0  0  0  0  0  0  0  0  0  0  0  0
    3.9432   -2.4699    7.3592 C   0  0  0  0  0  0  0  0  0  0  0  0
    3.5351   -2.6002    5.8505 C   0  0  1  0  0  0  0  0  0  0  0  0
    2.1029   -2.9953    5.2281 C   0  0  2  0  0  0  0  0  0  0  0  0
    1.3998   -3.1103    6.5909 C   0  0  0  0  0  0  0  0  0  0  0  0
    1.2371   -1.6962    6.9952 O   0  0  0  0  0  0  0  0  0  0  0  0
    2.6740   -4.0473    4.1586 C   0  0  2  0  0  0  0  0  0  0  0  0
    3.9828   -3.5773    3.6948 O   0  0  0  0  0  0  0  0  0  0  0  0
    4.1004   -2.1330    3.4983 C   0  0  0  0  0  0  0  0  0  0  0  0
    3.7535   -1.1629    2.3440 C   0  0  1  0  0  0  0  0  0  0  0  0
    4.9171   -0.6579    1.7291 O   0  0  0  0  0  0  0  0  0  0  0  0
    3.4241   -2.5402    2.0871 C   0  0  2  0  0  0  0  0  0  0  0  0
    2.0736   -2.9362    2.1439 O   0  0  0  0  0  0  0  0  0  0  0  0
    1.9666   -4.1651    2.7864 C   0  0  1  0  0  0  0  0  0  0  0  0
    2.6221   -5.1802    2.0589 O   0  0  0  0  0  0  0  0  0  0  0  0
    3.2159   -4.7911    0.8346 C   0  0  1  0  0  0  0  0  0  0  0  0
    2.2276   -4.6976   -0.1733 O   0  0  0  0  0  0  0  0  0  0  0  0
    4.0484   -3.4488    0.9810 C   0  0  1  0  0  0  0  0  0  0  0  0
    4.1837   -2.7775   -0.4081 C   0  0  0  0  0  0  0  0  0  0  0  0
    5.3955   -3.7663    1.3041 O   0  0  0  0  0  0  0  0  0  0  0  0
    3.9934   -1.4973    4.9862 C   0  0  1  0  0  0  0  0  0  0  0  0
    5.3763   -1.2736    5.2103 O   0  0  0  0  0  0  0  0  0  0  0  0
    0.8734   -2.2188    4.5462 C   0  0  2  0  0  0  0  0  0  0  0  0
    0.8455   -1.3785    3.4225 O   0  0  0  0  0  0  0  0  0  0  0  0
    0.3263   -0.7805    4.6086 C   0  0  2  0  0  0  0  0  0  0  0  0
    1.2945    3.3632    4.1983 H   0  0  0  0  0  0  0  0  0  0  0  0
    1.3369    3.2880    2.4482 H   0  0  0  0  0  0  0  0  0  0  0  0
    2.6073    2.5163    3.3706 H   0  0  0  0  0  0  0  0  0  0  0  0
    1.0187    0.8429    2.4833 H   0  0  0  0  0  0  0  0  0  0  0  0
   -1.0123    2.3956    2.4023 H   0  0  0  0  0  0  0  0  0  0  0  0
   -1.3269    0.7745    2.9665 H   0  0  0  0  0  0  0  0  0  0  0  0
   -2.9525    3.6079    4.2090 H   0  0  0  0  0  0  0  0  0  0  0  0
   -2.5698    4.0643    6.7958 H   0  0  0  0  0  0  0  0  0  0  0  0
   -1.2441    0.6385    7.5531 H   0  0  0  0  0  0  0  0  0  0  0  0
   -2.1159    0.1487    6.0613 H   0  0  0  0  0  0  0  0  0  0  0  0
    4.5452    0.9331    5.2809 H   0  0  0  0  0  0  0  0  0  0  0  0
    1.4002    0.9772    7.0847 H   0  0  0  0  0  0  0  0  0  0  0  0
    4.0607   -0.5426    8.2907 H   0  0  0  0  0  0  0  0  0  0  0  0
    2.8013   -1.5836    8.9503 H   0  0  0  0  0  0  0  0  0  0  0  0
    5.0226   -2.3467    7.4334 H   0  0  0  0  0  0  0  0  0  0  0  0
    3.7751   -3.3811    7.9326 H   0  0  0  0  0  0  0  0  0  0  0  0
    4.1997   -3.4656    5.7967 H   0  0  0  0  0  0  0  0  0  0  0  0
    0.3991   -3.5333    6.5178 H   0  0  0  0  0  0  0  0  0  0  0  0
    1.8572   -3.7526    7.3396 H   0  0  0  0  0  0  0  0  0  0  0  0
    2.7376   -5.0438    4.5917 H   0  0  0  0  0  0  0  0  0  0  0  0
    2.9471   -0.4425    2.3969 H   0  0  0  0  0  0  0  0  0  0  0  0
    4.6613   -0.3351    0.8782 H   0  0  0  0  0  0  0  0  0  0  0  0
    0.9156   -4.4352    2.8880 H   0  0  0  0  0  0  0  0  0  0  0  0
    3.8656   -5.6065    0.5125 H   0  0  0  0  0  0  0  0  0  0  0  0
    2.6258   -4.9640   -0.9952 H   0  0  0  0  0  0  0  0  0  0  0  0
    3.2451   -2.3382   -0.7502 H   0  0  0  0  0  0  0  0  0  0  0  0
    4.5138   -3.4975   -1.1597 H   0  0  0  0  0  0  0  0  0  0  0  0
    4.9332   -1.9866   -0.4142 H   0  0  0  0  0  0  0  0  0  0  0  0
    5.8550   -2.9598    1.4757 H   0  0  0  0  0  0  0  0  0  0  0  0
    5.6732   -0.6592    4.5591 H   0  0  0  0  0  0  0  0  0  0  0  0
    0.0557   -2.9258    4.4662 H   0  0  0  0  0  0  0  0  0  0  0  0
   -0.7568   -0.7432    4.6295 H   0  0  0  0  0  0  0  0  0  0  0  0
  1  2  1  0
  1 43  1  0
  1 44  1  0
  1 45  1  0
  2 12  1  0
  2  3  1  0
  2 46  1  6
  3  4  1  0
  3 47  1  0
  3 48  1  0
  4  9  1  0
  4  5  2  0
  5  6  1  0
  5 49  1  0
  6 10  1  0
  6  7  1  0
  6 50  1  1
  7  8  1  0
  8  9  1  0
  8 51  1  0
  8 52  1  0
  9 10  1  0
  9 11  1  6
 12 11  1  1
 12 42  1  0
 12 13  1  0
 13 14  1  0
 14 38  1  0
 14 15  1  1
 14 16  1  0
 15 53  1  0
 16 23  1  0
 16 17  1  1
 16 18  1  0
 17 54  1  0
 18 19  1  0
 18 55  1  0
 18 56  1  0
 19 20  1  0
 19 57  1  0
 19 58  1  0
 20 38  1  0
 20 21  1  0
 20 59  1  6
 21 22  1  1
 21 24  1  0
 21 40  1  0
 22 23  1  0
 22 60  1  0
 22 61  1  0
 24 31  1  0
 24 25  1  0
 24 62  1  1
 25 26  1  0
 26 29  1  0
 26 27  1  0
 26 38  1  0
 27 28  1  0
 27 29  1  0
 27 63  1  1
 28 64  1  0
 29 35  1  0
 29 30  1  1
 30 31  1  0
 31 32  1  0
 31 65  1  1
 32 33  1  0
 33 34  1  0
 33 35  1  0
 33 66  1  6
 34 67  1  0
 35 36  1  0
 35 37  1  1
 36 68  1  0
 36 69  1  0
 36 70  1  0
 37 71  1  0
 38 39  1  1
 39 72  1  0
 40 42  1  0
 40 41  1  0
 40 73  1  6
 41 42  1  0
 42 74  1  6
M  END
>  <i_m_ct_stereo_status>  (66) 
1

>  <s_m_source_file>  (66) 
/var/tmp/pbs.5076253.sched01/tmp9xbr3gte/40_qt8sgg8.sdf

>  <i_m_source_file_index>  (66) 
17

>  <i_lp_mmshare_version>  (66) 
48012

>  <i_f3d_flags>  (66) 
0

>  <s_epik_input>  (66) 
W0NIMl0xT1tDQEBIXShPMilbQ0hdPUMoW0NAXTEyMylbQ0gyXVtDQEBIXShbQ0gzXSlbQ0BAXTQoTzMpW0NAQEhdNVtDQEBIXShPNSlbQ0BAXTY3W0NIXThDKFtPSF0pKFtDQF0oTzQpKFtPSF0pW0NAXShbT0hdKShbQ0gyXVtDSDJdOClPW0NIMl02KVtDQEBdMTlbQ0BdMihbQ0BASF0xW09IXSlPW0NASF0oW0NASF03TzkpT1tDQEBIXShbT0hdKVtDQF0yKFtDSDNdKVtPSF0=

>  <s_epik_cmdline>  (66) 
J2VwaWtfcHl0aG9uJywgJy1waHQnLCAnMi4wJywgJy1waCcsICc3LjAnLCAnLXRuJywgJzgnLCAnLW1hJywgJzIwMCcsICctaW1hZScsICc8aW5maWxlLm1hZT4nLCAnLW9tYWUnLCAnPG91dGZpbGUubWFlPic=

>  <r_lp_tautomer_probability>  (66) 
1

>  <r_epik_Ionization_Penalty>  (66) 
0.000175812

>  <r_epik_Ionization_Penalty_Charging>  (66) 
0

>  <r_epik_Ionization_Penalty_Neutral>  (66) 
0.000175812

>  <r_epik_State_Penalty>  (66) 
-0

>  <r_epik_Charging_Adjusted_Penalty>  (66) 
0

>  <i_epik_Tot_Q>  (66) 
0

>  <i_epik_Tot_abs_Q>  (66) 
0

>  <s_epik_Chemistry_Notes>  (66) 
This compound contains an acetal/aminal-like group ( X-CH(R)-Y where X, Y are N, S, or O) that may be acid/base labile, releasing an aldehyde.

>  <s_lp_Force_Field>  (66) 
OPLS3e

>  <r_lp_Energy>  (66) 
309.546

>  <b_lp_Chiralities_Consistent>  (66) 
1

>  <s_lp_Variant>  (66) 
40:0-1

>  <s_i_glide_gridfile>  (66) 
pfpi4k_grid

>  <i_i_glide_lignum>  (66) 
17

>  <i_i_glide_rotatable_bonds>  (66) 
6

>  <r_i_docking_score>  (66) 
-3.27371

>  <r_i_glide_ligand_efficiency>  (66) 
-0.0779455

>  <r_i_glide_ligand_efficiency_sa>  (66) 
-0.270941

>  <r_i_glide_ligand_efficiency_ln>  (66) 
-0.690996

>  <r_i_glide_gscore>  (66) 
-3.27371

>  <r_i_glide_lipo>  (66) 
-0.0275452

>  <r_i_glide_hbond>  (66) 
0

>  <r_i_glide_metal>  (66) 
-0

>  <r_i_glide_rewards>  (66) 
-1.12954

>  <r_i_glide_evdw>  (66) 
-29.8088

>  <r_i_glide_ecoul>  (66) 
-3.99927

>  <r_i_glide_erotb>  (66) 
0

>  <r_i_glide_esite>  (66) 
-0.0262905

>  <r_i_glide_emodel>  (66) 
-49.1102

>  <r_i_glide_energy>  (66) 
-33.8081

>  <r_i_glide_einternal>  (66) 
2.32547

>  <r_i_glide_intrahb_reward>  (66) 
-1

>  <i_i_glide_confnum>  (66) 
1

>  <i_i_glide_posenum>  (66) 
12

>  <r_i_glide_eff_state_penalty>  (66) 
0

>  <ligand_id>  (66) 
40

>  <original_smiles>  (66) 
CC1CC2=CC3OCC2(O3)OC12OC1(O)C3(O)CCC4C(CO3)(C3OC5(C(O)C56OC3OC(O)C6(C)O)C41O)C1OC12

>  <smiles>  (66) 
[H]OC1([H])OC2([H])OC3(C([H])(O[H])C34OC2([H])C23C([H])([H])OC5(O[H])C([H])([H])C([H])([H])C2([H])C4(O[H])C5(O[H])OC2(OC45OC([H])(OC4([H])[H])C([H])=C5C([H])([H])C2([H])C([H])([H])[H])C2([H])OC23[H])C1(O[H])C([H])([H])[H]

$$$$
40:1:0
     RDKit          3D

 74 84  0  0  1  0  0  0  0  0999 V2000
    1.1547    3.7929    3.7268 C   0  0  0  0  0  0  0  0  0  0  0  0
    0.6573    2.3928    3.3033 C   0  0  2  0  0  0  0  0  0  0  0  0
   -0.8790    2.3330    3.2823 C   0  0  0  0  0  0  0  0  0  0  0  0
   -1.3746    2.2589    4.6932 C   0  0  0  0  0  0  0  0  0  0  0  0
   -2.4435    2.7393    5.3073 C   0  0  0  0  0  0  0  0  0  0  0  0
   -2.2485    2.3216    6.7567 C   0  0  1  0  0  0  0  0  0  0  0  0
   -2.4763    0.9401    6.8785 O   0  0  0  0  0  0  0  0  0  0  0  0
   -1.3206    0.3571    6.2513 C   0  0  0  0  0  0  0  0  0  0  0  0
   -0.5639    1.6072    5.7690 C   0  0  2  0  0  0  0  0  0  0  0  0
   -0.8716    2.4087    6.8502 O   0  0  0  0  0  0  0  0  0  0  0  0
    0.8221    1.4712    5.5547 O   0  0  0  0  0  0  0  0  0  0  0  0
    1.2712    1.2737    4.2261 C   0  0  2  0  0  0  0  0  0  0  0  0
    2.6592    1.4731    4.0885 O   0  0  0  0  0  0  0  0  0  0  0  0
    3.6764    0.6059    4.6039 C   0  0  1  0  0  0  0  0  0  0  0  0
    4.6321    1.5358    5.0564 O   0  0  0  0  0  0  0  0  0  0  0  0
    3.2295   -0.1173    6.0440 C   0  0  2  0  0  0  0  0  0  0  0  0
    2.7917    0.8541    6.9649 O   0  0  0  0  0  0  0  0  0  0  0  0
    4.4465   -0.7144    6.7188 C   0  0  0  0  0  0  0  0  0  0  0  0
    5.1374   -1.4779    5.6372 C   0  0  0  0  0  0  0  0  0  0  0  0
    4.4023   -1.3846    4.2376 C   0  0  1  0  0  0  0  0  0  0  0  0
    2.9865   -2.0382    3.8479 C   0  0  2  0  0  0  0  0  0  0  0  0
    2.5653   -2.4579    5.2670 C   0  0  0  0  0  0  0  0  0  0  0  0
    2.2789   -1.1902    5.9479 O   0  0  0  0  0  0  0  0  0  0  0  0
    3.3784   -2.9629    2.6030 C   0  0  2  0  0  0  0  0  0  0  0  0
    4.7277   -2.6777    2.2323 O   0  0  0  0  0  0  0  0  0  0  0  0
    4.8574   -1.2279    2.0756 C   0  0  1  0  0  0  0  0  0  0  0  0
    5.6621   -0.6119    0.9359 C   0  0  1  0  0  0  0  0  0  0  0  0
    6.9662   -1.1547    0.9052 O   0  0  0  0  0  0  0  0  0  0  0  0
    4.4992   -1.4383    0.5114 C   0  0  2  0  0  0  0  0  0  0  0  0
    3.0943   -1.3973    0.7375 O   0  0  0  0  0  0  0  0  0  0  0  0
    2.6395   -2.6440    1.2385 C   0  0  1  0  0  0  0  0  0  0  0  0
    2.8602   -3.7140    0.3562 O   0  0  0  0  0  0  0  0  0  0  0  0
    3.4951   -3.3650   -0.8474 C   0  0  1  0  0  0  0  0  0  0  0  0
    2.6165   -2.6652   -1.7098 O   0  0  0  0  0  0  0  0  0  0  0  0
    4.7820   -2.5494   -0.5428 C   0  0  1  0  0  0  0  0  0  0  0  0
    5.3269   -1.9809   -1.8779 C   0  0  0  0  0  0  0  0  0  0  0  0
    5.8228   -3.4378   -0.1684 O   0  0  0  0  0  0  0  0  0  0  0  0
    4.6418   -0.1570    3.3975 C   0  0  2  0  0  0  0  0  0  0  0  0
    3.9120    0.4885    2.3798 O   0  0  0  0  0  0  0  0  0  0  0  0
    1.6176   -1.3773    3.4368 C   0  0  2  0  0  0  0  0  0  0  0  0
    1.4133   -0.3749    2.4568 O   0  0  0  0  0  0  0  0  0  0  0  0
    0.8651   -0.1102    3.7608 C   0  0  2  0  0  0  0  0  0  0  0  0
    0.8722    4.0444    4.7481 H   0  0  0  0  0  0  0  0  0  0  0  0
    0.7210    4.5480    3.0739 H   0  0  0  0  0  0  0  0  0  0  0  0
    2.2361    3.8855    3.6394 H   0  0  0  0  0  0  0  0  0  0  0  0
    1.0181    2.2092    2.2902 H   0  0  0  0  0  0  0  0  0  0  0  0
   -1.3120    3.1856    2.7648 H   0  0  0  0  0  0  0  0  0  0  0  0
   -1.2170    1.4484    2.7507 H   0  0  0  0  0  0  0  0  0  0  0  0
   -3.2835    3.2873    4.9110 H   0  0  0  0  0  0  0  0  0  0  0  0
   -2.7978    2.9336    7.4789 H   0  0  0  0  0  0  0  0  0  0  0  0
   -0.7298   -0.1750    6.9990 H   0  0  0  0  0  0  0  0  0  0  0  0
   -1.6026   -0.3176    5.4404 H   0  0  0  0  0  0  0  0  0  0  0  0
    4.8886    2.0585    4.3136 H   0  0  0  0  0  0  0  0  0  0  0  0
    2.1101    1.3542    6.5245 H   0  0  0  0  0  0  0  0  0  0  0  0
    5.1024    0.0651    7.1100 H   0  0  0  0  0  0  0  0  0  0  0  0
    4.1464   -1.3485    7.5550 H   0  0  0  0  0  0  0  0  0  0  0  0
    6.1367   -1.0536    5.5403 H   0  0  0  0  0  0  0  0  0  0  0  0
    5.3071   -2.5019    5.9879 H   0  0  0  0  0  0  0  0  0  0  0  0
    5.2075   -2.1005    4.1063 H   0  0  0  0  0  0  0  0  0  0  0  0
    1.6403   -3.0340    5.2659 H   0  0  0  0  0  0  0  0  0  0  0  0
    3.2656   -3.0981    5.8021 H   0  0  0  0  0  0  0  0  0  0  0  0
    3.2370   -4.0165    2.8357 H   0  0  0  0  0  0  0  0  0  0  0  0
    5.6676    0.4542    0.7264 H   0  0  0  0  0  0  0  0  0  0  0  0
    7.5400   -0.5069    1.2921 H   0  0  0  0  0  0  0  0  0  0  0  0
    1.5619   -2.5949    1.3286 H   0  0  0  0  0  0  0  0  0  0  0  0
    3.7587   -4.2780   -1.3878 H   0  0  0  0  0  0  0  0  0  0  0  0
    2.1329   -1.9970   -1.2023 H   0  0  0  0  0  0  0  0  0  0  0  0
    4.6755   -1.2256   -2.3156 H   0  0  0  0  0  0  0  0  0  0  0  0
    5.4632   -2.7746   -2.6179 H   0  0  0  0  0  0  0  0  0  0  0  0
    6.3033   -1.5203   -1.7365 H   0  0  0  0  0  0  0  0  0  0  0  0
    6.5357   -2.9118    0.1732 H   0  0  0  0  0  0  0  0  0  0  0  0
    4.0436    1.4291    2.4379 H   0  0  0  0  0  0  0  0  0  0  0  0
    0.8907   -2.1799    3.3393 H   0  0  0  0  0  0  0  0  0  0  0  0
   -0.2021   -0.2788    3.8000 H   0  0  0  0  0  0  0  0  0  0  0  0
  1  2  1  0
  1 43  1  0
  1 44  1  0
  1 45  1  0
  2 12  1  0
  2  3  1  0
  2 46  1  6
  3  4  1  0
  3 47  1  0
  3 48  1  0
  4  9  1  0
  4  5  2  0
  5  6  1  0
  5 49  1  0
  6 10  1  0
  6  7  1  0
  6 50  1  1
  7  8  1  0
  8  9  1  0
  8 51  1  0
  8 52  1  0
  9 10  1  0
  9 11  1  6
 12 11  1  1
 12 42  1  0
 12 13  1  0
 13 14  1  0
 14 38  1  0
 14 15  1  1
 14 16  1  0
 15 53  1  0
 16 23  1  0
 16 17  1  1
 16 18  1  0
 17 54  1  0
 18 19  1  0
 18 55  1  0
 18 56  1  0
 19 20  1  0
 19 57  1  0
 19 58  1  0
 20 38  1  0
 20 21  1  0
 20 59  1  6
 21 22  1  1
 21 24  1  0
 21 40  1  0
 22 23  1  0
 22 60  1  0
 22 61  1  0
 24 31  1  0
 24 25  1  0
 24 62  1  1
 26 25  1  1
 26 29  1  0
 26 27  1  0
 26 38  1  0
 27 28  1  0
 27 29  1  0
 27 63  1  1
 28 64  1  0
 29 35  1  0
 29 30  1  1
 30 31  1  0
 31 32  1  0
 31 65  1  1
 32 33  1  0
 33 34  1  0
 33 35  1  0
 33 66  1  6
 34 67  1  0
 35 36  1  0
 35 37  1  1
 36 68  1  0
 36 69  1  0
 36 70  1  0
 37 71  1  0
 38 39  1  1
 39 72  1  0
 40 42  1  0
 40 41  1  0
 40 73  1  6
 41 42  1  0
 42 74  1  6
M  END
>  <i_m_ct_stereo_status>  (67) 
1

>  <s_m_source_file>  (67) 
/var/tmp/pbs.5076253.sched01/tmp9xbr3gte/40_qt8sgg8.sdf

>  <i_m_source_file_index>  (67) 
18

>  <i_lp_mmshare_version>  (67) 
48012

>  <i_f3d_flags>  (67) 
0

>  <s_epik_input>  (67) 
W0NIMl0xT1tDQEBIXShPMilbQ0hdPUMoW0NAXTEyMylbQ0gyXVtDQEBIXShbQ0gzXSlbQ0BAXTQoTzMpW0NAQEhdNVtDQEBIXShPNSlbQ0BAXTY3W0NIXThDKFtPSF0pKFtDQF0oTzQpKFtPSF0pW0NAXShbT0hdKShbQ0gyXVtDSDJdOClPW0NIMl02KVtDQEBdMTlbQ0BdMihbQ0BASF0xW09IXSlPW0NASF0oW0NASF03TzkpT1tDQEBIXShbT0hdKVtDQF0yKFtDSDNdKVtPSF0=

>  <s_epik_cmdline>  (67) 
J2VwaWtfcHl0aG9uJywgJy1waHQnLCAnMi4wJywgJy1waCcsICc3LjAnLCAnLXRuJywgJzgnLCAnLW1hJywgJzIwMCcsICctaW1hZScsICc8aW5maWxlLm1hZT4nLCAnLW9tYWUnLCAnPG91dGZpbGUubWFlPic=

>  <r_lp_tautomer_probability>  (67) 
1

>  <r_epik_Ionization_Penalty>  (67) 
0.000175812

>  <r_epik_Ionization_Penalty_Charging>  (67) 
0

>  <r_epik_Ionization_Penalty_Neutral>  (67) 
0.000175812

>  <r_epik_State_Penalty>  (67) 
-0

>  <r_epik_Charging_Adjusted_Penalty>  (67) 
0

>  <i_epik_Tot_Q>  (67) 
0

>  <i_epik_Tot_abs_Q>  (67) 
0

>  <s_epik_Chemistry_Notes>  (67) 
This compound contains an acetal/aminal-like group ( X-CH(R)-Y where X, Y are N, S, or O) that may be acid/base labile, releasing an aldehyde.

>  <s_lp_Force_Field>  (67) 
OPLS3e

>  <r_lp_Energy>  (67) 
405.285

>  <b_lp_Chiralities_Consistent>  (67) 
1

>  <s_lp_Variant>  (67) 
40:0-2

>  <s_i_glide_gridfile>  (67) 
pfpi4k_grid

>  <i_i_glide_lignum>  (67) 
18

>  <i_i_glide_rotatable_bonds>  (67) 
6

>  <r_i_docking_score>  (67) 
-4.89456

>  <r_i_glide_ligand_efficiency>  (67) 
-0.116537

>  <r_i_glide_ligand_efficiency_sa>  (67) 
-0.405087

>  <r_i_glide_ligand_efficiency_ln>  (67) 
-1.03312

>  <r_i_glide_gscore>  (67) 
-4.89456

>  <r_i_glide_lipo>  (67) 
-0.304033

>  <r_i_glide_hbond>  (67) 
-0.145791

>  <r_i_glide_metal>  (67) 
-0

>  <r_i_glide_rewards>  (67) 
-1.15489

>  <r_i_glide_evdw>  (67) 
-31.9617

>  <r_i_glide_ecoul>  (67) 
-10.9638

>  <r_i_glide_erotb>  (67) 
0

>  <r_i_glide_esite>  (67) 
-0.0471855

>  <r_i_glide_emodel>  (67) 
-64.3721

>  <r_i_glide_energy>  (67) 
-42.9256

>  <r_i_glide_einternal>  (67) 
1.66789

>  <r_i_glide_intrahb_reward>  (67) 
-1

>  <i_i_glide_confnum>  (67) 
1

>  <i_i_glide_posenum>  (67) 
1

>  <r_i_glide_eff_state_penalty>  (67) 
0

>  <ligand_id>  (67) 
40

>  <original_smiles>  (67) 
CC1CC2=CC3OCC2(O3)OC12OC1(O)C3(O)CCC4C(CO3)(C3OC5(C(O)C56OC3OC(O)C6(C)O)C41O)C1OC12

>  <smiles>  (67) 
[H]OC1([H])OC2([H])OC3(C([H])(O[H])C34OC2([H])C23C([H])([H])OC5(O[H])C([H])([H])C([H])([H])C2([H])C4(O[H])C5(O[H])OC2(OC45OC([H])(OC4([H])[H])C([H])=C5C([H])([H])C2([H])C([H])([H])[H])C2([H])OC23[H])C1(O[H])C([H])([H])[H]

$$$$
40:1:1
     RDKit          3D

 74 84  0  0  1  0  0  0  0  0999 V2000
    1.5320    3.6260    3.9424 C   0  0  0  0  0  0  0  0  0  0  0  0
    0.9463    2.3004    3.4134 C   0  0  2  0  0  0  0  0  0  0  0  0
   -0.5916    2.3436    3.3769 C   0  0  0  0  0  0  0  0  0  0  0  0
   -1.1157    2.1819    4.7734 C   0  0  0  0  0  0  0  0  0  0  0  0
   -2.1612    2.6672    5.4145 C   0  0  0  0  0  0  0  0  0  0  0  0
   -2.0023    2.1393    6.8347 C   0  0  1  0  0  0  0  0  0  0  0  0
   -2.3125    0.7669    6.8658 O   0  0  0  0  0  0  0  0  0  0  0  0
   -1.1881    0.1741    6.1818 C   0  0  0  0  0  0  0  0  0  0  0  0
   -0.3444    1.4078    5.7979 C   0  0  2  0  0  0  0  0  0  0  0  0
   -0.6178    2.1473    6.9264 O   0  0  0  0  0  0  0  0  0  0  0  0
    1.0341    1.1990    5.5931 O   0  0  0  0  0  0  0  0  0  0  0  0
    1.4851    1.0738    4.2520 C   0  0  2  0  0  0  0  0  0  0  0  0
    2.8858    1.1759    4.1197 O   0  0  0  0  0  0  0  0  0  0  0  0
    3.8432    0.2229    4.5952 C   0  0  1  0  0  0  0  0  0  0  0  0
    4.8792    1.0343    5.1232 O   0  0  0  0  0  0  0  0  0  0  0  0
    3.3215   -0.5850    5.9626 C   0  0  2  0  0  0  0  0  0  0  0  0
    2.9350    0.3511    6.9544 O   0  0  0  0  0  0  0  0  0  0  0  0
    4.4837   -1.3116    6.6032 C   0  0  0  0  0  0  0  0  0  0  0  0
    5.1319   -2.0384    5.4708 C   0  0  0  0  0  0  0  0  0  0  0  0
    4.4205   -1.8005    4.0817 C   0  0  1  0  0  0  0  0  0  0  0  0
    2.9731   -2.3188    3.6310 C   0  0  2  0  0  0  0  0  0  0  0  0
    2.5095   -2.8119    5.0091 C   0  0  0  0  0  0  0  0  0  0  0  0
    2.2935   -1.5730    5.7738 O   0  0  0  0  0  0  0  0  0  0  0  0
    3.3176   -3.1643    2.3155 C   0  0  2  0  0  0  0  0  0  0  0  0
    4.6888   -2.9348    1.9847 O   0  0  0  0  0  0  0  0  0  0  0  0
    4.9098   -1.4934    1.9375 C   0  0  1  0  0  0  0  0  0  0  0  0
    5.7742   -0.8344    0.8563 C   0  0  1  0  0  0  0  0  0  0  0  0
    7.0485   -1.4479    0.8383 O   0  0  0  0  0  0  0  0  0  0  0  0
    4.5768   -1.5654    0.3594 C   0  0  2  0  0  0  0  0  0  0  0  0
    3.1769   -1.4456    0.5622 O   0  0  0  0  0  0  0  0  0  0  0  0
    2.6220   -2.6850    0.9752 C   0  0  1  0  0  0  0  0  0  0  0  0
    2.7704   -3.7055    0.0264 O   0  0  0  0  0  0  0  0  0  0  0  0
    3.4414   -3.3230   -1.1388 C   0  0  1  0  0  0  0  0  0  0  0  0
    2.6183   -2.5208   -1.9687 O   0  0  0  0  0  0  0  0  0  0  0  0
    4.7753   -2.6162   -0.7758 C   0  0  1  0  0  0  0  0  0  0  0  0
    5.3630   -1.9787   -2.0575 C   0  0  0  0  0  0  0  0  0  0  0  0
    5.7301   -3.6225   -0.4761 O   0  0  0  0  0  0  0  0  0  0  0  0
    4.7477   -0.5325    3.3392 C   0  0  2  0  0  0  0  0  0  0  0  0
    4.0504    0.1832    2.3449 O   0  0  0  0  0  0  0  0  0  0  0  0
    1.6687   -1.5284    3.2646 C   0  0  2  0  0  0  0  0  0  0  0  0
    1.5723   -0.4349    2.3667 O   0  0  0  0  0  0  0  0  0  0  0  0
    0.9959   -0.2370    3.6815 C   0  0  2  0  0  0  0  0  0  0  0  0
    1.2562    3.8208    4.9797 H   0  0  0  0  0  0  0  0  0  0  0  0
    1.1566    4.4519    3.3438 H   0  0  0  0  0  0  0  0  0  0  0  0
    2.6195    3.6493    3.8697 H   0  0  0  0  0  0  0  0  0  0  0  0
    1.3084    2.1703    2.3866 H   0  0  0  0  0  0  0  0  0  0  0  0
   -0.9583    3.2616    2.9270 H   0  0  0  0  0  0  0  0  0  0  0  0
   -0.9738    1.5282    2.7744 H   0  0  0  0  0  0  0  0  0  0  0  0
   -2.9529    3.3105    5.0553 H   0  0  0  0  0  0  0  0  0  0  0  0
   -2.5109    2.7434    7.5886 H   0  0  0  0  0  0  0  0  0  0  0  0
   -0.6394   -0.4510    6.8866 H   0  0  0  0  0  0  0  0  0  0  0  0
   -1.5068   -0.4175    5.3199 H   0  0  0  0  0  0  0  0  0  0  0  0
    5.5369    0.4628    5.4792 H   0  0  0  0  0  0  0  0  0  0  0  0
    2.2890    0.9212    6.5554 H   0  0  0  0  0  0  0  0  0  0  0  0
    5.1835   -0.6122    7.0644 H   0  0  0  0  0  0  0  0  0  0  0  0
    4.1270   -1.9801    7.3857 H   0  0  0  0  0  0  0  0  0  0  0  0
    6.1636   -1.6671    5.4255 H   0  0  0  0  0  0  0  0  0  0  0  0
    5.2336   -3.0912    5.7446 H   0  0  0  0  0  0  0  0  0  0  0  0
    5.1857   -2.5458    3.8952 H   0  0  0  0  0  0  0  0  0  0  0  0
    1.5479   -3.3185    4.9571 H   0  0  0  0  0  0  0  0  0  0  0  0
    3.1585   -3.5364    5.5009 H   0  0  0  0  0  0  0  0  0  0  0  0
    3.1037   -4.2214    2.4660 H   0  0  0  0  0  0  0  0  0  0  0  0
    5.8444    0.2469    0.7284 H   0  0  0  0  0  0  0  0  0  0  0  0
    7.6460   -0.9027    1.3154 H   0  0  0  0  0  0  0  0  0  0  0  0
    1.5500   -2.5570    1.0657 H   0  0  0  0  0  0  0  0  0  0  0  0
    3.6459   -4.2045   -1.7425 H   0  0  0  0  0  0  0  0  0  0  0  0
    2.1269   -1.9055   -1.4356 H   0  0  0  0  0  0  0  0  0  0  0  0
    4.7720   -1.1453   -2.4455 H   0  0  0  0  0  0  0  0  0  0  0  0
    5.4579   -2.7145   -2.8620 H   0  0  0  0  0  0  0  0  0  0  0  0
    6.3682   -1.6017   -1.8772 H   0  0  0  0  0  0  0  0  0  0  0  0
    5.6625   -4.2961   -1.1316 H   0  0  0  0  0  0  0  0  0  0  0  0
    3.1257   -0.0673    2.3296 H   0  0  0  0  0  0  0  0  0  0  0  0
    0.8845   -2.2534    3.0872 H   0  0  0  0  0  0  0  0  0  0  0  0
   -0.0794   -0.3388    3.6737 H   0  0  0  0  0  0  0  0  0  0  0  0
  1  2  1  0
  1 43  1  0
  1 44  1  0
  1 45  1  0
  2 12  1  0
  2  3  1  0
  2 46  1  6
  3  4  1  0
  3 47  1  0
  3 48  1  0
  4  9  1  0
  4  5  2  0
  5  6  1  0
  5 49  1  0
  6 10  1  0
  6  7  1  0
  6 50  1  1
  7  8  1  0
  8  9  1  0
  8 51  1  0
  8 52  1  0
  9 10  1  0
  9 11  1  6
 12 11  1  1
 12 42  1  0
 12 13  1  0
 13 14  1  0
 14 38  1  0
 14 15  1  1
 14 16  1  0
 15 53  1  0
 16 23  1  0
 16 17  1  1
 16 18  1  0
 17 54  1  0
 18 19  1  0
 18 55  1  0
 18 56  1  0
 19 20  1  0
 19 57  1  0
 19 58  1  0
 20 38  1  0
 20 21  1  0
 20 59  1  6
 21 22  1  1
 21 24  1  0
 21 40  1  0
 22 23  1  0
 22 60  1  0
 22 61  1  0
 24 31  1  0
 24 25  1  0
 24 62  1  1
 26 25  1  1
 26 29  1  0
 26 27  1  0
 26 38  1  0
 27 28  1  0
 27 29  1  0
 27 63  1  1
 28 64  1  0
 29 35  1  0
 29 30  1  1
 30 31  1  0
 31 32  1  0
 31 65  1  1
 32 33  1  0
 33 34  1  0
 33 35  1  0
 33 66  1  6
 34 67  1  0
 35 36  1  0
 35 37  1  1
 36 68  1  0
 36 69  1  0
 36 70  1  0
 37 71  1  0
 38 39  1  1
 39 72  1  0
 40 42  1  0
 40 41  1  0
 40 73  1  6
 41 42  1  0
 42 74  1  6
M  END
>  <i_m_ct_stereo_status>  (68) 
1

>  <s_m_source_file>  (68) 
/var/tmp/pbs.5076253.sched01/tmp9xbr3gte/40_qt8sgg8.sdf

>  <i_m_source_file_index>  (68) 
18

>  <i_lp_mmshare_version>  (68) 
48012

>  <i_f3d_flags>  (68) 
0

>  <s_epik_input>  (68) 
W0NIMl0xT1tDQEBIXShPMilbQ0hdPUMoW0NAXTEyMylbQ0gyXVtDQEBIXShbQ0gzXSlbQ0BAXTQoTzMpW0NAQEhdNVtDQEBIXShPNSlbQ0BAXTY3W0NIXThDKFtPSF0pKFtDQF0oTzQpKFtPSF0pW0NAXShbT0hdKShbQ0gyXVtDSDJdOClPW0NIMl02KVtDQEBdMTlbQ0BdMihbQ0BASF0xW09IXSlPW0NASF0oW0NASF03TzkpT1tDQEBIXShbT0hdKVtDQF0yKFtDSDNdKVtPSF0=

>  <s_epik_cmdline>  (68) 
J2VwaWtfcHl0aG9uJywgJy1waHQnLCAnMi4wJywgJy1waCcsICc3LjAnLCAnLXRuJywgJzgnLCAnLW1hJywgJzIwMCcsICctaW1hZScsICc8aW5maWxlLm1hZT4nLCAnLW9tYWUnLCAnPG91dGZpbGUubWFlPic=

>  <r_lp_tautomer_probability>  (68) 
1

>  <r_epik_Ionization_Penalty>  (68) 
0.000175812

>  <r_epik_Ionization_Penalty_Charging>  (68) 
0

>  <r_epik_Ionization_Penalty_Neutral>  (68) 
0.000175812

>  <r_epik_State_Penalty>  (68) 
-0

>  <r_epik_Charging_Adjusted_Penalty>  (68) 
0

>  <i_epik_Tot_Q>  (68) 
0

>  <i_epik_Tot_abs_Q>  (68) 
0

>  <s_epik_Chemistry_Notes>  (68) 
This compound contains an acetal/aminal-like group ( X-CH(R)-Y where X, Y are N, S, or O) that may be acid/base labile, releasing an aldehyde.

>  <s_lp_Force_Field>  (68) 
OPLS3e

>  <r_lp_Energy>  (68) 
405.285

>  <b_lp_Chiralities_Consistent>  (68) 
1

>  <s_lp_Variant>  (68) 
40:0-2

>  <s_i_glide_gridfile>  (68) 
pfpi4k_grid

>  <i_i_glide_lignum>  (68) 
18

>  <i_i_glide_rotatable_bonds>  (68) 
6

>  <r_i_docking_score>  (68) 
-4.63643

>  <r_i_glide_ligand_efficiency>  (68) 
-0.110391

>  <r_i_glide_ligand_efficiency_sa>  (68) 
-0.383723

>  <r_i_glide_ligand_efficiency_ln>  (68) 
-0.978631

>  <r_i_glide_gscore>  (68) 
-4.63643

>  <r_i_glide_lipo>  (68) 
-0.367682

>  <r_i_glide_hbond>  (68) 
-0.16

>  <r_i_glide_metal>  (68) 
-0

>  <r_i_glide_rewards>  (68) 
-1.08559

>  <r_i_glide_evdw>  (68) 
-33.0687

>  <r_i_glide_ecoul>  (68) 
-8.71713

>  <r_i_glide_erotb>  (68) 
0

>  <r_i_glide_esite>  (68) 
-0.0621526

>  <r_i_glide_emodel>  (68) 
-61.864

>  <r_i_glide_energy>  (68) 
-41.7858

>  <r_i_glide_einternal>  (68) 
3.1078

>  <r_i_glide_intrahb_reward>  (68) 
-1

>  <i_i_glide_confnum>  (68) 
2

>  <i_i_glide_posenum>  (68) 
5

>  <r_i_glide_eff_state_penalty>  (68) 
0

>  <ligand_id>  (68) 
40

>  <original_smiles>  (68) 
CC1CC2=CC3OCC2(O3)OC12OC1(O)C3(O)CCC4C(CO3)(C3OC5(C(O)C56OC3OC(O)C6(C)O)C41O)C1OC12

>  <smiles>  (68) 
[H]OC1([H])OC2([H])OC3(C([H])(O[H])C34OC2([H])C23C([H])([H])OC5(O[H])C([H])([H])C([H])([H])C2([H])C4(O[H])C5(O[H])OC2(OC45OC([H])(OC4([H])[H])C([H])=C5C([H])([H])C2([H])C([H])([H])[H])C2([H])OC23[H])C1(O[H])C([H])([H])[H]

$$$$
40:1:2
     RDKit          3D

 74 84  0  0  1  0  0  0  0  0999 V2000
    1.5189    3.4347    3.5870 C   0  0  0  0  0  0  0  0  0  0  0  0
    1.0004    2.0701    3.1000 C   0  0  2  0  0  0  0  0  0  0  0  0
   -0.5291    2.0503    3.0268 C   0  0  0  0  0  0  0  0  0  0  0  0
   -1.0817    1.9439    4.4075 C   0  0  0  0  0  0  0  0  0  0  0  0
   -2.1599    2.4358    4.9814 C   0  0  0  0  0  0  0  0  0  0  0  0
   -2.0381    1.9939    6.4350 C   0  0  1  0  0  0  0  0  0  0  0  0
   -2.2933    0.6125    6.5219 O   0  0  0  0  0  0  0  0  0  0  0  0
   -1.1262    0.0172    5.9211 C   0  0  0  0  0  0  0  0  0  0  0  0
   -0.3207    1.2628    5.5029 C   0  0  2  0  0  0  0  0  0  0  0  0
   -0.6602    2.0392    6.5930 O   0  0  0  0  0  0  0  0  0  0  0  0
    1.0663    1.1059    5.3357 O   0  0  0  0  0  0  0  0  0  0  0  0
    1.5526    0.9196    4.0190 C   0  0  2  0  0  0  0  0  0  0  0  0
    2.9563    1.0712    3.9192 O   0  0  0  0  0  0  0  0  0  0  0  0
    3.9240    0.1731    4.4918 C   0  0  1  0  0  0  0  0  0  0  0  0
    4.8831    1.0665    5.0174 O   0  0  0  0  0  0  0  0  0  0  0  0
    3.3641   -0.5714    5.8945 C   0  0  2  0  0  0  0  0  0  0  0  0
    2.9105    0.3951    6.8176 O   0  0  0  0  0  0  0  0  0  0  0  0
    4.5080   -1.2268    6.6286 C   0  0  0  0  0  0  0  0  0  0  0  0
    5.2126   -1.9938    5.5684 C   0  0  0  0  0  0  0  0  0  0  0  0
    4.5786   -1.8348    4.1259 C   0  0  1  0  0  0  0  0  0  0  0  0
    3.1804   -2.4322    3.6446 C   0  0  2  0  0  0  0  0  0  0  0  0
    2.6787   -2.8789    5.0317 C   0  0  0  0  0  0  0  0  0  0  0  0
    2.3904   -1.6149    5.7292 O   0  0  0  0  0  0  0  0  0  0  0  0
    3.6024   -3.3345    2.3934 C   0  0  2  0  0  0  0  0  0  0  0  0
    4.9859   -3.0840    2.1071 O   0  0  0  0  0  0  0  0  0  0  0  0
    5.1717   -1.6394    1.9838 C   0  0  1  0  0  0  0  0  0  0  0  0
    6.0020   -1.0089    0.8512 C   0  0  1  0  0  0  0  0  0  0  0  0
    7.2839   -1.5884    0.8716 O   0  0  0  0  0  0  0  0  0  0  0  0
    4.8332   -1.8103    0.4084 C   0  0  2  0  0  0  0  0  0  0  0  0
    3.4327   -1.7136    0.5606 O   0  0  0  0  0  0  0  0  0  0  0  0
    2.9224   -2.9598    1.0079 C   0  0  1  0  0  0  0  0  0  0  0  0
    3.1243   -4.0220    0.1062 O   0  0  0  0  0  0  0  0  0  0  0  0
    3.8558   -3.7072   -1.0462 C   0  0  1  0  0  0  0  0  0  0  0  0
    3.0430   -3.0083   -1.9711 O   0  0  0  0  0  0  0  0  0  0  0  0
    5.1328   -2.9054   -0.6590 C   0  0  1  0  0  0  0  0  0  0  0  0
    5.7483   -2.3271   -1.9484 C   0  0  0  0  0  0  0  0  0  0  0  0
    6.1466   -3.8180   -0.2708 O   0  0  0  0  0  0  0  0  0  0  0  0
    4.9335   -0.5957    3.3255 C   0  0  2  0  0  0  0  0  0  0  0  0
    4.3034    0.1250    2.2872 O   0  0  0  0  0  0  0  0  0  0  0  0
    1.8474   -1.7240    3.1892 C   0  0  2  0  0  0  0  0  0  0  0  0
    1.7353   -0.6856    2.2333 O   0  0  0  0  0  0  0  0  0  0  0  0
    1.1276   -0.4393    3.5173 C   0  0  2  0  0  0  0  0  0  0  0  0
    1.1962    3.6722    4.6000 H   0  0  0  0  0  0  0  0  0  0  0  0
    1.1323    4.2104    2.9354 H   0  0  0  0  0  0  0  0  0  0  0  0
    2.6055    3.4966    3.5519 H   0  0  0  0  0  0  0  0  0  0  0  0
    1.3916    1.8953    2.0950 H   0  0  0  0  0  0  0  0  0  0  0  0
   -0.9272    2.9269    2.5295 H   0  0  0  0  0  0  0  0  0  0  0  0
   -0.8779    1.1990    2.4635 H   0  0  0  0  0  0  0  0  0  0  0  0
   -2.9559    3.0275    4.5555 H   0  0  0  0  0  0  0  0  0  0  0  0
   -2.6192    2.6095    7.1254 H   0  0  0  0  0  0  0  0  0  0  0  0
   -0.5942   -0.5548    6.6893 H   0  0  0  0  0  0  0  0  0  0  0  0
   -1.4145   -0.6264    5.0825 H   0  0  0  0  0  0  0  0  0  0  0  0
    5.1995    1.6081    4.3100 H   0  0  0  0  0  0  0  0  0  0  0  0
    2.2581    0.9183    6.3624 H   0  0  0  0  0  0  0  0  0  0  0  0
    5.1840   -0.4725    7.0336 H   0  0  0  0  0  0  0  0  0  0  0  0
    4.1586   -1.8585    7.4503 H   0  0  0  0  0  0  0  0  0  0  0  0
    6.1942   -1.5377    5.5455 H   0  0  0  0  0  0  0  0  0  0  0  0
    5.3610   -3.0358    5.8845 H   0  0  0  0  0  0  0  0  0  0  0  0
    5.3731   -2.5637    4.0125 H   0  0  0  0  0  0  0  0  0  0  0  0
    1.7494   -3.4425    4.9798 H   0  0  0  0  0  0  0  0  0  0  0  0
    3.3363   -3.5533    5.5833 H   0  0  0  0  0  0  0  0  0  0  0  0
    3.4276   -4.3909    2.5938 H   0  0  0  0  0  0  0  0  0  0  0  0
    6.0401    0.0609    0.6646 H   0  0  0  0  0  0  0  0  0  0  0  0
    7.8549   -0.9943    1.3392 H   0  0  0  0  0  0  0  0  0  0  0  0
    1.8444   -2.8783    1.0662 H   0  0  0  0  0  0  0  0  0  0  0  0
    4.1628   -4.6318   -1.5522 H   0  0  0  0  0  0  0  0  0  0  0  0
    2.3451   -3.5899   -2.2406 H   0  0  0  0  0  0  0  0  0  0  0  0
    5.1236   -1.5485   -2.3890 H   0  0  0  0  0  0  0  0  0  0  0  0
    5.8885   -3.1192   -2.6987 H   0  0  0  0  0  0  0  0  0  0  0  0
    6.7368   -1.9017   -1.7577 H   0  0  0  0  0  0  0  0  0  0  0  0
    6.8713   -3.3170    0.0915 H   0  0  0  0  0  0  0  0  0  0  0  0
    3.9830    0.9749    2.6207 H   0  0  0  0  0  0  0  0  0  0  0  0
    1.0955   -2.4991    3.0504 H   0  0  0  0  0  0  0  0  0  0  0  0
    0.0513   -0.5888    3.5206 H   0  0  0  0  0  0  0  0  0  0  0  0
  1  2  1  0
  1 43  1  0
  1 44  1  0
  1 45  1  0
  2 12  1  0
  2  3  1  0
  2 46  1  6
  3  4  1  0
  3 47  1  0
  3 48  1  0
  4  9  1  0
  4  5  2  0
  5  6  1  0
  5 49  1  0
  6 10  1  0
  6  7  1  0
  6 50  1  1
  7  8  1  0
  8  9  1  0
  8 51  1  0
  8 52  1  0
  9 10  1  0
  9 11  1  6
 12 11  1  1
 12 42  1  0
 12 13  1  0
 13 14  1  0
 14 38  1  0
 14 15  1  1
 14 16  1  0
 15 53  1  0
 16 23  1  0
 16 17  1  1
 16 18  1  0
 17 54  1  0
 18 19  1  0
 18 55  1  0
 18 56  1  0
 19 20  1  0
 19 57  1  0
 19 58  1  0
 20 38  1  0
 20 21  1  0
 20 59  1  6
 21 22  1  1
 21 24  1  0
 21 40  1  0
 22 23  1  0
 22 60  1  0
 22 61  1  0
 24 31  1  0
 24 25  1  0
 24 62  1  1
 26 25  1  1
 26 29  1  0
 26 27  1  0
 26 38  1  0
 27 28  1  0
 27 29  1  0
 27 63  1  1
 28 64  1  0
 29 35  1  0
 29 30  1  1
 30 31  1  0
 31 32  1  0
 31 65  1  1
 32 33  1  0
 33 34  1  0
 33 35  1  0
 33 66  1  6
 34 67  1  0
 35 36  1  0
 35 37  1  1
 36 68  1  0
 36 69  1  0
 36 70  1  0
 37 71  1  0
 38 39  1  1
 39 72  1  0
 40 42  1  0
 40 41  1  0
 40 73  1  6
 41 42  1  0
 42 74  1  6
M  END
>  <i_m_ct_stereo_status>  (69) 
1

>  <s_m_source_file>  (69) 
/var/tmp/pbs.5076253.sched01/tmp9xbr3gte/40_qt8sgg8.sdf

>  <i_m_source_file_index>  (69) 
18

>  <i_lp_mmshare_version>  (69) 
48012

>  <i_f3d_flags>  (69) 
0

>  <s_epik_input>  (69) 
W0NIMl0xT1tDQEBIXShPMilbQ0hdPUMoW0NAXTEyMylbQ0gyXVtDQEBIXShbQ0gzXSlbQ0BAXTQoTzMpW0NAQEhdNVtDQEBIXShPNSlbQ0BAXTY3W0NIXThDKFtPSF0pKFtDQF0oTzQpKFtPSF0pW0NAXShbT0hdKShbQ0gyXVtDSDJdOClPW0NIMl02KVtDQEBdMTlbQ0BdMihbQ0BASF0xW09IXSlPW0NASF0oW0NASF03TzkpT1tDQEBIXShbT0hdKVtDQF0yKFtDSDNdKVtPSF0=

>  <s_epik_cmdline>  (69) 
J2VwaWtfcHl0aG9uJywgJy1waHQnLCAnMi4wJywgJy1waCcsICc3LjAnLCAnLXRuJywgJzgnLCAnLW1hJywgJzIwMCcsICctaW1hZScsICc8aW5maWxlLm1hZT4nLCAnLW9tYWUnLCAnPG91dGZpbGUubWFlPic=

>  <r_lp_tautomer_probability>  (69) 
1

>  <r_epik_Ionization_Penalty>  (69) 
0.000175812

>  <r_epik_Ionization_Penalty_Charging>  (69) 
0

>  <r_epik_Ionization_Penalty_Neutral>  (69) 
0.000175812

>  <r_epik_State_Penalty>  (69) 
-0

>  <r_epik_Charging_Adjusted_Penalty>  (69) 
0

>  <i_epik_Tot_Q>  (69) 
0

>  <i_epik_Tot_abs_Q>  (69) 
0

>  <s_epik_Chemistry_Notes>  (69) 
This compound contains an acetal/aminal-like group ( X-CH(R)-Y where X, Y are N, S, or O) that may be acid/base labile, releasing an aldehyde.

>  <s_lp_Force_Field>  (69) 
OPLS3e

>  <r_lp_Energy>  (69) 
405.285

>  <b_lp_Chiralities_Consistent>  (69) 
1

>  <s_lp_Variant>  (69) 
40:0-2

>  <s_i_glide_gridfile>  (69) 
pfpi4k_grid

>  <i_i_glide_lignum>  (69) 
18

>  <i_i_glide_rotatable_bonds>  (69) 
6

>  <r_i_docking_score>  (69) 
-4.41852

>  <r_i_glide_ligand_efficiency>  (69) 
-0.105203

>  <r_i_glide_ligand_efficiency_sa>  (69) 
-0.365688

>  <r_i_glide_ligand_efficiency_ln>  (69) 
-0.932635

>  <r_i_glide_gscore>  (69) 
-4.41852

>  <r_i_glide_lipo>  (69) 
-0.408386

>  <r_i_glide_hbond>  (69) 
-0.16

>  <r_i_glide_metal>  (69) 
-0

>  <r_i_glide_rewards>  (69) 
-1.00467

>  <r_i_glide_evdw>  (69) 
-35.4786

>  <r_i_glide_ecoul>  (69) 
-6.79071

>  <r_i_glide_erotb>  (69) 
0

>  <r_i_glide_esite>  (69) 
-0.0529211

>  <r_i_glide_emodel>  (69) 
-62.4594

>  <r_i_glide_energy>  (69) 
-42.2693

>  <r_i_glide_einternal>  (69) 
1.33362

>  <r_i_glide_intrahb_reward>  (69) 
-1

>  <i_i_glide_confnum>  (69) 
2

>  <i_i_glide_posenum>  (69) 
22

>  <r_i_glide_eff_state_penalty>  (69) 
0

>  <ligand_id>  (69) 
40

>  <original_smiles>  (69) 
CC1CC2=CC3OCC2(O3)OC12OC1(O)C3(O)CCC4C(CO3)(C3OC5(C(O)C56OC3OC(O)C6(C)O)C41O)C1OC12

>  <smiles>  (69) 
[H]OC1([H])OC2([H])OC3(C([H])(O[H])C34OC2([H])C23C([H])([H])OC5(O[H])C([H])([H])C([H])([H])C2([H])C4(O[H])C5(O[H])OC2(OC45OC([H])(OC4([H])[H])C([H])=C5C([H])([H])C2([H])C([H])([H])[H])C2([H])OC23[H])C1(O[H])C([H])([H])[H]

$$$$
41:0:0
     RDKit          3D

 62 67  0  0  1  0  0  0  0  0999 V2000
   -1.7892    2.2010    3.1572 C   0  0  0  0  0  0  0  0  0  0  0  0
   -1.0198    1.0361    3.4469 O   0  0  0  0  0  0  0  0  0  0  0  0
   -0.5324    0.9450    4.7841 C   0  0  2  0  0  0  0  0  0  0  0  0
    0.7985    0.1619    4.8400 C   0  0  1  0  0  0  0  0  0  0  0  0
    0.6869   -1.0995    5.4386 O   0  0  0  0  0  0  0  0  0  0  0  0
    1.8309   -1.8480    5.0304 C   0  0  0  0  0  0  0  0  0  0  0  0
    2.6027   -0.8286    4.1494 C   0  0  2  0  0  0  0  0  0  0  0  0
    1.5224   -0.0986    3.5813 C   0  0  0  0  0  0  0  0  0  0  0  0
    1.5504    0.1720    2.2780 C   0  0  0  0  0  0  0  0  0  0  0  0
    2.7901   -0.4172    1.6932 C   0  0  1  0  0  0  0  0  0  0  0  0
    3.6760    0.5986    1.2545 O   0  0  0  0  0  0  0  0  0  0  0  0
    3.4027   -1.3189    2.8650 C   0  0  2  0  0  0  0  0  0  0  0  0
    3.0439   -2.7157    2.5188 O   0  0  0  0  0  0  0  0  0  0  0  0
    3.7581   -3.3772    1.4204 C   0  0  0  0  0  0  0  0  0  0  0  0
    3.3036   -4.8502    1.3440 C   0  0  0  0  0  0  0  0  0  0  0  0
    3.4363   -2.7809    0.0244 C   0  0  0  0  0  0  0  0  0  0  0  0
    5.2816   -3.3249    1.7222 C   0  0  1  0  0  0  0  0  0  0  0  0
    6.1395   -3.8652    0.6131 C   0  0  2  0  0  0  0  0  0  0  0  0
    6.5788   -5.2896    0.6734 C   0  0  0  0  0  0  0  0  0  0  0  0
    7.4887   -4.2006    0.9363 O   0  0  0  0  0  0  0  0  0  0  0  0
    5.6885   -1.9941    2.0094 O   0  0  0  0  0  0  0  0  0  0  0  0
    5.0037   -1.2454    2.9813 C   0  0  0  0  0  0  0  0  0  0  0  0
    5.6032   -0.5619    3.8349 O   0  0  0  0  0  0  0  0  0  0  0  0
    3.0510    0.3400    5.0879 C   0  0  1  0  0  0  0  0  0  0  0  0
    3.7365    1.3183    4.3587 O   0  0  0  0  0  0  0  0  0  0  0  0
    4.0302    2.4632    5.1512 C   0  0  0  0  0  0  0  0  0  0  0  0
    1.8023    0.8426    5.5407 O   0  0  0  0  0  0  0  0  0  0  0  0
   -1.6111    0.3852    5.7250 C   0  0  1  0  0  0  0  0  0  0  0  0
   -2.1660   -0.9618    5.3117 C   0  0  0  0  0  0  0  0  0  0  0  0
   -1.3362    0.5672    7.1289 O   0  0  0  0  0  0  0  0  0  0  0  0
   -2.4495    1.3054    6.6001 C   0  0  1  0  0  0  0  0  0  0  0  0
   -2.3522    2.8134    6.6098 C   0  0  0  0  0  0  0  0  0  0  0  0
   -2.0083    2.2138    2.0895 H   0  0  0  0  0  0  0  0  0  0  0  0
   -1.2612    3.1321    3.3885 H   0  0  0  0  0  0  0  0  0  0  0  0
   -2.7438    2.1994    3.6882 H   0  0  0  0  0  0  0  0  0  0  0  0
   -0.2543    1.9519    5.0910 H   0  0  0  0  0  0  0  0  0  0  0  0
    2.3950   -2.1512    5.9113 H   0  0  0  0  0  0  0  0  0  0  0  0
    1.4832   -2.7229    4.4718 H   0  0  0  0  0  0  0  0  0  0  0  0
    0.8492    0.7351    1.6915 H   0  0  0  0  0  0  0  0  0  0  0  0
    2.3531   -0.9433    0.8519 H   0  0  0  0  0  0  0  0  0  0  0  0
    3.8149    1.2684    1.9238 H   0  0  0  0  0  0  0  0  0  0  0  0
    3.6586   -5.3007    0.4203 H   0  0  0  0  0  0  0  0  0  0  0  0
    2.2194   -4.9412    1.3151 H   0  0  0  0  0  0  0  0  0  0  0  0
    3.6849   -5.4771    2.1511 H   0  0  0  0  0  0  0  0  0  0  0  0
    3.7607   -3.4180   -0.7961 H   0  0  0  0  0  0  0  0  0  0  0  0
    3.8728   -1.7726   -0.0629 H   0  0  0  0  0  0  0  0  0  0  0  0
    2.3494   -2.7040   -0.0855 H   0  0  0  0  0  0  0  0  0  0  0  0
    5.4801   -3.8764    2.6464 H   0  0  0  0  0  0  0  0  0  0  0  0
    5.9909   -3.4299   -0.3738 H   0  0  0  0  0  0  0  0  0  0  0  0
    6.3491   -5.8948    1.5527 H   0  0  0  0  0  0  0  0  0  0  0  0
    6.7720   -5.8351   -0.2391 H   0  0  0  0  0  0  0  0  0  0  0  0
    3.6401   -0.0090    5.9312 H   0  0  0  0  0  0  0  0  0  0  0  0
    4.5581    3.1908    4.5440 H   0  0  0  0  0  0  0  0  0  0  0  0
    4.6653    2.2201    6.0053 H   0  0  0  0  0  0  0  0  0  0  0  0
    3.1339    2.9666    5.5227 H   0  0  0  0  0  0  0  0  0  0  0  0
   -2.5679   -0.9338    4.3039 H   0  0  0  0  0  0  0  0  0  0  0  0
   -2.9567   -1.2704    6.0102 H   0  0  0  0  0  0  0  0  0  0  0  0
   -1.4682   -1.7777    5.3991 H   0  0  0  0  0  0  0  0  0  0  0  0
   -3.4114    0.9158    6.9108 H   0  0  0  0  0  0  0  0  0  0  0  0
   -3.0269    3.2138    5.8471 H   0  0  0  0  0  0  0  0  0  0  0  0
   -1.3379    3.1510    6.3947 H   0  0  0  0  0  0  0  0  0  0  0  0
   -2.6405    3.2132    7.5869 H   0  0  0  0  0  0  0  0  0  0  0  0
  1  2  1  0
  1 33  1  0
  1 34  1  0
  1 35  1  0
  2  3  1  0
  3  4  1  0
  3 28  1  0
  3 36  1  1
  4  8  1  0
  4 27  1  1
  4  5  1  0
  5  6  1  0
  7  6  1  1
  6 37  1  0
  6 38  1  0
  7 12  1  0
  7  8  1  0
  7 24  1  0
  8  9  2  0
  9 10  1  0
  9 39  1  0
 10 11  1  0
 10 12  1  0
 10 40  1  6
 11 41  1  0
 12 22  1  0
 12 13  1  6
 13 14  1  0
 14 15  1  0
 14 16  1  0
 14 17  1  0
 15 42  1  0
 15 43  1  0
 15 44  1  0
 16 45  1  0
 16 46  1  0
 16 47  1  0
 17 18  1  0
 17 21  1  0
 17 48  1  1
 18 20  1  0
 18 19  1  0
 18 49  1  6
 19 20  1  0
 19 50  1  0
 19 51  1  0
 21 22  1  0
 22 23  2  0
 24 25  1  0
 24 27  1  0
 24 52  1  1
 25 26  1  0
 26 53  1  0
 26 54  1  0
 26 55  1  0
 28 31  1  0
 28 29  1  1
 28 30  1  0
 29 56  1  0
 29 57  1  0
 29 58  1  0
 30 31  1  0
 31 32  1  0
 31 59  1  1
 32 60  1  0
 32 61  1  0
 32 62  1  0
M  END
>  <i_m_ct_stereo_status>  (70) 
1

>  <s_m_source_file>  (70) 
/var/tmp/pbs.5076253.sched01/tmp9xbr3gte/40_qt8sgg8.sdf

>  <i_m_source_file_index>  (70) 
19

>  <i_lp_mmshare_version>  (70) 
48012

>  <i_f3d_flags>  (70) 
0

>  <s_epik_input>  (70) 
W0NIM11bQ0BASF0xT1tDQF0xKFtDSDNdKVtDQEhdKE9bQ0gzXSlbQ0BdKE9bQ0gyXTIpKE9bQ0BASF0zT1tDSDNdKUM0PVtDSF1bQ0BASF0oW09IXSlbQ0BAXTUoW0NAQF0yMzQpT0MoW0NIM10pKFtDSDNdKVtDQEBIXShbQ0BASF02W0NIMl1PNilPQzU9Tw==

>  <s_epik_cmdline>  (70) 
J2VwaWtfcHl0aG9uJywgJy1waHQnLCAnMi4wJywgJy1waCcsICc3LjAnLCAnLXRuJywgJzgnLCAnLW1hJywgJzIwMCcsICctaW1hZScsICc8aW5maWxlLm1hZT4nLCAnLW9tYWUnLCAnPG91dGZpbGUubWFlPic=

>  <r_epik_Ionization_Penalty>  (70) 
0.0195893

>  <r_epik_Ionization_Penalty_Charging>  (70) 
0

>  <r_epik_Ionization_Penalty_Neutral>  (70) 
0.0195893

>  <r_epik_State_Penalty>  (70) 
0.0156541

>  <r_epik_Charging_Adjusted_Penalty>  (70) 
0.0156541

>  <i_epik_Tot_Q>  (70) 
0

>  <i_epik_Tot_abs_Q>  (70) 
0

>  <s_epik_Chemistry_Notes>  (70) 
This compound has an ester and may undergo hydrolysis at high or low pH. This compound contains an acetal/aminal-like group ( X-CH(R)-Y where X, Y are N, S, or O) that may be acid/base labile, releasing an aldehyde.

>  <s_lp_Force_Field>  (70) 
OPLS3e

>  <r_lp_Energy>  (70) 
42.3086

>  <b_lp_Chiralities_Consistent>  (70) 
1

>  <s_lp_Variant>  (70) 
41:0-1

>  <s_i_glide_gridfile>  (70) 
pfpi4k_grid

>  <i_i_glide_lignum>  (70) 
19

>  <i_i_glide_rotatable_bonds>  (70) 
6

>  <r_i_docking_score>  (70) 
-2.65475

>  <r_i_glide_ligand_efficiency>  (70) 
-0.0829609

>  <r_i_glide_ligand_efficiency_sa>  (70) 
-0.263384

>  <r_i_glide_ligand_efficiency_ln>  (70) 
-0.594471

>  <r_i_glide_gscore>  (70) 
-2.65475

>  <r_i_glide_lipo>  (70) 
-0.377972

>  <r_i_glide_hbond>  (70) 
-0.153468

>  <r_i_glide_metal>  (70) 
-0

>  <r_i_glide_rewards>  (70) 
-0.935408

>  <r_i_glide_evdw>  (70) 
-21.0594

>  <r_i_glide_ecoul>  (70) 
-2.81728

>  <r_i_glide_erotb>  (70) 
0.291681

>  <r_i_glide_esite>  (70) 
-0.00402028

>  <r_i_glide_emodel>  (70) 
-29.1687

>  <r_i_glide_energy>  (70) 
-23.8767

>  <r_i_glide_einternal>  (70) 
2.32765

>  <r_i_glide_intrahb_reward>  (70) 
-0.5

>  <i_i_glide_confnum>  (70) 
2

>  <i_i_glide_posenum>  (70) 
35

>  <r_i_glide_eff_state_penalty>  (70) 
0

>  <ligand_id>  (70) 
41

>  <original_smiles>  (70) 
COC(C12OCC3(C1=CC(O)C31OC(C)(C)C(C3CO3)OC1=O)C(OC)O2)C1(C)OC1C

>  <smiles>  (70) 
[H]OC1([H])C([H])=C2C3(C([H])(OC([H])([H])[H])C4(C([H])([H])[H])OC4([H])C([H])([H])[H])OC([H])([H])C2(C([H])(OC([H])([H])[H])O3)C12OC(C([H])([H])[H])(C([H])([H])[H])C([H])(C1([H])OC1([H])[H])OC2=O

$$$$
41:0:1
     RDKit          3D

 62 67  0  0  1  0  0  0  0  0999 V2000
    4.2733   -5.8309    0.7445 C   0  0  0  0  0  0  0  0  0  0  0  0
    4.3818   -4.7785   -0.2263 O   0  0  0  0  0  0  0  0  0  0  0  0
    5.4978   -3.9211   -0.0769 C   0  0  2  0  0  0  0  0  0  0  0  0
    5.3480   -2.9853    1.1722 C   0  0  1  0  0  0  0  0  0  0  0  0
    6.0115   -1.7642    1.0686 O   0  0  0  0  0  0  0  0  0  0  0  0
    5.4363   -0.8743    2.0276 C   0  0  0  0  0  0  0  0  0  0  0  0
    4.3431   -1.7631    2.6820 C   0  0  2  0  0  0  0  0  0  0  0  0
    3.9584   -2.5772    1.5650 C   0  0  0  0  0  0  0  0  0  0  0  0
    2.6986   -2.7811    1.3366 C   0  0  0  0  0  0  0  0  0  0  0  0
    1.8921   -2.0748    2.3718 C   0  0  1  0  0  0  0  0  0  0  0  0
    1.2221   -2.9966    3.2210 O   0  0  0  0  0  0  0  0  0  0  0  0
    2.9488   -1.1409    3.1314 C   0  0  2  0  0  0  0  0  0  0  0  0
    2.7734    0.2011    2.5815 O   0  0  0  0  0  0  0  0  0  0  0  0
    1.6162    1.0047    2.9610 C   0  0  0  0  0  0  0  0  0  0  0  0
    1.7442    2.4238    2.3744 C   0  0  0  0  0  0  0  0  0  0  0  0
    0.2756    0.4560    2.3988 C   0  0  0  0  0  0  0  0  0  0  0  0
    1.5858    1.0987    4.5093 C   0  0  1  0  0  0  0  0  0  0  0  0
    0.3590    1.7816    5.0424 C   0  0  2  0  0  0  0  0  0  0  0  0
    0.3664    3.2611    5.2583 C   0  0  0  0  0  0  0  0  0  0  0  0
    0.4424    2.3366    6.3576 O   0  0  0  0  0  0  0  0  0  0  0  0
    1.6975   -0.1949    5.0879 O   0  0  0  0  0  0  0  0  0  0  0  0
    2.7157   -1.0362    4.7279 C   0  0  0  0  0  0  0  0  0  0  0  0
    3.3791   -1.6865    5.5499 O   0  0  0  0  0  0  0  0  0  0  0  0
    5.0847   -2.9183    3.4344 C   0  0  1  0  0  0  0  0  0  0  0  0
    4.1639   -3.7936    4.0211 O   0  0  0  0  0  0  0  0  0  0  0  0
    4.8080   -4.8248    4.7572 C   0  0  0  0  0  0  0  0  0  0  0  0
    5.7740   -3.5734    2.3675 O   0  0  0  0  0  0  0  0  0  0  0  0
    5.8491   -3.2118   -1.4189 C   0  0  1  0  0  0  0  0  0  0  0  0
    4.9826   -3.5838   -2.5928 C   0  0  0  0  0  0  0  0  0  0  0  0
    6.2057   -1.8178   -1.3687 O   0  0  0  0  0  0  0  0  0  0  0  0
    7.2707   -2.7271   -1.6749 C   0  0  1  0  0  0  0  0  0  0  0  0
    8.3864   -2.8627   -0.6683 C   0  0  0  0  0  0  0  0  0  0  0  0
    3.3291   -6.3573    0.6156 H   0  0  0  0  0  0  0  0  0  0  0  0
    4.2697   -5.4537    1.7626 H   0  0  0  0  0  0  0  0  0  0  0  0
    5.0851   -6.5532    0.6599 H   0  0  0  0  0  0  0  0  0  0  0  0
    6.3637   -4.5611    0.1235 H   0  0  0  0  0  0  0  0  0  0  0  0
    6.1965   -0.5497    2.7434 H   0  0  0  0  0  0  0  0  0  0  0  0
    5.0309   -0.0179    1.4845 H   0  0  0  0  0  0  0  0  0  0  0  0
    2.2528   -3.4005    0.5570 H   0  0  0  0  0  0  0  0  0  0  0  0
    1.2045   -1.5748    1.6759 H   0  0  0  0  0  0  0  0  0  0  0  0
    1.8436   -3.4735    3.7664 H   0  0  0  0  0  0  0  0  0  0  0  0
    0.8040    2.9550    2.4904 H   0  0  0  0  0  0  0  0  0  0  0  0
    1.9233    2.4032    1.3013 H   0  0  0  0  0  0  0  0  0  0  0  0
    2.5010    3.0478    2.8522 H   0  0  0  0  0  0  0  0  0  0  0  0
   -0.5495    1.1642    2.4793 H   0  0  0  0  0  0  0  0  0  0  0  0
    0.0132   -0.4795    2.9074 H   0  0  0  0  0  0  0  0  0  0  0  0
    0.3962    0.2731    1.3268 H   0  0  0  0  0  0  0  0  0  0  0  0
    2.4792    1.6306    4.8518 H   0  0  0  0  0  0  0  0  0  0  0  0
   -0.6027    1.3233    4.7929 H   0  0  0  0  0  0  0  0  0  0  0  0
    1.2876    3.8188    5.0794 H   0  0  0  0  0  0  0  0  0  0  0  0
   -0.5557    3.8301    5.2047 H   0  0  0  0  0  0  0  0  0  0  0  0
    5.8025   -2.5460    4.1538 H   0  0  0  0  0  0  0  0  0  0  0  0
    4.0537   -5.4682    5.2013 H   0  0  0  0  0  0  0  0  0  0  0  0
    5.4107   -4.4181    5.5690 H   0  0  0  0  0  0  0  0  0  0  0  0
    5.4526   -5.4542    4.1393 H   0  0  0  0  0  0  0  0  0  0  0  0
    5.0041   -4.6629   -2.7648 H   0  0  0  0  0  0  0  0  0  0  0  0
    5.3552   -3.0831   -3.4876 H   0  0  0  0  0  0  0  0  0  0  0  0
    3.9603   -3.2488   -2.4160 H   0  0  0  0  0  0  0  0  0  0  0  0
    7.6066   -2.6056   -2.7033 H   0  0  0  0  0  0  0  0  0  0  0  0
    8.9333   -3.7832   -0.8692 H   0  0  0  0  0  0  0  0  0  0  0  0
    8.0286   -2.9227    0.3637 H   0  0  0  0  0  0  0  0  0  0  0  0
    9.0773   -2.0245   -0.7283 H   0  0  0  0  0  0  0  0  0  0  0  0
  1  2  1  0
  1 33  1  0
  1 34  1  0
  1 35  1  0
  2  3  1  0
  3  4  1  0
  3 28  1  0
  3 36  1  1
  4  8  1  0
  4 27  1  1
  4  5  1  0
  5  6  1  0
  7  6  1  6
  6 37  1  0
  6 38  1  0
  7 12  1  0
  7  8  1  0
  7 24  1  0
  8  9  2  0
  9 10  1  0
  9 39  1  0
 10 11  1  0
 10 12  1  0
 10 40  1  6
 11 41  1  0
 12 22  1  0
 12 13  1  6
 13 14  1  0
 14 15  1  0
 14 16  1  0
 14 17  1  0
 15 42  1  0
 15 43  1  0
 15 44  1  0
 16 45  1  0
 16 46  1  0
 16 47  1  0
 17 18  1  0
 17 21  1  0
 17 48  1  1
 18 20  1  0
 18 19  1  0
 18 49  1  1
 19 20  1  0
 19 50  1  0
 19 51  1  0
 21 22  1  0
 22 23  2  0
 24 25  1  0
 24 27  1  0
 24 52  1  1
 25 26  1  0
 26 53  1  0
 26 54  1  0
 26 55  1  0
 28 31  1  0
 28 29  1  6
 28 30  1  0
 29 56  1  0
 29 57  1  0
 29 58  1  0
 30 31  1  0
 31 32  1  0
 31 59  1  6
 32 60  1  0
 32 61  1  0
 32 62  1  0
M  END
>  <i_m_ct_stereo_status>  (71) 
1

>  <s_m_source_file>  (71) 
/var/tmp/pbs.5076253.sched01/tmp9xbr3gte/40_qt8sgg8.sdf

>  <i_m_source_file_index>  (71) 
19

>  <i_lp_mmshare_version>  (71) 
48012

>  <i_f3d_flags>  (71) 
0

>  <s_epik_input>  (71) 
W0NIM11bQ0BASF0xT1tDQF0xKFtDSDNdKVtDQEhdKE9bQ0gzXSlbQ0BdKE9bQ0gyXTIpKE9bQ0BASF0zT1tDSDNdKUM0PVtDSF1bQ0BASF0oW09IXSlbQ0BAXTUoW0NAQF0yMzQpT0MoW0NIM10pKFtDSDNdKVtDQEBIXShbQ0BASF02W0NIMl1PNilPQzU9Tw==

>  <s_epik_cmdline>  (71) 
J2VwaWtfcHl0aG9uJywgJy1waHQnLCAnMi4wJywgJy1waCcsICc3LjAnLCAnLXRuJywgJzgnLCAnLW1hJywgJzIwMCcsICctaW1hZScsICc8aW5maWxlLm1hZT4nLCAnLW9tYWUnLCAnPG91dGZpbGUubWFlPic=

>  <r_epik_Ionization_Penalty>  (71) 
0.0195893

>  <r_epik_Ionization_Penalty_Charging>  (71) 
0

>  <r_epik_Ionization_Penalty_Neutral>  (71) 
0.0195893

>  <r_epik_State_Penalty>  (71) 
0.0156541

>  <r_epik_Charging_Adjusted_Penalty>  (71) 
0.0156541

>  <i_epik_Tot_Q>  (71) 
0

>  <i_epik_Tot_abs_Q>  (71) 
0

>  <s_epik_Chemistry_Notes>  (71) 
This compound has an ester and may undergo hydrolysis at high or low pH. This compound contains an acetal/aminal-like group ( X-CH(R)-Y where X, Y are N, S, or O) that may be acid/base labile, releasing an aldehyde.

>  <s_lp_Force_Field>  (71) 
OPLS3e

>  <r_lp_Energy>  (71) 
42.3086

>  <b_lp_Chiralities_Consistent>  (71) 
1

>  <s_lp_Variant>  (71) 
41:0-1

>  <s_i_glide_gridfile>  (71) 
pfpi4k_grid

>  <i_i_glide_lignum>  (71) 
19

>  <i_i_glide_rotatable_bonds>  (71) 
6

>  <r_i_docking_score>  (71) 
-2.45383

>  <r_i_glide_ligand_efficiency>  (71) 
-0.0766821

>  <r_i_glide_ligand_efficiency_sa>  (71) 
-0.243451

>  <r_i_glide_ligand_efficiency_ln>  (71) 
-0.549479

>  <r_i_glide_gscore>  (71) 
-2.45383

>  <r_i_glide_lipo>  (71) 
-0.456669

>  <r_i_glide_hbond>  (71) 
-0.143152

>  <r_i_glide_metal>  (71) 
-0

>  <r_i_glide_rewards>  (71) 
-0.951487

>  <r_i_glide_evdw>  (71) 
-23.823

>  <r_i_glide_ecoul>  (71) 
-0.0203449

>  <r_i_glide_erotb>  (71) 
0.291681

>  <r_i_glide_esite>  (71) 
0

>  <r_i_glide_emodel>  (71) 
-30.3646

>  <r_i_glide_energy>  (71) 
-23.8434

>  <r_i_glide_einternal>  (71) 
0.83332

>  <r_i_glide_intrahb_reward>  (71) 
-0.5

>  <i_i_glide_confnum>  (71) 
1

>  <i_i_glide_posenum>  (71) 
34

>  <r_i_glide_eff_state_penalty>  (71) 
0

>  <ligand_id>  (71) 
41

>  <original_smiles>  (71) 
COC(C12OCC3(C1=CC(O)C31OC(C)(C)C(C3CO3)OC1=O)C(OC)O2)C1(C)OC1C

>  <smiles>  (71) 
[H]OC1([H])C([H])=C2C3(C([H])(OC([H])([H])[H])C4(C([H])([H])[H])OC4([H])C([H])([H])[H])OC([H])([H])C2(C([H])(OC([H])([H])[H])O3)C12OC(C([H])([H])[H])(C([H])([H])[H])C([H])(C1([H])OC1([H])[H])OC2=O

$$$$
41:0:2
     RDKit          3D

 62 67  0  0  1  0  0  0  0  0999 V2000
    3.1051  -10.3375    3.3570 C   0  0  0  0  0  0  0  0  0  0  0  0
    2.1655   -9.6804    4.2184 O   0  0  0  0  0  0  0  0  0  0  0  0
    1.1188   -8.9643    3.5581 C   0  0  2  0  0  0  0  0  0  0  0  0
    1.6660   -7.6401    2.9516 C   0  0  1  0  0  0  0  0  0  0  0  0
    0.6795   -6.7219    2.5789 O   0  0  0  0  0  0  0  0  0  0  0  0
    1.3247   -5.4512    2.4442 C   0  0  0  0  0  0  0  0  0  0  0  0
    2.7788   -5.7596    2.8346 C   0  0  2  0  0  0  0  0  0  0  0  0
    2.5668   -6.8011    3.7806 C   0  0  0  0  0  0  0  0  0  0  0  0
    3.2327   -6.7468    4.9344 C   0  0  0  0  0  0  0  0  0  0  0  0
    4.0977   -5.5288    4.9481 C   0  0  1  0  0  0  0  0  0  0  0  0
    5.4666   -5.9149    4.9147 O   0  0  0  0  0  0  0  0  0  0  0  0
    3.6236   -4.7145    3.6639 C   0  0  2  0  0  0  0  0  0  0  0  0
    2.7601   -3.6137    4.1769 O   0  0  0  0  0  0  0  0  0  0  0  0
    3.3794   -2.4856    4.8901 C   0  0  0  0  0  0  0  0  0  0  0  0
    2.2867   -1.4397    5.2164 C   0  0  0  0  0  0  0  0  0  0  0  0
    3.9849   -2.8755    6.2588 C   0  0  0  0  0  0  0  0  0  0  0  0
    4.4372   -1.8474    3.9546 C   0  0  1  0  0  0  0  0  0  0  0  0
    5.2275   -0.7563    4.6024 C   0  0  2  0  0  0  0  0  0  0  0  0
    4.7686    0.6624    4.4606 C   0  0  0  0  0  0  0  0  0  0  0  0
    5.9017    0.1421    3.7353 O   0  0  0  0  0  0  0  0  0  0  0  0
    5.3261   -2.8409    3.4636 O   0  0  0  0  0  0  0  0  0  0  0  0
    4.7987   -3.9975    2.8622 C   0  0  0  0  0  0  0  0  0  0  0  0
    5.3240   -4.4544    1.7855 O   0  0  0  0  0  0  0  0  0  0  0  0
    3.3556   -6.6932    1.7364 C   0  0  1  0  0  0  0  0  0  0  0  0
    4.6605   -7.0724    2.0601 O   0  0  0  0  0  0  0  0  0  0  0  0
    5.3196   -7.7195    0.9791 C   0  0  0  0  0  0  0  0  0  0  0  0
    2.4809   -7.8062    1.8197 O   0  0  0  0  0  0  0  0  0  0  0  0
   -0.1230   -8.8132    4.4694 C   0  0  1  0  0  0  0  0  0  0  0  0
    0.0014   -9.4042    5.8515 C   0  0  0  0  0  0  0  0  0  0  0  0
   -0.8356   -7.5605    4.4141 O   0  0  0  0  0  0  0  0  0  0  0  0
   -1.5200   -8.6861    3.8516 C   0  0  1  0  0  0  0  0  0  0  0  0
   -1.7576   -8.7034    2.3591 C   0  0  0  0  0  0  0  0  0  0  0  0
    3.9112  -10.7688    3.9526 H   0  0  0  0  0  0  0  0  0  0  0  0
    3.6019   -9.6632    2.6656 H   0  0  0  0  0  0  0  0  0  0  0  0
    2.6425  -11.1313    2.7647 H   0  0  0  0  0  0  0  0  0  0  0  0
    0.8076   -9.5629    2.7085 H   0  0  0  0  0  0  0  0  0  0  0  0
    1.2679   -5.1220    1.4107 H   0  0  0  0  0  0  0  0  0  0  0  0
    0.7999   -4.7555    3.1136 H   0  0  0  0  0  0  0  0  0  0  0  0
    3.2306   -7.4424    5.7789 H   0  0  0  0  0  0  0  0  0  0  0  0
    3.8359   -5.1373    5.8975 H   0  0  0  0  0  0  0  0  0  0  0  0
    5.7070   -6.3854    4.1225 H   0  0  0  0  0  0  0  0  0  0  0  0
    2.6870   -0.7108    5.9098 H   0  0  0  0  0  0  0  0  0  0  0  0
    1.4285   -1.8818    5.7208 H   0  0  0  0  0  0  0  0  0  0  0  0
    1.9349   -0.8747    4.3523 H   0  0  0  0  0  0  0  0  0  0  0  0
    4.2269   -2.0282    6.8681 H   0  0  0  0  0  0  0  0  0  0  0  0
    4.8698   -3.5126    6.0870 H   0  0  0  0  0  0  0  0  0  0  0  0
    3.2379   -3.4554    6.8138 H   0  0  0  0  0  0  0  0  0  0  0  0
    3.9433   -1.4683    3.0576 H   0  0  0  0  0  0  0  0  0  0  0  0
    5.7603   -1.0048    5.5136 H   0  0  0  0  0  0  0  0  0  0  0  0
    3.9090    0.8921    3.8265 H   0  0  0  0  0  0  0  0  0  0  0  0
    5.0168    1.4071    5.2145 H   0  0  0  0  0  0  0  0  0  0  0  0
    3.2853   -6.2590    0.7475 H   0  0  0  0  0  0  0  0  0  0  0  0
    6.3390   -7.9746    1.2708 H   0  0  0  0  0  0  0  0  0  0  0  0
    5.3883   -7.0547    0.1156 H   0  0  0  0  0  0  0  0  0  0  0  0
    4.8272   -8.6439    0.6680 H   0  0  0  0  0  0  0  0  0  0  0  0
    0.2723  -10.4639    5.8056 H   0  0  0  0  0  0  0  0  0  0  0  0
   -0.9515   -9.3418    6.3804 H   0  0  0  0  0  0  0  0  0  0  0  0
    0.7481   -8.8619    6.4309 H   0  0  0  0  0  0  0  0  0  0  0  0
   -2.3698   -8.9986    4.4487 H   0  0  0  0  0  0  0  0  0  0  0  0
   -1.9401   -9.7341    2.0377 H   0  0  0  0  0  0  0  0  0  0  0  0
   -0.8996   -8.3404    1.7915 H   0  0  0  0  0  0  0  0  0  0  0  0
   -2.6154   -8.0821    2.0916 H   0  0  0  0  0  0  0  0  0  0  0  0
  1  2  1  0
  1 33  1  0
  1 34  1  0
  1 35  1  0
  2  3  1  0
  3  4  1  0
  3 28  1  0
  3 36  1  6
  4  8  1  0
  4 27  1  6
  4  5  1  0
  5  6  1  0
  7  6  1  6
  6 37  1  0
  6 38  1  0
  7 12  1  0
  7  8  1  0
  7 24  1  0
  8  9  2  0
  9 10  1  0
  9 39  1  0
 10 11  1  0
 10 12  1  0
 10 40  1  1
 11 41  1  0
 12 22  1  0
 12 13  1  1
 13 14  1  0
 14 15  1  0
 14 16  1  0
 14 17  1  0
 15 42  1  0
 15 43  1  0
 15 44  1  0
 16 45  1  0
 16 46  1  0
 16 47  1  0
 17 18  1  0
 17 21  1  0
 17 48  1  6
 18 20  1  0
 18 19  1  0
 18 49  1  1
 19 20  1  0
 19 50  1  0
 19 51  1  0
 21 22  1  0
 22 23  2  0
 24 25  1  0
 24 27  1  0
 24 52  1  6
 25 26  1  0
 26 53  1  0
 26 54  1  0
 26 55  1  0
 28 31  1  0
 28 29  1  1
 28 30  1  0
 29 56  1  0
 29 57  1  0
 29 58  1  0
 30 31  1  0
 31 32  1  0
 31 59  1  1
 32 60  1  0
 32 61  1  0
 32 62  1  0
M  END
>  <i_m_ct_stereo_status>  (72) 
1

>  <s_m_source_file>  (72) 
/var/tmp/pbs.5076253.sched01/tmp9xbr3gte/40_qt8sgg8.sdf

>  <i_m_source_file_index>  (72) 
19

>  <i_lp_mmshare_version>  (72) 
48012

>  <i_f3d_flags>  (72) 
0

>  <s_epik_input>  (72) 
W0NIM11bQ0BASF0xT1tDQF0xKFtDSDNdKVtDQEhdKE9bQ0gzXSlbQ0BdKE9bQ0gyXTIpKE9bQ0BASF0zT1tDSDNdKUM0PVtDSF1bQ0BASF0oW09IXSlbQ0BAXTUoW0NAQF0yMzQpT0MoW0NIM10pKFtDSDNdKVtDQEBIXShbQ0BASF02W0NIMl1PNilPQzU9Tw==

>  <s_epik_cmdline>  (72) 
J2VwaWtfcHl0aG9uJywgJy1waHQnLCAnMi4wJywgJy1waCcsICc3LjAnLCAnLXRuJywgJzgnLCAnLW1hJywgJzIwMCcsICctaW1hZScsICc8aW5maWxlLm1hZT4nLCAnLW9tYWUnLCAnPG91dGZpbGUubWFlPic=

>  <r_epik_Ionization_Penalty>  (72) 
0.0195893

>  <r_epik_Ionization_Penalty_Charging>  (72) 
0

>  <r_epik_Ionization_Penalty_Neutral>  (72) 
0.0195893

>  <r_epik_State_Penalty>  (72) 
0.0156541

>  <r_epik_Charging_Adjusted_Penalty>  (72) 
0.0156541

>  <i_epik_Tot_Q>  (72) 
0

>  <i_epik_Tot_abs_Q>  (72) 
0

>  <s_epik_Chemistry_Notes>  (72) 
This compound has an ester and may undergo hydrolysis at high or low pH. This compound contains an acetal/aminal-like group ( X-CH(R)-Y where X, Y are N, S, or O) that may be acid/base labile, releasing an aldehyde.

>  <s_lp_Force_Field>  (72) 
OPLS3e

>  <r_lp_Energy>  (72) 
42.3086

>  <b_lp_Chiralities_Consistent>  (72) 
1

>  <s_lp_Variant>  (72) 
41:0-1

>  <s_i_glide_gridfile>  (72) 
pfpi4k_grid

>  <i_i_glide_lignum>  (72) 
19

>  <i_i_glide_rotatable_bonds>  (72) 
6

>  <r_i_docking_score>  (72) 
-2.41531

>  <r_i_glide_ligand_efficiency>  (72) 
-0.0754783

>  <r_i_glide_ligand_efficiency_sa>  (72) 
-0.239629

>  <r_i_glide_ligand_efficiency_ln>  (72) 
-0.540853

>  <r_i_glide_gscore>  (72) 
-2.41531

>  <r_i_glide_lipo>  (72) 
-0.430193

>  <r_i_glide_hbond>  (72) 
0

>  <r_i_glide_metal>  (72) 
-0

>  <r_i_glide_rewards>  (72) 
-0.894595

>  <r_i_glide_evdw>  (72) 
-21.8447

>  <r_i_glide_ecoul>  (72) 
-1.99206

>  <r_i_glide_erotb>  (72) 
0.291681

>  <r_i_glide_esite>  (72) 
-0.0141172

>  <r_i_glide_emodel>  (72) 
-28.5515

>  <r_i_glide_energy>  (72) 
-23.8367

>  <r_i_glide_einternal>  (72) 
1.81337

>  <r_i_glide_intrahb_reward>  (72) 
-0.5

>  <i_i_glide_confnum>  (72) 
2

>  <i_i_glide_posenum>  (72) 
7

>  <r_i_glide_eff_state_penalty>  (72) 
0

>  <ligand_id>  (72) 
41

>  <original_smiles>  (72) 
COC(C12OCC3(C1=CC(O)C31OC(C)(C)C(C3CO3)OC1=O)C(OC)O2)C1(C)OC1C

>  <smiles>  (72) 
[H]OC1([H])C([H])=C2C3(C([H])(OC([H])([H])[H])C4(C([H])([H])[H])OC4([H])C([H])([H])[H])OC([H])([H])C2(C([H])(OC([H])([H])[H])O3)C12OC(C([H])([H])[H])(C([H])([H])[H])C([H])(C1([H])OC1([H])[H])OC2=O

$$$$
41:1:0
     RDKit          3D

 61 66  0  0  1  0  0  0  0  0999 V2000
    3.3123   -5.8767    7.9009 C   0  0  0  0  0  0  0  0  0  0  0  0
    2.9739   -4.4936    7.9067 O   0  0  0  0  0  0  0  0  0  0  0  0
    1.7326   -4.1441    7.2947 C   0  0  2  0  0  0  0  0  0  0  0  0
    1.7759   -2.6222    7.0974 C   0  0  1  0  0  0  0  0  0  0  0  0
    2.9299   -2.2133    6.4247 O   0  0  0  0  0  0  0  0  0  0  0  0
    2.7100   -0.8478    6.0126 C   0  0  0  0  0  0  0  0  0  0  0  0
    1.2560   -0.5874    6.4914 C   0  0  2  0  0  0  0  0  0  0  0  0
    0.7015   -1.9014    6.3522 C   0  0  0  0  0  0  0  0  0  0  0  0
   -0.4677   -2.0283    5.7410 C   0  0  0  0  0  0  0  0  0  0  0  0
   -1.0217   -0.6845    5.4256 C   0  0  1  0  0  0  0  0  0  0  0  0
   -2.0587   -0.3741    6.0802 O   0  0  0  0  0  0  0  0  0  0  0  0
    0.2645    0.2936    5.6239 C   0  0  2  0  0  0  0  0  0  0  0  0
    0.8304    0.5869    4.2872 O   0  0  0  0  0  0  0  0  0  0  0  0
    0.1336    1.4928    3.3412 C   0  0  0  0  0  0  0  0  0  0  0  0
    0.9930    1.7289    2.0807 C   0  0  0  0  0  0  0  0  0  0  0  0
   -1.1730    0.9037    2.7616 C   0  0  0  0  0  0  0  0  0  0  0  0
   -0.1358    2.8346    4.0674 C   0  0  1  0  0  0  0  0  0  0  0  0
   -0.9842    3.7947    3.2763 C   0  0  2  0  0  0  0  0  0  0  0  0
   -0.5059    5.1968    3.0467 C   0  0  0  0  0  0  0  0  0  0  0  0
   -1.5414    4.8961    3.9901 O   0  0  0  0  0  0  0  0  0  0  0  0
   -0.7375    2.6009    5.3374 O   0  0  0  0  0  0  0  0  0  0  0  0
   -0.1559    1.6980    6.2316 C   0  0  0  0  0  0  0  0  0  0  0  0
   -0.0256    1.9859    7.4540 O   0  0  0  0  0  0  0  0  0  0  0  0
    1.3023   -0.6020    8.0465 C   0  0  1  0  0  0  0  0  0  0  0  0
    0.0366   -0.3998    8.5904 O   0  0  0  0  0  0  0  0  0  0  0  0
    0.0473   -0.2617   10.0037 C   0  0  0  0  0  0  0  0  0  0  0  0
    1.7286   -1.9293    8.3089 O   0  0  0  0  0  0  0  0  0  0  0  0
    0.5261   -4.6781    8.1026 C   0  0  1  0  0  0  0  0  0  0  0  0
    0.7355   -4.8348    9.6067 C   0  0  0  0  0  0  0  0  0  0  0  0
   -0.7760   -4.1814    7.7227 O   0  0  0  0  0  0  0  0  0  0  0  0
   -0.5347   -5.5519    7.4176 C   0  0  1  0  0  0  0  0  0  0  0  0
   -0.4714   -5.9208    5.9566 C   0  0  0  0  0  0  0  0  0  0  0  0
    4.3239   -5.9712    8.3085 H   0  0  0  0  0  0  0  0  0  0  0  0
    3.2859   -6.3148    6.8982 H   0  0  0  0  0  0  0  0  0  0  0  0
    2.6599   -6.4724    8.5348 H   0  0  0  0  0  0  0  0  0  0  0  0
    1.7491   -4.5595    6.2917 H   0  0  0  0  0  0  0  0  0  0  0  0
    3.4351   -0.1841    6.4849 H   0  0  0  0  0  0  0  0  0  0  0  0
    2.8531   -0.8084    4.9277 H   0  0  0  0  0  0  0  0  0  0  0  0
   -1.0582   -2.9257    5.5237 H   0  0  0  0  0  0  0  0  0  0  0  0
   -1.1310   -0.8372    4.3463 H   0  0  0  0  0  0  0  0  0  0  0  0
    0.3659    2.1595    1.3056 H   0  0  0  0  0  0  0  0  0  0  0  0
    1.3519    0.7962    1.6388 H   0  0  0  0  0  0  0  0  0  0  0  0
    1.8386    2.4065    2.2341 H   0  0  0  0  0  0  0  0  0  0  0  0
   -1.6092    1.3767    1.9461 H   0  0  0  0  0  0  0  0  0  0  0  0
   -1.9227    0.8864    3.5765 H   0  0  0  0  0  0  0  0  0  0  0  0
   -0.9363   -0.1331    2.4738 H   0  0  0  0  0  0  0  0  0  0  0  0
    0.8168    3.3077    4.3042 H   0  0  0  0  0  0  0  0  0  0  0  0
   -1.6344    3.3917    2.5046 H   0  0  0  0  0  0  0  0  0  0  0  0
    0.4355    5.5125    3.4975 H   0  0  0  0  0  0  0  0  0  0  0  0
   -0.8388    5.7502    2.1657 H   0  0  0  0  0  0  0  0  0  0  0  0
    2.0247    0.1052    8.4392 H   0  0  0  0  0  0  0  0  0  0  0  0
   -0.9733   -0.0995   10.3508 H   0  0  0  0  0  0  0  0  0  0  0  0
    0.6374    0.6015   10.3218 H   0  0  0  0  0  0  0  0  0  0  0  0
    0.4303   -1.1558   10.5035 H   0  0  0  0  0  0  0  0  0  0  0  0
    1.6102   -5.4370    9.8519 H   0  0  0  0  0  0  0  0  0  0  0  0
   -0.1224   -5.3442   10.0697 H   0  0  0  0  0  0  0  0  0  0  0  0
    0.8698   -3.8554   10.0781 H   0  0  0  0  0  0  0  0  0  0  0  0
   -1.0843   -6.2362    8.0553 H   0  0  0  0  0  0  0  0  0  0  0  0
    0.0833   -6.8578    5.8358 H   0  0  0  0  0  0  0  0  0  0  0  0
    0.0234   -5.1517    5.3580 H   0  0  0  0  0  0  0  0  0  0  0  0
   -1.4698   -6.0401    5.5415 H   0  0  0  0  0  0  0  0  0  0  0  0
  1  2  1  0
  1 33  1  0
  1 34  1  0
  1 35  1  0
  2  3  1  0
  3  4  1  0
  3 28  1  0
  3 36  1  6
  4  8  1  0
  4 27  1  1
  4  5  1  0
  5  6  1  0
  7  6  1  6
  6 37  1  0
  6 38  1  0
  7 12  1  0
  7  8  1  0
  7 24  1  0
  8  9  2  0
  9 10  1  0
  9 39  1  0
 10 11  1  0
 10 12  1  0
 10 40  1  6
 12 22  1  0
 12 13  1  6
 13 14  1  0
 14 15  1  0
 14 16  1  0
 14 17  1  0
 15 41  1  0
 15 42  1  0
 15 43  1  0
 16 44  1  0
 16 45  1  0
 16 46  1  0
 17 18  1  0
 17 21  1  0
 17 47  1  1
 18 20  1  0
 18 19  1  0
 18 48  1  6
 19 20  1  0
 19 49  1  0
 19 50  1  0
 21 22  1  0
 22 23  2  0
 24 25  1  0
 24 27  1  0
 24 51  1  1
 25 26  1  0
 26 52  1  0
 26 53  1  0
 26 54  1  0
 28 31  1  0
 28 29  1  1
 28 30  1  0
 29 55  1  0
 29 56  1  0
 29 57  1  0
 30 31  1  0
 31 32  1  0
 31 58  1  1
 32 59  1  0
 32 60  1  0
 32 61  1  0
M  CHG  1  11  -1
M  END
>  <i_m_ct_stereo_status>  (73) 
1

>  <s_m_source_file>  (73) 
/var/tmp/pbs.5076253.sched01/tmp9xbr3gte/40_qt8sgg8.sdf

>  <i_m_source_file_index>  (73) 
20

>  <i_lp_mmshare_version>  (73) 
48012

>  <i_f3d_flags>  (73) 
0

>  <s_epik_input>  (73) 
W0NIM11bQ0BASF0xT1tDQF0xKFtDSDNdKVtDQEhdKE9bQ0gzXSlbQ0BdKE9bQ0gyXTIpKE9bQ0BASF0zT1tDSDNdKUM0PVtDSF1bQ0BASF0oW09IXSlbQ0BAXTUoW0NAQF0yMzQpT0MoW0NIM10pKFtDSDNdKVtDQEBIXShbQ0BASF02W0NIMl1PNilPQzU9Tw==

>  <s_epik_cmdline>  (73) 
J2VwaWtfcHl0aG9uJywgJy1waHQnLCAnMi4wJywgJy1waCcsICc3LjAnLCAnLXRuJywgJzgnLCAnLW1hJywgJzIwMCcsICctaW1hZScsICc8aW5maWxlLm1hZT4nLCAnLW9tYWUnLCAnPG91dGZpbGUubWFlPic=

>  <r_epik_Ionization_Penalty>  (73) 
2.02976

>  <r_epik_Ionization_Penalty_Charging>  (73) 
2.02976

>  <r_epik_Ionization_Penalty_Neutral>  (73) 
3.07452e-12

>  <r_epik_State_Penalty>  (73) 
2.16066

>  <r_epik_Charging_Adjusted_Penalty>  (73) 
4.19042

>  <i_epik_Tot_Q>  (73) 
-1

>  <i_epik_Tot_abs_Q>  (73) 
1

>  <s_epik_Chemistry_Notes>  (73) 
This compound has an ester and may undergo hydrolysis at high or low pH. This compound contains an acetal/aminal-like group ( X-CH(R)-Y where X, Y are N, S, or O) that may be acid/base labile, releasing an aldehyde.

>  <s_lp_Force_Field>  (73) 
OPLS3e

>  <r_lp_Energy>  (73) 
48.4424

>  <b_lp_Chiralities_Consistent>  (73) 
1

>  <s_lp_Variant>  (73) 
41:0-2

>  <s_i_glide_gridfile>  (73) 
pfpi4k_grid

>  <i_i_glide_lignum>  (73) 
20

>  <i_i_glide_rotatable_bonds>  (73) 
5

>  <r_i_docking_score>  (73) 
-2.38508

>  <r_i_glide_ligand_efficiency>  (73) 
-0.0745338

>  <r_i_glide_ligand_efficiency_sa>  (73) 
-0.23663

>  <r_i_glide_ligand_efficiency_ln>  (73) 
-0.534085

>  <r_i_glide_gscore>  (73) 
-2.38508

>  <r_i_glide_lipo>  (73) 
-0.0626456

>  <r_i_glide_hbond>  (73) 
-0.312516

>  <r_i_glide_metal>  (73) 
-0

>  <r_i_glide_rewards>  (73) 
-0.31732

>  <r_i_glide_evdw>  (73) 
-16.2427

>  <r_i_glide_ecoul>  (73) 
-10.1249

>  <r_i_glide_erotb>  (73) 
0.292862

>  <r_i_glide_esite>  (73) 
-0.00995135

>  <r_i_glide_emodel>  (73) 
-26.5629

>  <r_i_glide_energy>  (73) 
-26.3676

>  <r_i_glide_einternal>  (73) 
5.16812

>  <r_i_glide_intrahb_reward>  (73) 
-0

>  <i_i_glide_confnum>  (73) 
4

>  <i_i_glide_posenum>  (73) 
40

>  <r_i_glide_eff_state_penalty>  (73) 
0

>  <ligand_id>  (73) 
41

>  <original_smiles>  (73) 
COC(C12OCC3(C1=CC(O)C31OC(C)(C)C(C3CO3)OC1=O)C(OC)O2)C1(C)OC1C

>  <smiles>  (73) 
[H]C1=C2C3(C([H])(OC([H])([H])[H])C4(C([H])([H])[H])OC4([H])C([H])([H])[H])OC([H])([H])C2(C([H])(OC([H])([H])[H])O3)C2(OC(C([H])([H])[H])(C([H])([H])[H])C([H])(C3([H])OC3([H])[H])OC2=O)C1([H])[O-]

$$$$
41:1:1
     RDKit          3D

 61 66  0  0  1  0  0  0  0  0999 V2000
    0.8919   -9.6121    5.5988 C   0  0  0  0  0  0  0  0  0  0  0  0
    1.4187   -8.5618    4.7755 O   0  0  0  0  0  0  0  0  0  0  0  0
    0.6937   -8.3052    3.5767 C   0  0  2  0  0  0  0  0  0  0  0  0
    1.6176   -7.6109    2.5422 C   0  0  1  0  0  0  0  0  0  0  0  0
    0.9337   -7.0013    1.4817 O   0  0  0  0  0  0  0  0  0  0  0  0
    1.8638   -6.0911    0.8701 C   0  0  0  0  0  0  0  0  0  0  0  0
    3.1359   -6.2678    1.7336 C   0  0  2  0  0  0  0  0  0  0  0  0
    2.5429   -6.5363    3.0070 C   0  0  0  0  0  0  0  0  0  0  0  0
    2.9861   -5.8900    4.0724 C   0  0  0  0  0  0  0  0  0  0  0  0
    4.1603   -5.0535    3.6896 C   0  0  1  0  0  0  0  0  0  0  0  0
    5.2463   -5.5170    4.1441 O   0  0  0  0  0  0  0  0  0  0  0  0
    4.0672   -5.0245    2.0623 C   0  0  2  0  0  0  0  0  0  0  0  0
    3.4144   -3.7544    1.6466 O   0  0  0  0  0  0  0  0  0  0  0  0
    4.1383   -2.4636    1.7358 C   0  0  0  0  0  0  0  0  0  0  0  0
    3.3040   -1.3206    1.1125 C   0  0  0  0  0  0  0  0  0  0  0  0
    4.3695   -1.9820    3.1892 C   0  0  0  0  0  0  0  0  0  0  0  0
    5.4737   -2.6170    0.9688 C   0  0  1  0  0  0  0  0  0  0  0  0
    6.3776   -1.4285    1.1149 C   0  0  2  0  0  0  0  0  0  0  0  0
    6.2267   -0.2883    0.1618 C   0  0  0  0  0  0  0  0  0  0  0  0
    7.3158   -1.2334    0.0899 O   0  0  0  0  0  0  0  0  0  0  0  0
    6.1655   -3.7889    1.3724 O   0  0  0  0  0  0  0  0  0  0  0  0
    5.5070   -5.0233    1.3815 C   0  0  0  0  0  0  0  0  0  0  0  0
    6.0418   -6.0554    0.9079 O   0  0  0  0  0  0  0  0  0  0  0  0
    3.6362   -7.7195    1.4813 C   0  0  1  0  0  0  0  0  0  0  0  0
    4.7779   -7.9873    2.2304 O   0  0  0  0  0  0  0  0  0  0  0  0
    5.3320   -9.2671    1.9755 C   0  0  0  0  0  0  0  0  0  0  0  0
    2.5357   -8.4911    1.9524 O   0  0  0  0  0  0  0  0  0  0  0  0
   -0.6465   -7.5758    3.8434 C   0  0  1  0  0  0  0  0  0  0  0  0
   -0.7399   -6.8249    5.1689 C   0  0  0  0  0  0  0  0  0  0  0  0
   -1.2425   -6.8759    2.7308 O   0  0  0  0  0  0  0  0  0  0  0  0
   -1.9347   -8.0364    3.1659 C   0  0  1  0  0  0  0  0  0  0  0  0
   -1.9780   -9.1854    2.1949 C   0  0  0  0  0  0  0  0  0  0  0  0
    1.5894   -9.7742    6.4276 H   0  0  0  0  0  0  0  0  0  0  0  0
    0.7612  -10.5556    5.0575 H   0  0  0  0  0  0  0  0  0  0  0  0
   -0.0708   -9.3686    6.0405 H   0  0  0  0  0  0  0  0  0  0  0  0
    0.4920   -9.2680    3.1161 H   0  0  0  0  0  0  0  0  0  0  0  0
    2.0042   -6.3281   -0.1822 H   0  0  0  0  0  0  0  0  0  0  0  0
    1.4339   -5.0867    0.9199 H   0  0  0  0  0  0  0  0  0  0  0  0
    2.6795   -5.9531    5.1127 H   0  0  0  0  0  0  0  0  0  0  0  0
    3.7362   -4.0997    4.0245 H   0  0  0  0  0  0  0  0  0  0  0  0
    3.7427   -0.3587    1.3906 H   0  0  0  0  0  0  0  0  0  0  0  0
    2.2843   -1.2956    1.4960 H   0  0  0  0  0  0  0  0  0  0  0  0
    3.2645   -1.3334    0.0209 H   0  0  0  0  0  0  0  0  0  0  0  0
    4.7117   -0.9825    3.2959 H   0  0  0  0  0  0  0  0  0  0  0  0
    5.1366   -2.6224    3.6478 H   0  0  0  0  0  0  0  0  0  0  0  0
    3.4246   -2.0954    3.7339 H   0  0  0  0  0  0  0  0  0  0  0  0
    5.2706   -2.7735   -0.0919 H   0  0  0  0  0  0  0  0  0  0  0  0
    6.7323   -1.1836    2.1118 H   0  0  0  0  0  0  0  0  0  0  0  0
    5.5085   -0.3488   -0.6595 H   0  0  0  0  0  0  0  0  0  0  0  0
    6.5021    0.7069    0.4872 H   0  0  0  0  0  0  0  0  0  0  0  0
    3.8266   -7.9082    0.4291 H   0  0  0  0  0  0  0  0  0  0  0  0
    6.2221   -9.3914    2.5956 H   0  0  0  0  0  0  0  0  0  0  0  0
    5.6402   -9.3758    0.9323 H   0  0  0  0  0  0  0  0  0  0  0  0
    4.6365  -10.0728    2.2238 H   0  0  0  0  0  0  0  0  0  0  0  0
   -0.5383   -7.4670    6.0210 H   0  0  0  0  0  0  0  0  0  0  0  0
   -1.7600   -6.4328    5.2958 H   0  0  0  0  0  0  0  0  0  0  0  0
   -0.0269   -5.9919    5.1948 H   0  0  0  0  0  0  0  0  0  0  0  0
   -2.8770   -7.8065    3.6545 H   0  0  0  0  0  0  0  0  0  0  0  0
   -2.1735  -10.0995    2.7446 H   0  0  0  0  0  0  0  0  0  0  0  0
   -1.0209   -9.3111    1.6978 H   0  0  0  0  0  0  0  0  0  0  0  0
   -2.7523   -9.0554    1.4445 H   0  0  0  0  0  0  0  0  0  0  0  0
  1  2  1  0
  1 33  1  0
  1 34  1  0
  1 35  1  0
  2  3  1  0
  3  4  1  0
  3 28  1  0
  3 36  1  6
  4  8  1  0
  4 27  1  6
  4  5  1  0
  5  6  1  0
  7  6  1  6
  6 37  1  0
  6 38  1  0
  7 12  1  0
  7  8  1  0
  7 24  1  0
  8  9  2  0
  9 10  1  0
  9 39  1  0
 10 11  1  0
 10 12  1  0
 10 40  1  1
 12 22  1  0
 12 13  1  1
 13 14  1  0
 14 15  1  0
 14 16  1  0
 14 17  1  0
 15 41  1  0
 15 42  1  0
 15 43  1  0
 16 44  1  0
 16 45  1  0
 16 46  1  0
 17 18  1  0
 17 21  1  0
 17 47  1  6
 18 20  1  0
 18 19  1  0
 18 48  1  1
 19 20  1  0
 19 49  1  0
 19 50  1  0
 21 22  1  0
 22 23  2  0
 24 25  1  0
 24 27  1  0
 24 51  1  6
 25 26  1  0
 26 52  1  0
 26 53  1  0
 26 54  1  0
 28 31  1  0
 28 29  1  1
 28 30  1  0
 29 55  1  0
 29 56  1  0
 29 57  1  0
 30 31  1  0
 31 32  1  0
 31 58  1  1
 32 59  1  0
 32 60  1  0
 32 61  1  0
M  CHG  1  11  -1
M  END
>  <i_m_ct_stereo_status>  (74) 
1

>  <s_m_source_file>  (74) 
/var/tmp/pbs.5076253.sched01/tmp9xbr3gte/40_qt8sgg8.sdf

>  <i_m_source_file_index>  (74) 
20

>  <i_lp_mmshare_version>  (74) 
48012

>  <i_f3d_flags>  (74) 
0

>  <s_epik_input>  (74) 
W0NIM11bQ0BASF0xT1tDQF0xKFtDSDNdKVtDQEhdKE9bQ0gzXSlbQ0BdKE9bQ0gyXTIpKE9bQ0BASF0zT1tDSDNdKUM0PVtDSF1bQ0BASF0oW09IXSlbQ0BAXTUoW0NAQF0yMzQpT0MoW0NIM10pKFtDSDNdKVtDQEBIXShbQ0BASF02W0NIMl1PNilPQzU9Tw==

>  <s_epik_cmdline>  (74) 
J2VwaWtfcHl0aG9uJywgJy1waHQnLCAnMi4wJywgJy1waCcsICc3LjAnLCAnLXRuJywgJzgnLCAnLW1hJywgJzIwMCcsICctaW1hZScsICc8aW5maWxlLm1hZT4nLCAnLW9tYWUnLCAnPG91dGZpbGUubWFlPic=

>  <r_epik_Ionization_Penalty>  (74) 
2.02976

>  <r_epik_Ionization_Penalty_Charging>  (74) 
2.02976

>  <r_epik_Ionization_Penalty_Neutral>  (74) 
3.07452e-12

>  <r_epik_State_Penalty>  (74) 
2.16066

>  <r_epik_Charging_Adjusted_Penalty>  (74) 
4.19042

>  <i_epik_Tot_Q>  (74) 
-1

>  <i_epik_Tot_abs_Q>  (74) 
1

>  <s_epik_Chemistry_Notes>  (74) 
This compound has an ester and may undergo hydrolysis at high or low pH. This compound contains an acetal/aminal-like group ( X-CH(R)-Y where X, Y are N, S, or O) that may be acid/base labile, releasing an aldehyde.

>  <s_lp_Force_Field>  (74) 
OPLS3e

>  <r_lp_Energy>  (74) 
48.4424

>  <b_lp_Chiralities_Consistent>  (74) 
1

>  <s_lp_Variant>  (74) 
41:0-2

>  <s_i_glide_gridfile>  (74) 
pfpi4k_grid

>  <i_i_glide_lignum>  (74) 
20

>  <i_i_glide_rotatable_bonds>  (74) 
5

>  <r_i_docking_score>  (74) 
-2.2893

>  <r_i_glide_ligand_efficiency>  (74) 
-0.0715408

>  <r_i_glide_ligand_efficiency_sa>  (74) 
-0.227128

>  <r_i_glide_ligand_efficiency_ln>  (74) 
-0.512638

>  <r_i_glide_gscore>  (74) 
-2.2893

>  <r_i_glide_lipo>  (74) 
-0.488133

>  <r_i_glide_hbond>  (74) 
-0.241272

>  <r_i_glide_metal>  (74) 
-0

>  <r_i_glide_rewards>  (74) 
-0.428856

>  <r_i_glide_evdw>  (74) 
-21.3153

>  <r_i_glide_ecoul>  (74) 
-4.34863

>  <r_i_glide_erotb>  (74) 
0.292862

>  <r_i_glide_esite>  (74) 
-0.019014

>  <r_i_glide_emodel>  (74) 
-27.757

>  <r_i_glide_energy>  (74) 
-25.6639

>  <r_i_glide_einternal>  (74) 
0.884461

>  <r_i_glide_intrahb_reward>  (74) 
-0

>  <i_i_glide_confnum>  (74) 
1

>  <i_i_glide_posenum>  (74) 
24

>  <r_i_glide_eff_state_penalty>  (74) 
0

>  <ligand_id>  (74) 
41

>  <original_smiles>  (74) 
COC(C12OCC3(C1=CC(O)C31OC(C)(C)C(C3CO3)OC1=O)C(OC)O2)C1(C)OC1C

>  <smiles>  (74) 
[H]C1=C2C3(C([H])(OC([H])([H])[H])C4(C([H])([H])[H])OC4([H])C([H])([H])[H])OC([H])([H])C2(C([H])(OC([H])([H])[H])O3)C2(OC(C([H])([H])[H])(C([H])([H])[H])C([H])(C3([H])OC3([H])[H])OC2=O)C1([H])[O-]

$$$$
41:1:2
     RDKit          3D

 61 66  0  0  1  0  0  0  0  0999 V2000
   -1.5981   -4.4977    7.8758 C   0  0  0  0  0  0  0  0  0  0  0  0
   -0.9334   -4.7950    6.6490 O   0  0  0  0  0  0  0  0  0  0  0  0
    0.4878   -4.7096    6.7092 C   0  0  2  0  0  0  0  0  0  0  0  0
    0.9720   -3.2394    6.7064 C   0  0  1  0  0  0  0  0  0  0  0  0
    2.1297   -3.0511    5.9643 O   0  0  0  0  0  0  0  0  0  0  0  0
    2.2479   -1.6428    5.7289 C   0  0  0  0  0  0  0  0  0  0  0  0
    0.9785   -1.0789    6.4006 C   0  0  2  0  0  0  0  0  0  0  0  0
    0.0806   -2.1781    6.1840 C   0  0  0  0  0  0  0  0  0  0  0  0
   -1.1424   -1.9343    5.7515 C   0  0  0  0  0  0  0  0  0  0  0  0
   -1.3033   -0.4510    5.6729 C   0  0  1  0  0  0  0  0  0  0  0  0
   -2.1842    0.0842    6.5099 O   0  0  0  0  0  0  0  0  0  0  0  0
    0.1899    0.1560    5.7762 C   0  0  2  0  0  0  0  0  0  0  0  0
    0.6755    0.4534    4.4293 O   0  0  0  0  0  0  0  0  0  0  0  0
    0.1661    1.6046    3.6711 C   0  0  0  0  0  0  0  0  0  0  0  0
    0.9149    1.7877    2.3379 C   0  0  0  0  0  0  0  0  0  0  0  0
   -1.2965    1.4325    3.2171 C   0  0  0  0  0  0  0  0  0  0  0  0
    0.3304    2.8409    4.5779 C   0  0  1  0  0  0  0  0  0  0  0  0
   -0.2904    4.0966    3.9718 C   0  0  2  0  0  0  0  0  0  0  0  0
    0.5796    5.1179    3.2827 C   0  0  0  0  0  0  0  0  0  0  0  0
    0.0377    5.3415    4.5931 O   0  0  0  0  0  0  0  0  0  0  0  0
   -0.1763    2.5845    5.8806 O   0  0  0  0  0  0  0  0  0  0  0  0
    0.2444    1.5047    6.5711 C   0  0  0  0  0  0  0  0  0  0  0  0
    0.5124    1.5511    7.7679 O   0  0  0  0  0  0  0  0  0  0  0  0
    1.1676   -1.3382    7.9345 C   0  0  1  0  0  0  0  0  0  0  0  0
    0.0646   -0.9099    8.6671 O   0  0  0  0  0  0  0  0  0  0  0  0
    0.2507   -0.9269   10.0726 C   0  0  0  0  0  0  0  0  0  0  0  0
    1.2273   -2.7567    7.9973 O   0  0  0  0  0  0  0  0  0  0  0  0
    1.1530   -5.5986    5.6215 C   0  0  1  0  0  0  0  0  0  0  0  0
    0.3989   -5.6590    4.3019 C   0  0  0  0  0  0  0  0  0  0  0  0
    2.5932   -5.5239    5.5017 O   0  0  0  0  0  0  0  0  0  0  0  0
    2.0715   -6.7508    5.9899 C   0  0  1  0  0  0  0  0  0  0  0  0
    2.4090   -7.1015    7.4217 C   0  0  0  0  0  0  0  0  0  0  0  0
   -2.6688   -4.4453    7.6873 H   0  0  0  0  0  0  0  0  0  0  0  0
   -1.2970   -3.5432    8.3122 H   0  0  0  0  0  0  0  0  0  0  0  0
   -1.4260   -5.2797    8.6145 H   0  0  0  0  0  0  0  0  0  0  0  0
    0.7772   -5.0729    7.6902 H   0  0  0  0  0  0  0  0  0  0  0  0
    3.1709   -1.2653    6.1712 H   0  0  0  0  0  0  0  0  0  0  0  0
    2.2893   -1.5178    4.6483 H   0  0  0  0  0  0  0  0  0  0  0  0
   -1.9838   -2.5639    5.4919 H   0  0  0  0  0  0  0  0  0  0  0  0
   -1.5927   -0.4647    4.6430 H   0  0  0  0  0  0  0  0  0  0  0  0
    0.3620    2.5022    1.7212 H   0  0  0  0  0  0  0  0  0  0  0  0
    0.9557    0.8670    1.7548 H   0  0  0  0  0  0  0  0  0  0  0  0
    1.9177    2.1909    2.4521 H   0  0  0  0  0  0  0  0  0  0  0  0
   -1.7006    2.1684    2.5525 H   0  0  0  0  0  0  0  0  0  0  0  0
   -1.9586    1.5757    4.0688 H   0  0  0  0  0  0  0  0  0  0  0  0
   -1.4114    0.4368    2.7802 H   0  0  0  0  0  0  0  0  0  0  0  0
    1.3882    3.0454    4.7193 H   0  0  0  0  0  0  0  0  0  0  0  0
   -1.3261    4.0425    3.6435 H   0  0  0  0  0  0  0  0  0  0  0  0
    1.6538    4.9422    3.2520 H   0  0  0  0  0  0  0  0  0  0  0  0
    0.1665    5.7568    2.5025 H   0  0  0  0  0  0  0  0  0  0  0  0
    2.0914   -0.8936    8.3072 H   0  0  0  0  0  0  0  0  0  0  0  0
   -0.6529   -0.5563   10.5583 H   0  0  0  0  0  0  0  0  0  0  0  0
    1.0777   -0.2872   10.3891 H   0  0  0  0  0  0  0  0  0  0  0  0
    0.4310   -1.9418   10.4268 H   0  0  0  0  0  0  0  0  0  0  0  0
   -0.6295   -5.9781    4.4676 H   0  0  0  0  0  0  0  0  0  0  0  0
    0.8598   -6.3817    3.6240 H   0  0  0  0  0  0  0  0  0  0  0  0
    0.4009   -4.6907    3.8033 H   0  0  0  0  0  0  0  0  0  0  0  0
    2.1841   -7.5590    5.2683 H   0  0  0  0  0  0  0  0  0  0  0  0
    1.6826   -7.8252    7.7918 H   0  0  0  0  0  0  0  0  0  0  0  0
    2.3891   -6.2280    8.0697 H   0  0  0  0  0  0  0  0  0  0  0  0
    3.4123   -7.5080    7.5015 H   0  0  0  0  0  0  0  0  0  0  0  0
  1  2  1  0
  1 33  1  0
  1 34  1  0
  1 35  1  0
  2  3  1  0
  3  4  1  0
  3 28  1  0
  3 36  1  1
  4  8  1  0
  4 27  1  1
  4  5  1  0
  5  6  1  0
  7  6  1  6
  6 37  1  0
  6 38  1  0
  7 12  1  0
  7  8  1  0
  7 24  1  0
  8  9  2  0
  9 10  1  0
  9 39  1  0
 10 11  1  0
 10 12  1  0
 10 40  1  6
 12 22  1  0
 12 13  1  6
 13 14  1  0
 14 15  1  0
 14 16  1  0
 14 17  1  0
 15 41  1  0
 15 42  1  0
 15 43  1  0
 16 44  1  0
 16 45  1  0
 16 46  1  0
 17 18  1  0
 17 21  1  0
 17 47  1  1
 18 20  1  0
 18 19  1  0
 18 48  1  6
 19 20  1  0
 19 49  1  0
 19 50  1  0
 21 22  1  0
 22 23  2  0
 24 25  1  0
 24 27  1  0
 24 51  1  1
 25 26  1  0
 26 52  1  0
 26 53  1  0
 26 54  1  0
 28 31  1  0
 28 29  1  6
 28 30  1  0
 29 55  1  0
 29 56  1  0
 29 57  1  0
 30 31  1  0
 31 32  1  0
 31 58  1  6
 32 59  1  0
 32 60  1  0
 32 61  1  0
M  CHG  1  11  -1
M  END
>  <i_m_ct_stereo_status>  (75) 
1

>  <s_m_source_file>  (75) 
/var/tmp/pbs.5076253.sched01/tmp9xbr3gte/40_qt8sgg8.sdf

>  <i_m_source_file_index>  (75) 
20

>  <i_lp_mmshare_version>  (75) 
48012

>  <i_f3d_flags>  (75) 
0

>  <s_epik_input>  (75) 
W0NIM11bQ0BASF0xT1tDQF0xKFtDSDNdKVtDQEhdKE9bQ0gzXSlbQ0BdKE9bQ0gyXTIpKE9bQ0BASF0zT1tDSDNdKUM0PVtDSF1bQ0BASF0oW09IXSlbQ0BAXTUoW0NAQF0yMzQpT0MoW0NIM10pKFtDSDNdKVtDQEBIXShbQ0BASF02W0NIMl1PNilPQzU9Tw==

>  <s_epik_cmdline>  (75) 
J2VwaWtfcHl0aG9uJywgJy1waHQnLCAnMi4wJywgJy1waCcsICc3LjAnLCAnLXRuJywgJzgnLCAnLW1hJywgJzIwMCcsICctaW1hZScsICc8aW5maWxlLm1hZT4nLCAnLW9tYWUnLCAnPG91dGZpbGUubWFlPic=

>  <r_epik_Ionization_Penalty>  (75) 
2.02976

>  <r_epik_Ionization_Penalty_Charging>  (75) 
2.02976

>  <r_epik_Ionization_Penalty_Neutral>  (75) 
3.07452e-12

>  <r_epik_State_Penalty>  (75) 
2.16066

>  <r_epik_Charging_Adjusted_Penalty>  (75) 
4.19042

>  <i_epik_Tot_Q>  (75) 
-1

>  <i_epik_Tot_abs_Q>  (75) 
1

>  <s_epik_Chemistry_Notes>  (75) 
This compound has an ester and may undergo hydrolysis at high or low pH. This compound contains an acetal/aminal-like group ( X-CH(R)-Y where X, Y are N, S, or O) that may be acid/base labile, releasing an aldehyde.

>  <s_lp_Force_Field>  (75) 
OPLS3e

>  <r_lp_Energy>  (75) 
48.4424

>  <b_lp_Chiralities_Consistent>  (75) 
1

>  <s_lp_Variant>  (75) 
41:0-2

>  <s_i_glide_gridfile>  (75) 
pfpi4k_grid

>  <i_i_glide_lignum>  (75) 
20

>  <i_i_glide_rotatable_bonds>  (75) 
5

>  <r_i_docking_score>  (75) 
-1.95145

>  <r_i_glide_ligand_efficiency>  (75) 
-0.0609829

>  <r_i_glide_ligand_efficiency_sa>  (75) 
-0.193609

>  <r_i_glide_ligand_efficiency_ln>  (75) 
-0.436983

>  <r_i_glide_gscore>  (75) 
-1.95145

>  <r_i_glide_lipo>  (75) 
0

>  <r_i_glide_hbond>  (75) 
-0.259012

>  <r_i_glide_metal>  (75) 
-0

>  <r_i_glide_rewards>  (75) 
-0.31732

>  <r_i_glide_evdw>  (75) 
-18.1558

>  <r_i_glide_ecoul>  (75) 
-8.67852

>  <r_i_glide_erotb>  (75) 
0.292862

>  <r_i_glide_esite>  (75) 
-0.0143042

>  <r_i_glide_emodel>  (75) 
-27.4682

>  <r_i_glide_energy>  (75) 
-26.8343

>  <r_i_glide_einternal>  (75) 
1.29164

>  <r_i_glide_intrahb_reward>  (75) 
-0

>  <i_i_glide_confnum>  (75) 
3

>  <i_i_glide_posenum>  (75) 
16

>  <r_i_glide_eff_state_penalty>  (75) 
0

>  <ligand_id>  (75) 
41

>  <original_smiles>  (75) 
COC(C12OCC3(C1=CC(O)C31OC(C)(C)C(C3CO3)OC1=O)C(OC)O2)C1(C)OC1C

>  <smiles>  (75) 
[H]C1=C2C3(C([H])(OC([H])([H])[H])C4(C([H])([H])[H])OC4([H])C([H])([H])[H])OC([H])([H])C2(C([H])(OC([H])([H])[H])O3)C2(OC(C([H])([H])[H])(C([H])([H])[H])C([H])(C3([H])OC3([H])[H])OC2=O)C1([H])[O-]

$$$$
43:0:0
     RDKit          3D

 81 89  0  0  1  0  0  0  0  0999 V2000
   -1.4405   -9.1738    2.3181 C   0  0  0  0  0  0  0  0  0  0  0  0
   -0.4024   -8.7688    3.2066 O   0  0  0  0  0  0  0  0  0  0  0  0
    0.8617   -9.0105    2.6792 C   0  0  2  0  0  0  0  0  0  0  0  0
    1.1061  -10.3692    2.4783 O   0  0  0  0  0  0  0  0  0  0  0  0
    2.3381  -10.7649    3.0717 C   0  0  0  0  0  0  0  0  0  0  0  0
    3.1045   -9.4677    3.2794 C   0  0  1  0  0  0  0  0  0  0  0  0
    4.0038   -9.6160    4.3750 O   0  0  0  0  0  0  0  0  0  0  0  0
    3.8684   -9.0343    2.0052 C   0  0  0  0  0  0  0  0  0  0  0  0
    4.9182   -9.9133    1.6256 O   0  0  0  0  0  0  0  0  0  0  0  0
    1.9529   -8.5107    3.6504 C   0  0  1  0  0  0  0  0  0  0  0  0
    2.2835   -7.1451    3.3742 O   0  0  0  0  0  0  0  0  0  0  0  0
    3.0015   -6.5117    4.4325 C   0  0  0  0  0  0  0  0  0  0  0  0
    3.6104   -5.1329    4.0301 C   0  0  2  0  0  0  0  0  0  0  0  0
    2.2938   -4.0241    4.0136 C   0  0  2  0  0  0  0  0  0  0  0  0
    1.7653   -2.8101    3.0083 C   0  0  0  0  0  0  0  0  0  0  0  0
    2.2877   -1.4455    2.6375 O   0  0  0  0  0  0  0  0  0  0  0  0
    3.3963   -1.4585    1.7659 C   0  0  1  0  0  0  0  0  0  0  0  0
    3.7856   -0.5602    0.6518 C   0  0  0  0  0  0  0  0  0  0  0  0
    4.8400   -1.6449    0.0915 C   0  0  1  0  0  0  0  0  0  0  0  0
    6.0076   -1.8656    0.9038 O   0  0  0  0  0  0  0  0  0  0  0  0
    5.6936   -2.0053    2.2640 C   0  0  1  0  0  0  0  0  0  0  0  0
    4.5764   -1.2398    2.5247 O   0  0  0  0  0  0  0  0  0  0  0  0
    5.1849   -3.3512    2.7846 C   0  0  2  0  0  0  0  0  0  0  0  0
    5.8914   -4.5291    2.7623 O   0  0  0  0  0  0  0  0  0  0  0  0
    4.7850   -5.4932    2.8771 C   0  0  2  0  0  0  0  0  0  0  0  0
    4.4591   -5.3978    1.4010 C   0  0  1  0  0  0  0  0  0  0  0  0
    5.5615   -5.8912    0.4378 C   0  0  0  0  0  0  0  0  0  0  0  0
    3.2573   -6.0386    0.9908 O   0  0  0  0  0  0  0  0  0  0  0  0
    4.3169   -3.9143    1.5533 C   0  0  2  0  0  0  0  0  0  0  0  0
    4.1839   -3.0300    0.2674 C   0  0  1  0  0  0  0  0  0  0  0  0
    3.0927   -2.4684    0.8485 O   0  0  0  0  0  0  0  0  0  0  0  0
    4.7762   -3.2359    4.3403 C   0  0  0  0  0  0  0  0  0  0  0  0
    4.4883   -2.0768    5.0204 C   0  0  0  0  0  0  0  0  0  0  0  0
    3.6723   -2.0549    6.1263 O   0  0  0  0  0  0  0  0  0  0  0  0
    2.9306   -3.2296    6.4813 C   0  0  1  0  0  0  0  0  0  0  0  0
    2.3235   -2.7279    7.8285 C   0  0  0  0  0  0  0  0  0  0  0  0
    1.3215   -3.5402    8.3976 O   0  0  0  0  0  0  0  0  0  0  0  0
    1.8335   -3.6476    5.4642 C   0  0  0  0  0  0  0  0  0  0  0  0
    3.9991   -4.3244    6.5513 C   0  0  1  0  0  0  0  0  0  0  0  0
    3.7442   -5.6128    7.3722 C   0  0  0  0  0  0  0  0  0  0  0  0
    2.6348   -5.9695    7.7504 O   0  0  0  0  0  0  0  0  0  0  0  0
    4.5700   -4.5468    5.1020 C   0  0  1  0  0  0  0  0  0  0  0  0
    5.9173   -5.3238    5.4084 C   0  0  0  0  0  0  0  0  0  0  0  0
   -2.4107   -8.9881    2.7742 H   0  0  0  0  0  0  0  0  0  0  0  0
   -1.3839  -10.2373    2.0884 H   0  0  0  0  0  0  0  0  0  0  0  0
   -1.4012   -8.6267    1.3750 H   0  0  0  0  0  0  0  0  0  0  0  0
    0.9604   -8.5216    1.7067 H   0  0  0  0  0  0  0  0  0  0  0  0
    2.1328  -11.2615    4.0206 H   0  0  0  0  0  0  0  0  0  0  0  0
    2.8879  -11.4660    2.4453 H   0  0  0  0  0  0  0  0  0  0  0  0
    3.5393   -9.9515    5.1124 H   0  0  0  0  0  0  0  0  0  0  0  0
    3.1966   -8.9309    1.1500 H   0  0  0  0  0  0  0  0  0  0  0  0
    4.3301   -8.0763    2.1731 H   0  0  0  0  0  0  0  0  0  0  0  0
    4.5796  -10.7220    1.2743 H   0  0  0  0  0  0  0  0  0  0  0  0
    1.5771   -8.6704    4.6645 H   0  0  0  0  0  0  0  0  0  0  0  0
    2.2882   -6.4149    5.2515 H   0  0  0  0  0  0  0  0  0  0  0  0
    3.8025   -7.1463    4.8004 H   0  0  0  0  0  0  0  0  0  0  0  0
    1.5077   -4.7160    3.7163 H   0  0  0  0  0  0  0  0  0  0  0  0
    1.4115   -3.3053    2.1057 H   0  0  0  0  0  0  0  0  0  0  0  0
    0.7951   -2.5252    3.4053 H   0  0  0  0  0  0  0  0  0  0  0  0
    2.9410   -0.3962   -0.0068 H   0  0  0  0  0  0  0  0  0  0  0  0
    4.2153    0.3864    0.9860 H   0  0  0  0  0  0  0  0  0  0  0  0
    5.1215   -1.4359   -0.9432 H   0  0  0  0  0  0  0  0  0  0  0  0
    6.5107   -1.6024    2.8485 H   0  0  0  0  0  0  0  0  0  0  0  0
    5.2651   -6.4409    3.1153 H   0  0  0  0  0  0  0  0  0  0  0  0
    6.5235   -5.3978    0.5820 H   0  0  0  0  0  0  0  0  0  0  0  0
    5.2697   -5.7328   -0.6033 H   0  0  0  0  0  0  0  0  0  0  0  0
    5.7295   -6.9625    0.5570 H   0  0  0  0  0  0  0  0  0  0  0  0
    3.3946   -6.9657    1.0324 H   0  0  0  0  0  0  0  0  0  0  0  0
    3.3191   -4.0792    1.9012 H   0  0  0  0  0  0  0  0  0  0  0  0
    3.9006   -3.5460   -0.6493 H   0  0  0  0  0  0  0  0  0  0  0  0
    4.6324   -1.0783    4.6840 H   0  0  0  0  0  0  0  0  0  0  0  0
    3.1137   -2.5313    8.5594 H   0  0  0  0  0  0  0  0  0  0  0  0
    1.8178   -1.7692    7.6532 H   0  0  0  0  0  0  0  0  0  0  0  0
    1.6909   -4.4309    8.4751 H   0  0  0  0  0  0  0  0  0  0  0  0
    1.0749   -2.8676    5.4543 H   0  0  0  0  0  0  0  0  0  0  0  0
    1.3178   -4.5151    5.8712 H   0  0  0  0  0  0  0  0  0  0  0  0
    4.7874   -3.8452    7.1288 H   0  0  0  0  0  0  0  0  0  0  0  0
    4.6403   -6.2028    7.5889 H   0  0  0  0  0  0  0  0  0  0  0  0
    5.7527   -6.3923    5.5203 H   0  0  0  0  0  0  0  0  0  0  0  0
    6.3677   -4.9927    6.3420 H   0  0  0  0  0  0  0  0  0  0  0  0
    6.7301   -5.2120    4.7005 H   0  0  0  0  0  0  0  0  0  0  0  0
  1  2  1  0
  1 44  1  0
  1 45  1  0
  1 46  1  0
  2  3  1  0
  3 10  1  0
  3  4  1  0
  3 47  1  6
  4  5  1  0
  5  6  1  0
  5 48  1  0
  5 49  1  0
  6  7  1  1
  6  8  1  0
  6 10  1  0
  7 50  1  0
  8  9  1  0
  8 51  1  0
  8 52  1  0
  9 53  1  0
 10 11  1  0
 10 54  1  1
 11 12  1  0
 13 12  1  1
 12 55  1  0
 12 56  1  0
 13 25  1  0
 13 42  1  0
 13 14  1  0
 14 38  1  0
 14 15  1  0
 14 57  1  6
 15 16  1  0
 15 58  1  0
 15 59  1  0
 17 16  1  1
 17 22  1  0
 17 31  1  0
 17 18  1  0
 18 19  1  0
 18 60  1  0
 18 61  1  0
 19 30  1  0
 19 20  1  0
 19 62  1  6
 20 21  1  0
 21 22  1  0
 21 23  1  0
 21 63  1  1
 23 29  1  0
 23 24  1  0
 23 32  1  1
 24 25  1  0
 25 26  1  0
 25 64  1  1
 26 27  1  0
 26 28  1  1
 26 29  1  0
 27 65  1  0
 27 66  1  0
 27 67  1  0
 28 68  1  0
 29 30  1  0
 29 69  1  1
 30 31  1  0
 30 70  1  6
 32 42  1  0
 32 33  2  0
 33 34  1  0
 33 71  1  0
 34 35  1  0
 35 36  1  1
 35 38  1  0
 35 39  1  0
 36 37  1  0
 36 72  1  0
 36 73  1  0
 37 74  1  0
 38 75  1  0
 38 76  1  0
 39 40  1  0
 39 42  1  0
 39 77  1  1
 40 41  2  0
 40 78  1  0
 42 43  1  1
 43 79  1  0
 43 80  1  0
 43 81  1  0
M  END
>  <i_m_ct_stereo_status>  (76) 
1

>  <s_m_source_file>  (76) 
/var/tmp/pbs.5076253.sched01/tmp9xbr3gte/40_qt8sgg8.sdf

>  <i_m_source_file_index>  (76) 
22

>  <i_lp_mmshare_version>  (76) 
48012

>  <i_f3d_flags>  (76) 
0

>  <s_epik_input>  (76) 
W09IXVtDSDJdW0NAXTEoW09IXSlbQ0gyXU9bQ0BASF0oT1tDSDNdKVtDQEBIXTFPW0NIMl1bQ0BdMihbQ0BASF0zW0NIMl1PW0NAQF00NTYpW0NAQEhdN09bQ0BAXTgoQz05W0NAQF0yKFtDSDNdKVtDQEhdKFtDSF09TylbQ0BdKFtDSDJdMykoT1tDSF05KVtDSDJdW09IXSlbQ0BIXShPNSlPW0NASF0oW0NIMl00KVtDQEhdKE82KVtDQEhdOFtDQF03KFtDSDNdKVtPSF0=

>  <s_epik_cmdline>  (76) 
J2VwaWtfcHl0aG9uJywgJy1waHQnLCAnMi4wJywgJy1waCcsICc3LjAnLCAnLXRuJywgJzgnLCAnLW1hJywgJzIwMCcsICctaW1hZScsICc8aW5maWxlLm1hZT4nLCAnLW9tYWUnLCAnPG91dGZpbGUubWFlPic=

>  <r_lp_tautomer_probability>  (76) 
1

>  <r_epik_Ionization_Penalty>  (76) 
0.000200265

>  <r_epik_Ionization_Penalty_Charging>  (76) 
0

>  <r_epik_Ionization_Penalty_Neutral>  (76) 
0.000200265

>  <r_epik_State_Penalty>  (76) 
-0

>  <r_epik_Charging_Adjusted_Penalty>  (76) 
0

>  <i_epik_Tot_Q>  (76) 
0

>  <i_epik_Tot_abs_Q>  (76) 
0

>  <s_epik_Chemistry_Notes>  (76) 
This compound contains an acetal/aminal-like group ( X-CH(R)-Y where X, Y are N, S, or O) that may be acid/base labile, releasing an aldehyde.

>  <s_lp_Force_Field>  (76) 
OPLS3e

>  <r_lp_Energy>  (76) 
294.055

>  <b_lp_Chiralities_Consistent>  (76) 
1

>  <s_lp_Variant>  (76) 
43:0-1

>  <s_i_glide_gridfile>  (76) 
pfpi4k_grid

>  <i_i_glide_lignum>  (76) 
22

>  <i_i_glide_rotatable_bonds>  (76) 
11

>  <r_i_docking_score>  (76) 
-2.98302

>  <r_i_glide_ligand_efficiency>  (76) 
-0.0693725

>  <r_i_glide_ligand_efficiency_sa>  (76) 
-0.243039

>  <r_i_glide_ligand_efficiency_ln>  (76) 
-0.626526

>  <r_i_glide_gscore>  (76) 
-2.98302

>  <r_i_glide_lipo>  (76) 
-0.527371

>  <r_i_glide_hbond>  (76) 
0

>  <r_i_glide_metal>  (76) 
-0

>  <r_i_glide_rewards>  (76) 
-0.595264

>  <r_i_glide_evdw>  (76) 
-24.8616

>  <r_i_glide_ecoul>  (76) 
-5.00014

>  <r_i_glide_erotb>  (76) 
0.15742

>  <r_i_glide_esite>  (76) 
-0.0247032

>  <r_i_glide_emodel>  (76) 
-39.5618

>  <r_i_glide_energy>  (76) 
-29.8617

>  <r_i_glide_einternal>  (76) 
3.018

>  <r_i_glide_intrahb_reward>  (76) 
-0.5

>  <i_i_glide_confnum>  (76) 
3

>  <i_i_glide_posenum>  (76) 
16

>  <r_i_glide_eff_state_penalty>  (76) 
0

>  <ligand_id>  (76) 
43

>  <original_smiles>  (76) 
COC1OCC(O)(CO)C1OCC12C3COC45CC6OC(O4)C4(OC1C(C)(O)C4C6O5)C1=COC(CO)(C3)C(C=O)C12C

>  <smiles>  (76) 
[H]OC([H])([H])C1(O[H])C([H])([H])OC([H])(OC([H])([H])[H])C1([H])OC([H])([H])C12C3([H])OC45C6=C([H])OC(C([H])([H])O[H])(C([H])([H])C1([H])C([H])([H])OC17OC4([H])OC([H])(C1([H])[H])C([H])(O7)C5([H])C3(O[H])C([H])([H])[H])C([H])(C([H])=O)C62C([H])([H])[H]

$$$$
43:0:1
     RDKit          3D

 81 89  0  0  1  0  0  0  0  0999 V2000
   -1.7817   -8.9969    2.1338 C   0  0  0  0  0  0  0  0  0  0  0  0
   -1.2308   -8.4880    3.3313 O   0  0  0  0  0  0  0  0  0  0  0  0
    0.0953   -8.8692    3.4965 C   0  0  2  0  0  0  0  0  0  0  0  0
    0.2489  -10.2459    3.6544 O   0  0  0  0  0  0  0  0  0  0  0  0
    0.9652  -10.5410    4.8457 C   0  0  0  0  0  0  0  0  0  0  0  0
    1.7273   -9.2569    5.1685 C   0  0  1  0  0  0  0  0  0  0  0  0
    1.9356   -9.1802    6.5649 O   0  0  0  0  0  0  0  0  0  0  0  0
    3.0533   -9.1401    4.3655 C   0  0  0  0  0  0  0  0  0  0  0  0
    3.9605  -10.1588    4.6965 O   0  0  0  0  0  0  0  0  0  0  0  0
    0.6802   -8.2063    4.7568 C   0  0  1  0  0  0  0  0  0  0  0  0
    1.2524   -6.9308    4.4239 O   0  0  0  0  0  0  0  0  0  0  0  0
    1.6328   -6.1513    5.5574 C   0  0  0  0  0  0  0  0  0  0  0  0
    2.3116   -4.7970    5.1841 C   0  0  2  0  0  0  0  0  0  0  0  0
    1.0239   -3.6773    4.9279 C   0  0  2  0  0  0  0  0  0  0  0  0
    0.6602   -2.5006    3.8133 C   0  0  0  0  0  0  0  0  0  0  0  0
    1.2457   -1.1551    3.4670 O   0  0  0  0  0  0  0  0  0  0  0  0
    2.4746   -1.2157    2.7709 C   0  0  1  0  0  0  0  0  0  0  0  0
    3.0363   -0.3657    1.6868 C   0  0  0  0  0  0  0  0  0  0  0  0
    4.1457   -1.4808    1.3418 C   0  0  1  0  0  0  0  0  0  0  0  0
    5.1756   -1.6792    2.3216 O   0  0  0  0  0  0  0  0  0  0  0  0
    4.6650   -1.7636    3.6292 C   0  0  1  0  0  0  0  0  0  0  0  0
    3.5410   -0.9778    3.6862 O   0  0  0  0  0  0  0  0  0  0  0  0
    4.0674   -3.0846    4.1127 C   0  0  2  0  0  0  0  0  0  0  0  0
    4.7657   -4.2617    4.2448 O   0  0  0  0  0  0  0  0  0  0  0  0
    3.6377   -5.2104    4.2266 C   0  0  2  0  0  0  0  0  0  0  0  0
    3.5247   -5.1825    2.7188 C   0  0  1  0  0  0  0  0  0  0  0  0
    4.7506   -5.7235    1.9496 C   0  0  0  0  0  0  0  0  0  0  0  0
    2.3965   -5.8538    2.1734 O   0  0  0  0  0  0  0  0  0  0  0  0
    3.3734   -3.6904    2.7941 C   0  0  2  0  0  0  0  0  0  0  0  0
    3.4479   -2.8502    1.4705 C   0  0  1  0  0  0  0  0  0  0  0  0
    2.2891   -2.2592    1.8693 O   0  0  0  0  0  0  0  0  0  0  0  0
    3.4406   -2.8820    5.5882 C   0  0  0  0  0  0  0  0  0  0  0  0
    3.0779   -1.7237    6.1768 C   0  0  0  0  0  0  0  0  0  0  0  0
    2.1182   -1.6257    7.1439 O   0  0  0  0  0  0  0  0  0  0  0  0
    1.3078   -2.7850    7.4316 C   0  0  1  0  0  0  0  0  0  0  0  0
    0.5355   -2.2413    8.6705 C   0  0  0  0  0  0  0  0  0  0  0  0
   -0.5817   -3.0146    9.0635 O   0  0  0  0  0  0  0  0  0  0  0  0
    0.3673   -3.2293    6.2806 C   0  0  0  0  0  0  0  0  0  0  0  0
    2.3340   -3.8744    7.6925 C   0  0  1  0  0  0  0  0  0  0  0  0
    1.8978   -5.1145    8.5263 C   0  0  0  0  0  0  0  0  0  0  0  0
    0.7287   -5.3930    8.7530 O   0  0  0  0  0  0  0  0  0  0  0  0
    3.1061   -4.1751    6.3621 C   0  0  1  0  0  0  0  0  0  0  0  0
    4.3803   -4.9483    6.8939 C   0  0  0  0  0  0  0  0  0  0  0  0
   -2.8148   -8.6775    2.0270 H   0  0  0  0  0  0  0  0  0  0  0  0
   -1.7680  -10.0887    2.1086 H   0  0  0  0  0  0  0  0  0  0  0  0
   -1.2424   -8.6295    1.2624 H   0  0  0  0  0  0  0  0  0  0  0  0
    0.6863   -8.5993    2.6141 H   0  0  0  0  0  0  0  0  0  0  0  0
    0.2585  -10.7855    5.6433 H   0  0  0  0  0  0  0  0  0  0  0  0
    1.6199  -11.4054    4.7161 H   0  0  0  0  0  0  0  0  0  0  0  0
    2.2395  -10.0317    6.8692 H   0  0  0  0  0  0  0  0  0  0  0  0
    2.8734   -9.1867    3.2941 H   0  0  0  0  0  0  0  0  0  0  0  0
    3.5510   -8.1988    4.5477 H   0  0  0  0  0  0  0  0  0  0  0  0
    3.5569  -11.0058    4.5408 H   0  0  0  0  0  0  0  0  0  0  0  0
   -0.1285   -8.1258    5.4947 H   0  0  0  0  0  0  0  0  0  0  0  0
    0.7320   -5.9947    6.1565 H   0  0  0  0  0  0  0  0  0  0  0  0
    2.3173   -6.7174    6.1861 H   0  0  0  0  0  0  0  0  0  0  0  0
    0.2809   -4.3782    4.5460 H   0  0  0  0  0  0  0  0  0  0  0  0
    0.4196   -3.0241    2.8881 H   0  0  0  0  0  0  0  0  0  0  0  0
   -0.3512   -2.1860    4.0672 H   0  0  0  0  0  0  0  0  0  0  0  0
    2.3113   -0.2130    0.8847 H   0  0  0  0  0  0  0  0  0  0  0  0
    3.4256    0.5900    2.0478 H   0  0  0  0  0  0  0  0  0  0  0  0
    4.5762   -1.3212    0.3505 H   0  0  0  0  0  0  0  0  0  0  0  0
    5.4177   -1.3810    4.3212 H   0  0  0  0  0  0  0  0  0  0  0  0
    4.0499   -6.1617    4.5477 H   0  0  0  0  0  0  0  0  0  0  0  0
    5.6838   -5.2295    2.2174 H   0  0  0  0  0  0  0  0  0  0  0  0
    4.6163   -5.6030    0.8731 H   0  0  0  0  0  0  0  0  0  0  0  0
    4.8815   -6.7905    2.1351 H   0  0  0  0  0  0  0  0  0  0  0  0
    2.5222   -6.7834    2.3013 H   0  0  0  0  0  0  0  0  0  0  0  0
    2.3361   -3.8375    2.9837 H   0  0  0  0  0  0  0  0  0  0  0  0
    3.2910   -3.4025    0.5409 H   0  0  0  0  0  0  0  0  0  0  0  0
    3.2818   -0.7150    5.8209 H   0  0  0  0  0  0  0  0  0  0  0  0
    1.2021   -2.1141    9.5274 H   0  0  0  0  0  0  0  0  0  0  0  0
    0.1441   -1.2505    8.4274 H   0  0  0  0  0  0  0  0  0  0  0  0
   -0.2983   -3.9158    9.1356 H   0  0  0  0  0  0  0  0  0  0  0  0
   -0.3710   -2.4431    6.1345 H   0  0  0  0  0  0  0  0  0  0  0  0
   -0.2205   -4.0738    6.6374 H   0  0  0  0  0  0  0  0  0  0  0  0
    3.0387   -3.3937    8.3695 H   0  0  0  0  0  0  0  0  0  0  0  0
    2.7255   -5.7155    8.9108 H   0  0  0  0  0  0  0  0  0  0  0  0
    4.1892   -6.0126    7.0274 H   0  0  0  0  0  0  0  0  0  0  0  0
    4.6933   -4.5826    7.8721 H   0  0  0  0  0  0  0  0  0  0  0  0
    5.2915   -4.8736    6.3128 H   0  0  0  0  0  0  0  0  0  0  0  0
  1  2  1  0
  1 44  1  0
  1 45  1  0
  1 46  1  0
  2  3  1  0
  3 10  1  0
  3  4  1  0
  3 47  1  6
  4  5  1  0
  5  6  1  0
  5 48  1  0
  5 49  1  0
  6  7  1  1
  6  8  1  0
  6 10  1  0
  7 50  1  0
  8  9  1  0
  8 51  1  0
  8 52  1  0
  9 53  1  0
 10 11  1  0
 10 54  1  1
 11 12  1  0
 13 12  1  1
 12 55  1  0
 12 56  1  0
 13 25  1  0
 13 42  1  0
 13 14  1  0
 14 38  1  0
 14 15  1  0
 14 57  1  6
 15 16  1  0
 15 58  1  0
 15 59  1  0
 17 16  1  1
 17 22  1  0
 17 31  1  0
 17 18  1  0
 18 19  1  0
 18 60  1  0
 18 61  1  0
 19 30  1  0
 19 20  1  0
 19 62  1  6
 20 21  1  0
 21 22  1  0
 21 23  1  0
 21 63  1  1
 23 29  1  0
 23 24  1  0
 23 32  1  1
 24 25  1  0
 25 26  1  0
 25 64  1  1
 26 27  1  0
 26 28  1  1
 26 29  1  0
 27 65  1  0
 27 66  1  0
 27 67  1  0
 28 68  1  0
 29 30  1  0
 29 69  1  1
 30 31  1  0
 30 70  1  6
 32 42  1  0
 32 33  2  0
 33 34  1  0
 33 71  1  0
 34 35  1  0
 35 36  1  1
 35 38  1  0
 35 39  1  0
 36 37  1  0
 36 72  1  0
 36 73  1  0
 37 74  1  0
 38 75  1  0
 38 76  1  0
 39 40  1  0
 39 42  1  0
 39 77  1  1
 40 41  2  0
 40 78  1  0
 42 43  1  1
 43 79  1  0
 43 80  1  0
 43 81  1  0
M  END
>  <i_m_ct_stereo_status>  (77) 
1

>  <s_m_source_file>  (77) 
/var/tmp/pbs.5076253.sched01/tmp9xbr3gte/40_qt8sgg8.sdf

>  <i_m_source_file_index>  (77) 
22

>  <i_lp_mmshare_version>  (77) 
48012

>  <i_f3d_flags>  (77) 
0

>  <s_epik_input>  (77) 
W09IXVtDSDJdW0NAXTEoW09IXSlbQ0gyXU9bQ0BASF0oT1tDSDNdKVtDQEBIXTFPW0NIMl1bQ0BdMihbQ0BASF0zW0NIMl1PW0NAQF00NTYpW0NAQEhdN09bQ0BAXTgoQz05W0NAQF0yKFtDSDNdKVtDQEhdKFtDSF09TylbQ0BdKFtDSDJdMykoT1tDSF05KVtDSDJdW09IXSlbQ0BIXShPNSlPW0NASF0oW0NIMl00KVtDQEhdKE82KVtDQEhdOFtDQF03KFtDSDNdKVtPSF0=

>  <s_epik_cmdline>  (77) 
J2VwaWtfcHl0aG9uJywgJy1waHQnLCAnMi4wJywgJy1waCcsICc3LjAnLCAnLXRuJywgJzgnLCAnLW1hJywgJzIwMCcsICctaW1hZScsICc8aW5maWxlLm1hZT4nLCAnLW9tYWUnLCAnPG91dGZpbGUubWFlPic=

>  <r_lp_tautomer_probability>  (77) 
1

>  <r_epik_Ionization_Penalty>  (77) 
0.000200265

>  <r_epik_Ionization_Penalty_Charging>  (77) 
0

>  <r_epik_Ionization_Penalty_Neutral>  (77) 
0.000200265

>  <r_epik_State_Penalty>  (77) 
-0

>  <r_epik_Charging_Adjusted_Penalty>  (77) 
0

>  <i_epik_Tot_Q>  (77) 
0

>  <i_epik_Tot_abs_Q>  (77) 
0

>  <s_epik_Chemistry_Notes>  (77) 
This compound contains an acetal/aminal-like group ( X-CH(R)-Y where X, Y are N, S, or O) that may be acid/base labile, releasing an aldehyde.

>  <s_lp_Force_Field>  (77) 
OPLS3e

>  <r_lp_Energy>  (77) 
294.055

>  <b_lp_Chiralities_Consistent>  (77) 
1

>  <s_lp_Variant>  (77) 
43:0-1

>  <s_i_glide_gridfile>  (77) 
pfpi4k_grid

>  <i_i_glide_lignum>  (77) 
22

>  <i_i_glide_rotatable_bonds>  (77) 
11

>  <r_i_docking_score>  (77) 
-2.94613

>  <r_i_glide_ligand_efficiency>  (77) 
-0.0685146

>  <r_i_glide_ligand_efficiency_sa>  (77) 
-0.240034

>  <r_i_glide_ligand_efficiency_ln>  (77) 
-0.618778

>  <r_i_glide_gscore>  (77) 
-2.94613

>  <r_i_glide_lipo>  (77) 
-0.274258

>  <r_i_glide_hbond>  (77) 
0

>  <r_i_glide_metal>  (77) 
-0

>  <r_i_glide_rewards>  (77) 
-0.555326

>  <r_i_glide_evdw>  (77) 
-24.1453

>  <r_i_glide_ecoul>  (77) 
-6.81342

>  <r_i_glide_erotb>  (77) 
0.15742

>  <r_i_glide_esite>  (77) 
-0.0446842

>  <r_i_glide_emodel>  (77) 
-40.1521

>  <r_i_glide_energy>  (77) 
-30.9587

>  <r_i_glide_einternal>  (77) 
4.19525

>  <r_i_glide_intrahb_reward>  (77) 
-0.5

>  <i_i_glide_confnum>  (77) 
3

>  <i_i_glide_posenum>  (77) 
18

>  <r_i_glide_eff_state_penalty>  (77) 
0

>  <ligand_id>  (77) 
43

>  <original_smiles>  (77) 
COC1OCC(O)(CO)C1OCC12C3COC45CC6OC(O4)C4(OC1C(C)(O)C4C6O5)C1=COC(CO)(C3)C(C=O)C12C

>  <smiles>  (77) 
[H]OC([H])([H])C1(O[H])C([H])([H])OC([H])(OC([H])([H])[H])C1([H])OC([H])([H])C12C3([H])OC45C6=C([H])OC(C([H])([H])O[H])(C([H])([H])C1([H])C([H])([H])OC17OC4([H])OC([H])(C1([H])[H])C([H])(O7)C5([H])C3(O[H])C([H])([H])[H])C([H])(C([H])=O)C62C([H])([H])[H]

$$$$
43:0:2
     RDKit          3D

 81 89  0  0  1  0  0  0  0  0999 V2000
    5.1499   -4.2021    5.2997 C   0  0  0  0  0  0  0  0  0  0  0  0
    5.2503   -2.8778    4.7885 O   0  0  0  0  0  0  0  0  0  0  0  0
    4.5555   -2.7169    3.5988 C   0  0  2  0  0  0  0  0  0  0  0  0
    5.1214   -3.4472    2.5515 O   0  0  0  0  0  0  0  0  0  0  0  0
    5.3731   -2.6081    1.4308 C   0  0  0  0  0  0  0  0  0  0  0  0
    4.4893   -1.3817    1.6570 C   0  0  1  0  0  0  0  0  0  0  0  0
    5.0655   -0.2453    1.0484 O   0  0  0  0  0  0  0  0  0  0  0  0
    3.0409   -1.5754    1.1483 C   0  0  0  0  0  0  0  0  0  0  0  0
    3.0183   -1.8275   -0.2351 O   0  0  0  0  0  0  0  0  0  0  0  0
    4.5888   -1.2400    3.1753 C   0  0  1  0  0  0  0  0  0  0  0  0
    3.4713   -0.5035    3.6718 O   0  0  0  0  0  0  0  0  0  0  0  0
    3.5397   -0.2005    5.0598 C   0  0  0  0  0  0  0  0  0  0  0  0
    2.3477    0.6885    5.5326 C   0  0  2  0  0  0  0  0  0  0  0  0
    0.9575   -0.3327    5.4763 C   0  0  2  0  0  0  0  0  0  0  0  0
   -0.6231   -0.1854    4.9694 C   0  0  0  0  0  0  0  0  0  0  0  0
   -1.8146    0.5968    5.4650 O   0  0  0  0  0  0  0  0  0  0  0  0
   -1.7712    1.9766    5.1687 C   0  0  1  0  0  0  0  0  0  0  0  0
   -2.8360    2.9499    4.7829 C   0  0  0  0  0  0  0  0  0  0  0  0
   -1.7317    4.0068    4.2762 C   0  0  1  0  0  0  0  0  0  0  0  0
   -0.9362    4.6256    5.2987 O   0  0  0  0  0  0  0  0  0  0  0  0
   -0.4376    3.6943    6.2297 C   0  0  1  0  0  0  0  0  0  0  0  0
   -1.3724    2.6816    6.3347 O   0  0  0  0  0  0  0  0  0  0  0  0
    0.8000    2.8588    5.8732 C   0  0  2  0  0  0  0  0  0  0  0  0
    2.0671    3.3473    5.6238 O   0  0  0  0  0  0  0  0  0  0  0  0
    2.6415    2.2126    4.8688 C   0  0  2  0  0  0  0  0  0  0  0  0
    1.9610    2.6370    3.5852 C   0  0  1  0  0  0  0  0  0  0  0  0
    2.4055    4.0065    3.0202 C   0  0  0  0  0  0  0  0  0  0  0  0
    2.0823    1.7077    2.5174 O   0  0  0  0  0  0  0  0  0  0  0  0
    0.6393    2.6080    4.2976 C   0  0  2  0  0  0  0  0  0  0  0  0
   -0.6269    3.1901    3.5770 C   0  0  1  0  0  0  0  0  0  0  0  0
   -1.2646    2.0274    3.8744 O   0  0  0  0  0  0  0  0  0  0  0  0
    1.0693    1.7828    7.0469 C   0  0  0  0  0  0  0  0  0  0  0  0
    0.1775    1.3513    7.9801 C   0  0  0  0  0  0  0  0  0  0  0  0
    0.2575    0.1363    8.6054 O   0  0  0  0  0  0  0  0  0  0  0  0
    1.1890   -0.8270    8.0908 C   0  0  1  0  0  0  0  0  0  0  0  0
    1.0665   -1.9699    9.1419 C   0  0  0  0  0  0  0  0  0  0  0  0
   -0.1790   -2.6424    9.0389 O   0  0  0  0  0  0  0  0  0  0  0  0
    0.9548   -1.3646    6.6538 C   0  0  0  0  0  0  0  0  0  0  0  0
    2.5170   -0.0714    8.1002 C   0  0  1  0  0  0  0  0  0  0  0  0
    3.7860   -0.9670    8.1468 C   0  0  0  0  0  0  0  0  0  0  0  0
    4.9232   -0.5178    7.9824 O   0  0  0  0  0  0  0  0  0  0  0  0
    2.4457    1.0900    7.0307 C   0  0  1  0  0  0  0  0  0  0  0  0
    3.6268    2.0523    7.4700 C   0  0  0  0  0  0  0  0  0  0  0  0
    5.6892   -4.2664    6.2418 H   0  0  0  0  0  0  0  0  0  0  0  0
    5.5929   -4.9181    4.6088 H   0  0  0  0  0  0  0  0  0  0  0  0
    4.1152   -4.4967    5.4855 H   0  0  0  0  0  0  0  0  0  0  0  0
    3.5263   -3.0515    3.6979 H   0  0  0  0  0  0  0  0  0  0  0  0
    6.4315   -2.3358    1.4281 H   0  0  0  0  0  0  0  0  0  0  0  0
    5.1698   -3.1286    0.4954 H   0  0  0  0  0  0  0  0  0  0  0  0
    4.4069    0.4403    1.0575 H   0  0  0  0  0  0  0  0  0  0  0  0
    2.5628   -2.4191    1.6467 H   0  0  0  0  0  0  0  0  0  0  0  0
    2.4191   -0.7049    1.3501 H   0  0  0  0  0  0  0  0  0  0  0  0
    2.1271   -1.5665   -0.5471 H   0  0  0  0  0  0  0  0  0  0  0  0
    5.5531   -0.7986    3.4584 H   0  0  0  0  0  0  0  0  0  0  0  0
    3.5173   -1.1579    5.5732 H   0  0  0  0  0  0  0  0  0  0  0  0
    4.5003    0.2612    5.2926 H   0  0  0  0  0  0  0  0  0  0  0  0
    1.2474   -0.9646    4.6401 H   0  0  0  0  0  0  0  0  0  0  0  0
   -0.5974   -0.1439    3.8775 H   0  0  0  0  0  0  0  0  0  0  0  0
   -1.0373   -1.1851    5.0535 H   0  0  0  0  0  0  0  0  0  0  0  0
   -3.4622    2.5664    3.9767 H   0  0  0  0  0  0  0  0  0  0  0  0
   -3.4451    3.2762    5.6299 H   0  0  0  0  0  0  0  0  0  0  0  0
   -2.1702    4.7577    3.6202 H   0  0  0  0  0  0  0  0  0  0  0  0
   -0.3312    4.1828    7.1967 H   0  0  0  0  0  0  0  0  0  0  0  0
    3.7138    2.3735    4.7602 H   0  0  0  0  0  0  0  0  0  0  0  0
    2.2934    4.8301    3.7255 H   0  0  0  0  0  0  0  0  0  0  0  0
    1.8359    4.2693    2.1292 H   0  0  0  0  0  0  0  0  0  0  0  0
    3.4515    3.9782    2.7198 H   0  0  0  0  0  0  0  0  0  0  0  0
    1.5223    2.0125    1.8138 H   0  0  0  0  0  0  0  0  0  0  0  0
    0.6112    1.5541    4.1285 H   0  0  0  0  0  0  0  0  0  0  0  0
   -0.5671    3.3022    2.4965 H   0  0  0  0  0  0  0  0  0  0  0  0
   -0.7964    1.7533    8.1952 H   0  0  0  0  0  0  0  0  0  0  0  0
    1.8242   -2.7412    9.0053 H   0  0  0  0  0  0  0  0  0  0  0  0
    1.1819   -1.5804   10.1544 H   0  0  0  0  0  0  0  0  0  0  0  0
   -0.1426   -3.4000    9.6124 H   0  0  0  0  0  0  0  0  0  0  0  0
    0.0423   -1.9480    6.6399 H   0  0  0  0  0  0  0  0  0  0  0  0
    1.7267   -2.1071    6.4502 H   0  0  0  0  0  0  0  0  0  0  0  0
    2.5420    0.4056    9.0789 H   0  0  0  0  0  0  0  0  0  0  0  0
    3.6384   -2.0268    8.3526 H   0  0  0  0  0  0  0  0  0  0  0  0
    4.5727    1.7670    7.0169 H   0  0  0  0  0  0  0  0  0  0  0  0
    3.7860    2.0245    8.5462 H   0  0  0  0  0  0  0  0  0  0  0  0
    3.5206    3.1155    7.2737 H   0  0  0  0  0  0  0  0  0  0  0  0
  1  2  1  0
  1 44  1  0
  1 45  1  0
  1 46  1  0
  2  3  1  0
  3 10  1  0
  3  4  1  0
  3 47  1  1
  4  5  1  0
  5  6  1  0
  5 48  1  0
  5 49  1  0
  6  7  1  6
  6  8  1  0
  6 10  1  0
  7 50  1  0
  8  9  1  0
  8 51  1  0
  8 52  1  0
  9 53  1  0
 10 11  1  0
 10 54  1  6
 11 12  1  0
 13 12  1  6
 12 55  1  0
 12 56  1  0
 13 25  1  0
 13 42  1  0
 13 14  1  0
 14 38  1  0
 14 15  1  0
 14 57  1  6
 15 16  1  0
 15 58  1  0
 15 59  1  0
 17 16  1  1
 17 22  1  0
 17 31  1  0
 17 18  1  0
 18 19  1  0
 18 60  1  0
 18 61  1  0
 19 30  1  0
 19 20  1  0
 19 62  1  6
 20 21  1  0
 21 22  1  0
 21 23  1  0
 21 63  1  1
 23 29  1  0
 23 24  1  0
 23 32  1  1
 24 25  1  0
 25 26  1  0
 25 64  1  6
 26 27  1  0
 26 28  1  6
 26 29  1  0
 27 65  1  0
 27 66  1  0
 27 67  1  0
 28 68  1  0
 29 30  1  0
 29 69  1  1
 30 31  1  0
 30 70  1  6
 32 42  1  0
 32 33  2  0
 33 34  1  0
 33 71  1  0
 34 35  1  0
 35 36  1  1
 35 38  1  0
 35 39  1  0
 36 37  1  0
 36 72  1  0
 36 73  1  0
 37 74  1  0
 38 75  1  0
 38 76  1  0
 39 40  1  0
 39 42  1  0
 39 77  1  1
 40 41  2  0
 40 78  1  0
 42 43  1  6
 43 79  1  0
 43 80  1  0
 43 81  1  0
M  END
>  <i_m_ct_stereo_status>  (78) 
1

>  <s_m_source_file>  (78) 
/var/tmp/pbs.5076253.sched01/tmp9xbr3gte/40_qt8sgg8.sdf

>  <i_m_source_file_index>  (78) 
22

>  <i_lp_mmshare_version>  (78) 
48012

>  <i_f3d_flags>  (78) 
0

>  <s_epik_input>  (78) 
W09IXVtDSDJdW0NAXTEoW09IXSlbQ0gyXU9bQ0BASF0oT1tDSDNdKVtDQEBIXTFPW0NIMl1bQ0BdMihbQ0BASF0zW0NIMl1PW0NAQF00NTYpW0NAQEhdN09bQ0BAXTgoQz05W0NAQF0yKFtDSDNdKVtDQEhdKFtDSF09TylbQ0BdKFtDSDJdMykoT1tDSF05KVtDSDJdW09IXSlbQ0BIXShPNSlPW0NASF0oW0NIMl00KVtDQEhdKE82KVtDQEhdOFtDQF03KFtDSDNdKVtPSF0=

>  <s_epik_cmdline>  (78) 
J2VwaWtfcHl0aG9uJywgJy1waHQnLCAnMi4wJywgJy1waCcsICc3LjAnLCAnLXRuJywgJzgnLCAnLW1hJywgJzIwMCcsICctaW1hZScsICc8aW5maWxlLm1hZT4nLCAnLW9tYWUnLCAnPG91dGZpbGUubWFlPic=

>  <r_lp_tautomer_probability>  (78) 
1

>  <r_epik_Ionization_Penalty>  (78) 
0.000200265

>  <r_epik_Ionization_Penalty_Charging>  (78) 
0

>  <r_epik_Ionization_Penalty_Neutral>  (78) 
0.000200265

>  <r_epik_State_Penalty>  (78) 
-0

>  <r_epik_Charging_Adjusted_Penalty>  (78) 
0

>  <i_epik_Tot_Q>  (78) 
0

>  <i_epik_Tot_abs_Q>  (78) 
0

>  <s_epik_Chemistry_Notes>  (78) 
This compound contains an acetal/aminal-like group ( X-CH(R)-Y where X, Y are N, S, or O) that may be acid/base labile, releasing an aldehyde.

>  <s_lp_Force_Field>  (78) 
OPLS3e

>  <r_lp_Energy>  (78) 
294.055

>  <b_lp_Chiralities_Consistent>  (78) 
1

>  <s_lp_Variant>  (78) 
43:0-1

>  <s_i_glide_gridfile>  (78) 
pfpi4k_grid

>  <i_i_glide_lignum>  (78) 
22

>  <i_i_glide_rotatable_bonds>  (78) 
11

>  <r_i_docking_score>  (78) 
-2.8425

>  <r_i_glide_ligand_efficiency>  (78) 
-0.0661047

>  <r_i_glide_ligand_efficiency_sa>  (78) 
-0.231591

>  <r_i_glide_ligand_efficiency_ln>  (78) 
-0.597014

>  <r_i_glide_gscore>  (78) 
-2.8425

>  <r_i_glide_lipo>  (78) 
-0.136872

>  <r_i_glide_hbond>  (78) 
0

>  <r_i_glide_metal>  (78) 
-0

>  <r_i_glide_rewards>  (78) 
-0.0331959

>  <r_i_glide_evdw>  (78) 
-22.5163

>  <r_i_glide_ecoul>  (78) 
-11.2692

>  <r_i_glide_erotb>  (78) 
0.15742

>  <r_i_glide_esite>  (78) 
-0.0136593

>  <r_i_glide_emodel>  (78) 
-37.8102

>  <r_i_glide_energy>  (78) 
-33.7855

>  <r_i_glide_einternal>  (78) 
4.23106

>  <r_i_glide_intrahb_reward>  (78) 
-0

>  <i_i_glide_confnum>  (78) 
5

>  <i_i_glide_posenum>  (78) 
38

>  <r_i_glide_eff_state_penalty>  (78) 
0

>  <ligand_id>  (78) 
43

>  <original_smiles>  (78) 
COC1OCC(O)(CO)C1OCC12C3COC45CC6OC(O4)C4(OC1C(C)(O)C4C6O5)C1=COC(CO)(C3)C(C=O)C12C

>  <smiles>  (78) 
[H]OC([H])([H])C1(O[H])C([H])([H])OC([H])(OC([H])([H])[H])C1([H])OC([H])([H])C12C3([H])OC45C6=C([H])OC(C([H])([H])O[H])(C([H])([H])C1([H])C([H])([H])OC17OC4([H])OC([H])(C1([H])[H])C([H])(O7)C5([H])C3(O[H])C([H])([H])[H])C([H])(C([H])=O)C62C([H])([H])[H]

$$$$
44:0:0
     RDKit          3D

 55 59  0  0  1  0  0  0  0  0999 V2000
    3.5183   -0.2788   -3.5457 C   0  0  0  0  0  0  0  0  0  0  0  0
    3.8391   -1.5046   -4.1904 O   0  0  0  0  0  0  0  0  0  0  0  0
    3.9201   -2.6995   -3.5259 C   0  0  0  0  0  0  0  0  0  0  0  0
    4.2110   -3.7426   -4.0883 O   0  0  0  0  0  0  0  0  0  0  0  0
    3.6980   -2.6611   -2.0008 C   0  0  0  0  0  0  0  0  0  0  0  0
    4.9734   -2.1933   -1.2672 C   0  0  2  0  0  0  0  0  0  0  0  0
    6.0413   -3.2711   -1.1405 C   0  0  1  0  0  0  0  0  0  0  0  0
    7.4025   -2.7924   -1.6661 C   0  0  0  0  0  0  0  0  0  0  0  0
    6.1445   -3.7267    0.3235 C   0  0  1  0  0  0  0  0  0  0  0  0
    6.6184   -2.6062    1.1024 O   0  0  0  0  0  0  0  0  0  0  0  0
    5.7043   -1.5536    1.3084 C   0  0  1  0  0  0  0  0  0  0  0  0
    5.8384   -0.8590    2.6819 C   0  0  0  0  0  0  0  0  0  0  0  0
    5.3896   -1.6511    3.7451 O   0  0  0  0  0  0  0  0  0  0  0  0
    5.6162   -0.4970    0.3611 O   0  0  0  0  0  0  0  0  0  0  0  0
    4.7167   -1.5445    0.0962 C   0  0  1  0  0  0  0  0  0  0  0  0
    3.4159   -1.5791    0.6226 O   0  0  0  0  0  0  0  0  0  0  0  0
    3.1382   -2.5955    1.5522 C   0  0  1  0  0  0  0  0  0  0  0  0
    1.8303   -2.4795    2.0199 O   0  0  0  0  0  0  0  0  0  0  0  0
    1.5560   -1.2250    2.6367 C   0  0  0  0  0  0  0  0  0  0  0  0
    3.4452   -4.0451    1.0667 C   0  0  2  0  0  0  0  0  0  0  0  0
    2.3417   -4.6386    0.2965 O   0  0  0  0  0  0  0  0  0  0  0  0
    1.9177   -5.4552    1.5289 O   0  0  0  0  0  0  0  0  0  0  0  0
    3.0346   -4.9720    2.1428 C   0  0  0  0  0  0  0  0  0  0  0  0
    3.9812   -5.6433    2.8062 C   0  0  0  0  0  0  0  0  0  0  0  0
    5.3076   -5.1412    2.3227 C   0  0  1  0  0  0  0  0  0  0  0  0
    6.3080   -6.1644    2.3074 O   0  0  0  0  0  0  0  0  0  0  0  0
    7.5641   -5.7301    2.8193 C   0  0  0  0  0  0  0  0  0  0  0  0
    4.9465   -4.5920    0.9007 C   0  0  2  0  0  0  0  0  0  0  0  0
    4.8556   -5.8202   -0.0444 C   0  0  0  0  0  0  0  0  0  0  0  0
    3.4434    0.5349   -4.2702 H   0  0  0  0  0  0  0  0  0  0  0  0
    4.2907    0.0060   -2.8330 H   0  0  0  0  0  0  0  0  0  0  0  0
    2.5672   -0.3529   -3.0184 H   0  0  0  0  0  0  0  0  0  0  0  0
    2.8445   -2.0327   -1.7644 H   0  0  0  0  0  0  0  0  0  0  0  0
    3.4072   -3.6603   -1.6742 H   0  0  0  0  0  0  0  0  0  0  0  0
    5.4369   -1.4077   -1.8596 H   0  0  0  0  0  0  0  0  0  0  0  0
    5.7776   -4.1120   -1.7765 H   0  0  0  0  0  0  0  0  0  0  0  0
    7.7686   -1.9318   -1.1089 H   0  0  0  0  0  0  0  0  0  0  0  0
    7.3279   -2.5144   -2.7143 H   0  0  0  0  0  0  0  0  0  0  0  0
    8.1596   -3.5694   -1.5928 H   0  0  0  0  0  0  0  0  0  0  0  0
    7.0113   -4.3921    0.3346 H   0  0  0  0  0  0  0  0  0  0  0  0
    6.8807   -0.5953    2.8143 H   0  0  0  0  0  0  0  0  0  0  0  0
    5.2851    0.0684    2.6785 H   0  0  0  0  0  0  0  0  0  0  0  0
    5.3544   -1.1116    4.5578 H   0  0  0  0  0  0  0  0  0  0  0  0
    3.7078   -2.4532    2.4660 H   0  0  0  0  0  0  0  0  0  0  0  0
    0.5413   -1.2180    3.0215 H   0  0  0  0  0  0  0  0  0  0  0  0
    1.6422   -0.4095    1.9170 H   0  0  0  0  0  0  0  0  0  0  0  0
    2.2314   -1.0091    3.4699 H   0  0  0  0  0  0  0  0  0  0  0  0
    3.8588   -6.5988    3.2715 H   0  0  0  0  0  0  0  0  0  0  0  0
    5.5740   -4.3372    3.0095 H   0  0  0  0  0  0  0  0  0  0  0  0
    8.3245   -6.5059    2.7168 H   0  0  0  0  0  0  0  0  0  0  0  0
    7.4804   -5.4786    3.8776 H   0  0  0  0  0  0  0  0  0  0  0  0
    7.9384   -4.8512    2.2943 H   0  0  0  0  0  0  0  0  0  0  0  0
    4.2611   -6.6388    0.3590 H   0  0  0  0  0  0  0  0  0  0  0  0
    5.8356   -6.2346   -0.2739 H   0  0  0  0  0  0  0  0  0  0  0  0
    4.3905   -5.5538   -0.9878 H   0  0  0  0  0  0  0  0  0  0  0  0
  1  2  1  0
  1 30  1  0
  1 31  1  0
  1 32  1  0
  2  3  1  0
  3  4  2  0
  3  5  1  0
  5  6  1  0
  5 33  1  0
  5 34  1  0
  6 15  1  0
  6  7  1  0
  6 35  1  6
  7  8  1  0
  7  9  1  0
  7 36  1  6
  8 37  1  0
  8 38  1  0
  8 39  1  0
  9 28  1  0
  9 10  1  0
  9 40  1  6
 10 11  1  0
 11 15  1  0
 11 12  1  1
 11 14  1  0
 12 13  1  0
 12 41  1  0
 12 42  1  0
 13 43  1  0
 15 14  1  6
 15 16  1  0
 16 17  1  0
 17 18  1  0
 17 20  1  0
 17 44  1  1
 18 19  1  0
 19 45  1  0
 19 46  1  0
 19 47  1  0
 20 23  1  0
 20 28  1  0
 20 21  1  6
 21 22  1  0
 22 23  1  0
 23 24  2  0
 24 25  1  0
 24 48  1  0
 25 26  1  0
 25 28  1  0
 25 49  1  1
 26 27  1  0
 27 50  1  0
 27 51  1  0
 27 52  1  0
 28 29  1  6
 29 53  1  0
 29 54  1  0
 29 55  1  0
M  END
>  <i_m_ct_stereo_status>  (79) 
1

>  <s_m_source_file>  (79) 
/var/tmp/pbs.5076253.sched01/tmp9xbr3gte/40_qt8sgg8.sdf

>  <i_m_source_file_index>  (79) 
23

>  <i_lp_mmshare_version>  (79) 
48012

>  <i_f3d_flags>  (79) 
0

>  <s_epik_input>  (79) 
W0NIM11PQyg9TylbQ0gyXVtDQEBIXTFbQ0BASF0oW0NIM10pW0NAQEhdKE9bQ0BAXShPMikoW0NAXTEyMylbQ0gyXVtPSF0pW0NAXTQoW0NIM10pW0NAXTUoW0NAQEhdKE8zKU9bQ0gzXSlDKE9PNSk9W0NIXVtDQEhdNE9bQ0gzXQ==

>  <s_epik_cmdline>  (79) 
J2VwaWtfcHl0aG9uJywgJy1waHQnLCAnMi4wJywgJy1waCcsICc3LjAnLCAnLXRuJywgJzgnLCAnLW1hJywgJzIwMCcsICctaW1hZScsICc8aW5maWxlLm1hZT4nLCAnLW9tYWUnLCAnPG91dGZpbGUubWFlPic=

>  <r_lp_tautomer_probability>  (79) 
1

>  <r_epik_Ionization_Penalty>  (79) 
1.65425e-06

>  <r_epik_Ionization_Penalty_Charging>  (79) 
0

>  <r_epik_Ionization_Penalty_Neutral>  (79) 
1.65425e-06

>  <r_epik_State_Penalty>  (79) 
-0

>  <r_epik_Charging_Adjusted_Penalty>  (79) 
0

>  <i_epik_Tot_Q>  (79) 
0

>  <i_epik_Tot_abs_Q>  (79) 
0

>  <s_epik_Chemistry_Notes>  (79) 
This compound has an ester and may undergo hydrolysis at high or low pH. This compound contains an acetal/aminal-like group ( X-CH(R)-Y where X, Y are N, S, or O) that may be acid/base labile, releasing an aldehyde.

>  <s_lp_Force_Field>  (79) 
OPLS3e

>  <r_lp_Energy>  (79) 
80.2889

>  <b_lp_Chiralities_Consistent>  (79) 
1

>  <s_lp_Variant>  (79) 
44:0-1

>  <s_i_glide_gridfile>  (79) 
pfpi4k_grid

>  <i_i_glide_lignum>  (79) 
23

>  <i_i_glide_rotatable_bonds>  (79) 
7

>  <r_i_docking_score>  (79) 
-3.1569

>  <r_i_glide_ligand_efficiency>  (79) 
-0.108859

>  <r_i_glide_ligand_efficiency_sa>  (79) 
-0.334448

>  <r_i_glide_ligand_efficiency_ln>  (79) 
-0.72285

>  <r_i_glide_gscore>  (79) 
-3.1569

>  <r_i_glide_lipo>  (79) 
-0.567782

>  <r_i_glide_hbond>  (79) 
-0.239872

>  <r_i_glide_metal>  (79) 
-0

>  <r_i_glide_rewards>  (79) 
-1.05652

>  <r_i_glide_evdw>  (79) 
-29.1182

>  <r_i_glide_ecoul>  (79) 
-1.09465

>  <r_i_glide_erotb>  (79) 
0.344794

>  <r_i_glide_esite>  (79) 
-0.0174116

>  <r_i_glide_emodel>  (79) 
-30.2127

>  <r_i_glide_energy>  (79) 
-30.2128

>  <r_i_glide_einternal>  (79) 
11.5494

>  <r_i_glide_intrahb_reward>  (79) 
-0

>  <i_i_glide_confnum>  (79) 
3

>  <i_i_glide_posenum>  (79) 
15

>  <r_i_glide_eff_state_penalty>  (79) 
0

>  <ligand_id>  (79) 
44

>  <original_smiles>  (79) 
COC(=O)CC1C(C)C2OC3(CO)OC13OC(OC)C13OOC1=CC(OC)C23C

>  <smiles>  (79) 
[H]OC([H])([H])C12OC3([H])C([H])(C([H])([H])[H])C([H])(C([H])([H])C(=O)OC([H])([H])[H])C1(OC([H])(OC([H])([H])[H])C14OOC1=C([H])C([H])(OC([H])([H])[H])C34C([H])([H])[H])O2

$$$$
44:0:1
     RDKit          3D

 55 59  0  0  1  0  0  0  0  0999 V2000
    3.5283   -0.3369   -3.3570 C   0  0  0  0  0  0  0  0  0  0  0  0
    3.8738   -1.5313   -4.0629 O   0  0  0  0  0  0  0  0  0  0  0  0
    3.9493   -2.7554   -3.4608 C   0  0  0  0  0  0  0  0  0  0  0  0
    4.2347   -3.7818   -4.0720 O   0  0  0  0  0  0  0  0  0  0  0  0
    3.7226   -2.7893   -1.9376 C   0  0  0  0  0  0  0  0  0  0  0  0
    4.9658   -2.2575   -1.1751 C   0  0  2  0  0  0  0  0  0  0  0  0
    6.0617   -3.3012   -0.9806 C   0  0  1  0  0  0  0  0  0  0  0  0
    7.4225   -2.7921   -1.4919 C   0  0  0  0  0  0  0  0  0  0  0  0
    6.1497   -3.7256    0.4991 C   0  0  1  0  0  0  0  0  0  0  0  0
    6.5443   -2.5761    1.2827 O   0  0  0  0  0  0  0  0  0  0  0  0
    5.6083   -1.5161    1.4082 C   0  0  1  0  0  0  0  0  0  0  0  0
    5.6888   -0.7578    2.7412 C   0  0  0  0  0  0  0  0  0  0  0  0
    5.0812   -1.3842    3.8546 O   0  0  0  0  0  0  0  0  0  0  0  0
    5.5037   -0.4950    0.4192 O   0  0  0  0  0  0  0  0  0  0  0  0
    4.6545   -1.5896    0.1727 C   0  0  1  0  0  0  0  0  0  0  0  0
    3.3359   -1.6710    0.6540 O   0  0  0  0  0  0  0  0  0  0  0  0
    3.1002   -2.6605    1.6299 C   0  0  1  0  0  0  0  0  0  0  0  0
    1.7895   -2.5670    2.0593 O   0  0  0  0  0  0  0  0  0  0  0  0
    1.4248   -1.3146    2.6175 C   0  0  0  0  0  0  0  0  0  0  0  0
    3.4402   -4.1121    1.1594 C   0  0  2  0  0  0  0  0  0  0  0  0
    2.3731   -4.7630    0.3818 O   0  0  0  0  0  0  0  0  0  0  0  0
    1.9263   -5.5381    1.6297 O   0  0  0  0  0  0  0  0  0  0  0  0
    3.0241   -5.0184    2.2445 C   0  0  0  0  0  0  0  0  0  0  0  0
    3.9644   -5.6227    2.9601 C   0  0  0  0  0  0  0  0  0  0  0  0
    5.2945   -5.1047    2.5098 C   0  0  1  0  0  0  0  0  0  0  0  0
    6.3239   -6.0878    2.5073 O   0  0  0  0  0  0  0  0  0  0  0  0
    6.8097   -6.4482    3.7923 C   0  0  0  0  0  0  0  0  0  0  0  0
    4.9575   -4.6100    1.0588 C   0  0  2  0  0  0  0  0  0  0  0  0
    4.9410   -5.8632    0.1472 C   0  0  0  0  0  0  0  0  0  0  0  0
    3.4289    0.4933   -4.0655 H   0  0  0  0  0  0  0  0  0  0  0  0
    4.2812   -0.0857   -2.6238 H   0  0  0  0  0  0  0  0  0  0  0  0
    2.5571   -0.4593   -2.8647 H   0  0  0  0  0  0  0  0  0  0  0  0
    2.8355   -2.2194   -1.6912 H   0  0  0  0  0  0  0  0  0  0  0  0
    3.4925   -3.8092   -1.6412 H   0  0  0  0  0  0  0  0  0  0  0  0
    5.3951   -1.4831   -1.7825 H   0  0  0  0  0  0  0  0  0  0  0  0
    5.8452   -4.1784   -1.6068 H   0  0  0  0  0  0  0  0  0  0  0  0
    7.7353   -1.9019   -0.9520 H   0  0  0  0  0  0  0  0  0  0  0  0
    7.3648   -2.5382   -2.5480 H   0  0  0  0  0  0  0  0  0  0  0  0
    8.2103   -3.5339   -1.3809 H   0  0  0  0  0  0  0  0  0  0  0  0
    7.0416   -4.3458    0.5819 H   0  0  0  0  0  0  0  0  0  0  0  0
    6.7391   -0.5665    2.9490 H   0  0  0  0  0  0  0  0  0  0  0  0
    5.2271    0.2178    2.6347 H   0  0  0  0  0  0  0  0  0  0  0  0
    4.1572   -1.5475    3.6490 H   0  0  0  0  0  0  0  0  0  0  0  0
    3.6453   -2.4950    2.5294 H   0  0  0  0  0  0  0  0  0  0  0  0
    0.3980   -1.3363    2.9795 H   0  0  0  0  0  0  0  0  0  0  0  0
    1.4920   -0.5101    1.8819 H   0  0  0  0  0  0  0  0  0  0  0  0
    2.0649   -1.0542    3.4621 H   0  0  0  0  0  0  0  0  0  0  0  0
    3.8505   -6.5608    3.4679 H   0  0  0  0  0  0  0  0  0  0  0  0
    5.5735   -4.2661    3.1576 H   0  0  0  0  0  0  0  0  0  0  0  0
    7.6643   -7.1247    3.6971 H   0  0  0  0  0  0  0  0  0  0  0  0
    6.0454   -6.9663    4.3720 H   0  0  0  0  0  0  0  0  0  0  0  0
    7.1477   -5.5798    4.3605 H   0  0  0  0  0  0  0  0  0  0  0  0
    4.3649   -6.6890    0.5710 H   0  0  0  0  0  0  0  0  0  0  0  0
    5.9478   -6.2437   -0.0343 H   0  0  0  0  0  0  0  0  0  0  0  0
    4.4828   -5.6491   -0.8151 H   0  0  0  0  0  0  0  0  0  0  0  0
  1  2  1  0
  1 30  1  0
  1 31  1  0
  1 32  1  0
  2  3  1  0
  3  4  2  0
  3  5  1  0
  5  6  1  0
  5 33  1  0
  5 34  1  0
  6 15  1  0
  6  7  1  0
  6 35  1  6
  7  8  1  0
  7  9  1  0
  7 36  1  6
  8 37  1  0
  8 38  1  0
  8 39  1  0
  9 28  1  0
  9 10  1  0
  9 40  1  6
 10 11  1  0
 11 15  1  0
 11 12  1  1
 11 14  1  0
 12 13  1  0
 12 41  1  0
 12 42  1  0
 13 43  1  0
 15 14  1  6
 15 16  1  0
 16 17  1  0
 17 18  1  0
 17 20  1  0
 17 44  1  1
 18 19  1  0
 19 45  1  0
 19 46  1  0
 19 47  1  0
 20 23  1  0
 20 28  1  0
 20 21  1  6
 21 22  1  0
 22 23  1  0
 23 24  2  0
 24 25  1  0
 24 48  1  0
 25 26  1  0
 25 28  1  0
 25 49  1  1
 26 27  1  0
 27 50  1  0
 27 51  1  0
 27 52  1  0
 28 29  1  6
 29 53  1  0
 29 54  1  0
 29 55  1  0
M  END
>  <i_m_ct_stereo_status>  (80) 
1

>  <s_m_source_file>  (80) 
/var/tmp/pbs.5076253.sched01/tmp9xbr3gte/40_qt8sgg8.sdf

>  <i_m_source_file_index>  (80) 
23

>  <i_lp_mmshare_version>  (80) 
48012

>  <i_f3d_flags>  (80) 
0

>  <s_epik_input>  (80) 
W0NIM11PQyg9TylbQ0gyXVtDQEBIXTFbQ0BASF0oW0NIM10pW0NAQEhdKE9bQ0BAXShPMikoW0NAXTEyMylbQ0gyXVtPSF0pW0NAXTQoW0NIM10pW0NAXTUoW0NAQEhdKE8zKU9bQ0gzXSlDKE9PNSk9W0NIXVtDQEhdNE9bQ0gzXQ==

>  <s_epik_cmdline>  (80) 
J2VwaWtfcHl0aG9uJywgJy1waHQnLCAnMi4wJywgJy1waCcsICc3LjAnLCAnLXRuJywgJzgnLCAnLW1hJywgJzIwMCcsICctaW1hZScsICc8aW5maWxlLm1hZT4nLCAnLW9tYWUnLCAnPG91dGZpbGUubWFlPic=

>  <r_lp_tautomer_probability>  (80) 
1

>  <r_epik_Ionization_Penalty>  (80) 
1.65425e-06

>  <r_epik_Ionization_Penalty_Charging>  (80) 
0

>  <r_epik_Ionization_Penalty_Neutral>  (80) 
1.65425e-06

>  <r_epik_State_Penalty>  (80) 
-0

>  <r_epik_Charging_Adjusted_Penalty>  (80) 
0

>  <i_epik_Tot_Q>  (80) 
0

>  <i_epik_Tot_abs_Q>  (80) 
0

>  <s_epik_Chemistry_Notes>  (80) 
This compound has an ester and may undergo hydrolysis at high or low pH. This compound contains an acetal/aminal-like group ( X-CH(R)-Y where X, Y are N, S, or O) that may be acid/base labile, releasing an aldehyde.

>  <s_lp_Force_Field>  (80) 
OPLS3e

>  <r_lp_Energy>  (80) 
80.2889

>  <b_lp_Chiralities_Consistent>  (80) 
1

>  <s_lp_Variant>  (80) 
44:0-1

>  <s_i_glide_gridfile>  (80) 
pfpi4k_grid

>  <i_i_glide_lignum>  (80) 
23

>  <i_i_glide_rotatable_bonds>  (80) 
7

>  <r_i_docking_score>  (80) 
-3.11918

>  <r_i_glide_ligand_efficiency>  (80) 
-0.107558

>  <r_i_glide_ligand_efficiency_sa>  (80) 
-0.330452

>  <r_i_glide_ligand_efficiency_ln>  (80) 
-0.714213

>  <r_i_glide_gscore>  (80) 
-3.11918

>  <r_i_glide_lipo>  (80) 
-0.590826

>  <r_i_glide_hbond>  (80) 
-0.137993

>  <r_i_glide_metal>  (80) 
-0

>  <r_i_glide_rewards>  (80) 
-1.02733

>  <r_i_glide_evdw>  (80) 
-29.9362

>  <r_i_glide_ecoul>  (80) 
-1.30242

>  <r_i_glide_erotb>  (80) 
0.344794

>  <r_i_glide_esite>  (80) 
-0.0156479

>  <r_i_glide_emodel>  (80) 
-32.8738

>  <r_i_glide_energy>  (80) 
-31.2386

>  <r_i_glide_einternal>  (80) 
7.93433

>  <r_i_glide_intrahb_reward>  (80) 
-0

>  <i_i_glide_confnum>  (80) 
3

>  <i_i_glide_posenum>  (80) 
6

>  <r_i_glide_eff_state_penalty>  (80) 
0

>  <ligand_id>  (80) 
44

>  <original_smiles>  (80) 
COC(=O)CC1C(C)C2OC3(CO)OC13OC(OC)C13OOC1=CC(OC)C23C

>  <smiles>  (80) 
[H]OC([H])([H])C12OC3([H])C([H])(C([H])([H])[H])C([H])(C([H])([H])C(=O)OC([H])([H])[H])C1(OC([H])(OC([H])([H])[H])C14OOC1=C([H])C([H])(OC([H])([H])[H])C34C([H])([H])[H])O2

$$$$
44:0:2
     RDKit          3D

 55 59  0  0  1  0  0  0  0  0999 V2000
    2.7410    0.4497   -5.2741 C   0  0  0  0  0  0  0  0  0  0  0  0
    3.4360    0.1700   -4.0668 O   0  0  0  0  0  0  0  0  0  0  0  0
    3.2527   -0.9954   -3.4434 C   0  0  0  0  0  0  0  0  0  0  0  0
    2.6454   -1.9546   -3.9251 O   0  0  0  0  0  0  0  0  0  0  0  0
    3.8777   -1.0520   -2.0499 C   0  0  0  0  0  0  0  0  0  0  0  0
    5.0169   -2.0764   -2.0108 C   0  0  2  0  0  0  0  0  0  0  0  0
    4.5869   -3.5334   -2.1003 C   0  0  1  0  0  0  0  0  0  0  0  0
    5.3000   -4.2163   -3.2554 C   0  0  0  0  0  0  0  0  0  0  0  0
    4.8420   -4.2570   -0.7605 C   0  0  1  0  0  0  0  0  0  0  0  0
    6.2428   -4.2772   -0.4758 O   0  0  0  0  0  0  0  0  0  0  0  0
    6.9135   -3.0629   -0.2538 C   0  0  1  0  0  0  0  0  0  0  0  0
    8.0151   -3.1164    0.7889 C   0  0  0  0  0  0  0  0  0  0  0  0
    8.9799   -4.0779    0.4509 O   0  0  0  0  0  0  0  0  0  0  0  0
    7.3135   -2.2448   -1.3168 O   0  0  0  0  0  0  0  0  0  0  0  0
    6.0013   -1.9336   -0.8505 C   0  0  1  0  0  0  0  0  0  0  0  0
    5.7632   -1.0381    0.2256 O   0  0  0  0  0  0  0  0  0  0  0  0
    5.1412   -1.6074    1.3676 C   0  0  1  0  0  0  0  0  0  0  0  0
    4.8629   -0.6083    2.3145 O   0  0  0  0  0  0  0  0  0  0  0  0
    5.7973   -0.5551    3.3811 C   0  0  0  0  0  0  0  0  0  0  0  0
    3.8432   -2.4218    1.0978 C   0  0  2  0  0  0  0  0  0  0  0  0
    2.6548   -1.5950    1.0257 O   0  0  0  0  0  0  0  0  0  0  0  0
    2.2643   -1.9993    2.4548 O   0  0  0  0  0  0  0  0  0  0  0  0
    3.3410   -2.8584    2.4273 C   0  0  0  0  0  0  0  0  0  0  0  0
    3.3959   -4.1234    2.7651 C   0  0  0  0  0  0  0  0  0  0  0  0
    4.1165   -4.8473    1.6581 C   0  0  1  0  0  0  0  0  0  0  0  0
    3.6246   -6.1630    1.4087 O   0  0  0  0  0  0  0  0  0  0  0  0
    4.0059   -7.1136    2.3914 C   0  0  0  0  0  0  0  0  0  0  0  0
    3.8994   -3.8837    0.4392 C   0  0  2  0  0  0  0  0  0  0  0  0
    2.4880   -4.1761   -0.1027 C   0  0  0  0  0  0  0  0  0  0  0  0
    2.9875    1.4573   -5.6087 H   0  0  0  0  0  0  0  0  0  0  0  0
    1.6590    0.4094   -5.1359 H   0  0  0  0  0  0  0  0  0  0  0  0
    3.0190   -0.2500   -6.0619 H   0  0  0  0  0  0  0  0  0  0  0  0
    4.2500   -0.0612   -1.7950 H   0  0  0  0  0  0  0  0  0  0  0  0
    3.1075   -1.3106   -1.3259 H   0  0  0  0  0  0  0  0  0  0  0  0
    5.6138   -1.8696   -2.8952 H   0  0  0  0  0  0  0  0  0  0  0  0
    3.5394   -3.6098   -2.3427 H   0  0  0  0  0  0  0  0  0  0  0  0
    6.3749   -4.1531   -3.0996 H   0  0  0  0  0  0  0  0  0  0  0  0
    5.0922   -3.7535   -4.2176 H   0  0  0  0  0  0  0  0  0  0  0  0
    5.0133   -5.2526   -3.3151 H   0  0  0  0  0  0  0  0  0  0  0  0
    4.6420   -5.3122   -0.9576 H   0  0  0  0  0  0  0  0  0  0  0  0
    8.4865   -2.1435    0.8840 H   0  0  0  0  0  0  0  0  0  0  0  0
    7.5948   -3.4655    1.7172 H   0  0  0  0  0  0  0  0  0  0  0  0
    8.5695   -4.9280    0.5393 H   0  0  0  0  0  0  0  0  0  0  0  0
    5.8218   -2.2997    1.8431 H   0  0  0  0  0  0  0  0  0  0  0  0
    5.5353    0.2324    4.0851 H   0  0  0  0  0  0  0  0  0  0  0  0
    6.8043   -0.3656    3.0113 H   0  0  0  0  0  0  0  0  0  0  0  0
    5.7984   -1.4971    3.9325 H   0  0  0  0  0  0  0  0  0  0  0  0
    2.7184   -4.6441    3.4231 H   0  0  0  0  0  0  0  0  0  0  0  0
    5.1655   -4.8563    1.9398 H   0  0  0  0  0  0  0  0  0  0  0  0
    3.6948   -8.1100    2.0756 H   0  0  0  0  0  0  0  0  0  0  0  0
    3.5250   -6.8998    3.3456 H   0  0  0  0  0  0  0  0  0  0  0  0
    5.0868   -7.1412    2.5467 H   0  0  0  0  0  0  0  0  0  0  0  0
    1.8196   -4.2758    0.7433 H   0  0  0  0  0  0  0  0  0  0  0  0
    2.4204   -5.1158   -0.6484 H   0  0  0  0  0  0  0  0  0  0  0  0
    2.0993   -3.3879   -0.7483 H   0  0  0  0  0  0  0  0  0  0  0  0
  1  2  1  0
  1 30  1  0
  1 31  1  0
  1 32  1  0
  2  3  1  0
  3  4  2  0
  3  5  1  0
  5  6  1  0
  5 33  1  0
  5 34  1  0
  6 15  1  0
  6  7  1  0
  6 35  1  6
  7  8  1  0
  7  9  1  0
  7 36  1  6
  8 37  1  0
  8 38  1  0
  8 39  1  0
  9 28  1  0
  9 10  1  0
  9 40  1  6
 10 11  1  0
 11 15  1  0
 11 12  1  1
 11 14  1  0
 12 13  1  0
 12 41  1  0
 12 42  1  0
 13 43  1  0
 15 14  1  6
 15 16  1  0
 16 17  1  0
 17 18  1  0
 17 20  1  0
 17 44  1  1
 18 19  1  0
 19 45  1  0
 19 46  1  0
 19 47  1  0
 20 23  1  0
 20 28  1  0
 20 21  1  6
 21 22  1  0
 22 23  1  0
 23 24  2  0
 24 25  1  0
 24 48  1  0
 25 26  1  0
 25 28  1  0
 25 49  1  1
 26 27  1  0
 27 50  1  0
 27 51  1  0
 27 52  1  0
 28 29  1  6
 29 53  1  0
 29 54  1  0
 29 55  1  0
M  END
>  <i_m_ct_stereo_status>  (81) 
1

>  <s_m_source_file>  (81) 
/var/tmp/pbs.5076253.sched01/tmp9xbr3gte/40_qt8sgg8.sdf

>  <i_m_source_file_index>  (81) 
23

>  <i_lp_mmshare_version>  (81) 
48012

>  <i_f3d_flags>  (81) 
0

>  <s_epik_input>  (81) 
W0NIM11PQyg9TylbQ0gyXVtDQEBIXTFbQ0BASF0oW0NIM10pW0NAQEhdKE9bQ0BAXShPMikoW0NAXTEyMylbQ0gyXVtPSF0pW0NAXTQoW0NIM10pW0NAXTUoW0NAQEhdKE8zKU9bQ0gzXSlDKE9PNSk9W0NIXVtDQEhdNE9bQ0gzXQ==

>  <s_epik_cmdline>  (81) 
J2VwaWtfcHl0aG9uJywgJy1waHQnLCAnMi4wJywgJy1waCcsICc3LjAnLCAnLXRuJywgJzgnLCAnLW1hJywgJzIwMCcsICctaW1hZScsICc8aW5maWxlLm1hZT4nLCAnLW9tYWUnLCAnPG91dGZpbGUubWFlPic=

>  <r_lp_tautomer_probability>  (81) 
1

>  <r_epik_Ionization_Penalty>  (81) 
1.65425e-06

>  <r_epik_Ionization_Penalty_Charging>  (81) 
0

>  <r_epik_Ionization_Penalty_Neutral>  (81) 
1.65425e-06

>  <r_epik_State_Penalty>  (81) 
-0

>  <r_epik_Charging_Adjusted_Penalty>  (81) 
0

>  <i_epik_Tot_Q>  (81) 
0

>  <i_epik_Tot_abs_Q>  (81) 
0

>  <s_epik_Chemistry_Notes>  (81) 
This compound has an ester and may undergo hydrolysis at high or low pH. This compound contains an acetal/aminal-like group ( X-CH(R)-Y where X, Y are N, S, or O) that may be acid/base labile, releasing an aldehyde.

>  <s_lp_Force_Field>  (81) 
OPLS3e

>  <r_lp_Energy>  (81) 
80.2889

>  <b_lp_Chiralities_Consistent>  (81) 
1

>  <s_lp_Variant>  (81) 
44:0-1

>  <s_i_glide_gridfile>  (81) 
pfpi4k_grid

>  <i_i_glide_lignum>  (81) 
23

>  <i_i_glide_rotatable_bonds>  (81) 
7

>  <r_i_docking_score>  (81) 
-2.90217

>  <r_i_glide_ligand_efficiency>  (81) 
-0.100075

>  <r_i_glide_ligand_efficiency_sa>  (81) 
-0.307462

>  <r_i_glide_ligand_efficiency_ln>  (81) 
-0.664524

>  <r_i_glide_gscore>  (81) 
-2.90217

>  <r_i_glide_lipo>  (81) 
-0.403892

>  <r_i_glide_hbond>  (81) 
-0.16

>  <r_i_glide_metal>  (81) 
-0

>  <r_i_glide_rewards>  (81) 
-1.03847

>  <r_i_glide_evdw>  (81) 
-27.235

>  <r_i_glide_ecoul>  (81) 
-1.56435

>  <r_i_glide_erotb>  (81) 
0.344794

>  <r_i_glide_esite>  (81) 
-0.0482006

>  <r_i_glide_emodel>  (81) 
-30.2433

>  <r_i_glide_energy>  (81) 
-28.7994

>  <r_i_glide_einternal>  (81) 
5.98874

>  <r_i_glide_intrahb_reward>  (81) 
-0

>  <i_i_glide_confnum>  (81) 
3

>  <i_i_glide_posenum>  (81) 
8

>  <r_i_glide_eff_state_penalty>  (81) 
0

>  <ligand_id>  (81) 
44

>  <original_smiles>  (81) 
COC(=O)CC1C(C)C2OC3(CO)OC13OC(OC)C13OOC1=CC(OC)C23C

>  <smiles>  (81) 
[H]OC([H])([H])C12OC3([H])C([H])(C([H])([H])[H])C([H])(C([H])([H])C(=O)OC([H])([H])[H])C1(OC([H])(OC([H])([H])[H])C14OOC1=C([H])C([H])(OC([H])([H])[H])C34C([H])([H])[H])O2

$$$$
48:0:0
     RDKit          3D

 90101  0  0  1  0  0  0  0  0999 V2000
   -4.0248    3.5599    9.3294 C   0  0  0  0  0  0  0  0  0  0  0  0
   -3.0508    2.6483    8.8598 O   0  0  0  0  0  0  0  0  0  0  0  0
   -1.8218    2.8047    9.4902 C   0  0  0  0  0  0  0  0  0  0  0  0
   -1.1024    3.8912    8.9686 O   0  0  0  0  0  0  0  0  0  0  0  0
   -1.2153    4.1319    7.5567 C   0  0  2  0  0  0  0  0  0  0  0  0
   -0.6220    3.0692    6.6098 C   0  0  2  0  0  0  0  0  0  0  0  0
    0.0349    2.0121    7.2810 O   0  0  0  0  0  0  0  0  0  0  0  0
   -0.4087    0.7660    7.2075 C   0  0  0  0  0  0  0  0  0  0  0  0
   -1.5091    0.4293    6.7755 O   0  0  0  0  0  0  0  0  0  0  0  0
    0.6030   -0.1541    7.7394 C   0  0  0  0  0  0  0  0  0  0  0  0
    0.9864   -1.2982    7.1865 C   0  0  0  0  0  0  0  0  0  0  0  0
    1.8751   -2.4221    7.6778 C   0  0  1  0  0  0  0  0  0  0  0  0
    0.9950   -3.3068    6.9138 O   0  0  0  0  0  0  0  0  0  0  0  0
    0.5147   -2.2099    6.0868 C   0  0  1  0  0  0  0  0  0  0  0  0
   -0.9764   -2.4333    5.8798 C   0  0  0  0  0  0  0  0  0  0  0  0
    1.2788   -2.0674    4.9055 O   0  0  0  0  0  0  0  0  0  0  0  0
    1.2235   -0.9913    4.0996 C   0  0  0  0  0  0  0  0  0  0  0  0
    0.3049   -0.1523    4.0746 O   0  0  0  0  0  0  0  0  0  0  0  0
    2.4102   -0.9000    3.2066 C   0  0  2  0  0  0  0  0  0  0  0  0
    2.3132   -0.4562    1.8387 O   0  0  0  0  0  0  0  0  0  0  0  0
    2.2636   -1.8860    2.0033 C   0  0  1  0  0  0  0  0  0  0  0  0
    3.4859   -2.7995    2.0736 C   0  0  1  0  0  0  0  0  0  0  0  0
    3.0972   -4.2862    1.8958 C   0  0  0  0  0  0  0  0  0  0  0  0
    4.3808   -2.5300    1.0112 O   0  0  0  0  0  0  0  0  0  0  0  0
    4.0489   -2.5131    3.4761 C   0  0  1  0  0  0  0  0  0  0  0  0
    5.3512   -3.1095    3.9972 C   0  0  0  0  0  0  0  0  0  0  0  0
    5.3823   -2.9310    5.5552 C   0  0  0  0  0  0  0  0  0  0  0  0
    4.2595   -2.0426    6.1457 C   0  0  2  0  0  0  0  0  0  0  0  0
    4.3032   -1.8610    7.5749 O   0  0  0  0  0  0  0  0  0  0  0  0
    3.2706   -2.7414    7.1271 C   0  0  1  0  0  0  0  0  0  0  0  0
    4.1406   -0.7390    5.3317 C   0  0  2  0  0  0  0  0  0  0  0  0
    3.8733    0.6394    6.0770 C   0  0  1  0  0  0  0  0  0  0  0  0
    5.0659    1.6555    6.1132 C   0  0  0  0  0  0  0  0  0  0  0  0
    4.6342    3.0884    5.8658 C   0  0  2  0  0  0  0  0  0  0  0  0
    4.5171    3.9220    6.9537 O   0  0  0  0  0  0  0  0  0  0  0  0
    3.1978    3.4729    6.4067 C   0  0  2  0  0  0  0  0  0  0  0  0
    2.6463    2.3151    7.0356 O   0  0  0  0  0  0  0  0  0  0  0  0
    2.5929    1.4621    5.8269 C   0  0  1  0  0  0  0  0  0  0  0  0
    2.5834    2.8497    5.2012 C   0  0  1  0  0  0  0  0  0  0  0  0
    1.2776    3.4192    4.8966 O   0  0  0  0  0  0  0  0  0  0  0  0
    0.3941    3.9619    5.9100 C   0  0  2  0  0  0  0  0  0  0  0  0
    0.9459    4.7043    7.0234 O   0  0  0  0  0  0  0  0  0  0  0  0
   -0.3737    5.3123    7.0710 C   0  0  2  0  0  0  0  0  0  0  0  0
   -0.4823    6.6204    7.8608 C   0  0  0  0  0  0  0  0  0  0  0  0
   -0.3308    5.2824    5.5348 C   0  0  1  0  0  0  0  0  0  0  0  0
    0.4651    6.3102    4.9732 O   0  0  0  0  0  0  0  0  0  0  0  0
    0.6926    6.1538    3.5822 C   0  0  0  0  0  0  0  0  0  0  0  0
    3.8401   -1.0051    3.7765 C   0  0  2  0  0  0  0  0  0  0  0  0
    4.7745   -0.0664    2.9487 C   0  0  0  0  0  0  0  0  0  0  0  0
    6.1401   -0.2162    3.2834 O   0  0  0  0  0  0  0  0  0  0  0  0
   -4.9619    3.4524    8.7788 H   0  0  0  0  0  0  0  0  0  0  0  0
   -3.6793    4.5925    9.2310 H   0  0  0  0  0  0  0  0  0  0  0  0
   -4.2159    3.3431   10.3807 H   0  0  0  0  0  0  0  0  0  0  0  0
   -1.9444    2.9416   10.5744 H   0  0  0  0  0  0  0  0  0  0  0  0
   -1.2700    1.8723    9.3581 H   0  0  0  0  0  0  0  0  0  0  0  0
   -2.2587    4.3307    7.3141 H   0  0  0  0  0  0  0  0  0  0  0  0
   -1.3878    2.7105    5.9101 H   0  0  0  0  0  0  0  0  0  0  0  0
    1.1066    0.1810    8.6291 H   0  0  0  0  0  0  0  0  0  0  0  0
    1.7923   -2.6063    8.7489 H   0  0  0  0  0  0  0  0  0  0  0  0
   -1.0426   -3.3474    5.3036 H   0  0  0  0  0  0  0  0  0  0  0  0
   -1.4565   -1.6299    5.3214 H   0  0  0  0  0  0  0  0  0  0  0  0
   -1.5252   -2.5946    6.8094 H   0  0  0  0  0  0  0  0  0  0  0  0
    1.2990   -2.3296    1.7747 H   0  0  0  0  0  0  0  0  0  0  0  0
    2.3722   -4.6269    2.6359 H   0  0  0  0  0  0  0  0  0  0  0  0
    3.9699   -4.9373    1.9739 H   0  0  0  0  0  0  0  0  0  0  0  0
    2.6616   -4.4665    0.9117 H   0  0  0  0  0  0  0  0  0  0  0  0
    3.8908   -2.5866    0.2064 H   0  0  0  0  0  0  0  0  0  0  0  0
    3.3305   -3.0600    4.0809 H   0  0  0  0  0  0  0  0  0  0  0  0
    5.4382   -4.1702    3.7406 H   0  0  0  0  0  0  0  0  0  0  0  0
    6.1993   -2.6333    3.5089 H   0  0  0  0  0  0  0  0  0  0  0  0
    5.3083   -3.9236    5.9990 H   0  0  0  0  0  0  0  0  0  0  0  0
    6.3528   -2.5449    5.8683 H   0  0  0  0  0  0  0  0  0  0  0  0
    3.5063   -3.7928    7.2877 H   0  0  0  0  0  0  0  0  0  0  0  0
    5.2149   -0.5987    5.3112 H   0  0  0  0  0  0  0  0  0  0  0  0
    3.7828    0.3264    7.1180 H   0  0  0  0  0  0  0  0  0  0  0  0
    5.5762    1.6004    7.0755 H   0  0  0  0  0  0  0  0  0  0  0  0
    5.8353    1.4288    5.3876 H   0  0  0  0  0  0  0  0  0  0  0  0
    4.9122    3.5865    4.9423 H   0  0  0  0  0  0  0  0  0  0  0  0
    1.6894    0.9407    5.7349 H   0  0  0  0  0  0  0  0  0  0  0  0
    3.1082    2.9373    4.2543 H   0  0  0  0  0  0  0  0  0  0  0  0
   -1.4973    7.0236    7.8508 H   0  0  0  0  0  0  0  0  0  0  0  0
    0.1838    7.3791    7.4467 H   0  0  0  0  0  0  0  0  0  0  0  0
   -0.1923    6.4670    8.9005 H   0  0  0  0  0  0  0  0  0  0  0  0
   -1.3128    5.1599    5.0654 H   0  0  0  0  0  0  0  0  0  0  0  0
    1.3028    6.9725    3.2165 H   0  0  0  0  0  0  0  0  0  0  0  0
   -0.2506    6.1224    3.0345 H   0  0  0  0  0  0  0  0  0  0  0  0
    1.2433    5.2440    3.3607 H   0  0  0  0  0  0  0  0  0  0  0  0
    4.6896   -0.2506    1.8742 H   0  0  0  0  0  0  0  0  0  0  0  0
    4.4607    0.9512    3.1094 H   0  0  0  0  0  0  0  0  0  0  0  0
    6.4168   -1.0962    3.0465 H   0  0  0  0  0  0  0  0  0  0  0  0
  1  2  1  0
  1 51  1  0
  1 52  1  0
  1 53  1  0
  2  3  1  0
  3  4  1  0
  3 54  1  0
  3 55  1  0
  4  5  1  0
  5 43  1  0
  5  6  1  0
  5 56  1  6
  6 41  1  0
  6  7  1  0
  6 57  1  6
  7  8  1  0
  8  9  2  0
  8 10  1  0
 10 11  2  3
 10 58  1  0
 11 14  1  0
 11 12  1  0
 12 30  1  0
 12 13  1  0
 12 59  1  1
 13 14  1  0
 14 15  1  6
 14 16  1  0
 15 60  1  0
 15 61  1  0
 15 62  1  0
 16 17  1  0
 17 18  2  0
 17 19  1  0
 19 21  1  0
 19 48  1  0
 19 20  1  6
 20 21  1  0
 21 22  1  0
 21 63  1  1
 22 23  1  0
 22 24  1  6
 22 25  1  0
 23 64  1  0
 23 65  1  0
 23 66  1  0
 24 67  1  0
 25 48  1  0
 25 26  1  0
 25 68  1  1
 26 27  1  0
 26 69  1  0
 26 70  1  0
 27 28  1  0
 27 71  1  0
 27 72  1  0
 28 30  1  0
 28 29  1  1
 28 31  1  0
 29 30  1  0
 30 73  1  1
 31 32  1  0
 31 48  1  0
 31 74  1  6
 32 38  1  0
 32 33  1  0
 32 75  1  1
 33 34  1  0
 33 76  1  0
 33 77  1  0
 34 36  1  0
 34 35  1  0
 34 78  1  6
 36 35  1  1
 36 39  1  0
 36 37  1  0
 37 38  1  0
 38 39  1  0
 38 79  1  1
 39 40  1  0
 39 80  1  6
 41 40  1  6
 41 45  1  0
 41 42  1  0
 42 43  1  0
 43 44  1  6
 43 45  1  0
 44 81  1  0
 44 82  1  0
 44 83  1  0
 45 46  1  0
 45 84  1  6
 46 47  1  0
 47 85  1  0
 47 86  1  0
 47 87  1  0
 48 49  1  6
 49 50  1  0
 49 88  1  0
 49 89  1  0
 50 90  1  0
M  END
>  <i_m_ct_stereo_status>  (82) 
1

>  <s_m_source_file>  (82) 
/var/tmp/pbs.5076253.sched01/tmp9xbr3gte/40_qt8sgg8.sdf

>  <i_m_source_file_index>  (82) 
30

>  <i_lp_mmshare_version>  (82) 
48012

>  <i_f3d_flags>  (82) 
0

>  <s_epik_input>  (82) 
TzFbQ0BASF0yW0NAQEhdM1tDSDJdW0NASF0oTzQpQzE0W0NAQEhdMk9bQ0BdNShPW0NAQF0oW0NIM10pKFtDQEhdNU9bQ0gzXSlbQ0BASF02T1tDSDJdT1tDSDNdKVtDQEhdNk9DKD1PKS9bQ0hdPUMoW0NAQF0oTzcpKFtDSDNdKU9DOD1PKS9bQ0BASF03W0NASF0oTzkpW0NAQF05KFtDSDJdW0NIMl0xKVtDQEhdM1tDQEBdMihbQ0gyXVtPSF0pW0NASF0xW0NAXShbQ0BASF0oW0NAXTEyOClPMSkoW0NIM10pW09IXQ==

>  <s_epik_cmdline>  (82) 
J2VwaWtfcHl0aG9uJywgJy1waHQnLCAnMi4wJywgJy1waCcsICc3LjAnLCAnLXRuJywgJzgnLCAnLW1hJywgJzIwMCcsICctaW1hZScsICc8aW5maWxlLm1hZT4nLCAnLW9tYWUnLCAnPG91dGZpbGUubWFlPic=

>  <r_lp_tautomer_probability>  (82) 
1

>  <r_epik_Ionization_Penalty>  (82) 
9.79506e-08

>  <r_epik_Ionization_Penalty_Charging>  (82) 
0

>  <r_epik_Ionization_Penalty_Neutral>  (82) 
9.79506e-08

>  <r_epik_State_Penalty>  (82) 
-0

>  <r_epik_Charging_Adjusted_Penalty>  (82) 
0

>  <i_epik_Tot_Q>  (82) 
0

>  <i_epik_Tot_abs_Q>  (82) 
0

>  <s_epik_Chemistry_Notes>  (82) 
This compound has an ester and may undergo hydrolysis at high or low pH. This compound contains an acetal/aminal-like group ( X-CH(R)-Y where X, Y are N, S, or O) that may be acid/base labile, releasing an aldehyde.

>  <s_lp_Force_Field>  (82) 
OPLS3e

>  <r_lp_Energy>  (82) 
175.442

>  <b_lp_Chiralities_Consistent>  (82) 
1

>  <s_lp_Variant>  (82) 
48:0-1

>  <s_i_glide_gridfile>  (82) 
pfpi4k_grid

>  <i_i_glide_lignum>  (82) 
30

>  <i_i_glide_rotatable_bonds>  (82) 
7

>  <r_i_docking_score>  (82) 
-2.08349

>  <r_i_glide_ligand_efficiency>  (82) 
-0.0416699

>  <r_i_glide_ligand_efficiency_sa>  (82) 
-0.153513

>  <r_i_glide_ligand_efficiency_ln>  (82) 
-0.424162

>  <r_i_glide_gscore>  (82) 
-2.08349

>  <r_i_glide_lipo>  (82) 
-0.324601

>  <r_i_glide_hbond>  (82) 
-0.164194

>  <r_i_glide_metal>  (82) 
-0

>  <r_i_glide_rewards>  (82) 
0

>  <r_i_glide_evdw>  (82) 
-22.1796

>  <r_i_glide_ecoul>  (82) 
-3.4747

>  <r_i_glide_erotb>  (82) 
0.129623

>  <r_i_glide_esite>  (82) 
-0.0941361

>  <r_i_glide_emodel>  (82) 
-22.8569

>  <r_i_glide_energy>  (82) 
-25.6543

>  <r_i_glide_einternal>  (82) 
8.52951

>  <r_i_glide_intrahb_reward>  (82) 
-0

>  <i_i_glide_confnum>  (82) 
3

>  <i_i_glide_posenum>  (82) 
4

>  <r_i_glide_eff_state_penalty>  (82) 
0

>  <ligand_id>  (82) 
48

>  <original_smiles>  (82) 
COCOC1C2OC(=O)C=C3C4OC3(C)OC(=O)C35OC3C(C)(O)C3CCC6(OC46)C(C4CC6OC67OC4C7OC24OC1(C)C4OC)C35CO

>  <smiles>  (82) 
[H]OC([H])([H])C12C34OC3([H])C(O[H])(C([H])([H])[H])C1([H])C([H])([H])C([H])([H])C13OC1([H])C1([H])OC(C([H])([H])[H])(OC4=O)C1=C([H])C(=O)OC1([H])C([H])(OC([H])([H])OC([H])([H])[H])C4(C([H])([H])[H])OC1(OC1([H])C5([H])OC16OC6([H])C([H])([H])C5([H])C32[H])C4([H])OC([H])([H])[H]

$$$$
48:0:1
     RDKit          3D

 90101  0  0  1  0  0  0  0  0999 V2000
   -0.5226    2.1145    8.9938 C   0  0  0  0  0  0  0  0  0  0  0  0
   -0.5494    0.7068    8.8692 O   0  0  0  0  0  0  0  0  0  0  0  0
    0.6954    0.1759    8.5627 C   0  0  0  0  0  0  0  0  0  0  0  0
    1.1045    0.5027    7.2645 O   0  0  0  0  0  0  0  0  0  0  0  0
    0.1933    0.1510    6.2223 C   0  0  2  0  0  0  0  0  0  0  0  0
    0.1787   -1.3399    5.8264 C   0  0  2  0  0  0  0  0  0  0  0  0
    1.1061   -2.1246    6.5646 O   0  0  0  0  0  0  0  0  0  0  0  0
    0.7101   -3.0929    7.3975 C   0  0  0  0  0  0  0  0  0  0  0  0
   -0.4284   -3.2590    7.8121 O   0  0  0  0  0  0  0  0  0  0  0  0
    1.8757   -3.9319    7.7611 C   0  0  0  0  0  0  0  0  0  0  0  0
    1.9009   -5.2460    7.7924 C   0  0  0  0  0  0  0  0  0  0  0  0
    2.9385   -6.2371    8.2959 C   0  0  1  0  0  0  0  0  0  0  0  0
    1.7955   -7.0800    8.6540 O   0  0  0  0  0  0  0  0  0  0  0  0
    0.9105   -6.3983    7.7259 C   0  0  1  0  0  0  0  0  0  0  0  0
   -0.4559   -6.2437    8.4028 C   0  0  0  0  0  0  0  0  0  0  0  0
    0.9024   -7.0211    6.4548 O   0  0  0  0  0  0  0  0  0  0  0  0
    0.3960   -6.4360    5.3491 C   0  0  0  0  0  0  0  0  0  0  0  0
   -0.3835   -5.4744    5.3160 O   0  0  0  0  0  0  0  0  0  0  0  0
    0.8775   -7.1027    4.1028 C   0  0  2  0  0  0  0  0  0  0  0  0
    0.0181   -7.3057    2.9642 O   0  0  0  0  0  0  0  0  0  0  0  0
    0.1184   -8.4388    3.8484 C   0  0  1  0  0  0  0  0  0  0  0  0
    1.2078   -9.5106    3.7925 C   0  0  1  0  0  0  0  0  0  0  0  0
    0.8209  -10.7456    4.6317 C   0  0  0  0  0  0  0  0  0  0  0  0
    1.3757  -10.0058    2.4805 O   0  0  0  0  0  0  0  0  0  0  0  0
    2.4468   -8.7825    4.3504 C   0  0  1  0  0  0  0  0  0  0  0  0
    3.8469   -9.3890    4.3830 C   0  0  0  0  0  0  0  0  0  0  0  0
    4.7176   -8.5791    5.3964 C   0  0  0  0  0  0  0  0  0  0  0  0
    4.0911   -7.2496    5.8746 C   0  0  2  0  0  0  0  0  0  0  0  0
    4.9040   -6.4756    6.7739 O   0  0  0  0  0  0  0  0  0  0  0  0
    3.8074   -7.1316    7.4017 C   0  0  1  0  0  0  0  0  0  0  0  0
    3.5112   -6.4792    4.6622 C   0  0  2  0  0  0  0  0  0  0  0  0
    3.6802   -4.8980    4.6040 C   0  0  1  0  0  0  0  0  0  0  0  0
    4.7076   -4.3624    3.5448 C   0  0  0  0  0  0  0  0  0  0  0  0
    4.1796   -3.1477    2.8046 C   0  0  2  0  0  0  0  0  0  0  0  0
    4.6402   -1.8943    3.1410 O   0  0  0  0  0  0  0  0  0  0  0  0
    3.2578   -2.1633    3.6410 C   0  0  2  0  0  0  0  0  0  0  0  0
    3.1855   -2.7131    4.9514 O   0  0  0  0  0  0  0  0  0  0  0  0
    2.4527   -3.9492    4.5865 C   0  0  1  0  0  0  0  0  0  0  0  0
    2.0716   -3.0365    3.4181 C   0  0  1  0  0  0  0  0  0  0  0  0
    0.8170   -2.2925    3.4998 O   0  0  0  0  0  0  0  0  0  0  0  0
    0.6239   -1.1565    4.3769 C   0  0  2  0  0  0  0  0  0  0  0  0
    1.6851   -0.1899    4.5189 O   0  0  0  0  0  0  0  0  0  0  0  0
    0.6053    0.7171    4.8650 C   0  0  2  0  0  0  0  0  0  0  0  0
    0.9606    2.2061    4.8024 C   0  0  0  0  0  0  0  0  0  0  0  0
   -0.2064    0.0118    3.7676 C   0  0  1  0  0  0  0  0  0  0  0  0
    0.1304    0.3962    2.4460 O   0  0  0  0  0  0  0  0  0  0  0  0
   -0.6330    1.4920    1.9598 C   0  0  0  0  0  0  0  0  0  0  0  0
    2.3919   -7.3094    3.8655 C   0  0  2  0  0  0  0  0  0  0  0  0
    2.7277   -7.2040    2.3400 C   0  0  0  0  0  0  0  0  0  0  0  0
    2.4793   -5.9152    1.8305 O   0  0  0  0  0  0  0  0  0  0  0  0
   -1.5308    2.4719    9.2065 H   0  0  0  0  0  0  0  0  0  0  0  0
   -0.1751    2.5834    8.0715 H   0  0  0  0  0  0  0  0  0  0  0  0
    0.1363    2.4059    9.8127 H   0  0  0  0  0  0  0  0  0  0  0  0
    1.4566    0.5198    9.2732 H   0  0  0  0  0  0  0  0  0  0  0  0
    0.6101   -0.8967    8.7029 H   0  0  0  0  0  0  0  0  0  0  0  0
   -0.8052    0.5108    6.4617 H   0  0  0  0  0  0  0  0  0  0  0  0
   -0.8384   -1.7462    5.8873 H   0  0  0  0  0  0  0  0  0  0  0  0
    2.7825   -3.3751    7.9671 H   0  0  0  0  0  0  0  0  0  0  0  0
    3.4643   -5.8796    9.1796 H   0  0  0  0  0  0  0  0  0  0  0  0
   -0.8773   -7.2278    8.5783 H   0  0  0  0  0  0  0  0  0  0  0  0
   -1.1585   -5.6696    7.8022 H   0  0  0  0  0  0  0  0  0  0  0  0
   -0.3969   -5.7774    9.3838 H   0  0  0  0  0  0  0  0  0  0  0  0
   -0.7990   -8.6697    4.3863 H   0  0  0  0  0  0  0  0  0  0  0  0
    0.6144  -10.5052    5.6763 H   0  0  0  0  0  0  0  0  0  0  0  0
    1.6038  -11.5085    4.6227 H   0  0  0  0  0  0  0  0  0  0  0  0
   -0.0772  -11.2177    4.2300 H   0  0  0  0  0  0  0  0  0  0  0  0
    0.5613  -10.3954    2.2008 H   0  0  0  0  0  0  0  0  0  0  0  0
    2.2015   -8.7844    5.4110 H   0  0  0  0  0  0  0  0  0  0  0  0
    3.8035  -10.4376    4.6818 H   0  0  0  0  0  0  0  0  0  0  0  0
    4.2931   -9.3743    3.3879 H   0  0  0  0  0  0  0  0  0  0  0  0
    4.8975   -9.2181    6.2639 H   0  0  0  0  0  0  0  0  0  0  0  0
    5.7029   -8.3984    4.9652 H   0  0  0  0  0  0  0  0  0  0  0  0
    4.1084   -8.0087    7.9628 H   0  0  0  0  0  0  0  0  0  0  0  0
    4.3647   -6.6954    4.0237 H   0  0  0  0  0  0  0  0  0  0  0  0
    4.1757   -4.6773    5.5506 H   0  0  0  0  0  0  0  0  0  0  0  0
    5.6630   -4.1187    4.0173 H   0  0  0  0  0  0  0  0  0  0  0  0
    4.9603   -5.1019    2.7883 H   0  0  0  0  0  0  0  0  0  0  0  0
    4.0473   -3.2352    1.7342 H   0  0  0  0  0  0  0  0  0  0  0  0
    1.6695   -4.1665    5.2507 H   0  0  0  0  0  0  0  0  0  0  0  0
    1.9945   -3.5199    2.4524 H   0  0  0  0  0  0  0  0  0  0  0  0
    0.0960    2.8284    5.0329 H   0  0  0  0  0  0  0  0  0  0  0  0
    1.3138    2.4787    3.8070 H   0  0  0  0  0  0  0  0  0  0  0  0
    1.7623    2.4604    5.4931 H   0  0  0  0  0  0  0  0  0  0  0  0
   -1.2835   -0.0388    3.9625 H   0  0  0  0  0  0  0  0  0  0  0  0
   -0.3295    1.7008    0.9333 H   0  0  0  0  0  0  0  0  0  0  0  0
   -0.4933    2.4022    2.5429 H   0  0  0  0  0  0  0  0  0  0  0  0
   -1.6992    1.2659    1.9628 H   0  0  0  0  0  0  0  0  0  0  0  0
    3.7627   -7.4729    2.1463 H   0  0  0  0  0  0  0  0  0  0  0  0
    2.1355   -7.8815    1.7412 H   0  0  0  0  0  0  0  0  0  0  0  0
    3.1061   -5.3258    2.2125 H   0  0  0  0  0  0  0  0  0  0  0  0
  1  2  1  0
  1 51  1  0
  1 52  1  0
  1 53  1  0
  2  3  1  0
  3  4  1  0
  3 54  1  0
  3 55  1  0
  4  5  1  0
  5 43  1  0
  5  6  1  0
  5 56  1  1
  6 41  1  0
  6  7  1  0
  6 57  1  6
  7  8  1  0
  8  9  2  0
  8 10  1  0
 10 11  2  3
 10 58  1  0
 11 14  1  0
 11 12  1  0
 12 30  1  0
 12 13  1  0
 12 59  1  1
 13 14  1  0
 14 15  1  1
 14 16  1  0
 15 60  1  0
 15 61  1  0
 15 62  1  0
 16 17  1  0
 17 18  2  0
 17 19  1  0
 19 21  1  0
 19 48  1  0
 19 20  1  6
 20 21  1  0
 21 22  1  0
 21 63  1  1
 22 23  1  0
 22 24  1  6
 22 25  1  0
 23 64  1  0
 23 65  1  0
 23 66  1  0
 24 67  1  0
 25 48  1  0
 25 26  1  0
 25 68  1  1
 26 27  1  0
 26 69  1  0
 26 70  1  0
 27 28  1  0
 27 71  1  0
 27 72  1  0
 28 30  1  0
 28 29  1  1
 28 31  1  0
 29 30  1  0
 30 73  1  1
 31 32  1  0
 31 48  1  0
 31 74  1  6
 32 38  1  0
 32 33  1  0
 32 75  1  1
 33 34  1  0
 33 76  1  0
 33 77  1  0
 34 36  1  0
 34 35  1  0
 34 78  1  6
 36 35  1  1
 36 39  1  0
 36 37  1  0
 37 38  1  0
 38 39  1  0
 38 79  1  1
 39 40  1  0
 39 80  1  6
 41 40  1  6
 41 45  1  0
 41 42  1  0
 42 43  1  0
 43 44  1  1
 43 45  1  0
 44 81  1  0
 44 82  1  0
 44 83  1  0
 45 46  1  0
 45 84  1  1
 46 47  1  0
 47 85  1  0
 47 86  1  0
 47 87  1  0
 48 49  1  6
 49 50  1  0
 49 88  1  0
 49 89  1  0
 50 90  1  0
M  END
>  <i_m_ct_stereo_status>  (83) 
1

>  <s_m_source_file>  (83) 
/var/tmp/pbs.5076253.sched01/tmp9xbr3gte/40_qt8sgg8.sdf

>  <i_m_source_file_index>  (83) 
30

>  <i_lp_mmshare_version>  (83) 
48012

>  <i_f3d_flags>  (83) 
0

>  <s_epik_input>  (83) 
TzFbQ0BASF0yW0NAQEhdM1tDSDJdW0NASF0oTzQpQzE0W0NAQEhdMk9bQ0BdNShPW0NAQF0oW0NIM10pKFtDQEhdNU9bQ0gzXSlbQ0BASF02T1tDSDJdT1tDSDNdKVtDQEhdNk9DKD1PKS9bQ0hdPUMoW0NAQF0oTzcpKFtDSDNdKU9DOD1PKS9bQ0BASF03W0NASF0oTzkpW0NAQF05KFtDSDJdW0NIMl0xKVtDQEhdM1tDQEBdMihbQ0gyXVtPSF0pW0NASF0xW0NAXShbQ0BASF0oW0NAXTEyOClPMSkoW0NIM10pW09IXQ==

>  <s_epik_cmdline>  (83) 
J2VwaWtfcHl0aG9uJywgJy1waHQnLCAnMi4wJywgJy1waCcsICc3LjAnLCAnLXRuJywgJzgnLCAnLW1hJywgJzIwMCcsICctaW1hZScsICc8aW5maWxlLm1hZT4nLCAnLW9tYWUnLCAnPG91dGZpbGUubWFlPic=

>  <r_lp_tautomer_probability>  (83) 
1

>  <r_epik_Ionization_Penalty>  (83) 
9.79506e-08

>  <r_epik_Ionization_Penalty_Charging>  (83) 
0

>  <r_epik_Ionization_Penalty_Neutral>  (83) 
9.79506e-08

>  <r_epik_State_Penalty>  (83) 
-0

>  <r_epik_Charging_Adjusted_Penalty>  (83) 
0

>  <i_epik_Tot_Q>  (83) 
0

>  <i_epik_Tot_abs_Q>  (83) 
0

>  <s_epik_Chemistry_Notes>  (83) 
This compound has an ester and may undergo hydrolysis at high or low pH. This compound contains an acetal/aminal-like group ( X-CH(R)-Y where X, Y are N, S, or O) that may be acid/base labile, releasing an aldehyde.

>  <s_lp_Force_Field>  (83) 
OPLS3e

>  <r_lp_Energy>  (83) 
175.442

>  <b_lp_Chiralities_Consistent>  (83) 
1

>  <s_lp_Variant>  (83) 
48:0-1

>  <s_i_glide_gridfile>  (83) 
pfpi4k_grid

>  <i_i_glide_lignum>  (83) 
30

>  <i_i_glide_rotatable_bonds>  (83) 
7

>  <r_i_docking_score>  (83) 
-1.56245

>  <r_i_glide_ligand_efficiency>  (83) 
-0.0312491

>  <r_i_glide_ligand_efficiency_sa>  (83) 
-0.115123

>  <r_i_glide_ligand_efficiency_ln>  (83) 
-0.318088

>  <r_i_glide_gscore>  (83) 
-1.56245

>  <r_i_glide_lipo>  (83) 
-0.0159606

>  <r_i_glide_hbond>  (83) 
-0.0375501

>  <r_i_glide_metal>  (83) 
-0

>  <r_i_glide_rewards>  (83) 
-2.26875e-05

>  <r_i_glide_evdw>  (83) 
-25.8229

>  <r_i_glide_ecoul>  (83) 
-1.99691

>  <r_i_glide_erotb>  (83) 
0.129623

>  <r_i_glide_esite>  (83) 
-0.0478606

>  <r_i_glide_emodel>  (83) 
-29.0313

>  <r_i_glide_energy>  (83) 
-27.8198

>  <r_i_glide_einternal>  (83) 
1.5773

>  <r_i_glide_intrahb_reward>  (83) 
-0

>  <i_i_glide_confnum>  (83) 
1

>  <i_i_glide_posenum>  (83) 
2

>  <r_i_glide_eff_state_penalty>  (83) 
0

>  <ligand_id>  (83) 
48

>  <original_smiles>  (83) 
COCOC1C2OC(=O)C=C3C4OC3(C)OC(=O)C35OC3C(C)(O)C3CCC6(OC46)C(C4CC6OC67OC4C7OC24OC1(C)C4OC)C35CO

>  <smiles>  (83) 
[H]OC([H])([H])C12C34OC3([H])C(O[H])(C([H])([H])[H])C1([H])C([H])([H])C([H])([H])C13OC1([H])C1([H])OC(C([H])([H])[H])(OC4=O)C1=C([H])C(=O)OC1([H])C([H])(OC([H])([H])OC([H])([H])[H])C4(C([H])([H])[H])OC1(OC1([H])C5([H])OC16OC6([H])C([H])([H])C5([H])C32[H])C4([H])OC([H])([H])[H]

$$$$
48:0:2
     RDKit          3D

 90101  0  0  1  0  0  0  0  0999 V2000
    7.5573   -7.3007    6.3199 C   0  0  0  0  0  0  0  0  0  0  0  0
    7.2354   -5.9563    6.0285 O   0  0  0  0  0  0  0  0  0  0  0  0
    6.5177   -5.8297    4.8499 C   0  0  0  0  0  0  0  0  0  0  0  0
    5.2455   -6.3956    4.9586 O   0  0  0  0  0  0  0  0  0  0  0  0
    4.4308   -6.2269    3.8018 C   0  0  2  0  0  0  0  0  0  0  0  0
    3.6560   -4.8895    3.7654 C   0  0  2  0  0  0  0  0  0  0  0  0
    3.9273   -4.0787    4.9023 O   0  0  0  0  0  0  0  0  0  0  0  0
    4.5162   -2.8864    4.7955 C   0  0  0  0  0  0  0  0  0  0  0  0
    5.1092   -2.4712    3.8060 O   0  0  0  0  0  0  0  0  0  0  0  0
    4.3467   -2.1357    6.0580 C   0  0  0  0  0  0  0  0  0  0  0  0
    4.0016   -0.8653    6.1606 C   0  0  0  0  0  0  0  0  0  0  0  0
    3.9489    0.0863    7.3405 C   0  0  1  0  0  0  0  0  0  0  0  0
    4.3146    1.1298    6.3731 O   0  0  0  0  0  0  0  0  0  0  0  0
    3.8532    0.3346    5.2441 C   0  0  1  0  0  0  0  0  0  0  0  0
    4.8330    0.5265    4.0867 C   0  0  0  0  0  0  0  0  0  0  0  0
    2.4999    0.6061    4.9355 O   0  0  0  0  0  0  0  0  0  0  0  0
    1.7527   -0.1689    4.1259 C   0  0  0  0  0  0  0  0  0  0  0  0
    2.1595   -1.0117    3.3169 O   0  0  0  0  0  0  0  0  0  0  0  0
    0.2969    0.1137    4.3054 C   0  0  2  0  0  0  0  0  0  0  0  0
   -0.6121    0.1508    3.1972 O   0  0  0  0  0  0  0  0  0  0  0  0
   -0.1149    1.4351    3.5909 C   0  0  1  0  0  0  0  0  0  0  0  0
   -0.7380    2.3074    4.6789 C   0  0  1  0  0  0  0  0  0  0  0  0
   -0.2147    3.7563    4.5850 C   0  0  0  0  0  0  0  0  0  0  0  0
   -2.1407    2.3958    4.5121 O   0  0  0  0  0  0  0  0  0  0  0  0
   -0.3093    1.5982    5.9767 C   0  0  1  0  0  0  0  0  0  0  0  0
   -0.7744    2.0244    7.3699 C   0  0  0  0  0  0  0  0  0  0  0  0
    0.1825    1.3918    8.4291 C   0  0  0  0  0  0  0  0  0  0  0  0
    1.1402    0.3103    7.8775 C   0  0  2  0  0  0  0  0  0  0  0  0
    1.9989   -0.2996    8.8524 O   0  0  0  0  0  0  0  0  0  0  0  0
    2.6656    0.6155    7.9928 C   0  0  1  0  0  0  0  0  0  0  0  0
    0.3565   -0.6676    6.9641 C   0  0  2  0  0  0  0  0  0  0  0  0
    0.7262   -2.2203    7.0274 C   0  0  1  0  0  0  0  0  0  0  0  0
   -0.3243   -3.1561    7.7335 C   0  0  0  0  0  0  0  0  0  0  0  0
   -0.5786   -4.4281    6.9462 C   0  0  2  0  0  0  0  0  0  0  0  0
   -0.0552   -5.6220    7.3747 O   0  0  0  0  0  0  0  0  0  0  0  0
    0.6685   -5.0395    6.2044 C   0  0  2  0  0  0  0  0  0  0  0  0
    1.7470   -4.1684    6.5178 O   0  0  0  0  0  0  0  0  0  0  0  0
    1.2478   -2.9833    5.7813 C   0  0  1  0  0  0  0  0  0  0  0  0
    0.4968   -4.1020    5.0563 C   0  0  1  0  0  0  0  0  0  0  0  0
    1.0576   -4.6561    3.8253 O   0  0  0  0  0  0  0  0  0  0  0  0
    2.2469   -5.4887    3.8068 C   0  0  2  0  0  0  0  0  0  0  0  0
    2.4003   -6.5112    4.8113 O   0  0  0  0  0  0  0  0  0  0  0  0
    3.2246   -7.1628    3.8069 C   0  0  2  0  0  0  0  0  0  0  0  0
    3.4931   -8.6482    4.0691 C   0  0  0  0  0  0  0  0  0  0  0  0
    2.1901   -6.6646    2.7882 C   0  0  1  0  0  0  0  0  0  0  0  0
    0.9704   -7.4009    2.7473 O   0  0  0  0  0  0  0  0  0  0  0  0
    1.0229   -8.5206    1.8695 C   0  0  0  0  0  0  0  0  0  0  0  0
   -0.3450    0.0674    5.7168 C   0  0  2  0  0  0  0  0  0  0  0  0
   -1.8313   -0.4199    5.6221 C   0  0  0  0  0  0  0  0  0  0  0  0
   -1.9526   -1.8169    5.6132 O   0  0  0  0  0  0  0  0  0  0  0  0
    8.1331   -7.3488    7.2435 H   0  0  0  0  0  0  0  0  0  0  0  0
    8.1554   -7.7285    5.5161 H   0  0  0  0  0  0  0  0  0  0  0  0
    6.6556   -7.8999    6.4463 H   0  0  0  0  0  0  0  0  0  0  0  0
    6.4490   -4.7616    4.6647 H   0  0  0  0  0  0  0  0  0  0  0  0
    7.0665   -6.2712    4.0150 H   0  0  0  0  0  0  0  0  0  0  0  0
    5.0237   -6.3893    2.9022 H   0  0  0  0  0  0  0  0  0  0  0  0
    3.8397   -4.3584    2.8236 H   0  0  0  0  0  0  0  0  0  0  0  0
    4.4789   -2.7260    6.9581 H   0  0  0  0  0  0  0  0  0  0  0  0
    4.7515   -0.0925    8.0546 H   0  0  0  0  0  0  0  0  0  0  0  0
    4.7261    1.5482    3.7540 H   0  0  0  0  0  0  0  0  0  0  0  0
    4.6111   -0.0927    3.2248 H   0  0  0  0  0  0  0  0  0  0  0  0
    5.8776    0.3715    4.3626 H   0  0  0  0  0  0  0  0  0  0  0  0
    0.5217    1.9082    2.8447 H   0  0  0  0  0  0  0  0  0  0  0  0
    0.8741    3.8058    4.6508 H   0  0  0  0  0  0  0  0  0  0  0  0
   -0.6220    4.3861    5.3783 H   0  0  0  0  0  0  0  0  0  0  0  0
   -0.4929    4.2134    3.6321 H   0  0  0  0  0  0  0  0  0  0  0  0
   -2.3131    2.5886    3.6043 H   0  0  0  0  0  0  0  0  0  0  0  0
    0.7347    1.8977    6.0139 H   0  0  0  0  0  0  0  0  0  0  0  0
   -0.7681    3.1137    7.4647 H   0  0  0  0  0  0  0  0  0  0  0  0
   -1.8056    1.7233    7.5559 H   0  0  0  0  0  0  0  0  0  0  0  0
    0.7725    2.1989    8.8646 H   0  0  0  0  0  0  0  0  0  0  0  0
   -0.4020    0.9890    9.2573 H   0  0  0  0  0  0  0  0  0  0  0  0
    2.8789    1.5600    8.4761 H   0  0  0  0  0  0  0  0  0  0  0  0
   -0.5148   -0.7251    7.6151 H   0  0  0  0  0  0  0  0  0  0  0  0
    1.5621   -2.2454    7.7340 H   0  0  0  0  0  0  0  0  0  0  0  0
   -0.0583   -3.3778    8.7735 H   0  0  0  0  0  0  0  0  0  0  0  0
   -1.2945   -2.6935    7.7849 H   0  0  0  0  0  0  0  0  0  0  0  0
   -1.5771   -4.5630    6.5561 H   0  0  0  0  0  0  0  0  0  0  0  0
    1.9993   -2.5217    5.2110 H   0  0  0  0  0  0  0  0  0  0  0  0
   -0.5180   -3.8388    4.7794 H   0  0  0  0  0  0  0  0  0  0  0  0
    4.0728   -9.0875    3.2596 H   0  0  0  0  0  0  0  0  0  0  0  0
    2.5599   -9.2034    4.1533 H   0  0  0  0  0  0  0  0  0  0  0  0
    4.0246   -8.8133    5.0063 H   0  0  0  0  0  0  0  0  0  0  0  0
    2.6146   -6.4360    1.8066 H   0  0  0  0  0  0  0  0  0  0  0  0
    0.0660   -9.0427    1.8678 H   0  0  0  0  0  0  0  0  0  0  0  0
    1.7849   -9.2523    2.1325 H   0  0  0  0  0  0  0  0  0  0  0  0
    1.2469   -8.1908    0.8587 H   0  0  0  0  0  0  0  0  0  0  0  0
   -2.4005   -0.0522    6.4656 H   0  0  0  0  0  0  0  0  0  0  0  0
   -2.3423   -0.0538    4.7371 H   0  0  0  0  0  0  0  0  0  0  0  0
   -1.3378   -2.1535    4.9798 H   0  0  0  0  0  0  0  0  0  0  0  0
  1  2  1  0
  1 51  1  0
  1 52  1  0
  1 53  1  0
  2  3  1  0
  3  4  1  0
  3 54  1  0
  3 55  1  0
  4  5  1  0
  5 43  1  0
  5  6  1  0
  5 56  1  6
  6 41  1  0
  6  7  1  0
  6 57  1  6
  7  8  1  0
  8  9  2  0
  8 10  1  0
 10 11  2  3
 10 58  1  0
 11 14  1  0
 11 12  1  0
 12 30  1  0
 12 13  1  0
 12 59  1  1
 13 14  1  0
 14 15  1  6
 14 16  1  0
 15 60  1  0
 15 61  1  0
 15 62  1  0
 16 17  1  0
 17 18  2  0
 17 19  1  0
 19 21  1  0
 19 48  1  0
 19 20  1  6
 20 21  1  0
 21 22  1  0
 21 63  1  6
 22 23  1  0
 22 24  1  6
 22 25  1  0
 23 64  1  0
 23 65  1  0
 23 66  1  0
 24 67  1  0
 25 48  1  0
 25 26  1  0
 25 68  1  1
 26 27  1  0
 26 69  1  0
 26 70  1  0
 27 28  1  0
 27 71  1  0
 27 72  1  0
 28 30  1  0
 28 29  1  1
 28 31  1  0
 29 30  1  0
 30 73  1  1
 31 32  1  0
 31 48  1  0
 31 74  1  1
 32 38  1  0
 32 33  1  0
 32 75  1  1
 33 34  1  0
 33 76  1  0
 33 77  1  0
 34 36  1  0
 34 35  1  0
 34 78  1  6
 36 35  1  6
 36 39  1  0
 36 37  1  0
 37 38  1  0
 38 39  1  0
 38 79  1  6
 39 40  1  0
 39 80  1  6
 41 40  1  1
 41 45  1  0
 41 42  1  0
 42 43  1  0
 43 44  1  1
 43 45  1  0
 44 81  1  0
 44 82  1  0
 44 83  1  0
 45 46  1  0
 45 84  1  6
 46 47  1  0
 47 85  1  0
 47 86  1  0
 47 87  1  0
 48 49  1  6
 49 50  1  0
 49 88  1  0
 49 89  1  0
 50 90  1  0
M  END
>  <i_m_ct_stereo_status>  (84) 
1

>  <s_m_source_file>  (84) 
/var/tmp/pbs.5076253.sched01/tmp9xbr3gte/40_qt8sgg8.sdf

>  <i_m_source_file_index>  (84) 
30

>  <i_lp_mmshare_version>  (84) 
48012

>  <i_f3d_flags>  (84) 
0

>  <s_epik_input>  (84) 
TzFbQ0BASF0yW0NAQEhdM1tDSDJdW0NASF0oTzQpQzE0W0NAQEhdMk9bQ0BdNShPW0NAQF0oW0NIM10pKFtDQEhdNU9bQ0gzXSlbQ0BASF02T1tDSDJdT1tDSDNdKVtDQEhdNk9DKD1PKS9bQ0hdPUMoW0NAQF0oTzcpKFtDSDNdKU9DOD1PKS9bQ0BASF03W0NASF0oTzkpW0NAQF05KFtDSDJdW0NIMl0xKVtDQEhdM1tDQEBdMihbQ0gyXVtPSF0pW0NASF0xW0NAXShbQ0BASF0oW0NAXTEyOClPMSkoW0NIM10pW09IXQ==

>  <s_epik_cmdline>  (84) 
J2VwaWtfcHl0aG9uJywgJy1waHQnLCAnMi4wJywgJy1waCcsICc3LjAnLCAnLXRuJywgJzgnLCAnLW1hJywgJzIwMCcsICctaW1hZScsICc8aW5maWxlLm1hZT4nLCAnLW9tYWUnLCAnPG91dGZpbGUubWFlPic=

>  <r_lp_tautomer_probability>  (84) 
1

>  <r_epik_Ionization_Penalty>  (84) 
9.79506e-08

>  <r_epik_Ionization_Penalty_Charging>  (84) 
0

>  <r_epik_Ionization_Penalty_Neutral>  (84) 
9.79506e-08

>  <r_epik_State_Penalty>  (84) 
-0

>  <r_epik_Charging_Adjusted_Penalty>  (84) 
0

>  <i_epik_Tot_Q>  (84) 
0

>  <i_epik_Tot_abs_Q>  (84) 
0

>  <s_epik_Chemistry_Notes>  (84) 
This compound has an ester and may undergo hydrolysis at high or low pH. This compound contains an acetal/aminal-like group ( X-CH(R)-Y where X, Y are N, S, or O) that may be acid/base labile, releasing an aldehyde.

>  <s_lp_Force_Field>  (84) 
OPLS3e

>  <r_lp_Energy>  (84) 
175.442

>  <b_lp_Chiralities_Consistent>  (84) 
1

>  <s_lp_Variant>  (84) 
48:0-1

>  <s_i_glide_gridfile>  (84) 
pfpi4k_grid

>  <i_i_glide_lignum>  (84) 
30

>  <i_i_glide_rotatable_bonds>  (84) 
7

>  <r_i_docking_score>  (84) 
-1.29617

>  <r_i_glide_ligand_efficiency>  (84) 
-0.0259234

>  <r_i_glide_ligand_efficiency_sa>  (84) 
-0.0955025

>  <r_i_glide_ligand_efficiency_ln>  (84) 
-0.263877

>  <r_i_glide_gscore>  (84) 
-1.29617

>  <r_i_glide_lipo>  (84) 
-0.057591

>  <r_i_glide_hbond>  (84) 
0

>  <r_i_glide_metal>  (84) 
-0

>  <r_i_glide_rewards>  (84) 
-0.0228354

>  <r_i_glide_evdw>  (84) 
-21.5427

>  <r_i_glide_ecoul>  (84) 
-1.76471

>  <r_i_glide_erotb>  (84) 
0.129623

>  <r_i_glide_esite>  (84) 
-0.00352539

>  <r_i_glide_emodel>  (84) 
-21.7336

>  <r_i_glide_energy>  (84) 
-23.3074

>  <r_i_glide_einternal>  (84) 
4.81056

>  <r_i_glide_intrahb_reward>  (84) 
-0

>  <i_i_glide_confnum>  (84) 
2

>  <i_i_glide_posenum>  (84) 
16

>  <r_i_glide_eff_state_penalty>  (84) 
0

>  <ligand_id>  (84) 
48

>  <original_smiles>  (84) 
COCOC1C2OC(=O)C=C3C4OC3(C)OC(=O)C35OC3C(C)(O)C3CCC6(OC46)C(C4CC6OC67OC4C7OC24OC1(C)C4OC)C35CO

>  <smiles>  (84) 
[H]OC([H])([H])C12C34OC3([H])C(O[H])(C([H])([H])[H])C1([H])C([H])([H])C([H])([H])C13OC1([H])C1([H])OC(C([H])([H])[H])(OC4=O)C1=C([H])C(=O)OC1([H])C([H])(OC([H])([H])OC([H])([H])[H])C4(C([H])([H])[H])OC1(OC1([H])C5([H])OC16OC6([H])C([H])([H])C5([H])C32[H])C4([H])OC([H])([H])[H]

$$$$
48:1:0
     RDKit          3D

 90101  0  0  1  0  0  0  0  0999 V2000
    4.6808   -0.0302    1.0282 C   0  0  0  0  0  0  0  0  0  0  0  0
    4.1954   -0.4901    2.2793 O   0  0  0  0  0  0  0  0  0  0  0  0
    2.8288   -0.7510    2.2700 C   0  0  0  0  0  0  0  0  0  0  0  0
    2.4451   -1.4815    3.3916 O   0  0  0  0  0  0  0  0  0  0  0  0
    2.1866   -0.7145    4.5654 C   0  0  2  0  0  0  0  0  0  0  0  0
    2.6820   -1.3758    5.8558 C   0  0  2  0  0  0  0  0  0  0  0  0
    3.3771   -2.5967    5.6066 O   0  0  0  0  0  0  0  0  0  0  0  0
    4.5745   -2.8462    6.1758 C   0  0  0  0  0  0  0  0  0  0  0  0
    5.2512   -1.9916    6.7584 O   0  0  0  0  0  0  0  0  0  0  0  0
    4.9805   -4.2584    6.0965 C   0  0  0  0  0  0  0  0  0  0  0  0
    4.4777   -5.1441    5.1927 C   0  0  0  0  0  0  0  0  0  0  0  0
    3.6998   -4.9559    3.9402 C   0  0  1  0  0  0  0  0  0  0  0  0
    4.5944   -5.9616    3.3364 O   0  0  0  0  0  0  0  0  0  0  0  0
    4.9910   -6.4487    4.6566 C   0  0  1  0  0  0  0  0  0  0  0  0
    6.5052   -6.6974    4.6975 C   0  0  0  0  0  0  0  0  0  0  0  0
    4.1836   -7.5544    5.0152 O   0  0  0  0  0  0  0  0  0  0  0  0
    4.1484   -8.0794    6.2515 C   0  0  0  0  0  0  0  0  0  0  0  0
    4.9284   -7.8985    7.1650 O   0  0  0  0  0  0  0  0  0  0  0  0
    2.9617   -9.0039    6.3537 C   0  0  2  0  0  0  0  0  0  0  0  0
    3.0484  -10.2680    6.9952 O   0  0  0  0  0  0  0  0  0  0  0  0
    3.1923  -10.3172    5.5744 C   0  0  1  0  0  0  0  0  0  0  0  0
    2.0337  -10.4081    4.5707 C   0  0  1  0  0  0  0  0  0  0  0  0
    2.5449  -10.7901    3.1615 C   0  0  0  0  0  0  0  0  0  0  0  0
    1.1387  -11.4355    4.9319 O   0  0  0  0  0  0  0  0  0  0  0  0
    1.4435   -8.9829    4.5930 C   0  0  1  0  0  0  0  0  0  0  0  0
    0.1755   -8.5495    3.8601 C   0  0  0  0  0  0  0  0  0  0  0  0
    0.1404   -6.9858    3.7721 C   0  0  0  0  0  0  0  0  0  0  0  0
    1.2342   -6.2559    4.6154 C   0  0  2  0  0  0  0  0  0  0  0  0
    1.2754   -4.8304    4.5617 O   0  0  0  0  0  0  0  0  0  0  0  0
    2.2583   -5.4535    3.7640 C   0  0  1  0  0  0  0  0  0  0  0  0
    1.2450   -6.8847    6.0436 C   0  0  2  0  0  0  0  0  0  0  0  0
    1.2650   -6.0526    7.3884 C   0  0  1  0  0  0  0  0  0  0  0  0
    2.5054   -6.0951    8.3128 C   0  0  0  0  0  0  0  0  0  0  0  0
    2.5664   -4.9547    9.3299 C   0  0  2  0  0  0  0  0  0  0  0  0
    1.6804   -5.0443   10.3584 O   0  0  0  0  0  0  0  0  0  0  0  0
    1.3727   -3.9538    9.4090 C   0  0  1  0  0  0  0  0  0  0  0  0
    0.1918   -4.3941    8.7473 O   0  0  0  0  0  0  0  0  0  0  0  0
    0.7307   -4.5897    7.3958 C   0  0  1  0  0  0  0  0  0  0  0  0
    1.6004   -3.4924    7.9772 C   0  0  1  0  0  0  0  0  0  0  0  0
    1.1002   -2.1695    7.7826 O   0  0  0  0  0  0  0  0  0  0  0  0
    1.2937   -1.5586    6.5116 C   0  0  2  0  0  0  0  0  0  0  0  0
    0.5238   -2.0680    5.4131 O   0  0  0  0  0  0  0  0  0  0  0  0
    0.6905   -0.7090    4.9062 C   0  0  2  0  0  0  0  0  0  0  0  0
   -0.2665   -0.3496    3.7810 C   0  0  0  0  0  0  0  0  0  0  0  0
    0.4857   -0.2452    6.3482 C   0  0  1  0  0  0  0  0  0  0  0  0
   -0.8790   -0.2352    6.7936 O   0  0  0  0  0  0  0  0  0  0  0  0
   -1.5450    1.0006    6.5273 C   0  0  0  0  0  0  0  0  0  0  0  0
    1.5487   -8.4547    6.0473 C   0  0  2  0  0  0  0  0  0  0  0  0
    0.4899   -9.1504    6.9688 C   0  0  0  0  0  0  0  0  0  0  0  0
    0.7538   -9.0133    8.3450 O   0  0  0  0  0  0  0  0  0  0  0  0
    5.7539    0.1467    1.0906 H   0  0  0  0  0  0  0  0  0  0  0  0
    4.1965    0.9031    0.7391 H   0  0  0  0  0  0  0  0  0  0  0  0
    4.5198   -0.7669    0.2414 H   0  0  0  0  0  0  0  0  0  0  0  0
    2.2673    0.1840    2.1799 H   0  0  0  0  0  0  0  0  0  0  0  0
    2.5776   -1.3705    1.4079 H   0  0  0  0  0  0  0  0  0  0  0  0
    2.5863    0.2963    4.4874 H   0  0  0  0  0  0  0  0  0  0  0  0
    3.2850   -0.6530    6.4033 H   0  0  0  0  0  0  0  0  0  0  0  0
    5.7863   -4.5797    6.7257 H   0  0  0  0  0  0  0  0  0  0  0  0
    3.8764   -3.9763    3.4931 H   0  0  0  0  0  0  0  0  0  0  0  0
    6.7540   -7.6285    4.2041 H   0  0  0  0  0  0  0  0  0  0  0  0
    6.8830   -6.7768    5.7125 H   0  0  0  0  0  0  0  0  0  0  0  0
    7.0908   -5.9205    4.1940 H   0  0  0  0  0  0  0  0  0  0  0  0
    4.1779  -10.6148    5.2225 H   0  0  0  0  0  0  0  0  0  0  0  0
    3.3060  -10.1091    2.7704 H   0  0  0  0  0  0  0  0  0  0  0  0
    1.7209  -10.8034    2.4541 H   0  0  0  0  0  0  0  0  0  0  0  0
    2.9809  -11.7884    3.1576 H   0  0  0  0  0  0  0  0  0  0  0  0
    1.2147  -11.5985    5.8877 H   0  0  0  0  0  0  0  0  0  0  0  0
    2.1936   -8.4609    4.0079 H   0  0  0  0  0  0  0  0  0  0  0  0
    0.1412   -8.9912    2.8582 H   0  0  0  0  0  0  0  0  0  0  0  0
   -0.7007   -8.9188    4.3895 H   0  0  0  0  0  0  0  0  0  0  0  0
    0.2568   -6.7173    2.7257 H   0  0  0  0  0  0  0  0  0  0  0  0
   -0.8519   -6.6250    4.0599 H   0  0  0  0  0  0  0  0  0  0  0  0
    2.0290   -5.4405    2.7057 H   0  0  0  0  0  0  0  0  0  0  0  0
    0.1517   -6.9341    6.0818 H   0  0  0  0  0  0  0  0  0  0  0  0
    0.5207   -6.5952    7.9838 H   0  0  0  0  0  0  0  0  0  0  0  0
    2.5165   -7.0200    8.8892 H   0  0  0  0  0  0  0  0  0  0  0  0
    3.4234   -6.0550    7.7362 H   0  0  0  0  0  0  0  0  0  0  0  0
    3.5572   -4.6001    9.5932 H   0  0  0  0  0  0  0  0  0  0  0  0
   -0.0190   -4.3199    6.6661 H   0  0  0  0  0  0  0  0  0  0  0  0
    2.6188   -3.4642    7.6813 H   0  0  0  0  0  0  0  0  0  0  0  0
   -0.1243    0.6734    3.4433 H   0  0  0  0  0  0  0  0  0  0  0  0
   -1.3049   -0.4869    4.0705 H   0  0  0  0  0  0  0  0  0  0  0  0
   -0.0934   -1.0179    2.9464 H   0  0  0  0  0  0  0  0  0  0  0  0
    1.0482    0.6605    6.5756 H   0  0  0  0  0  0  0  0  0  0  0  0
   -2.5722    0.9731    6.8930 H   0  0  0  0  0  0  0  0  0  0  0  0
   -1.5984    1.2375    5.4646 H   0  0  0  0  0  0  0  0  0  0  0  0
   -1.0310    1.8323    7.0085 H   0  0  0  0  0  0  0  0  0  0  0  0
   -0.5082   -8.7948    6.7508 H   0  0  0  0  0  0  0  0  0  0  0  0
    0.4503  -10.2136    6.8122 H   0  0  0  0  0  0  0  0  0  0  0  0
    1.4345   -9.6403    8.5537 H   0  0  0  0  0  0  0  0  0  0  0  0
  1  2  1  0
  1 51  1  0
  1 52  1  0
  1 53  1  0
  2  3  1  0
  3  4  1  0
  3 54  1  0
  3 55  1  0
  4  5  1  0
  5 43  1  0
  5  6  1  0
  5 56  1  6
  6 41  1  0
  6  7  1  0
  6 57  1  1
  7  8  1  0
  8  9  2  0
  8 10  1  0
 10 11  2  3
 10 58  1  0
 11 14  1  0
 11 12  1  0
 12 30  1  0
 12 13  1  0
 12 59  1  6
 13 14  1  0
 14 15  1  6
 14 16  1  0
 15 60  1  0
 15 61  1  0
 15 62  1  0
 16 17  1  0
 17 18  2  0
 17 19  1  0
 19 21  1  0
 19 48  1  0
 19 20  1  1
 20 21  1  0
 21 22  1  0
 21 63  1  1
 22 23  1  0
 22 24  1  1
 22 25  1  0
 23 64  1  0
 23 65  1  0
 23 66  1  0
 24 67  1  0
 25 48  1  0
 25 26  1  0
 25 68  1  6
 26 27  1  0
 26 69  1  0
 26 70  1  0
 27 28  1  0
 27 71  1  0
 27 72  1  0
 28 30  1  0
 28 29  1  1
 28 31  1  0
 29 30  1  0
 30 73  1  6
 31 32  1  0
 31 48  1  0
 31 74  1  1
 32 38  1  0
 32 33  1  0
 32 75  1  1
 33 34  1  0
 33 76  1  0
 33 77  1  0
 34 36  1  0
 34 35  1  0
 34 78  1  1
 36 35  1  6
 36 39  1  0
 36 37  1  0
 37 38  1  0
 38 39  1  0
 38 79  1  6
 39 40  1  0
 39 80  1  6
 41 40  1  1
 41 45  1  0
 41 42  1  0
 42 43  1  0
 43 44  1  6
 43 45  1  0
 44 81  1  0
 44 82  1  0
 44 83  1  0
 45 46  1  0
 45 84  1  6
 46 47  1  0
 47 85  1  0
 47 86  1  0
 47 87  1  0
 48 49  1  1
 49 50  1  0
 49 88  1  0
 49 89  1  0
 50 90  1  0
M  END
>  <i_m_ct_stereo_status>  (85) 
1

>  <s_m_source_file>  (85) 
/var/tmp/pbs.5076253.sched01/tmp9xbr3gte/40_qt8sgg8.sdf

>  <i_m_source_file_index>  (85) 
31

>  <i_lp_mmshare_version>  (85) 
48012

>  <i_f3d_flags>  (85) 
0

>  <s_epik_input>  (85) 
TzFbQ0BASF0yW0NAQEhdM1tDSDJdW0NASF0oTzQpQzE0W0NAQEhdMk9bQ0BdNShPW0NAQF0oW0NIM10pKFtDQEhdNU9bQ0gzXSlbQ0BASF02T1tDSDJdT1tDSDNdKVtDQEhdNk9DKD1PKS9bQ0hdPUMoW0NAQF0oTzcpKFtDSDNdKU9DOD1PKS9bQ0BASF03W0NASF0oTzkpW0NAQF05KFtDSDJdW0NIMl0xKVtDQEhdM1tDQEBdMihbQ0gyXVtPSF0pW0NASF0xW0NAXShbQ0BASF0oW0NAXTEyOClPMSkoW0NIM10pW09IXQ==

>  <s_epik_cmdline>  (85) 
J2VwaWtfcHl0aG9uJywgJy1waHQnLCAnMi4wJywgJy1waCcsICc3LjAnLCAnLXRuJywgJzgnLCAnLW1hJywgJzIwMCcsICctaW1hZScsICc8aW5maWxlLm1hZT4nLCAnLW9tYWUnLCAnPG91dGZpbGUubWFlPic=

>  <r_lp_tautomer_probability>  (85) 
1

>  <r_epik_Ionization_Penalty>  (85) 
9.79506e-08

>  <r_epik_Ionization_Penalty_Charging>  (85) 
0

>  <r_epik_Ionization_Penalty_Neutral>  (85) 
9.79506e-08

>  <r_epik_State_Penalty>  (85) 
-0

>  <r_epik_Charging_Adjusted_Penalty>  (85) 
0

>  <i_epik_Tot_Q>  (85) 
0

>  <i_epik_Tot_abs_Q>  (85) 
0

>  <s_epik_Chemistry_Notes>  (85) 
This compound has an ester and may undergo hydrolysis at high or low pH. This compound contains an acetal/aminal-like group ( X-CH(R)-Y where X, Y are N, S, or O) that may be acid/base labile, releasing an aldehyde.

>  <s_lp_Force_Field>  (85) 
OPLS3e

>  <r_lp_Energy>  (85) 
171.253

>  <b_lp_Chiralities_Consistent>  (85) 
1

>  <s_lp_Variant>  (85) 
48:0-2

>  <s_i_glide_gridfile>  (85) 
pfpi4k_grid

>  <i_i_glide_lignum>  (85) 
31

>  <i_i_glide_rotatable_bonds>  (85) 
7

>  <r_i_docking_score>  (85) 
-2.81335

>  <r_i_glide_ligand_efficiency>  (85) 
-0.056267

>  <r_i_glide_ligand_efficiency_sa>  (85) 
-0.207289

>  <r_i_glide_ligand_efficiency_ln>  (85) 
-0.572748

>  <r_i_glide_gscore>  (85) 
-2.81335

>  <r_i_glide_lipo>  (85) 
-0.0990519

>  <r_i_glide_hbond>  (85) 
-0.0983846

>  <r_i_glide_metal>  (85) 
-0

>  <r_i_glide_rewards>  (85) 
-0.502998

>  <r_i_glide_evdw>  (85) 
-23.9242

>  <r_i_glide_ecoul>  (85) 
-6.85708

>  <r_i_glide_erotb>  (85) 
0.129623

>  <r_i_glide_esite>  (85) 
-0.0177646

>  <r_i_glide_emodel>  (85) 
-38.4208

>  <r_i_glide_energy>  (85) 
-30.7813

>  <r_i_glide_einternal>  (85) 
6.21049

>  <r_i_glide_intrahb_reward>  (85) 
-0.5

>  <i_i_glide_confnum>  (85) 
6

>  <i_i_glide_posenum>  (85) 
13

>  <r_i_glide_eff_state_penalty>  (85) 
0

>  <ligand_id>  (85) 
48

>  <original_smiles>  (85) 
COCOC1C2OC(=O)C=C3C4OC3(C)OC(=O)C35OC3C(C)(O)C3CCC6(OC46)C(C4CC6OC67OC4C7OC24OC1(C)C4OC)C35CO

>  <smiles>  (85) 
[H]OC([H])([H])C12C34OC3([H])C(O[H])(C([H])([H])[H])C1([H])C([H])([H])C([H])([H])C13OC1([H])C1([H])OC(C([H])([H])[H])(OC4=O)C1=C([H])C(=O)OC1([H])C([H])(OC([H])([H])OC([H])([H])[H])C4(C([H])([H])[H])OC1(OC1([H])C5([H])OC16OC6([H])C([H])([H])C5([H])C32[H])C4([H])OC([H])([H])[H]

$$$$
48:1:1
     RDKit          3D

 90101  0  0  1  0  0  0  0  0999 V2000
    4.3507    0.0152    1.0297 C   0  0  0  0  0  0  0  0  0  0  0  0
    4.8570    0.0828    2.3560 O   0  0  0  0  0  0  0  0  0  0  0  0
    4.6511   -1.0764    3.0898 C   0  0  0  0  0  0  0  0  0  0  0  0
    3.3019   -1.3839    3.2106 O   0  0  0  0  0  0  0  0  0  0  0  0
    2.6189   -0.6155    4.1900 C   0  0  2  0  0  0  0  0  0  0  0  0
    2.5345   -1.3240    5.5421 C   0  0  2  0  0  0  0  0  0  0  0  0
    3.2301   -2.5759    5.5162 O   0  0  0  0  0  0  0  0  0  0  0  0
    4.0958   -2.9028    6.5087 C   0  0  0  0  0  0  0  0  0  0  0  0
    4.4980   -2.1162    7.3542 O   0  0  0  0  0  0  0  0  0  0  0  0
    4.4627   -4.3371    6.5018 C   0  0  0  0  0  0  0  0  0  0  0  0
    4.3200   -5.1582    5.4504 C   0  0  0  0  0  0  0  0  0  0  0  0
    4.1432   -4.8872    3.9910 C   0  0  1  0  0  0  0  0  0  0  0  0
    5.1730   -5.9052    3.7312 O   0  0  0  0  0  0  0  0  0  0  0  0
    4.9814   -6.4657    5.0772 C   0  0  1  0  0  0  0  0  0  0  0  0
    6.3452   -6.7803    5.7092 C   0  0  0  0  0  0  0  0  0  0  0  0
    4.0622   -7.5311    5.0353 O   0  0  0  0  0  0  0  0  0  0  0  0
    3.5083   -8.1003    6.0945 C   0  0  0  0  0  0  0  0  0  0  0  0
    3.8633   -8.0028    7.2536 O   0  0  0  0  0  0  0  0  0  0  0  0
    2.3455   -8.9651    5.6594 C   0  0  2  0  0  0  0  0  0  0  0  0
    2.1431  -10.2544    6.2094 O   0  0  0  0  0  0  0  0  0  0  0  0
    2.8413  -10.2532    4.9768 C   0  0  1  0  0  0  0  0  0  0  0  0
    2.1944  -10.2560    3.5802 C   0  0  1  0  0  0  0  0  0  0  0  0
    3.2285  -10.6106    2.4949 C   0  0  0  0  0  0  0  0  0  0  0  0
    1.1860  -11.2333    3.4871 O   0  0  0  0  0  0  0  0  0  0  0  0
    1.6819   -8.8130    3.4400 C   0  0  1  0  0  0  0  0  0  0  0  0
    0.8759   -8.2849    2.2549 C   0  0  0  0  0  0  0  0  0  0  0  0
    0.8994   -6.7215    2.2992 C   0  0  0  0  0  0  0  0  0  0  0  0
    1.5859   -6.0827    3.5514 C   0  0  2  0  0  0  0  0  0  0  0  0
    1.6785   -4.6652    3.6068 O   0  0  0  0  0  0  0  0  0  0  0  0
    2.8806   -5.2979    3.2287 C   0  0  1  0  0  0  0  0  0  0  0  0
    0.9957   -6.7402    4.8246 C   0  0  2  0  0  0  0  0  0  0  0  0
    0.4868   -5.9892    6.1151 C   0  0  1  0  0  0  0  0  0  0  0  0
    1.2574   -6.1471    7.4507 C   0  0  0  0  0  0  0  0  0  0  0  0
    0.9342   -5.0314    8.4721 C   0  0  2  0  0  0  0  0  0  0  0  0
   -0.2967   -5.1215    9.0488 O   0  0  0  0  0  0  0  0  0  0  0  0
   -0.1688   -3.9871    8.1281 C   0  0  1  0  0  0  0  0  0  0  0  0
   -0.9954   -4.3537    7.0216 O   0  0  0  0  0  0  0  0  0  0  0  0
    0.0355   -4.5026    5.9961 C   0  0  1  0  0  0  0  0  0  0  0  0
    0.6405   -3.4801    6.9395 C   0  0  1  0  0  0  0  0  0  0  0  0
    0.2861   -2.1180    6.6343 O   0  0  0  0  0  0  0  0  0  0  0  0
    0.9881   -1.4750    5.5763 C   0  0  2  0  0  0  0  0  0  0  0  0
    0.7257   -1.9123    4.2352 O   0  0  0  0  0  0  0  0  0  0  0  0
    1.1176   -0.5524    3.8932 C   0  0  2  0  0  0  0  0  0  0  0  0
    0.7261   -0.1100    2.4876 C   0  0  0  0  0  0  0  0  0  0  0  0
    0.3657   -0.1159    5.1534 C   0  0  1  0  0  0  0  0  0  0  0  0
   -1.0737   -0.0692    5.0453 O   0  0  0  0  0  0  0  0  0  0  0  0
   -1.5399    1.1936    4.5670 C   0  0  0  0  0  0  0  0  0  0  0  0
    1.1905   -8.3225    4.8321 C   0  0  2  0  0  0  0  0  0  0  0  0
   -0.1470   -8.9961    5.2871 C   0  0  0  0  0  0  0  0  0  0  0  0
   -1.2782   -8.6933    4.5183 O   0  0  0  0  0  0  0  0  0  0  0  0
    4.6058    0.9220    0.4888 H   0  0  0  0  0  0  0  0  0  0  0  0
    3.2649   -0.0514    1.0306 H   0  0  0  0  0  0  0  0  0  0  0  0
    4.7578   -0.8305    0.4690 H   0  0  0  0  0  0  0  0  0  0  0  0
    5.1655   -1.9021    2.6017 H   0  0  0  0  0  0  0  0  0  0  0  0
    5.1056   -0.9410    4.0742 H   0  0  0  0  0  0  0  0  0  0  0  0
    3.0284    0.3935    4.2698 H   0  0  0  0  0  0  0  0  0  0  0  0
    2.8969   -0.6570    6.3231 H   0  0  0  0  0  0  0  0  0  0  0  0
    4.9399   -4.7245    7.3960 H   0  0  0  0  0  0  0  0  0  0  0  0
    4.5061   -3.8948    3.7139 H   0  0  0  0  0  0  0  0  0  0  0  0
    6.7478   -7.7026    5.3022 H   0  0  0  0  0  0  0  0  0  0  0  0
    6.2714   -6.9150    6.7852 H   0  0  0  0  0  0  0  0  0  0  0  0
    7.0940   -6.0104    5.5244 H   0  0  0  0  0  0  0  0  0  0  0  0
    3.8755  -10.5815    5.0449 H   0  0  0  0  0  0  0  0  0  0  0  0
    4.0969   -9.9525    2.4913 H   0  0  0  0  0  0  0  0  0  0  0  0
    2.7711  -10.5441    1.5102 H   0  0  0  0  0  0  0  0  0  0  0  0
    3.5932  -11.6309    2.6116 H   0  0  0  0  0  0  0  0  0  0  0  0
    1.5787  -12.0888    3.6072 H   0  0  0  0  0  0  0  0  0  0  0  0
    2.6277   -8.3144    3.2546 H   0  0  0  0  0  0  0  0  0  0  0  0
    1.2861   -8.6542    1.3098 H   0  0  0  0  0  0  0  0  0  0  0  0
   -0.1479   -8.6512    2.2873 H   0  0  0  0  0  0  0  0  0  0  0  0
    1.4254   -6.3889    1.4016 H   0  0  0  0  0  0  0  0  0  0  0  0
   -0.1235   -6.3427    2.2052 H   0  0  0  0  0  0  0  0  0  0  0  0
    3.0904   -5.2359    2.1740 H   0  0  0  0  0  0  0  0  0  0  0  0
   -0.0146   -6.6919    4.4180 H   0  0  0  0  0  0  0  0  0  0  0  0
   -0.4372   -6.5436    6.3418 H   0  0  0  0  0  0  0  0  0  0  0  0
    0.9982   -7.0940    7.9306 H   0  0  0  0  0  0  0  0  0  0  0  0
    2.3370   -6.1083    7.2892 H   0  0  0  0  0  0  0  0  0  0  0  0
    1.7424   -4.7584    9.1412 H   0  0  0  0  0  0  0  0  0  0  0  0
   -0.3298   -4.1587    5.0277 H   0  0  0  0  0  0  0  0  0  0  0  0
    1.7036   -3.4895    7.0620 H   0  0  0  0  0  0  0  0  0  0  0  0
    1.0091    0.9217    2.3029 H   0  0  0  0  0  0  0  0  0  0  0  0
   -0.3466   -0.1908    2.3439 H   0  0  0  0  0  0  0  0  0  0  0  0
    1.1787   -0.7389    1.7259 H   0  0  0  0  0  0  0  0  0  0  0  0
    0.8046    0.7387    5.6577 H   0  0  0  0  0  0  0  0  0  0  0  0
   -2.6291    1.2026    4.4817 H   0  0  0  0  0  0  0  0  0  0  0  0
   -1.1680    1.4535    3.5765 H   0  0  0  0  0  0  0  0  0  0  0  0
   -1.2394    2.0028    5.2335 H   0  0  0  0  0  0  0  0  0  0  0  0
   -0.0750  -10.0782    5.2438 H   0  0  0  0  0  0  0  0  0  0  0  0
   -0.3199   -8.7746    6.3338 H   0  0  0  0  0  0  0  0  0  0  0  0
   -1.8247   -9.5162    4.5731 H   0  0  0  0  0  0  0  0  0  0  0  0
  1  2  1  0
  1 51  1  0
  1 52  1  0
  1 53  1  0
  2  3  1  0
  3  4  1  0
  3 54  1  0
  3 55  1  0
  4  5  1  0
  5 43  1  0
  5  6  1  0
  5 56  1  1
  6 41  1  0
  6  7  1  0
  6 57  1  1
  7  8  1  0
  8  9  2  0
  8 10  1  0
 10 11  2  3
 10 58  1  0
 11 14  1  0
 11 12  1  0
 12 30  1  0
 12 13  1  0
 12 59  1  1
 13 14  1  0
 14 15  1  1
 14 16  1  0
 15 60  1  0
 15 61  1  0
 15 62  1  0
 16 17  1  0
 17 18  2  0
 17 19  1  0
 19 21  1  0
 19 48  1  0
 19 20  1  1
 20 21  1  0
 21 22  1  0
 21 63  1  1
 22 23  1  0
 22 24  1  1
 22 25  1  0
 23 64  1  0
 23 65  1  0
 23 66  1  0
 24 67  1  0
 25 48  1  0
 25 26  1  0
 25 68  1  6
 26 27  1  0
 26 69  1  0
 26 70  1  0
 27 28  1  0
 27 71  1  0
 27 72  1  0
 28 30  1  0
 28 29  1  1
 28 31  1  0
 29 30  1  0
 30 73  1  6
 31 32  1  0
 31 48  1  0
 31 74  1  6
 32 38  1  0
 32 33  1  0
 32 75  1  1
 33 34  1  0
 33 76  1  0
 33 77  1  0
 34 36  1  0
 34 35  1  0
 34 78  1  1
 36 35  1  6
 36 39  1  0
 36 37  1  0
 37 38  1  0
 38 39  1  0
 38 79  1  6
 39 40  1  0
 39 80  1  1
 41 40  1  1
 41 45  1  0
 41 42  1  0
 42 43  1  0
 43 44  1  6
 43 45  1  0
 44 81  1  0
 44 82  1  0
 44 83  1  0
 45 46  1  0
 45 84  1  1
 46 47  1  0
 47 85  1  0
 47 86  1  0
 47 87  1  0
 48 49  1  1
 49 50  1  0
 49 88  1  0
 49 89  1  0
 50 90  1  0
M  END
>  <i_m_ct_stereo_status>  (86) 
1

>  <s_m_source_file>  (86) 
/var/tmp/pbs.5076253.sched01/tmp9xbr3gte/40_qt8sgg8.sdf

>  <i_m_source_file_index>  (86) 
31

>  <i_lp_mmshare_version>  (86) 
48012

>  <i_f3d_flags>  (86) 
0

>  <s_epik_input>  (86) 
TzFbQ0BASF0yW0NAQEhdM1tDSDJdW0NASF0oTzQpQzE0W0NAQEhdMk9bQ0BdNShPW0NAQF0oW0NIM10pKFtDQEhdNU9bQ0gzXSlbQ0BASF02T1tDSDJdT1tDSDNdKVtDQEhdNk9DKD1PKS9bQ0hdPUMoW0NAQF0oTzcpKFtDSDNdKU9DOD1PKS9bQ0BASF03W0NASF0oTzkpW0NAQF05KFtDSDJdW0NIMl0xKVtDQEhdM1tDQEBdMihbQ0gyXVtPSF0pW0NASF0xW0NAXShbQ0BASF0oW0NAXTEyOClPMSkoW0NIM10pW09IXQ==

>  <s_epik_cmdline>  (86) 
J2VwaWtfcHl0aG9uJywgJy1waHQnLCAnMi4wJywgJy1waCcsICc3LjAnLCAnLXRuJywgJzgnLCAnLW1hJywgJzIwMCcsICctaW1hZScsICc8aW5maWxlLm1hZT4nLCAnLW9tYWUnLCAnPG91dGZpbGUubWFlPic=

>  <r_lp_tautomer_probability>  (86) 
1

>  <r_epik_Ionization_Penalty>  (86) 
9.79506e-08

>  <r_epik_Ionization_Penalty_Charging>  (86) 
0

>  <r_epik_Ionization_Penalty_Neutral>  (86) 
9.79506e-08

>  <r_epik_State_Penalty>  (86) 
-0

>  <r_epik_Charging_Adjusted_Penalty>  (86) 
0

>  <i_epik_Tot_Q>  (86) 
0

>  <i_epik_Tot_abs_Q>  (86) 
0

>  <s_epik_Chemistry_Notes>  (86) 
This compound has an ester and may undergo hydrolysis at high or low pH. This compound contains an acetal/aminal-like group ( X-CH(R)-Y where X, Y are N, S, or O) that may be acid/base labile, releasing an aldehyde.

>  <s_lp_Force_Field>  (86) 
OPLS3e

>  <r_lp_Energy>  (86) 
171.253

>  <b_lp_Chiralities_Consistent>  (86) 
1

>  <s_lp_Variant>  (86) 
48:0-2

>  <s_i_glide_gridfile>  (86) 
pfpi4k_grid

>  <i_i_glide_lignum>  (86) 
31

>  <i_i_glide_rotatable_bonds>  (86) 
7

>  <r_i_docking_score>  (86) 
-2.47852

>  <r_i_glide_ligand_efficiency>  (86) 
-0.0495704

>  <r_i_glide_ligand_efficiency_sa>  (86) 
-0.182619

>  <r_i_glide_ligand_efficiency_ln>  (86) 
-0.504582

>  <r_i_glide_gscore>  (86) 
-2.47852

>  <r_i_glide_lipo>  (86) 
-0.0857713

>  <r_i_glide_hbond>  (86) 
-0.283142

>  <r_i_glide_metal>  (86) 
-0

>  <r_i_glide_rewards>  (86) 
-0.0882087

>  <r_i_glide_evdw>  (86) 
-24.474

>  <r_i_glide_ecoul>  (86) 
-5.99124

>  <r_i_glide_erotb>  (86) 
0.129623

>  <r_i_glide_esite>  (86) 
-0.0286365

>  <r_i_glide_emodel>  (86) 
-33.4173

>  <r_i_glide_energy>  (86) 
-30.4652

>  <r_i_glide_einternal>  (86) 
4.33226

>  <r_i_glide_intrahb_reward>  (86) 
-0

>  <i_i_glide_confnum>  (86) 
1

>  <i_i_glide_posenum>  (86) 
7

>  <r_i_glide_eff_state_penalty>  (86) 
0

>  <ligand_id>  (86) 
48

>  <original_smiles>  (86) 
COCOC1C2OC(=O)C=C3C4OC3(C)OC(=O)C35OC3C(C)(O)C3CCC6(OC46)C(C4CC6OC67OC4C7OC24OC1(C)C4OC)C35CO

>  <smiles>  (86) 
[H]OC([H])([H])C12C34OC3([H])C(O[H])(C([H])([H])[H])C1([H])C([H])([H])C([H])([H])C13OC1([H])C1([H])OC(C([H])([H])[H])(OC4=O)C1=C([H])C(=O)OC1([H])C([H])(OC([H])([H])OC([H])([H])[H])C4(C([H])([H])[H])OC1(OC1([H])C5([H])OC16OC6([H])C([H])([H])C5([H])C32[H])C4([H])OC([H])([H])[H]

$$$$
48:1:2
     RDKit          3D

 90101  0  0  1  0  0  0  0  0999 V2000
    3.8712   -0.4565    1.2623 C   0  0  0  0  0  0  0  0  0  0  0  0
    3.0560   -0.8922    2.3354 O   0  0  0  0  0  0  0  0  0  0  0  0
    1.6910   -0.8597    2.0668 C   0  0  0  0  0  0  0  0  0  0  0  0
    0.9261   -1.2476    3.1616 O   0  0  0  0  0  0  0  0  0  0  0  0
    1.1667   -0.4869    4.3346 C   0  0  2  0  0  0  0  0  0  0  0  0
    2.2133   -1.1262    5.2607 C   0  0  2  0  0  0  0  0  0  0  0  0
    2.7393   -2.3494    4.7474 O   0  0  0  0  0  0  0  0  0  0  0  0
    4.0742   -2.5630    4.6941 C   0  0  0  0  0  0  0  0  0  0  0  0
    4.9217   -1.7029    4.9148 O   0  0  0  0  0  0  0  0  0  0  0  0
    4.4230   -3.9638    4.3858 C   0  0  0  0  0  0  0  0  0  0  0  0
    3.6001   -4.8394    3.7870 C   0  0  0  0  0  0  0  0  0  0  0  0
    2.3256   -4.6656    3.0227 C   0  0  1  0  0  0  0  0  0  0  0  0
    2.8695   -5.6419    2.0561 O   0  0  0  0  0  0  0  0  0  0  0  0
    3.8295   -6.1335    3.0435 C   0  0  1  0  0  0  0  0  0  0  0  0
    5.2045   -6.3476    2.3990 C   0  0  0  0  0  0  0  0  0  0  0  0
    3.2966   -7.2641    3.7008 O   0  0  0  0  0  0  0  0  0  0  0  0
    3.8115   -7.8099    4.8121 C   0  0  0  0  0  0  0  0  0  0  0  0
    4.9236   -7.6064    5.2889 O   0  0  0  0  0  0  0  0  0  0  0  0
    2.8228   -8.7606    5.4187 C   0  0  2  0  0  0  0  0  0  0  0  0
    3.1920  -10.0400    5.9157 O   0  0  0  0  0  0  0  0  0  0  0  0
    2.6992  -10.0480    4.5737 C   0  0  1  0  0  0  0  0  0  0  0  0
    1.2203  -10.1462    4.1781 C   0  0  1  0  0  0  0  0  0  0  0  0
    1.0442  -10.5124    2.6904 C   0  0  0  0  0  0  0  0  0  0  0  0
    0.6291  -11.2066    4.8758 O   0  0  0  0  0  0  0  0  0  0  0  0
    0.6737   -8.7461    4.5075 C   0  0  1  0  0  0  0  0  0  0  0  0
   -0.7978   -8.3479    4.4362 C   0  0  0  0  0  0  0  0  0  0  0  0
   -0.9000   -6.7877    4.4041 C   0  0  0  0  0  0  0  0  0  0  0  0
    0.4428   -6.0364    4.6956 C   0  0  2  0  0  0  0  0  0  0  0  0
    0.4291   -4.6130    4.6583 O   0  0  0  0  0  0  0  0  0  0  0  0
    0.9735   -5.2061    3.4954 C   0  0  1  0  0  0  0  0  0  0  0  0
    1.1084   -6.6766    5.9494 C   0  0  2  0  0  0  0  0  0  0  0  0
    1.7060   -5.8606    7.1618 C   0  0  1  0  0  0  0  0  0  0  0  0
    3.2284   -5.8873    7.4399 C   0  0  0  0  0  0  0  0  0  0  0  0
    3.7248   -4.7597    8.3487 C   0  0  2  0  0  0  0  0  0  0  0  0
    3.3968   -4.8604    9.6564 O   0  0  0  0  0  0  0  0  0  0  0  0
    2.6577   -3.7898    8.9612 C   0  0  1  0  0  0  0  0  0  0  0  0
    1.3008   -4.2487    8.8959 O   0  0  0  0  0  0  0  0  0  0  0  0
    1.1993   -4.4167    7.4411 C   0  0  1  0  0  0  0  0  0  0  0  0
    2.2266   -3.3048    7.5825 C   0  0  1  0  0  0  0  0  0  0  0  0
    1.6817   -1.9893    7.6566 O   0  0  0  0  0  0  0  0  0  0  0  0
    1.2656   -1.3615    6.4515 C   0  0  2  0  0  0  0  0  0  0  0  0
    0.0896   -1.8926    5.8108 O   0  0  0  0  0  0  0  0  0  0  0  0
   -0.0223   -0.5307    5.2972 C   0  0  2  0  0  0  0  0  0  0  0  0
   -1.3959   -0.1571    4.7390 C   0  0  0  0  0  0  0  0  0  0  0  0
    0.4467   -0.0643    6.6765 C   0  0  1  0  0  0  0  0  0  0  0  0
   -0.5683   -0.1097    7.6796 O   0  0  0  0  0  0  0  0  0  0  0  0
   -0.0913    0.2849    8.9595 C   0  0  0  0  0  0  0  0  0  0  0  0
    1.4050   -8.2430    5.7811 C   0  0  2  0  0  0  0  0  0  0  0  0
    0.8800   -8.9732    7.0629 C   0  0  0  0  0  0  0  0  0  0  0  0
    1.7346   -8.8399    8.1751 O   0  0  0  0  0  0  0  0  0  0  0  0
    4.9158   -0.5224    1.5680 H   0  0  0  0  0  0  0  0  0  0  0  0
    3.6574    0.5830    1.0121 H   0  0  0  0  0  0  0  0  0  0  0  0
    3.7339   -1.0780    0.3758 H   0  0  0  0  0  0  0  0  0  0  0  0
    1.3841    0.1331    1.7214 H   0  0  0  0  0  0  0  0  0  0  0  0
    1.4764   -1.5890    1.2887 H   0  0  0  0  0  0  0  0  0  0  0  0
    1.4035    0.5462    4.0791 H   0  0  0  0  0  0  0  0  0  0  0  0
    2.9798   -0.3916    5.4997 H   0  0  0  0  0  0  0  0  0  0  0  0
    5.4355   -4.2665    4.5863 H   0  0  0  0  0  0  0  0  0  0  0  0
    2.2520   -3.6824    2.5558 H   0  0  0  0  0  0  0  0  0  0  0  0
    5.2210   -7.2702    1.8280 H   0  0  0  0  0  0  0  0  0  0  0  0
    5.9965   -6.4219    3.1386 H   0  0  0  0  0  0  0  0  0  0  0  0
    5.4843   -5.5486    1.7038 H   0  0  0  0  0  0  0  0  0  0  0  0
    3.4337  -10.3277    3.8239 H   0  0  0  0  0  0  0  0  0  0  0  0
    1.5456   -9.8139    2.0181 H   0  0  0  0  0  0  0  0  0  0  0  0
   -0.0044  -10.5631    2.3995 H   0  0  0  0  0  0  0  0  0  0  0  0
    1.4715  -11.4961    2.5106 H   0  0  0  0  0  0  0  0  0  0  0  0
   -0.3216  -11.0591    4.8799 H   0  0  0  0  0  0  0  0  0  0  0  0
    1.0736   -8.1936    3.6638 H   0  0  0  0  0  0  0  0  0  0  0  0
   -1.2690   -8.7799    3.5476 H   0  0  0  0  0  0  0  0  0  0  0  0
   -1.3428   -8.7441    5.2894 H   0  0  0  0  0  0  0  0  0  0  0  0
   -1.2683   -6.5229    3.4189 H   0  0  0  0  0  0  0  0  0  0  0  0
   -1.6704   -6.4540    5.1063 H   0  0  0  0  0  0  0  0  0  0  0  0
    0.3022   -5.2085    2.6472 H   0  0  0  0  0  0  0  0  0  0  0  0
    0.1462   -6.7547    6.4666 H   0  0  0  0  0  0  0  0  0  0  0  0
    1.3147   -6.4264    8.0146 H   0  0  0  0  0  0  0  0  0  0  0  0
    3.5129   -6.8188    7.9256 H   0  0  0  0  0  0  0  0  0  0  0  0
    3.7883   -5.8097    6.5155 H   0  0  0  0  0  0  0  0  0  0  0  0
    4.7129   -4.3631    8.1361 H   0  0  0  0  0  0  0  0  0  0  0  0
    0.1990   -4.1600    7.1213 H   0  0  0  0  0  0  0  0  0  0  0  0
    3.0127   -3.2513    6.8672 H   0  0  0  0  0  0  0  0  0  0  0  0
   -1.4231    0.8734    4.3941 H   0  0  0  0  0  0  0  0  0  0  0  0
   -2.1779   -0.2809    5.4867 H   0  0  0  0  0  0  0  0  0  0  0  0
   -1.6529   -0.7937    3.8955 H   0  0  0  0  0  0  0  0  0  0  0  0
    1.0022    0.8792    6.6334 H   0  0  0  0  0  0  0  0  0  0  0  0
   -0.8992    0.2597    9.6915 H   0  0  0  0  0  0  0  0  0  0  0  0
    0.3141    1.3005    8.9345 H   0  0  0  0  0  0  0  0  0  0  0  0
    0.6929   -0.3946    9.2968 H   0  0  0  0  0  0  0  0  0  0  0  0
   -0.1104   -8.6295    7.3349 H   0  0  0  0  0  0  0  0  0  0  0  0
    0.7891  -10.0378    6.9147 H   0  0  0  0  0  0  0  0  0  0  0  0
    2.3735   -9.5391    8.1107 H   0  0  0  0  0  0  0  0  0  0  0  0
  1  2  1  0
  1 51  1  0
  1 52  1  0
  1 53  1  0
  2  3  1  0
  3  4  1  0
  3 54  1  0
  3 55  1  0
  4  5  1  0
  5 43  1  0
  5  6  1  0
  5 56  1  6
  6 41  1  0
  6  7  1  0
  6 57  1  1
  7  8  1  0
  8  9  2  0
  8 10  1  0
 10 11  2  3
 10 58  1  0
 11 14  1  0
 11 12  1  0
 12 30  1  0
 12 13  1  0
 12 59  1  6
 13 14  1  0
 14 15  1  6
 14 16  1  0
 15 60  1  0
 15 61  1  0
 15 62  1  0
 16 17  1  0
 17 18  2  0
 17 19  1  0
 19 21  1  0
 19 48  1  0
 19 20  1  1
 20 21  1  0
 21 22  1  0
 21 63  1  6
 22 23  1  0
 22 24  1  1
 22 25  1  0
 23 64  1  0
 23 65  1  0
 23 66  1  0
 24 67  1  0
 25 48  1  0
 25 26  1  0
 25 68  1  6
 26 27  1  0
 26 69  1  0
 26 70  1  0
 27 28  1  0
 27 71  1  0
 27 72  1  0
 28 30  1  0
 28 29  1  1
 28 31  1  0
 29 30  1  0
 30 73  1  6
 31 32  1  0
 31 48  1  0
 31 74  1  1
 32 38  1  0
 32 33  1  0
 32 75  1  1
 33 34  1  0
 33 76  1  0
 33 77  1  0
 34 36  1  0
 34 35  1  0
 34 78  1  1
 36 35  1  6
 36 39  1  0
 36 37  1  0
 37 38  1  0
 38 39  1  0
 38 79  1  6
 39 40  1  0
 39 80  1  6
 41 40  1  1
 41 45  1  0
 41 42  1  0
 42 43  1  0
 43 44  1  6
 43 45  1  0
 44 81  1  0
 44 82  1  0
 44 83  1  0
 45 46  1  0
 45 84  1  6
 46 47  1  0
 47 85  1  0
 47 86  1  0
 47 87  1  0
 48 49  1  1
 49 50  1  0
 49 88  1  0
 49 89  1  0
 50 90  1  0
M  END
>  <i_m_ct_stereo_status>  (87) 
1

>  <s_m_source_file>  (87) 
/var/tmp/pbs.5076253.sched01/tmp9xbr3gte/40_qt8sgg8.sdf

>  <i_m_source_file_index>  (87) 
31

>  <i_lp_mmshare_version>  (87) 
48012

>  <i_f3d_flags>  (87) 
0

>  <s_epik_input>  (87) 
TzFbQ0BASF0yW0NAQEhdM1tDSDJdW0NASF0oTzQpQzE0W0NAQEhdMk9bQ0BdNShPW0NAQF0oW0NIM10pKFtDQEhdNU9bQ0gzXSlbQ0BASF02T1tDSDJdT1tDSDNdKVtDQEhdNk9DKD1PKS9bQ0hdPUMoW0NAQF0oTzcpKFtDSDNdKU9DOD1PKS9bQ0BASF03W0NASF0oTzkpW0NAQF05KFtDSDJdW0NIMl0xKVtDQEhdM1tDQEBdMihbQ0gyXVtPSF0pW0NASF0xW0NAXShbQ0BASF0oW0NAXTEyOClPMSkoW0NIM10pW09IXQ==

>  <s_epik_cmdline>  (87) 
J2VwaWtfcHl0aG9uJywgJy1waHQnLCAnMi4wJywgJy1waCcsICc3LjAnLCAnLXRuJywgJzgnLCAnLW1hJywgJzIwMCcsICctaW1hZScsICc8aW5maWxlLm1hZT4nLCAnLW9tYWUnLCAnPG91dGZpbGUubWFlPic=

>  <r_lp_tautomer_probability>  (87) 
1

>  <r_epik_Ionization_Penalty>  (87) 
9.79506e-08

>  <r_epik_Ionization_Penalty_Charging>  (87) 
0

>  <r_epik_Ionization_Penalty_Neutral>  (87) 
9.79506e-08

>  <r_epik_State_Penalty>  (87) 
-0

>  <r_epik_Charging_Adjusted_Penalty>  (87) 
0

>  <i_epik_Tot_Q>  (87) 
0

>  <i_epik_Tot_abs_Q>  (87) 
0

>  <s_epik_Chemistry_Notes>  (87) 
This compound has an ester and may undergo hydrolysis at high or low pH. This compound contains an acetal/aminal-like group ( X-CH(R)-Y where X, Y are N, S, or O) that may be acid/base labile, releasing an aldehyde.

>  <s_lp_Force_Field>  (87) 
OPLS3e

>  <r_lp_Energy>  (87) 
171.253

>  <b_lp_Chiralities_Consistent>  (87) 
1

>  <s_lp_Variant>  (87) 
48:0-2

>  <s_i_glide_gridfile>  (87) 
pfpi4k_grid

>  <i_i_glide_lignum>  (87) 
31

>  <i_i_glide_rotatable_bonds>  (87) 
7

>  <r_i_docking_score>  (87) 
-2.26122

>  <r_i_glide_ligand_efficiency>  (87) 
-0.0452244

>  <r_i_glide_ligand_efficiency_sa>  (87) 
-0.166608

>  <r_i_glide_ligand_efficiency_ln>  (87) 
-0.460344

>  <r_i_glide_gscore>  (87) 
-2.26122

>  <r_i_glide_lipo>  (87) 
-0.212751

>  <r_i_glide_hbond>  (87) 
-0.0466716

>  <r_i_glide_metal>  (87) 
-0

>  <r_i_glide_rewards>  (87) 
0

>  <r_i_glide_evdw>  (87) 
-26.0457

>  <r_i_glide_ecoul>  (87) 
-5.09938

>  <r_i_glide_erotb>  (87) 
0.129623

>  <r_i_glide_esite>  (87) 
-0.0642285

>  <r_i_glide_emodel>  (87) 
-33.8893

>  <r_i_glide_energy>  (87) 
-31.1451

>  <r_i_glide_einternal>  (87) 
3.40075

>  <r_i_glide_intrahb_reward>  (87) 
-0

>  <i_i_glide_confnum>  (87) 
6

>  <i_i_glide_posenum>  (87) 
3

>  <r_i_glide_eff_state_penalty>  (87) 
0

>  <ligand_id>  (87) 
48

>  <original_smiles>  (87) 
COCOC1C2OC(=O)C=C3C4OC3(C)OC(=O)C35OC3C(C)(O)C3CCC6(OC46)C(C4CC6OC67OC4C7OC24OC1(C)C4OC)C35CO

>  <smiles>  (87) 
[H]OC([H])([H])C12C34OC3([H])C(O[H])(C([H])([H])[H])C1([H])C([H])([H])C([H])([H])C13OC1([H])C1([H])OC(C([H])([H])[H])(OC4=O)C1=C([H])C(=O)OC1([H])C([H])(OC([H])([H])OC([H])([H])[H])C4(C([H])([H])[H])OC1(OC1([H])C5([H])OC16OC6([H])C([H])([H])C5([H])C32[H])C4([H])OC([H])([H])[H]

$$$$
50:0:0
     RDKit          3D

 78 88  0  0  1  0  0  0  0  0999 V2000
    6.6730   -2.5778   -1.1323 C   0  0  0  0  0  0  0  0  0  0  0  0
    6.4092   -3.7805   -0.4178 O   0  0  0  0  0  0  0  0  0  0  0  0
    5.8981   -3.5730    0.8921 C   0  0  2  0  0  0  0  0  0  0  0  0
    5.8426   -4.9099    1.6625 C   0  0  2  0  0  0  0  0  0  0  0  0
    5.1792   -5.8211    0.8161 O   0  0  0  0  0  0  0  0  0  0  0  0
    3.7458   -5.3427    0.8100 O   0  0  0  0  0  0  0  0  0  0  0  0
    3.7238   -4.2665    1.7273 C   0  0  2  0  0  0  0  0  0  0  0  0
    2.4329   -3.8993    2.1700 O   0  0  0  0  0  0  0  0  0  0  0  0
    1.5686   -4.8361    2.7904 C   0  0  1  0  0  0  0  0  0  0  0  0
    1.2135   -5.8877    1.9078 O   0  0  0  0  0  0  0  0  0  0  0  0
   -0.0372   -6.5832    2.3660 O   0  0  0  0  0  0  0  0  0  0  0  0
    0.2992   -7.8375    2.9546 C   0  0  1  0  0  0  0  0  0  0  0  0
   -0.6607   -8.9407    2.5965 C   0  0  0  0  0  0  0  0  0  0  0  0
    0.1617  -10.2305    2.8120 C   0  0  0  0  0  0  0  0  0  0  0  0
    1.6398   -9.8479    2.5545 C   0  0  0  0  0  0  0  0  0  0  0  0
    1.7150   -8.3533    2.8087 C   0  0  2  0  0  0  0  0  0  0  0  0
    1.8865   -7.8113    4.2119 C   0  0  1  0  0  0  0  0  0  0  0  0
    2.5873   -6.5446    4.2523 O   0  0  0  0  0  0  0  0  0  0  0  0
    1.8411   -5.3331    4.2616 C   0  0  1  0  0  0  0  0  0  0  0  0
    2.5052   -4.3901    5.3347 C   0  0  2  0  0  0  0  0  0  0  0  0
    1.8684   -4.6597    6.6925 C   0  0  0  0  0  0  0  0  0  0  0  0
    1.0094   -3.7339    7.0195 C   0  0  0  0  0  0  0  0  0  0  0  0
    0.8837   -2.6184    6.0542 C   0  0  0  0  0  0  0  0  0  0  0  0
    2.1683   -2.8696    5.2169 C   0  0  1  0  0  0  0  0  0  0  0  0
    3.2361   -1.9972    5.6851 O   0  0  0  0  0  0  0  0  0  0  0  0
    3.6223   -1.8536    4.3276 C   0  0  1  0  0  0  0  0  0  0  0  0
    2.3123   -2.2341    3.9564 O   0  0  0  0  0  0  0  0  0  0  0  0
    4.0672   -0.5367    3.6256 C   0  0  1  0  0  0  0  0  0  0  0  0
    4.9177    0.3107    4.3713 O   0  0  0  0  0  0  0  0  0  0  0  0
    4.2029    1.1919    5.2288 C   0  0  0  0  0  0  0  0  0  0  0  0
    4.9069   -1.4725    2.6818 C   0  0  2  0  0  0  0  0  0  0  0  0
    4.1700   -1.8388    1.5207 O   0  0  0  0  0  0  0  0  0  0  0  0
    4.4120   -3.1309    0.9397 C   0  0  1  0  0  0  0  0  0  0  0  0
    4.9558   -2.4724    3.8642 C   0  0  2  0  0  0  0  0  0  0  0  0
    5.2253   -3.8613    3.7651 O   0  0  0  0  0  0  0  0  0  0  0  0
    4.7704   -4.7210    2.7244 C   0  0  2  0  0  0  0  0  0  0  0  0
    0.3019   -3.7595    8.3532 C   0  0  0  0  0  0  0  0  0  0  0  0
   -0.3670   -2.7936    8.7425 O   0  0  0  0  0  0  0  0  0  0  0  0
    0.5048   -4.8943    9.0752 O   0  0  0  0  0  0  0  0  0  0  0  0
    1.0742   -6.1119    8.5528 C   0  0  0  0  0  0  0  0  0  0  0  0
    1.5549   -6.9259    9.7729 C   0  0  0  0  0  0  0  0  0  0  0  0
   -0.0495   -6.8847    7.8282 C   0  0  0  0  0  0  0  0  0  0  0  0
    2.2401   -5.8198    7.5836 C   0  0  0  0  0  0  0  0  0  0  0  0
    0.4502   -7.7545    4.3869 O   0  0  0  0  0  0  0  0  0  0  0  0
    7.0568   -2.8126   -2.1208 H   0  0  0  0  0  0  0  0  0  0  0  0
    7.4197   -1.9795   -0.6166 H   0  0  0  0  0  0  0  0  0  0  0  0
    5.7727   -1.9826   -1.2542 H   0  0  0  0  0  0  0  0  0  0  0  0
    6.5633   -2.9052    1.4332 H   0  0  0  0  0  0  0  0  0  0  0  0
    6.8095   -5.2666    2.0328 H   0  0  0  0  0  0  0  0  0  0  0  0
    0.6580   -4.2437    2.8852 H   0  0  0  0  0  0  0  0  0  0  0  0
   -1.5976   -8.9263    3.1459 H   0  0  0  0  0  0  0  0  0  0  0  0
   -0.9196   -8.8521    1.5429 H   0  0  0  0  0  0  0  0  0  0  0  0
    0.0478  -10.5247    3.8606 H   0  0  0  0  0  0  0  0  0  0  0  0
   -0.1392  -11.0611    2.1849 H   0  0  0  0  0  0  0  0  0  0  0  0
    2.3196  -10.4391    3.1787 H   0  0  0  0  0  0  0  0  0  0  0  0
    1.8903  -10.0701    1.5183 H   0  0  0  0  0  0  0  0  0  0  0  0
    2.3566   -7.8241    2.0913 H   0  0  0  0  0  0  0  0  0  0  0  0
    2.3601   -8.5567    4.8532 H   0  0  0  0  0  0  0  0  0  0  0  0
    0.8449   -5.5192    4.6543 H   0  0  0  0  0  0  0  0  0  0  0  0
    3.5696   -4.5621    5.4050 H   0  0  0  0  0  0  0  0  0  0  0  0
   -0.0090   -2.7959    5.4490 H   0  0  0  0  0  0  0  0  0  0  0  0
    0.8320   -1.6200    6.4936 H   0  0  0  0  0  0  0  0  0  0  0  0
    3.2744   -0.0456    3.0668 H   0  0  0  0  0  0  0  0  0  0  0  0
    4.8916    1.8393    5.7793 H   0  0  0  0  0  0  0  0  0  0  0  0
    3.6178    0.6347    5.9594 H   0  0  0  0  0  0  0  0  0  0  0  0
    3.5311    1.8325    4.6566 H   0  0  0  0  0  0  0  0  0  0  0  0
    5.8806   -1.0289    2.4606 H   0  0  0  0  0  0  0  0  0  0  0  0
    3.9861   -3.1216   -0.0650 H   0  0  0  0  0  0  0  0  0  0  0  0
    5.7182   -2.0991    4.5389 H   0  0  0  0  0  0  0  0  0  0  0  0
    4.5262   -5.6982    3.1487 H   0  0  0  0  0  0  0  0  0  0  0  0
    2.0143   -7.8672    9.4797 H   0  0  0  0  0  0  0  0  0  0  0  0
    0.7454   -7.1519   10.4667 H   0  0  0  0  0  0  0  0  0  0  0  0
    2.3029   -6.3609   10.3378 H   0  0  0  0  0  0  0  0  0  0  0  0
    0.3080   -7.8346    7.4276 H   0  0  0  0  0  0  0  0  0  0  0  0
   -0.4454   -6.3064    6.9946 H   0  0  0  0  0  0  0  0  0  0  0  0
   -0.8807   -7.1031    8.4812 H   0  0  0  0  0  0  0  0  0  0  0  0
    2.4901   -6.7049    7.0053 H   0  0  0  0  0  0  0  0  0  0  0  0
    3.1254   -5.5198    8.1418 H   0  0  0  0  0  0  0  0  0  0  0  0
  1  2  1  0
  1 45  1  0
  1 46  1  0
  1 47  1  0
  2  3  1  0
  3 33  1  0
  3  4  1  0
  3 48  1  1
  4 36  1  0
  4  5  1  0
  4 49  1  1
  5  6  1  0
  7  6  1  6
  7 33  1  0
  7 36  1  0
  7  8  1  0
  8  9  1  0
  9 19  1  0
  9 10  1  0
  9 50  1  1
 10 11  1  0
 11 12  1  0
 12 16  1  0
 12 44  1  0
 12 13  1  1
 13 14  1  0
 13 51  1  0
 13 52  1  0
 14 15  1  0
 14 53  1  0
 14 54  1  0
 15 16  1  0
 15 55  1  0
 15 56  1  0
 16 17  1  0
 16 57  1  6
 17 18  1  0
 17 44  1  0
 17 58  1  1
 18 19  1  0
 19 20  1  0
 19 59  1  1
 20 24  1  0
 20 21  1  0
 20 60  1  1
 21 43  1  0
 21 22  2  0
 22 23  1  0
 22 37  1  0
 24 23  1  1
 23 61  1  0
 23 62  1  0
 24 27  1  0
 24 25  1  0
 26 25  1  1
 26 34  1  0
 26 27  1  0
 26 28  1  0
 28 29  1  0
 28 31  1  0
 28 63  1  6
 29 30  1  0
 30 64  1  0
 30 65  1  0
 30 66  1  0
 31 32  1  0
 31 34  1  0
 31 67  1  6
 32 33  1  0
 33 68  1  6
 34 35  1  0
 34 69  1  1
 35 36  1  0
 36 70  1  1
 37 38  2  0
 37 39  1  0
 39 40  1  0
 40 41  1  0
 40 42  1  0
 40 43  1  0
 41 71  1  0
 41 72  1  0
 41 73  1  0
 42 74  1  0
 42 75  1  0
 42 76  1  0
 43 77  1  0
 43 78  1  0
M  END
>  <i_m_ct_stereo_status>  (88) 
1

>  <s_m_source_file>  (88) 
/var/tmp/pbs.5076253.sched01/tmp9xbr3gte/40_qt8sgg8.sdf

>  <i_m_source_file_index>  (88) 
33

>  <i_lp_mmshare_version>  (88) 
48012

>  <i_f3d_flags>  (88) 
0

>  <s_epik_input>  (88) 
W0NIM11PW0NAQEhdKFtDQEhdMVtDQF0yMzQpW0NASF0oT08yKVtDQEhdNE9bQ0BASF01W0NAXTYoW0NASF0oW0NAQEhdNU8xKU9bQ0gzXSlPW0NAQF03KE82KVtDQEBIXShDOD1DKFtDSDJdNylDKD1PKU9DKFtDSDNdKShbQ0gzXSlbQ0gyXTgpW0NASF05W0NAQEhdKE8zKU9PW0NAXTEyW0NAQEhdKFtDQEBIXShPOSlPMilbQ0gyXVtDSDJdW0NIMl0x

>  <s_epik_cmdline>  (88) 
J2VwaWtfcHl0aG9uJywgJy1waHQnLCAnMi4wJywgJy1waCcsICc3LjAnLCAnLXRuJywgJzgnLCAnLW1hJywgJzIwMCcsICctaW1hZScsICc8aW5maWxlLm1hZT4nLCAnLW9tYWUnLCAnPG91dGZpbGUubWFlPic=

>  <r_lp_tautomer_probability>  (88) 
1

>  <r_epik_Ionization_Penalty>  (88) 
6.3148e-14

>  <r_epik_Ionization_Penalty_Charging>  (88) 
0

>  <r_epik_Ionization_Penalty_Neutral>  (88) 
6.3148e-14

>  <r_epik_State_Penalty>  (88) 
-0

>  <r_epik_Charging_Adjusted_Penalty>  (88) 
0

>  <i_epik_Tot_Q>  (88) 
0

>  <i_epik_Tot_abs_Q>  (88) 
0

>  <s_epik_Chemistry_Notes>  (88) 
This compound has an ester and may undergo hydrolysis at high or low pH. This compound contains an acetal/aminal-like group ( X-CH(R)-Y where X, Y are N, S, or O) that may be acid/base labile, releasing an aldehyde.

>  <s_lp_Force_Field>  (88) 
OPLS3e

>  <r_lp_Energy>  (88) 
97.3518

>  <b_lp_Chiralities_Consistent>  (88) 
1

>  <s_lp_Variant>  (88) 
50:0-1

>  <s_i_glide_gridfile>  (88) 
pfpi4k_grid

>  <i_i_glide_lignum>  (88) 
33

>  <i_i_glide_rotatable_bonds>  (88) 
2

>  <r_i_docking_score>  (88) 
-2.87687

>  <r_i_glide_ligand_efficiency>  (88) 
-0.0653833

>  <r_i_glide_ligand_efficiency_sa>  (88) 
-0.230826

>  <r_i_glide_ligand_efficiency_ln>  (88) 
-0.601328

>  <r_i_glide_gscore>  (88) 
-2.87687

>  <r_i_glide_lipo>  (88) 
-0.463782

>  <r_i_glide_hbond>  (88) 
-0.408321

>  <r_i_glide_metal>  (88) 
-0

>  <r_i_glide_rewards>  (88) 
-0.0090847

>  <r_i_glide_evdw>  (88) 
-24.6042

>  <r_i_glide_ecoul>  (88) 
-4.55167

>  <r_i_glide_erotb>  (88) 
0

>  <r_i_glide_esite>  (88) 
-0.0827212

>  <r_i_glide_emodel>  (88) 
-34.7849

>  <r_i_glide_energy>  (88) 
-29.1558

>  <r_i_glide_einternal>  (88) 
0.0299569

>  <r_i_glide_intrahb_reward>  (88) 
-0

>  <i_i_glide_confnum>  (88) 
2

>  <i_i_glide_posenum>  (88) 
30

>  <r_i_glide_eff_state_penalty>  (88) 
0

>  <ligand_id>  (88) 
50

>  <original_smiles>  (88) 
COC1C2OOC34OC5OOC67CCCC6C(OC5C5C6=C(CC58OC5(O8)C(OC)C(OC13)C5OC24)C(=O)OC(C)(C)C6)O7

>  <smiles>  (88) 
[H]C([H])([H])OC1([H])C2([H])OOC34OC5([H])OOC67OC([H])(OC5([H])C5([H])C8=C(C(=O)OC(C([H])([H])[H])(C([H])([H])[H])C8([H])[H])C([H])([H])C58OC5(O8)C([H])(OC([H])([H])[H])C([H])(OC13[H])C5([H])OC24[H])C6([H])C([H])([H])C([H])([H])C7([H])[H]

$$$$
50:0:1
     RDKit          3D

 78 88  0  0  1  0  0  0  0  0999 V2000
   -2.3300    2.2293    8.0045 C   0  0  0  0  0  0  0  0  0  0  0  0
   -2.3655    1.0512    7.2076 O   0  0  0  0  0  0  0  0  0  0  0  0
   -1.4012    1.0427    6.1582 C   0  0  2  0  0  0  0  0  0  0  0  0
   -1.6625   -0.1219    5.1801 C   0  0  2  0  0  0  0  0  0  0  0  0
   -1.7946   -1.2973    5.9534 O   0  0  0  0  0  0  0  0  0  0  0  0
   -0.4186   -1.5404    6.5075 O   0  0  0  0  0  0  0  0  0  0  0  0
    0.3953   -0.5605    5.8873 C   0  0  2  0  0  0  0  0  0  0  0  0
    1.7788   -0.8534    5.9457 O   0  0  0  0  0  0  0  0  0  0  0  0
    2.3229   -2.0666    5.4268 C   0  0  1  0  0  0  0  0  0  0  0  0
    1.8347   -3.1844    6.1475 O   0  0  0  0  0  0  0  0  0  0  0  0
    2.7333   -4.3674    5.9482 O   0  0  0  0  0  0  0  0  0  0  0  0
    2.1140   -5.2912    5.0563 C   0  0  1  0  0  0  0  0  0  0  0  0
    2.2759   -6.7382    5.4745 C   0  0  0  0  0  0  0  0  0  0  0  0
    1.1384   -7.4766    4.7434 C   0  0  0  0  0  0  0  0  0  0  0  0
   -0.0141   -6.4527    4.6343 C   0  0  0  0  0  0  0  0  0  0  0  0
    0.6507   -5.0790    4.6769 C   0  0  2  0  0  0  0  0  0  0  0  0
    1.2481   -4.4719    3.4068 C   0  0  1  0  0  0  0  0  0  0  0  0
    1.2432   -3.0358    3.4041 O   0  0  0  0  0  0  0  0  0  0  0  0
    2.3901   -2.3154    3.8734 C   0  0  1  0  0  0  0  0  0  0  0  0
    2.6382   -1.1385    2.8558 C   0  0  2  0  0  0  0  0  0  0  0  0
    3.5147   -1.6292    1.7154 C   0  0  0  0  0  0  0  0  0  0  0  0
    4.7711   -1.2090    1.8181 C   0  0  0  0  0  0  0  0  0  0  0  0
    4.9906   -0.3248    3.0153 C   0  0  0  0  0  0  0  0  0  0  0  0
    3.5296    0.0402    3.3420 C   0  0  1  0  0  0  0  0  0  0  0  0
    3.1424    1.3282    2.7600 O   0  0  0  0  0  0  0  0  0  0  0  0
    2.4308    1.6177    3.9688 C   0  0  1  0  0  0  0  0  0  0  0  0
    3.2259    0.6121    4.6279 O   0  0  0  0  0  0  0  0  0  0  0  0
    2.3834    2.9403    4.7612 C   0  0  1  0  0  0  0  0  0  0  0  0
    2.3664    4.1256    3.9690 O   0  0  0  0  0  0  0  0  0  0  0  0
    2.2255    5.3258    4.7194 C   0  0  0  0  0  0  0  0  0  0  0  0
    0.9550    2.4900    5.1997 C   0  0  2  0  0  0  0  0  0  0  0  0
    1.0133    1.7666    6.4325 O   0  0  0  0  0  0  0  0  0  0  0  0
    0.0414    0.7347    6.6451 C   0  0  1  0  0  0  0  0  0  0  0  0
    0.9068    1.6892    3.8870 C   0  0  2  0  0  0  0  0  0  0  0  0
    0.0572    0.5729    3.6216 O   0  0  0  0  0  0  0  0  0  0  0  0
   -0.3089   -0.4349    4.5537 C   0  0  2  0  0  0  0  0  0  0  0  0
    5.7960   -1.5321    0.7993 C   0  0  0  0  0  0  0  0  0  0  0  0
    6.9287   -1.0592    0.7836 O   0  0  0  0  0  0  0  0  0  0  0  0
    5.3875   -2.3983   -0.1753 O   0  0  0  0  0  0  0  0  0  0  0  0
    4.2117   -3.2208   -0.0757 C   0  0  0  0  0  0  0  0  0  0  0  0
    3.8752   -3.6402   -1.5152 C   0  0  0  0  0  0  0  0  0  0  0  0
    4.5565   -4.4635    0.7735 C   0  0  0  0  0  0  0  0  0  0  0  0
    3.0253   -2.4431    0.5483 C   0  0  0  0  0  0  0  0  0  0  0  0
    2.5211   -5.1024    3.6779 O   0  0  0  0  0  0  0  0  0  0  0  0
   -3.0947    2.1791    8.7793 H   0  0  0  0  0  0  0  0  0  0  0  0
   -2.5246    3.1231    7.4104 H   0  0  0  0  0  0  0  0  0  0  0  0
   -1.3684    2.3478    8.5036 H   0  0  0  0  0  0  0  0  0  0  0  0
   -1.4816    1.9761    5.5987 H   0  0  0  0  0  0  0  0  0  0  0  0
   -2.4799    0.0395    4.4806 H   0  0  0  0  0  0  0  0  0  0  0  0
    3.3652   -1.9734    5.7379 H   0  0  0  0  0  0  0  0  0  0  0  0
    3.2627   -7.1439    5.2559 H   0  0  0  0  0  0  0  0  0  0  0  0
    2.1067   -6.8262    6.5498 H   0  0  0  0  0  0  0  0  0  0  0  0
    1.4834   -7.7308    3.7360 H   0  0  0  0  0  0  0  0  0  0  0  0
    0.8430   -8.4098    5.2288 H   0  0  0  0  0  0  0  0  0  0  0  0
   -0.6131   -6.6184    3.7351 H   0  0  0  0  0  0  0  0  0  0  0  0
   -0.6826   -6.5724    5.4885 H   0  0  0  0  0  0  0  0  0  0  0  0
    0.0914   -4.3451    5.2595 H   0  0  0  0  0  0  0  0  0  0  0  0
    0.7682   -4.8708    2.5151 H   0  0  0  0  0  0  0  0  0  0  0  0
    3.2753   -2.9421    3.7589 H   0  0  0  0  0  0  0  0  0  0  0  0
    1.7040   -0.7812    2.4439 H   0  0  0  0  0  0  0  0  0  0  0  0
    5.4352   -0.9338    3.8052 H   0  0  0  0  0  0  0  0  0  0  0  0
    5.6310    0.5345    2.8368 H   0  0  0  0  0  0  0  0  0  0  0  0
    3.1070    2.9765    5.5759 H   0  0  0  0  0  0  0  0  0  0  0  0
    2.2107    6.1955    4.0566 H   0  0  0  0  0  0  0  0  0  0  0  0
    3.0602    5.4531    5.4107 H   0  0  0  0  0  0  0  0  0  0  0  0
    1.2996    5.3499    5.2974 H   0  0  0  0  0  0  0  0  0  0  0  0
    0.2372    3.3105    5.2408 H   0  0  0  0  0  0  0  0  0  0  0  0
    0.0446    0.5164    7.7149 H   0  0  0  0  0  0  0  0  0  0  0  0
    0.6579    2.3978    3.0916 H   0  0  0  0  0  0  0  0  0  0  0  0
   -0.3718   -1.3884    4.0271 H   0  0  0  0  0  0  0  0  0  0  0  0
    2.9717   -4.2509   -1.5315 H   0  0  0  0  0  0  0  0  0  0  0  0
    4.6810   -4.2209   -1.9686 H   0  0  0  0  0  0  0  0  0  0  0  0
    3.7078   -2.7708   -2.1526 H   0  0  0  0  0  0  0  0  0  0  0  0
    3.7061   -5.1407    0.8539 H   0  0  0  0  0  0  0  0  0  0  0  0
    4.8397   -4.1822    1.7873 H   0  0  0  0  0  0  0  0  0  0  0  0
    5.3877   -5.0253    0.3457 H   0  0  0  0  0  0  0  0  0  0  0  0
    2.2156   -3.1162    0.8333 H   0  0  0  0  0  0  0  0  0  0  0  0
    2.6242   -1.7418   -0.1824 H   0  0  0  0  0  0  0  0  0  0  0  0
  1  2  1  0
  1 45  1  0
  1 46  1  0
  1 47  1  0
  2  3  1  0
  3 33  1  0
  3  4  1  0
  3 48  1  6
  4 36  1  0
  4  5  1  0
  4 49  1  6
  5  6  1  0
  7  6  1  1
  7 33  1  0
  7 36  1  0
  7  8  1  0
  8  9  1  0
  9 19  1  0
  9 10  1  0
  9 50  1  1
 10 11  1  0
 11 12  1  0
 12 16  1  0
 12 44  1  0
 12 13  1  1
 13 14  1  0
 13 51  1  0
 13 52  1  0
 14 15  1  0
 14 53  1  0
 14 54  1  0
 15 16  1  0
 15 55  1  0
 15 56  1  0
 16 17  1  0
 16 57  1  1
 17 18  1  0
 17 44  1  0
 17 58  1  6
 18 19  1  0
 19 20  1  0
 19 59  1  1
 20 24  1  0
 20 21  1  0
 20 60  1  6
 21 43  1  0
 21 22  2  0
 22 23  1  0
 22 37  1  0
 24 23  1  1
 23 61  1  0
 23 62  1  0
 24 27  1  0
 24 25  1  0
 26 25  1  6
 26 34  1  0
 26 27  1  0
 26 28  1  0
 28 29  1  0
 28 31  1  0
 28 63  1  1
 29 30  1  0
 30 64  1  0
 30 65  1  0
 30 66  1  0
 31 32  1  0
 31 34  1  0
 31 67  1  1
 32 33  1  0
 33 68  1  1
 34 35  1  0
 34 69  1  6
 35 36  1  0
 36 70  1  6
 37 38  2  0
 37 39  1  0
 39 40  1  0
 40 41  1  0
 40 42  1  0
 40 43  1  0
 41 71  1  0
 41 72  1  0
 41 73  1  0
 42 74  1  0
 42 75  1  0
 42 76  1  0
 43 77  1  0
 43 78  1  0
M  END
>  <i_m_ct_stereo_status>  (89) 
1

>  <s_m_source_file>  (89) 
/var/tmp/pbs.5076253.sched01/tmp9xbr3gte/40_qt8sgg8.sdf

>  <i_m_source_file_index>  (89) 
33

>  <i_lp_mmshare_version>  (89) 
48012

>  <i_f3d_flags>  (89) 
0

>  <s_epik_input>  (89) 
W0NIM11PW0NAQEhdKFtDQEhdMVtDQF0yMzQpW0NASF0oT08yKVtDQEhdNE9bQ0BASF01W0NAXTYoW0NASF0oW0NAQEhdNU8xKU9bQ0gzXSlPW0NAQF03KE82KVtDQEBIXShDOD1DKFtDSDJdNylDKD1PKU9DKFtDSDNdKShbQ0gzXSlbQ0gyXTgpW0NASF05W0NAQEhdKE8zKU9PW0NAXTEyW0NAQEhdKFtDQEBIXShPOSlPMilbQ0gyXVtDSDJdW0NIMl0x

>  <s_epik_cmdline>  (89) 
J2VwaWtfcHl0aG9uJywgJy1waHQnLCAnMi4wJywgJy1waCcsICc3LjAnLCAnLXRuJywgJzgnLCAnLW1hJywgJzIwMCcsICctaW1hZScsICc8aW5maWxlLm1hZT4nLCAnLW9tYWUnLCAnPG91dGZpbGUubWFlPic=

>  <r_lp_tautomer_probability>  (89) 
1

>  <r_epik_Ionization_Penalty>  (89) 
6.3148e-14

>  <r_epik_Ionization_Penalty_Charging>  (89) 
0

>  <r_epik_Ionization_Penalty_Neutral>  (89) 
6.3148e-14

>  <r_epik_State_Penalty>  (89) 
-0

>  <r_epik_Charging_Adjusted_Penalty>  (89) 
0

>  <i_epik_Tot_Q>  (89) 
0

>  <i_epik_Tot_abs_Q>  (89) 
0

>  <s_epik_Chemistry_Notes>  (89) 
This compound has an ester and may undergo hydrolysis at high or low pH. This compound contains an acetal/aminal-like group ( X-CH(R)-Y where X, Y are N, S, or O) that may be acid/base labile, releasing an aldehyde.

>  <s_lp_Force_Field>  (89) 
OPLS3e

>  <r_lp_Energy>  (89) 
97.3518

>  <b_lp_Chiralities_Consistent>  (89) 
1

>  <s_lp_Variant>  (89) 
50:0-1

>  <s_i_glide_gridfile>  (89) 
pfpi4k_grid

>  <i_i_glide_lignum>  (89) 
33

>  <i_i_glide_rotatable_bonds>  (89) 
2

>  <r_i_docking_score>  (89) 
-2.41869

>  <r_i_glide_ligand_efficiency>  (89) 
-0.0549702

>  <r_i_glide_ligand_efficiency_sa>  (89) 
-0.194064

>  <r_i_glide_ligand_efficiency_ln>  (89) 
-0.505559

>  <r_i_glide_gscore>  (89) 
-2.41869

>  <r_i_glide_lipo>  (89) 
-0.261009

>  <r_i_glide_hbond>  (89) 
-0.20251

>  <r_i_glide_metal>  (89) 
-0

>  <r_i_glide_rewards>  (89) 
-0.161301

>  <r_i_glide_evdw>  (89) 
-26.0883

>  <r_i_glide_ecoul>  (89) 
-3.0453

>  <r_i_glide_erotb>  (89) 
0

>  <r_i_glide_esite>  (89) 
-0.0326569

>  <r_i_glide_emodel>  (89) 
-33.6763

>  <r_i_glide_energy>  (89) 
-29.1336

>  <r_i_glide_einternal>  (89) 
0.247748

>  <r_i_glide_intrahb_reward>  (89) 
-0

>  <i_i_glide_confnum>  (89) 
1

>  <i_i_glide_posenum>  (89) 
16

>  <r_i_glide_eff_state_penalty>  (89) 
0

>  <ligand_id>  (89) 
50

>  <original_smiles>  (89) 
COC1C2OOC34OC5OOC67CCCC6C(OC5C5C6=C(CC58OC5(O8)C(OC)C(OC13)C5OC24)C(=O)OC(C)(C)C6)O7

>  <smiles>  (89) 
[H]C([H])([H])OC1([H])C2([H])OOC34OC5([H])OOC67OC([H])(OC5([H])C5([H])C8=C(C(=O)OC(C([H])([H])[H])(C([H])([H])[H])C8([H])[H])C([H])([H])C58OC5(O8)C([H])(OC([H])([H])[H])C([H])(OC13[H])C5([H])OC24[H])C6([H])C([H])([H])C([H])([H])C7([H])[H]

$$$$
50:0:2
     RDKit          3D

 78 88  0  0  1  0  0  0  0  0999 V2000
    6.1711   -3.3327   -2.7179 C   0  0  0  0  0  0  0  0  0  0  0  0
    5.1398   -2.6304   -2.0530 O   0  0  0  0  0  0  0  0  0  0  0  0
    4.5166   -3.3972   -1.0283 C   0  0  2  0  0  0  0  0  0  0  0  0
    3.2609   -2.6753   -0.5080 C   0  0  2  0  0  0  0  0  0  0  0  0
    3.6632   -1.3476   -0.2192 O   0  0  0  0  0  0  0  0  0  0  0  0
    4.5398   -1.4747    0.9968 O   0  0  0  0  0  0  0  0  0  0  0  0
    4.4872   -2.8499    1.3321 C   0  0  2  0  0  0  0  0  0  0  0  0
    4.9348   -3.1260    2.6470 O   0  0  0  0  0  0  0  0  0  0  0  0
    4.3507   -2.5120    3.7952 C   0  0  1  0  0  0  0  0  0  0  0  0
    4.5676   -1.1108    3.7875 O   0  0  0  0  0  0  0  0  0  0  0  0
    4.3826   -0.5504    5.1652 O   0  0  0  0  0  0  0  0  0  0  0  0
    3.1342    0.1331    5.2407 C   0  0  1  0  0  0  0  0  0  0  0  0
    3.2155    1.4439    5.9954 C   0  0  0  0  0  0  0  0  0  0  0  0
    1.9798    2.2309    5.5219 C   0  0  0  0  0  0  0  0  0  0  0  0
    1.7404    1.7797    4.0632 C   0  0  0  0  0  0  0  0  0  0  0  0
    2.3474    0.3807    3.9577 C   0  0  2  0  0  0  0  0  0  0  0  0
    1.5483   -0.8430    4.4134 C   0  0  1  0  0  0  0  0  0  0  0  0
    1.8976   -2.0568    3.7315 O   0  0  0  0  0  0  0  0  0  0  0  0
    2.9076   -2.9197    4.2720 C   0  0  1  0  0  0  0  0  0  0  0  0
    2.3662   -4.3905    4.1092 C   0  0  2  0  0  0  0  0  0  0  0  0
    1.5088   -4.7458    5.3111 C   0  0  0  0  0  0  0  0  0  0  0  0
    2.1363   -5.5506    6.1587 C   0  0  0  0  0  0  0  0  0  0  0  0
    3.5189   -5.9282    5.6950 C   0  0  0  0  0  0  0  0  0  0  0  0
    3.4038   -5.5464    4.2114 C   0  0  1  0  0  0  0  0  0  0  0  0
    3.0814   -6.7149    3.3846 O   0  0  0  0  0  0  0  0  0  0  0  0
    3.9893   -6.2068    2.3922 C   0  0  1  0  0  0  0  0  0  0  0  0
    4.6056   -5.4162    3.4292 O   0  0  0  0  0  0  0  0  0  0  0  0
    5.0272   -6.9924    1.5692 C   0  0  1  0  0  0  0  0  0  0  0  0
    4.5872   -8.2738    1.1180 O   0  0  0  0  0  0  0  0  0  0  0  0
    5.5915   -9.2794    1.1427 C   0  0  0  0  0  0  0  0  0  0  0  0
    4.8174   -5.9004    0.4741 C   0  0  2  0  0  0  0  0  0  0  0  0
    5.7702   -4.8435    0.6319 O   0  0  0  0  0  0  0  0  0  0  0  0
    5.3727   -3.5187    0.2602 C   0  0  1  0  0  0  0  0  0  0  0  0
    3.4121   -5.7030    1.0671 C   0  0  2  0  0  0  0  0  0  0  0  0
    2.6015   -4.5323    0.9311 O   0  0  0  0  0  0  0  0  0  0  0  0
    3.0693   -3.1840    0.9182 C   0  0  2  0  0  0  0  0  0  0  0  0
    1.4892   -6.0807    7.3749 C   0  0  0  0  0  0  0  0  0  0  0  0
    1.9907   -6.9547    8.0867 O   0  0  0  0  0  0  0  0  0  0  0  0
    0.2482   -5.5499    7.6474 O   0  0  0  0  0  0  0  0  0  0  0  0
   -0.2754   -4.3636    7.0210 C   0  0  0  0  0  0  0  0  0  0  0  0
   -1.8052   -4.4171    7.2177 C   0  0  0  0  0  0  0  0  0  0  0  0
    0.3069   -3.1312    7.7483 C   0  0  0  0  0  0  0  0  0  0  0  0
    0.0742   -4.3242    5.5105 C   0  0  0  0  0  0  0  0  0  0  0  0
    2.0639   -0.7008    5.7589 O   0  0  0  0  0  0  0  0  0  0  0  0
    6.5819   -2.7095   -3.5029 H   0  0  0  0  0  0  0  0  0  0  0  0
    5.7900   -4.2372   -3.1882 H   0  0  0  0  0  0  0  0  0  0  0  0
    6.9847   -3.5886   -2.0434 H   0  0  0  0  0  0  0  0  0  0  0  0
    4.2139   -4.3592   -1.4403 H   0  0  0  0  0  0  0  0  0  0  0  0
    2.3845   -2.7471   -1.1544 H   0  0  0  0  0  0  0  0  0  0  0  0
    5.0129   -2.8830    4.5792 H   0  0  0  0  0  0  0  0  0  0  0  0
    3.2608    1.3197    7.0770 H   0  0  0  0  0  0  0  0  0  0  0  0
    4.1089    1.9887    5.6830 H   0  0  0  0  0  0  0  0  0  0  0  0
    1.1248    1.9280    6.1330 H   0  0  0  0  0  0  0  0  0  0  0  0
    2.0873    3.3128    5.6268 H   0  0  0  0  0  0  0  0  0  0  0  0
    0.6798    1.8093    3.7983 H   0  0  0  0  0  0  0  0  0  0  0  0
    2.2573    2.4631    3.3850 H   0  0  0  0  0  0  0  0  0  0  0  0
    2.8672    0.2043    3.0162 H   0  0  0  0  0  0  0  0  0  0  0  0
    0.4751   -0.6613    4.3515 H   0  0  0  0  0  0  0  0  0  0  0  0
    2.9517   -2.7779    5.3525 H   0  0  0  0  0  0  0  0  0  0  0  0
    1.7648   -4.4810    3.2152 H   0  0  0  0  0  0  0  0  0  0  0  0
    4.2366   -5.2940    6.2183 H   0  0  0  0  0  0  0  0  0  0  0  0
    3.7726   -6.9744    5.8630 H   0  0  0  0  0  0  0  0  0  0  0  0
    6.0262   -6.9771    2.0057 H   0  0  0  0  0  0  0  0  0  0  0  0
    5.1974  -10.2389    0.8009 H   0  0  0  0  0  0  0  0  0  0  0  0
    5.9629   -9.4269    2.1580 H   0  0  0  0  0  0  0  0  0  0  0  0
    6.4359   -9.0339    0.4964 H   0  0  0  0  0  0  0  0  0  0  0  0
    4.8213   -6.3086   -0.5391 H   0  0  0  0  0  0  0  0  0  0  0  0
    6.2889   -2.9334    0.1669 H   0  0  0  0  0  0  0  0  0  0  0  0
    2.7830   -6.4992    0.6588 H   0  0  0  0  0  0  0  0  0  0  0  0
    2.3304   -2.5612    1.4236 H   0  0  0  0  0  0  0  0  0  0  0  0
   -2.3101   -3.5649    6.7619 H   0  0  0  0  0  0  0  0  0  0  0  0
   -2.0791   -4.4396    8.2750 H   0  0  0  0  0  0  0  0  0  0  0  0
   -2.2199   -5.3195    6.7665 H   0  0  0  0  0  0  0  0  0  0  0  0
   -0.0752   -2.1994    7.3309 H   0  0  0  0  0  0  0  0  0  0  0  0
    1.3919   -3.0961    7.6591 H   0  0  0  0  0  0  0  0  0  0  0  0
    0.0720   -3.1447    8.8134 H   0  0  0  0  0  0  0  0  0  0  0  0
   -0.1134   -3.3388    5.0866 H   0  0  0  0  0  0  0  0  0  0  0  0
   -0.5433   -5.0390    4.9661 H   0  0  0  0  0  0  0  0  0  0  0  0
  1  2  1  0
  1 45  1  0
  1 46  1  0
  1 47  1  0
  2  3  1  0
  3 33  1  0
  3  4  1  0
  3 48  1  6
  4 36  1  0
  4  5  1  0
  4 49  1  6
  5  6  1  0
  7  6  1  6
  7 33  1  0
  7 36  1  0
  7  8  1  0
  8  9  1  0
  9 19  1  0
  9 10  1  0
  9 50  1  1
 10 11  1  0
 11 12  1  0
 12 16  1  0
 12 44  1  0
 12 13  1  1
 13 14  1  0
 13 51  1  0
 13 52  1  0
 14 15  1  0
 14 53  1  0
 14 54  1  0
 15 16  1  0
 15 55  1  0
 15 56  1  0
 16 17  1  0
 16 57  1  6
 17 18  1  0
 17 44  1  0
 17 58  1  1
 18 19  1  0
 19 20  1  0
 19 59  1  1
 20 24  1  0
 20 21  1  0
 20 60  1  6
 21 43  1  0
 21 22  2  0
 22 23  1  0
 22 37  1  0
 24 23  1  1
 23 61  1  0
 23 62  1  0
 24 27  1  0
 24 25  1  0
 26 25  1  1
 26 34  1  0
 26 27  1  0
 26 28  1  0
 28 29  1  0
 28 31  1  0
 28 63  1  1
 29 30  1  0
 30 64  1  0
 30 65  1  0
 30 66  1  0
 31 32  1  0
 31 34  1  0
 31 67  1  6
 32 33  1  0
 33 68  1  6
 34 35  1  0
 34 69  1  6
 35 36  1  0
 36 70  1  1
 37 38  2  0
 37 39  1  0
 39 40  1  0
 40 41  1  0
 40 42  1  0
 40 43  1  0
 41 71  1  0
 41 72  1  0
 41 73  1  0
 42 74  1  0
 42 75  1  0
 42 76  1  0
 43 77  1  0
 43 78  1  0
M  END
>  <i_m_ct_stereo_status>  (90) 
1

>  <s_m_source_file>  (90) 
/var/tmp/pbs.5076253.sched01/tmp9xbr3gte/40_qt8sgg8.sdf

>  <i_m_source_file_index>  (90) 
33

>  <i_lp_mmshare_version>  (90) 
48012

>  <i_f3d_flags>  (90) 
0

>  <s_epik_input>  (90) 
W0NIM11PW0NAQEhdKFtDQEhdMVtDQF0yMzQpW0NASF0oT08yKVtDQEhdNE9bQ0BASF01W0NAXTYoW0NASF0oW0NAQEhdNU8xKU9bQ0gzXSlPW0NAQF03KE82KVtDQEBIXShDOD1DKFtDSDJdNylDKD1PKU9DKFtDSDNdKShbQ0gzXSlbQ0gyXTgpW0NASF05W0NAQEhdKE8zKU9PW0NAXTEyW0NAQEhdKFtDQEBIXShPOSlPMilbQ0gyXVtDSDJdW0NIMl0x

>  <s_epik_cmdline>  (90) 
J2VwaWtfcHl0aG9uJywgJy1waHQnLCAnMi4wJywgJy1waCcsICc3LjAnLCAnLXRuJywgJzgnLCAnLW1hJywgJzIwMCcsICctaW1hZScsICc8aW5maWxlLm1hZT4nLCAnLW9tYWUnLCAnPG91dGZpbGUubWFlPic=

>  <r_lp_tautomer_probability>  (90) 
1

>  <r_epik_Ionization_Penalty>  (90) 
6.3148e-14

>  <r_epik_Ionization_Penalty_Charging>  (90) 
0

>  <r_epik_Ionization_Penalty_Neutral>  (90) 
6.3148e-14

>  <r_epik_State_Penalty>  (90) 
-0

>  <r_epik_Charging_Adjusted_Penalty>  (90) 
0

>  <i_epik_Tot_Q>  (90) 
0

>  <i_epik_Tot_abs_Q>  (90) 
0

>  <s_epik_Chemistry_Notes>  (90) 
This compound has an ester and may undergo hydrolysis at high or low pH. This compound contains an acetal/aminal-like group ( X-CH(R)-Y where X, Y are N, S, or O) that may be acid/base labile, releasing an aldehyde.

>  <s_lp_Force_Field>  (90) 
OPLS3e

>  <r_lp_Energy>  (90) 
97.3518

>  <b_lp_Chiralities_Consistent>  (90) 
1

>  <s_lp_Variant>  (90) 
50:0-1

>  <s_i_glide_gridfile>  (90) 
pfpi4k_grid

>  <i_i_glide_lignum>  (90) 
33

>  <i_i_glide_rotatable_bonds>  (90) 
2

>  <r_i_docking_score>  (90) 
-2.28166

>  <r_i_glide_ligand_efficiency>  (90) 
-0.051856

>  <r_i_glide_ligand_efficiency_sa>  (90) 
-0.18307

>  <r_i_glide_ligand_efficiency_ln>  (90) 
-0.476917

>  <r_i_glide_gscore>  (90) 
-2.28166

>  <r_i_glide_lipo>  (90) 
-0.658131

>  <r_i_glide_hbond>  (90) 
0

>  <r_i_glide_metal>  (90) 
-0

>  <r_i_glide_rewards>  (90) 
-0.040105

>  <r_i_glide_evdw>  (90) 
-26.6152

>  <r_i_glide_ecoul>  (90) 
-1.68262

>  <r_i_glide_erotb>  (90) 
0

>  <r_i_glide_esite>  (90) 
-0.000272542

>  <r_i_glide_emodel>  (90) 
-31.6903

>  <r_i_glide_energy>  (90) 
-28.2978

>  <r_i_glide_einternal>  (90) 
2.05674

>  <r_i_glide_intrahb_reward>  (90) 
-0

>  <i_i_glide_confnum>  (90) 
2

>  <i_i_glide_posenum>  (90) 
4

>  <r_i_glide_eff_state_penalty>  (90) 
0

>  <ligand_id>  (90) 
50

>  <original_smiles>  (90) 
COC1C2OOC34OC5OOC67CCCC6C(OC5C5C6=C(CC58OC5(O8)C(OC)C(OC13)C5OC24)C(=O)OC(C)(C)C6)O7

>  <smiles>  (90) 
[H]C([H])([H])OC1([H])C2([H])OOC34OC5([H])OOC67OC([H])(OC5([H])C5([H])C8=C(C(=O)OC(C([H])([H])[H])(C([H])([H])[H])C8([H])[H])C([H])([H])C58OC5(O8)C([H])(OC([H])([H])[H])C([H])(OC13[H])C5([H])OC24[H])C6([H])C([H])([H])C([H])([H])C7([H])[H]

$$$$
51:0:0
     RDKit          3D

 50 56  0  0  1  0  0  0  0  0999 V2000
    0.6155   -6.5335    1.5727 O   0  0  0  0  0  0  0  0  0  0  0  0
    1.7578   -6.1242    1.7648 C   0  0  0  0  0  0  0  0  0  0  0  0
    2.5474   -5.4170    0.6331 C   0  0  1  0  0  0  0  0  0  0  0  0
    1.6693   -5.0230   -0.3874 O   0  0  0  0  0  0  0  0  0  0  0  0
    3.2050   -4.2101    1.2733 C   0  0  2  0  0  0  0  0  0  0  0  0
    4.2344   -3.2109    0.7228 C   0  0  2  0  0  0  0  0  0  0  0  0
    3.7076   -1.9301    0.3961 O   0  0  0  0  0  0  0  0  0  0  0  0
    5.1735   -3.7656   -0.3977 C   0  0  1  0  0  0  0  0  0  0  0  0
    4.9561   -3.2122   -1.8130 C   0  0  0  0  0  0  0  0  0  0  0  0
    5.8404   -2.5998   -2.4047 O   0  0  0  0  0  0  0  0  0  0  0  0
    3.7493   -3.4295   -2.3277 N   0  0  0  0  0  0  0  0  0  0  0  0
    3.3223   -3.0177   -3.6067 C   0  0  0  0  0  0  0  0  0  0  0  0
    2.9171   -1.5820   -3.7830 C   0  0  0  0  0  0  0  0  0  0  0  0
    1.8582   -2.6719   -3.7533 C   0  0  0  0  0  0  0  0  0  0  0  0
    6.5689   -3.6657   -0.0037 N   0  0  0  0  0  0  0  0  0  0  0  0
    6.7975   -4.0397    1.3885 C   0  0  1  0  0  0  0  0  0  0  0  0
    6.1480   -3.1625    2.2475 O   0  0  0  0  0  0  0  0  0  0  0  0
    4.7236   -3.2140    2.1916 C   0  0  2  0  0  0  0  0  0  0  0  0
    4.1396   -4.6185    2.4197 C   0  0  2  0  0  0  0  0  0  0  0  0
    5.0966   -5.7909    2.1971 C   0  0  0  0  0  0  0  0  0  0  0  0
    6.3873   -5.4600    1.7130 C   0  0  0  0  0  0  0  0  0  0  0  0
    7.2613   -6.5375    1.4975 C   0  0  0  0  0  0  0  0  0  0  0  0
    6.8557   -7.8581    1.7647 C   0  0  0  0  0  0  0  0  0  0  0  0
    5.5584   -8.1242    2.2499 C   0  0  0  0  0  0  0  0  0  0  0  0
    5.2081   -9.4187    2.4847 O   0  0  0  0  0  0  0  0  0  0  0  0
    4.6342   -7.1017    2.4870 C   0  0  0  0  0  0  0  0  0  0  0  0
    3.3789   -7.3932    2.9848 O   0  0  0  0  0  0  0  0  0  0  0  0
    2.4615   -6.3185    3.1319 C   0  0  1  0  0  0  0  0  0  0  0  0
    3.2043   -5.0148    3.5551 C   0  0  1  0  0  0  0  0  0  0  0  0
    3.8210   -5.1253    4.8193 O   0  0  0  0  0  0  0  0  0  0  0  0
    3.2798   -6.1129    0.2213 H   0  0  0  0  0  0  0  0  0  0  0  0
    2.0749   -5.1723   -1.2333 H   0  0  0  0  0  0  0  0  0  0  0  0
    2.4369   -3.5396    1.6581 H   0  0  0  0  0  0  0  0  0  0  0  0
    3.0413   -2.0283   -0.2731 H   0  0  0  0  0  0  0  0  0  0  0  0
    4.9341   -4.8202   -0.4944 H   0  0  0  0  0  0  0  0  0  0  0  0
    3.0707   -3.9661   -1.7947 H   0  0  0  0  0  0  0  0  0  0  0  0
    3.7692   -3.5477   -4.4523 H   0  0  0  0  0  0  0  0  0  0  0  0
    2.9402   -0.9176   -2.9166 H   0  0  0  0  0  0  0  0  0  0  0  0
    3.1208   -1.1150   -4.7426 H   0  0  0  0  0  0  0  0  0  0  0  0
    1.3794   -2.9504   -4.6822 H   0  0  0  0  0  0  0  0  0  0  0  0
    1.2467   -2.7400   -2.8620 H   0  0  0  0  0  0  0  0  0  0  0  0
    6.8240   -2.6858   -0.1273 H   0  0  0  0  0  0  0  0  0  0  0  0
    7.8644   -3.9314    1.5839 H   0  0  0  0  0  0  0  0  0  0  0  0
    4.2130   -2.4655    2.7984 H   0  0  0  0  0  0  0  0  0  0  0  0
    8.2561   -6.3597    1.1164 H   0  0  0  0  0  0  0  0  0  0  0  0
    7.5431   -8.6497    1.5884 H   0  0  0  0  0  0  0  0  0  0  0  0
    4.2960   -9.4882    2.7229 H   0  0  0  0  0  0  0  0  0  0  0  0
    1.7094   -6.5863    3.8855 H   0  0  0  0  0  0  0  0  0  0  0  0
    2.4491   -4.2440    3.6888 H   0  0  0  0  0  0  0  0  0  0  0  0
    4.5212   -5.7528    4.7402 H   0  0  0  0  0  0  0  0  0  0  0  0
  1  2  2  0
  2 28  1  0
  2  3  1  0
  3  4  1  0
  3  5  1  0
  3 31  1  6
  4 32  1  0
  5 19  1  0
  5  6  1  0
  5 33  1  1
  6 18  1  0
  6  7  1  6
  6  8  1  0
  7 34  1  0
  8  9  1  0
  8 15  1  0
  8 35  1  6
  9 10  2  0
  9 11  1  0
 11 12  1  0
 11 36  1  0
 12 14  1  0
 12 13  1  0
 12 37  1  0
 13 14  1  0
 13 38  1  0
 13 39  1  0
 14 40  1  0
 14 41  1  0
 15 16  1  0
 15 42  1  0
 16 21  1  0
 16 17  1  0
 16 43  1  1
 17 18  1  0
 18 19  1  0
 18 44  1  1
 19 29  1  0
 19 20  1  6
 20 26  2  0
 20 21  1  0
 21 22  2  0
 22 23  1  0
 22 45  1  0
 23 24  2  0
 23 46  1  0
 24 25  1  0
 24 26  1  0
 25 47  1  0
 26 27  1  0
 27 28  1  0
 28 29  1  0
 28 48  1  1
 29 30  1  0
 29 49  1  1
 30 50  1  0
M  END
>  <i_m_ct_stereo_status>  (91) 
1

>  <s_m_source_file>  (91) 
/var/tmp/pbs.5076253.sched01/tmp9xbr3gte/40_qt8sgg8.sdf

>  <i_m_source_file_index>  (91) 
34

>  <i_lp_mmshare_version>  (91) 
48012

>  <i_f3d_flags>  (91) 
0

>  <s_epik_input>  (91) 
W09IXVtDQEBIXTFDKD1PKVtDQEhdKFtDQEhdMltPSF0pT2MoYyhbT0hdKVtjSF1bY0hdMyljNGMzW0NASF0oT1tDQEhdNVtDQEBdNihbQ0BASF0xW0NAQF0yNDUpW09IXSlbTkhdW0NAQEhdNkMoPU8pW05IXVtDSF03W0NIMl1bQ0gyXTc=

>  <s_epik_cmdline>  (91) 
J2VwaWtfcHl0aG9uJywgJy1waHQnLCAnMi4wJywgJy1waCcsICc3LjAnLCAnLXRuJywgJzgnLCAnLW1hJywgJzIwMCcsICctaW1hZScsICc8aW5maWxlLm1hZT4nLCAnLW9tYWUnLCAnPG91dGZpbGUubWFlPic=

>  <r_lp_tautomer_probability>  (91) 
1

>  <r_epik_Ionization_Penalty>  (91) 
0.00246604

>  <r_epik_Ionization_Penalty_Charging>  (91) 
0

>  <r_epik_Ionization_Penalty_Neutral>  (91) 
0.00246604

>  <r_epik_State_Penalty>  (91) 
-0

>  <r_epik_Charging_Adjusted_Penalty>  (91) 
0

>  <i_epik_Tot_Q>  (91) 
0

>  <i_epik_Tot_abs_Q>  (91) 
0

>  <s_epik_Chemistry_Notes>  (91) 
This compound contains an acetal/aminal-like group ( X-CH(R)-Y where X, Y are N, S, or O) that may be acid/base labile, releasing an aldehyde.

>  <s_lp_Force_Field>  (91) 
OPLS3e

>  <r_lp_Energy>  (91) 
76.1189

>  <b_lp_Chiralities_Consistent>  (91) 
1

>  <s_lp_Variant>  (91) 
51:0-1

>  <s_i_glide_gridfile>  (91) 
pfpi4k_grid

>  <i_i_glide_lignum>  (91) 
34

>  <i_i_glide_rotatable_bonds>  (91) 
7

>  <r_i_docking_score>  (91) 
-4.43395

>  <r_i_glide_ligand_efficiency>  (91) 
-0.147798

>  <r_i_glide_ligand_efficiency_sa>  (91) 
-0.459244

>  <r_i_glide_ligand_efficiency_ln>  (91) 
-1.00744

>  <r_i_glide_gscore>  (91) 
-4.43395

>  <r_i_glide_lipo>  (91) 
-0.92142

>  <r_i_glide_hbond>  (91) 
-0.124803

>  <r_i_glide_metal>  (91) 
-0

>  <r_i_glide_rewards>  (91) 
-0.782936

>  <r_i_glide_evdw>  (91) 
-24.775

>  <r_i_glide_ecoul>  (91) 
-10.8992

>  <r_i_glide_erotb>  (91) 
0.341842

>  <r_i_glide_esite>  (91) 
-0.0729966

>  <r_i_glide_emodel>  (91) 
-43.9031

>  <r_i_glide_energy>  (91) 
-35.6743

>  <r_i_glide_einternal>  (91) 
4.00337

>  <r_i_glide_intrahb_reward>  (91) 
-0

>  <i_i_glide_confnum>  (91) 
3

>  <i_i_glide_posenum>  (91) 
11

>  <r_i_glide_eff_state_penalty>  (91) 
0

>  <ligand_id>  (91) 
51

>  <original_smiles>  (91) 
O=C1C(O)C2C3(O)C(C(=O)NC4CC4)NC4OC3C23c2c4ccc(O)c2OC1C3O

>  <smiles>  (91) 
[H]Oc1c([H])c([H])c2c3c1OC1([H])C(=O)C([H])(O[H])C4([H])C5(O[H])C([H])(C(=O)N([H])C6([H])C([H])([H])C6([H])[H])N([H])C2([H])OC5([H])C34C1([H])O[H]

$$$$
51:0:1
     RDKit          3D

 50 56  0  0  1  0  0  0  0  0999 V2000
    2.8614   -2.1126   -2.7522 O   0  0  0  0  0  0  0  0  0  0  0  0
    3.3969   -2.4012   -1.6871 C   0  0  0  0  0  0  0  0  0  0  0  0
    2.8141   -3.4815   -0.7307 C   0  0  1  0  0  0  0  0  0  0  0  0
    1.7875   -4.2491   -1.3237 O   0  0  0  0  0  0  0  0  0  0  0  0
    4.0144   -4.3165   -0.2901 C   0  0  2  0  0  0  0  0  0  0  0  0
    4.1403   -5.4359    0.7560 C   0  0  2  0  0  0  0  0  0  0  0  0
    4.2370   -6.7401    0.2144 O   0  0  0  0  0  0  0  0  0  0  0  0
    3.1051   -5.3865    1.9114 C   0  0  1  0  0  0  0  0  0  0  0  0
    1.9994   -6.4561    1.8747 C   0  0  0  0  0  0  0  0  0  0  0  0
    0.9229   -6.2265    1.3176 O   0  0  0  0  0  0  0  0  0  0  0  0
    2.2825   -7.6147    2.4832 N   0  0  0  0  0  0  0  0  0  0  0  0
    1.4125   -8.7266    2.5939 C   0  0  0  0  0  0  0  0  0  0  0  0
    1.1947   -9.3331    3.9628 C   0  0  0  0  0  0  0  0  0  0  0  0
    2.0564  -10.0427    2.9542 C   0  0  0  0  0  0  0  0  0  0  0  0
    3.7872   -5.2939    3.2069 N   0  0  0  0  0  0  0  0  0  0  0  0
    4.9265   -4.3711    3.2034 C   0  0  1  0  0  0  0  0  0  0  0  0
    5.9334   -4.8003    2.3362 O   0  0  0  0  0  0  0  0  0  0  0  0
    5.5535   -4.8247    0.9635 C   0  0  2  0  0  0  0  0  0  0  0  0
    5.0651   -3.4649    0.4372 C   0  0  2  0  0  0  0  0  0  0  0  0
    4.5787   -2.4733    1.5006 C   0  0  0  0  0  0  0  0  0  0  0  0
    4.5456   -2.9540    2.8380 C   0  0  0  0  0  0  0  0  0  0  0  0
    4.0732   -2.0507    3.8025 C   0  0  0  0  0  0  0  0  0  0  0  0
    3.6940   -0.7486    3.4500 C   0  0  0  0  0  0  0  0  0  0  0  0
    3.7595   -0.3312    2.1038 C   0  0  0  0  0  0  0  0  0  0  0  0
    3.3804    0.9473    1.7960 O   0  0  0  0  0  0  0  0  0  0  0  0
    4.2031   -1.1789    1.0829 C   0  0  0  0  0  0  0  0  0  0  0  0
    4.2814   -0.7239   -0.2240 O   0  0  0  0  0  0  0  0  0  0  0  0
    4.6746   -1.6514   -1.2264 C   0  0  1  0  0  0  0  0  0  0  0  0
    5.7309   -2.6464   -0.6728 C   0  0  1  0  0  0  0  0  0  0  0  0
    6.9740   -2.0495   -0.3502 O   0  0  0  0  0  0  0  0  0  0  0  0
    2.3389   -2.9852    0.1120 H   0  0  0  0  0  0  0  0  0  0  0  0
    2.1750   -4.8490   -1.9578 H   0  0  0  0  0  0  0  0  0  0  0  0
    4.4707   -4.7664   -1.1689 H   0  0  0  0  0  0  0  0  0  0  0  0
    3.8835   -6.7054   -0.6615 H   0  0  0  0  0  0  0  0  0  0  0  0
    2.5530   -4.4652    1.7660 H   0  0  0  0  0  0  0  0  0  0  0  0
    3.2025   -7.7266    2.8766 H   0  0  0  0  0  0  0  0  0  0  0  0
    0.5768   -8.7785    1.8978 H   0  0  0  0  0  0  0  0  0  0  0  0
    1.6891   -8.8790    4.8215 H   0  0  0  0  0  0  0  0  0  0  0  0
    0.2105   -9.7513    4.1587 H   0  0  0  0  0  0  0  0  0  0  0  0
    1.6469  -10.9297    2.4823 H   0  0  0  0  0  0  0  0  0  0  0  0
    3.1293  -10.0650    3.1418 H   0  0  0  0  0  0  0  0  0  0  0  0
    4.1414   -6.2129    3.4461 H   0  0  0  0  0  0  0  0  0  0  0  0
    5.3480   -4.3793    4.2115 H   0  0  0  0  0  0  0  0  0  0  0  0
    6.3044   -5.2724    0.3068 H   0  0  0  0  0  0  0  0  0  0  0  0
    4.0040   -2.3689    4.8385 H   0  0  0  0  0  0  0  0  0  0  0  0
    3.3493   -0.0826    4.2195 H   0  0  0  0  0  0  0  0  0  0  0  0
    3.5411    1.5689    2.4726 H   0  0  0  0  0  0  0  0  0  0  0  0
    5.0756   -1.0943   -2.0746 H   0  0  0  0  0  0  0  0  0  0  0  0
    5.9872   -3.3067   -1.4924 H   0  0  0  0  0  0  0  0  0  0  0  0
    7.5265   -2.7374   -0.0101 H   0  0  0  0  0  0  0  0  0  0  0  0
  1  2  2  0
  2 28  1  0
  2  3  1  0
  3  4  1  0
  3  5  1  0
  3 31  1  1
  4 32  1  0
  5 19  1  0
  5  6  1  0
  5 33  1  6
  6 18  1  0
  6  7  1  6
  6  8  1  0
  7 34  1  0
  8  9  1  0
  8 15  1  0
  8 35  1  6
  9 10  2  0
  9 11  1  0
 11 12  1  0
 11 36  1  0
 12 14  1  0
 12 13  1  0
 12 37  1  0
 13 14  1  0
 13 38  1  0
 13 39  1  0
 14 40  1  0
 14 41  1  0
 15 16  1  0
 15 42  1  0
 16 21  1  0
 16 17  1  0
 16 43  1  1
 17 18  1  0
 18 19  1  0
 18 44  1  6
 19 29  1  0
 19 20  1  1
 20 26  2  0
 20 21  1  0
 21 22  2  0
 22 23  1  0
 22 45  1  0
 23 24  2  0
 23 46  1  0
 24 25  1  0
 24 26  1  0
 25 47  1  0
 26 27  1  0
 27 28  1  0
 28 29  1  0
 28 48  1  6
 29 30  1  0
 29 49  1  6
 30 50  1  0
M  END
>  <i_m_ct_stereo_status>  (92) 
1

>  <s_m_source_file>  (92) 
/var/tmp/pbs.5076253.sched01/tmp9xbr3gte/40_qt8sgg8.sdf

>  <i_m_source_file_index>  (92) 
34

>  <i_lp_mmshare_version>  (92) 
48012

>  <i_f3d_flags>  (92) 
0

>  <s_epik_input>  (92) 
W09IXVtDQEBIXTFDKD1PKVtDQEhdKFtDQEhdMltPSF0pT2MoYyhbT0hdKVtjSF1bY0hdMyljNGMzW0NASF0oT1tDQEhdNVtDQEBdNihbQ0BASF0xW0NAQF0yNDUpW09IXSlbTkhdW0NAQEhdNkMoPU8pW05IXVtDSF03W0NIMl1bQ0gyXTc=

>  <s_epik_cmdline>  (92) 
J2VwaWtfcHl0aG9uJywgJy1waHQnLCAnMi4wJywgJy1waCcsICc3LjAnLCAnLXRuJywgJzgnLCAnLW1hJywgJzIwMCcsICctaW1hZScsICc8aW5maWxlLm1hZT4nLCAnLW9tYWUnLCAnPG91dGZpbGUubWFlPic=

>  <r_lp_tautomer_probability>  (92) 
1

>  <r_epik_Ionization_Penalty>  (92) 
0.00246604

>  <r_epik_Ionization_Penalty_Charging>  (92) 
0

>  <r_epik_Ionization_Penalty_Neutral>  (92) 
0.00246604

>  <r_epik_State_Penalty>  (92) 
-0

>  <r_epik_Charging_Adjusted_Penalty>  (92) 
0

>  <i_epik_Tot_Q>  (92) 
0

>  <i_epik_Tot_abs_Q>  (92) 
0

>  <s_epik_Chemistry_Notes>  (92) 
This compound contains an acetal/aminal-like group ( X-CH(R)-Y where X, Y are N, S, or O) that may be acid/base labile, releasing an aldehyde.

>  <s_lp_Force_Field>  (92) 
OPLS3e

>  <r_lp_Energy>  (92) 
76.1189

>  <b_lp_Chiralities_Consistent>  (92) 
1

>  <s_lp_Variant>  (92) 
51:0-1

>  <s_i_glide_gridfile>  (92) 
pfpi4k_grid

>  <i_i_glide_lignum>  (92) 
34

>  <i_i_glide_rotatable_bonds>  (92) 
7

>  <r_i_docking_score>  (92) 
-4.15797

>  <r_i_glide_ligand_efficiency>  (92) 
-0.138599

>  <r_i_glide_ligand_efficiency_sa>  (92) 
-0.430659

>  <r_i_glide_ligand_efficiency_ln>  (92) 
-0.944735

>  <r_i_glide_gscore>  (92) 
-4.15797

>  <r_i_glide_lipo>  (92) 
-0.287654

>  <r_i_glide_hbond>  (92) 
-0.154562

>  <r_i_glide_metal>  (92) 
-0

>  <r_i_glide_rewards>  (92) 
-0.586485

>  <r_i_glide_evdw>  (92) 
-28.6804

>  <r_i_glide_ecoul>  (92) 
-13.0342

>  <r_i_glide_erotb>  (92) 
0.341842

>  <r_i_glide_esite>  (92) 
-0.081949

>  <r_i_glide_emodel>  (92) 
-49.6684

>  <r_i_glide_energy>  (92) 
-41.7147

>  <r_i_glide_einternal>  (92) 
4.84107

>  <r_i_glide_intrahb_reward>  (92) 
-0

>  <i_i_glide_confnum>  (92) 
2

>  <i_i_glide_posenum>  (92) 
40

>  <r_i_glide_eff_state_penalty>  (92) 
0

>  <ligand_id>  (92) 
51

>  <original_smiles>  (92) 
O=C1C(O)C2C3(O)C(C(=O)NC4CC4)NC4OC3C23c2c4ccc(O)c2OC1C3O

>  <smiles>  (92) 
[H]Oc1c([H])c([H])c2c3c1OC1([H])C(=O)C([H])(O[H])C4([H])C5(O[H])C([H])(C(=O)N([H])C6([H])C([H])([H])C6([H])[H])N([H])C2([H])OC5([H])C34C1([H])O[H]

$$$$
51:0:2
     RDKit          3D

 50 56  0  0  1  0  0  0  0  0999 V2000
    4.9938   -1.0759   -1.4120 O   0  0  0  0  0  0  0  0  0  0  0  0
    4.6341   -1.3509   -0.2597 C   0  0  0  0  0  0  0  0  0  0  0  0
    3.8387   -2.6444    0.0697 C   0  0  1  0  0  0  0  0  0  0  0  0
    3.9369   -3.5930   -0.9804 O   0  0  0  0  0  0  0  0  0  0  0  0
    4.4560   -3.1849    1.3601 C   0  0  2  0  0  0  0  0  0  0  0  0
    4.0119   -4.3246    2.2911 C   0  0  2  0  0  0  0  0  0  0  0  0
    4.7873   -5.5052    2.1585 O   0  0  0  0  0  0  0  0  0  0  0  0
    2.4814   -4.6202    2.3053 C   0  0  1  0  0  0  0  0  0  0  0  0
    2.0221   -5.9065    1.6139 C   0  0  0  0  0  0  0  0  0  0  0  0
    1.4109   -5.8528    0.5421 O   0  0  0  0  0  0  0  0  0  0  0  0
    2.3035   -7.0523    2.2505 N   0  0  0  0  0  0  0  0  0  0  0  0
    1.9623   -8.3518    1.8048 C   0  0  0  0  0  0  0  0  0  0  0  0
    1.6496   -9.3996    2.8458 C   0  0  0  0  0  0  0  0  0  0  0  0
    2.9510   -9.4529    2.0892 C   0  0  0  0  0  0  0  0  0  0  0  0
    1.9326   -4.4907    3.6538 N   0  0  0  0  0  0  0  0  0  0  0  0
    2.4441   -3.3224    4.3734 C   0  0  1  0  0  0  0  0  0  0  0  0
    3.8177   -3.4218    4.5973 O   0  0  0  0  0  0  0  0  0  0  0  0
    4.6018   -3.4112    3.4043 C   0  0  2  0  0  0  0  0  0  0  0  0
    4.3819   -2.1781    2.5158 C   0  0  2  0  0  0  0  0  0  0  0  0
    3.0656   -1.4247    2.7548 C   0  0  0  0  0  0  0  0  0  0  0  0
    2.1603   -2.0074    3.6768 C   0  0  0  0  0  0  0  0  0  0  0  0
    0.9491   -1.3231    3.8645 C   0  0  0  0  0  0  0  0  0  0  0  0
    0.6815   -0.1224    3.1901 C   0  0  0  0  0  0  0  0  0  0  0  0
    1.6282    0.4233    2.3035 C   0  0  0  0  0  0  0  0  0  0  0  0
    1.3582    1.6142    1.6880 O   0  0  0  0  0  0  0  0  0  0  0  0
    2.8510   -0.2159    2.0546 C   0  0  0  0  0  0  0  0  0  0  0  0
    3.7734    0.3555    1.1935 O   0  0  0  0  0  0  0  0  0  0  0  0
    4.9594   -0.3801    0.9033 C   0  0  1  0  0  0  0  0  0  0  0  0
    5.4484   -1.1377    2.1703 C   0  0  1  0  0  0  0  0  0  0  0  0
    5.7785   -0.2718    3.2372 O   0  0  0  0  0  0  0  0  0  0  0  0
    2.7915   -2.3671    0.2196 H   0  0  0  0  0  0  0  0  0  0  0  0
    3.3422   -4.3158   -0.8300 H   0  0  0  0  0  0  0  0  0  0  0  0
    5.4967   -3.4433    1.1560 H   0  0  0  0  0  0  0  0  0  0  0  0
    4.5682   -5.9091    1.3334 H   0  0  0  0  0  0  0  0  0  0  0  0
    2.0332   -3.8408    1.6993 H   0  0  0  0  0  0  0  0  0  0  0  0
    2.8467   -6.9893    3.1007 H   0  0  0  0  0  0  0  0  0  0  0  0
    1.4100   -8.4293    0.8743 H   0  0  0  0  0  0  0  0  0  0  0  0
    1.6848   -9.1101    3.8951 H   0  0  0  0  0  0  0  0  0  0  0  0
    0.8959  -10.1362    2.5838 H   0  0  0  0  0  0  0  0  0  0  0  0
    3.0561  -10.2185    1.3268 H   0  0  0  0  0  0  0  0  0  0  0  0
    3.8595   -9.1917    2.6296 H   0  0  0  0  0  0  0  0  0  0  0  0
    2.1759   -5.3200    4.1833 H   0  0  0  0  0  0  0  0  0  0  0  0
    1.9735   -3.3096    5.3599 H   0  0  0  0  0  0  0  0  0  0  0  0
    5.6644   -3.6057    3.5785 H   0  0  0  0  0  0  0  0  0  0  0  0
    0.2120   -1.7298    4.5445 H   0  0  0  0  0  0  0  0  0  0  0  0
   -0.2537    0.3817    3.3716 H   0  0  0  0  0  0  0  0  0  0  0  0
    0.4752    1.9385    1.7732 H   0  0  0  0  0  0  0  0  0  0  0  0
    5.7271    0.3216    0.5734 H   0  0  0  0  0  0  0  0  0  0  0  0
    6.3816   -1.6288    1.9130 H   0  0  0  0  0  0  0  0  0  0  0  0
    4.9749    0.1276    3.5397 H   0  0  0  0  0  0  0  0  0  0  0  0
  1  2  2  0
  2 28  1  0
  2  3  1  0
  3  4  1  0
  3  5  1  0
  3 31  1  1
  4 32  1  0
  5 19  1  0
  5  6  1  0
  5 33  1  6
  6 18  1  0
  6  7  1  6
  6  8  1  0
  7 34  1  0
  8  9  1  0
  8 15  1  0
  8 35  1  6
  9 10  2  0
  9 11  1  0
 11 12  1  0
 11 36  1  0
 12 14  1  0
 12 13  1  0
 12 37  1  0
 13 14  1  0
 13 38  1  0
 13 39  1  0
 14 40  1  0
 14 41  1  0
 15 16  1  0
 15 42  1  0
 16 21  1  0
 16 17  1  0
 16 43  1  1
 17 18  1  0
 18 19  1  0
 18 44  1  1
 19 29  1  0
 19 20  1  1
 20 26  2  0
 20 21  1  0
 21 22  2  0
 22 23  1  0
 22 45  1  0
 23 24  2  0
 23 46  1  0
 24 25  1  0
 24 26  1  0
 25 47  1  0
 26 27  1  0
 27 28  1  0
 28 29  1  0
 28 48  1  6
 29 30  1  0
 29 49  1  6
 30 50  1  0
M  END
>  <i_m_ct_stereo_status>  (93) 
1

>  <s_m_source_file>  (93) 
/var/tmp/pbs.5076253.sched01/tmp9xbr3gte/40_qt8sgg8.sdf

>  <i_m_source_file_index>  (93) 
34

>  <i_lp_mmshare_version>  (93) 
48012

>  <i_f3d_flags>  (93) 
0

>  <s_epik_input>  (93) 
W09IXVtDQEBIXTFDKD1PKVtDQEhdKFtDQEhdMltPSF0pT2MoYyhbT0hdKVtjSF1bY0hdMyljNGMzW0NASF0oT1tDQEhdNVtDQEBdNihbQ0BASF0xW0NAQF0yNDUpW09IXSlbTkhdW0NAQEhdNkMoPU8pW05IXVtDSF03W0NIMl1bQ0gyXTc=

>  <s_epik_cmdline>  (93) 
J2VwaWtfcHl0aG9uJywgJy1waHQnLCAnMi4wJywgJy1waCcsICc3LjAnLCAnLXRuJywgJzgnLCAnLW1hJywgJzIwMCcsICctaW1hZScsICc8aW5maWxlLm1hZT4nLCAnLW9tYWUnLCAnPG91dGZpbGUubWFlPic=

>  <r_lp_tautomer_probability>  (93) 
1

>  <r_epik_Ionization_Penalty>  (93) 
0.00246604

>  <r_epik_Ionization_Penalty_Charging>  (93) 
0

>  <r_epik_Ionization_Penalty_Neutral>  (93) 
0.00246604

>  <r_epik_State_Penalty>  (93) 
-0

>  <r_epik_Charging_Adjusted_Penalty>  (93) 
0

>  <i_epik_Tot_Q>  (93) 
0

>  <i_epik_Tot_abs_Q>  (93) 
0

>  <s_epik_Chemistry_Notes>  (93) 
This compound contains an acetal/aminal-like group ( X-CH(R)-Y where X, Y are N, S, or O) that may be acid/base labile, releasing an aldehyde.

>  <s_lp_Force_Field>  (93) 
OPLS3e

>  <r_lp_Energy>  (93) 
76.1189

>  <b_lp_Chiralities_Consistent>  (93) 
1

>  <s_lp_Variant>  (93) 
51:0-1

>  <s_i_glide_gridfile>  (93) 
pfpi4k_grid

>  <i_i_glide_lignum>  (93) 
34

>  <i_i_glide_rotatable_bonds>  (93) 
7

>  <r_i_docking_score>  (93) 
-3.17554

>  <r_i_glide_ligand_efficiency>  (93) 
-0.105851

>  <r_i_glide_ligand_efficiency_sa>  (93) 
-0.328905

>  <r_i_glide_ligand_efficiency_ln>  (93) 
-0.721517

>  <r_i_glide_gscore>  (93) 
-3.17554

>  <r_i_glide_lipo>  (93) 
-0.377287

>  <r_i_glide_hbond>  (93) 
-0.156361

>  <r_i_glide_metal>  (93) 
-0

>  <r_i_glide_rewards>  (93) 
-0.57015

>  <r_i_glide_evdw>  (93) 
-31.5387

>  <r_i_glide_ecoul>  (93) 
-5.1156

>  <r_i_glide_erotb>  (93) 
0.341842

>  <r_i_glide_esite>  (93) 
-0.0693062

>  <r_i_glide_emodel>  (93) 
-44.2603

>  <r_i_glide_energy>  (93) 
-36.6543

>  <r_i_glide_einternal>  (93) 
0.97071

>  <r_i_glide_intrahb_reward>  (93) 
-0

>  <i_i_glide_confnum>  (93) 
2

>  <i_i_glide_posenum>  (93) 
1

>  <r_i_glide_eff_state_penalty>  (93) 
0

>  <ligand_id>  (93) 
51

>  <original_smiles>  (93) 
O=C1C(O)C2C3(O)C(C(=O)NC4CC4)NC4OC3C23c2c4ccc(O)c2OC1C3O

>  <smiles>  (93) 
[H]Oc1c([H])c([H])c2c3c1OC1([H])C(=O)C([H])(O[H])C4([H])C5(O[H])C([H])(C(=O)N([H])C6([H])C([H])([H])C6([H])[H])N([H])C2([H])OC5([H])C34C1([H])O[H]

$$$$
55:0:0
     RDKit          3D

 32 34  0  0  1  0  0  0  0  0999 V2000
   -5.8858   -5.5329   -4.7333 C   0  0  0  0  0  0  0  0  0  0  0  0
   -7.1486   -5.3335   -5.5505 C   0  0  0  0  0  0  0  0  0  0  0  0
   -8.0180   -4.2567   -5.2528 C   0  0  0  0  0  0  0  0  0  0  0  0
   -9.1625   -4.0514   -5.9867 C   0  0  0  0  0  0  0  0  0  0  0  0
   -9.4836   -4.9325   -7.0500 C   0  0  0  0  0  0  0  0  0  0  0  0
  -10.5065   -4.9667   -7.9001 N   0  0  0  0  0  0  0  0  0  0  0  0
  -10.2951   -6.0685   -8.7162 C   0  0  0  0  0  0  0  0  0  0  0  0
  -11.2920   -6.4223   -9.7791 C   0  0  0  0  0  0  0  0  0  0  0  0
  -12.3297   -7.4654   -9.3239 C   0  0  0  0  0  0  0  0  0  0  0  0
  -11.7490   -8.7828   -9.1353 N   0  0  0  0  0  0  0  0  0  0  0  0
  -11.8575   -9.5569   -7.9926 C   0  0  0  0  0  0  0  0  0  0  0  0
  -11.1954  -10.7310   -8.2145 C   0  0  0  0  0  0  0  0  0  0  0  0
  -10.6667  -10.6901   -9.5345 C   0  0  0  0  0  0  0  0  0  0  0  0
  -11.0285   -9.4936  -10.0827 C   0  0  0  0  0  0  0  0  0  0  0  0
   -9.1243   -6.6958   -8.3846 C   0  0  0  0  0  0  0  0  0  0  0  0
   -8.5866   -5.9961   -7.3147 N   0  0  0  0  0  0  0  0  0  0  0  0
   -7.4497   -6.1952   -6.5838 C   0  0  0  0  0  0  0  0  0  0  0  0
   -5.8096   -4.7824   -3.9481 H   0  0  0  0  0  0  0  0  0  0  0  0
   -4.9987   -5.4435   -5.3606 H   0  0  0  0  0  0  0  0  0  0  0  0
   -5.8860   -6.5143   -4.2583 H   0  0  0  0  0  0  0  0  0  0  0  0
   -7.7772   -3.5724   -4.4467 H   0  0  0  0  0  0  0  0  0  0  0  0
   -9.8290   -3.2238   -5.7634 H   0  0  0  0  0  0  0  0  0  0  0  0
  -11.8325   -5.5256  -10.0778 H   0  0  0  0  0  0  0  0  0  0  0  0
  -10.7834   -6.7616  -10.6806 H   0  0  0  0  0  0  0  0  0  0  0  0
  -12.8193   -7.1481   -8.4005 H   0  0  0  0  0  0  0  0  0  0  0  0
  -13.1159   -7.5570  -10.0742 H   0  0  0  0  0  0  0  0  0  0  0  0
  -12.3991   -9.2039   -7.1237 H   0  0  0  0  0  0  0  0  0  0  0  0
  -11.1080  -11.5393   -7.5046 H   0  0  0  0  0  0  0  0  0  0  0  0
  -10.0924  -11.4577  -10.0327 H   0  0  0  0  0  0  0  0  0  0  0  0
  -10.8309   -9.0837  -11.0628 H   0  0  0  0  0  0  0  0  0  0  0  0
   -8.6360   -7.5744   -8.7807 H   0  0  0  0  0  0  0  0  0  0  0  0
   -6.8238   -7.0373   -6.8605 H   0  0  0  0  0  0  0  0  0  0  0  0
  1  2  1  0
  1 18  1  0
  1 19  1  0
  1 20  1  0
  2 17  2  0
  2  3  1  0
  3  4  2  0
  3 21  1  0
  4  5  1  0
  4 22  1  0
  5 16  1  0
  5  6  2  0
  6  7  1  0
  7  8  1  0
  7 15  2  0
  8  9  1  0
  8 23  1  0
  8 24  1  0
  9 10  1  0
  9 25  1  0
  9 26  1  0
 10 14  1  0
 10 11  1  0
 11 12  2  0
 11 27  1  0
 12 13  1  0
 12 28  1  0
 13 14  2  0
 13 29  1  0
 14 30  1  0
 15 16  1  0
 15 31  1  0
 16 17  1  0
 17 32  1  0
M  END
>  <i_m_ct_stereo_status>  (94) 
1

>  <s_m_source_file>  (94) 
/var/tmp/pbs.5076253.sched01/tmp9xbr3gte/40_qt8sgg8.sdf

>  <i_m_source_file_index>  (94) 
37

>  <i_lp_mmshare_version>  (94) 
48012

>  <i_f3d_flags>  (94) 
0

>  <s_epik_input>  (94) 
W2NIXTFbY0hdYyhbQ0gzXSlbY0hdbihjMTIpW2NIXWMobjIpW0NIMl1bQ0gyXW4zW2NIXVtjSF1bY0hdW2NIXTM=

>  <s_epik_cmdline>  (94) 
J2VwaWtfcHl0aG9uJywgJy1waHQnLCAnMi4wJywgJy1waCcsICc3LjAnLCAnLXRuJywgJzgnLCAnLW1hJywgJzIwMCcsICctaW1hZScsICc8aW5maWxlLm1hZT4nLCAnLW9tYWUnLCAnPG91dGZpbGUubWFlPic=

>  <r_epik_Ionization_Penalty>  (94) 
0.32262

>  <r_epik_Ionization_Penalty_Charging>  (94) 
0.32262

>  <r_epik_Ionization_Penalty_Neutral>  (94) 
1.705e-13

>  <r_epik_State_Penalty>  (94) 
0.317259

>  <r_epik_Charging_Adjusted_Penalty>  (94) 
0.639879

>  <i_epik_Tot_Q>  (94) 
0

>  <i_epik_Tot_abs_Q>  (94) 
0

>  <s_lp_Force_Field>  (94) 
OPLS3e

>  <r_lp_Energy>  (94) 
7.45079

>  <b_lp_Chiralities_Consistent>  (94) 
1

>  <s_lp_Variant>  (94) 
55:0-1

>  <s_i_glide_gridfile>  (94) 
pfpi4k_grid

>  <i_i_glide_lignum>  (94) 
37

>  <i_i_glide_rotatable_bonds>  (94) 
3

>  <r_i_docking_score>  (94) 
-4.78405

>  <r_i_glide_ligand_efficiency>  (94) 
-0.281415

>  <r_i_glide_ligand_efficiency_sa>  (94) 
-0.723596

>  <r_i_glide_ligand_efficiency_ln>  (94) 
-1.24805

>  <r_i_glide_gscore>  (94) 
-4.78405

>  <r_i_glide_lipo>  (94) 
-1.62195

>  <r_i_glide_hbond>  (94) 
0

>  <r_i_glide_metal>  (94) 
-0

>  <r_i_glide_rewards>  (94) 
-2.49995

>  <r_i_glide_evdw>  (94) 
-24.7832

>  <r_i_glide_ecoul>  (94) 
-2.72605

>  <r_i_glide_erotb>  (94) 
1.00295

>  <r_i_glide_esite>  (94) 
-0.0170303

>  <r_i_glide_emodel>  (94) 
-36.1195

>  <r_i_glide_energy>  (94) 
-27.5093

>  <r_i_glide_einternal>  (94) 
1.52189

>  <r_i_glide_intrahb_reward>  (94) 
-0

>  <i_i_glide_confnum>  (94) 
4

>  <i_i_glide_posenum>  (94) 
27

>  <r_i_glide_eff_state_penalty>  (94) 
0

>  <ligand_id>  (94) 
55

>  <original_smiles>  (94) 
Cc1ccc2nc(CCn3cccc3)cn2c1

>  <smiles>  (94) 
[H]c1c(C([H])([H])[H])c([H])n2c([H])c(C([H])([H])C([H])([H])n3c([H])c([H])c([H])c3[H])nc2c1[H]

$$$$
55:0:1
     RDKit          3D

 32 34  0  0  1  0  0  0  0  0999 V2000
    3.5951   -0.1963   -4.7453 C   0  0  0  0  0  0  0  0  0  0  0  0
    3.5363   -1.0826   -3.5192 C   0  0  0  0  0  0  0  0  0  0  0  0
    2.7671   -2.2700   -3.5313 C   0  0  0  0  0  0  0  0  0  0  0  0
    2.6838   -3.0559   -2.4106 C   0  0  0  0  0  0  0  0  0  0  0  0
    3.3658   -2.6791   -1.2264 C   0  0  0  0  0  0  0  0  0  0  0  0
    3.4219   -3.2328   -0.0205 N   0  0  0  0  0  0  0  0  0  0  0  0
    4.2705   -2.4363    0.7322 C   0  0  0  0  0  0  0  0  0  0  0  0
    4.5622   -2.7996    2.1613 C   0  0  0  0  0  0  0  0  0  0  0  0
    5.5614   -3.9654    2.3245 C   0  0  0  0  0  0  0  0  0  0  0  0
    5.0605   -5.2437    1.8382 N   0  0  0  0  0  0  0  0  0  0  0  0
    5.2415   -5.7430    0.5593 C   0  0  0  0  0  0  0  0  0  0  0  0
    4.6197   -6.9582    0.4834 C   0  0  0  0  0  0  0  0  0  0  0  0
    4.0524   -7.2308    1.7589 C   0  0  0  0  0  0  0  0  0  0  0  0
    4.3312   -6.1667    2.5717 C   0  0  0  0  0  0  0  0  0  0  0  0
    4.7030   -1.3613   -0.0010 C   0  0  0  0  0  0  0  0  0  0  0  0
    4.1354   -1.4928   -1.2608 N   0  0  0  0  0  0  0  0  0  0  0  0
    4.2183   -0.7162   -2.3804 C   0  0  0  0  0  0  0  0  0  0  0  0
    3.0010   -0.6112   -5.5503 H   0  0  0  0  0  0  0  0  0  0  0  0
    4.6130   -0.1214   -5.1111 H   0  0  0  0  0  0  0  0  0  0  0  0
    3.2251    0.8074   -4.5337 H   0  0  0  0  0  0  0  0  0  0  0  0
    2.2056   -2.5644   -4.4101 H   0  0  0  0  0  0  0  0  0  0  0  0
    2.0888   -3.9599   -2.4128 H   0  0  0  0  0  0  0  0  0  0  0  0
    4.9568   -1.9309    2.6858 H   0  0  0  0  0  0  0  0  0  0  0  0
    3.6332   -3.0500    2.6714 H   0  0  0  0  0  0  0  0  0  0  0  0
    6.4982   -3.7367    1.8135 H   0  0  0  0  0  0  0  0  0  0  0  0
    5.8040   -4.0897    3.3808 H   0  0  0  0  0  0  0  0  0  0  0  0
    5.7725   -5.1770   -0.1929 H   0  0  0  0  0  0  0  0  0  0  0  0
    4.5919   -7.5814   -0.3980 H   0  0  0  0  0  0  0  0  0  0  0  0
    3.4991   -8.1133    2.0490 H   0  0  0  0  0  0  0  0  0  0  0  0
    4.0720   -5.9852    3.6051 H   0  0  0  0  0  0  0  0  0  0  0  0
    5.3286   -0.5130    0.2393 H   0  0  0  0  0  0  0  0  0  0  0  0
    4.8096    0.1866   -2.3124 H   0  0  0  0  0  0  0  0  0  0  0  0
  1  2  1  0
  1 18  1  0
  1 19  1  0
  1 20  1  0
  2 17  2  0
  2  3  1  0
  3  4  2  0
  3 21  1  0
  4  5  1  0
  4 22  1  0
  5 16  1  0
  5  6  2  0
  6  7  1  0
  7  8  1  0
  7 15  2  0
  8  9  1  0
  8 23  1  0
  8 24  1  0
  9 10  1  0
  9 25  1  0
  9 26  1  0
 10 14  1  0
 10 11  1  0
 11 12  2  0
 11 27  1  0
 12 13  1  0
 12 28  1  0
 13 14  2  0
 13 29  1  0
 14 30  1  0
 15 16  1  0
 15 31  1  0
 16 17  1  0
 17 32  1  0
M  END
>  <i_m_ct_stereo_status>  (95) 
1

>  <s_m_source_file>  (95) 
/var/tmp/pbs.5076253.sched01/tmp9xbr3gte/40_qt8sgg8.sdf

>  <i_m_source_file_index>  (95) 
37

>  <i_lp_mmshare_version>  (95) 
48012

>  <i_f3d_flags>  (95) 
0

>  <s_epik_input>  (95) 
W2NIXTFbY0hdYyhbQ0gzXSlbY0hdbihjMTIpW2NIXWMobjIpW0NIMl1bQ0gyXW4zW2NIXVtjSF1bY0hdW2NIXTM=

>  <s_epik_cmdline>  (95) 
J2VwaWtfcHl0aG9uJywgJy1waHQnLCAnMi4wJywgJy1waCcsICc3LjAnLCAnLXRuJywgJzgnLCAnLW1hJywgJzIwMCcsICctaW1hZScsICc8aW5maWxlLm1hZT4nLCAnLW9tYWUnLCAnPG91dGZpbGUubWFlPic=

>  <r_epik_Ionization_Penalty>  (95) 
0.32262

>  <r_epik_Ionization_Penalty_Charging>  (95) 
0.32262

>  <r_epik_Ionization_Penalty_Neutral>  (95) 
1.705e-13

>  <r_epik_State_Penalty>  (95) 
0.317259

>  <r_epik_Charging_Adjusted_Penalty>  (95) 
0.639879

>  <i_epik_Tot_Q>  (95) 
0

>  <i_epik_Tot_abs_Q>  (95) 
0

>  <s_lp_Force_Field>  (95) 
OPLS3e

>  <r_lp_Energy>  (95) 
7.45079

>  <b_lp_Chiralities_Consistent>  (95) 
1

>  <s_lp_Variant>  (95) 
55:0-1

>  <s_i_glide_gridfile>  (95) 
pfpi4k_grid

>  <i_i_glide_lignum>  (95) 
37

>  <i_i_glide_rotatable_bonds>  (95) 
3

>  <r_i_docking_score>  (95) 
-3.38209

>  <r_i_glide_ligand_efficiency>  (95) 
-0.198947

>  <r_i_glide_ligand_efficiency_sa>  (95) 
-0.511548

>  <r_i_glide_ligand_efficiency_ln>  (95) 
-0.882313

>  <r_i_glide_gscore>  (95) 
-3.38209

>  <r_i_glide_lipo>  (95) 
-1.04908

>  <r_i_glide_hbond>  (95) 
0

>  <r_i_glide_metal>  (95) 
-0

>  <r_i_glide_rewards>  (95) 
-1.90772

>  <r_i_glide_evdw>  (95) 
-23.2531

>  <r_i_glide_ecoul>  (95) 
-1.25221

>  <r_i_glide_erotb>  (95) 
1.00295

>  <r_i_glide_esite>  (95) 
-0.0777508

>  <r_i_glide_emodel>  (95) 
-30.3272

>  <r_i_glide_energy>  (95) 
-24.5053

>  <r_i_glide_einternal>  (95) 
1.38103

>  <r_i_glide_intrahb_reward>  (95) 
-0

>  <i_i_glide_confnum>  (95) 
3

>  <i_i_glide_posenum>  (95) 
2

>  <r_i_glide_eff_state_penalty>  (95) 
0

>  <ligand_id>  (95) 
55

>  <original_smiles>  (95) 
Cc1ccc2nc(CCn3cccc3)cn2c1

>  <smiles>  (95) 
[H]c1c(C([H])([H])[H])c([H])n2c([H])c(C([H])([H])C([H])([H])n3c([H])c([H])c([H])c3[H])nc2c1[H]

$$$$
55:0:2
     RDKit          3D

 32 34  0  0  1  0  0  0  0  0999 V2000
    0.8361  -10.9946    4.1405 C   0  0  0  0  0  0  0  0  0  0  0  0
    0.7384   -9.7153    3.3264 C   0  0  0  0  0  0  0  0  0  0  0  0
   -0.5286   -9.1271    3.0760 C   0  0  0  0  0  0  0  0  0  0  0  0
   -0.6295   -7.9725    2.3396 C   0  0  0  0  0  0  0  0  0  0  0  0
    0.5425   -7.3586    1.8257 C   0  0  0  0  0  0  0  0  0  0  0  0
    0.7217   -6.2576    1.0986 N   0  0  0  0  0  0  0  0  0  0  0  0
    2.0933   -6.1524    0.8943 C   0  0  0  0  0  0  0  0  0  0  0  0
    2.6728   -5.0469    0.0630 C   0  0  0  0  0  0  0  0  0  0  0  0
    3.2645   -3.8930    0.8827 C   0  0  0  0  0  0  0  0  0  0  0  0
    4.0847   -3.0224    0.0583 N   0  0  0  0  0  0  0  0  0  0  0  0
    5.2805   -3.3852   -0.5418 C   0  0  0  0  0  0  0  0  0  0  0  0
    5.7474   -2.3130   -1.2471 C   0  0  0  0  0  0  0  0  0  0  0  0
    4.8204   -1.2481   -1.0660 C   0  0  0  0  0  0  0  0  0  0  0  0
    3.8129   -1.7030   -0.2621 C   0  0  0  0  0  0  0  0  0  0  0  0
    2.7526   -7.1867    1.5070 C   0  0  0  0  0  0  0  0  0  0  0  0
    1.7872   -7.9797    2.1019 N   0  0  0  0  0  0  0  0  0  0  0  0
    1.8820   -9.1302    2.8306 C   0  0  0  0  0  0  0  0  0  0  0  0
   -0.1511  -11.3432    4.4253 H   0  0  0  0  0  0  0  0  0  0  0  0
    1.3978  -10.8374    5.0621 H   0  0  0  0  0  0  0  0  0  0  0  0
    1.3062  -11.7945    3.5672 H   0  0  0  0  0  0  0  0  0  0  0  0
   -1.4285   -9.5942    3.4637 H   0  0  0  0  0  0  0  0  0  0  0  0
   -1.5972   -7.5381    2.1360 H   0  0  0  0  0  0  0  0  0  0  0  0
    3.4465   -5.4499   -0.5889 H   0  0  0  0  0  0  0  0  0  0  0  0
    1.9066   -4.6362   -0.5976 H   0  0  0  0  0  0  0  0  0  0  0  0
    2.4741   -3.3127    1.3610 H   0  0  0  0  0  0  0  0  0  0  0  0
    3.9026   -4.2808    1.6743 H   0  0  0  0  0  0  0  0  0  0  0  0
    5.6921   -4.3789   -0.4268 H   0  0  0  0  0  0  0  0  0  0  0  0
    6.6537   -2.3151   -1.8355 H   0  0  0  0  0  0  0  0  0  0  0  0
    4.8627   -0.2562   -1.4830 H   0  0  0  0  0  0  0  0  0  0  0  0
    2.9228   -1.2016    0.0953 H   0  0  0  0  0  0  0  0  0  0  0  0
    3.7956   -7.4543    1.5647 H   0  0  0  0  0  0  0  0  0  0  0  0
    2.8749   -9.5362    2.9960 H   0  0  0  0  0  0  0  0  0  0  0  0
  1  2  1  0
  1 18  1  0
  1 19  1  0
  1 20  1  0
  2 17  2  0
  2  3  1  0
  3  4  2  0
  3 21  1  0
  4  5  1  0
  4 22  1  0
  5 16  1  0
  5  6  2  0
  6  7  1  0
  7  8  1  0
  7 15  2  0
  8  9  1  0
  8 23  1  0
  8 24  1  0
  9 10  1  0
  9 25  1  0
  9 26  1  0
 10 14  1  0
 10 11  1  0
 11 12  2  0
 11 27  1  0
 12 13  1  0
 12 28  1  0
 13 14  2  0
 13 29  1  0
 14 30  1  0
 15 16  1  0
 15 31  1  0
 16 17  1  0
 17 32  1  0
M  END
>  <i_m_ct_stereo_status>  (96) 
1

>  <s_m_source_file>  (96) 
/var/tmp/pbs.5076253.sched01/tmp9xbr3gte/40_qt8sgg8.sdf

>  <i_m_source_file_index>  (96) 
37

>  <i_lp_mmshare_version>  (96) 
48012

>  <i_f3d_flags>  (96) 
0

>  <s_epik_input>  (96) 
W2NIXTFbY0hdYyhbQ0gzXSlbY0hdbihjMTIpW2NIXWMobjIpW0NIMl1bQ0gyXW4zW2NIXVtjSF1bY0hdW2NIXTM=

>  <s_epik_cmdline>  (96) 
J2VwaWtfcHl0aG9uJywgJy1waHQnLCAnMi4wJywgJy1waCcsICc3LjAnLCAnLXRuJywgJzgnLCAnLW1hJywgJzIwMCcsICctaW1hZScsICc8aW5maWxlLm1hZT4nLCAnLW9tYWUnLCAnPG91dGZpbGUubWFlPic=

>  <r_epik_Ionization_Penalty>  (96) 
0.32262

>  <r_epik_Ionization_Penalty_Charging>  (96) 
0.32262

>  <r_epik_Ionization_Penalty_Neutral>  (96) 
1.705e-13

>  <r_epik_State_Penalty>  (96) 
0.317259

>  <r_epik_Charging_Adjusted_Penalty>  (96) 
0.639879

>  <i_epik_Tot_Q>  (96) 
0

>  <i_epik_Tot_abs_Q>  (96) 
0

>  <s_lp_Force_Field>  (96) 
OPLS3e

>  <r_lp_Energy>  (96) 
7.45079

>  <b_lp_Chiralities_Consistent>  (96) 
1

>  <s_lp_Variant>  (96) 
55:0-1

>  <s_i_glide_gridfile>  (96) 
pfpi4k_grid

>  <i_i_glide_lignum>  (96) 
37

>  <i_i_glide_rotatable_bonds>  (96) 
3

>  <r_i_docking_score>  (96) 
-3.21879

>  <r_i_glide_ligand_efficiency>  (96) 
-0.189341

>  <r_i_glide_ligand_efficiency_sa>  (96) 
-0.486848

>  <r_i_glide_ligand_efficiency_ln>  (96) 
-0.839711

>  <r_i_glide_gscore>  (96) 
-3.21879

>  <r_i_glide_lipo>  (96) 
-0.0900798

>  <r_i_glide_hbond>  (96) 
-0.16

>  <r_i_glide_metal>  (96) 
-0

>  <r_i_glide_rewards>  (96) 
-1.87789

>  <r_i_glide_evdw>  (96) 
-22.0697

>  <r_i_glide_ecoul>  (96) 
-6.03119

>  <r_i_glide_erotb>  (96) 
1.00295

>  <r_i_glide_esite>  (96) 
-0.0856113

>  <r_i_glide_emodel>  (96) 
-33.6015

>  <r_i_glide_energy>  (96) 
-28.1009

>  <r_i_glide_einternal>  (96) 
1.40986

>  <r_i_glide_intrahb_reward>  (96) 
-0

>  <i_i_glide_confnum>  (96) 
2

>  <i_i_glide_posenum>  (96) 
20

>  <r_i_glide_eff_state_penalty>  (96) 
0

>  <ligand_id>  (96) 
55

>  <original_smiles>  (96) 
Cc1ccc2nc(CCn3cccc3)cn2c1

>  <smiles>  (96) 
[H]c1c(C([H])([H])[H])c([H])n2c([H])c(C([H])([H])C([H])([H])n3c([H])c([H])c([H])c3[H])nc2c1[H]

$$$$
55:1:0
     RDKit          3D

 33 35  0  0  1  0  0  0  0  0999 V2000
    0.1596   -9.5409    6.3874 C   0  0  0  0  0  0  0  0  0  0  0  0
    1.0849   -9.8010    5.2038 C   0  0  0  0  0  0  0  0  0  0  0  0
    1.0012  -11.0396    4.5063 C   0  0  0  0  0  0  0  0  0  0  0  0
    1.8257  -11.2921    3.4260 C   0  0  0  0  0  0  0  0  0  0  0  0
    2.7040  -10.2853    3.0777 C   0  0  0  0  0  0  0  0  0  0  0  0
    3.5841  -10.2625    2.0794 N   0  0  0  0  0  0  0  0  0  0  0  0
    4.2940   -9.0608    2.1267 C   0  0  0  0  0  0  0  0  0  0  0  0
    5.3823   -8.6816    1.1492 C   0  0  0  0  0  0  0  0  0  0  0  0
    6.6640   -8.0738    1.7646 C   0  0  0  0  0  0  0  0  0  0  0  0
    6.8514   -6.6846    1.3872 N   0  0  0  0  0  0  0  0  0  0  0  0
    5.8643   -5.7146    1.3866 C   0  0  0  0  0  0  0  0  0  0  0  0
    6.4175   -4.5415    0.9696 C   0  0  0  0  0  0  0  0  0  0  0  0
    7.8008   -4.7804    0.7290 C   0  0  0  0  0  0  0  0  0  0  0  0
    8.0469   -6.0974    0.9988 C   0  0  0  0  0  0  0  0  0  0  0  0
    3.7877   -8.3168    3.1800 C   0  0  0  0  0  0  0  0  0  0  0  0
    2.8151   -9.1378    3.7128 N   0  0  0  0  0  0  0  0  0  0  0  0
    2.0085   -8.8512    4.7965 C   0  0  0  0  0  0  0  0  0  0  0  0
   -0.1354  -10.4744    6.8648 H   0  0  0  0  0  0  0  0  0  0  0  0
   -0.7566   -9.0547    6.0596 H   0  0  0  0  0  0  0  0  0  0  0  0
    0.6387   -8.9161    7.1386 H   0  0  0  0  0  0  0  0  0  0  0  0
    0.2735  -11.7855    4.8247 H   0  0  0  0  0  0  0  0  0  0  0  0
    1.8044  -12.2233    2.8757 H   0  0  0  0  0  0  0  0  0  0  0  0
    5.6722   -9.5656    0.5808 H   0  0  0  0  0  0  0  0  0  0  0  0
    4.9652   -8.0235    0.3862 H   0  0  0  0  0  0  0  0  0  0  0  0
    6.6731   -8.1601    2.8505 H   0  0  0  0  0  0  0  0  0  0  0  0
    7.5287   -8.6379    1.4138 H   0  0  0  0  0  0  0  0  0  0  0  0
    4.8480   -5.9504    1.6592 H   0  0  0  0  0  0  0  0  0  0  0  0
    5.8753   -3.6138    0.8477 H   0  0  0  0  0  0  0  0  0  0  0  0
    8.5308   -4.0596    0.3853 H   0  0  0  0  0  0  0  0  0  0  0  0
    8.9671   -6.6641    0.9371 H   0  0  0  0  0  0  0  0  0  0  0  0
    4.0292   -7.3345    3.5648 H   0  0  0  0  0  0  0  0  0  0  0  0
    2.1463   -7.8855    5.2692 H   0  0  0  0  0  0  0  0  0  0  0  0
    3.7665  -11.0313    1.4213 H   0  0  0  0  0  0  0  0  0  0  0  0
  1  2  1  0
  1 18  1  0
  1 19  1  0
  1 20  1  0
  2 17  2  0
  2  3  1  0
  3  4  2  0
  3 21  1  0
  4  5  1  0
  4 22  1  0
  5 16  1  0
  5  6  2  0
  6  7  1  0
  6 33  1  0
  7  8  1  0
  7 15  2  0
  8  9  1  0
  8 23  1  0
  8 24  1  0
  9 10  1  0
  9 25  1  0
  9 26  1  0
 10 14  1  0
 10 11  1  0
 11 12  2  0
 11 27  1  0
 12 13  1  0
 12 28  1  0
 13 14  2  0
 13 29  1  0
 14 30  1  0
 15 16  1  0
 15 31  1  0
 16 17  1  0
 17 32  1  0
M  CHG  1   6   1
M  END
>  <i_m_ct_stereo_status>  (97) 
1

>  <s_m_source_file>  (97) 
/var/tmp/pbs.5076253.sched01/tmp9xbr3gte/40_qt8sgg8.sdf

>  <i_m_source_file_index>  (97) 
38

>  <i_lp_mmshare_version>  (97) 
48012

>  <i_f3d_flags>  (97) 
0

>  <s_epik_input>  (97) 
W2NIXTFbY0hdYyhbQ0gzXSlbY0hdbihjMTIpW2NIXWMobjIpW0NIMl1bQ0gyXW4zW2NIXVtjSF1bY0hdW2NIXTM=

>  <s_epik_cmdline>  (97) 
J2VwaWtfcHl0aG9uJywgJy1waHQnLCAnMi4wJywgJy1waCcsICc3LjAnLCAnLXRuJywgJzgnLCAnLW1hJywgJzIwMCcsICctaW1hZScsICc8aW5maWxlLm1hZT4nLCAnLW9tYWUnLCAnPG91dGZpbGUubWFlPic=

>  <r_epik_Ionization_Penalty>  (97) 
0.514152

>  <r_epik_Ionization_Penalty_Charging>  (97) 
0

>  <r_epik_Ionization_Penalty_Neutral>  (97) 
0.514152

>  <r_epik_State_Penalty>  (97) 
0.521639

>  <r_epik_Charging_Adjusted_Penalty>  (97) 
0.521639

>  <i_epik_Tot_Q>  (97) 
1

>  <i_epik_Tot_abs_Q>  (97) 
1

>  <s_lp_Force_Field>  (97) 
OPLS3e

>  <r_lp_Energy>  (97) 
11.4494

>  <b_lp_Chiralities_Consistent>  (97) 
1

>  <s_lp_Variant>  (97) 
55:0-2

>  <s_i_glide_gridfile>  (97) 
pfpi4k_grid

>  <i_i_glide_lignum>  (97) 
38

>  <i_i_glide_rotatable_bonds>  (97) 
3

>  <r_i_docking_score>  (97) 
-3.94859

>  <r_i_glide_ligand_efficiency>  (97) 
-0.23227

>  <r_i_glide_ligand_efficiency_sa>  (97) 
-0.597231

>  <r_i_glide_ligand_efficiency_ln>  (97) 
-1.0301

>  <r_i_glide_gscore>  (97) 
-3.94859

>  <r_i_glide_lipo>  (97) 
-0.588209

>  <r_i_glide_hbond>  (97) 
-0.2

>  <r_i_glide_metal>  (97) 
-0

>  <r_i_glide_rewards>  (97) 
-1.99516

>  <r_i_glide_evdw>  (97) 
-18.6311

>  <r_i_glide_ecoul>  (97) 
-7.46694

>  <r_i_glide_erotb>  (97) 
0.995395

>  <r_i_glide_esite>  (97) 
-0.109018

>  <r_i_glide_emodel>  (97) 
-32.9017

>  <r_i_glide_energy>  (97) 
-26.0981

>  <r_i_glide_einternal>  (97) 
5.64425

>  <r_i_glide_intrahb_reward>  (97) 
-0

>  <i_i_glide_confnum>  (97) 
5

>  <i_i_glide_posenum>  (97) 
39

>  <r_i_glide_eff_state_penalty>  (97) 
0

>  <ligand_id>  (97) 
55

>  <original_smiles>  (97) 
Cc1ccc2nc(CCn3cccc3)cn2c1

>  <smiles>  (97) 
[H]c1c(C([H])([H])[H])c([H])n2c([H])c(C([H])([H])C([H])([H])n3c([H])c([H])c([H])c3[H])[n+]([H])c2c1[H]

$$$$
55:1:1
     RDKit          3D

 33 35  0  0  1  0  0  0  0  0999 V2000
    0.2837   -9.3637    6.6456 C   0  0  0  0  0  0  0  0  0  0  0  0
    1.1865   -9.7289    5.4803 C   0  0  0  0  0  0  0  0  0  0  0  0
    0.6144  -10.2015    4.2642 C   0  0  0  0  0  0  0  0  0  0  0  0
    1.4177  -10.5546    3.1982 C   0  0  0  0  0  0  0  0  0  0  0  0
    2.7750  -10.4031    3.3679 C   0  0  0  0  0  0  0  0  0  0  0  0
    3.7520  -10.6550    2.5041 N   0  0  0  0  0  0  0  0  0  0  0  0
    4.9710  -10.3240    3.1090 C   0  0  0  0  0  0  0  0  0  0  0  0
    6.3205  -10.4425    2.4742 C   0  0  0  0  0  0  0  0  0  0  0  0
    6.4703   -9.5592    1.2268 C   0  0  0  0  0  0  0  0  0  0  0  0
    6.4982   -8.1509    1.5443 N   0  0  0  0  0  0  0  0  0  0  0  0
    5.3981   -7.3137    1.5847 C   0  0  0  0  0  0  0  0  0  0  0  0
    5.8345   -6.0623    1.9053 C   0  0  0  0  0  0  0  0  0  0  0  0
    7.2509   -6.1200    2.0546 C   0  0  0  0  0  0  0  0  0  0  0  0
    7.6316   -7.4061    1.8191 C   0  0  0  0  0  0  0  0  0  0  0  0
    4.6984   -9.8884    4.3972 C   0  0  0  0  0  0  0  0  0  0  0  0
    3.3271   -9.9555    4.4752 N   0  0  0  0  0  0  0  0  0  0  0  0
    2.5644   -9.6118    5.5772 C   0  0  0  0  0  0  0  0  0  0  0  0
   -0.6408   -9.9347    6.6084 H   0  0  0  0  0  0  0  0  0  0  0  0
    0.0056   -8.3136    6.6069 H   0  0  0  0  0  0  0  0  0  0  0  0
    0.7566   -9.5656    7.6054 H   0  0  0  0  0  0  0  0  0  0  0  0
   -0.4611  -10.2765    4.1540 H   0  0  0  0  0  0  0  0  0  0  0  0
    1.0246  -10.9209    2.2578 H   0  0  0  0  0  0  0  0  0  0  0  0
    7.1245  -10.2456    3.1835 H   0  0  0  0  0  0  0  0  0  0  0  0
    6.4582  -11.4748    2.1624 H   0  0  0  0  0  0  0  0  0  0  0  0
    7.3852   -9.7939    0.6910 H   0  0  0  0  0  0  0  0  0  0  0  0
    5.6627   -9.7530    0.5227 H   0  0  0  0  0  0  0  0  0  0  0  0
    4.4035   -7.6869    1.3890 H   0  0  0  0  0  0  0  0  0  0  0  0
    5.1973   -5.1993    2.0168 H   0  0  0  0  0  0  0  0  0  0  0  0
    7.9277   -5.3145    2.3041 H   0  0  0  0  0  0  0  0  0  0  0  0
    8.6120   -7.8550    1.8293 H   0  0  0  0  0  0  0  0  0  0  0  0
    5.3355   -9.5609    5.2064 H   0  0  0  0  0  0  0  0  0  0  0  0
    3.1045   -9.2646    6.4544 H   0  0  0  0  0  0  0  0  0  0  0  0
    3.6532  -11.1130    1.5774 H   0  0  0  0  0  0  0  0  0  0  0  0
  1  2  1  0
  1 18  1  0
  1 19  1  0
  1 20  1  0
  2 17  2  0
  2  3  1  0
  3  4  2  0
  3 21  1  0
  4  5  1  0
  4 22  1  0
  5 16  1  0
  5  6  2  0
  6  7  1  0
  6 33  1  0
  7  8  1  0
  7 15  2  0
  8  9  1  0
  8 23  1  0
  8 24  1  0
  9 10  1  0
  9 25  1  0
  9 26  1  0
 10 14  1  0
 10 11  1  0
 11 12  2  0
 11 27  1  0
 12 13  1  0
 12 28  1  0
 13 14  2  0
 13 29  1  0
 14 30  1  0
 15 16  1  0
 15 31  1  0
 16 17  1  0
 17 32  1  0
M  CHG  1   6   1
M  END
>  <i_m_ct_stereo_status>  (98) 
1

>  <s_m_source_file>  (98) 
/var/tmp/pbs.5076253.sched01/tmp9xbr3gte/40_qt8sgg8.sdf

>  <i_m_source_file_index>  (98) 
38

>  <i_lp_mmshare_version>  (98) 
48012

>  <i_f3d_flags>  (98) 
0

>  <s_epik_input>  (98) 
W2NIXTFbY0hdYyhbQ0gzXSlbY0hdbihjMTIpW2NIXWMobjIpW0NIMl1bQ0gyXW4zW2NIXVtjSF1bY0hdW2NIXTM=

>  <s_epik_cmdline>  (98) 
J2VwaWtfcHl0aG9uJywgJy1waHQnLCAnMi4wJywgJy1waCcsICc3LjAnLCAnLXRuJywgJzgnLCAnLW1hJywgJzIwMCcsICctaW1hZScsICc8aW5maWxlLm1hZT4nLCAnLW9tYWUnLCAnPG91dGZpbGUubWFlPic=

>  <r_epik_Ionization_Penalty>  (98) 
0.514152

>  <r_epik_Ionization_Penalty_Charging>  (98) 
0

>  <r_epik_Ionization_Penalty_Neutral>  (98) 
0.514152

>  <r_epik_State_Penalty>  (98) 
0.521639

>  <r_epik_Charging_Adjusted_Penalty>  (98) 
0.521639

>  <i_epik_Tot_Q>  (98) 
1

>  <i_epik_Tot_abs_Q>  (98) 
1

>  <s_lp_Force_Field>  (98) 
OPLS3e

>  <r_lp_Energy>  (98) 
11.4494

>  <b_lp_Chiralities_Consistent>  (98) 
1

>  <s_lp_Variant>  (98) 
55:0-2

>  <s_i_glide_gridfile>  (98) 
pfpi4k_grid

>  <i_i_glide_lignum>  (98) 
38

>  <i_i_glide_rotatable_bonds>  (98) 
3

>  <r_i_docking_score>  (98) 
-3.38034

>  <r_i_glide_ligand_efficiency>  (98) 
-0.198844

>  <r_i_glide_ligand_efficiency_sa>  (98) 
-0.511283

>  <r_i_glide_ligand_efficiency_ln>  (98) 
-0.881856

>  <r_i_glide_gscore>  (98) 
-3.38034

>  <r_i_glide_lipo>  (98) 
-0.299704

>  <r_i_glide_hbond>  (98) 
-0.2

>  <r_i_glide_metal>  (98) 
-0

>  <r_i_glide_rewards>  (98) 
-2.04129

>  <r_i_glide_evdw>  (98) 
-16.1493

>  <r_i_glide_ecoul>  (98) 
-6.11663

>  <r_i_glide_erotb>  (98) 
0.995395

>  <r_i_glide_esite>  (98) 
-0.109783

>  <r_i_glide_emodel>  (98) 
-29.9366

>  <r_i_glide_energy>  (98) 
-22.266

>  <r_i_glide_einternal>  (98) 
1.28449

>  <r_i_glide_intrahb_reward>  (98) 
-0

>  <i_i_glide_confnum>  (98) 
5

>  <i_i_glide_posenum>  (98) 
1

>  <r_i_glide_eff_state_penalty>  (98) 
0

>  <ligand_id>  (98) 
55

>  <original_smiles>  (98) 
Cc1ccc2nc(CCn3cccc3)cn2c1

>  <smiles>  (98) 
[H]c1c(C([H])([H])[H])c([H])n2c([H])c(C([H])([H])C([H])([H])n3c([H])c([H])c([H])c3[H])[n+]([H])c2c1[H]

$$$$
55:1:2
     RDKit          3D

 33 35  0  0  1  0  0  0  0  0999 V2000
   -0.2224    2.8913    3.2681 C   0  0  0  0  0  0  0  0  0  0  0  0
    0.5112    1.5933    2.9908 C   0  0  0  0  0  0  0  0  0  0  0  0
   -0.0034    0.3725    3.5136 C   0  0  0  0  0  0  0  0  0  0  0  0
    0.6552   -0.8196    3.2803 C   0  0  0  0  0  0  0  0  0  0  0  0
    1.8020   -0.7512    2.5192 C   0  0  0  0  0  0  0  0  0  0  0  0
    2.6043   -1.7461    2.1564 N   0  0  0  0  0  0  0  0  0  0  0  0
    3.6533   -1.2276    1.3858 C   0  0  0  0  0  0  0  0  0  0  0  0
    4.7568   -2.0218    0.7415 C   0  0  0  0  0  0  0  0  0  0  0  0
    5.9221   -2.3864    1.6811 C   0  0  0  0  0  0  0  0  0  0  0  0
    6.9219   -3.2146    1.0231 N   0  0  0  0  0  0  0  0  0  0  0  0
    7.8170   -2.7810    0.0599 C   0  0  0  0  0  0  0  0  0  0  0  0
    8.6029   -3.8335   -0.3090 C   0  0  0  0  0  0  0  0  0  0  0  0
    8.2105   -4.9553    0.4786 C   0  0  0  0  0  0  0  0  0  0  0  0
    7.1790   -4.5540    1.2798 C   0  0  0  0  0  0  0  0  0  0  0  0
    3.4578    0.1426    1.3040 C   0  0  0  0  0  0  0  0  0  0  0  0
    2.2975    0.3579    2.0213 N   0  0  0  0  0  0  0  0  0  0  0  0
    1.6704    1.5742    2.2329 C   0  0  0  0  0  0  0  0  0  0  0  0
   -0.7771    2.8370    4.2028 H   0  0  0  0  0  0  0  0  0  0  0  0
   -0.9429    3.0998    2.4795 H   0  0  0  0  0  0  0  0  0  0  0  0
    0.4636    3.7352    3.3287 H   0  0  0  0  0  0  0  0  0  0  0  0
   -0.9208    0.3766    4.0935 H   0  0  0  0  0  0  0  0  0  0  0  0
    0.3107   -1.7816    3.6481 H   0  0  0  0  0  0  0  0  0  0  0  0
    4.3399   -2.9594    0.3756 H   0  0  0  0  0  0  0  0  0  0  0  0
    5.1410   -1.5097   -0.1408 H   0  0  0  0  0  0  0  0  0  0  0  0
    6.4123   -1.4875    2.0507 H   0  0  0  0  0  0  0  0  0  0  0  0
    5.5553   -2.9229    2.5542 H   0  0  0  0  0  0  0  0  0  0  0  0
    7.8164   -1.7576   -0.2765 H   0  0  0  0  0  0  0  0  0  0  0  0
    9.3692   -3.7893   -1.0737 H   0  0  0  0  0  0  0  0  0  0  0  0
    8.6173   -5.9584    0.4443 H   0  0  0  0  0  0  0  0  0  0  0  0
    6.6167   -5.1140    2.0135 H   0  0  0  0  0  0  0  0  0  0  0  0
    4.0202    0.9273    0.8115 H   0  0  0  0  0  0  0  0  0  0  0  0
    2.1279    2.4497    1.7771 H   0  0  0  0  0  0  0  0  0  0  0  0
    2.4524   -2.7253    2.3931 H   0  0  0  0  0  0  0  0  0  0  0  0
  1  2  1  0
  1 18  1  0
  1 19  1  0
  1 20  1  0
  2 17  2  0
  2  3  1  0
  3  4  2  0
  3 21  1  0
  4  5  1  0
  4 22  1  0
  5 16  1  0
  5  6  2  0
  6  7  1  0
  6 33  1  0
  7  8  1  0
  7 15  2  0
  8  9  1  0
  8 23  1  0
  8 24  1  0
  9 10  1  0
  9 25  1  0
  9 26  1  0
 10 14  1  0
 10 11  1  0
 11 12  2  0
 11 27  1  0
 12 13  1  0
 12 28  1  0
 13 14  2  0
 13 29  1  0
 14 30  1  0
 15 16  1  0
 15 31  1  0
 16 17  1  0
 17 32  1  0
M  CHG  1   6   1
M  END
>  <i_m_ct_stereo_status>  (99) 
1

>  <s_m_source_file>  (99) 
/var/tmp/pbs.5076253.sched01/tmp9xbr3gte/40_qt8sgg8.sdf

>  <i_m_source_file_index>  (99) 
38

>  <i_lp_mmshare_version>  (99) 
48012

>  <i_f3d_flags>  (99) 
0

>  <s_epik_input>  (99) 
W2NIXTFbY0hdYyhbQ0gzXSlbY0hdbihjMTIpW2NIXWMobjIpW0NIMl1bQ0gyXW4zW2NIXVtjSF1bY0hdW2NIXTM=

>  <s_epik_cmdline>  (99) 
J2VwaWtfcHl0aG9uJywgJy1waHQnLCAnMi4wJywgJy1waCcsICc3LjAnLCAnLXRuJywgJzgnLCAnLW1hJywgJzIwMCcsICctaW1hZScsICc8aW5maWxlLm1hZT4nLCAnLW9tYWUnLCAnPG91dGZpbGUubWFlPic=

>  <r_epik_Ionization_Penalty>  (99) 
0.514152

>  <r_epik_Ionization_Penalty_Charging>  (99) 
0

>  <r_epik_Ionization_Penalty_Neutral>  (99) 
0.514152

>  <r_epik_State_Penalty>  (99) 
0.521639

>  <r_epik_Charging_Adjusted_Penalty>  (99) 
0.521639

>  <i_epik_Tot_Q>  (99) 
1

>  <i_epik_Tot_abs_Q>  (99) 
1

>  <s_lp_Force_Field>  (99) 
OPLS3e

>  <r_lp_Energy>  (99) 
11.4494

>  <b_lp_Chiralities_Consistent>  (99) 
1

>  <s_lp_Variant>  (99) 
55:0-2

>  <s_i_glide_gridfile>  (99) 
pfpi4k_grid

>  <i_i_glide_lignum>  (99) 
38

>  <i_i_glide_rotatable_bonds>  (99) 
3

>  <r_i_docking_score>  (99) 
-2.96158

>  <r_i_glide_ligand_efficiency>  (99) 
-0.17421

>  <r_i_glide_ligand_efficiency_sa>  (99) 
-0.447944

>  <r_i_glide_ligand_efficiency_ln>  (99) 
-0.772609

>  <r_i_glide_gscore>  (99) 
-2.96158

>  <r_i_glide_lipo>  (99) 
-0.505107

>  <r_i_glide_hbond>  (99) 
0

>  <r_i_glide_metal>  (99) 
-0

>  <r_i_glide_rewards>  (99) 
-1.95774

>  <r_i_glide_evdw>  (99) 
-20.0087

>  <r_i_glide_ecoul>  (99) 
-2.80386

>  <r_i_glide_erotb>  (99) 
0.995395

>  <r_i_glide_esite>  (99) 
-0.0731074

>  <r_i_glide_emodel>  (99) 
-29.7699

>  <r_i_glide_energy>  (99) 
-22.8126

>  <r_i_glide_einternal>  (99) 
0.531112

>  <r_i_glide_intrahb_reward>  (99) 
-0

>  <i_i_glide_confnum>  (99) 
5

>  <i_i_glide_posenum>  (99) 
8

>  <r_i_glide_eff_state_penalty>  (99) 
0

>  <ligand_id>  (99) 
55

>  <original_smiles>  (99) 
Cc1ccc2nc(CCn3cccc3)cn2c1

>  <smiles>  (99) 
[H]c1c(C([H])([H])[H])c([H])n2c([H])c(C([H])([H])C([H])([H])n3c([H])c([H])c([H])c3[H])[n+]([H])c2c1[H]

$$$$
57:0:0
     RDKit          3D

 59 64  0  0  1  0  0  0  0  0999 V2000
    5.0463   -3.8755    7.2957 C   0  0  0  0  0  0  0  0  0  0  0  0
    4.0207   -3.0735    6.7299 O   0  0  0  0  0  0  0  0  0  0  0  0
    3.9545   -3.1825    5.3454 C   0  0  2  0  0  0  0  0  0  0  0  0
    5.0574   -2.6284    4.7279 O   0  0  0  0  0  0  0  0  0  0  0  0
    4.6564   -2.2717    3.4340 C   0  0  1  0  0  0  0  0  0  0  0  0
    5.2303   -3.0632    2.4808 O   0  0  0  0  0  0  0  0  0  0  0  0
    4.3519   -2.7925    1.5101 C   0  0  1  0  0  0  0  0  0  0  0  0
    3.1297   -3.2542    2.1120 O   0  0  0  0  0  0  0  0  0  0  0  0
    3.1507   -2.4530    3.2735 C   0  0  1  0  0  0  0  0  0  0  0  0
    2.7766   -2.3833    4.7342 C   0  0  1  0  0  0  0  0  0  0  0  0
    1.4823   -2.8551    5.1224 O   0  0  0  0  0  0  0  0  0  0  0  0
    1.1126   -4.1699    4.7528 C   0  0  0  0  0  0  0  0  0  0  0  0
    2.9122   -0.7938    5.0534 C   0  0  2  0  0  0  0  0  0  0  0  0
    2.8180   -0.5073    6.5913 C   0  0  0  0  0  0  0  0  0  0  0  0
    2.0016    0.6470    6.8666 O   0  0  0  0  0  0  0  0  0  0  0  0
    1.4526    1.1092    5.6815 C   0  0  2  0  0  0  0  0  0  0  0  0
    0.0714    1.3442    5.6996 O   0  0  0  0  0  0  0  0  0  0  0  0
   -0.4740    0.7743    4.4976 C   0  0  0  0  0  0  0  0  0  0  0  0
   -1.8071    0.1449    4.9387 C   0  0  0  0  0  0  0  0  0  0  0  0
   -1.6568   -0.9583    5.8049 O   0  0  0  0  0  0  0  0  0  0  0  0
   -0.7386    1.9236    3.4816 C   0  0  0  0  0  0  0  0  0  0  0  0
    0.4440    2.4327    2.8834 O   0  0  0  0  0  0  0  0  0  0  0  0
    0.5535   -0.2357    4.0314 C   0  0  0  0  0  0  0  0  0  0  0  0
    1.6677   -0.0025    4.7185 C   0  0  0  0  0  0  0  0  0  0  0  0
    4.1974   -0.0705    4.3258 C   0  0  0  0  0  0  0  0  0  0  0  0
    3.9306    1.3063    4.0671 O   0  0  0  0  0  0  0  0  0  0  0  0
    5.2945   -0.1052    5.2053 O   0  0  0  0  0  0  0  0  0  0  0  0
    4.8058   -0.8241    3.0429 C   0  0  1  0  0  0  0  0  0  0  0  0
    4.5550   -1.1901    1.4807 C   0  0  0  0  0  0  0  0  0  0  0  0
    5.8742   -0.8552    0.7480 C   0  0  0  0  0  0  0  0  0  0  0  0
    3.4277   -0.5494    0.6039 C   0  0  0  0  0  0  0  0  0  0  0  0
    5.0627   -3.7308    8.3748 H   0  0  0  0  0  0  0  0  0  0  0  0
    6.0290   -3.6041    6.9100 H   0  0  0  0  0  0  0  0  0  0  0  0
    4.8847   -4.9369    7.1042 H   0  0  0  0  0  0  0  0  0  0  0  0
    3.9232   -4.2320    5.0495 H   0  0  0  0  0  0  0  0  0  0  0  0
    4.6106   -3.3122    0.5833 H   0  0  0  0  0  0  0  0  0  0  0  0
    2.5191   -1.6774    2.8555 H   0  0  0  0  0  0  0  0  0  0  0  0
    0.1021   -4.3499    5.1200 H   0  0  0  0  0  0  0  0  0  0  0  0
    1.7512   -4.9330    5.1967 H   0  0  0  0  0  0  0  0  0  0  0  0
    1.0949   -4.2889    3.6713 H   0  0  0  0  0  0  0  0  0  0  0  0
    2.3135   -1.3333    7.0931 H   0  0  0  0  0  0  0  0  0  0  0  0
    3.7773   -0.4105    7.0999 H   0  0  0  0  0  0  0  0  0  0  0  0
    1.9696    2.0037    5.3442 H   0  0  0  0  0  0  0  0  0  0  0  0
   -2.4384    0.8970    5.4147 H   0  0  0  0  0  0  0  0  0  0  0  0
   -2.3399   -0.2303    4.0822 H   0  0  0  0  0  0  0  0  0  0  0  0
   -0.9646   -1.5109    5.4605 H   0  0  0  0  0  0  0  0  0  0  0  0
   -1.3812    1.5654    2.6722 H   0  0  0  0  0  0  0  0  0  0  0  0
   -1.2713    2.7489    3.9621 H   0  0  0  0  0  0  0  0  0  0  0  0
    0.2210    3.0738    2.2173 H   0  0  0  0  0  0  0  0  0  0  0  0
    0.3384   -1.0615    3.3693 H   0  0  0  0  0  0  0  0  0  0  0  0
    4.5463    1.6529    3.4309 H   0  0  0  0  0  0  0  0  0  0  0  0
    5.4806   -1.0250    5.3876 H   0  0  0  0  0  0  0  0  0  0  0  0
    3.9071   -0.3384    2.7178 H   0  0  0  0  0  0  0  0  0  0  0  0
    6.0293    0.2267    0.7175 H   0  0  0  0  0  0  0  0  0  0  0  0
    5.8699   -1.2139   -0.2834 H   0  0  0  0  0  0  0  0  0  0  0  0
    6.7394   -1.2902    1.2583 H   0  0  0  0  0  0  0  0  0  0  0  0
    3.5207    0.5386    0.5763 H   0  0  0  0  0  0  0  0  0  0  0  0
    2.4150   -0.7870    0.9334 H   0  0  0  0  0  0  0  0  0  0  0  0
    3.4940   -0.9137   -0.4240 H   0  0  0  0  0  0  0  0  0  0  0  0
  1  2  1  0
  1 32  1  0
  1 33  1  0
  1 34  1  0
  2  3  1  0
  3 10  1  0
  3  4  1  0
  3 35  1  1
  5  4  1  1
  5  9  1  0
  5 28  1  0
  5  6  1  0
  6  7  1  0
  7 29  1  0
  7  8  1  0
  7 36  1  6
  8  9  1  0
  9 10  1  0
  9 37  1  6
 10 11  1  6
 10 13  1  0
 11 12  1  0
 12 38  1  0
 12 39  1  0
 12 40  1  0
 13 24  1  0
 13 14  1  1
 13 25  1  0
 14 15  1  0
 14 41  1  0
 14 42  1  0
 15 16  1  0
 16 24  1  0
 16 17  1  0
 16 43  1  6
 17 18  1  0
 18 19  1  0
 18 21  1  0
 18 23  1  0
 19 20  1  0
 19 44  1  0
 19 45  1  0
 20 46  1  0
 21 22  1  0
 21 47  1  0
 21 48  1  0
 22 49  1  0
 23 24  2  0
 23 50  1  0
 25 26  1  0
 25 27  1  0
 25 28  1  0
 26 51  1  0
 27 52  1  0
 28 29  1  0
 28 53  1  6
 29 30  1  0
 29 31  1  0
 30 54  1  0
 30 55  1  0
 30 56  1  0
 31 57  1  0
 31 58  1  0
 31 59  1  0
M  END
>  <i_m_ct_stereo_status>  (100) 
1

>  <s_m_source_file>  (100) 
/var/tmp/pbs.5076253.sched01/tmpx6ss0mji/80_l3th0xi.sdf

>  <i_m_source_file_index>  (100) 
1

>  <i_lp_mmshare_version>  (100) 
48012

>  <i_f3d_flags>  (100) 
0

>  <s_epik_input>  (100) 
TzFbQ0BASF0oTzIpQyhbQ0gzXSkoW0NIM10pW0NAQEhdM0MoW09IXSkoW09IXSlbQ0BdNChbQ0BdKFtDSF0yW0NAQF0xMzUpKE9bQ0gzXSlbQ0BASF0oTzUpT1tDSDNdKUM2W0NASF0oT1tDSDJdNClPQyhbQ0hdPTYpKFtDSDJdW09IXSlbQ0gyXVtPSF0=

>  <s_epik_cmdline>  (100) 
J2VwaWtfcHl0aG9uJywgJy1waHQnLCAnMi4wJywgJy1waCcsICc3LjAnLCAnLXRuJywgJzgnLCAnLW1hJywgJzIwMCcsICctaW1hZScsICc8aW5maWxlLm1hZT4nLCAnLW9tYWUnLCAnPG91dGZpbGUubWFlPic=

>  <r_epik_Ionization_Penalty>  (100) 
0.000410092

>  <r_epik_Ionization_Penalty_Charging>  (100) 
0

>  <r_epik_Ionization_Penalty_Neutral>  (100) 
0.000410092

>  <r_epik_State_Penalty>  (100) 
0.000251496

>  <r_epik_Charging_Adjusted_Penalty>  (100) 
0.000251496

>  <i_epik_Tot_Q>  (100) 
0

>  <i_epik_Tot_abs_Q>  (100) 
0

>  <s_epik_Chemistry_Notes>  (100) 
This compound contains an acetal/aminal-like group ( X-CH(R)-Y where X, Y are N, S, or O) that may be acid/base labile, releasing an aldehyde.

>  <s_lp_Force_Field>  (100) 
OPLS3e

>  <r_lp_Energy>  (100) 
143.993

>  <b_lp_Chiralities_Consistent>  (100) 
1

>  <s_lp_Variant>  (100) 
57:0-1

>  <s_i_glide_gridfile>  (100) 
pfpi4k_grid

>  <i_i_glide_lignum>  (100) 
1

>  <i_i_glide_rotatable_bonds>  (100) 
8

>  <r_i_docking_score>  (100) 
-3.28227

>  <r_i_glide_ligand_efficiency>  (100) 
-0.10588

>  <r_i_glide_ligand_efficiency_sa>  (100) 
-0.332609

>  <r_i_glide_ligand_efficiency_ln>  (100) 
-0.740253

>  <r_i_glide_gscore>  (100) 
-3.28227

>  <r_i_glide_lipo>  (100) 
-0.261533

>  <r_i_glide_hbond>  (100) 
0

>  <r_i_glide_metal>  (100) 
-0

>  <r_i_glide_rewards>  (100) 
-0.958402

>  <r_i_glide_evdw>  (100) 
-17.0857

>  <r_i_glide_ecoul>  (100) 
-9.40376

>  <r_i_glide_erotb>  (100) 
0.202512

>  <r_i_glide_esite>  (100) 
0

>  <r_i_glide_emodel>  (100) 
-35.779

>  <r_i_glide_energy>  (100) 
-26.4895

>  <r_i_glide_einternal>  (100) 
4.39053

>  <r_i_glide_intrahb_reward>  (100) 
-0.5

>  <i_i_glide_confnum>  (100) 
1

>  <i_i_glide_posenum>  (100) 
11

>  <r_i_glide_eff_state_penalty>  (100) 
0

>  <ligand_id>  (100) 
57

>  <original_smiles>  (100) 
COC1OC23OC4OC2C1(OC)C1(COC2OC(CO)(CO)C=C21)C(O)(O)C3C4(C)C

>  <smiles>  (100) 
[H]OC([H])([H])C1(C([H])([H])O[H])OC2([H])OC([H])([H])C3(C2=C1[H])C(O[H])(O[H])C1([H])C24OC([H])(OC([H])([H])[H])C3(OC([H])([H])[H])C2([H])OC([H])(O4)C1(C([H])([H])[H])C([H])([H])[H]

$$$$
57:0:1
     RDKit          3D

 59 64  0  0  1  0  0  0  0  0999 V2000
   -1.2372    2.0717   10.6974 C   0  0  0  0  0  0  0  0  0  0  0  0
   -0.6472    2.8640    9.6904 O   0  0  0  0  0  0  0  0  0  0  0  0
   -1.1266    2.5745    8.4296 C   0  0  2  0  0  0  0  0  0  0  0  0
   -0.6321    1.3882    7.9212 O   0  0  0  0  0  0  0  0  0  0  0  0
   -0.6253    1.4856    6.5482 C   0  0  1  0  0  0  0  0  0  0  0  0
   -1.5180    0.6089    5.9820 O   0  0  0  0  0  0  0  0  0  0  0  0
   -1.6145    1.2226    4.8048 C   0  0  1  0  0  0  0  0  0  0  0  0
   -2.1144    2.5094    5.2223 O   0  0  0  0  0  0  0  0  0  0  0  0
   -1.0837    2.8677    6.1305 C   0  0  1  0  0  0  0  0  0  0  0  0
   -0.7074    3.6393    7.4075 C   0  0  1  0  0  0  0  0  0  0  0  0
   -1.4231    4.8908    7.5399 O   0  0  0  0  0  0  0  0  0  0  0  0
   -1.8810    5.3646    8.8129 C   0  0  0  0  0  0  0  0  0  0  0  0
    0.9045    3.7846    7.2318 C   0  0  2  0  0  0  0  0  0  0  0  0
    1.5705    4.3303    8.5442 C   0  0  0  0  0  0  0  0  0  0  0  0
    2.6045    5.2916    8.2411 O   0  0  0  0  0  0  0  0  0  0  0  0
    2.5887    5.5748    6.8830 C   0  0  2  0  0  0  0  0  0  0  0  0
    2.5136    6.9293    6.5137 O   0  0  0  0  0  0  0  0  0  0  0  0
    1.6075    7.0444    5.4040 C   0  0  0  0  0  0  0  0  0  0  0  0
    0.8729    8.3701    5.6655 C   0  0  0  0  0  0  0  0  0  0  0  0
   -0.3008    8.5243    4.8816 O   0  0  0  0  0  0  0  0  0  0  0  0
    2.4354    7.1094    4.0968 C   0  0  0  0  0  0  0  0  0  0  0  0
    2.9137    5.8432    3.6927 O   0  0  0  0  0  0  0  0  0  0  0  0
    0.7240    5.8079    5.5408 C   0  0  0  0  0  0  0  0  0  0  0  0
    1.3286    4.9771    6.3819 C   0  0  0  0  0  0  0  0  0  0  0  0
    1.6329    2.4389    6.6449 C   0  0  0  0  0  0  0  0  0  0  0  0
    2.8320    2.7163    5.9271 O   0  0  0  0  0  0  0  0  0  0  0  0
    1.9866    1.6197    7.7246 O   0  0  0  0  0  0  0  0  0  0  0  0
    0.6969    1.4130    5.8268 C   0  0  1  0  0  0  0  0  0  0  0  0
   -0.0478    1.1814    4.4127 C   0  0  0  0  0  0  0  0  0  0  0  0
    0.3430   -0.2511    3.9642 C   0  0  0  0  0  0  0  0  0  0  0  0
    0.1575    2.0737    3.1310 C   0  0  0  0  0  0  0  0  0  0  0  0
   -0.8646    2.3914   11.6640 H   0  0  0  0  0  0  0  0  0  0  0  0
   -0.9921    1.0198   10.5753 H   0  0  0  0  0  0  0  0  0  0  0  0
   -2.3193    2.1760   10.7198 H   0  0  0  0  0  0  0  0  0  0  0  0
   -2.2045    2.4686    8.4285 H   0  0  0  0  0  0  0  0  0  0  0  0
   -2.2637    0.6631    4.1452 H   0  0  0  0  0  0  0  0  0  0  0  0
   -0.5503    3.4270    5.3658 H   0  0  0  0  0  0  0  0  0  0  0  0
   -2.3330    6.3508    8.7054 H   0  0  0  0  0  0  0  0  0  0  0  0
   -1.0969    5.4602    9.5452 H   0  0  0  0  0  0  0  0  0  0  0  0
   -2.6679    4.7318    9.2284 H   0  0  0  0  0  0  0  0  0  0  0  0
    0.8711    4.8816    9.1461 H   0  0  0  0  0  0  0  0  0  0  0  0
    1.9674    3.5517    9.2104 H   0  0  0  0  0  0  0  0  0  0  0  0
    3.4555    5.1089    6.4219 H   0  0  0  0  0  0  0  0  0  0  0  0
    0.5738    8.4311    6.7098 H   0  0  0  0  0  0  0  0  0  0  0  0
    1.5376    9.2148    5.4982 H   0  0  0  0  0  0  0  0  0  0  0  0
   -0.0843    8.5540    3.9636 H   0  0  0  0  0  0  0  0  0  0  0  0
    1.8201    7.4919    3.2810 H   0  0  0  0  0  0  0  0  0  0  0  0
    3.2730    7.8052    4.2135 H   0  0  0  0  0  0  0  0  0  0  0  0
    2.1866    5.3638    3.3064 H   0  0  0  0  0  0  0  0  0  0  0  0
   -0.2666    5.7192    5.1212 H   0  0  0  0  0  0  0  0  0  0  0  0
    2.6237    3.0936    5.0760 H   0  0  0  0  0  0  0  0  0  0  0  0
    2.5077    2.1471    8.3228 H   0  0  0  0  0  0  0  0  0  0  0  0
    0.9269    2.2188    5.1674 H   0  0  0  0  0  0  0  0  0  0  0  0
    1.4060   -0.2812    3.6923 H   0  0  0  0  0  0  0  0  0  0  0  0
   -0.2258   -0.5739    3.0891 H   0  0  0  0  0  0  0  0  0  0  0  0
    0.1895   -0.9777    4.7699 H   0  0  0  0  0  0  0  0  0  0  0  0
    1.2056    2.0961    2.8117 H   0  0  0  0  0  0  0  0  0  0  0  0
   -0.1869    3.1047    3.2519 H   0  0  0  0  0  0  0  0  0  0  0  0
   -0.4234    1.6585    2.3024 H   0  0  0  0  0  0  0  0  0  0  0  0
  1  2  1  0
  1 32  1  0
  1 33  1  0
  1 34  1  0
  2  3  1  0
  3 10  1  0
  3  4  1  0
  3 35  1  1
  5  4  1  1
  5  9  1  0
  5 28  1  0
  5  6  1  0
  6  7  1  0
  7 29  1  0
  7  8  1  0
  7 36  1  6
  8  9  1  0
  9 10  1  0
  9 37  1  6
 10 11  1  1
 10 13  1  0
 11 12  1  0
 12 38  1  0
 12 39  1  0
 12 40  1  0
 13 24  1  0
 13 14  1  1
 13 25  1  0
 14 15  1  0
 14 41  1  0
 14 42  1  0
 15 16  1  0
 16 24  1  0
 16 17  1  0
 16 43  1  6
 17 18  1  0
 18 19  1  0
 18 21  1  0
 18 23  1  0
 19 20  1  0
 19 44  1  0
 19 45  1  0
 20 46  1  0
 21 22  1  0
 21 47  1  0
 21 48  1  0
 22 49  1  0
 23 24  2  0
 23 50  1  0
 25 26  1  0
 25 27  1  0
 25 28  1  0
 26 51  1  0
 27 52  1  0
 28 29  1  0
 28 53  1  1
 29 30  1  0
 29 31  1  0
 30 54  1  0
 30 55  1  0
 30 56  1  0
 31 57  1  0
 31 58  1  0
 31 59  1  0
M  END
>  <i_m_ct_stereo_status>  (101) 
1

>  <s_m_source_file>  (101) 
/var/tmp/pbs.5076253.sched01/tmpx6ss0mji/80_l3th0xi.sdf

>  <i_m_source_file_index>  (101) 
1

>  <i_lp_mmshare_version>  (101) 
48012

>  <i_f3d_flags>  (101) 
0

>  <s_epik_input>  (101) 
TzFbQ0BASF0oTzIpQyhbQ0gzXSkoW0NIM10pW0NAQEhdM0MoW09IXSkoW09IXSlbQ0BdNChbQ0BdKFtDSF0yW0NAQF0xMzUpKE9bQ0gzXSlbQ0BASF0oTzUpT1tDSDNdKUM2W0NASF0oT1tDSDJdNClPQyhbQ0hdPTYpKFtDSDJdW09IXSlbQ0gyXVtPSF0=

>  <s_epik_cmdline>  (101) 
J2VwaWtfcHl0aG9uJywgJy1waHQnLCAnMi4wJywgJy1waCcsICc3LjAnLCAnLXRuJywgJzgnLCAnLW1hJywgJzIwMCcsICctaW1hZScsICc8aW5maWxlLm1hZT4nLCAnLW9tYWUnLCAnPG91dGZpbGUubWFlPic=

>  <r_epik_Ionization_Penalty>  (101) 
0.000410092

>  <r_epik_Ionization_Penalty_Charging>  (101) 
0

>  <r_epik_Ionization_Penalty_Neutral>  (101) 
0.000410092

>  <r_epik_State_Penalty>  (101) 
0.000251496

>  <r_epik_Charging_Adjusted_Penalty>  (101) 
0.000251496

>  <i_epik_Tot_Q>  (101) 
0

>  <i_epik_Tot_abs_Q>  (101) 
0

>  <s_epik_Chemistry_Notes>  (101) 
This compound contains an acetal/aminal-like group ( X-CH(R)-Y where X, Y are N, S, or O) that may be acid/base labile, releasing an aldehyde.

>  <s_lp_Force_Field>  (101) 
OPLS3e

>  <r_lp_Energy>  (101) 
143.993

>  <b_lp_Chiralities_Consistent>  (101) 
1

>  <s_lp_Variant>  (101) 
57:0-1

>  <s_i_glide_gridfile>  (101) 
pfpi4k_grid

>  <i_i_glide_lignum>  (101) 
1

>  <i_i_glide_rotatable_bonds>  (101) 
8

>  <r_i_docking_score>  (101) 
-3.25866

>  <r_i_glide_ligand_efficiency>  (101) 
-0.105118

>  <r_i_glide_ligand_efficiency_sa>  (101) 
-0.330216

>  <r_i_glide_ligand_efficiency_ln>  (101) 
-0.734928

>  <r_i_glide_gscore>  (101) 
-3.25866

>  <r_i_glide_lipo>  (101) 
-0.00778506

>  <r_i_glide_hbond>  (101) 
-0.32

>  <r_i_glide_metal>  (101) 
-0

>  <r_i_glide_rewards>  (101) 
-0.378888

>  <r_i_glide_evdw>  (101) 
-15.0865

>  <r_i_glide_ecoul>  (101) 
-12.5887

>  <r_i_glide_erotb>  (101) 
0.141759

>  <r_i_glide_esite>  (101) 
-0.0511247

>  <r_i_glide_emodel>  (101) 
-30.6138

>  <r_i_glide_energy>  (101) 
-27.6751

>  <r_i_glide_einternal>  (101) 
6.38402

>  <r_i_glide_intrahb_reward>  (101) 
-0

>  <i_i_glide_confnum>  (101) 
1

>  <i_i_glide_posenum>  (101) 
27

>  <r_i_glide_eff_state_penalty>  (101) 
0

>  <ligand_id>  (101) 
57

>  <original_smiles>  (101) 
COC1OC23OC4OC2C1(OC)C1(COC2OC(CO)(CO)C=C21)C(O)(O)C3C4(C)C

>  <smiles>  (101) 
[H]OC([H])([H])C1(C([H])([H])O[H])OC2([H])OC([H])([H])C3(C2=C1[H])C(O[H])(O[H])C1([H])C24OC([H])(OC([H])([H])[H])C3(OC([H])([H])[H])C2([H])OC([H])(O4)C1(C([H])([H])[H])C([H])([H])[H]

$$$$
57:0:2
     RDKit          3D

 59 64  0  0  1  0  0  0  0  0999 V2000
    5.2441   -3.7647    7.2964 C   0  0  0  0  0  0  0  0  0  0  0  0
    4.1565   -3.0494    6.7312 O   0  0  0  0  0  0  0  0  0  0  0  0
    4.0945   -3.1708    5.3461 C   0  0  2  0  0  0  0  0  0  0  0  0
    5.1580   -2.5530    4.7214 O   0  0  0  0  0  0  0  0  0  0  0  0
    4.7300   -2.2101    3.4321 C   0  0  1  0  0  0  0  0  0  0  0  0
    5.3597   -2.9530    2.4733 O   0  0  0  0  0  0  0  0  0  0  0  0
    4.4594   -2.7483    1.5069 C   0  0  1  0  0  0  0  0  0  0  0  0
    3.2761   -3.3025    2.1087 O   0  0  0  0  0  0  0  0  0  0  0  0
    3.2429   -2.5032    3.2745 C   0  0  1  0  0  0  0  0  0  0  0  0
    2.8622   -2.4596    4.7320 C   0  0  1  0  0  0  0  0  0  0  0  0
    1.6070   -3.0305    5.1179 O   0  0  0  0  0  0  0  0  0  0  0  0
    1.3434   -4.3693    4.7480 C   0  0  0  0  0  0  0  0  0  0  0  0
    2.8736   -0.8611    5.0497 C   0  0  2  0  0  0  0  0  0  0  0  0
    2.7530   -0.5902    6.5880 C   0  0  0  0  0  0  0  0  0  0  0  0
    1.8618    0.5079    6.8584 O   0  0  0  0  0  0  0  0  0  0  0  0
    1.2634    0.9189    5.6767 C   0  0  2  0  0  0  0  0  0  0  0  0
   -0.1353    1.0274    5.6998 O   0  0  0  0  0  0  0  0  0  0  0  0
   -0.6364    0.4213    4.4946 C   0  0  0  0  0  0  0  0  0  0  0  0
   -1.9221   -0.3103    4.9352 C   0  0  0  0  0  0  0  0  0  0  0  0
   -1.6712   -1.4851    5.6782 O   0  0  0  0  0  0  0  0  0  0  0  0
   -0.9867    1.5516    3.4807 C   0  0  0  0  0  0  0  0  0  0  0  0
    0.1625    2.1263    2.8806 O   0  0  0  0  0  0  0  0  0  0  0  0
    0.4751   -0.4961    4.0272 C   0  0  0  0  0  0  0  0  0  0  0  0
    1.5690   -0.1734    4.7120 C   0  0  0  0  0  0  0  0  0  0  0  0
    4.0998   -0.0311    4.3210 C   0  0  0  0  0  0  0  0  0  0  0  0
    3.7314    1.3159    4.0294 O   0  0  0  0  0  0  0  0  0  0  0  0
    5.2027    0.0428    5.1943 O   0  0  0  0  0  0  0  0  0  0  0  0
    4.7651   -0.7512    3.0461 C   0  0  1  0  0  0  0  0  0  0  0  0
    4.5419   -1.1333    1.4826 C   0  0  0  0  0  0  0  0  0  0  0  0
    5.8245   -0.6928    0.7471 C   0  0  0  0  0  0  0  0  0  0  0  0
    3.3670   -0.5852    0.6056 C   0  0  0  0  0  0  0  0  0  0  0  0
    5.2519   -3.6176    8.3759 H   0  0  0  0  0  0  0  0  0  0  0  0
    6.2007   -3.4152    6.9074 H   0  0  0  0  0  0  0  0  0  0  0  0
    5.1675   -4.8360    7.1064 H   0  0  0  0  0  0  0  0  0  0  0  0
    4.1379   -4.2224    5.0574 H   0  0  0  0  0  0  0  0  0  0  0  0
    4.7576   -3.2434    0.5788 H   0  0  0  0  0  0  0  0  0  0  0  0
    2.5531   -1.7777    2.8578 H   0  0  0  0  0  0  0  0  0  0  0  0
    0.3516   -4.6305    5.1190 H   0  0  0  0  0  0  0  0  0  0  0  0
    2.0417   -5.0811    5.1867 H   0  0  0  0  0  0  0  0  0  0  0  0
    1.3306   -4.4871    3.6665 H   0  0  0  0  0  0  0  0  0  0  0  0
    2.3090   -1.4495    7.0886 H   0  0  0  0  0  0  0  0  0  0  0  0
    3.7007   -0.4254    7.1009 H   0  0  0  0  0  0  0  0  0  0  0  0
    1.7049    1.8502    5.3324 H   0  0  0  0  0  0  0  0  0  0  0  0
   -2.5598    0.3548    5.5171 H   0  0  0  0  0  0  0  0  0  0  0  0
   -2.5097   -0.6231    4.0820 H   0  0  0  0  0  0  0  0  0  0  0  0
   -0.9691   -1.9514    5.2487 H   0  0  0  0  0  0  0  0  0  0  0  0
   -1.6015    1.1481    2.6728 H   0  0  0  0  0  0  0  0  0  0  0  0
   -1.5806    2.3350    3.9612 H   0  0  0  0  0  0  0  0  0  0  0  0
   -0.0884    2.7701    2.2240 H   0  0  0  0  0  0  0  0  0  0  0  0
    0.3313   -1.3377    3.3643 H   0  0  0  0  0  0  0  0  0  0  0  0
    4.3562    1.6974    3.4243 H   0  0  0  0  0  0  0  0  0  0  0  0
    4.9000    0.3930    6.0166 H   0  0  0  0  0  0  0  0  0  0  0  0
    3.8313   -0.3420    2.7139 H   0  0  0  0  0  0  0  0  0  0  0  0
    5.8872    0.3988    0.7180 H   0  0  0  0  0  0  0  0  0  0  0  0
    5.8458   -1.0497   -0.2861 H   0  0  0  0  0  0  0  0  0  0  0  0
    6.7235   -1.0595    1.2544 H   0  0  0  0  0  0  0  0  0  0  0  0
    3.3738    0.5057    0.5805 H   0  0  0  0  0  0  0  0  0  0  0  0
    2.3775   -0.9026    0.9355 H   0  0  0  0  0  0  0  0  0  0  0  0
    3.4611   -0.9433   -0.4226 H   0  0  0  0  0  0  0  0  0  0  0  0
  1  2  1  0
  1 32  1  0
  1 33  1  0
  1 34  1  0
  2  3  1  0
  3 10  1  0
  3  4  1  0
  3 35  1  1
  5  4  1  1
  5  9  1  0
  5 28  1  0
  5  6  1  0
  6  7  1  0
  7 29  1  0
  7  8  1  0
  7 36  1  6
  8  9  1  0
  9 10  1  0
  9 37  1  6
 10 11  1  6
 10 13  1  0
 11 12  1  0
 12 38  1  0
 12 39  1  0
 12 40  1  0
 13 24  1  0
 13 14  1  1
 13 25  1  0
 14 15  1  0
 14 41  1  0
 14 42  1  0
 15 16  1  0
 16 24  1  0
 16 17  1  0
 16 43  1  6
 17 18  1  0
 18 19  1  0
 18 21  1  0
 18 23  1  0
 19 20  1  0
 19 44  1  0
 19 45  1  0
 20 46  1  0
 21 22  1  0
 21 47  1  0
 21 48  1  0
 22 49  1  0
 23 24  2  0
 23 50  1  0
 25 26  1  0
 25 27  1  0
 25 28  1  0
 26 51  1  0
 27 52  1  0
 28 29  1  0
 28 53  1  6
 29 30  1  0
 29 31  1  0
 30 54  1  0
 30 55  1  0
 30 56  1  0
 31 57  1  0
 31 58  1  0
 31 59  1  0
M  END
>  <i_m_ct_stereo_status>  (102) 
1

>  <s_m_source_file>  (102) 
/var/tmp/pbs.5076253.sched01/tmpx6ss0mji/80_l3th0xi.sdf

>  <i_m_source_file_index>  (102) 
1

>  <i_lp_mmshare_version>  (102) 
48012

>  <i_f3d_flags>  (102) 
0

>  <s_epik_input>  (102) 
TzFbQ0BASF0oTzIpQyhbQ0gzXSkoW0NIM10pW0NAQEhdM0MoW09IXSkoW09IXSlbQ0BdNChbQ0BdKFtDSF0yW0NAQF0xMzUpKE9bQ0gzXSlbQ0BASF0oTzUpT1tDSDNdKUM2W0NASF0oT1tDSDJdNClPQyhbQ0hdPTYpKFtDSDJdW09IXSlbQ0gyXVtPSF0=

>  <s_epik_cmdline>  (102) 
J2VwaWtfcHl0aG9uJywgJy1waHQnLCAnMi4wJywgJy1waCcsICc3LjAnLCAnLXRuJywgJzgnLCAnLW1hJywgJzIwMCcsICctaW1hZScsICc8aW5maWxlLm1hZT4nLCAnLW9tYWUnLCAnPG91dGZpbGUubWFlPic=

>  <r_epik_Ionization_Penalty>  (102) 
0.000410092

>  <r_epik_Ionization_Penalty_Charging>  (102) 
0

>  <r_epik_Ionization_Penalty_Neutral>  (102) 
0.000410092

>  <r_epik_State_Penalty>  (102) 
0.000251496

>  <r_epik_Charging_Adjusted_Penalty>  (102) 
0.000251496

>  <i_epik_Tot_Q>  (102) 
0

>  <i_epik_Tot_abs_Q>  (102) 
0

>  <s_epik_Chemistry_Notes>  (102) 
This compound contains an acetal/aminal-like group ( X-CH(R)-Y where X, Y are N, S, or O) that may be acid/base labile, releasing an aldehyde.

>  <s_lp_Force_Field>  (102) 
OPLS3e

>  <r_lp_Energy>  (102) 
143.993

>  <b_lp_Chiralities_Consistent>  (102) 
1

>  <s_lp_Variant>  (102) 
57:0-1

>  <s_i_glide_gridfile>  (102) 
pfpi4k_grid

>  <i_i_glide_lignum>  (102) 
1

>  <i_i_glide_rotatable_bonds>  (102) 
8

>  <r_i_docking_score>  (102) 
-2.71354

>  <r_i_glide_ligand_efficiency>  (102) 
-0.0875335

>  <r_i_glide_ligand_efficiency_sa>  (102) 
-0.274976

>  <r_i_glide_ligand_efficiency_ln>  (102) 
-0.611986

>  <r_i_glide_gscore>  (102) 
-2.71354

>  <r_i_glide_lipo>  (102) 
-0.260751

>  <r_i_glide_hbond>  (102) 
0

>  <r_i_glide_metal>  (102) 
-0

>  <r_i_glide_rewards>  (102) 
-0.461755

>  <r_i_glide_evdw>  (102) 
-19.0568

>  <r_i_glide_ecoul>  (102) 
-8.27138

>  <r_i_glide_erotb>  (102) 
0.202512

>  <r_i_glide_esite>  (102) 
0

>  <r_i_glide_emodel>  (102) 
-30.7086

>  <r_i_glide_energy>  (102) 
-27.3282

>  <r_i_glide_einternal>  (102) 
3.70692

>  <r_i_glide_intrahb_reward>  (102) 
-0

>  <i_i_glide_confnum>  (102) 
1

>  <i_i_glide_posenum>  (102) 
23

>  <r_i_glide_eff_state_penalty>  (102) 
0

>  <ligand_id>  (102) 
57

>  <original_smiles>  (102) 
COC1OC23OC4OC2C1(OC)C1(COC2OC(CO)(CO)C=C21)C(O)(O)C3C4(C)C

>  <smiles>  (102) 
[H]OC([H])([H])C1(C([H])([H])O[H])OC2([H])OC([H])([H])C3(C2=C1[H])C(O[H])(O[H])C1([H])C24OC([H])(OC([H])([H])[H])C3(OC([H])([H])[H])C2([H])OC([H])(O4)C1(C([H])([H])[H])C([H])([H])[H]

$$$$
58:0:0
     RDKit          3D

 46 50  0  0  1  0  0  0  0  0999 V2000
    3.8329   -1.1810   -3.7466 C   0  0  0  0  0  0  0  0  0  0  0  0
    4.0955   -2.0519   -2.5321 C   0  0  0  0  0  0  0  0  0  0  0  0
    3.4365   -2.0169   -1.3724 C   0  0  0  0  0  0  0  0  0  0  0  0
    3.7362   -3.1891   -0.4633 C   0  0  1  0  0  0  0  0  0  0  0  0
    5.0328   -3.7767   -1.1482 C   0  0  2  0  0  0  0  0  0  0  0  0
    5.0111   -5.1767   -1.1088 O   0  0  0  0  0  0  0  0  0  0  0  0
    6.1522   -3.2986   -0.2220 C   0  0  0  0  0  0  0  0  0  0  0  0
    5.6397   -2.9057    0.9353 C   0  0  0  0  0  0  0  0  0  0  0  0
    6.2053   -2.3011    2.0264 O   0  0  0  0  0  0  0  0  0  0  0  0
    5.1531   -1.7064    2.8167 C   0  0  2  0  0  0  0  0  0  0  0  0
    5.6069   -0.2645    3.0958 C   0  0  0  0  0  0  0  0  0  0  0  0
    4.9413   -2.4379    4.1922 C   0  0  0  0  0  0  0  0  0  0  0  0
    4.7330   -3.9717    4.2202 C   0  0  1  0  0  0  0  0  0  0  0  0
    4.9868   -4.5490    5.6220 C   0  0  0  0  0  0  0  0  0  0  0  0
    3.3914   -4.3714    3.9493 O   0  0  0  0  0  0  0  0  0  0  0  0
    2.9239   -4.3032    2.6439 C   0  0  1  0  0  0  0  0  0  0  0  0
    1.9997   -3.0979    2.5139 C   0  0  0  0  0  0  0  0  0  0  0  0
    2.7486   -1.9343    2.7663 O   0  0  0  0  0  0  0  0  0  0  0  0
    3.8513   -1.7640    1.9254 C   0  0  1  0  0  0  0  0  0  0  0  0
    3.6765   -0.5866    1.1612 O   0  0  0  0  0  0  0  0  0  0  0  0
    4.1845   -3.0060    1.0330 C   0  0  1  0  0  0  0  0  0  0  0  0
    3.9082   -4.2577    1.6682 O   0  0  0  0  0  0  0  0  0  0  0  0
    5.0788   -3.1909   -2.6002 C   0  0  1  0  0  0  0  0  0  0  0  0
    4.6207   -4.1039   -3.5895 O   0  0  0  0  0  0  0  0  0  0  0  0
    4.7417   -0.6714   -4.0413 H   0  0  0  0  0  0  0  0  0  0  0  0
    3.0627   -0.4330   -3.5628 H   0  0  0  0  0  0  0  0  0  0  0  0
    3.5091   -1.7815   -4.6000 H   0  0  0  0  0  0  0  0  0  0  0  0
    2.6624   -1.3033   -1.1693 H   0  0  0  0  0  0  0  0  0  0  0  0
    2.8894   -3.8850   -0.5427 H   0  0  0  0  0  0  0  0  0  0  0  0
    4.2795   -5.4927   -1.6109 H   0  0  0  0  0  0  0  0  0  0  0  0
    7.1958   -3.2635   -0.4866 H   0  0  0  0  0  0  0  0  0  0  0  0
    4.8434    0.3271    3.6022 H   0  0  0  0  0  0  0  0  0  0  0  0
    5.8584    0.2069    2.1534 H   0  0  0  0  0  0  0  0  0  0  0  0
    6.5110   -0.2377    3.7051 H   0  0  0  0  0  0  0  0  0  0  0  0
    5.8187   -2.2644    4.7989 H   0  0  0  0  0  0  0  0  0  0  0  0
    4.1653   -1.9410    4.7795 H   0  0  0  0  0  0  0  0  0  0  0  0
    5.4280   -4.4653    3.5427 H   0  0  0  0  0  0  0  0  0  0  0  0
    6.0075   -4.3682    5.9580 H   0  0  0  0  0  0  0  0  0  0  0  0
    4.8301   -5.6297    5.6281 H   0  0  0  0  0  0  0  0  0  0  0  0
    4.3069   -4.1237    6.3639 H   0  0  0  0  0  0  0  0  0  0  0  0
    2.3818   -5.2331    2.4766 H   0  0  0  0  0  0  0  0  0  0  0  0
    1.6302   -3.0552    1.4954 H   0  0  0  0  0  0  0  0  0  0  0  0
    1.1607   -3.2131    3.1950 H   0  0  0  0  0  0  0  0  0  0  0  0
    2.9222   -0.6988    0.6018 H   0  0  0  0  0  0  0  0  0  0  0  0
    6.0614   -2.8209   -2.8912 H   0  0  0  0  0  0  0  0  0  0  0  0
    3.9973   -4.7051   -3.1943 H   0  0  0  0  0  0  0  0  0  0  0  0
  1  2  1  0
  1 25  1  0
  1 26  1  0
  1 27  1  0
  2 23  1  0
  2  3  2  0
  3  4  1  0
  3 28  1  0
  4 21  1  0
  4  5  1  0
  4 29  1  1
  5  6  1  6
  5  7  1  0
  5 23  1  0
  6 30  1  0
  7  8  2  0
  7 31  1  0
  8 21  1  0
  8  9  1  0
  9 10  1  0
 10 19  1  0
 10 11  1  1
 10 12  1  0
 11 32  1  0
 11 33  1  0
 11 34  1  0
 12 13  1  0
 12 35  1  0
 12 36  1  0
 13 14  1  0
 13 15  1  0
 13 37  1  6
 14 38  1  0
 14 39  1  0
 14 40  1  0
 15 16  1  0
 16 22  1  0
 16 17  1  0
 16 41  1  6
 17 18  1  0
 17 42  1  0
 17 43  1  0
 18 19  1  0
 19 20  1  6
 19 21  1  0
 20 44  1  0
 21 22  1  1
 23 24  1  0
 23 45  1  6
 24 46  1  0
M  END
>  <i_m_ct_stereo_status>  (103) 
1

>  <s_m_source_file>  (103) 
/var/tmp/pbs.5076253.sched01/tmpx6ss0mji/80_l3th0xi.sdf

>  <i_m_source_file_index>  (103) 
2

>  <i_lp_mmshare_version>  (103) 
48012

>  <i_f3d_flags>  (103) 
0

>  <s_epik_input>  (103) 
W0NIM11DKD1bQ0hdMSlbQ0BIXShbT0hdKVtDQEBdKFtDQEhdMVtDQEBdMjM0KShbT0hdKVtDSF09QzJPW0NAQF01KFtDSDNdKVtDQF0zKFtPSF0pT1tDSDJdW0NAQEhdKE80KU9bQ0BASF0oW0NIMl01KVtDSDNd

>  <s_epik_cmdline>  (103) 
J2VwaWtfcHl0aG9uJywgJy1waHQnLCAnMi4wJywgJy1waCcsICc3LjAnLCAnLXRuJywgJzgnLCAnLW1hJywgJzIwMCcsICctaW1hZScsICc8aW5maWxlLm1hZT4nLCAnLW9tYWUnLCAnPG91dGZpbGUubWFlPic=

>  <r_epik_Ionization_Penalty>  (103) 
0.00165574

>  <r_epik_Ionization_Penalty_Charging>  (103) 
0

>  <r_epik_Ionization_Penalty_Neutral>  (103) 
0.00165574

>  <r_epik_State_Penalty>  (103) 
0.00100426

>  <r_epik_Charging_Adjusted_Penalty>  (103) 
0.00100426

>  <i_epik_Tot_Q>  (103) 
0

>  <i_epik_Tot_abs_Q>  (103) 
0

>  <s_epik_Chemistry_Notes>  (103) 
This compound contains an acetal/aminal-like group ( X-CH(R)-Y where X, Y are N, S, or O) that may be acid/base labile, releasing an aldehyde.

>  <s_lp_Force_Field>  (103) 
OPLS3e

>  <r_lp_Energy>  (103) 
39.9673

>  <b_lp_Chiralities_Consistent>  (103) 
1

>  <s_lp_Variant>  (103) 
58:0-1

>  <s_i_glide_gridfile>  (103) 
pfpi4k_grid

>  <i_i_glide_lignum>  (103) 
2

>  <i_i_glide_rotatable_bonds>  (103) 
3

>  <r_i_docking_score>  (103) 
-4.48848

>  <r_i_glide_ligand_efficiency>  (103) 
-0.18702

>  <r_i_glide_ligand_efficiency_sa>  (103) 
-0.539459

>  <r_i_glide_ligand_efficiency_ln>  (103) 
-1.0743

>  <r_i_glide_gscore>  (103) 
-4.48848

>  <r_i_glide_lipo>  (103) 
-0.851975

>  <r_i_glide_hbond>  (103) 
0

>  <r_i_glide_metal>  (103) 
-0

>  <r_i_glide_rewards>  (103) 
-1.10214

>  <r_i_glide_evdw>  (103) 
-19.3282

>  <r_i_glide_ecoul>  (103) 
-10.411

>  <r_i_glide_erotb>  (103) 
0

>  <r_i_glide_esite>  (103) 
-0.00630128

>  <r_i_glide_emodel>  (103) 
-35.7891

>  <r_i_glide_energy>  (103) 
-29.7392

>  <r_i_glide_einternal>  (103) 
0.575113

>  <r_i_glide_intrahb_reward>  (103) 
-0

>  <i_i_glide_confnum>  (103) 
2

>  <i_i_glide_posenum>  (103) 
1

>  <r_i_glide_eff_state_penalty>  (103) 
0

>  <ligand_id>  (103) 
58

>  <original_smiles>  (103) 
CC1=CC2C(O)(C=C3OC4(C)CC(C)OC5COC4(O)C32O5)C1O

>  <smiles>  (103) 
[H]OC1([H])C(C([H])([H])[H])=C([H])C2([H])C1(O[H])C([H])=C1OC3(C([H])([H])[H])C([H])([H])C([H])(C([H])([H])[H])OC4([H])OC12C3(O[H])OC4([H])[H]

$$$$
58:0:1
     RDKit          3D

 46 50  0  0  1  0  0  0  0  0999 V2000
    3.5531    0.1167   -4.6850 C   0  0  0  0  0  0  0  0  0  0  0  0
    3.5524   -0.9605   -3.6159 C   0  0  0  0  0  0  0  0  0  0  0  0
    3.8913   -0.7996   -2.3286 C   0  0  0  0  0  0  0  0  0  0  0  0
    3.4990   -1.9763   -1.4610 C   0  0  1  0  0  0  0  0  0  0  0  0
    3.2299   -3.0623   -2.5395 C   0  0  2  0  0  0  0  0  0  0  0  0
    2.1208   -3.8437   -2.1375 O   0  0  0  0  0  0  0  0  0  0  0  0
    4.5039   -3.8523   -2.4582 C   0  0  0  0  0  0  0  0  0  0  0  0
    5.1003   -3.6645   -1.2920 C   0  0  0  0  0  0  0  0  0  0  0  0
    6.2269   -4.1652   -0.7560 O   0  0  0  0  0  0  0  0  0  0  0  0
    6.6602   -3.2631    0.2602 C   0  0  2  0  0  0  0  0  0  0  0  0
    8.1236   -2.8469   -0.0546 C   0  0  0  0  0  0  0  0  0  0  0  0
    6.5949   -3.9692    1.6248 C   0  0  0  0  0  0  0  0  0  0  0  0
    5.3075   -4.6647    2.1195 C   0  0  1  0  0  0  0  0  0  0  0  0
    5.6043   -5.6089    3.2999 C   0  0  0  0  0  0  0  0  0  0  0  0
    4.3446   -3.7509    2.6586 O   0  0  0  0  0  0  0  0  0  0  0  0
    3.5924   -2.9684    1.7867 C   0  0  1  0  0  0  0  0  0  0  0  0
    4.0717   -1.5178    1.8753 C   0  0  0  0  0  0  0  0  0  0  0  0
    5.4269   -1.5219    1.4737 O   0  0  0  0  0  0  0  0  0  0  0  0
    5.6736   -2.0392    0.2013 C   0  0  1  0  0  0  0  0  0  0  0  0
    6.1715   -1.0483   -0.6286 O   0  0  0  0  0  0  0  0  0  0  0  0
    4.4485   -2.6896   -0.4499 C   0  0  1  0  0  0  0  0  0  0  0  0
    3.6146   -3.3956    0.4697 O   0  0  0  0  0  0  0  0  0  0  0  0
    3.0973   -2.3728   -3.9208 C   0  0  1  0  0  0  0  0  0  0  0  0
    1.7501   -2.4635   -4.3075 O   0  0  0  0  0  0  0  0  0  0  0  0
    4.1862   -0.2032   -5.4950 H   0  0  0  0  0  0  0  0  0  0  0  0
    3.9190    1.0734   -4.3126 H   0  0  0  0  0  0  0  0  0  0  0  0
    2.5596    0.2929   -5.1092 H   0  0  0  0  0  0  0  0  0  0  0  0
    4.2826    0.1151   -1.9120 H   0  0  0  0  0  0  0  0  0  0  0  0
    2.6212   -1.7326   -0.9039 H   0  0  0  0  0  0  0  0  0  0  0  0
    2.2074   -4.7089   -2.5519 H   0  0  0  0  0  0  0  0  0  0  0  0
    4.8576   -4.5551   -3.1920 H   0  0  0  0  0  0  0  0  0  0  0  0
    8.5044   -2.0818    0.6257 H   0  0  0  0  0  0  0  0  0  0  0  0
    8.2298   -2.4734   -1.0724 H   0  0  0  0  0  0  0  0  0  0  0  0
    8.7991   -3.7034    0.0087 H   0  0  0  0  0  0  0  0  0  0  0  0
    7.3970   -4.7131    1.6602 H   0  0  0  0  0  0  0  0  0  0  0  0
    6.8133   -3.1983    2.3456 H   0  0  0  0  0  0  0  0  0  0  0  0
    4.8885   -5.2689    1.3166 H   0  0  0  0  0  0  0  0  0  0  0  0
    6.3251   -6.3813    3.0268 H   0  0  0  0  0  0  0  0  0  0  0  0
    4.6919   -6.1129    3.6163 H   0  0  0  0  0  0  0  0  0  0  0  0
    5.9983   -5.0773    4.1704 H   0  0  0  0  0  0  0  0  0  0  0  0
    2.5574   -3.0513    2.1178 H   0  0  0  0  0  0  0  0  0  0  0  0
    3.4480   -0.8817    1.2440 H   0  0  0  0  0  0  0  0  0  0  0  0
    3.9669   -1.1761    2.9022 H   0  0  0  0  0  0  0  0  0  0  0  0
    5.4941   -0.3935   -0.6957 H   0  0  0  0  0  0  0  0  0  0  0  0
    3.6768   -2.8110   -4.7333 H   0  0  0  0  0  0  0  0  0  0  0  0
    1.6518   -2.1415   -5.2093 H   0  0  0  0  0  0  0  0  0  0  0  0
  1  2  1  0
  1 25  1  0
  1 26  1  0
  1 27  1  0
  2 23  1  0
  2  3  2  0
  3  4  1  0
  3 28  1  0
  4 21  1  0
  4  5  1  0
  4 29  1  1
  5  6  1  1
  5  7  1  0
  5 23  1  0
  6 30  1  0
  7  8  2  0
  7 31  1  0
  8 21  1  0
  8  9  1  0
  9 10  1  0
 10 19  1  0
 10 11  1  6
 10 12  1  0
 11 32  1  0
 11 33  1  0
 11 34  1  0
 12 13  1  0
 12 35  1  0
 12 36  1  0
 13 14  1  0
 13 15  1  0
 13 37  1  6
 14 38  1  0
 14 39  1  0
 14 40  1  0
 15 16  1  0
 16 22  1  0
 16 17  1  0
 16 41  1  1
 17 18  1  0
 17 42  1  0
 17 43  1  0
 18 19  1  0
 19 20  1  6
 19 21  1  0
 20 44  1  0
 21 22  1  1
 23 24  1  0
 23 45  1  6
 24 46  1  0
M  END
>  <i_m_ct_stereo_status>  (104) 
1

>  <s_m_source_file>  (104) 
/var/tmp/pbs.5076253.sched01/tmpx6ss0mji/80_l3th0xi.sdf

>  <i_m_source_file_index>  (104) 
2

>  <i_lp_mmshare_version>  (104) 
48012

>  <i_f3d_flags>  (104) 
0

>  <s_epik_input>  (104) 
W0NIM11DKD1bQ0hdMSlbQ0BIXShbT0hdKVtDQEBdKFtDQEhdMVtDQEBdMjM0KShbT0hdKVtDSF09QzJPW0NAQF01KFtDSDNdKVtDQF0zKFtPSF0pT1tDSDJdW0NAQEhdKE80KU9bQ0BASF0oW0NIMl01KVtDSDNd

>  <s_epik_cmdline>  (104) 
J2VwaWtfcHl0aG9uJywgJy1waHQnLCAnMi4wJywgJy1waCcsICc3LjAnLCAnLXRuJywgJzgnLCAnLW1hJywgJzIwMCcsICctaW1hZScsICc8aW5maWxlLm1hZT4nLCAnLW9tYWUnLCAnPG91dGZpbGUubWFlPic=

>  <r_epik_Ionization_Penalty>  (104) 
0.00165574

>  <r_epik_Ionization_Penalty_Charging>  (104) 
0

>  <r_epik_Ionization_Penalty_Neutral>  (104) 
0.00165574

>  <r_epik_State_Penalty>  (104) 
0.00100426

>  <r_epik_Charging_Adjusted_Penalty>  (104) 
0.00100426

>  <i_epik_Tot_Q>  (104) 
0

>  <i_epik_Tot_abs_Q>  (104) 
0

>  <s_epik_Chemistry_Notes>  (104) 
This compound contains an acetal/aminal-like group ( X-CH(R)-Y where X, Y are N, S, or O) that may be acid/base labile, releasing an aldehyde.

>  <s_lp_Force_Field>  (104) 
OPLS3e

>  <r_lp_Energy>  (104) 
39.9673

>  <b_lp_Chiralities_Consistent>  (104) 
1

>  <s_lp_Variant>  (104) 
58:0-1

>  <s_i_glide_gridfile>  (104) 
pfpi4k_grid

>  <i_i_glide_lignum>  (104) 
2

>  <i_i_glide_rotatable_bonds>  (104) 
3

>  <r_i_docking_score>  (104) 
-4.13091

>  <r_i_glide_ligand_efficiency>  (104) 
-0.172121

>  <r_i_glide_ligand_efficiency_sa>  (104) 
-0.496483

>  <r_i_glide_ligand_efficiency_ln>  (104) 
-0.988715

>  <r_i_glide_gscore>  (104) 
-4.13091

>  <r_i_glide_lipo>  (104) 
-0.905711

>  <r_i_glide_hbond>  (104) 
0

>  <r_i_glide_metal>  (104) 
-0

>  <r_i_glide_rewards>  (104) 
-1.14254

>  <r_i_glide_evdw>  (104) 
-4.72341

>  <r_i_glide_ecoul>  (104) 
-12.3021

>  <r_i_glide_erotb>  (104) 
0

>  <r_i_glide_esite>  (104) 
-0.0011625

>  <r_i_glide_emodel>  (104) 
-21.2011

>  <r_i_glide_energy>  (104) 
-17.0255

>  <r_i_glide_einternal>  (104) 
1.1308

>  <r_i_glide_intrahb_reward>  (104) 
-0

>  <i_i_glide_confnum>  (104) 
2

>  <i_i_glide_posenum>  (104) 
28

>  <r_i_glide_eff_state_penalty>  (104) 
0

>  <ligand_id>  (104) 
58

>  <original_smiles>  (104) 
CC1=CC2C(O)(C=C3OC4(C)CC(C)OC5COC4(O)C32O5)C1O

>  <smiles>  (104) 
[H]OC1([H])C(C([H])([H])[H])=C([H])C2([H])C1(O[H])C([H])=C1OC3(C([H])([H])[H])C([H])([H])C([H])(C([H])([H])[H])OC4([H])OC12C3(O[H])OC4([H])[H]

$$$$
58:0:2
     RDKit          3D

 46 50  0  0  1  0  0  0  0  0999 V2000
    3.4290   -0.0412   -4.8541 C   0  0  0  0  0  0  0  0  0  0  0  0
    3.4385   -1.0535   -3.7150 C   0  0  0  0  0  0  0  0  0  0  0  0
    3.8501   -0.8096   -2.4655 C   0  0  0  0  0  0  0  0  0  0  0  0
    3.4776   -1.9130   -1.4984 C   0  0  1  0  0  0  0  0  0  0  0  0
    3.1799   -3.0739   -2.4846 C   0  0  2  0  0  0  0  0  0  0  0  0
    2.0951   -3.8444   -2.0134 O   0  0  0  0  0  0  0  0  0  0  0  0
    4.4794   -3.8719   -2.3852 C   0  0  0  0  0  0  0  0  0  0  0  0
    5.0712   -3.5658   -1.2492 C   0  0  0  0  0  0  0  0  0  0  0  0
    6.2874   -3.9529   -0.7672 O   0  0  0  0  0  0  0  0  0  0  0  0
    6.6533   -3.0031    0.2232 C   0  0  2  0  0  0  0  0  0  0  0  0
    8.1043   -2.5842   -0.1059 C   0  0  0  0  0  0  0  0  0  0  0  0
    6.5930   -3.6414    1.6230 C   0  0  0  0  0  0  0  0  0  0  0  0
    5.3259   -4.3135    2.2043 C   0  0  1  0  0  0  0  0  0  0  0  0
    5.6651   -5.1524    3.4544 C   0  0  0  0  0  0  0  0  0  0  0  0
    4.3660   -3.3732    2.7051 O   0  0  0  0  0  0  0  0  0  0  0  0
    3.5760   -2.6636    1.7978 C   0  0  1  0  0  0  0  0  0  0  0  0
    4.0347   -1.2125    1.7939 C   0  0  0  0  0  0  0  0  0  0  0  0
    5.3948   -1.2418    1.4071 O   0  0  0  0  0  0  0  0  0  0  0  0
    5.6380   -1.8056    0.1488 C   0  0  1  0  0  0  0  0  0  0  0  0
    6.0878   -0.8028   -0.6870 O   0  0  0  0  0  0  0  0  0  0  0  0
    4.4349   -2.5337   -0.4632 C   0  0  1  0  0  0  0  0  0  0  0  0
    3.6055   -3.1747    0.5064 O   0  0  0  0  0  0  0  0  0  0  0  0
    3.0046   -2.4998   -3.9101 C   0  0  1  0  0  0  0  0  0  0  0  0
    1.6553   -2.6755   -4.2321 O   0  0  0  0  0  0  0  0  0  0  0  0
    4.0783   -0.4215   -5.6237 H   0  0  0  0  0  0  0  0  0  0  0  0
    3.7921    0.9444   -4.5514 H   0  0  0  0  0  0  0  0  0  0  0  0
    2.4409    0.0829   -5.2938 H   0  0  0  0  0  0  0  0  0  0  0  0
    4.2427    0.1377   -2.1258 H   0  0  0  0  0  0  0  0  0  0  0  0
    2.6608   -1.5652   -0.9082 H   0  0  0  0  0  0  0  0  0  0  0  0
    2.2214   -4.7422   -2.3813 H   0  0  0  0  0  0  0  0  0  0  0  0
    4.8438   -4.5732   -3.1038 H   0  0  0  0  0  0  0  0  0  0  0  0
    8.4656   -1.7732    0.5287 H   0  0  0  0  0  0  0  0  0  0  0  0
    8.1992   -2.2759   -1.1432 H   0  0  0  0  0  0  0  0  0  0  0  0
    8.7893   -3.4207    0.0188 H   0  0  0  0  0  0  0  0  0  0  0  0
    7.4144   -4.3523    1.7014 H   0  0  0  0  0  0  0  0  0  0  0  0
    6.8013   -2.8066    2.2695 H   0  0  0  0  0  0  0  0  0  0  0  0
    4.8931   -4.9855    1.4637 H   0  0  0  0  0  0  0  0  0  0  0  0
    6.3990   -5.9281    3.2379 H   0  0  0  0  0  0  0  0  0  0  0  0
    4.7699   -5.6487    3.8273 H   0  0  0  0  0  0  0  0  0  0  0  0
    6.0553   -4.5535    4.2830 H   0  0  0  0  0  0  0  0  0  0  0  0
    2.5540   -2.7351    2.1574 H   0  0  0  0  0  0  0  0  0  0  0  0
    3.4162   -0.6164    1.1147 H   0  0  0  0  0  0  0  0  0  0  0  0
    3.9440   -0.7875    2.7908 H   0  0  0  0  0  0  0  0  0  0  0  0
    5.4082   -0.1470   -0.7233 H   0  0  0  0  0  0  0  0  0  0  0  0
    3.5972   -2.9580   -4.7087 H   0  0  0  0  0  0  0  0  0  0  0  0
    1.1545   -2.4123   -3.4875 H   0  0  0  0  0  0  0  0  0  0  0  0
  1  2  1  0
  1 25  1  0
  1 26  1  0
  1 27  1  0
  2 23  1  0
  2  3  2  0
  3  4  1  0
  3 28  1  0
  4 21  1  0
  4  5  1  0
  4 29  1  1
  5  6  1  1
  5  7  1  0
  5 23  1  0
  6 30  1  0
  7  8  2  0
  7 31  1  0
  8 21  1  0
  8  9  1  0
  9 10  1  0
 10 19  1  0
 10 11  1  6
 10 12  1  0
 11 32  1  0
 11 33  1  0
 11 34  1  0
 12 13  1  0
 12 35  1  0
 12 36  1  0
 13 14  1  0
 13 15  1  0
 13 37  1  6
 14 38  1  0
 14 39  1  0
 14 40  1  0
 15 16  1  0
 16 22  1  0
 16 17  1  0
 16 41  1  1
 17 18  1  0
 17 42  1  0
 17 43  1  0
 18 19  1  0
 19 20  1  6
 19 21  1  0
 20 44  1  0
 21 22  1  1
 23 24  1  0
 23 45  1  6
 24 46  1  0
M  END
>  <i_m_ct_stereo_status>  (105) 
1

>  <s_m_source_file>  (105) 
/var/tmp/pbs.5076253.sched01/tmpx6ss0mji/80_l3th0xi.sdf

>  <i_m_source_file_index>  (105) 
2

>  <i_lp_mmshare_version>  (105) 
48012

>  <i_f3d_flags>  (105) 
0

>  <s_epik_input>  (105) 
W0NIM11DKD1bQ0hdMSlbQ0BIXShbT0hdKVtDQEBdKFtDQEhdMVtDQEBdMjM0KShbT0hdKVtDSF09QzJPW0NAQF01KFtDSDNdKVtDQF0zKFtPSF0pT1tDSDJdW0NAQEhdKE80KU9bQ0BASF0oW0NIMl01KVtDSDNd

>  <s_epik_cmdline>  (105) 
J2VwaWtfcHl0aG9uJywgJy1waHQnLCAnMi4wJywgJy1waCcsICc3LjAnLCAnLXRuJywgJzgnLCAnLW1hJywgJzIwMCcsICctaW1hZScsICc8aW5maWxlLm1hZT4nLCAnLW9tYWUnLCAnPG91dGZpbGUubWFlPic=

>  <r_epik_Ionization_Penalty>  (105) 
0.00165574

>  <r_epik_Ionization_Penalty_Charging>  (105) 
0

>  <r_epik_Ionization_Penalty_Neutral>  (105) 
0.00165574

>  <r_epik_State_Penalty>  (105) 
0.00100426

>  <r_epik_Charging_Adjusted_Penalty>  (105) 
0.00100426

>  <i_epik_Tot_Q>  (105) 
0

>  <i_epik_Tot_abs_Q>  (105) 
0

>  <s_epik_Chemistry_Notes>  (105) 
This compound contains an acetal/aminal-like group ( X-CH(R)-Y where X, Y are N, S, or O) that may be acid/base labile, releasing an aldehyde.

>  <s_lp_Force_Field>  (105) 
OPLS3e

>  <r_lp_Energy>  (105) 
39.9673

>  <b_lp_Chiralities_Consistent>  (105) 
1

>  <s_lp_Variant>  (105) 
58:0-1

>  <s_i_glide_gridfile>  (105) 
pfpi4k_grid

>  <i_i_glide_lignum>  (105) 
2

>  <i_i_glide_rotatable_bonds>  (105) 
3

>  <r_i_docking_score>  (105) 
-3.35787

>  <r_i_glide_ligand_efficiency>  (105) 
-0.139911

>  <r_i_glide_ligand_efficiency_sa>  (105) 
-0.403574

>  <r_i_glide_ligand_efficiency_ln>  (105) 
-0.803693

>  <r_i_glide_gscore>  (105) 
-3.35787

>  <r_i_glide_lipo>  (105) 
-0.820028

>  <r_i_glide_hbond>  (105) 
0

>  <r_i_glide_metal>  (105) 
-0

>  <r_i_glide_rewards>  (105) 
-1.13304

>  <r_i_glide_evdw>  (105) 
-8.42756

>  <r_i_glide_ecoul>  (105) 
-6.53652

>  <r_i_glide_erotb>  (105) 
0

>  <r_i_glide_esite>  (105) 
-0.0029447

>  <r_i_glide_emodel>  (105) 
-16.2044

>  <r_i_glide_energy>  (105) 
-14.9641

>  <r_i_glide_einternal>  (105) 
0.98178

>  <r_i_glide_intrahb_reward>  (105) 
-0

>  <i_i_glide_confnum>  (105) 
2

>  <i_i_glide_posenum>  (105) 
13

>  <r_i_glide_eff_state_penalty>  (105) 
0

>  <ligand_id>  (105) 
58

>  <original_smiles>  (105) 
CC1=CC2C(O)(C=C3OC4(C)CC(C)OC5COC4(O)C32O5)C1O

>  <smiles>  (105) 
[H]OC1([H])C(C([H])([H])[H])=C([H])C2([H])C1(O[H])C([H])=C1OC3(C([H])([H])[H])C([H])([H])C([H])(C([H])([H])[H])OC4([H])OC12C3(O[H])OC4([H])[H]

$$$$
65:0:0
     RDKit          3D

 81 90  0  0  1  0  0  0  0  0999 V2000
    1.6735   -2.5694    8.8129 C   0  0  0  0  0  0  0  0  0  0  0  0
    2.4387   -3.1003    7.7419 O   0  0  0  0  0  0  0  0  0  0  0  0
    1.8014   -4.1486    7.0869 C   0  0  2  0  0  0  0  0  0  0  0  0
    1.6963   -5.2783    7.9038 O   0  0  0  0  0  0  0  0  0  0  0  0
    2.9428   -5.9114    7.9756 C   0  0  1  0  0  0  0  0  0  0  0  0
    2.8650   -7.2980    8.0591 O   0  0  0  0  0  0  0  0  0  0  0  0
    2.9937   -7.8193    6.7755 C   0  0  2  0  0  0  0  0  0  0  0  0
    3.6561   -6.8551    6.0029 O   0  0  0  0  0  0  0  0  0  0  0  0
    3.6337   -5.6190    6.6460 C   0  0  2  0  0  0  0  0  0  0  0  0
    4.9313   -5.1174    6.9100 O   0  0  0  0  0  0  0  0  0  0  0  0
    2.6664   -4.6221    5.9119 C   0  0  2  0  0  0  0  0  0  0  0  0
    3.1813   -3.4839    4.9165 C   0  0  1  0  0  0  0  0  0  0  0  0
    4.6331   -3.6654    4.5188 C   0  0  0  0  0  0  0  0  0  0  0  0
    4.9882   -4.3495    3.4195 C   0  0  0  0  0  0  0  0  0  0  0  0
    3.9960   -5.0159    2.4727 C   0  0  1  0  0  0  0  0  0  0  0  0
    4.1456   -6.5098    2.8277 C   0  0  0  0  0  0  0  0  0  0  0  0
    5.1887   -7.1223    2.5974 O   0  0  0  0  0  0  0  0  0  0  0  0
    3.1143   -7.0244    3.5376 O   0  0  0  0  0  0  0  0  0  0  0  0
    1.7533   -6.8700    3.1129 C   0  0  1  0  0  0  0  0  0  0  0  0
    1.5297   -5.4796    2.5223 C   0  0  0  0  0  0  0  0  0  0  0  0
    2.5338   -4.6094    2.7596 C   0  0  0  0  0  0  0  0  0  0  0  0
    2.3638   -3.3067    3.5653 C   0  0  1  0  0  0  0  0  0  0  0  0
    0.8936   -2.8855    3.8353 C   0  0  0  0  0  0  0  0  0  0  0  0
    0.8291   -1.6079    4.4638 O   0  0  0  0  0  0  0  0  0  0  0  0
   -0.2925   -1.2096    5.0909 C   0  0  0  0  0  0  0  0  0  0  0  0
   -0.2165    0.2273    5.5871 C   0  0  0  0  0  0  0  0  0  0  0  0
   -1.3029   -1.8853    5.2798 O   0  0  0  0  0  0  0  0  0  0  0  0
    3.0043   -2.2346    2.8650 O   0  0  0  0  0  0  0  0  0  0  0  0
    2.6343   -1.8349    1.5703 C   0  0  1  0  0  0  0  0  0  0  0  0
    3.8584   -1.0906    1.0148 C   0  0  0  0  0  0  0  0  0  0  0  0
    5.0405   -2.0777    0.9854 C   0  0  0  0  0  0  0  0  0  0  0  0
    4.6787   -3.3900    0.2637 C   0  0  1  0  0  0  0  0  0  0  0  0
    5.7067   -3.5600   -0.8682 C   0  0  0  0  0  0  0  0  0  0  0  0
    4.3909   -4.7457    0.9785 C   0  0  2  0  0  0  0  0  0  0  0  0
    3.2517   -4.9464    0.0987 O   0  0  0  0  0  0  0  0  0  0  0  0
    3.2008   -3.5195   -0.1660 C   0  0  2  0  0  0  0  0  0  0  0  0
    2.7630   -3.2648   -1.6173 C   0  0  0  0  0  0  0  0  0  0  0  0
    3.0207   -1.9399   -2.0094 O   0  0  0  0  0  0  0  0  0  0  0  0
    2.2505   -2.8710    0.6970 O   0  0  0  0  0  0  0  0  0  0  0  0
    1.5867   -8.2669    2.5108 C   0  0  0  0  0  0  0  0  0  0  0  0
    1.7161   -9.0593    3.7440 O   0  0  0  0  0  0  0  0  0  0  0  0
    1.0583   -8.3465    4.8106 C   0  0  1  0  0  0  0  0  0  0  0  0
    0.0633   -9.2379    5.5423 C   0  0  0  0  0  0  0  0  0  0  0  0
    0.9530   -9.3034    6.6948 O   0  0  0  0  0  0  0  0  0  0  0  0
    1.5624   -8.0791    6.2478 C   0  0  1  0  0  0  0  0  0  0  0  0
    0.7093   -7.0735    4.2106 C   0  0  0  0  0  0  0  0  0  0  0  0
   -0.2269   -6.3005    4.4542 O   0  0  0  0  0  0  0  0  0  0  0  0
    2.2087   -1.7368    9.2685 H   0  0  0  0  0  0  0  0  0  0  0  0
    1.4994   -3.3151    9.5902 H   0  0  0  0  0  0  0  0  0  0  0  0
    0.7085   -2.1946    8.4684 H   0  0  0  0  0  0  0  0  0  0  0  0
    0.8049   -3.8411    6.7651 H   0  0  0  0  0  0  0  0  0  0  0  0
    3.4857   -5.5199    8.8384 H   0  0  0  0  0  0  0  0  0  0  0  0
    3.5840   -8.7346    6.7868 H   0  0  0  0  0  0  0  0  0  0  0  0
    5.3021   -4.8403    6.0909 H   0  0  0  0  0  0  0  0  0  0  0  0
    2.0008   -5.2450    5.3467 H   0  0  0  0  0  0  0  0  0  0  0  0
    3.1600   -2.5262    5.4348 H   0  0  0  0  0  0  0  0  0  0  0  0
    5.3748   -3.1672    5.1294 H   0  0  0  0  0  0  0  0  0  0  0  0
    6.0316   -4.4381    3.1567 H   0  0  0  0  0  0  0  0  0  0  0  0
    0.5265   -5.1200    2.6536 H   0  0  0  0  0  0  0  0  0  0  0  0
    0.3492   -2.8178    2.8947 H   0  0  0  0  0  0  0  0  0  0  0  0
    0.3971   -3.6383    4.4481 H   0  0  0  0  0  0  0  0  0  0  0  0
    0.6707    0.3741    6.2022 H   0  0  0  0  0  0  0  0  0  0  0  0
   -1.0961    0.4750    6.1817 H   0  0  0  0  0  0  0  0  0  0  0  0
   -0.1769    0.9142    4.7419 H   0  0  0  0  0  0  0  0  0  0  0  0
    1.7792   -1.1617    1.6384 H   0  0  0  0  0  0  0  0  0  0  0  0
    3.6332   -0.6813    0.0319 H   0  0  0  0  0  0  0  0  0  0  0  0
    4.0749   -0.2315    1.6498 H   0  0  0  0  0  0  0  0  0  0  0  0
    5.8909   -1.5811    0.5157 H   0  0  0  0  0  0  0  0  0  0  0  0
    5.3661   -2.2675    2.0030 H   0  0  0  0  0  0  0  0  0  0  0  0
    5.4940   -4.4515   -1.4582 H   0  0  0  0  0  0  0  0  0  0  0  0
    6.7224   -3.6646   -0.4847 H   0  0  0  0  0  0  0  0  0  0  0  0
    5.6893   -2.7176   -1.5602 H   0  0  0  0  0  0  0  0  0  0  0  0
    5.1867   -5.4310    0.6802 H   0  0  0  0  0  0  0  0  0  0  0  0
    3.3208   -3.8689   -2.3223 H   0  0  0  0  0  0  0  0  0  0  0  0
    1.7099   -3.4789   -1.7612 H   0  0  0  0  0  0  0  0  0  0  0  0
    2.3649   -1.4021   -1.5552 H   0  0  0  0  0  0  0  0  0  0  0  0
    0.6095   -8.4118    2.0433 H   0  0  0  0  0  0  0  0  0  0  0  0
    2.3620   -8.5263    1.7843 H   0  0  0  0  0  0  0  0  0  0  0  0
   -0.8823   -8.7389    5.7565 H   0  0  0  0  0  0  0  0  0  0  0  0
   -0.1006  -10.2100    5.0778 H   0  0  0  0  0  0  0  0  0  0  0  0
    0.9456   -7.2635    6.6345 H   0  0  0  0  0  0  0  0  0  0  0  0
  1  2  1  0
  1 48  1  0
  1 49  1  0
  1 50  1  0
  2  3  1  0
  3 11  1  0
  3  4  1  0
  3 51  1  6
  4  5  1  0
  5  9  1  0
  5  6  1  0
  5 52  1  1
  6  7  1  0
  7 45  1  0
  7  8  1  0
  7 53  1  1
  8  9  1  0
  9 10  1  1
  9 11  1  0
 10 54  1  0
 11 12  1  0
 11 55  1  6
 12 22  1  0
 12 13  1  0
 12 56  1  1
 13 14  2  0
 13 57  1  0
 15 14  1  1
 14 58  1  0
 15 21  1  0
 15 34  1  0
 15 16  1  0
 16 17  2  0
 16 18  1  0
 19 18  1  1
 19 46  1  0
 19 20  1  0
 19 40  1  0
 20 21  2  0
 20 59  1  0
 21 22  1  0
 22 23  1  1
 22 28  1  0
 23 24  1  0
 23 60  1  0
 23 61  1  0
 24 25  1  0
 25 26  1  0
 25 27  2  0
 26 62  1  0
 26 63  1  0
 26 64  1  0
 28 29  1  0
 29 39  1  0
 29 30  1  0
 29 65  1  1
 30 31  1  0
 30 66  1  0
 30 67  1  0
 31 32  1  0
 31 68  1  0
 31 69  1  0
 32 36  1  0
 32 33  1  6
 32 34  1  0
 33 70  1  0
 33 71  1  0
 33 72  1  0
 34 35  1  0
 34 73  1  6
 35 36  1  0
 36 37  1  6
 36 39  1  0
 37 38  1  0
 37 74  1  0
 37 75  1  0
 38 76  1  0
 40 41  1  0
 40 77  1  0
 40 78  1  0
 42 41  1  6
 42 45  1  0
 42 43  1  0
 42 46  1  0
 43 44  1  0
 43 79  1  0
 43 80  1  0
 44 45  1  0
 45 81  1  1
 46 47  2  0
M  END
>  <i_m_ct_stereo_status>  (106) 
1

>  <s_m_source_file>  (106) 
/var/tmp/pbs.5076253.sched01/tmpx6ss0mji/80_l3th0xi.sdf

>  <i_m_source_file_index>  (106) 
16

>  <i_lp_mmshare_version>  (106) 
48012

>  <i_f3d_flags>  (106) 
0

>  <s_epik_input>  (106) 
Tz1DMU9bQ0BdKFtDSF09MikoQzM9TylbQ0gyXU9bQ0BAXTMoW0NIMl1PNClbQ0BASF00W0NAQEhdKE81KU9bQ0BIXShPW0NASF02T1tDSDNdKVtDQF01KFtPSF0pW0NAQEhdNltDQEBIXShbQ0hdPVtDSF03KVtDQEBdKEMyW0NAXTE3OCkoW0NIMl1PQyg9TylbQ0gzXSlPW0NASF05W0NIMl1bQ0gyXVtDQEBdMShbQ0gzXSlbQ0BASF04T1tDQF0xKE85KVtDSDJdW09IXQ==

>  <s_epik_cmdline>  (106) 
J2VwaWtfcHl0aG9uJywgJy1waHQnLCAnMi4wJywgJy1waCcsICc3LjAnLCAnLXRuJywgJzgnLCAnLW1hJywgJzIwMCcsICctaW1hZScsICc8aW5maWxlLm1hZT4nLCAnLW9tYWUnLCAnPG91dGZpbGUubWFlPic=

>  <r_epik_Ionization_Penalty>  (106) 
0.00175396

>  <r_epik_Ionization_Penalty_Charging>  (106) 
0

>  <r_epik_Ionization_Penalty_Neutral>  (106) 
0.00175396

>  <r_epik_State_Penalty>  (106) 
0.00118749

>  <r_epik_Charging_Adjusted_Penalty>  (106) 
0.00118749

>  <i_epik_Tot_Q>  (106) 
0

>  <i_epik_Tot_abs_Q>  (106) 
0

>  <s_epik_Chemistry_Notes>  (106) 
This compound has an ester and may undergo hydrolysis at high or low pH. This compound contains an acetal/aminal-like group ( X-CH(R)-Y where X, Y are N, S, or O) that may be acid/base labile, releasing an aldehyde.

>  <s_lp_Force_Field>  (106) 
OPLS3e

>  <r_lp_Energy>  (106) 
150.984

>  <b_lp_Chiralities_Consistent>  (106) 
1

>  <s_lp_Variant>  (106) 
65:0-1

>  <s_i_glide_gridfile>  (106) 
pfpi4k_grid

>  <i_i_glide_lignum>  (106) 
16

>  <i_i_glide_rotatable_bonds>  (106) 
7

>  <r_i_docking_score>  (106) 
-2.48347

>  <r_i_glide_ligand_efficiency>  (106) 
-0.0528398

>  <r_i_glide_ligand_efficiency_sa>  (106) 
-0.19069

>  <r_i_glide_ligand_efficiency_ln>  (106) 
-0.51204

>  <r_i_glide_gscore>  (106) 
-2.48347

>  <r_i_glide_lipo>  (106) 
-0.352022

>  <r_i_glide_hbond>  (106) 
-0.00506607

>  <r_i_glide_metal>  (106) 
-0

>  <r_i_glide_rewards>  (106) 
-0.0103149

>  <r_i_glide_evdw>  (106) 
-27.525

>  <r_i_glide_ecoul>  (106) 
-5.33562

>  <r_i_glide_erotb>  (106) 
0.145462

>  <r_i_glide_esite>  (106) 
-0.0849369

>  <r_i_glide_emodel>  (106) 
-36.7273

>  <r_i_glide_energy>  (106) 
-32.8606

>  <r_i_glide_einternal>  (106) 
1.76429

>  <r_i_glide_intrahb_reward>  (106) 
-0

>  <i_i_glide_confnum>  (106) 
2

>  <i_i_glide_posenum>  (106) 
10

>  <r_i_glide_eff_state_penalty>  (106) 
0

>  <ligand_id>  (106) 
65

>  <original_smiles>  (106) 
COC1OC2OC3OC2(O)C1C1C=CC24C(=O)OC5(C=C2C1(COC(C)=O)OC1CCC2(C)C4OC2(CO)O1)COC1(COC31)C5=O

>  <smiles>  (106) 
[H]OC([H])([H])C12OC3([H])OC4(C([H])([H])OC(=O)C([H])([H])[H])C5=C([H])C67OC(=O)C5(C([H])=C([H])C4([H])C4([H])C([H])(OC([H])([H])[H])OC5([H])OC([H])(OC54O[H])C4([H])OC([H])([H])C4(OC6([H])[H])C7=O)C([H])(O1)C2(C([H])([H])[H])C([H])([H])C3([H])[H]

$$$$
65:0:1
     RDKit          3D

 81 90  0  0  1  0  0  0  0  0999 V2000
    4.4006   -2.0155   10.9546 C   0  0  0  0  0  0  0  0  0  0  0  0
    4.5081   -1.4125    9.6743 O   0  0  0  0  0  0  0  0  0  0  0  0
    3.7909   -2.0907    8.6922 C   0  0  2  0  0  0  0  0  0  0  0  0
    4.3622   -3.3317    8.3984 O   0  0  0  0  0  0  0  0  0  0  0  0
    5.5071   -3.1368    7.6172 C   0  0  1  0  0  0  0  0  0  0  0  0
    5.7349   -4.1334    6.6752 O   0  0  0  0  0  0  0  0  0  0  0  0
    5.1712   -3.7336    5.4679 C   0  0  2  0  0  0  0  0  0  0  0  0
    5.1011   -2.3348    5.4992 O   0  0  0  0  0  0  0  0  0  0  0  0
    5.2439   -1.8705    6.8063 C   0  0  2  0  0  0  0  0  0  0  0  0
    6.3536   -1.0032    6.9620 O   0  0  0  0  0  0  0  0  0  0  0  0
    3.8824   -1.3274    7.3656 C   0  0  2  0  0  0  0  0  0  0  0  0
    3.5247    0.2271    7.4314 C   0  0  1  0  0  0  0  0  0  0  0  0
    4.4809    1.0757    6.6243 C   0  0  0  0  0  0  0  0  0  0  0  0
    4.2379    1.4010    5.3471 C   0  0  0  0  0  0  0  0  0  0  0  0
    3.0107    0.9469    4.5679 C   0  0  1  0  0  0  0  0  0  0  0  0
    3.5903   -0.1592    3.6566 C   0  0  0  0  0  0  0  0  0  0  0  0
    4.3951    0.0832    2.7559 O   0  0  0  0  0  0  0  0  0  0  0  0
    3.2563   -1.4171    4.0253 O   0  0  0  0  0  0  0  0  0  0  0  0
    1.8981   -1.7957    4.2810 C   0  0  1  0  0  0  0  0  0  0  0  0
    1.1392   -0.6769    4.9929 C   0  0  0  0  0  0  0  0  0  0  0  0
    1.9371    0.3006    5.4753 C   0  0  0  0  0  0  0  0  0  0  0  0
    2.0608    0.6447    6.9711 C   0  0  1  0  0  0  0  0  0  0  0  0
    0.9751    0.0083    7.8783 C   0  0  0  0  0  0  0  0  0  0  0  0
    1.1986    0.3296    9.2470 O   0  0  0  0  0  0  0  0  0  0  0  0
    0.5800   -0.3745   10.2058 C   0  0  0  0  0  0  0  0  0  0  0  0
    0.9135    0.1192   11.6085 C   0  0  0  0  0  0  0  0  0  0  0  0
   -0.1842   -1.3240   10.0137 O   0  0  0  0  0  0  0  0  0  0  0  0
    1.9886    2.0683    7.1293 O   0  0  0  0  0  0  0  0  0  0  0  0
    0.8780    2.8283    6.7309 C   0  0  1  0  0  0  0  0  0  0  0  0
    1.3963    4.2591    6.5533 C   0  0  0  0  0  0  0  0  0  0  0  0
    2.4987    4.2342    5.4786 C   0  0  0  0  0  0  0  0  0  0  0  0
    2.0174    3.5637    4.1800 C   0  0  1  0  0  0  0  0  0  0  0  0
    2.2447    4.5851    3.0449 C   0  0  0  0  0  0  0  0  0  0  0  0
    2.4209    2.1304    3.7219 C   0  0  2  0  0  0  0  0  0  0  0  0
    1.0315    1.8692    3.3732 O   0  0  0  0  0  0  0  0  0  0  0  0
    0.5986    2.9317    4.2637 C   0  0  2  0  0  0  0  0  0  0  0  0
   -0.6487    3.6503    3.7095 C   0  0  0  0  0  0  0  0  0  0  0  0
   -0.6470    5.0464    3.9563 O   0  0  0  0  0  0  0  0  0  0  0  0
    0.2277    2.4082    5.5559 O   0  0  0  0  0  0  0  0  0  0  0  0
    1.6441   -2.4926    2.9454 C   0  0  0  0  0  0  0  0  0  0  0  0
    2.5898   -3.6139    3.0769 O   0  0  0  0  0  0  0  0  0  0  0  0
    2.5735   -4.0503    4.4495 C   0  0  1  0  0  0  0  0  0  0  0  0
    2.3465   -5.5532    4.5478 C   0  0  0  0  0  0  0  0  0  0  0  0
    3.7423   -5.7445    4.9156 O   0  0  0  0  0  0  0  0  0  0  0  0
    3.7656   -4.3789    5.3766 C   0  0  1  0  0  0  0  0  0  0  0  0
    1.7400   -3.0665    5.1177 C   0  0  0  0  0  0  0  0  0  0  0  0
    1.0069   -3.1915    6.1037 O   0  0  0  0  0  0  0  0  0  0  0  0
    4.9559   -1.4254   11.6831 H   0  0  0  0  0  0  0  0  0  0  0  0
    4.8147   -3.0252   10.9591 H   0  0  0  0  0  0  0  0  0  0  0  0
    3.3629   -2.0637   11.2884 H   0  0  0  0  0  0  0  0  0  0  0  0
    2.7583   -2.2381    9.0119 H   0  0  0  0  0  0  0  0  0  0  0  0
    6.3666   -3.0576    8.2861 H   0  0  0  0  0  0  0  0  0  0  0  0
    5.7974   -4.0371    4.6361 H   0  0  0  0  0  0  0  0  0  0  0  0
    7.1423   -1.5090    6.8749 H   0  0  0  0  0  0  0  0  0  0  0  0
    3.1246   -1.7845    6.7634 H   0  0  0  0  0  0  0  0  0  0  0  0
    3.6611    0.5781    8.4532 H   0  0  0  0  0  0  0  0  0  0  0  0
    5.3584    1.4510    7.1331 H   0  0  0  0  0  0  0  0  0  0  0  0
    4.9402    2.0233    4.8248 H   0  0  0  0  0  0  0  0  0  0  0  0
    0.3336   -1.0359    5.6151 H   0  0  0  0  0  0  0  0  0  0  0  0
   -0.0147    0.3625    7.5893 H   0  0  0  0  0  0  0  0  0  0  0  0
    0.9820   -1.0751    7.7572 H   0  0  0  0  0  0  0  0  0  0  0  0
    1.9920    0.1632   11.7573 H   0  0  0  0  0  0  0  0  0  0  0  0
    0.4900   -0.5370   12.3690 H   0  0  0  0  0  0  0  0  0  0  0  0
    0.5058    1.1172   11.7659 H   0  0  0  0  0  0  0  0  0  0  0  0
    0.1345    2.7845    7.5245 H   0  0  0  0  0  0  0  0  0  0  0  0
    0.5654    4.9069    6.2735 H   0  0  0  0  0  0  0  0  0  0  0  0
    1.7834    4.6202    7.5074 H   0  0  0  0  0  0  0  0  0  0  0  0
    2.8251    5.2592    5.3021 H   0  0  0  0  0  0  0  0  0  0  0  0
    3.3775    3.7371    5.8790 H   0  0  0  0  0  0  0  0  0  0  0  0
    1.8640    4.2046    2.0967 H   0  0  0  0  0  0  0  0  0  0  0  0
    3.3032    4.8064    2.9031 H   0  0  0  0  0  0  0  0  0  0  0  0
    1.7476    5.5379    3.2317 H   0  0  0  0  0  0  0  0  0  0  0  0
    3.0044    2.2417    2.8038 H   0  0  0  0  0  0  0  0  0  0  0  0
   -0.7239    3.5119    2.6353 H   0  0  0  0  0  0  0  0  0  0  0  0
   -1.5546    3.2317    4.1443 H   0  0  0  0  0  0  0  0  0  0  0  0
    0.0728    5.4211    3.4624 H   0  0  0  0  0  0  0  0  0  0  0  0
    0.6114   -2.8430    2.8669 H   0  0  0  0  0  0  0  0  0  0  0  0
    1.8803   -1.8776    2.0725 H   0  0  0  0  0  0  0  0  0  0  0  0
    1.6615   -5.8429    5.3480 H   0  0  0  0  0  0  0  0  0  0  0  0
    2.0948   -6.0413    3.6037 H   0  0  0  0  0  0  0  0  0  0  0  0
    3.3696   -4.3821    6.3962 H   0  0  0  0  0  0  0  0  0  0  0  0
  1  2  1  0
  1 48  1  0
  1 49  1  0
  1 50  1  0
  2  3  1  0
  3 11  1  0
  3  4  1  0
  3 51  1  1
  4  5  1  0
  5  9  1  0
  5  6  1  0
  5 52  1  1
  6  7  1  0
  7 45  1  0
  7  8  1  0
  7 53  1  6
  8  9  1  0
  9 10  1  6
  9 11  1  0
 10 54  1  0
 11 12  1  0
 11 55  1  6
 12 22  1  0
 12 13  1  0
 12 56  1  1
 13 14  2  0
 13 57  1  0
 15 14  1  1
 14 58  1  0
 15 21  1  0
 15 34  1  0
 15 16  1  0
 16 17  2  0
 16 18  1  0
 19 18  1  6
 19 46  1  0
 19 20  1  0
 19 40  1  0
 20 21  2  0
 20 59  1  0
 21 22  1  0
 22 23  1  1
 22 28  1  0
 23 24  1  0
 23 60  1  0
 23 61  1  0
 24 25  1  0
 25 26  1  0
 25 27  2  0
 26 62  1  0
 26 63  1  0
 26 64  1  0
 28 29  1  0
 29 39  1  0
 29 30  1  0
 29 65  1  1
 30 31  1  0
 30 66  1  0
 30 67  1  0
 31 32  1  0
 31 68  1  0
 31 69  1  0
 32 36  1  0
 32 33  1  6
 32 34  1  0
 33 70  1  0
 33 71  1  0
 33 72  1  0
 34 35  1  0
 34 73  1  6
 35 36  1  0
 36 37  1  6
 36 39  1  0
 37 38  1  0
 37 74  1  0
 37 75  1  0
 38 76  1  0
 40 41  1  0
 40 77  1  0
 40 78  1  0
 42 41  1  6
 42 45  1  0
 42 43  1  0
 42 46  1  0
 43 44  1  0
 43 79  1  0
 43 80  1  0
 44 45  1  0
 45 81  1  1
 46 47  2  0
M  END
>  <i_m_ct_stereo_status>  (107) 
1

>  <s_m_source_file>  (107) 
/var/tmp/pbs.5076253.sched01/tmpx6ss0mji/80_l3th0xi.sdf

>  <i_m_source_file_index>  (107) 
16

>  <i_lp_mmshare_version>  (107) 
48012

>  <i_f3d_flags>  (107) 
0

>  <s_epik_input>  (107) 
Tz1DMU9bQ0BdKFtDSF09MikoQzM9TylbQ0gyXU9bQ0BAXTMoW0NIMl1PNClbQ0BASF00W0NAQEhdKE81KU9bQ0BIXShPW0NASF02T1tDSDNdKVtDQF01KFtPSF0pW0NAQEhdNltDQEBIXShbQ0hdPVtDSF03KVtDQEBdKEMyW0NAXTE3OCkoW0NIMl1PQyg9TylbQ0gzXSlPW0NASF05W0NIMl1bQ0gyXVtDQEBdMShbQ0gzXSlbQ0BASF04T1tDQF0xKE85KVtDSDJdW09IXQ==

>  <s_epik_cmdline>  (107) 
J2VwaWtfcHl0aG9uJywgJy1waHQnLCAnMi4wJywgJy1waCcsICc3LjAnLCAnLXRuJywgJzgnLCAnLW1hJywgJzIwMCcsICctaW1hZScsICc8aW5maWxlLm1hZT4nLCAnLW9tYWUnLCAnPG91dGZpbGUubWFlPic=

>  <r_epik_Ionization_Penalty>  (107) 
0.00175396

>  <r_epik_Ionization_Penalty_Charging>  (107) 
0

>  <r_epik_Ionization_Penalty_Neutral>  (107) 
0.00175396

>  <r_epik_State_Penalty>  (107) 
0.00118749

>  <r_epik_Charging_Adjusted_Penalty>  (107) 
0.00118749

>  <i_epik_Tot_Q>  (107) 
0

>  <i_epik_Tot_abs_Q>  (107) 
0

>  <s_epik_Chemistry_Notes>  (107) 
This compound has an ester and may undergo hydrolysis at high or low pH. This compound contains an acetal/aminal-like group ( X-CH(R)-Y where X, Y are N, S, or O) that may be acid/base labile, releasing an aldehyde.

>  <s_lp_Force_Field>  (107) 
OPLS3e

>  <r_lp_Energy>  (107) 
150.984

>  <b_lp_Chiralities_Consistent>  (107) 
1

>  <s_lp_Variant>  (107) 
65:0-1

>  <s_i_glide_gridfile>  (107) 
pfpi4k_grid

>  <i_i_glide_lignum>  (107) 
16

>  <i_i_glide_rotatable_bonds>  (107) 
7

>  <r_i_docking_score>  (107) 
-1.95466

>  <r_i_glide_ligand_efficiency>  (107) 
-0.0415885

>  <r_i_glide_ligand_efficiency_sa>  (107) 
-0.150086

>  <r_i_glide_ligand_efficiency_ln>  (107) 
-0.40301

>  <r_i_glide_gscore>  (107) 
-1.95466

>  <r_i_glide_lipo>  (107) 
-0.00713332

>  <r_i_glide_hbond>  (107) 
-0.108686

>  <r_i_glide_metal>  (107) 
-0

>  <r_i_glide_rewards>  (107) 
-0.0250535

>  <r_i_glide_evdw>  (107) 
-19.8497

>  <r_i_glide_ecoul>  (107) 
-6.09758

>  <r_i_glide_erotb>  (107) 
0.145462

>  <r_i_glide_esite>  (107) 
-0.052126

>  <r_i_glide_emodel>  (107) 
-29.055

>  <r_i_glide_energy>  (107) 
-25.9473

>  <r_i_glide_einternal>  (107) 
1.26397

>  <r_i_glide_intrahb_reward>  (107) 
-0

>  <i_i_glide_confnum>  (107) 
2

>  <i_i_glide_posenum>  (107) 
12

>  <r_i_glide_eff_state_penalty>  (107) 
0

>  <ligand_id>  (107) 
65

>  <original_smiles>  (107) 
COC1OC2OC3OC2(O)C1C1C=CC24C(=O)OC5(C=C2C1(COC(C)=O)OC1CCC2(C)C4OC2(CO)O1)COC1(COC31)C5=O

>  <smiles>  (107) 
[H]OC([H])([H])C12OC3([H])OC4(C([H])([H])OC(=O)C([H])([H])[H])C5=C([H])C67OC(=O)C5(C([H])=C([H])C4([H])C4([H])C([H])(OC([H])([H])[H])OC5([H])OC([H])(OC54O[H])C4([H])OC([H])([H])C4(OC6([H])[H])C7=O)C([H])(O1)C2(C([H])([H])[H])C([H])([H])C3([H])[H]

$$$$
65:0:2
     RDKit          3D

 81 90  0  0  1  0  0  0  0  0999 V2000
    3.1295   -7.1453    9.4651 C   0  0  0  0  0  0  0  0  0  0  0  0
    3.6262   -6.7775    8.1867 O   0  0  0  0  0  0  0  0  0  0  0  0
    2.7408   -7.0783    7.1554 C   0  0  2  0  0  0  0  0  0  0  0  0
    2.6067   -8.4578    6.9753 O   0  0  0  0  0  0  0  0  0  0  0  0
    3.7486   -8.9496    6.3295 C   0  0  1  0  0  0  0  0  0  0  0  0
    3.4982  -10.0061    5.4596 O   0  0  0  0  0  0  0  0  0  0  0  0
    3.3283   -9.4811    4.1780 C   0  0  2  0  0  0  0  0  0  0  0  0
    3.9823   -8.2425    4.1508 O   0  0  0  0  0  0  0  0  0  0  0  0
    4.2504   -7.7997    5.4467 C   0  0  2  0  0  0  0  0  0  0  0  0
    5.6424   -7.6157    5.6942 O   0  0  0  0  0  0  0  0  0  0  0  0
    3.3191   -6.5907    5.8216 C   0  0  2  0  0  0  0  0  0  0  0  0
    3.7999   -5.0647    5.7819 C   0  0  1  0  0  0  0  0  0  0  0  0
    5.1257   -4.9067    5.0620 C   0  0  0  0  0  0  0  0  0  0  0  0
    5.1919   -4.6324    3.7547 C   0  0  0  0  0  0  0  0  0  0  0  0
    3.9825   -4.4689    2.8488 C   0  0  1  0  0  0  0  0  0  0  0  0
    3.9821   -5.7772    2.0547 C   0  0  0  0  0  0  0  0  0  0  0  0
    4.8784   -6.0431    1.2531 O   0  0  0  0  0  0  0  0  0  0  0  0
    3.0188   -6.6613    2.4323 O   0  0  0  0  0  0  0  0  0  0  0  0
    1.6367   -6.2788    2.5529 C   0  0  1  0  0  0  0  0  0  0  0  0
    1.5202   -4.8726    3.1062 C   0  0  0  0  0  0  0  0  0  0  0  0
    2.6598   -4.3870    3.6378 C   0  0  0  0  0  0  0  0  0  0  0  0
    2.8064   -4.0092    5.1231 C   0  0  1  0  0  0  0  0  0  0  0  0
    1.4812   -3.9216    5.9399 C   0  0  0  0  0  0  0  0  0  0  0  0
    0.5781   -2.9939    5.3546 O   0  0  0  0  0  0  0  0  0  0  0  0
   -0.5136   -2.5912    5.9795 C   0  0  0  0  0  0  0  0  0  0  0  0
   -1.2004   -1.4478    5.2398 C   0  0  0  0  0  0  0  0  0  0  0  0
   -0.9536   -3.0554    7.0289 O   0  0  0  0  0  0  0  0  0  0  0  0
    3.4871   -2.7550    5.2561 O   0  0  0  0  0  0  0  0  0  0  0  0
    2.9981   -1.5613    4.6920 C   0  0  1  0  0  0  0  0  0  0  0  0
    4.1971   -0.6328    4.5353 C   0  0  0  0  0  0  0  0  0  0  0  0
    5.1912   -1.3066    3.5786 C   0  0  0  0  0  0  0  0  0  0  0  0
    4.5254   -1.7539    2.2679 C   0  0  1  0  0  0  0  0  0  0  0  0
    5.3177   -1.0768    1.1380 C   0  0  0  0  0  0  0  0  0  0  0  0
    4.1660   -3.2287    1.9113 C   0  0  2  0  0  0  0  0  0  0  0  0
    2.8783   -2.7700    1.4078 O   0  0  0  0  0  0  0  0  0  0  0  0
    2.9928   -1.5620    2.2071 C   0  0  2  0  0  0  0  0  0  0  0  0
    2.3686   -0.3700    1.4760 C   0  0  0  0  0  0  0  0  0  0  0  0
    2.9039    0.8579    1.9295 O   0  0  0  0  0  0  0  0  0  0  0  0
    2.3132   -1.6901    3.4647 O   0  0  0  0  0  0  0  0  0  0  0  0
    1.1857   -6.8548    1.2193 C   0  0  0  0  0  0  0  0  0  0  0  0
    1.4153   -8.2734    1.5205 O   0  0  0  0  0  0  0  0  0  0  0  0
    1.0363   -8.5283    2.8829 C   0  0  1  0  0  0  0  0  0  0  0  0
    0.0656   -9.6882    2.9997 C   0  0  0  0  0  0  0  0  0  0  0  0
    1.1415  -10.5283    3.5208 O   0  0  0  0  0  0  0  0  0  0  0  0
    1.8132   -9.3264    3.9474 C   0  0  1  0  0  0  0  0  0  0  0  0
    0.7841   -7.2042    3.3985 C   0  0  0  0  0  0  0  0  0  0  0  0
   -0.0019   -6.8160    4.2869 O   0  0  0  0  0  0  0  0  0  0  0  0
    3.8461   -6.8577   10.2333 H   0  0  0  0  0  0  0  0  0  0  0  0
    2.9752   -8.2232    9.5431 H   0  0  0  0  0  0  0  0  0  0  0  0
    2.1863   -6.6433    9.6883 H   0  0  0  0  0  0  0  0  0  0  0  0
    1.7565   -6.6527    7.3648 H   0  0  0  0  0  0  0  0  0  0  0  0
    4.4655   -9.2618    7.0873 H   0  0  0  0  0  0  0  0  0  0  0  0
    3.7777  -10.1436    3.4347 H   0  0  0  0  0  0  0  0  0  0  0  0
    6.0564   -8.4573    5.6949 H   0  0  0  0  0  0  0  0  0  0  0  0
    2.4831   -6.6574    5.1482 H   0  0  0  0  0  0  0  0  0  0  0  0
    4.0034   -4.7357    6.8007 H   0  0  0  0  0  0  0  0  0  0  0  0
    6.0213   -4.9967    5.6659 H   0  0  0  0  0  0  0  0  0  0  0  0
    6.1519   -4.5211    3.2757 H   0  0  0  0  0  0  0  0  0  0  0  0
    0.5975   -4.7208    3.6423 H   0  0  0  0  0  0  0  0  0  0  0  0
    0.9977   -4.8956    5.9963 H   0  0  0  0  0  0  0  0  0  0  0  0
    1.7105   -3.6129    6.9623 H   0  0  0  0  0  0  0  0  0  0  0  0
   -0.5006   -0.6347    5.0442 H   0  0  0  0  0  0  0  0  0  0  0  0
   -2.0384   -1.0461    5.8073 H   0  0  0  0  0  0  0  0  0  0  0  0
   -1.5657   -1.7911    4.2752 H   0  0  0  0  0  0  0  0  0  0  0  0
    2.2972   -1.1058    5.3918 H   0  0  0  0  0  0  0  0  0  0  0  0
    3.8545    0.3401    4.1767 H   0  0  0  0  0  0  0  0  0  0  0  0
    4.6357   -0.4500    5.5166 H   0  0  0  0  0  0  0  0  0  0  0  0
    6.0153   -0.6103    3.4011 H   0  0  0  0  0  0  0  0  0  0  0  0
    5.6376   -2.1475    4.0950 H   0  0  0  0  0  0  0  0  0  0  0  0
    4.8887   -1.3059    0.1657 H   0  0  0  0  0  0  0  0  0  0  0  0
    6.3573   -1.4055    1.1217 H   0  0  0  0  0  0  0  0  0  0  0  0
    5.3152    0.0089    1.2317 H   0  0  0  0  0  0  0  0  0  0  0  0
    4.7998   -3.4967    1.0730 H   0  0  0  0  0  0  0  0  0  0  0  0
    2.6077   -0.4006    0.4170 H   0  0  0  0  0  0  0  0  0  0  0  0
    1.2826   -0.3668    1.5741 H   0  0  0  0  0  0  0  0  0  0  0  0
    2.4281    1.5724    1.5361 H   0  0  0  0  0  0  0  0  0  0  0  0
    0.1312   -6.6580    1.0084 H   0  0  0  0  0  0  0  0  0  0  0  0
    1.7831   -6.5152    0.3621 H   0  0  0  0  0  0  0  0  0  0  0  0
   -0.7271   -9.5126    3.7206 H   0  0  0  0  0  0  0  0  0  0  0  0
   -0.3333  -10.0573    2.0666 H   0  0  0  0  0  0  0  0  0  0  0  0
    1.3754   -9.0365    4.9077 H   0  0  0  0  0  0  0  0  0  0  0  0
  1  2  1  0
  1 48  1  0
  1 49  1  0
  1 50  1  0
  2  3  1  0
  3 11  1  0
  3  4  1  0
  3 51  1  1
  4  5  1  0
  5  9  1  0
  5  6  1  0
  5 52  1  1
  6  7  1  0
  7 45  1  0
  7  8  1  0
  7 53  1  6
  8  9  1  0
  9 10  1  6
  9 11  1  0
 10 54  1  0
 11 12  1  0
 11 55  1  6
 12 22  1  0
 12 13  1  0
 12 56  1  1
 13 14  2  0
 13 57  1  0
 15 14  1  1
 14 58  1  0
 15 21  1  0
 15 34  1  0
 15 16  1  0
 16 17  2  0
 16 18  1  0
 19 18  1  1
 19 46  1  0
 19 20  1  0
 19 40  1  0
 20 21  2  0
 20 59  1  0
 21 22  1  0
 22 23  1  1
 22 28  1  0
 23 24  1  0
 23 60  1  0
 23 61  1  0
 24 25  1  0
 25 26  1  0
 25 27  2  0
 26 62  1  0
 26 63  1  0
 26 64  1  0
 28 29  1  0
 29 39  1  0
 29 30  1  0
 29 65  1  1
 30 31  1  0
 30 66  1  0
 30 67  1  0
 31 32  1  0
 31 68  1  0
 31 69  1  0
 32 36  1  0
 32 33  1  6
 32 34  1  0
 33 70  1  0
 33 71  1  0
 33 72  1  0
 34 35  1  0
 34 73  1  6
 35 36  1  0
 36 37  1  6
 36 39  1  0
 37 38  1  0
 37 74  1  0
 37 75  1  0
 38 76  1  0
 40 41  1  0
 40 77  1  0
 40 78  1  0
 42 41  1  6
 42 45  1  0
 42 43  1  0
 42 46  1  0
 43 44  1  0
 43 79  1  0
 43 80  1  0
 44 45  1  0
 45 81  1  1
 46 47  2  0
M  END
>  <i_m_ct_stereo_status>  (108) 
1

>  <s_m_source_file>  (108) 
/var/tmp/pbs.5076253.sched01/tmpx6ss0mji/80_l3th0xi.sdf

>  <i_m_source_file_index>  (108) 
16

>  <i_lp_mmshare_version>  (108) 
48012

>  <i_f3d_flags>  (108) 
0

>  <s_epik_input>  (108) 
Tz1DMU9bQ0BdKFtDSF09MikoQzM9TylbQ0gyXU9bQ0BAXTMoW0NIMl1PNClbQ0BASF00W0NAQEhdKE81KU9bQ0BIXShPW0NASF02T1tDSDNdKVtDQF01KFtPSF0pW0NAQEhdNltDQEBIXShbQ0hdPVtDSF03KVtDQEBdKEMyW0NAXTE3OCkoW0NIMl1PQyg9TylbQ0gzXSlPW0NASF05W0NIMl1bQ0gyXVtDQEBdMShbQ0gzXSlbQ0BASF04T1tDQF0xKE85KVtDSDJdW09IXQ==

>  <s_epik_cmdline>  (108) 
J2VwaWtfcHl0aG9uJywgJy1waHQnLCAnMi4wJywgJy1waCcsICc3LjAnLCAnLXRuJywgJzgnLCAnLW1hJywgJzIwMCcsICctaW1hZScsICc8aW5maWxlLm1hZT4nLCAnLW9tYWUnLCAnPG91dGZpbGUubWFlPic=

>  <r_epik_Ionization_Penalty>  (108) 
0.00175396

>  <r_epik_Ionization_Penalty_Charging>  (108) 
0

>  <r_epik_Ionization_Penalty_Neutral>  (108) 
0.00175396

>  <r_epik_State_Penalty>  (108) 
0.00118749

>  <r_epik_Charging_Adjusted_Penalty>  (108) 
0.00118749

>  <i_epik_Tot_Q>  (108) 
0

>  <i_epik_Tot_abs_Q>  (108) 
0

>  <s_epik_Chemistry_Notes>  (108) 
This compound has an ester and may undergo hydrolysis at high or low pH. This compound contains an acetal/aminal-like group ( X-CH(R)-Y where X, Y are N, S, or O) that may be acid/base labile, releasing an aldehyde.

>  <s_lp_Force_Field>  (108) 
OPLS3e

>  <r_lp_Energy>  (108) 
150.984

>  <b_lp_Chiralities_Consistent>  (108) 
1

>  <s_lp_Variant>  (108) 
65:0-1

>  <s_i_glide_gridfile>  (108) 
pfpi4k_grid

>  <i_i_glide_lignum>  (108) 
16

>  <i_i_glide_rotatable_bonds>  (108) 
7

>  <r_i_docking_score>  (108) 
-1.43057

>  <r_i_glide_ligand_efficiency>  (108) 
-0.0304377

>  <r_i_glide_ligand_efficiency_sa>  (108) 
-0.109844

>  <r_i_glide_ligand_efficiency_ln>  (108) 
-0.294954

>  <r_i_glide_gscore>  (108) 
-1.43057

>  <r_i_glide_lipo>  (108) 
-0.252314

>  <r_i_glide_hbond>  (108) 
-0.00519121

>  <r_i_glide_metal>  (108) 
-0

>  <r_i_glide_rewards>  (108) 
-0.0178011

>  <r_i_glide_evdw>  (108) 
-28.4307

>  <r_i_glide_ecoul>  (108) 
1.3635

>  <r_i_glide_erotb>  (108) 
0.145462

>  <r_i_glide_esite>  (108) 
-0.0837174

>  <r_i_glide_emodel>  (108) 
-27.9959

>  <r_i_glide_energy>  (108) 
-27.0672

>  <r_i_glide_einternal>  (108) 
2.98924

>  <r_i_glide_intrahb_reward>  (108) 
-0

>  <i_i_glide_confnum>  (108) 
1

>  <i_i_glide_posenum>  (108) 
33

>  <r_i_glide_eff_state_penalty>  (108) 
0

>  <ligand_id>  (108) 
65

>  <original_smiles>  (108) 
COC1OC2OC3OC2(O)C1C1C=CC24C(=O)OC5(C=C2C1(COC(C)=O)OC1CCC2(C)C4OC2(CO)O1)COC1(COC31)C5=O

>  <smiles>  (108) 
[H]OC([H])([H])C12OC3([H])OC4(C([H])([H])OC(=O)C([H])([H])[H])C5=C([H])C67OC(=O)C5(C([H])=C([H])C4([H])C4([H])C([H])(OC([H])([H])[H])OC5([H])OC([H])(OC54O[H])C4([H])OC([H])([H])C4(OC6([H])[H])C7=O)C([H])(O1)C2(C([H])([H])[H])C([H])([H])C3([H])[H]

$$$$
66:0:0
     RDKit          3D

 46 51  0  0  1  0  0  0  0  0999 V2000
    3.3587    0.3946   -5.1525 C   0  0  0  0  0  0  0  0  0  0  0  0
    3.3011   -0.3527   -3.9494 O   0  0  0  0  0  0  0  0  0  0  0  0
    4.0137   -1.5809   -3.9610 C   0  0  0  0  0  0  0  0  0  0  0  0
    4.0774   -2.1636   -2.5510 C   0  0  2  0  0  0  0  0  0  0  0  0
    2.8622   -2.7987   -2.1170 O   0  0  0  0  0  0  0  0  0  0  0  0
    3.2295   -1.5944   -1.4362 C   0  0  1  0  0  0  0  0  0  0  0  0
    3.9428   -1.6671   -0.1231 C   0  0  1  0  0  0  0  0  0  0  0  0
    3.7570   -0.7811    0.9666 O   0  0  0  0  0  0  0  0  0  0  0  0
    4.9626   -0.3300    1.5849 C   0  0  1  0  0  0  0  0  0  0  0  0
    4.7115    0.1446    2.8855 O   0  0  0  0  0  0  0  0  0  0  0  0
    6.1674   -1.3773    1.6336 C   0  0  2  0  0  0  0  0  0  0  0  0
    6.8223   -1.6028    0.3742 O   0  0  0  0  0  0  0  0  0  0  0  0
    6.8076   -2.9878    0.1495 C   0  0  1  0  0  0  0  0  0  0  0  0
    8.1358   -3.4393   -0.5116 C   0  0  0  0  0  0  0  0  0  0  0  0
    9.2883   -2.8599    0.0818 O   0  0  0  0  0  0  0  0  0  0  0  0
    6.7207   -3.5905    1.4058 O   0  0  0  0  0  0  0  0  0  0  0  0
    5.8276   -2.7814    2.1662 C   0  0  2  0  0  0  0  0  0  0  0  0
    4.4470   -3.2882    1.7992 C   0  0  1  0  0  0  0  0  0  0  0  0
    3.3776   -2.7687    2.5879 O   0  0  0  0  0  0  0  0  0  0  0  0
    3.3156   -3.2747    3.9160 C   0  0  0  0  0  0  0  0  0  0  0  0
    4.3156   -3.0987    0.2921 C   0  0  1  0  0  0  0  0  0  0  0  0
    4.5253   -4.4222   -0.4284 C   0  0  0  0  0  0  0  0  0  0  0  0
    5.5023   -3.3358   -0.6606 C   0  0  2  0  0  0  0  0  0  0  0  0
    5.4527   -2.7910   -2.1354 C   0  0  0  0  0  0  0  0  0  0  0  0
    5.7735   -3.7715   -2.9799 F   0  0  0  0  0  0  0  0  0  0  0  0
    6.3568   -1.8280   -2.2765 F   0  0  0  0  0  0  0  0  0  0  0  0
    2.7556    1.2944   -5.0469 H   0  0  0  0  0  0  0  0  0  0  0  0
    2.9807   -0.1651   -6.0072 H   0  0  0  0  0  0  0  0  0  0  0  0
    4.3757    0.7183   -5.3612 H   0  0  0  0  0  0  0  0  0  0  0  0
    3.5460   -2.2972   -4.6350 H   0  0  0  0  0  0  0  0  0  0  0  0
    5.0105   -1.3988   -4.3215 H   0  0  0  0  0  0  0  0  0  0  0  0
    2.6517   -0.6994   -1.6488 H   0  0  0  0  0  0  0  0  0  0  0  0
    4.8140   -1.1486   -0.5084 H   0  0  0  0  0  0  0  0  0  0  0  0
    5.2896    0.5365    1.0012 H   0  0  0  0  0  0  0  0  0  0  0  0
    4.1990    0.9460    2.8029 H   0  0  0  0  0  0  0  0  0  0  0  0
    6.9322   -0.9485    2.2830 H   0  0  0  0  0  0  0  0  0  0  0  0
    8.2134   -4.5245   -0.4249 H   0  0  0  0  0  0  0  0  0  0  0  0
    8.1472   -3.1826   -1.5713 H   0  0  0  0  0  0  0  0  0  0  0  0
    9.8365   -2.4697   -0.5975 H   0  0  0  0  0  0  0  0  0  0  0  0
    6.0319   -2.8835    3.2253 H   0  0  0  0  0  0  0  0  0  0  0  0
    4.4486   -4.3596    1.9989 H   0  0  0  0  0  0  0  0  0  0  0  0
    2.5187   -2.7638    4.4588 H   0  0  0  0  0  0  0  0  0  0  0  0
    4.2361   -3.1181    4.4801 H   0  0  0  0  0  0  0  0  0  0  0  0
    3.0915   -4.3430    3.9128 H   0  0  0  0  0  0  0  0  0  0  0  0
    4.8880   -5.2864    0.1234 H   0  0  0  0  0  0  0  0  0  0  0  0
    3.8202   -4.6704   -1.2052 H   0  0  0  0  0  0  0  0  0  0  0  0
  1  2  1  0
  1 27  1  0
  1 28  1  0
  1 29  1  0
  2  3  1  0
  4  3  1  6
  3 30  1  0
  3 31  1  0
  4  6  1  0
  4 24  1  0
  4  5  1  0
  5  6  1  0
  6  7  1  0
  6 32  1  6
  7 21  1  0
  7  8  1  0
  7 33  1  6
  8  9  1  0
  9 10  1  0
  9 11  1  0
  9 34  1  6
 10 35  1  0
 11 17  1  0
 11 12  1  0
 11 36  1  1
 12 13  1  0
 13 23  1  0
 13 14  1  6
 13 16  1  0
 14 15  1  0
 14 37  1  0
 14 38  1  0
 15 39  1  0
 16 17  1  0
 17 18  1  0
 17 40  1  1
 18 19  1  0
 18 21  1  0
 18 41  1  6
 19 20  1  0
 20 42  1  0
 20 43  1  0
 20 44  1  0
 21 23  1  0
 21 22  1  6
 23 22  1  6
 22 45  1  0
 22 46  1  0
 23 24  1  0
 24 25  1  0
 24 26  1  0
M  END
>  <i_m_ct_stereo_status>  (109) 
1

>  <s_m_source_file>  (109) 
/var/tmp/pbs.5076253.sched01/tmpx6ss0mji/80_l3th0xi.sdf

>  <i_m_source_file_index>  (109) 
17

>  <i_lp_mmshare_version>  (109) 
48012

>  <i_f3d_flags>  (109) 
0

>  <s_epik_input>  (109) 
W0NIM11PW0NIMl1bQ0BAXShPMSkoQzIoRilGKVtDQEBIXTFbQ0BIXTNPW0NAQEhdKFtPSF0pW0NASF0oT1tDQF00KFtDSDJdW09IXSlbQ0BdMihbQ0BdMzU2KVtDSDJdNilbQ0BIXShPNClbQ0BIXTVPW0NIM10=

>  <s_epik_cmdline>  (109) 
J2VwaWtfcHl0aG9uJywgJy1waHQnLCAnMi4wJywgJy1waCcsICc3LjAnLCAnLXRuJywgJzgnLCAnLW1hJywgJzIwMCcsICctaW1hZScsICc8aW5maWxlLm1hZT4nLCAnLW9tYWUnLCAnPG91dGZpbGUubWFlPic=

>  <r_lp_tautomer_probability>  (109) 
1

>  <r_epik_Ionization_Penalty>  (109) 
3.41369e-06

>  <r_epik_Ionization_Penalty_Charging>  (109) 
0

>  <r_epik_Ionization_Penalty_Neutral>  (109) 
3.41369e-06

>  <r_epik_State_Penalty>  (109) 
-0

>  <r_epik_Charging_Adjusted_Penalty>  (109) 
0

>  <i_epik_Tot_Q>  (109) 
0

>  <i_epik_Tot_abs_Q>  (109) 
0

>  <s_epik_Chemistry_Notes>  (109) 
This compound contains an acetal/aminal-like group ( X-CH(R)-Y where X, Y are N, S, or O) that may be acid/base labile, releasing an aldehyde.

>  <s_lp_Force_Field>  (109) 
OPLS3e

>  <r_lp_Energy>  (109) 
80.4743

>  <b_lp_Chiralities_Consistent>  (109) 
1

>  <s_lp_Variant>  (109) 
66:0-1

>  <s_i_glide_gridfile>  (109) 
pfpi4k_grid

>  <i_i_glide_lignum>  (109) 
17

>  <i_i_glide_rotatable_bonds>  (109) 
6

>  <r_i_docking_score>  (109) 
-3.50503

>  <r_i_glide_ligand_efficiency>  (109) 
-0.134809

>  <r_i_glide_ligand_efficiency_sa>  (109) 
-0.39937

>  <r_i_glide_ligand_efficiency_ln>  (109) 
-0.823144

>  <r_i_glide_gscore>  (109) 
-3.50503

>  <r_i_glide_lipo>  (109) 
-0.838033

>  <r_i_glide_hbond>  (109) 
0

>  <r_i_glide_metal>  (109) 
-0

>  <r_i_glide_rewards>  (109) 
-1.32066

>  <r_i_glide_evdw>  (109) 
-23.6618

>  <r_i_glide_ecoul>  (109) 
-2.10732

>  <r_i_glide_erotb>  (109) 
0.189545

>  <r_i_glide_esite>  (109) 
-0.0366905

>  <r_i_glide_emodel>  (109) 
-27.3843

>  <r_i_glide_energy>  (109) 
-25.7691

>  <r_i_glide_einternal>  (109) 
8.61799

>  <r_i_glide_intrahb_reward>  (109) 
-0

>  <i_i_glide_confnum>  (109) 
6

>  <i_i_glide_posenum>  (109) 
23

>  <r_i_glide_eff_state_penalty>  (109) 
0

>  <ligand_id>  (109) 
66

>  <original_smiles>  (109) 
COCC12OC1C1OC(O)C3OC4(CO)OC3C(OC)C13CC43C2(F)F

>  <smiles>  (109) 
[H]OC([H])([H])C12OC3([H])C([H])(O[H])OC4([H])C5([H])OC5(C([H])([H])OC([H])([H])[H])C(F)(F)C15C([H])([H])C45C([H])(OC([H])([H])[H])C3([H])O2

$$$$
66:0:1
     RDKit          3D

 46 51  0  0  1  0  0  0  0  0999 V2000
    3.8989   -8.9580    1.3197 C   0  0  0  0  0  0  0  0  0  0  0  0
    4.0674   -7.5819    1.0130 O   0  0  0  0  0  0  0  0  0  0  0  0
    3.2234   -6.7040    1.7490 C   0  0  0  0  0  0  0  0  0  0  0  0
    3.3788   -5.2787    1.2169 C   0  0  2  0  0  0  0  0  0  0  0  0
    2.5101   -4.9557    0.1127 O   0  0  0  0  0  0  0  0  0  0  0  0
    3.9145   -5.0304   -0.1784 C   0  0  1  0  0  0  0  0  0  0  0  0
    4.7367   -3.7783   -0.2207 C   0  0  1  0  0  0  0  0  0  0  0  0
    5.8075   -3.5245   -1.1166 O   0  0  0  0  0  0  0  0  0  0  0  0
    6.9699   -2.9492   -0.5179 C   0  0  1  0  0  0  0  0  0  0  0  0
    7.7850   -2.3442   -1.4958 O   0  0  0  0  0  0  0  0  0  0  0  0
    6.7178   -1.9227    0.6839 C   0  0  2  0  0  0  0  0  0  0  0  0
    6.2745   -2.5344    1.9040 O   0  0  0  0  0  0  0  0  0  0  0  0
    5.0860   -1.9170    2.3034 C   0  0  1  0  0  0  0  0  0  0  0  0
    5.0875   -1.7567    3.8348 C   0  0  0  0  0  0  0  0  0  0  0  0
    3.8067   -1.4595    4.3538 O   0  0  0  0  0  0  0  0  0  0  0  0
    5.1504   -0.6394    1.7400 O   0  0  0  0  0  0  0  0  0  0  0  0
    5.6922   -0.8066    0.4358 C   0  0  2  0  0  0  0  0  0  0  0  0
    4.5106   -1.2211   -0.4169 C   0  0  1  0  0  0  0  0  0  0  0  0
    4.8296   -1.2136   -1.8035 O   0  0  0  0  0  0  0  0  0  0  0  0
    3.7084   -1.4334   -2.6407 C   0  0  0  0  0  0  0  0  0  0  0  0
    3.9537   -2.5158    0.1820 C   0  0  1  0  0  0  0  0  0  0  0  0
    2.6957   -2.2239    1.0035 C   0  0  0  0  0  0  0  0  0  0  0  0
    3.8990   -2.7366    1.7002 C   0  0  2  0  0  0  0  0  0  0  0  0
    3.6986   -4.1821    2.2908 C   0  0  0  0  0  0  0  0  0  0  0  0
    2.7151   -4.1577    3.1921 F   0  0  0  0  0  0  0  0  0  0  0  0
    4.8076   -4.5893    2.9135 F   0  0  0  0  0  0  0  0  0  0  0  0
    4.5887   -9.5470    0.7151 H   0  0  0  0  0  0  0  0  0  0  0  0
    2.8884   -9.3036    1.0950 H   0  0  0  0  0  0  0  0  0  0  0  0
    4.1178   -9.1631    2.3682 H   0  0  0  0  0  0  0  0  0  0  0  0
    2.1813   -7.0060    1.6424 H   0  0  0  0  0  0  0  0  0  0  0  0
    3.4695   -6.7534    2.8087 H   0  0  0  0  0  0  0  0  0  0  0  0
    4.2761   -5.8960   -0.7238 H   0  0  0  0  0  0  0  0  0  0  0  0
    5.3804   -4.1115    0.5878 H   0  0  0  0  0  0  0  0  0  0  0  0
    7.5583   -3.7840   -0.1298 H   0  0  0  0  0  0  0  0  0  0  0  0
    8.0803   -3.0204   -2.0981 H   0  0  0  0  0  0  0  0  0  0  0  0
    7.6794   -1.4545    0.9145 H   0  0  0  0  0  0  0  0  0  0  0  0
    5.4289   -2.6838    4.2927 H   0  0  0  0  0  0  0  0  0  0  0  0
    5.8094   -0.9863    4.1073 H   0  0  0  0  0  0  0  0  0  0  0  0
    3.8823   -1.3376    5.2880 H   0  0  0  0  0  0  0  0  0  0  0  0
    6.1483    0.1185    0.0887 H   0  0  0  0  0  0  0  0  0  0  0  0
    3.7738   -0.4253   -0.2980 H   0  0  0  0  0  0  0  0  0  0  0  0
    4.0334   -1.4309   -3.6819 H   0  0  0  0  0  0  0  0  0  0  0  0
    2.9588   -0.6522   -2.5174 H   0  0  0  0  0  0  0  0  0  0  0  0
    3.2390   -2.3968   -2.4408 H   0  0  0  0  0  0  0  0  0  0  0  0
    2.4271   -1.1918    1.2187 H   0  0  0  0  0  0  0  0  0  0  0  0
    1.8332   -2.8710    0.8993 H   0  0  0  0  0  0  0  0  0  0  0  0
  1  2  1  0
  1 27  1  0
  1 28  1  0
  1 29  1  0
  2  3  1  0
  4  3  1  1
  3 30  1  0
  3 31  1  0
  4  6  1  0
  4 24  1  0
  4  5  1  0
  5  6  1  0
  6  7  1  0
  6 32  1  6
  7 21  1  0
  7  8  1  0
  7 33  1  1
  8  9  1  0
  9 10  1  0
  9 11  1  0
  9 34  1  1
 10 35  1  0
 11 17  1  0
 11 12  1  0
 11 36  1  1
 12 13  1  0
 13 23  1  0
 13 14  1  1
 13 16  1  0
 14 15  1  0
 14 37  1  0
 14 38  1  0
 15 39  1  0
 16 17  1  0
 17 18  1  0
 17 40  1  6
 18 19  1  0
 18 21  1  0
 18 41  1  6
 19 20  1  0
 20 42  1  0
 20 43  1  0
 20 44  1  0
 21 23  1  0
 21 22  1  6
 23 22  1  1
 22 45  1  0
 22 46  1  0
 23 24  1  0
 24 25  1  0
 24 26  1  0
M  END
>  <i_m_ct_stereo_status>  (110) 
1

>  <s_m_source_file>  (110) 
/var/tmp/pbs.5076253.sched01/tmpx6ss0mji/80_l3th0xi.sdf

>  <i_m_source_file_index>  (110) 
17

>  <i_lp_mmshare_version>  (110) 
48012

>  <i_f3d_flags>  (110) 
0

>  <s_epik_input>  (110) 
W0NIM11PW0NIMl1bQ0BAXShPMSkoQzIoRilGKVtDQEBIXTFbQ0BIXTNPW0NAQEhdKFtPSF0pW0NASF0oT1tDQF00KFtDSDJdW09IXSlbQ0BdMihbQ0BdMzU2KVtDSDJdNilbQ0BIXShPNClbQ0BIXTVPW0NIM10=

>  <s_epik_cmdline>  (110) 
J2VwaWtfcHl0aG9uJywgJy1waHQnLCAnMi4wJywgJy1waCcsICc3LjAnLCAnLXRuJywgJzgnLCAnLW1hJywgJzIwMCcsICctaW1hZScsICc8aW5maWxlLm1hZT4nLCAnLW9tYWUnLCAnPG91dGZpbGUubWFlPic=

>  <r_lp_tautomer_probability>  (110) 
1

>  <r_epik_Ionization_Penalty>  (110) 
3.41369e-06

>  <r_epik_Ionization_Penalty_Charging>  (110) 
0

>  <r_epik_Ionization_Penalty_Neutral>  (110) 
3.41369e-06

>  <r_epik_State_Penalty>  (110) 
-0

>  <r_epik_Charging_Adjusted_Penalty>  (110) 
0

>  <i_epik_Tot_Q>  (110) 
0

>  <i_epik_Tot_abs_Q>  (110) 
0

>  <s_epik_Chemistry_Notes>  (110) 
This compound contains an acetal/aminal-like group ( X-CH(R)-Y where X, Y are N, S, or O) that may be acid/base labile, releasing an aldehyde.

>  <s_lp_Force_Field>  (110) 
OPLS3e

>  <r_lp_Energy>  (110) 
80.4743

>  <b_lp_Chiralities_Consistent>  (110) 
1

>  <s_lp_Variant>  (110) 
66:0-1

>  <s_i_glide_gridfile>  (110) 
pfpi4k_grid

>  <i_i_glide_lignum>  (110) 
17

>  <i_i_glide_rotatable_bonds>  (110) 
6

>  <r_i_docking_score>  (110) 
-2.88556

>  <r_i_glide_ligand_efficiency>  (110) 
-0.110983

>  <r_i_glide_ligand_efficiency_sa>  (110) 
-0.328787

>  <r_i_glide_ligand_efficiency_ln>  (110) 
-0.677664

>  <r_i_glide_gscore>  (110) 
-2.88556

>  <r_i_glide_lipo>  (110) 
-0.305044

>  <r_i_glide_hbond>  (110) 
0

>  <r_i_glide_metal>  (110) 
-0

>  <r_i_glide_rewards>  (110) 
-1.00811

>  <r_i_glide_evdw>  (110) 
-20.4957

>  <r_i_glide_ecoul>  (110) 
-5.45144

>  <r_i_glide_erotb>  (110) 
0.270778

>  <r_i_glide_esite>  (110) 
-0.000679514

>  <r_i_glide_emodel>  (110) 
-30.3445

>  <r_i_glide_energy>  (110) 
-25.9472

>  <r_i_glide_einternal>  (110) 
1.46052

>  <r_i_glide_intrahb_reward>  (110) 
-0

>  <i_i_glide_confnum>  (110) 
2

>  <i_i_glide_posenum>  (110) 
2

>  <r_i_glide_eff_state_penalty>  (110) 
0

>  <ligand_id>  (110) 
66

>  <original_smiles>  (110) 
COCC12OC1C1OC(O)C3OC4(CO)OC3C(OC)C13CC43C2(F)F

>  <smiles>  (110) 
[H]OC([H])([H])C12OC3([H])C([H])(O[H])OC4([H])C5([H])OC5(C([H])([H])OC([H])([H])[H])C(F)(F)C15C([H])([H])C45C([H])(OC([H])([H])[H])C3([H])O2

$$$$
66:0:2
     RDKit          3D

 46 51  0  0  1  0  0  0  0  0999 V2000
    0.8549   -7.5159    2.7551 C   0  0  0  0  0  0  0  0  0  0  0  0
    1.2578   -6.2256    2.3084 O   0  0  0  0  0  0  0  0  0  0  0  0
    2.5609   -6.2282    1.7369 C   0  0  0  0  0  0  0  0  0  0  0  0
    2.9503   -4.8513    1.2040 C   0  0  2  0  0  0  0  0  0  0  0  0
    2.2295   -4.4497    0.0200 O   0  0  0  0  0  0  0  0  0  0  0  0
    3.6270   -4.7077   -0.1486 C   0  0  1  0  0  0  0  0  0  0  0  0
    4.5935   -3.5640   -0.1516 C   0  0  1  0  0  0  0  0  0  0  0  0
    5.7307   -3.4589   -0.9890 O   0  0  0  0  0  0  0  0  0  0  0  0
    6.9188   -3.0155   -0.3305 C   0  0  1  0  0  0  0  0  0  0  0  0
    7.8433   -2.5108   -1.2655 O   0  0  0  0  0  0  0  0  0  0  0  0
    6.7305   -1.9456    0.8422 C   0  0  2  0  0  0  0  0  0  0  0  0
    6.1706   -2.4790    2.0511 O   0  0  0  0  0  0  0  0  0  0  0  0
    5.0343   -1.7204    2.3698 C   0  0  1  0  0  0  0  0  0  0  0  0
    4.9619   -1.5327    3.8969 C   0  0  0  0  0  0  0  0  0  0  0  0
    3.7090   -1.0357    4.3207 O   0  0  0  0  0  0  0  0  0  0  0  0
    5.2776   -0.4668    1.7991 O   0  0  0  0  0  0  0  0  0  0  0  0
    5.8648   -0.7203    0.5262 C   0  0  2  0  0  0  0  0  0  0  0  0
    4.6963   -1.0058   -0.3913 C   0  0  1  0  0  0  0  0  0  0  0  0
    5.0923   -1.0591   -1.7554 O   0  0  0  0  0  0  0  0  0  0  0  0
    4.0048   -1.1386   -2.6589 C   0  0  0  0  0  0  0  0  0  0  0  0
    3.9497   -2.2084    0.1872 C   0  0  1  0  0  0  0  0  0  0  0  0
    2.7008   -1.7460    0.9362 C   0  0  0  0  0  0  0  0  0  0  0  0
    3.7859   -2.3940    1.7010 C   0  0  2  0  0  0  0  0  0  0  0  0
    3.3541   -3.7880    2.2882 C   0  0  0  0  0  0  0  0  0  0  0  0
    2.3341   -3.6102    3.1296 F   0  0  0  0  0  0  0  0  0  0  0  0
    4.3622   -4.3237    2.9791 F   0  0  0  0  0  0  0  0  0  0  0  0
   -0.1406   -7.4605    3.1986 H   0  0  0  0  0  0  0  0  0  0  0  0
    1.5307   -7.9103    3.5164 H   0  0  0  0  0  0  0  0  0  0  0  0
    0.8077   -8.2345    1.9340 H   0  0  0  0  0  0  0  0  0  0  0  0
    3.2962   -6.5584    2.4714 H   0  0  0  0  0  0  0  0  0  0  0  0
    2.5907   -6.9419    0.9119 H   0  0  0  0  0  0  0  0  0  0  0  0
    3.9074   -5.6103   -0.6866 H   0  0  0  0  0  0  0  0  0  0  0  0
    5.1439   -3.9512    0.6999 H   0  0  0  0  0  0  0  0  0  0  0  0
    7.3856   -3.9086    0.0930 H   0  0  0  0  0  0  0  0  0  0  0  0
    8.1210   -3.2281   -1.8212 H   0  0  0  0  0  0  0  0  0  0  0  0
    7.7280   -1.5846    1.1052 H   0  0  0  0  0  0  0  0  0  0  0  0
    5.1395   -2.4890    4.3880 H   0  0  0  0  0  0  0  0  0  0  0  0
    5.7605   -0.8593    4.2070 H   0  0  0  0  0  0  0  0  0  0  0  0
    3.5572   -0.2170    3.8758 H   0  0  0  0  0  0  0  0  0  0  0  0
    6.4464    0.1313    0.1796 H   0  0  0  0  0  0  0  0  0  0  0  0
    4.0632   -0.1225   -0.3175 H   0  0  0  0  0  0  0  0  0  0  0  0
    4.3917   -1.1967   -3.6766 H   0  0  0  0  0  0  0  0  0  0  0  0
    3.3632   -0.2598   -2.5945 H   0  0  0  0  0  0  0  0  0  0  0  0
    3.3995   -2.0277   -2.4804 H   0  0  0  0  0  0  0  0  0  0  0  0
    2.5459   -0.6833    1.1147 H   0  0  0  0  0  0  0  0  0  0  0  0
    1.7784   -2.2920    0.7985 H   0  0  0  0  0  0  0  0  0  0  0  0
  1  2  1  0
  1 27  1  0
  1 28  1  0
  1 29  1  0
  2  3  1  0
  4  3  1  1
  3 30  1  0
  3 31  1  0
  4  6  1  0
  4 24  1  0
  4  5  1  0
  5  6  1  0
  6  7  1  0
  6 32  1  6
  7 21  1  0
  7  8  1  0
  7 33  1  1
  8  9  1  0
  9 10  1  0
  9 11  1  0
  9 34  1  1
 10 35  1  0
 11 17  1  0
 11 12  1  0
 11 36  1  1
 12 13  1  0
 13 23  1  0
 13 14  1  1
 13 16  1  0
 14 15  1  0
 14 37  1  0
 14 38  1  0
 15 39  1  0
 16 17  1  0
 17 18  1  0
 17 40  1  6
 18 19  1  0
 18 21  1  0
 18 41  1  6
 19 20  1  0
 20 42  1  0
 20 43  1  0
 20 44  1  0
 21 23  1  0
 21 22  1  6
 23 22  1  1
 22 45  1  0
 22 46  1  0
 23 24  1  0
 24 25  1  0
 24 26  1  0
M  END
>  <i_m_ct_stereo_status>  (111) 
1

>  <s_m_source_file>  (111) 
/var/tmp/pbs.5076253.sched01/tmpx6ss0mji/80_l3th0xi.sdf

>  <i_m_source_file_index>  (111) 
17

>  <i_lp_mmshare_version>  (111) 
48012

>  <i_f3d_flags>  (111) 
0

>  <s_epik_input>  (111) 
W0NIM11PW0NIMl1bQ0BAXShPMSkoQzIoRilGKVtDQEBIXTFbQ0BIXTNPW0NAQEhdKFtPSF0pW0NASF0oT1tDQF00KFtDSDJdW09IXSlbQ0BdMihbQ0BdMzU2KVtDSDJdNilbQ0BIXShPNClbQ0BIXTVPW0NIM10=

>  <s_epik_cmdline>  (111) 
J2VwaWtfcHl0aG9uJywgJy1waHQnLCAnMi4wJywgJy1waCcsICc3LjAnLCAnLXRuJywgJzgnLCAnLW1hJywgJzIwMCcsICctaW1hZScsICc8aW5maWxlLm1hZT4nLCAnLW9tYWUnLCAnPG91dGZpbGUubWFlPic=

>  <r_lp_tautomer_probability>  (111) 
1

>  <r_epik_Ionization_Penalty>  (111) 
3.41369e-06

>  <r_epik_Ionization_Penalty_Charging>  (111) 
0

>  <r_epik_Ionization_Penalty_Neutral>  (111) 
3.41369e-06

>  <r_epik_State_Penalty>  (111) 
-0

>  <r_epik_Charging_Adjusted_Penalty>  (111) 
0

>  <i_epik_Tot_Q>  (111) 
0

>  <i_epik_Tot_abs_Q>  (111) 
0

>  <s_epik_Chemistry_Notes>  (111) 
This compound contains an acetal/aminal-like group ( X-CH(R)-Y where X, Y are N, S, or O) that may be acid/base labile, releasing an aldehyde.

>  <s_lp_Force_Field>  (111) 
OPLS3e

>  <r_lp_Energy>  (111) 
80.4743

>  <b_lp_Chiralities_Consistent>  (111) 
1

>  <s_lp_Variant>  (111) 
66:0-1

>  <s_i_glide_gridfile>  (111) 
pfpi4k_grid

>  <i_i_glide_lignum>  (111) 
17

>  <i_i_glide_rotatable_bonds>  (111) 
6

>  <r_i_docking_score>  (111) 
-2.86648

>  <r_i_glide_ligand_efficiency>  (111) 
-0.110249

>  <r_i_glide_ligand_efficiency_sa>  (111) 
-0.326613

>  <r_i_glide_ligand_efficiency_ln>  (111) 
-0.673184

>  <r_i_glide_gscore>  (111) 
-2.86648

>  <r_i_glide_lipo>  (111) 
-0.260064

>  <r_i_glide_hbond>  (111) 
-0.0624713

>  <r_i_glide_metal>  (111) 
-0

>  <r_i_glide_rewards>  (111) 
-1.04687

>  <r_i_glide_evdw>  (111) 
-20.2933

>  <r_i_glide_ecoul>  (111) 
-5.01664

>  <r_i_glide_erotb>  (111) 
0.270778

>  <r_i_glide_esite>  (111) 
-0.000694026

>  <r_i_glide_emodel>  (111) 
-29.8372

>  <r_i_glide_energy>  (111) 
-25.3099

>  <r_i_glide_einternal>  (111) 
1.0108

>  <r_i_glide_intrahb_reward>  (111) 
-0

>  <i_i_glide_confnum>  (111) 
6

>  <i_i_glide_posenum>  (111) 
3

>  <r_i_glide_eff_state_penalty>  (111) 
0

>  <ligand_id>  (111) 
66

>  <original_smiles>  (111) 
COCC12OC1C1OC(O)C3OC4(CO)OC3C(OC)C13CC43C2(F)F

>  <smiles>  (111) 
[H]OC([H])([H])C12OC3([H])C([H])(O[H])OC4([H])C5([H])OC5(C([H])([H])OC([H])([H])[H])C(F)(F)C15C([H])([H])C45C([H])(OC([H])([H])[H])C3([H])O2

$$$$
69:0:0
     RDKit          3D

 43 47  0  0  1  0  0  0  0  0999 V2000
    3.5948   -0.4385   -4.4246 C   0  0  0  0  0  0  0  0  0  0  0  0
    4.3874   -1.3970   -3.7255 O   0  0  0  0  0  0  0  0  0  0  0  0
    4.5567   -1.1251   -2.3346 C   0  0  2  0  0  0  0  0  0  0  0  0
    5.7852   -1.8141   -1.7715 C   0  0  0  0  0  0  0  0  0  0  0  0
    5.5770   -2.6693   -0.7442 C   0  0  0  0  0  0  0  0  0  0  0  0
    5.8141   -2.0301    0.6404 C   0  0  1  0  0  0  0  0  0  0  0  0
    7.2328   -1.4251    0.7633 C   0  0  0  0  0  0  0  0  0  0  0  0
    4.7675   -0.8766    0.7146 C   0  0  0  0  0  0  0  0  0  0  0  0
    3.3805   -1.2107    0.0721 C   0  0  2  0  0  0  0  0  0  0  0  0
    2.6402   -2.1543    0.8700 O   0  0  0  0  0  0  0  0  0  0  0  0
    3.1829   -3.3777    1.3071 C   0  0  2  0  0  0  0  0  0  0  0  0
    2.2214   -4.0419    2.0647 O   0  0  0  0  0  0  0  0  0  0  0  0
    2.8576   -4.7743    3.0494 C   0  0  0  0  0  0  0  0  0  0  0  0
    4.1133   -4.2370    3.2939 O   0  0  0  0  0  0  0  0  0  0  0  0
    4.2293   -3.1575    2.3863 C   0  0  1  0  0  0  0  0  0  0  0  0
    5.6634   -2.9818    1.8614 C   0  0  1  0  0  0  0  0  0  0  0  0
    6.3345   -4.2049    1.6413 O   0  0  0  0  0  0  0  0  0  0  0  0
    3.6367   -4.3302    0.1781 C   0  0  1  0  0  0  0  0  0  0  0  0
    2.5177   -5.0603   -0.2973 O   0  0  0  0  0  0  0  0  0  0  0  0
    4.3882   -3.6228   -0.9807 C   0  0  2  0  0  0  0  0  0  0  0  0
    4.9837   -4.6159   -1.7779 O   0  0  0  0  0  0  0  0  0  0  0  0
    3.3689   -2.9678   -1.6755 O   0  0  0  0  0  0  0  0  0  0  0  0
    3.3436   -1.5665   -1.4850 C   0  0  2  0  0  0  0  0  0  0  0  0
    3.4578   -0.7483   -5.4612 H   0  0  0  0  0  0  0  0  0  0  0  0
    4.0777    0.5434   -4.4343 H   0  0  0  0  0  0  0  0  0  0  0  0
    2.6066   -0.3223   -3.9904 H   0  0  0  0  0  0  0  0  0  0  0  0
    4.7141   -0.0539   -2.2062 H   0  0  0  0  0  0  0  0  0  0  0  0
    6.5329   -1.0691   -1.6774 H   0  0  0  0  0  0  0  0  0  0  0  0
    7.3893   -1.0196    1.7562 H   0  0  0  0  0  0  0  0  0  0  0  0
    7.4074   -0.5838    0.1024 H   0  0  0  0  0  0  0  0  0  0  0  0
    8.0127   -2.1657    0.5822 H   0  0  0  0  0  0  0  0  0  0  0  0
    4.6382   -0.5254    1.7436 H   0  0  0  0  0  0  0  0  0  0  0  0
    5.1628   -0.0037    0.1921 H   0  0  0  0  0  0  0  0  0  0  0  0
    2.8191   -0.2779    0.1579 H   0  0  0  0  0  0  0  0  0  0  0  0
    2.2547   -4.7377    3.9555 H   0  0  0  0  0  0  0  0  0  0  0  0
    2.9775   -5.8105    2.7157 H   0  0  0  0  0  0  0  0  0  0  0  0
    3.9213   -2.2776    2.9558 H   0  0  0  0  0  0  0  0  0  0  0  0
    6.1822   -2.5354    2.7155 H   0  0  0  0  0  0  0  0  0  0  0  0
    6.2633   -4.7132    2.4342 H   0  0  0  0  0  0  0  0  0  0  0  0
    4.3102   -5.0740    0.6004 H   0  0  0  0  0  0  0  0  0  0  0  0
    2.7154   -5.4152   -1.1669 H   0  0  0  0  0  0  0  0  0  0  0  0
    4.2870   -5.1344   -2.1712 H   0  0  0  0  0  0  0  0  0  0  0  0
    2.4551   -1.1682   -1.9687 H   0  0  0  0  0  0  0  0  0  0  0  0
  1  2  1  0
  1 24  1  0
  1 25  1  0
  1 26  1  0
  2  3  1  0
  3 23  1  0
  3  4  1  0
  3 27  1  6
  4  5  2  0
  4 28  1  0
  5 20  1  0
  5  6  1  0
  6 16  1  0
  6  7  1  6
  6  8  1  0
  7 29  1  0
  7 30  1  0
  7 31  1  0
  8  9  1  0
  8 32  1  0
  8 33  1  0
  9 23  1  0
  9 10  1  0
  9 34  1  6
 10 11  1  0
 11 15  1  0
 11 12  1  1
 11 18  1  0
 12 13  1  0
 13 14  1  0
 13 35  1  0
 13 36  1  0
 14 15  1  0
 15 16  1  0
 15 37  1  1
 16 17  1  0
 16 38  1  1
 17 39  1  0
 18 19  1  0
 18 20  1  0
 18 40  1  1
 19 41  1  0
 20 21  1  6
 20 22  1  0
 21 42  1  0
 22 23  1  0
 23 43  1  6
M  END
>  <i_m_ct_stereo_status>  (112) 
1

>  <s_m_source_file>  (112) 
/var/tmp/pbs.5076253.sched01/tmpx6ss0mji/80_l3th0xi.sdf

>  <i_m_source_file_index>  (112) 
22

>  <i_lp_mmshare_version>  (112) 
48012

>  <i_f3d_flags>  (112) 
0

>  <s_epik_input>  (112) 
W0NIM11PW0NASF0oW0NIXT0xKVtDQEhdKFtDQEBIXShPMilbQ0gyXTMpT1tDQF0oW09IXSkoW0NAQEhdNFtPSF0pQzFbQ0BdMyhbQ0gzXSlbQ0BIXShbT0hdKVtDQEBIXShbQ0BAXTI0NSlPW0NIMl1PNQ==

>  <s_epik_cmdline>  (112) 
J2VwaWtfcHl0aG9uJywgJy1waHQnLCAnMi4wJywgJy1waCcsICc3LjAnLCAnLXRuJywgJzgnLCAnLW1hJywgJzIwMCcsICctaW1hZScsICc8aW5maWxlLm1hZT4nLCAnLW9tYWUnLCAnPG91dGZpbGUubWFlPic=

>  <r_epik_Ionization_Penalty>  (112) 
0.00454124

>  <r_epik_Ionization_Penalty_Charging>  (112) 
0

>  <r_epik_Ionization_Penalty_Neutral>  (112) 
0.00454124

>  <r_epik_State_Penalty>  (112) 
0.00320716

>  <r_epik_Charging_Adjusted_Penalty>  (112) 
0.00320716

>  <i_epik_Tot_Q>  (112) 
0

>  <i_epik_Tot_abs_Q>  (112) 
0

>  <s_epik_Chemistry_Notes>  (112) 
This compound contains an acetal/aminal-like group ( X-CH(R)-Y where X, Y are N, S, or O) that may be acid/base labile, releasing an aldehyde.

>  <s_lp_Force_Field>  (112) 
OPLS3e

>  <r_lp_Energy>  (112) 
101.489

>  <b_lp_Chiralities_Consistent>  (112) 
1

>  <s_lp_Variant>  (112) 
69:0-1

>  <s_i_glide_gridfile>  (112) 
pfpi4k_grid

>  <i_i_glide_lignum>  (112) 
22

>  <i_i_glide_rotatable_bonds>  (112) 
4

>  <r_i_docking_score>  (112) 
-3.72467

>  <r_i_glide_ligand_efficiency>  (112) 
-0.161942

>  <r_i_glide_ligand_efficiency_sa>  (112) 
-0.460542

>  <r_i_glide_ligand_efficiency_ln>  (112) 
-0.900658

>  <r_i_glide_gscore>  (112) 
-3.72467

>  <r_i_glide_lipo>  (112) 
-0.531861

>  <r_i_glide_hbond>  (112) 
0

>  <r_i_glide_metal>  (112) 
-0

>  <r_i_glide_rewards>  (112) 
-1.17058

>  <r_i_glide_evdw>  (112) 
-13.8229

>  <r_i_glide_ecoul>  (112) 
-8.84126

>  <r_i_glide_erotb>  (112) 
0

>  <r_i_glide_esite>  (112) 
-0.00488863

>  <r_i_glide_emodel>  (112) 
-26.7634

>  <r_i_glide_energy>  (112) 
-22.6642

>  <r_i_glide_einternal>  (112) 
3.44395

>  <r_i_glide_intrahb_reward>  (112) 
-0

>  <i_i_glide_confnum>  (112) 
2

>  <i_i_glide_posenum>  (112) 
16

>  <r_i_glide_eff_state_penalty>  (112) 
0

>  <ligand_id>  (112) 
69

>  <original_smiles>  (112) 
COC1C=C2C3(C)CC4OC5(OCOC5C3O)C(O)C2(O)OC14

>  <smiles>  (112) 
[H]OC12OC3([H])C([H])(OC([H])([H])[H])C([H])=C1C1(C([H])([H])[H])C([H])([H])C3([H])OC3(OC([H])([H])OC3([H])C1([H])O[H])C2([H])O[H]

$$$$
69:0:1
     RDKit          3D

 43 47  0  0  1  0  0  0  0  0999 V2000
    5.0989   -1.6077   -0.2567 C   0  0  0  0  0  0  0  0  0  0  0  0
    4.6774   -1.1733    1.0304 O   0  0  0  0  0  0  0  0  0  0  0  0
    4.3186   -2.1670    2.0045 C   0  0  2  0  0  0  0  0  0  0  0  0
    5.2558   -3.3403    2.0852 C   0  0  0  0  0  0  0  0  0  0  0  0
    4.6779   -4.5621    1.9189 C   0  0  0  0  0  0  0  0  0  0  0  0
    4.4787   -5.2881    3.2519 C   0  0  1  0  0  0  0  0  0  0  0  0
    5.7987   -5.4273    4.0628 C   0  0  0  0  0  0  0  0  0  0  0  0
    3.5069   -4.3545    4.0412 C   0  0  0  0  0  0  0  0  0  0  0  0
    2.4024   -3.6591    3.1658 C   0  0  2  0  0  0  0  0  0  0  0  0
    1.4032   -4.6065    2.7543 O   0  0  0  0  0  0  0  0  0  0  0  0
    1.7159   -5.8256    2.1013 C   0  0  2  0  0  0  0  0  0  0  0  0
    0.5319   -6.4928    1.8398 O   0  0  0  0  0  0  0  0  0  0  0  0
    0.7899   -7.8611    1.9126 C   0  0  0  0  0  0  0  0  0  0  0  0
    1.9022   -8.0964    2.7073 O   0  0  0  0  0  0  0  0  0  0  0  0
    2.3646   -6.8086    3.0686 C   0  0  1  0  0  0  0  0  0  0  0  0
    3.9032   -6.7265    3.1533 C   0  0  1  0  0  0  0  0  0  0  0  0
    4.5570   -7.4720    2.1446 O   0  0  0  0  0  0  0  0  0  0  0  0
    2.4870   -5.6971    0.7647 C   0  0  1  0  0  0  0  0  0  0  0  0
    1.5676   -5.4550   -0.2913 O   0  0  0  0  0  0  0  0  0  0  0  0
    3.5972   -4.6206    0.7906 C   0  0  2  0  0  0  0  0  0  0  0  0
    4.3625   -4.7734   -0.3760 O   0  0  0  0  0  0  0  0  0  0  0  0
    2.8573   -3.4397    0.7641 O   0  0  0  0  0  0  0  0  0  0  0  0
    2.8550   -2.7025    1.9676 C   0  0  2  0  0  0  0  0  0  0  0  0
    5.3050   -0.7547   -0.9013 H   0  0  0  0  0  0  0  0  0  0  0  0
    4.3402   -2.2001   -0.7597 H   0  0  0  0  0  0  0  0  0  0  0  0
    6.0206   -2.1822   -0.1848 H   0  0  0  0  0  0  0  0  0  0  0  0
    4.3978   -1.6521    2.9609 H   0  0  0  0  0  0  0  0  0  0  0  0
    5.9561   -3.1460    2.8725 H   0  0  0  0  0  0  0  0  0  0  0  0
    5.6532   -5.9935    4.9837 H   0  0  0  0  0  0  0  0  0  0  0  0
    6.1965   -4.4758    4.3963 H   0  0  0  0  0  0  0  0  0  0  0  0
    6.5669   -5.9273    3.4730 H   0  0  0  0  0  0  0  0  0  0  0  0
    3.0561   -4.8773    4.8907 H   0  0  0  0  0  0  0  0  0  0  0  0
    4.0945   -3.5586    4.5031 H   0  0  0  0  0  0  0  0  0  0  0  0
    1.8917   -2.9936    3.8684 H   0  0  0  0  0  0  0  0  0  0  0  0
   -0.0783   -8.3500    2.3476 H   0  0  0  0  0  0  0  0  0  0  0  0
    1.0014   -8.2586    0.9142 H   0  0  0  0  0  0  0  0  0  0  0  0
    1.9218   -6.6239    4.0500 H   0  0  0  0  0  0  0  0  0  0  0  0
    4.1274   -7.2669    4.0773 H   0  0  0  0  0  0  0  0  0  0  0  0
    4.2491   -8.3682    2.2029 H   0  0  0  0  0  0  0  0  0  0  0  0
    2.9377   -6.6643    0.5401 H   0  0  0  0  0  0  0  0  0  0  0  0
    2.0280   -5.4847   -1.1442 H   0  0  0  0  0  0  0  0  0  0  0  0
    3.7675   -5.0181   -1.0736 H   0  0  0  0  0  0  0  0  0  0  0  0
    2.1456   -1.8793    1.8798 H   0  0  0  0  0  0  0  0  0  0  0  0
  1  2  1  0
  1 24  1  0
  1 25  1  0
  1 26  1  0
  2  3  1  0
  3 23  1  0
  3  4  1  0
  3 27  1  1
  4  5  2  0
  4 28  1  0
  5 20  1  0
  5  6  1  0
  6 16  1  0
  6  7  1  1
  6  8  1  0
  7 29  1  0
  7 30  1  0
  7 31  1  0
  8  9  1  0
  8 32  1  0
  8 33  1  0
  9 23  1  0
  9 10  1  0
  9 34  1  1
 10 11  1  0
 11 15  1  0
 11 12  1  6
 11 18  1  0
 12 13  1  0
 13 14  1  0
 13 35  1  0
 13 36  1  0
 14 15  1  0
 15 16  1  0
 15 37  1  1
 16 17  1  0
 16 38  1  1
 17 39  1  0
 18 19  1  0
 18 20  1  0
 18 40  1  6
 19 41  1  0
 20 21  1  6
 20 22  1  0
 21 42  1  0
 22 23  1  0
 23 43  1  6
M  END
>  <i_m_ct_stereo_status>  (113) 
1

>  <s_m_source_file>  (113) 
/var/tmp/pbs.5076253.sched01/tmpx6ss0mji/80_l3th0xi.sdf

>  <i_m_source_file_index>  (113) 
22

>  <i_lp_mmshare_version>  (113) 
48012

>  <i_f3d_flags>  (113) 
0

>  <s_epik_input>  (113) 
W0NIM11PW0NASF0oW0NIXT0xKVtDQEhdKFtDQEBIXShPMilbQ0gyXTMpT1tDQF0oW09IXSkoW0NAQEhdNFtPSF0pQzFbQ0BdMyhbQ0gzXSlbQ0BIXShbT0hdKVtDQEBIXShbQ0BAXTI0NSlPW0NIMl1PNQ==

>  <s_epik_cmdline>  (113) 
J2VwaWtfcHl0aG9uJywgJy1waHQnLCAnMi4wJywgJy1waCcsICc3LjAnLCAnLXRuJywgJzgnLCAnLW1hJywgJzIwMCcsICctaW1hZScsICc8aW5maWxlLm1hZT4nLCAnLW9tYWUnLCAnPG91dGZpbGUubWFlPic=

>  <r_epik_Ionization_Penalty>  (113) 
0.00454124

>  <r_epik_Ionization_Penalty_Charging>  (113) 
0

>  <r_epik_Ionization_Penalty_Neutral>  (113) 
0.00454124

>  <r_epik_State_Penalty>  (113) 
0.00320716

>  <r_epik_Charging_Adjusted_Penalty>  (113) 
0.00320716

>  <i_epik_Tot_Q>  (113) 
0

>  <i_epik_Tot_abs_Q>  (113) 
0

>  <s_epik_Chemistry_Notes>  (113) 
This compound contains an acetal/aminal-like group ( X-CH(R)-Y where X, Y are N, S, or O) that may be acid/base labile, releasing an aldehyde.

>  <s_lp_Force_Field>  (113) 
OPLS3e

>  <r_lp_Energy>  (113) 
101.489

>  <b_lp_Chiralities_Consistent>  (113) 
1

>  <s_lp_Variant>  (113) 
69:0-1

>  <s_i_glide_gridfile>  (113) 
pfpi4k_grid

>  <i_i_glide_lignum>  (113) 
22

>  <i_i_glide_rotatable_bonds>  (113) 
4

>  <r_i_docking_score>  (113) 
-3.55312

>  <r_i_glide_ligand_efficiency>  (113) 
-0.154484

>  <r_i_glide_ligand_efficiency_sa>  (113) 
-0.439331

>  <r_i_glide_ligand_efficiency_ln>  (113) 
-0.859177

>  <r_i_glide_gscore>  (113) 
-3.55312

>  <r_i_glide_lipo>  (113) 
-0.0763739

>  <r_i_glide_hbond>  (113) 
-0.0733572

>  <r_i_glide_metal>  (113) 
-0

>  <r_i_glide_rewards>  (113) 
-1.17058

>  <r_i_glide_evdw>  (113) 
-14.0731

>  <r_i_glide_ecoul>  (113) 
-9.57248

>  <r_i_glide_erotb>  (113) 
0

>  <r_i_glide_esite>  (113) 
-0.0932848

>  <r_i_glide_emodel>  (113) 
-25.9829

>  <r_i_glide_energy>  (113) 
-23.6455

>  <r_i_glide_einternal>  (113) 
6.22771

>  <r_i_glide_intrahb_reward>  (113) 
-0

>  <i_i_glide_confnum>  (113) 
2

>  <i_i_glide_posenum>  (113) 
21

>  <r_i_glide_eff_state_penalty>  (113) 
0

>  <ligand_id>  (113) 
69

>  <original_smiles>  (113) 
COC1C=C2C3(C)CC4OC5(OCOC5C3O)C(O)C2(O)OC14

>  <smiles>  (113) 
[H]OC12OC3([H])C([H])(OC([H])([H])[H])C([H])=C1C1(C([H])([H])[H])C([H])([H])C3([H])OC3(OC([H])([H])OC3([H])C1([H])O[H])C2([H])O[H]

$$$$
69:0:2
     RDKit          3D

 43 47  0  0  1  0  0  0  0  0999 V2000
    3.6459   -0.5747   -4.3804 C   0  0  0  0  0  0  0  0  0  0  0  0
    4.4701   -1.4651   -3.6293 O   0  0  0  0  0  0  0  0  0  0  0  0
    4.5802   -1.1496   -2.2429 C   0  0  2  0  0  0  0  0  0  0  0  0
    5.7847   -1.8157   -1.6010 C   0  0  0  0  0  0  0  0  0  0  0  0
    5.5479   -2.6376   -0.5652 C   0  0  0  0  0  0  0  0  0  0  0  0
    5.7065   -1.9489    0.8090 C   0  0  1  0  0  0  0  0  0  0  0  0
    7.1087   -1.3133    0.9780 C   0  0  0  0  0  0  0  0  0  0  0  0
    4.6564   -0.7922    0.7997 C   0  0  0  0  0  0  0  0  0  0  0  0
    3.3067   -1.1705    0.1095 C   0  0  2  0  0  0  0  0  0  0  0  0
    2.5427   -2.0909    0.9051 O   0  0  0  0  0  0  0  0  0  0  0  0
    3.0661   -3.2896    1.4164 C   0  0  2  0  0  0  0  0  0  0  0  0
    2.0806   -3.9319    2.1509 O   0  0  0  0  0  0  0  0  0  0  0  0
    2.6726   -4.6207    3.1905 C   0  0  0  0  0  0  0  0  0  0  0  0
    3.9038   -4.0592    3.4773 O   0  0  0  0  0  0  0  0  0  0  0  0
    4.0658   -3.0223    2.5288 C   0  0  1  0  0  0  0  0  0  0  0  0
    5.5181   -2.8617    2.0575 C   0  0  1  0  0  0  0  0  0  0  0  0
    6.2194   -4.0863    1.9001 O   0  0  0  0  0  0  0  0  0  0  0  0
    3.5638   -4.2770    0.3398 C   0  0  1  0  0  0  0  0  0  0  0  0
    2.4797   -5.0517   -0.1627 O   0  0  0  0  0  0  0  0  0  0  0  0
    4.3565   -3.6179   -0.8119 C   0  0  2  0  0  0  0  0  0  0  0  0
    4.9682   -4.6530   -1.5202 O   0  0  0  0  0  0  0  0  0  0  0  0
    3.3824   -2.9894   -1.5799 O   0  0  0  0  0  0  0  0  0  0  0  0
    3.3351   -1.5783   -1.4331 C   0  0  2  0  0  0  0  0  0  0  0  0
    3.5709   -0.9217   -5.4115 H   0  0  0  0  0  0  0  0  0  0  0  0
    4.0717    0.4324   -4.3984 H   0  0  0  0  0  0  0  0  0  0  0  0
    2.6298   -0.5067   -3.9970 H   0  0  0  0  0  0  0  0  0  0  0  0
    4.7208   -0.0736   -2.1435 H   0  0  0  0  0  0  0  0  0  0  0  0
    6.5179   -1.0636   -1.4855 H   0  0  0  0  0  0  0  0  0  0  0  0
    7.2014   -0.8633    1.9632 H   0  0  0  0  0  0  0  0  0  0  0  0
    7.3133   -0.4977    0.2943 H   0  0  0  0  0  0  0  0  0  0  0  0
    7.9029   -2.0528    0.8671 H   0  0  0  0  0  0  0  0  0  0  0  0
    4.4805   -0.4097    1.8091 H   0  0  0  0  0  0  0  0  0  0  0  0
    5.0703    0.0666    0.2680 H   0  0  0  0  0  0  0  0  0  0  0  0
    2.7258   -0.2525    0.1434 H   0  0  0  0  0  0  0  0  0  0  0  0
    2.0216   -4.5561    4.0627 H   0  0  0  0  0  0  0  0  0  0  0  0
    2.8190   -5.6691    2.9042 H   0  0  0  0  0  0  0  0  0  0  0  0
    3.7246   -2.1241    3.0480 H   0  0  0  0  0  0  0  0  0  0  0  0
    5.9864   -2.3732    2.9148 H   0  0  0  0  0  0  0  0  0  0  0  0
    5.8169   -4.6067    1.2255 H   0  0  0  0  0  0  0  0  0  0  0  0
    4.2135   -5.0021    0.8226 H   0  0  0  0  0  0  0  0  0  0  0  0
    2.7393   -5.4539   -0.9781 H   0  0  0  0  0  0  0  0  0  0  0  0
    4.2832   -5.1279   -1.9966 H   0  0  0  0  0  0  0  0  0  0  0  0
    2.4643   -1.2009   -1.9560 H   0  0  0  0  0  0  0  0  0  0  0  0
  1  2  1  0
  1 24  1  0
  1 25  1  0
  1 26  1  0
  2  3  1  0
  3 23  1  0
  3  4  1  0
  3 27  1  6
  4  5  2  0
  4 28  1  0
  5 20  1  0
  5  6  1  0
  6 16  1  0
  6  7  1  6
  6  8  1  0
  7 29  1  0
  7 30  1  0
  7 31  1  0
  8  9  1  0
  8 32  1  0
  8 33  1  0
  9 23  1  0
  9 10  1  0
  9 34  1  6
 10 11  1  0
 11 15  1  0
 11 12  1  1
 11 18  1  0
 12 13  1  0
 13 14  1  0
 13 35  1  0
 13 36  1  0
 14 15  1  0
 15 16  1  0
 15 37  1  1
 16 17  1  0
 16 38  1  1
 17 39  1  0
 18 19  1  0
 18 20  1  0
 18 40  1  1
 19 41  1  0
 20 21  1  6
 20 22  1  0
 21 42  1  0
 22 23  1  0
 23 43  1  6
M  END
>  <i_m_ct_stereo_status>  (114) 
1

>  <s_m_source_file>  (114) 
/var/tmp/pbs.5076253.sched01/tmpx6ss0mji/80_l3th0xi.sdf

>  <i_m_source_file_index>  (114) 
22

>  <i_lp_mmshare_version>  (114) 
48012

>  <i_f3d_flags>  (114) 
0

>  <s_epik_input>  (114) 
W0NIM11PW0NASF0oW0NIXT0xKVtDQEhdKFtDQEBIXShPMilbQ0gyXTMpT1tDQF0oW09IXSkoW0NAQEhdNFtPSF0pQzFbQ0BdMyhbQ0gzXSlbQ0BIXShbT0hdKVtDQEBIXShbQ0BAXTI0NSlPW0NIMl1PNQ==

>  <s_epik_cmdline>  (114) 
J2VwaWtfcHl0aG9uJywgJy1waHQnLCAnMi4wJywgJy1waCcsICc3LjAnLCAnLXRuJywgJzgnLCAnLW1hJywgJzIwMCcsICctaW1hZScsICc8aW5maWxlLm1hZT4nLCAnLW9tYWUnLCAnPG91dGZpbGUubWFlPic=

>  <r_epik_Ionization_Penalty>  (114) 
0.00454124

>  <r_epik_Ionization_Penalty_Charging>  (114) 
0

>  <r_epik_Ionization_Penalty_Neutral>  (114) 
0.00454124

>  <r_epik_State_Penalty>  (114) 
0.00320716

>  <r_epik_Charging_Adjusted_Penalty>  (114) 
0.00320716

>  <i_epik_Tot_Q>  (114) 
0

>  <i_epik_Tot_abs_Q>  (114) 
0

>  <s_epik_Chemistry_Notes>  (114) 
This compound contains an acetal/aminal-like group ( X-CH(R)-Y where X, Y are N, S, or O) that may be acid/base labile, releasing an aldehyde.

>  <s_lp_Force_Field>  (114) 
OPLS3e

>  <r_lp_Energy>  (114) 
101.489

>  <b_lp_Chiralities_Consistent>  (114) 
1

>  <s_lp_Variant>  (114) 
69:0-1

>  <s_i_glide_gridfile>  (114) 
pfpi4k_grid

>  <i_i_glide_lignum>  (114) 
22

>  <i_i_glide_rotatable_bonds>  (114) 
4

>  <r_i_docking_score>  (114) 
-3.46612

>  <r_i_glide_ligand_efficiency>  (114) 
-0.150701

>  <r_i_glide_ligand_efficiency_sa>  (114) 
-0.428574

>  <r_i_glide_ligand_efficiency_ln>  (114) 
-0.83814

>  <r_i_glide_gscore>  (114) 
-3.46612

>  <r_i_glide_lipo>  (114) 
-0.463325

>  <r_i_glide_hbond>  (114) 
0

>  <r_i_glide_metal>  (114) 
-0

>  <r_i_glide_rewards>  (114) 
-1.17385

>  <r_i_glide_evdw>  (114) 
-14.5825

>  <r_i_glide_ecoul>  (114) 
-7.31498

>  <r_i_glide_erotb>  (114) 
0

>  <r_i_glide_esite>  (114) 
-0.00258189

>  <r_i_glide_emodel>  (114) 
-25.7568

>  <r_i_glide_energy>  (114) 
-21.8974

>  <r_i_glide_einternal>  (114) 
3.0624

>  <r_i_glide_intrahb_reward>  (114) 
-0

>  <i_i_glide_confnum>  (114) 
2

>  <i_i_glide_posenum>  (114) 
40

>  <r_i_glide_eff_state_penalty>  (114) 
0

>  <ligand_id>  (114) 
69

>  <original_smiles>  (114) 
COC1C=C2C3(C)CC4OC5(OCOC5C3O)C(O)C2(O)OC14

>  <smiles>  (114) 
[H]OC12OC3([H])C([H])(OC([H])([H])[H])C([H])=C1C1(C([H])([H])[H])C([H])([H])C3([H])OC3(OC([H])([H])OC3([H])C1([H])O[H])C2([H])O[H]

$$$$
72:0:0
     RDKit          3D

 88 98  0  0  1  0  0  0  0  0999 V2000
    8.8765   -3.5288    0.3808 C   0  0  0  0  0  0  0  0  0  0  0  0
    7.6107   -3.1195    0.8535 O   0  0  0  0  0  0  0  0  0  0  0  0
    6.7659   -2.6491   -0.1392 C   0  0  2  0  0  0  0  0  0  0  0  0
    5.8713   -1.7481    0.4054 O   0  0  0  0  0  0  0  0  0  0  0  0
    4.8206   -2.4642    0.9499 C   0  0  1  0  0  0  0  0  0  0  0  0
    3.6849   -1.6938    1.2196 O   0  0  0  0  0  0  0  0  0  0  0  0
    3.5759   -0.4528    0.5285 C   0  0  0  0  0  0  0  0  0  0  0  0
    4.5438   -3.6154   -0.0448 C   0  0  2  0  0  0  0  0  0  0  0  0
    3.4566   -3.2707   -1.0424 C   0  0  0  0  0  0  0  0  0  0  0  0
    2.2729   -3.7592   -0.6915 C   0  0  0  0  0  0  0  0  0  0  0  0
    2.3685   -4.5951    0.5615 C   0  0  0  0  0  0  0  0  0  0  0  0
    3.8930   -4.8457    0.6324 C   0  0  2  0  0  0  0  0  0  0  0  0
    4.4672   -5.4113    1.8459 O   0  0  0  0  0  0  0  0  0  0  0  0
    4.3555   -6.7421    1.2434 C   0  0  1  0  0  0  0  0  0  0  0  0
    5.6202   -7.5951    1.2889 C   0  0  0  0  0  0  0  0  0  0  0  0
    3.1115   -7.4825    1.7102 C   0  0  0  0  0  0  0  0  0  0  0  0
    2.5440   -7.2779    2.9011 C   0  0  0  0  0  0  0  0  0  0  0  0
    1.4599   -7.5854    3.8579 C   0  0  2  0  0  0  0  0  0  0  0  0
    0.1097   -6.9308    3.6762 C   0  0  0  0  0  0  0  0  0  0  0  0
   -0.3295   -6.2058    4.9302 C   0  0  0  0  0  0  0  0  0  0  0  0
    0.3355   -5.2649    5.6318 C   0  0  0  0  0  0  0  0  0  0  0  0
   -0.3134   -4.7393    6.9118 C   0  0  0  0  0  0  0  0  0  0  0  0
    1.7414   -4.6874    5.3101 C   0  0  2  0  0  0  0  0  0  0  0  0
    2.5392   -4.9937    6.4553 O   0  0  0  0  0  0  0  0  0  0  0  0
    3.8498   -4.4742    6.7362 C   0  0  2  0  0  0  0  0  0  0  0  0
    3.6955   -3.2807    7.6359 C   0  0  0  0  0  0  0  0  0  0  0  0
    3.7818   -2.1492    6.9560 C   0  0  0  0  0  0  0  0  0  0  0  0
    3.8067   -0.7482    7.5100 C   0  0  0  0  0  0  0  0  0  0  0  0
    4.0319   -2.4892    5.5343 C   0  0  1  0  0  0  0  0  0  0  0  0
    5.3962   -2.8275    5.3152 O   0  0  0  0  0  0  0  0  0  0  0  0
    4.4981   -3.9320    5.4778 C   0  0  1  0  0  0  0  0  0  0  0  0
    2.9320   -2.4126    4.4971 C   0  0  2  0  0  0  0  0  0  0  0  0
    2.6459   -1.1053    4.0215 O   0  0  0  0  0  0  0  0  0  0  0  0
    1.7269   -0.3451    4.7943 C   0  0  2  0  0  0  0  0  0  0  0  0
    1.5724    1.0588    4.2569 C   0  0  0  0  0  0  0  0  0  0  0  0
    2.2933    0.7827    5.4616 O   0  0  0  0  0  0  0  0  0  0  0  0
    0.5833   -1.0768    5.5152 C   0  0  1  0  0  0  0  0  0  0  0  0
   -0.7116   -1.1417    4.6811 C   0  0  0  0  0  0  0  0  0  0  0  0
    0.9610   -2.3863    5.9424 O   0  0  0  0  0  0  0  0  0  0  0  0
    1.6217   -3.1422    4.9360 C   0  0  2  0  0  0  0  0  0  0  0  0
    2.2834   -5.2659    4.1584 O   0  0  0  0  0  0  0  0  0  0  0  0
    2.6457   -6.6321    4.2247 C   0  0  2  0  0  0  0  0  0  0  0  0
    4.1888   -6.1001   -0.0326 O   0  0  0  0  0  0  0  0  0  0  0  0
    3.7538   -2.5702   -2.3146 C   0  0  0  0  0  0  0  0  0  0  0  0
    2.9332   -1.9085   -2.9492 O   0  0  0  0  0  0  0  0  0  0  0  0
    5.0467   -2.6821   -2.7026 O   0  0  0  0  0  0  0  0  0  0  0  0
    5.8429   -3.7669   -2.2249 C   0  0  0  0  0  0  0  0  0  0  0  0
    5.9181   -3.8137   -0.6855 C   0  0  1  0  0  0  0  0  0  0  0  0
    9.4612   -3.8714    1.2345 H   0  0  0  0  0  0  0  0  0  0  0  0
    9.4124   -2.7049   -0.0985 H   0  0  0  0  0  0  0  0  0  0  0  0
    8.7652   -4.3527   -0.3252 H   0  0  0  0  0  0  0  0  0  0  0  0
    7.3082   -2.0962   -0.9103 H   0  0  0  0  0  0  0  0  0  0  0  0
    5.1462   -2.8867    1.9060 H   0  0  0  0  0  0  0  0  0  0  0  0
    2.6501    0.0640    0.7843 H   0  0  0  0  0  0  0  0  0  0  0  0
    3.5738   -0.6106   -0.5477 H   0  0  0  0  0  0  0  0  0  0  0  0
    4.4061    0.2178    0.7598 H   0  0  0  0  0  0  0  0  0  0  0  0
    1.3564   -3.6295   -1.2447 H   0  0  0  0  0  0  0  0  0  0  0  0
    2.0682   -4.0042    1.4212 H   0  0  0  0  0  0  0  0  0  0  0  0
    1.7729   -5.4956    0.5000 H   0  0  0  0  0  0  0  0  0  0  0  0
    6.5062   -7.0399    0.9715 H   0  0  0  0  0  0  0  0  0  0  0  0
    5.5410   -8.4784    0.6531 H   0  0  0  0  0  0  0  0  0  0  0  0
    5.8033   -7.9614    2.2951 H   0  0  0  0  0  0  0  0  0  0  0  0
    2.6454   -8.1468    1.0018 H   0  0  0  0  0  0  0  0  0  0  0  0
    1.4357   -8.5415    4.3737 H   0  0  0  0  0  0  0  0  0  0  0  0
    0.1444   -6.2233    2.8499 H   0  0  0  0  0  0  0  0  0  0  0  0
   -0.6273   -7.7009    3.4316 H   0  0  0  0  0  0  0  0  0  0  0  0
   -1.2966   -6.5276    5.2869 H   0  0  0  0  0  0  0  0  0  0  0  0
    0.4061   -4.6512    7.7259 H   0  0  0  0  0  0  0  0  0  0  0  0
   -1.1040   -5.4062    7.2524 H   0  0  0  0  0  0  0  0  0  0  0  0
   -0.7799   -3.7687    6.7556 H   0  0  0  0  0  0  0  0  0  0  0  0
    4.4781   -5.2256    7.2142 H   0  0  0  0  0  0  0  0  0  0  0  0
    3.5910   -3.3512    8.7046 H   0  0  0  0  0  0  0  0  0  0  0  0
    4.4368   -0.1335    6.8636 H   0  0  0  0  0  0  0  0  0  0  0  0
    4.2453   -0.7349    8.5085 H   0  0  0  0  0  0  0  0  0  0  0  0
    2.8086   -0.3113    7.5687 H   0  0  0  0  0  0  0  0  0  0  0  0
    4.5156   -4.5668    4.5916 H   0  0  0  0  0  0  0  0  0  0  0  0
    3.3159   -2.9046    3.6128 H   0  0  0  0  0  0  0  0  0  0  0  0
    2.1983    1.4323    3.4407 H   0  0  0  0  0  0  0  0  0  0  0  0
    0.6402    1.5857    4.4261 H   0  0  0  0  0  0  0  0  0  0  0  0
    0.3430   -0.5336    6.4334 H   0  0  0  0  0  0  0  0  0  0  0  0
   -1.1127   -0.1482    4.5237 H   0  0  0  0  0  0  0  0  0  0  0  0
   -1.4773   -1.7339    5.1868 H   0  0  0  0  0  0  0  0  0  0  0  0
   -0.5374   -1.5756    3.6983 H   0  0  0  0  0  0  0  0  0  0  0  0
    0.9788   -3.1394    4.0512 H   0  0  0  0  0  0  0  0  0  0  0  0
    3.3946   -6.9352    4.9522 H   0  0  0  0  0  0  0  0  0  0  0  0
    5.3981   -4.6896   -2.5958 H   0  0  0  0  0  0  0  0  0  0  0  0
    6.8409   -3.6905   -2.6532 H   0  0  0  0  0  0  0  0  0  0  0  0
    6.3628   -4.7590   -0.3374 H   0  0  0  0  0  0  0  0  0  0  0  0
  1  2  1  0
  1 49  1  0
  1 50  1  0
  1 51  1  0
  2  3  1  0
  3 48  1  0
  3  4  1  0
  3 52  1  6
  4  5  1  0
  5  6  1  0
  5  8  1  0
  5 53  1  1
  6  7  1  0
  7 54  1  0
  7 55  1  0
  7 56  1  0
  8 12  1  0
  8 48  1  0
  8  9  1  6
  9 10  2  0
  9 44  1  0
 10 11  1  0
 10 57  1  0
 11 12  1  0
 11 58  1  0
 11 59  1  0
 12 43  1  6
 12 13  1  0
 13 14  1  0
 14 15  1  6
 14 16  1  0
 14 43  1  0
 15 60  1  0
 15 61  1  0
 15 62  1  0
 16 17  2  3
 16 63  1  0
 17 42  1  0
 17 18  1  0
 18 42  1  0
 18 19  1  0
 18 64  1  1
 19 20  1  0
 19 65  1  0
 19 66  1  0
 20 21  2  0
 20 67  1  0
 21 22  1  0
 21 23  1  0
 22 68  1  0
 22 69  1  0
 22 70  1  0
 23 40  1  0
 23 24  1  1
 23 41  1  0
 24 25  1  0
 25 31  1  0
 25 26  1  0
 25 71  1  1
 26 27  2  0
 26 72  1  0
 27 28  1  0
 27 29  1  0
 28 73  1  0
 28 74  1  0
 28 75  1  0
 29 31  1  0
 29 30  1  6
 29 32  1  0
 30 31  1  0
 31 76  1  6
 32 40  1  0
 32 33  1  0
 32 77  1  6
 34 33  1  6
 34 36  1  0
 34 35  1  0
 34 37  1  0
 35 36  1  0
 35 78  1  0
 35 79  1  0
 37 38  1  0
 37 39  1  0
 37 80  1  1
 38 81  1  0
 38 82  1  0
 38 83  1  0
 39 40  1  0
 40 84  1  6
 41 42  1  0
 42 85  1  1
 44 45  2  0
 44 46  1  0
 46 47  1  0
 47 48  1  0
 47 86  1  0
 47 87  1  0
 48 88  1  6
M  END
>  <i_m_ct_stereo_status>  (115) 
1

>  <s_m_source_file>  (115) 
/var/tmp/pbs.5076253.sched01/tmpx6ss0mji/80_l3th0xi.sdf

>  <i_m_source_file_index>  (115) 
25

>  <i_lp_mmshare_version>  (115) 
48012

>  <i_f3d_flags>  (115) 
0

>  <s_epik_input>  (115) 
W0NIM11PW0NAQEhdMU9bQ0BASF0oT1tDSDNdKVtDQEBIXTJbQ0gyXU9DKD1PKUMzPVtDSF1bQ0gyXVtDQEBdNChbQ0BAXTEyMylPW0NAQF0oTzQpKFtDSDNdKS9bQ0hdPUNcNVtDSF0oTzYpW0NIXTVbQ0gyXVtDSF09QyhbQ0gzXSlbQ0BdNjdbQ0BASF04W0NAQEhdKE9bQ0BAXTkoW0NIMl1POSlbQ0BIXShPOClbQ0gzXSlbQ0BdMTJbQ0BASF0oTzIpW0NASF0oTzcpW0NIXT1DMVtDSDNd

>  <s_epik_cmdline>  (115) 
J2VwaWtfcHl0aG9uJywgJy1waHQnLCAnMi4wJywgJy1waCcsICc3LjAnLCAnLXRuJywgJzgnLCAnLW1hJywgJzIwMCcsICctaW1hZScsICc8aW5maWxlLm1hZT4nLCAnLW9tYWUnLCAnPG91dGZpbGUubWFlPic=

>  <r_lp_tautomer_probability>  (115) 
1

>  <r_epik_Ionization_Penalty>  (115) 
1.15508e-13

>  <r_epik_Ionization_Penalty_Charging>  (115) 
0

>  <r_epik_Ionization_Penalty_Neutral>  (115) 
1.15508e-13

>  <r_epik_State_Penalty>  (115) 
-0

>  <r_epik_Charging_Adjusted_Penalty>  (115) 
0

>  <i_epik_Tot_Q>  (115) 
0

>  <i_epik_Tot_abs_Q>  (115) 
0

>  <s_epik_Chemistry_Notes>  (115) 
This compound has an ester and may undergo hydrolysis at high or low pH. This compound contains an acetal/aminal-like group ( X-CH(R)-Y where X, Y are N, S, or O) that may be acid/base labile, releasing an aldehyde.

>  <s_lp_Force_Field>  (115) 
OPLS3e

>  <r_lp_Energy>  (115) 
43.312

>  <b_lp_Chiralities_Consistent>  (115) 
1

>  <s_lp_Variant>  (115) 
72:0-1

>  <s_i_glide_gridfile>  (115) 
pfpi4k_grid

>  <i_i_glide_lignum>  (115) 
25

>  <i_i_glide_rotatable_bonds>  (115) 
3

>  <r_i_docking_score>  (115) 
-2.26058

>  <r_i_glide_ligand_efficiency>  (115) 
-0.0470954

>  <r_i_glide_ligand_efficiency_sa>  (115) 
-0.171156

>  <r_i_glide_ligand_efficiency_ln>  (115) 
-0.46407

>  <r_i_glide_gscore>  (115) 
-2.26058

>  <r_i_glide_lipo>  (115) 
-0.5512

>  <r_i_glide_hbond>  (115) 
0

>  <r_i_glide_metal>  (115) 
-0

>  <r_i_glide_rewards>  (115) 
-0.200454

>  <r_i_glide_evdw>  (115) 
-34.1199

>  <r_i_glide_ecoul>  (115) 
1.07354

>  <r_i_glide_erotb>  (115) 
0.0476647

>  <r_i_glide_esite>  (115) 
-0.0116262

>  <r_i_glide_emodel>  (115) 
-32.38

>  <r_i_glide_energy>  (115) 
-33.0464

>  <r_i_glide_einternal>  (115) 
8.64282

>  <r_i_glide_intrahb_reward>  (115) 
-0

>  <i_i_glide_confnum>  (115) 
3

>  <i_i_glide_posenum>  (115) 
1

>  <r_i_glide_eff_state_penalty>  (115) 
0

>  <ligand_id>  (115) 
72

>  <original_smiles>  (115) 
COC1OC(OC)C23C(=CCC24OC(C)(C=C2C5CC=C(C)C6(OC7C=C(C)C8(OC78)C7OC8(CO8)C(C)OC76)OC25)O4)C(=O)OCC13

>  <smiles>  (115) 
[H]C1=C2C(=O)OC([H])([H])C3([H])C([H])(OC([H])([H])[H])OC([H])(OC([H])([H])[H])C23C2(OC(C([H])=C3C4([H])OC5(OC6([H])C([H])=C(C([H])([H])[H])C7(OC67[H])C6([H])OC7(OC7([H])[H])C([H])(C([H])([H])[H])OC56[H])C(C([H])([H])[H])=C([H])C([H])([H])C34[H])(C([H])([H])[H])O2)C1([H])[H]

$$$$
72:0:1
     RDKit          3D

 88 98  0  0  1  0  0  0  0  0999 V2000
    0.6268   -0.4630    9.1896 C   0  0  0  0  0  0  0  0  0  0  0  0
    1.1549    0.1346    8.0161 O   0  0  0  0  0  0  0  0  0  0  0  0
    0.3294    1.1064    7.4514 C   0  0  2  0  0  0  0  0  0  0  0  0
   -0.7557    0.5289    6.8091 O   0  0  0  0  0  0  0  0  0  0  0  0
   -0.3314    0.1154    5.5492 C   0  0  1  0  0  0  0  0  0  0  0  0
   -1.4039   -0.0979    4.6764 O   0  0  0  0  0  0  0  0  0  0  0  0
   -2.4360   -0.9009    5.2184 C   0  0  0  0  0  0  0  0  0  0  0  0
    0.5667    1.2687    5.0355 C   0  0  2  0  0  0  0  0  0  0  0  0
   -0.2384    2.2697    4.2321 C   0  0  0  0  0  0  0  0  0  0  0  0
   -0.1245    2.0739    2.9150 C   0  0  0  0  0  0  0  0  0  0  0  0
    0.8290    0.9443    2.6137 C   0  0  0  0  0  0  0  0  0  0  0  0
    1.5737    0.8188    3.9507 C   0  0  2  0  0  0  0  0  0  0  0  0
    2.4180   -0.3336    4.1850 O   0  0  0  0  0  0  0  0  0  0  0  0
    3.5767    0.4243    3.7319 C   0  0  1  0  0  0  0  0  0  0  0  0
    4.7853    0.3730    4.6690 C   0  0  0  0  0  0  0  0  0  0  0  0
    3.9164    0.1161    2.2833 C   0  0  0  0  0  0  0  0  0  0  0  0
    4.3471   -1.0798    1.8639 C   0  0  0  0  0  0  0  0  0  0  0  0
    4.7629   -1.9509    0.7376 C   0  0  2  0  0  0  0  0  0  0  0  0
    3.7053   -2.5861   -0.1375 C   0  0  0  0  0  0  0  0  0  0  0  0
    3.8686   -4.0882   -0.2110 C   0  0  0  0  0  0  0  0  0  0  0  0
    3.9427   -4.9771    0.8057 C   0  0  0  0  0  0  0  0  0  0  0  0
    4.1743   -6.4433    0.4500 C   0  0  0  0  0  0  0  0  0  0  0  0
    3.8789   -4.6527    2.3232 C   0  0  2  0  0  0  0  0  0  0  0  0
    5.1187   -5.1265    2.8512 O   0  0  0  0  0  0  0  0  0  0  0  0
    5.4441   -5.2670    4.2434 C   0  0  2  0  0  0  0  0  0  0  0  0
    5.1744   -6.6879    4.6483 C   0  0  0  0  0  0  0  0  0  0  0  0
    4.0134   -6.7871    5.2748 C   0  0  0  0  0  0  0  0  0  0  0  0
    3.4403   -8.0110    5.9547 C   0  0  0  0  0  0  0  0  0  0  0  0
    3.4165   -5.4367    5.3671 C   0  0  1  0  0  0  0  0  0  0  0  0
    4.0091   -4.6874    6.4246 O   0  0  0  0  0  0  0  0  0  0  0  0
    4.5220   -4.4263    5.1034 C   0  0  1  0  0  0  0  0  0  0  0  0
    2.2801   -4.9934    4.4670 C   0  0  2  0  0  0  0  0  0  0  0  0
    0.9810   -5.4602    4.8224 O   0  0  0  0  0  0  0  0  0  0  0  0
    0.6562   -6.7730    4.3741 C   0  0  2  0  0  0  0  0  0  0  0  0
   -0.6890   -7.2058    4.9096 C   0  0  0  0  0  0  0  0  0  0  0  0
    0.5335   -7.7599    5.4055 O   0  0  0  0  0  0  0  0  0  0  0  0
    1.1667   -7.2263    3.0034 C   0  0  1  0  0  0  0  0  0  0  0  0
    0.1842   -6.9260    1.8577 C   0  0  0  0  0  0  0  0  0  0  0  0
    2.4532   -6.6815    2.7156 O   0  0  0  0  0  0  0  0  0  0  0  0
    2.5571   -5.2844    2.9546 C   0  0  2  0  0  0  0  0  0  0  0  0
    3.7291   -3.2825    2.5635 O   0  0  0  0  0  0  0  0  0  0  0  0
    4.8127   -2.4338    2.2236 C   0  0  2  0  0  0  0  0  0  0  0  0
    2.7807    1.6222    3.8948 O   0  0  0  0  0  0  0  0  0  0  0  0
   -0.9166    3.4201    4.8597 C   0  0  0  0  0  0  0  0  0  0  0  0
   -1.8735    4.0165    4.3617 O   0  0  0  0  0  0  0  0  0  0  0  0
   -0.3993    3.7615    6.0709 O   0  0  0  0  0  0  0  0  0  0  0  0
    0.9268    3.3619    6.4417 C   0  0  0  0  0  0  0  0  0  0  0  0
    1.1240    1.8368    6.3456 C   0  0  1  0  0  0  0  0  0  0  0  0
    1.3245   -1.2134    9.5592 H   0  0  0  0  0  0  0  0  0  0  0  0
   -0.3254   -0.9607    9.0087 H   0  0  0  0  0  0  0  0  0  0  0  0
    0.4884    0.2795    9.9754 H   0  0  0  0  0  0  0  0  0  0  0  0
   -0.0382    1.7841    8.2265 H   0  0  0  0  0  0  0  0  0  0  0  0
    0.2417   -0.8124    5.6460 H   0  0  0  0  0  0  0  0  0  0  0  0
   -3.2181   -1.0546    4.4782 H   0  0  0  0  0  0  0  0  0  0  0  0
   -2.9036   -0.3901    6.0565 H   0  0  0  0  0  0  0  0  0  0  0  0
   -2.0723   -1.8735    5.5443 H   0  0  0  0  0  0  0  0  0  0  0  0
   -0.5846    2.6659    2.1295 H   0  0  0  0  0  0  0  0  0  0  0  0
    0.2497    0.0495    2.4081 H   0  0  0  0  0  0  0  0  0  0  0  0
    1.4571    1.1694    1.7538 H   0  0  0  0  0  0  0  0  0  0  0  0
    4.5150    0.5527    5.7083 H   0  0  0  0  0  0  0  0  0  0  0  0
    5.5382    1.1091    4.3974 H   0  0  0  0  0  0  0  0  0  0  0  0
    5.2731   -0.5952    4.6178 H   0  0  0  0  0  0  0  0  0  0  0  0
    3.7361    0.9014    1.5634 H   0  0  0  0  0  0  0  0  0  0  0  0
    5.7262   -1.8022    0.2541 H   0  0  0  0  0  0  0  0  0  0  0  0
    2.7087   -2.3554    0.2382 H   0  0  0  0  0  0  0  0  0  0  0  0
    3.7738   -2.1690   -1.1438 H   0  0  0  0  0  0  0  0  0  0  0  0
    3.9501   -4.4660   -1.2181 H   0  0  0  0  0  0  0  0  0  0  0  0
    4.9098   -6.9138    1.1029 H   0  0  0  0  0  0  0  0  0  0  0  0
    4.5355   -6.5494   -0.5717 H   0  0  0  0  0  0  0  0  0  0  0  0
    3.2511   -7.0162    0.5068 H   0  0  0  0  0  0  0  0  0  0  0  0
    6.4909   -5.0219    4.4225 H   0  0  0  0  0  0  0  0  0  0  0  0
    5.8737   -7.4894    4.4931 H   0  0  0  0  0  0  0  0  0  0  0  0
    2.8539   -7.6870    6.8139 H   0  0  0  0  0  0  0  0  0  0  0  0
    4.2377   -8.6589    6.3206 H   0  0  0  0  0  0  0  0  0  0  0  0
    2.8130   -8.5925    5.2792 H   0  0  0  0  0  0  0  0  0  0  0  0
    4.3843   -3.3809    4.8463 H   0  0  0  0  0  0  0  0  0  0  0  0
    2.1802   -3.9211    4.5986 H   0  0  0  0  0  0  0  0  0  0  0  0
   -1.2192   -6.5885    5.6298 H   0  0  0  0  0  0  0  0  0  0  0  0
   -1.2821   -7.9146    4.3412 H   0  0  0  0  0  0  0  0  0  0  0  0
    1.3050   -8.3098    3.0292 H   0  0  0  0  0  0  0  0  0  0  0  0
   -0.7304   -7.4995    1.9763 H   0  0  0  0  0  0  0  0  0  0  0  0
    0.6142   -7.1983    0.8954 H   0  0  0  0  0  0  0  0  0  0  0  0
   -0.0903   -5.8797    1.8241 H   0  0  0  0  0  0  0  0  0  0  0  0
    1.7469   -4.7945    2.4092 H   0  0  0  0  0  0  0  0  0  0  0  0
    5.7658   -2.6051    2.7181 H   0  0  0  0  0  0  0  0  0  0  0  0
    1.6424    3.8624    5.7885 H   0  0  0  0  0  0  0  0  0  0  0  0
    1.1403    3.7076    7.4532 H   0  0  0  0  0  0  0  0  0  0  0  0
    2.1805    1.5913    6.4681 H   0  0  0  0  0  0  0  0  0  0  0  0
  1  2  1  0
  1 49  1  0
  1 50  1  0
  1 51  1  0
  2  3  1  0
  3 48  1  0
  3  4  1  0
  3 52  1  1
  4  5  1  0
  5  6  1  0
  5  8  1  0
  5 53  1  1
  6  7  1  0
  7 54  1  0
  7 55  1  0
  7 56  1  0
  8 12  1  0
  8 48  1  0
  8  9  1  6
  9 10  2  0
  9 44  1  0
 10 11  1  0
 10 57  1  0
 11 12  1  0
 11 58  1  0
 11 59  1  0
 12 43  1  6
 12 13  1  0
 13 14  1  0
 14 15  1  1
 14 16  1  0
 14 43  1  0
 15 60  1  0
 15 61  1  0
 15 62  1  0
 16 17  2  3
 16 63  1  0
 17 42  1  0
 17 18  1  0
 18 42  1  0
 18 19  1  0
 18 64  1  6
 19 20  1  0
 19 65  1  0
 19 66  1  0
 20 21  2  0
 20 67  1  0
 21 22  1  0
 21 23  1  0
 22 68  1  0
 22 69  1  0
 22 70  1  0
 23 40  1  0
 23 24  1  1
 23 41  1  0
 24 25  1  0
 25 31  1  0
 25 26  1  0
 25 71  1  6
 26 27  2  0
 26 72  1  0
 27 28  1  0
 27 29  1  0
 28 73  1  0
 28 74  1  0
 28 75  1  0
 29 31  1  0
 29 30  1  1
 29 32  1  0
 30 31  1  0
 31 76  1  6
 32 40  1  0
 32 33  1  0
 32 77  1  6
 34 33  1  1
 34 36  1  0
 34 35  1  0
 34 37  1  0
 35 36  1  0
 35 78  1  0
 35 79  1  0
 37 38  1  0
 37 39  1  0
 37 80  1  1
 38 81  1  0
 38 82  1  0
 38 83  1  0
 39 40  1  0
 40 84  1  6
 41 42  1  0
 42 85  1  1
 44 45  2  0
 44 46  1  0
 46 47  1  0
 47 48  1  0
 47 86  1  0
 47 87  1  0
 48 88  1  1
M  END
>  <i_m_ct_stereo_status>  (116) 
1

>  <s_m_source_file>  (116) 
/var/tmp/pbs.5076253.sched01/tmpx6ss0mji/80_l3th0xi.sdf

>  <i_m_source_file_index>  (116) 
25

>  <i_lp_mmshare_version>  (116) 
48012

>  <i_f3d_flags>  (116) 
0

>  <s_epik_input>  (116) 
W0NIM11PW0NAQEhdMU9bQ0BASF0oT1tDSDNdKVtDQEBIXTJbQ0gyXU9DKD1PKUMzPVtDSF1bQ0gyXVtDQEBdNChbQ0BAXTEyMylPW0NAQF0oTzQpKFtDSDNdKS9bQ0hdPUNcNVtDSF0oTzYpW0NIXTVbQ0gyXVtDSF09QyhbQ0gzXSlbQ0BdNjdbQ0BASF04W0NAQEhdKE9bQ0BAXTkoW0NIMl1POSlbQ0BIXShPOClbQ0gzXSlbQ0BdMTJbQ0BASF0oTzIpW0NASF0oTzcpW0NIXT1DMVtDSDNd

>  <s_epik_cmdline>  (116) 
J2VwaWtfcHl0aG9uJywgJy1waHQnLCAnMi4wJywgJy1waCcsICc3LjAnLCAnLXRuJywgJzgnLCAnLW1hJywgJzIwMCcsICctaW1hZScsICc8aW5maWxlLm1hZT4nLCAnLW9tYWUnLCAnPG91dGZpbGUubWFlPic=

>  <r_lp_tautomer_probability>  (116) 
1

>  <r_epik_Ionization_Penalty>  (116) 
1.15508e-13

>  <r_epik_Ionization_Penalty_Charging>  (116) 
0

>  <r_epik_Ionization_Penalty_Neutral>  (116) 
1.15508e-13

>  <r_epik_State_Penalty>  (116) 
-0

>  <r_epik_Charging_Adjusted_Penalty>  (116) 
0

>  <i_epik_Tot_Q>  (116) 
0

>  <i_epik_Tot_abs_Q>  (116) 
0

>  <s_epik_Chemistry_Notes>  (116) 
This compound has an ester and may undergo hydrolysis at high or low pH. This compound contains an acetal/aminal-like group ( X-CH(R)-Y where X, Y are N, S, or O) that may be acid/base labile, releasing an aldehyde.

>  <s_lp_Force_Field>  (116) 
OPLS3e

>  <r_lp_Energy>  (116) 
43.312

>  <b_lp_Chiralities_Consistent>  (116) 
1

>  <s_lp_Variant>  (116) 
72:0-1

>  <s_i_glide_gridfile>  (116) 
pfpi4k_grid

>  <i_i_glide_lignum>  (116) 
25

>  <i_i_glide_rotatable_bonds>  (116) 
3

>  <r_i_docking_score>  (116) 
-2.0079

>  <r_i_glide_ligand_efficiency>  (116) 
-0.0418313

>  <r_i_glide_ligand_efficiency_sa>  (116) 
-0.152025

>  <r_i_glide_ligand_efficiency_ln>  (116) 
-0.412199

>  <r_i_glide_gscore>  (116) 
-2.0079

>  <r_i_glide_lipo>  (116) 
-0.339803

>  <r_i_glide_hbond>  (116) 
-0.0208874

>  <r_i_glide_metal>  (116) 
-0

>  <r_i_glide_rewards>  (116) 
-0.00116526

>  <r_i_glide_evdw>  (116) 
-28.7816

>  <r_i_glide_ecoul>  (116) 
-1.17405

>  <r_i_glide_erotb>  (116) 
0.0476647

>  <r_i_glide_esite>  (116) 
-0.0785221

>  <r_i_glide_emodel>  (116) 
-31.4252

>  <r_i_glide_energy>  (116) 
-29.9557

>  <r_i_glide_einternal>  (116) 
3.66132

>  <r_i_glide_intrahb_reward>  (116) 
-0

>  <i_i_glide_confnum>  (116) 
3

>  <i_i_glide_posenum>  (116) 
6

>  <r_i_glide_eff_state_penalty>  (116) 
0

>  <ligand_id>  (116) 
72

>  <original_smiles>  (116) 
COC1OC(OC)C23C(=CCC24OC(C)(C=C2C5CC=C(C)C6(OC7C=C(C)C8(OC78)C7OC8(CO8)C(C)OC76)OC25)O4)C(=O)OCC13

>  <smiles>  (116) 
[H]C1=C2C(=O)OC([H])([H])C3([H])C([H])(OC([H])([H])[H])OC([H])(OC([H])([H])[H])C23C2(OC(C([H])=C3C4([H])OC5(OC6([H])C([H])=C(C([H])([H])[H])C7(OC67[H])C6([H])OC7(OC7([H])[H])C([H])(C([H])([H])[H])OC56[H])C(C([H])([H])[H])=C([H])C([H])([H])C34[H])(C([H])([H])[H])O2)C1([H])[H]

$$$$
72:0:2
     RDKit          3D

 88 98  0  0  1  0  0  0  0  0999 V2000
    0.2626    0.9093    9.3440 C   0  0  0  0  0  0  0  0  0  0  0  0
    0.6086    1.2839    8.0229 O   0  0  0  0  0  0  0  0  0  0  0  0
   -0.4309    1.8502    7.2971 C   0  0  2  0  0  0  0  0  0  0  0  0
   -1.2924    0.8724    6.8345 O   0  0  0  0  0  0  0  0  0  0  0  0
   -0.7320    0.3274    5.6851 C   0  0  1  0  0  0  0  0  0  0  0  0
   -1.6464   -0.3409    4.8941 O   0  0  0  0  0  0  0  0  0  0  0  0
   -2.3364   -1.3241    5.6172 C   0  0  0  0  0  0  0  0  0  0  0  0
   -0.1882    1.5126    4.9056 C   0  0  2  0  0  0  0  0  0  0  0  0
   -1.2151    2.0497    3.9349 C   0  0  0  0  0  0  0  0  0  0  0  0
   -1.0384    1.6083    2.6914 C   0  0  0  0  0  0  0  0  0  0  0  0
    0.1764    0.7603    2.5749 C   0  0  0  0  0  0  0  0  0  0  0  0
    0.8867    1.0959    3.8910 C   0  0  2  0  0  0  0  0  0  0  0  0
    1.9827    0.2361    4.3196 O   0  0  0  0  0  0  0  0  0  0  0  0
    2.8946    1.1772    3.6838 C   0  0  1  0  0  0  0  0  0  0  0  0
    4.0169    1.7041    4.5643 C   0  0  0  0  0  0  0  0  0  0  0  0
    3.3413    0.6800    2.3259 C   0  0  0  0  0  0  0  0  0  0  0  0
    3.9615   -0.4848    2.1358 C   0  0  0  0  0  0  0  0  0  0  0  0
    4.5320   -1.4695    1.1974 C   0  0  2  0  0  0  0  0  0  0  0  0
    3.6018   -2.3848    0.4348 C   0  0  0  0  0  0  0  0  0  0  0  0
    3.9737   -3.8364    0.6477 C   0  0  0  0  0  0  0  0  0  0  0  0
    4.1340   -4.5022    1.8191 C   0  0  0  0  0  0  0  0  0  0  0  0
    4.5678   -5.9624    1.7515 C   0  0  0  0  0  0  0  0  0  0  0  0
    3.9711   -3.9222    3.2459 C   0  0  2  0  0  0  0  0  0  0  0  0
    5.2457   -4.0959    3.8687 O   0  0  0  0  0  0  0  0  0  0  0  0
    5.5345   -3.9322    5.2658 C   0  0  2  0  0  0  0  0  0  0  0  0
    5.4244   -5.2777    5.9237 C   0  0  0  0  0  0  0  0  0  0  0  0
    4.2744   -5.4291    6.5479 C   0  0  0  0  0  0  0  0  0  0  0  0
    3.8705   -6.5833    7.4335 C   0  0  0  0  0  0  0  0  0  0  0  0
    3.4986   -4.1753    6.3930 C   0  0  2  0  0  0  0  0  0  0  0  0
    3.9666   -3.1442    7.2614 O   0  0  0  0  0  0  0  0  0  0  0  0
    4.4615   -3.0941    5.9230 C   0  0  1  0  0  0  0  0  0  0  0  0
    2.3688   -4.0874    5.4025 C   0  0  2  0  0  0  0  0  0  0  0  0
    1.1576   -4.6483    5.8611 O   0  0  0  0  0  0  0  0  0  0  0  0
    1.0210   -6.0366    5.6254 C   0  0  2  0  0  0  0  0  0  0  0  0
   -0.2697   -6.5481    6.1876 C   0  0  0  0  0  0  0  0  0  0  0  0
    0.9922   -6.8184    6.8103 O   0  0  0  0  0  0  0  0  0  0  0  0
    1.6367   -6.6902    4.3715 C   0  0  1  0  0  0  0  0  0  0  0  0
    0.6526   -6.7331    3.1810 C   0  0  0  0  0  0  0  0  0  0  0  0
    2.8417   -6.0355    3.9845 O   0  0  0  0  0  0  0  0  0  0  0  0
    2.7404   -4.6168    3.9770 C   0  0  2  0  0  0  0  0  0  0  0  0
    3.6226   -2.5724    3.2116 O   0  0  0  0  0  0  0  0  0  0  0  0
    4.5979   -1.6585    2.7480 C   0  0  2  0  0  0  0  0  0  0  0  0
    1.8333    2.1522    3.6006 O   0  0  0  0  0  0  0  0  0  0  0  0
   -2.1775    3.0701    4.2911 C   0  0  0  0  0  0  0  0  0  0  0  0
   -3.2230    3.2547    3.6489 O   0  0  0  0  0  0  0  0  0  0  0  0
   -1.8219    3.8054    5.3833 O   0  0  0  0  0  0  0  0  0  0  0  0
   -0.4399    3.8851    5.7892 C   0  0  0  0  0  0  0  0  0  0  0  0
    0.1714    2.4908    6.0321 C   0  0  1  0  0  0  0  0  0  0  0  0
    1.1291    0.4645    9.8311 H   0  0  0  0  0  0  0  0  0  0  0  0
   -0.5541    0.1874    9.3853 H   0  0  0  0  0  0  0  0  0  0  0  0
   -0.0163    1.7884    9.9212 H   0  0  0  0  0  0  0  0  0  0  0  0
   -0.9983    2.5584    7.9099 H   0  0  0  0  0  0  0  0  0  0  0  0
    0.0556   -0.3690    5.9522 H   0  0  0  0  0  0  0  0  0  0  0  0
   -3.1643   -1.6429    4.9921 H   0  0  0  0  0  0  0  0  0  0  0  0
   -2.7844   -0.8446    6.4570 H   0  0  0  0  0  0  0  0  0  0  0  0
   -1.7066   -2.1721    5.9320 H   0  0  0  0  0  0  0  0  0  0  0  0
   -1.6267    1.8688    1.8449 H   0  0  0  0  0  0  0  0  0  0  0  0
   -0.1381   -0.2696    2.6160 H   0  0  0  0  0  0  0  0  0  0  0  0
    0.7348    0.9560    1.6575 H   0  0  0  0  0  0  0  0  0  0  0  0
    3.7018    1.9810    5.5777 H   0  0  0  0  0  0  0  0  0  0  0  0
    4.4120    2.6011    4.1012 H   0  0  0  0  0  0  0  0  0  0  0  0
    4.8256    0.9743    4.6429 H   0  0  0  0  0  0  0  0  0  0  0  0
    3.0826    1.2829    1.4729 H   0  0  0  0  0  0  0  0  0  0  0  0
    5.4718   -1.2762    0.6983 H   0  0  0  0  0  0  0  0  0  0  0  0
    2.5715   -2.2270    0.7567 H   0  0  0  0  0  0  0  0  0  0  0  0
    3.6535   -2.1519   -0.6352 H   0  0  0  0  0  0  0  0  0  0  0  0
    4.1355   -4.3748   -0.2744 H   0  0  0  0  0  0  0  0  0  0  0  0
    5.3375   -6.1954    2.4875 H   0  0  0  0  0  0  0  0  0  0  0  0
    4.9761   -6.2043    0.7753 H   0  0  0  0  0  0  0  0  0  0  0  0
    3.7334   -6.6458    1.8989 H   0  0  0  0  0  0  0  0  0  0  0  0
    6.5318   -3.5179    5.4421 H   0  0  0  0  0  0  0  0  0  0  0  0
    6.2244   -5.9964    5.9435 H   0  0  0  0  0  0  0  0  0  0  0  0
    3.2202   -6.1915    8.2109 H   0  0  0  0  0  0  0  0  0  0  0  0
    4.7432   -7.0210    7.9235 H   0  0  0  0  0  0  0  0  0  0  0  0
    3.3534   -7.3670    6.8776 H   0  0  0  0  0  0  0  0  0  0  0  0
    4.1951   -2.1423    5.4655 H   0  0  0  0  0  0  0  0  0  0  0  0
    2.1141   -3.0379    5.3352 H   0  0  0  0  0  0  0  0  0  0  0  0
   -0.9294   -5.9263    6.8039 H   0  0  0  0  0  0  0  0  0  0  0  0
   -0.7034   -7.4060    5.6801 H   0  0  0  0  0  0  0  0  0  0  0  0
    1.9121   -7.7347    4.5905 H   0  0  0  0  0  0  0  0  0  0  0  0
   -0.1871   -7.3930    3.3973 H   0  0  0  0  0  0  0  0  0  0  0  0
    1.1381   -7.1205    2.2797 H   0  0  0  0  0  0  0  0  0  0  0  0
    0.2438   -5.7514    2.9505 H   0  0  0  0  0  0  0  0  0  0  0  0
    1.8860   -4.3605    3.3517 H   0  0  0  0  0  0  0  0  0  0  0  0
    5.5554   -1.5893    3.2684 H   0  0  0  0  0  0  0  0  0  0  0  0
    0.1315    4.4059    5.0165 H   0  0  0  0  0  0  0  0  0  0  0  0
   -0.3482    4.4868    6.6988 H   0  0  0  0  0  0  0  0  0  0  0  0
    1.2612    2.5608    6.1517 H   0  0  0  0  0  0  0  0  0  0  0  0
  1  2  1  0
  1 49  1  0
  1 50  1  0
  1 51  1  0
  2  3  1  0
  3 48  1  0
  3  4  1  0
  3 52  1  1
  4  5  1  0
  5  6  1  0
  5  8  1  0
  5 53  1  1
  6  7  1  0
  7 54  1  0
  7 55  1  0
  7 56  1  0
  8 12  1  0
  8 48  1  0
  8  9  1  6
  9 10  2  0
  9 44  1  0
 10 11  1  0
 10 57  1  0
 11 12  1  0
 11 58  1  0
 11 59  1  0
 12 43  1  6
 12 13  1  0
 13 14  1  0
 14 15  1  1
 14 16  1  0
 14 43  1  0
 15 60  1  0
 15 61  1  0
 15 62  1  0
 16 17  2  3
 16 63  1  0
 17 42  1  0
 17 18  1  0
 18 42  1  0
 18 19  1  0
 18 64  1  6
 19 20  1  0
 19 65  1  0
 19 66  1  0
 20 21  2  0
 20 67  1  0
 21 22  1  0
 21 23  1  0
 22 68  1  0
 22 69  1  0
 22 70  1  0
 23 40  1  0
 23 24  1  1
 23 41  1  0
 24 25  1  0
 25 31  1  0
 25 26  1  0
 25 71  1  6
 26 27  2  0
 26 72  1  0
 27 28  1  0
 27 29  1  0
 28 73  1  0
 28 74  1  0
 28 75  1  0
 29 31  1  0
 29 30  1  1
 29 32  1  0
 30 31  1  0
 31 76  1  6
 32 40  1  0
 32 33  1  0
 32 77  1  6
 34 33  1  1
 34 36  1  0
 34 35  1  0
 34 37  1  0
 35 36  1  0
 35 78  1  0
 35 79  1  0
 37 38  1  0
 37 39  1  0
 37 80  1  1
 38 81  1  0
 38 82  1  0
 38 83  1  0
 39 40  1  0
 40 84  1  6
 41 42  1  0
 42 85  1  1
 44 45  2  0
 44 46  1  0
 46 47  1  0
 47 48  1  0
 47 86  1  0
 47 87  1  0
 48 88  1  1
M  END
>  <i_m_ct_stereo_status>  (117) 
1

>  <s_m_source_file>  (117) 
/var/tmp/pbs.5076253.sched01/tmpx6ss0mji/80_l3th0xi.sdf

>  <i_m_source_file_index>  (117) 
25

>  <i_lp_mmshare_version>  (117) 
48012

>  <i_f3d_flags>  (117) 
0

>  <s_epik_input>  (117) 
W0NIM11PW0NAQEhdMU9bQ0BASF0oT1tDSDNdKVtDQEBIXTJbQ0gyXU9DKD1PKUMzPVtDSF1bQ0gyXVtDQEBdNChbQ0BAXTEyMylPW0NAQF0oTzQpKFtDSDNdKS9bQ0hdPUNcNVtDSF0oTzYpW0NIXTVbQ0gyXVtDSF09QyhbQ0gzXSlbQ0BdNjdbQ0BASF04W0NAQEhdKE9bQ0BAXTkoW0NIMl1POSlbQ0BIXShPOClbQ0gzXSlbQ0BdMTJbQ0BASF0oTzIpW0NASF0oTzcpW0NIXT1DMVtDSDNd

>  <s_epik_cmdline>  (117) 
J2VwaWtfcHl0aG9uJywgJy1waHQnLCAnMi4wJywgJy1waCcsICc3LjAnLCAnLXRuJywgJzgnLCAnLW1hJywgJzIwMCcsICctaW1hZScsICc8aW5maWxlLm1hZT4nLCAnLW9tYWUnLCAnPG91dGZpbGUubWFlPic=

>  <r_lp_tautomer_probability>  (117) 
1

>  <r_epik_Ionization_Penalty>  (117) 
1.15508e-13

>  <r_epik_Ionization_Penalty_Charging>  (117) 
0

>  <r_epik_Ionization_Penalty_Neutral>  (117) 
1.15508e-13

>  <r_epik_State_Penalty>  (117) 
-0

>  <r_epik_Charging_Adjusted_Penalty>  (117) 
0

>  <i_epik_Tot_Q>  (117) 
0

>  <i_epik_Tot_abs_Q>  (117) 
0

>  <s_epik_Chemistry_Notes>  (117) 
This compound has an ester and may undergo hydrolysis at high or low pH. This compound contains an acetal/aminal-like group ( X-CH(R)-Y where X, Y are N, S, or O) that may be acid/base labile, releasing an aldehyde.

>  <s_lp_Force_Field>  (117) 
OPLS3e

>  <r_lp_Energy>  (117) 
43.312

>  <b_lp_Chiralities_Consistent>  (117) 
1

>  <s_lp_Variant>  (117) 
72:0-1

>  <s_i_glide_gridfile>  (117) 
pfpi4k_grid

>  <i_i_glide_lignum>  (117) 
25

>  <i_i_glide_rotatable_bonds>  (117) 
3

>  <r_i_docking_score>  (117) 
-1.67197

>  <r_i_glide_ligand_efficiency>  (117) 
-0.0348327

>  <r_i_glide_ligand_efficiency_sa>  (117) 
-0.126591

>  <r_i_glide_ligand_efficiency_ln>  (117) 
-0.343236

>  <r_i_glide_gscore>  (117) 
-1.67197

>  <r_i_glide_lipo>  (117) 
-0.24056

>  <r_i_glide_hbond>  (117) 
-0.0911101

>  <r_i_glide_metal>  (117) 
-0

>  <r_i_glide_rewards>  (117) 
-0.000189827

>  <r_i_glide_evdw>  (117) 
-23.6426

>  <r_i_glide_ecoul>  (117) 
-0.733762

>  <r_i_glide_erotb>  (117) 
0.0476647

>  <r_i_glide_esite>  (117) 
-0.0955828

>  <r_i_glide_emodel>  (117) 
-25.2203

>  <r_i_glide_energy>  (117) 
-24.3763

>  <r_i_glide_einternal>  (117) 
2.98768

>  <r_i_glide_intrahb_reward>  (117) 
-0

>  <i_i_glide_confnum>  (117) 
3

>  <i_i_glide_posenum>  (117) 
25

>  <r_i_glide_eff_state_penalty>  (117) 
0

>  <ligand_id>  (117) 
72

>  <original_smiles>  (117) 
COC1OC(OC)C23C(=CCC24OC(C)(C=C2C5CC=C(C)C6(OC7C=C(C)C8(OC78)C7OC8(CO8)C(C)OC76)OC25)O4)C(=O)OCC13

>  <smiles>  (117) 
[H]C1=C2C(=O)OC([H])([H])C3([H])C([H])(OC([H])([H])[H])OC([H])(OC([H])([H])[H])C23C2(OC(C([H])=C3C4([H])OC5(OC6([H])C([H])=C(C([H])([H])[H])C7(OC67[H])C6([H])OC7(OC7([H])[H])C([H])(C([H])([H])[H])OC56[H])C(C([H])([H])[H])=C([H])C([H])([H])C34[H])(C([H])([H])[H])O2)C1([H])[H]

$$$$
73:0:0
     RDKit          3D

 31 34  0  0  1  0  0  0  0  0999 V2000
    8.5048   -5.6724    1.9494 C   0  0  0  0  0  0  0  0  0  0  0  0
    8.2055   -4.6280    0.8822 C   0  0  0  0  0  0  0  0  0  0  0  0
    8.9338   -4.5115   -0.1022 O   0  0  0  0  0  0  0  0  0  0  0  0
    7.1056   -3.8977    1.1576 O   0  0  0  0  0  0  0  0  0  0  0  0
    6.6198   -2.9803    0.1760 C   0  0  2  0  0  0  0  0  0  0  0  0
    5.7455   -1.7959    0.6349 C   0  0  0  0  0  0  0  0  0  0  0  0
    5.8168   -1.3456    1.8960 C   0  0  0  0  0  0  0  0  0  0  0  0
    5.0759   -2.1704    2.9127 C   0  0  0  0  0  0  0  0  0  0  0  0
    4.5136   -3.2814    2.0592 C   0  0  1  0  0  0  0  0  0  0  0  0
    4.4362   -4.7116    2.5309 C   0  0  0  0  0  0  0  0  0  0  0  0
    3.2682   -3.8931    2.4545 O   0  0  0  0  0  0  0  0  0  0  0  0
    4.6694   -2.8116    0.5931 C   0  0  1  0  0  0  0  0  0  0  0  0
    3.4821   -2.7003   -0.1463 O   0  0  0  0  0  0  0  0  0  0  0  0
    3.9251   -3.9733   -0.6484 C   0  0  0  0  0  0  0  0  0  0  0  0
    5.4097   -3.4503   -0.6883 C   0  0  2  0  0  0  0  0  0  0  0  0
    5.6371   -2.9251   -2.1248 C   0  0  0  0  0  0  0  0  0  0  0  0
    5.0673   -1.6518   -2.3431 O   0  0  0  0  0  0  0  0  0  0  0  0
    7.6760   -5.7742    2.6556 H   0  0  0  0  0  0  0  0  0  0  0  0
    9.4083   -5.4011    2.5032 H   0  0  0  0  0  0  0  0  0  0  0  0
    8.6768   -6.6453    1.4761 H   0  0  0  0  0  0  0  0  0  0  0  0
    7.4533   -2.6376   -0.4368 H   0  0  0  0  0  0  0  0  0  0  0  0
    6.2309   -0.3908    2.1619 H   0  0  0  0  0  0  0  0  0  0  0  0
    5.7690   -2.5666    3.6491 H   0  0  0  0  0  0  0  0  0  0  0  0
    4.2847   -1.5980    3.3969 H   0  0  0  0  0  0  0  0  0  0  0  0
    4.5143   -5.5139    1.8003 H   0  0  0  0  0  0  0  0  0  0  0  0
    4.8033   -4.9312    3.5340 H   0  0  0  0  0  0  0  0  0  0  0  0
    3.6764   -4.8283   -0.0131 H   0  0  0  0  0  0  0  0  0  0  0  0
    3.4945   -4.1625   -1.6328 H   0  0  0  0  0  0  0  0  0  0  0  0
    6.7014   -2.9008   -2.3752 H   0  0  0  0  0  0  0  0  0  0  0  0
    5.2152   -3.6254   -2.8471 H   0  0  0  0  0  0  0  0  0  0  0  0
    4.1528   -1.6884   -2.0946 H   0  0  0  0  0  0  0  0  0  0  0  0
  1  2  1  0
  1 18  1  0
  1 19  1  0
  1 20  1  0
  2  3  2  0
  2  4  1  0
  4  5  1  0
  5 15  1  0
  5  6  1  0
  5 21  1  6
  6 12  1  0
  6  7  2  0
  7  8  1  0
  7 22  1  0
  8  9  1  0
  8 23  1  0
  8 24  1  0
  9 11  1  1
  9 10  1  0
  9 12  1  0
 10 11  1  0
 10 25  1  0
 10 26  1  0
 12 15  1  0
 12 13  1  6
 13 14  1  0
 14 15  1  0
 14 27  1  0
 14 28  1  0
 15 16  1  6
 16 17  1  0
 16 29  1  0
 16 30  1  0
 17 31  1  0
M  END
>  <i_m_ct_stereo_status>  (118) 
1

>  <s_m_source_file>  (118) 
/var/tmp/pbs.5076253.sched01/tmpx6ss0mji/80_l3th0xi.sdf

>  <i_m_source_file_index>  (118) 
26

>  <i_lp_mmshare_version>  (118) 
48012

>  <i_f3d_flags>  (118) 
0

>  <s_epik_input>  (118) 
W0NIM11DKD1PKU9bQ0BASF0oW0NAXTEoW0NIMl1PMilbQ0gyXVtPSF0pQyg9W0NIXVtDSDJdMylDMTJbQ0BAXTM0W0NIMl1PNA==

>  <s_epik_cmdline>  (118) 
J2VwaWtfcHl0aG9uJywgJy1waHQnLCAnMi4wJywgJy1waCcsICc3LjAnLCAnLXRuJywgJzgnLCAnLW1hJywgJzIwMCcsICctaW1hZScsICc8aW5maWxlLm1hZT4nLCAnLW9tYWUnLCAnPG91dGZpbGUubWFlPic=

>  <r_lp_tautomer_probability>  (118) 
1

>  <r_epik_Ionization_Penalty>  (118) 
7.06217e-08

>  <r_epik_Ionization_Penalty_Charging>  (118) 
0

>  <r_epik_Ionization_Penalty_Neutral>  (118) 
7.06217e-08

>  <r_epik_State_Penalty>  (118) 
-0

>  <r_epik_Charging_Adjusted_Penalty>  (118) 
0

>  <i_epik_Tot_Q>  (118) 
0

>  <i_epik_Tot_abs_Q>  (118) 
0

>  <s_epik_Chemistry_Notes>  (118) 
This compound has an ester and may undergo hydrolysis at high or low pH.

>  <s_lp_Force_Field>  (118) 
OPLS3e

>  <r_lp_Energy>  (118) 
125.12

>  <b_lp_Chiralities_Consistent>  (118) 
1

>  <s_lp_Variant>  (118) 
73:0-1

>  <s_i_glide_gridfile>  (118) 
pfpi4k_grid

>  <i_i_glide_lignum>  (118) 
26

>  <i_i_glide_rotatable_bonds>  (118) 
4

>  <r_i_docking_score>  (118) 
-3.81654

>  <r_i_glide_ligand_efficiency>  (118) 
-0.224502

>  <r_i_glide_ligand_efficiency_sa>  (118) 
-0.577259

>  <r_i_glide_ligand_efficiency_ln>  (118) 
-0.995651

>  <r_i_glide_gscore>  (118) 
-3.81654

>  <r_i_glide_lipo>  (118) 
-0.611334

>  <r_i_glide_hbond>  (118) 
-0.0635271

>  <r_i_glide_metal>  (118) 
-0

>  <r_i_glide_rewards>  (118) 
-2.44793

>  <r_i_glide_evdw>  (118) 
-19.4039

>  <r_i_glide_ecoul>  (118) 
-2.21093

>  <r_i_glide_erotb>  (118) 
0.608089

>  <r_i_glide_esite>  (118) 
0

>  <r_i_glide_emodel>  (118) 
-30.3619

>  <r_i_glide_energy>  (118) 
-21.6148

>  <r_i_glide_einternal>  (118) 
3.67153

>  <r_i_glide_intrahb_reward>  (118) 
-0.5

>  <i_i_glide_confnum>  (118) 
4

>  <i_i_glide_posenum>  (118) 
35

>  <r_i_glide_eff_state_penalty>  (118) 
0

>  <ligand_id>  (118) 
73

>  <original_smiles>  (118) 
CC(=O)OC1C2=CCC3(CO3)C23OCC13CO

>  <smiles>  (118) 
[H]OC([H])([H])C12C([H])([H])OC13C(=C([H])C([H])([H])C31OC1([H])[H])C2([H])OC(=O)C([H])([H])[H]

$$$$
73:0:1
     RDKit          3D

 31 34  0  0  1  0  0  0  0  0999 V2000
    7.8848   -5.6921    1.5947 C   0  0  0  0  0  0  0  0  0  0  0  0
    7.8069   -4.6218    0.5163 C   0  0  0  0  0  0  0  0  0  0  0  0
    8.8286   -4.1001    0.0615 O   0  0  0  0  0  0  0  0  0  0  0  0
    6.5428   -4.3545    0.1453 O   0  0  0  0  0  0  0  0  0  0  0  0
    6.2699   -3.4772   -0.9499 C   0  0  2  0  0  0  0  0  0  0  0  0
    5.9958   -1.9876   -0.6595 C   0  0  0  0  0  0  0  0  0  0  0  0
    6.4588   -1.4308    0.4686 C   0  0  0  0  0  0  0  0  0  0  0  0
    5.6693   -1.7563    1.7100 C   0  0  0  0  0  0  0  0  0  0  0  0
    4.5830   -2.6532    1.1664 C   0  0  1  0  0  0  0  0  0  0  0  0
    4.0779   -3.8646    1.9147 C   0  0  0  0  0  0  0  0  0  0  0  0
    3.2985   -2.6712    1.8203 O   0  0  0  0  0  0  0  0  0  0  0  0
    4.6288   -2.4892   -0.3728 C   0  0  1  0  0  0  0  0  0  0  0  0
    3.4505   -2.0309   -0.9839 O   0  0  0  0  0  0  0  0  0  0  0  0
    3.2986   -3.4359   -1.2653 C   0  0  0  0  0  0  0  0  0  0  0  0
    4.8422   -3.5376   -1.5745 C   0  0  2  0  0  0  0  0  0  0  0  0
    4.9779   -3.3615   -3.1116 C   0  0  0  0  0  0  0  0  0  0  0  0
    4.5869   -2.0910   -3.5875 O   0  0  0  0  0  0  0  0  0  0  0  0
    6.9173   -6.1839    1.7249 H   0  0  0  0  0  0  0  0  0  0  0  0
    8.1859   -5.2562    2.5498 H   0  0  0  0  0  0  0  0  0  0  0  0
    8.6170   -6.4570    1.3184 H   0  0  0  0  0  0  0  0  0  0  0  0
    7.0421   -3.6369   -1.7015 H   0  0  0  0  0  0  0  0  0  0  0  0
    7.2516   -0.7071    0.5058 H   0  0  0  0  0  0  0  0  0  0  0  0
    6.2792   -2.3000    2.4253 H   0  0  0  0  0  0  0  0  0  0  0  0
    5.2513   -0.8594    2.1646 H   0  0  0  0  0  0  0  0  0  0  0  0
    3.7155   -4.7236    1.3548 H   0  0  0  0  0  0  0  0  0  0  0  0
    4.5155   -4.0739    2.8911 H   0  0  0  0  0  0  0  0  0  0  0  0
    2.8738   -4.0226   -0.4475 H   0  0  0  0  0  0  0  0  0  0  0  0
    2.6607   -3.5815   -2.1390 H   0  0  0  0  0  0  0  0  0  0  0  0
    5.9846   -3.5786   -3.4762 H   0  0  0  0  0  0  0  0  0  0  0  0
    4.3436   -4.1050   -3.5980 H   0  0  0  0  0  0  0  0  0  0  0  0
    3.7501   -1.8775   -3.1948 H   0  0  0  0  0  0  0  0  0  0  0  0
  1  2  1  0
  1 18  1  0
  1 19  1  0
  1 20  1  0
  2  3  2  0
  2  4  1  0
  4  5  1  0
  5 15  1  0
  5  6  1  0
  5 21  1  6
  6 12  1  0
  6  7  2  0
  7  8  1  0
  7 22  1  0
  8  9  1  0
  8 23  1  0
  8 24  1  0
  9 11  1  1
  9 10  1  0
  9 12  1  0
 10 11  1  0
 10 25  1  0
 10 26  1  0
 12 15  1  0
 12 13  1  6
 13 14  1  0
 14 15  1  0
 14 27  1  0
 14 28  1  0
 15 16  1  6
 16 17  1  0
 16 29  1  0
 16 30  1  0
 17 31  1  0
M  END
>  <i_m_ct_stereo_status>  (119) 
1

>  <s_m_source_file>  (119) 
/var/tmp/pbs.5076253.sched01/tmpx6ss0mji/80_l3th0xi.sdf

>  <i_m_source_file_index>  (119) 
26

>  <i_lp_mmshare_version>  (119) 
48012

>  <i_f3d_flags>  (119) 
0

>  <s_epik_input>  (119) 
W0NIM11DKD1PKU9bQ0BASF0oW0NAXTEoW0NIMl1PMilbQ0gyXVtPSF0pQyg9W0NIXVtDSDJdMylDMTJbQ0BAXTM0W0NIMl1PNA==

>  <s_epik_cmdline>  (119) 
J2VwaWtfcHl0aG9uJywgJy1waHQnLCAnMi4wJywgJy1waCcsICc3LjAnLCAnLXRuJywgJzgnLCAnLW1hJywgJzIwMCcsICctaW1hZScsICc8aW5maWxlLm1hZT4nLCAnLW9tYWUnLCAnPG91dGZpbGUubWFlPic=

>  <r_lp_tautomer_probability>  (119) 
1

>  <r_epik_Ionization_Penalty>  (119) 
7.06217e-08

>  <r_epik_Ionization_Penalty_Charging>  (119) 
0

>  <r_epik_Ionization_Penalty_Neutral>  (119) 
7.06217e-08

>  <r_epik_State_Penalty>  (119) 
-0

>  <r_epik_Charging_Adjusted_Penalty>  (119) 
0

>  <i_epik_Tot_Q>  (119) 
0

>  <i_epik_Tot_abs_Q>  (119) 
0

>  <s_epik_Chemistry_Notes>  (119) 
This compound has an ester and may undergo hydrolysis at high or low pH.

>  <s_lp_Force_Field>  (119) 
OPLS3e

>  <r_lp_Energy>  (119) 
125.12

>  <b_lp_Chiralities_Consistent>  (119) 
1

>  <s_lp_Variant>  (119) 
73:0-1

>  <s_i_glide_gridfile>  (119) 
pfpi4k_grid

>  <i_i_glide_lignum>  (119) 
26

>  <i_i_glide_rotatable_bonds>  (119) 
4

>  <r_i_docking_score>  (119) 
-3.63258

>  <r_i_glide_ligand_efficiency>  (119) 
-0.213681

>  <r_i_glide_ligand_efficiency_sa>  (119) 
-0.549435

>  <r_i_glide_ligand_efficiency_ln>  (119) 
-0.94766

>  <r_i_glide_gscore>  (119) 
-3.63258

>  <r_i_glide_lipo>  (119) 
-0.63045

>  <r_i_glide_hbond>  (119) 
-0.046165

>  <r_i_glide_metal>  (119) 
-0

>  <r_i_glide_rewards>  (119) 
-1.99948

>  <r_i_glide_evdw>  (119) 
-22.5942

>  <r_i_glide_ecoul>  (119) 
-2.89912

>  <r_i_glide_erotb>  (119) 
0.608089

>  <r_i_glide_esite>  (119) 
0

>  <r_i_glide_emodel>  (119) 
-29.0071

>  <r_i_glide_energy>  (119) 
-25.4933

>  <r_i_glide_einternal>  (119) 
3.46428

>  <r_i_glide_intrahb_reward>  (119) 
-0

>  <i_i_glide_confnum>  (119) 
4

>  <i_i_glide_posenum>  (119) 
28

>  <r_i_glide_eff_state_penalty>  (119) 
0

>  <ligand_id>  (119) 
73

>  <original_smiles>  (119) 
CC(=O)OC1C2=CCC3(CO3)C23OCC13CO

>  <smiles>  (119) 
[H]OC([H])([H])C12C([H])([H])OC13C(=C([H])C([H])([H])C31OC1([H])[H])C2([H])OC(=O)C([H])([H])[H]

$$$$
73:0:2
     RDKit          3D

 31 34  0  0  1  0  0  0  0  0999 V2000
    3.5872   -1.7198   -3.7616 C   0  0  0  0  0  0  0  0  0  0  0  0
    3.0503   -2.4130   -2.5196 C   0  0  0  0  0  0  0  0  0  0  0  0
    2.0446   -3.1123   -2.5841 O   0  0  0  0  0  0  0  0  0  0  0  0
    3.7848   -2.1780   -1.4184 O   0  0  0  0  0  0  0  0  0  0  0  0
    3.3827   -2.8092   -0.1981 C   0  0  2  0  0  0  0  0  0  0  0  0
    4.1518   -2.4720    1.0992 C   0  0  0  0  0  0  0  0  0  0  0  0
    4.8493   -1.3319    1.1864 C   0  0  0  0  0  0  0  0  0  0  0  0
    6.1797   -1.3306    0.4739 C   0  0  0  0  0  0  0  0  0  0  0  0
    6.2018   -2.7151   -0.1231 C   0  0  1  0  0  0  0  0  0  0  0  0
    6.7592   -2.9976   -1.5058 C   0  0  0  0  0  0  0  0  0  0  0  0
    7.4883   -3.3546   -0.3230 O   0  0  0  0  0  0  0  0  0  0  0  0
    5.0718   -3.5112    0.5821 C   0  0  1  0  0  0  0  0  0  0  0  0
    5.4713   -4.6634    1.2797 O   0  0  0  0  0  0  0  0  0  0  0  0
    4.9991   -5.3020    0.0731 C   0  0  0  0  0  0  0  0  0  0  0  0
    3.7883   -4.2993    0.0177 C   0  0  2  0  0  0  0  0  0  0  0  0
    2.6141   -4.9988    0.7353 C   0  0  0  0  0  0  0  0  0  0  0  0
    1.7116   -5.4545   -0.2675 O   0  0  0  0  0  0  0  0  0  0  0  0
    4.5779   -1.2937   -3.5832 H   0  0  0  0  0  0  0  0  0  0  0  0
    2.9001   -0.9242   -4.0675 H   0  0  0  0  0  0  0  0  0  0  0  0
    3.6497   -2.4470   -4.5770 H   0  0  0  0  0  0  0  0  0  0  0  0
    2.3040   -2.6677   -0.0920 H   0  0  0  0  0  0  0  0  0  0  0  0
    4.5808   -0.5232    1.8413 H   0  0  0  0  0  0  0  0  0  0  0  0
    6.1772   -0.5650   -0.2962 H   0  0  0  0  0  0  0  0  0  0  0  0
    7.0043   -1.1742    1.1702 H   0  0  0  0  0  0  0  0  0  0  0  0
    6.3374   -3.8126   -2.0815 H   0  0  0  0  0  0  0  0  0  0  0  0
    7.1715   -2.1682   -2.0751 H   0  0  0  0  0  0  0  0  0  0  0  0
    5.7164   -5.3033   -0.7431 H   0  0  0  0  0  0  0  0  0  0  0  0
    4.7153   -6.3379    0.2618 H   0  0  0  0  0  0  0  0  0  0  0  0
    2.9241   -5.8559    1.3297 H   0  0  0  0  0  0  0  0  0  0  0  0
    2.0907   -4.3347    1.4237 H   0  0  0  0  0  0  0  0  0  0  0  0
    2.2197   -5.6987   -1.0340 H   0  0  0  0  0  0  0  0  0  0  0  0
  1  2  1  0
  1 18  1  0
  1 19  1  0
  1 20  1  0
  2  3  2  0
  2  4  1  0
  4  5  1  0
  5 15  1  0
  5  6  1  0
  5 21  1  1
  6 12  1  0
  6  7  2  0
  7  8  1  0
  7 22  1  0
  8  9  1  0
  8 23  1  0
  8 24  1  0
  9 11  1  1
  9 10  1  0
  9 12  1  0
 10 11  1  0
 10 25  1  0
 10 26  1  0
 12 15  1  0
 12 13  1  1
 13 14  1  0
 14 15  1  0
 14 27  1  0
 14 28  1  0
 15 16  1  1
 16 17  1  0
 16 29  1  0
 16 30  1  0
 17 31  1  0
M  END
>  <i_m_ct_stereo_status>  (120) 
1

>  <s_m_source_file>  (120) 
/var/tmp/pbs.5076253.sched01/tmpx6ss0mji/80_l3th0xi.sdf

>  <i_m_source_file_index>  (120) 
26

>  <i_lp_mmshare_version>  (120) 
48012

>  <i_f3d_flags>  (120) 
0

>  <s_epik_input>  (120) 
W0NIM11DKD1PKU9bQ0BASF0oW0NAXTEoW0NIMl1PMilbQ0gyXVtPSF0pQyg9W0NIXVtDSDJdMylDMTJbQ0BAXTM0W0NIMl1PNA==

>  <s_epik_cmdline>  (120) 
J2VwaWtfcHl0aG9uJywgJy1waHQnLCAnMi4wJywgJy1waCcsICc3LjAnLCAnLXRuJywgJzgnLCAnLW1hJywgJzIwMCcsICctaW1hZScsICc8aW5maWxlLm1hZT4nLCAnLW9tYWUnLCAnPG91dGZpbGUubWFlPic=

>  <r_lp_tautomer_probability>  (120) 
1

>  <r_epik_Ionization_Penalty>  (120) 
7.06217e-08

>  <r_epik_Ionization_Penalty_Charging>  (120) 
0

>  <r_epik_Ionization_Penalty_Neutral>  (120) 
7.06217e-08

>  <r_epik_State_Penalty>  (120) 
-0

>  <r_epik_Charging_Adjusted_Penalty>  (120) 
0

>  <i_epik_Tot_Q>  (120) 
0

>  <i_epik_Tot_abs_Q>  (120) 
0

>  <s_epik_Chemistry_Notes>  (120) 
This compound has an ester and may undergo hydrolysis at high or low pH.

>  <s_lp_Force_Field>  (120) 
OPLS3e

>  <r_lp_Energy>  (120) 
125.12

>  <b_lp_Chiralities_Consistent>  (120) 
1

>  <s_lp_Variant>  (120) 
73:0-1

>  <s_i_glide_gridfile>  (120) 
pfpi4k_grid

>  <i_i_glide_lignum>  (120) 
26

>  <i_i_glide_rotatable_bonds>  (120) 
4

>  <r_i_docking_score>  (120) 
-3.4851

>  <r_i_glide_ligand_efficiency>  (120) 
-0.205006

>  <r_i_glide_ligand_efficiency_sa>  (120) 
-0.527128

>  <r_i_glide_ligand_efficiency_ln>  (120) 
-0.909186

>  <r_i_glide_gscore>  (120) 
-3.4851

>  <r_i_glide_lipo>  (120) 
-0.422634

>  <r_i_glide_hbond>  (120) 
0

>  <r_i_glide_metal>  (120) 
-0

>  <r_i_glide_rewards>  (120) 
-1.78475

>  <r_i_glide_evdw>  (120) 
-23.2549

>  <r_i_glide_ecoul>  (120) 
-4.52605

>  <r_i_glide_erotb>  (120) 
0.608089

>  <r_i_glide_esite>  (120) 
-0.044153

>  <r_i_glide_emodel>  (120) 
-32.4133

>  <r_i_glide_energy>  (120) 
-27.781

>  <r_i_glide_einternal>  (120) 
0.569523

>  <r_i_glide_intrahb_reward>  (120) 
-0

>  <i_i_glide_confnum>  (120) 
6

>  <i_i_glide_posenum>  (120) 
2

>  <r_i_glide_eff_state_penalty>  (120) 
0

>  <ligand_id>  (120) 
73

>  <original_smiles>  (120) 
CC(=O)OC1C2=CCC3(CO3)C23OCC13CO

>  <smiles>  (120) 
[H]OC([H])([H])C12C([H])([H])OC13C(=C([H])C([H])([H])C31OC1([H])[H])C2([H])OC(=O)C([H])([H])[H]

$$$$
73:1:0
     RDKit          3D

 31 34  0  0  1  0  0  0  0  0999 V2000
    4.0488   -0.1616    2.1599 C   0  0  0  0  0  0  0  0  0  0  0  0
    5.0856   -1.0019    2.9034 C   0  0  0  0  0  0  0  0  0  0  0  0
    5.1343   -0.9813    4.1161 O   0  0  0  0  0  0  0  0  0  0  0  0
    5.9018   -1.7701    2.1275 O   0  0  0  0  0  0  0  0  0  0  0  0
    6.0858   -1.6002    0.7323 C   0  0  2  0  0  0  0  0  0  0  0  0
    4.8820   -1.8409   -0.1254 C   0  0  0  0  0  0  0  0  0  0  0  0
    4.2741   -0.9757   -0.9521 C   0  0  0  0  0  0  0  0  0  0  0  0
    4.1059   -1.5772   -2.3040 C   0  0  0  0  0  0  0  0  0  0  0  0
    4.8744   -2.8859   -2.1926 C   0  0  1  0  0  0  0  0  0  0  0  0
    4.8385   -3.9477   -3.2427 C   0  0  0  0  0  0  0  0  0  0  0  0
    5.9417   -3.0623   -3.1324 O   0  0  0  0  0  0  0  0  0  0  0  0
    5.2808   -3.1141   -0.7415 C   0  0  2  0  0  0  0  0  0  0  0  0
    4.8972   -4.2702   -0.0030 O   0  0  0  0  0  0  0  0  0  0  0  0
    6.1736   -4.2760    0.6670 C   0  0  0  0  0  0  0  0  0  0  0  0
    6.5936   -2.9142    0.0484 C   0  0  2  0  0  0  0  0  0  0  0  0
    7.9206   -2.8701   -0.7324 C   0  0  0  0  0  0  0  0  0  0  0  0
    8.9404   -2.3045    0.0640 O   0  0  0  0  0  0  0  0  0  0  0  0
    4.5447    0.4969    1.4466 H   0  0  0  0  0  0  0  0  0  0  0  0
    3.4479    0.4536    2.8288 H   0  0  0  0  0  0  0  0  0  0  0  0
    3.3847   -0.8385    1.6186 H   0  0  0  0  0  0  0  0  0  0  0  0
    6.7080   -0.7434    0.4836 H   0  0  0  0  0  0  0  0  0  0  0  0
    4.2163    0.0747   -0.7817 H   0  0  0  0  0  0  0  0  0  0  0  0
    3.0458   -1.7149   -2.5617 H   0  0  0  0  0  0  0  0  0  0  0  0
    4.5818   -0.9219   -3.0254 H   0  0  0  0  0  0  0  0  0  0  0  0
    5.0109   -4.9744   -2.9031 H   0  0  0  0  0  0  0  0  0  0  0  0
    4.1654   -3.8120   -4.0891 H   0  0  0  0  0  0  0  0  0  0  0  0
    6.0583   -4.2636    1.7554 H   0  0  0  0  0  0  0  0  0  0  0  0
    6.7829   -5.1356    0.3541 H   0  0  0  0  0  0  0  0  0  0  0  0
    8.2127   -3.8646   -1.0728 H   0  0  0  0  0  0  0  0  0  0  0  0
    7.7869   -2.2590   -1.6211 H   0  0  0  0  0  0  0  0  0  0  0  0
    9.6790   -2.0814   -0.4954 H   0  0  0  0  0  0  0  0  0  0  0  0
  1  2  1  0
  1 18  1  0
  1 19  1  0
  1 20  1  0
  2  3  2  0
  2  4  1  0
  4  5  1  0
  5 15  1  0
  5  6  1  0
  5 21  1  1
  6 12  1  0
  6  7  2  0
  7  8  1  0
  7 22  1  0
  8  9  1  0
  8 23  1  0
  8 24  1  0
  9 11  1  6
  9 10  1  0
  9 12  1  0
 10 11  1  0
 10 25  1  0
 10 26  1  0
 12 15  1  0
 12 13  1  1
 13 14  1  0
 14 15  1  0
 14 27  1  0
 14 28  1  0
 15 16  1  6
 16 17  1  0
 16 29  1  0
 16 30  1  0
 17 31  1  0
M  END
>  <i_m_ct_stereo_status>  (121) 
1

>  <s_m_source_file>  (121) 
/var/tmp/pbs.5076253.sched01/tmpx6ss0mji/80_l3th0xi.sdf

>  <i_m_source_file_index>  (121) 
27

>  <i_lp_mmshare_version>  (121) 
48012

>  <i_f3d_flags>  (121) 
0

>  <s_epik_input>  (121) 
W0NIM11DKD1PKU9bQ0BASF0oW0NAXTEoW0NIMl1PMilbQ0gyXVtPSF0pQyg9W0NIXVtDSDJdMylDMTJbQ0BAXTM0W0NIMl1PNA==

>  <s_epik_cmdline>  (121) 
J2VwaWtfcHl0aG9uJywgJy1waHQnLCAnMi4wJywgJy1waCcsICc3LjAnLCAnLXRuJywgJzgnLCAnLW1hJywgJzIwMCcsICctaW1hZScsICc8aW5maWxlLm1hZT4nLCAnLW9tYWUnLCAnPG91dGZpbGUubWFlPic=

>  <r_lp_tautomer_probability>  (121) 
1

>  <r_epik_Ionization_Penalty>  (121) 
7.06217e-08

>  <r_epik_Ionization_Penalty_Charging>  (121) 
0

>  <r_epik_Ionization_Penalty_Neutral>  (121) 
7.06217e-08

>  <r_epik_State_Penalty>  (121) 
-0

>  <r_epik_Charging_Adjusted_Penalty>  (121) 
0

>  <i_epik_Tot_Q>  (121) 
0

>  <i_epik_Tot_abs_Q>  (121) 
0

>  <s_epik_Chemistry_Notes>  (121) 
This compound has an ester and may undergo hydrolysis at high or low pH.

>  <s_lp_Force_Field>  (121) 
OPLS3e

>  <r_lp_Energy>  (121) 
45.6255

>  <b_lp_Chiralities_Consistent>  (121) 
1

>  <s_lp_Variant>  (121) 
73:0-2

>  <s_i_glide_gridfile>  (121) 
pfpi4k_grid

>  <i_i_glide_lignum>  (121) 
27

>  <i_i_glide_rotatable_bonds>  (121) 
4

>  <r_i_docking_score>  (121) 
-3.53161

>  <r_i_glide_ligand_efficiency>  (121) 
-0.207742

>  <r_i_glide_ligand_efficiency_sa>  (121) 
-0.534162

>  <r_i_glide_ligand_efficiency_ln>  (121) 
-0.921318

>  <r_i_glide_gscore>  (121) 
-3.53161

>  <r_i_glide_lipo>  (121) 
-0.456826

>  <r_i_glide_hbond>  (121) 
-0.237046

>  <r_i_glide_metal>  (121) 
-0

>  <r_i_glide_rewards>  (121) 
-1.93825

>  <r_i_glide_evdw>  (121) 
-22.2627

>  <r_i_glide_ecoul>  (121) 
-2.62956

>  <r_i_glide_erotb>  (121) 
0.608089

>  <r_i_glide_esite>  (121) 
0

>  <r_i_glide_emodel>  (121) 
-26.4184

>  <r_i_glide_energy>  (121) 
-24.8923

>  <r_i_glide_einternal>  (121) 
6.95765

>  <r_i_glide_intrahb_reward>  (121) 
-0

>  <i_i_glide_confnum>  (121) 
1

>  <i_i_glide_posenum>  (121) 
19

>  <r_i_glide_eff_state_penalty>  (121) 
0

>  <ligand_id>  (121) 
73

>  <original_smiles>  (121) 
CC(=O)OC1C2=CCC3(CO3)C23OCC13CO

>  <smiles>  (121) 
[H]OC([H])([H])C12C([H])([H])OC13C(=C([H])C([H])([H])C31OC1([H])[H])C2([H])OC(=O)C([H])([H])[H]

$$$$
73:1:1
     RDKit          3D

 31 34  0  0  1  0  0  0  0  0999 V2000
    3.8060   -3.0952    4.0961 C   0  0  0  0  0  0  0  0  0  0  0  0
    3.8039   -2.4031    2.7427 C   0  0  0  0  0  0  0  0  0  0  0  0
    4.2019   -1.2437    2.6316 O   0  0  0  0  0  0  0  0  0  0  0  0
    3.3560   -3.1766    1.7341 O   0  0  0  0  0  0  0  0  0  0  0  0
    3.3226   -2.5873    0.4447 C   0  0  2  0  0  0  0  0  0  0  0  0
    3.0074   -3.5001   -0.6901 C   0  0  0  0  0  0  0  0  0  0  0  0
    1.9849   -3.4606   -1.5251 C   0  0  0  0  0  0  0  0  0  0  0  0
    2.4465   -3.3832   -2.9568 C   0  0  0  0  0  0  0  0  0  0  0  0
    3.9541   -3.3167   -2.8123 C   0  0  1  0  0  0  0  0  0  0  0  0
    4.9229   -3.5362   -3.9187 C   0  0  0  0  0  0  0  0  0  0  0  0
    4.5996   -2.2188   -3.4942 O   0  0  0  0  0  0  0  0  0  0  0  0
    4.3255   -3.5006   -1.3559 C   0  0  2  0  0  0  0  0  0  0  0  0
    5.2095   -4.5505   -0.9367 O   0  0  0  0  0  0  0  0  0  0  0  0
    5.7700   -3.6488    0.0507 C   0  0  0  0  0  0  0  0  0  0  0  0
    4.7299   -2.5334   -0.2365 C   0  0  2  0  0  0  0  0  0  0  0  0
    5.2437   -1.1629   -0.6351 C   0  0  0  0  0  0  0  0  0  0  0  0
    6.1088   -0.6691    0.3629 O   0  0  0  0  0  0  0  0  0  0  0  0
    2.7980   -3.4329    4.3432 H   0  0  0  0  0  0  0  0  0  0  0  0
    4.1414   -2.4034    4.8781 H   0  0  0  0  0  0  0  0  0  0  0  0
    4.4809   -3.9544    4.0846 H   0  0  0  0  0  0  0  0  0  0  0  0
    2.7823   -1.6395    0.4203 H   0  0  0  0  0  0  0  0  0  0  0  0
    1.0006   -3.0808   -1.3075 H   0  0  0  0  0  0  0  0  0  0  0  0
    2.1594   -4.2524   -3.5429 H   0  0  0  0  0  0  0  0  0  0  0  0
    2.0716   -2.4775   -3.4280 H   0  0  0  0  0  0  0  0  0  0  0  0
    5.9320   -3.8533   -3.6773 H   0  0  0  0  0  0  0  0  0  0  0  0
    4.5162   -3.8282   -4.8829 H   0  0  0  0  0  0  0  0  0  0  0  0
    5.7211   -4.0632    1.0567 H   0  0  0  0  0  0  0  0  0  0  0  0
    6.7924   -3.3605   -0.1997 H   0  0  0  0  0  0  0  0  0  0  0  0
    5.7928   -1.2121   -1.5754 H   0  0  0  0  0  0  0  0  0  0  0  0
    4.4110   -0.4701   -0.7795 H   0  0  0  0  0  0  0  0  0  0  0  0
    5.6179   -0.6380    1.1741 H   0  0  0  0  0  0  0  0  0  0  0  0
  1  2  1  0
  1 18  1  0
  1 19  1  0
  1 20  1  0
  2  3  2  0
  2  4  1  0
  4  5  1  0
  5 15  1  0
  5  6  1  0
  5 21  1  1
  6 12  1  0
  6  7  2  0
  7  8  1  0
  7 22  1  0
  8  9  1  0
  8 23  1  0
  8 24  1  0
  9 11  1  1
  9 10  1  0
  9 12  1  0
 10 11  1  0
 10 25  1  0
 10 26  1  0
 12 15  1  0
 12 13  1  6
 13 14  1  0
 14 15  1  0
 14 27  1  0
 14 28  1  0
 15 16  1  6
 16 17  1  0
 16 29  1  0
 16 30  1  0
 17 31  1  0
M  END
>  <i_m_ct_stereo_status>  (122) 
1

>  <s_m_source_file>  (122) 
/var/tmp/pbs.5076253.sched01/tmpx6ss0mji/80_l3th0xi.sdf

>  <i_m_source_file_index>  (122) 
27

>  <i_lp_mmshare_version>  (122) 
48012

>  <i_f3d_flags>  (122) 
0

>  <s_epik_input>  (122) 
W0NIM11DKD1PKU9bQ0BASF0oW0NAXTEoW0NIMl1PMilbQ0gyXVtPSF0pQyg9W0NIXVtDSDJdMylDMTJbQ0BAXTM0W0NIMl1PNA==

>  <s_epik_cmdline>  (122) 
J2VwaWtfcHl0aG9uJywgJy1waHQnLCAnMi4wJywgJy1waCcsICc3LjAnLCAnLXRuJywgJzgnLCAnLW1hJywgJzIwMCcsICctaW1hZScsICc8aW5maWxlLm1hZT4nLCAnLW9tYWUnLCAnPG91dGZpbGUubWFlPic=

>  <r_lp_tautomer_probability>  (122) 
1

>  <r_epik_Ionization_Penalty>  (122) 
7.06217e-08

>  <r_epik_Ionization_Penalty_Charging>  (122) 
0

>  <r_epik_Ionization_Penalty_Neutral>  (122) 
7.06217e-08

>  <r_epik_State_Penalty>  (122) 
-0

>  <r_epik_Charging_Adjusted_Penalty>  (122) 
0

>  <i_epik_Tot_Q>  (122) 
0

>  <i_epik_Tot_abs_Q>  (122) 
0

>  <s_epik_Chemistry_Notes>  (122) 
This compound has an ester and may undergo hydrolysis at high or low pH.

>  <s_lp_Force_Field>  (122) 
OPLS3e

>  <r_lp_Energy>  (122) 
45.6255

>  <b_lp_Chiralities_Consistent>  (122) 
1

>  <s_lp_Variant>  (122) 
73:0-2

>  <s_i_glide_gridfile>  (122) 
pfpi4k_grid

>  <i_i_glide_lignum>  (122) 
27

>  <i_i_glide_rotatable_bonds>  (122) 
4

>  <r_i_docking_score>  (122) 
-3.06915

>  <r_i_glide_ligand_efficiency>  (122) 
-0.180538

>  <r_i_glide_ligand_efficiency_sa>  (122) 
-0.464214

>  <r_i_glide_ligand_efficiency_ln>  (122) 
-0.800672

>  <r_i_glide_gscore>  (122) 
-3.06915

>  <r_i_glide_lipo>  (122) 
-0.439185

>  <r_i_glide_hbond>  (122) 
0

>  <r_i_glide_metal>  (122) 
-0

>  <r_i_glide_rewards>  (122) 
-2.28483

>  <r_i_glide_evdw>  (122) 
-17.1686

>  <r_i_glide_ecoul>  (122) 
-0.631923

>  <r_i_glide_erotb>  (122) 
0.608089

>  <r_i_glide_esite>  (122) 
0

>  <r_i_glide_emodel>  (122) 
-26.6437

>  <r_i_glide_energy>  (122) 
-17.8006

>  <r_i_glide_einternal>  (122) 
0.888541

>  <r_i_glide_intrahb_reward>  (122) 
-0.5

>  <i_i_glide_confnum>  (122) 
3

>  <i_i_glide_posenum>  (122) 
20

>  <r_i_glide_eff_state_penalty>  (122) 
0

>  <ligand_id>  (122) 
73

>  <original_smiles>  (122) 
CC(=O)OC1C2=CCC3(CO3)C23OCC13CO

>  <smiles>  (122) 
[H]OC([H])([H])C12C([H])([H])OC13C(=C([H])C([H])([H])C31OC1([H])[H])C2([H])OC(=O)C([H])([H])[H]

$$$$
73:1:2
     RDKit          3D

 31 34  0  0  1  0  0  0  0  0999 V2000
   -0.2077   -2.4340    5.2608 C   0  0  0  0  0  0  0  0  0  0  0  0
   -0.9648   -1.1114    5.3037 C   0  0  0  0  0  0  0  0  0  0  0  0
   -2.1767   -1.0767    5.5207 O   0  0  0  0  0  0  0  0  0  0  0  0
   -0.1623   -0.0553    5.1299 O   0  0  0  0  0  0  0  0  0  0  0  0
   -0.6739    1.2559    5.3054 C   0  0  2  0  0  0  0  0  0  0  0  0
   -0.8324    2.0356    4.0426 C   0  0  0  0  0  0  0  0  0  0  0  0
   -1.9374    2.5192    3.4986 C   0  0  0  0  0  0  0  0  0  0  0  0
   -1.7917    3.9921    3.2493 C   0  0  0  0  0  0  0  0  0  0  0  0
   -0.4139    4.3252    3.8342 C   0  0  1  0  0  0  0  0  0  0  0  0
    0.3170    5.6286    3.6699 C   0  0  0  0  0  0  0  0  0  0  0  0
   -0.4067    5.3411    4.8616 O   0  0  0  0  0  0  0  0  0  0  0  0
    0.2537    3.0242    4.2450 C   0  0  2  0  0  0  0  0  0  0  0  0
    1.5403    2.6361    3.7277 O   0  0  0  0  0  0  0  0  0  0  0  0
    1.8654    2.0673    5.0284 C   0  0  0  0  0  0  0  0  0  0  0  0
    0.4395    2.3171    5.5960 C   0  0  2  0  0  0  0  0  0  0  0  0
    0.3053    3.1357    6.8779 C   0  0  0  0  0  0  0  0  0  0  0  0
    1.2396    4.1994    6.9436 O   0  0  0  0  0  0  0  0  0  0  0  0
    0.3315   -2.5306    4.3183 H   0  0  0  0  0  0  0  0  0  0  0  0
   -0.8965   -3.2753    5.3520 H   0  0  0  0  0  0  0  0  0  0  0  0
    0.5123   -2.5011    6.0791 H   0  0  0  0  0  0  0  0  0  0  0  0
   -1.5155    1.3402    6.0028 H   0  0  0  0  0  0  0  0  0  0  0  0
   -2.9261    2.1052    3.5969 H   0  0  0  0  0  0  0  0  0  0  0  0
   -1.8329    4.2511    2.1928 H   0  0  0  0  0  0  0  0  0  0  0  0
   -2.5646    4.5276    3.7974 H   0  0  0  0  0  0  0  0  0  0  0  0
    1.4001    5.6025    3.7413 H   0  0  0  0  0  0  0  0  0  0  0  0
   -0.1293    6.3456    2.9964 H   0  0  0  0  0  0  0  0  0  0  0  0
    2.1508    1.0231    4.9636 H   0  0  0  0  0  0  0  0  0  0  0  0
    2.6488    2.6374    5.5280 H   0  0  0  0  0  0  0  0  0  0  0  0
   -0.6989    3.5637    6.9481 H   0  0  0  0  0  0  0  0  0  0  0  0
    0.4411    2.5052    7.7553 H   0  0  0  0  0  0  0  0  0  0  0  0
    1.1083    4.7523    6.1847 H   0  0  0  0  0  0  0  0  0  0  0  0
  1  2  1  0
  1 18  1  0
  1 19  1  0
  1 20  1  0
  2  3  2  0
  2  4  1  0
  4  5  1  0
  5 15  1  0
  5  6  1  0
  5 21  1  1
  6 12  1  0
  6  7  2  0
  7  8  1  0
  7 22  1  0
  8  9  1  0
  8 23  1  0
  8 24  1  0
  9 11  1  1
  9 10  1  0
  9 12  1  0
 10 11  1  0
 10 25  1  0
 10 26  1  0
 12 15  1  0
 12 13  1  6
 13 14  1  0
 14 15  1  0
 14 27  1  0
 14 28  1  0
 15 16  1  1
 16 17  1  0
 16 29  1  0
 16 30  1  0
 17 31  1  0
M  END
>  <i_m_ct_stereo_status>  (123) 
1

>  <s_m_source_file>  (123) 
/var/tmp/pbs.5076253.sched01/tmpx6ss0mji/80_l3th0xi.sdf

>  <i_m_source_file_index>  (123) 
27

>  <i_lp_mmshare_version>  (123) 
48012

>  <i_f3d_flags>  (123) 
0

>  <s_epik_input>  (123) 
W0NIM11DKD1PKU9bQ0BASF0oW0NAXTEoW0NIMl1PMilbQ0gyXVtPSF0pQyg9W0NIXVtDSDJdMylDMTJbQ0BAXTM0W0NIMl1PNA==

>  <s_epik_cmdline>  (123) 
J2VwaWtfcHl0aG9uJywgJy1waHQnLCAnMi4wJywgJy1waCcsICc3LjAnLCAnLXRuJywgJzgnLCAnLW1hJywgJzIwMCcsICctaW1hZScsICc8aW5maWxlLm1hZT4nLCAnLW9tYWUnLCAnPG91dGZpbGUubWFlPic=

>  <r_lp_tautomer_probability>  (123) 
1

>  <r_epik_Ionization_Penalty>  (123) 
7.06217e-08

>  <r_epik_Ionization_Penalty_Charging>  (123) 
0

>  <r_epik_Ionization_Penalty_Neutral>  (123) 
7.06217e-08

>  <r_epik_State_Penalty>  (123) 
-0

>  <r_epik_Charging_Adjusted_Penalty>  (123) 
0

>  <i_epik_Tot_Q>  (123) 
0

>  <i_epik_Tot_abs_Q>  (123) 
0

>  <s_epik_Chemistry_Notes>  (123) 
This compound has an ester and may undergo hydrolysis at high or low pH.

>  <s_lp_Force_Field>  (123) 
OPLS3e

>  <r_lp_Energy>  (123) 
45.6255

>  <b_lp_Chiralities_Consistent>  (123) 
1

>  <s_lp_Variant>  (123) 
73:0-2

>  <s_i_glide_gridfile>  (123) 
pfpi4k_grid

>  <i_i_glide_lignum>  (123) 
27

>  <i_i_glide_rotatable_bonds>  (123) 
4

>  <r_i_docking_score>  (123) 
-2.93215

>  <r_i_glide_ligand_efficiency>  (123) 
-0.172479

>  <r_i_glide_ligand_efficiency_sa>  (123) 
-0.443493

>  <r_i_glide_ligand_efficiency_ln>  (123) 
-0.764932

>  <r_i_glide_gscore>  (123) 
-2.93215

>  <r_i_glide_lipo>  (123) 
0

>  <r_i_glide_hbond>  (123) 
-0.0149692

>  <r_i_glide_metal>  (123) 
-0

>  <r_i_glide_rewards>  (123) 
-2.28475

>  <r_i_glide_evdw>  (123) 
-16.4039

>  <r_i_glide_ecoul>  (123) 
-2.56334

>  <r_i_glide_erotb>  (123) 
0.608089

>  <r_i_glide_esite>  (123) 
-0.0358199

>  <r_i_glide_emodel>  (123) 
-27.4331

>  <r_i_glide_energy>  (123) 
-18.9673

>  <r_i_glide_einternal>  (123) 
2.0897

>  <r_i_glide_intrahb_reward>  (123) 
-0.5

>  <i_i_glide_confnum>  (123) 
5

>  <i_i_glide_posenum>  (123) 
2

>  <r_i_glide_eff_state_penalty>  (123) 
0

>  <ligand_id>  (123) 
73

>  <original_smiles>  (123) 
CC(=O)OC1C2=CCC3(CO3)C23OCC13CO

>  <smiles>  (123) 
[H]OC([H])([H])C12C([H])([H])OC13C(=C([H])C([H])([H])C31OC1([H])[H])C2([H])OC(=O)C([H])([H])[H]

$$$$
82:0:0
     RDKit          3D

 71 78  0  0  1  0  0  0  0  0999 V2000
    3.1466   -3.1278   -1.4391 C   0  0  0  0  0  0  0  0  0  0  0  0
    4.2832   -2.5241   -0.8360 O   0  0  0  0  0  0  0  0  0  0  0  0
    4.4832   -2.7794    0.5253 C   0  0  1  0  0  0  0  0  0  0  0  0
    4.2980   -4.0821    0.9255 O   0  0  0  0  0  0  0  0  0  0  0  0
    4.7343   -3.9587    2.2282 C   0  0  1  0  0  0  0  0  0  0  0  0
    6.0445   -3.4724    2.0608 O   0  0  0  0  0  0  0  0  0  0  0  0
    5.9488   -2.5798    0.9428 C   0  0  1  0  0  0  0  0  0  0  0  0
    6.9729   -3.0191   -0.1105 C   0  0  0  0  0  0  0  0  0  0  0  0
    7.3000   -2.2620   -1.0320 O   0  0  0  0  0  0  0  0  0  0  0  0
    3.8924   -2.7744    2.8207 C   0  0  2  0  0  0  0  0  0  0  0  0
    4.7351   -2.1986    3.8630 O   0  0  0  0  0  0  0  0  0  0  0  0
    4.1371   -2.4903    5.1318 C   0  0  2  0  0  0  0  0  0  0  0  0
    5.1735   -3.0598    6.1150 C   0  0  0  0  0  0  0  0  0  0  0  0
    3.2010   -3.4780    4.8769 O   0  0  0  0  0  0  0  0  0  0  0  0
    2.6275   -3.1057    3.6390 C   0  0  2  0  0  0  0  0  0  0  0  0
    1.7090   -4.2402    3.1277 C   0  0  0  0  0  0  0  0  0  0  0  0
    2.1313   -5.5067    3.6124 O   0  0  0  0  0  0  0  0  0  0  0  0
    1.2030   -6.5504    3.5215 C   0  0  2  0  0  0  0  0  0  0  0  0
    0.6903   -6.6545    2.2226 O   0  0  0  0  0  0  0  0  0  0  0  0
   -0.2584   -7.6691    2.0721 C   0  0  1  0  0  0  0  0  0  0  0  0
    0.3659   -9.0731    2.2651 C   0  0  0  0  0  0  0  0  0  0  0  0
   -1.3622   -7.4796    2.9032 O   0  0  0  0  0  0  0  0  0  0  0  0
   -1.0357   -7.4608    4.2894 C   0  0  0  0  0  0  0  0  0  0  0  0
    0.0267   -6.3748    4.5433 C   0  0  1  0  0  0  0  0  0  0  0  0
    0.4576   -6.5094    5.8821 O   0  0  0  0  0  0  0  0  0  0  0  0
    1.9082   -1.7758    3.8935 C   0  0  0  0  0  0  0  0  0  0  0  0
    0.6089   -1.5770    4.0479 C   0  0  0  0  0  0  0  0  0  0  0  0
    0.3086   -0.2946    4.7279 C   0  0  1  0  0  0  0  0  0  0  0  0
   -1.2075   -0.1209    4.9236 C   0  0  0  0  0  0  0  0  0  0  0  0
    0.9292   -0.3169    6.0902 O   0  0  0  0  0  0  0  0  0  0  0  0
    2.0704   -1.4500    6.3611 O   0  0  0  0  0  0  0  0  0  0  0  0
    3.3741   -1.2025    5.6761 C   0  0  2  0  0  0  0  0  0  0  0  0
    2.8724   -0.6714    4.4178 C   0  0  1  0  0  0  0  0  0  0  0  0
    3.1213    0.4635    3.6527 O   0  0  0  0  0  0  0  0  0  0  0  0
    1.9431    0.8518    3.0125 C   0  0  1  0  0  0  0  0  0  0  0  0
    1.9046    0.0783    1.6555 C   0  0  0  0  0  0  0  0  0  0  0  0
    3.3099   -0.5330    1.2491 C   0  0  0  0  0  0  0  0  0  0  0  0
    3.4940   -2.0707    1.4629 C   0  0  1  0  0  0  0  0  0  0  0  0
    0.7296    0.8029    3.8271 O   0  0  0  0  0  0  0  0  0  0  0  0
    3.2176   -3.0183   -2.5235 H   0  0  0  0  0  0  0  0  0  0  0  0
    2.2174   -2.6616   -1.1164 H   0  0  0  0  0  0  0  0  0  0  0  0
    3.0880   -4.1936   -1.2197 H   0  0  0  0  0  0  0  0  0  0  0  0
    4.7233   -4.8885    2.7997 H   0  0  0  0  0  0  0  0  0  0  0  0
    6.1198   -1.5401    1.2228 H   0  0  0  0  0  0  0  0  0  0  0  0
    7.3945   -4.0151    0.0032 H   0  0  0  0  0  0  0  0  0  0  0  0
    5.6074   -3.9778    5.7134 H   0  0  0  0  0  0  0  0  0  0  0  0
    4.6868   -3.2973    7.0661 H   0  0  0  0  0  0  0  0  0  0  0  0
    5.9652   -2.3281    6.2969 H   0  0  0  0  0  0  0  0  0  0  0  0
    0.7107   -4.0746    3.4945 H   0  0  0  0  0  0  0  0  0  0  0  0
    1.6403   -4.2614    2.0418 H   0  0  0  0  0  0  0  0  0  0  0  0
    1.7921   -7.4383    3.7414 H   0  0  0  0  0  0  0  0  0  0  0  0
   -0.6279   -7.5832    1.0467 H   0  0  0  0  0  0  0  0  0  0  0  0
    0.7332   -9.2442    3.2755 H   0  0  0  0  0  0  0  0  0  0  0  0
    1.2081   -9.1907    1.5841 H   0  0  0  0  0  0  0  0  0  0  0  0
   -0.3833   -9.8366    2.0576 H   0  0  0  0  0  0  0  0  0  0  0  0
   -1.9395   -7.2336    4.8582 H   0  0  0  0  0  0  0  0  0  0  0  0
   -0.7079   -8.4479    4.6229 H   0  0  0  0  0  0  0  0  0  0  0  0
   -0.4804   -5.4212    4.4218 H   0  0  0  0  0  0  0  0  0  0  0  0
    0.9290   -7.3251    5.9812 H   0  0  0  0  0  0  0  0  0  0  0  0
   -0.1826   -2.2869    3.8978 H   0  0  0  0  0  0  0  0  0  0  0  0
   -1.4304    0.8248    5.4235 H   0  0  0  0  0  0  0  0  0  0  0  0
   -1.6337   -0.9333    5.5119 H   0  0  0  0  0  0  0  0  0  0  0  0
   -1.7115   -0.1085    3.9566 H   0  0  0  0  0  0  0  0  0  0  0  0
    4.0608   -0.5237    6.1877 H   0  0  0  0  0  0  0  0  0  0  0  0
    2.6301    0.2019    5.0109 H   0  0  0  0  0  0  0  0  0  0  0  0
    2.0710    1.9091    2.7923 H   0  0  0  0  0  0  0  0  0  0  0  0
    1.1062   -0.6623    1.6478 H   0  0  0  0  0  0  0  0  0  0  0  0
    1.5991    0.8033    0.8996 H   0  0  0  0  0  0  0  0  0  0  0  0
    3.3669   -0.3813    0.1730 H   0  0  0  0  0  0  0  0  0  0  0  0
    4.1627    0.0290    1.6258 H   0  0  0  0  0  0  0  0  0  0  0  0
    2.5325   -2.4811    1.1620 H   0  0  0  0  0  0  0  0  0  0  0  0
  1  2  1  0
  1 40  1  0
  1 41  1  0
  1 42  1  0
  3  2  1  6
  3  7  1  0
  3 38  1  0
  3  4  1  0
  4  5  1  0
  5  6  1  0
  5 10  1  0
  5 43  1  1
  6  7  1  0
  7  8  1  0
  7 44  1  1
  8  9  2  0
  8 45  1  0
 10 15  1  0
 10 38  1  0
 10 11  1  1
 11 12  1  0
 12 32  1  0
 12 13  1  1
 12 14  1  0
 13 46  1  0
 13 47  1  0
 13 48  1  0
 14 15  1  0
 15 16  1  6
 15 26  1  0
 16 17  1  0
 16 49  1  0
 16 50  1  0
 17 18  1  0
 18 24  1  0
 18 19  1  0
 18 51  1  1
 19 20  1  0
 20 21  1  0
 20 22  1  0
 20 52  1  6
 21 53  1  0
 21 54  1  0
 21 55  1  0
 22 23  1  0
 23 24  1  0
 23 56  1  0
 23 57  1  0
 24 25  1  0
 24 58  1  1
 25 59  1  0
 26 33  1  0
 26 27  2  0
 27 28  1  0
 27 60  1  0
 28 39  1  0
 28 29  1  1
 28 30  1  0
 29 61  1  0
 29 62  1  0
 29 63  1  0
 30 31  1  0
 31 32  1  0
 32 33  1  0
 32 64  1  1
 33 34  1  0
 33 65  1  1
 34 35  1  0
 35 36  1  0
 35 39  1  0
 35 66  1  6
 36 37  1  0
 36 67  1  0
 36 68  1  0
 37 38  1  0
 37 69  1  0
 37 70  1  0
 38 71  1  6
M  END
>  <i_m_ct_stereo_status>  (124) 
1

>  <s_m_source_file>  (124) 
/var/tmp/pbs.5076253.sched01/tmpx6ss0mji/80_l3th0xi.sdf

>  <i_m_source_file_index>  (124) 
38

>  <i_lp_mmshare_version>  (124) 
48012

>  <i_f3d_flags>  (124) 
0

>  <s_epik_input>  (124) 
Tz1bQ0hdW0NASF0oTzEpW0NAQF0oT1tDSDNdKShPW0NAQEhdMVtDQF0yMzQpW0NAQEhdNFtDSDJdW0NIMl1bQ0BASF01T1tDQEhdNkM9N1tDQEBdMyhPW0NAXShPMikoW0NIM10pW0NIXTZPT1tDQEBdKE81KShbQ0hdNylbQ0gzXSlbQ0gyXU9bQ0BASF04T1tDQEBIXShbQ0gzXSlPW0NIMl1bQ0BIXThbT0hd

>  <s_epik_cmdline>  (124) 
J2VwaWtfcHl0aG9uJywgJy1waHQnLCAnMi4wJywgJy1waCcsICc3LjAnLCAnLXRuJywgJzgnLCAnLW1hJywgJzIwMCcsICctaW1hZScsICc8aW5maWxlLm1hZT4nLCAnLW9tYWUnLCAnPG91dGZpbGUubWFlPic=

>  <r_lp_tautomer_probability>  (124) 
0.9999

>  <r_epik_Ionization_Penalty>  (124) 
0.0117614

>  <r_epik_Ionization_Penalty_Charging>  (124) 
0

>  <r_epik_Ionization_Penalty_Neutral>  (124) 
0.0117614

>  <r_epik_State_Penalty>  (124) 
0.00906538

>  <r_epik_Charging_Adjusted_Penalty>  (124) 
0.00906538

>  <i_epik_Tot_Q>  (124) 
0

>  <i_epik_Tot_abs_Q>  (124) 
0

>  <s_epik_Chemistry_Notes>  (124) 
This compound contains an acetal/aminal-like group ( X-CH(R)-Y where X, Y are N, S, or O) that may be acid/base labile, releasing an aldehyde.

>  <s_lp_Force_Field>  (124) 
OPLS3e

>  <r_lp_Energy>  (124) 
175.4

>  <b_lp_Chiralities_Consistent>  (124) 
1

>  <s_lp_Variant>  (124) 
82:0-1

>  <s_i_glide_gridfile>  (124) 
pfpi4k_grid

>  <i_i_glide_lignum>  (124) 
38

>  <i_i_glide_rotatable_bonds>  (124) 
6

>  <r_i_docking_score>  (124) 
-2.95635

>  <r_i_glide_ligand_efficiency>  (124) 
-0.0758037

>  <r_i_glide_ligand_efficiency_sa>  (124) 
-0.257066

>  <r_i_glide_ligand_efficiency_ln>  (124) 
-0.633924

>  <r_i_glide_gscore>  (124) 
-2.95635

>  <r_i_glide_lipo>  (124) 
-0.131364

>  <r_i_glide_hbond>  (124) 
-0.196385

>  <r_i_glide_metal>  (124) 
-0

>  <r_i_glide_rewards>  (124) 
-0.165807

>  <r_i_glide_evdw>  (124) 
-29.2113

>  <r_i_glide_ecoul>  (124) 
-6.78729

>  <r_i_glide_erotb>  (124) 
0.12538

>  <r_i_glide_esite>  (124) 
-0.109512

>  <r_i_glide_emodel>  (124) 
-39.3108

>  <r_i_glide_energy>  (124) 
-35.9986

>  <r_i_glide_einternal>  (124) 
6.41958

>  <r_i_glide_intrahb_reward>  (124) 
-0

>  <i_i_glide_confnum>  (124) 
3

>  <i_i_glide_posenum>  (124) 
8

>  <r_i_glide_eff_state_penalty>  (124) 
0

>  <ligand_id>  (124) 
82

>  <original_smiles>  (124) 
COC12OC(OC1C=O)C13OC4(C)OC1(COC1OC(C)OCC1O)C1=CC5(C)OOC4C1OC(CCC23)O5

>  <smiles>  (124) 
[H]OC1([H])C([H])([H])OC([H])(C([H])([H])[H])OC1([H])OC([H])([H])C12OC3(C([H])([H])[H])OC14C1([H])OC([H])(C([H])=O)C(OC([H])([H])[H])(O1)C4([H])C([H])([H])C([H])([H])C1([H])OC4([H])C2=C([H])C(C([H])([H])[H])(OOC43[H])O1

$$$$
82:0:1
     RDKit          3D

 71 78  0  0  1  0  0  0  0  0999 V2000
   -0.3439   -3.6262    7.7435 C   0  0  0  0  0  0  0  0  0  0  0  0
    0.0212   -2.3574    7.2249 O   0  0  0  0  0  0  0  0  0  0  0  0
    0.5848   -2.3409    5.9487 C   0  0  1  0  0  0  0  0  0  0  0  0
   -0.1483   -2.9492    4.9588 O   0  0  0  0  0  0  0  0  0  0  0  0
    0.6279   -2.5802    3.8748 C   0  0  1  0  0  0  0  0  0  0  0  0
    0.6462   -1.1775    3.9655 O   0  0  0  0  0  0  0  0  0  0  0  0
    0.6739   -0.9155    5.3683 C   0  0  1  0  0  0  0  0  0  0  0  0
   -0.5008    0.0311    5.7099 C   0  0  0  0  0  0  0  0  0  0  0  0
   -1.6239   -0.3752    6.0179 O   0  0  0  0  0  0  0  0  0  0  0  0
    2.0734   -3.0658    4.2387 C   0  0  2  0  0  0  0  0  0  0  0  0
    2.9723   -2.1602    3.5296 O   0  0  0  0  0  0  0  0  0  0  0  0
    3.6051   -2.9082    2.4791 C   0  0  2  0  0  0  0  0  0  0  0  0
    3.5436   -2.1551    1.1445 C   0  0  0  0  0  0  0  0  0  0  0  0
    2.8525   -4.0640    2.3527 O   0  0  0  0  0  0  0  0  0  0  0  0
    2.5466   -4.4344    3.6812 C   0  0  2  0  0  0  0  0  0  0  0  0
    1.5473   -5.6156    3.6502 C   0  0  0  0  0  0  0  0  0  0  0  0
    2.1642   -6.7828    3.1026 O   0  0  0  0  0  0  0  0  0  0  0  0
    1.3224   -7.8706    2.8656 C   0  0  2  0  0  0  0  0  0  0  0  0
    0.5023   -8.0871    3.9769 O   0  0  0  0  0  0  0  0  0  0  0  0
   -0.3195   -9.2062    3.8680 C   0  0  1  0  0  0  0  0  0  0  0  0
   -1.3920   -9.0096    2.7630 C   0  0  0  0  0  0  0  0  0  0  0  0
    0.3996  -10.3885    3.7164 O   0  0  0  0  0  0  0  0  0  0  0  0
    1.2750  -10.3846    2.6104 C   0  0  0  0  0  0  0  0  0  0  0  0
    2.1861   -9.1398    2.6263 C   0  0  1  0  0  0  0  0  0  0  0  0
    2.8346   -9.1060    1.3649 O   0  0  0  0  0  0  0  0  0  0  0  0
    3.8690   -4.7267    4.3869 C   0  0  0  0  0  0  0  0  0  0  0  0
    4.3755   -5.9271    4.7048 C   0  0  0  0  0  0  0  0  0  0  0  0
    5.8319   -5.8755    4.9161 C   0  0  1  0  0  0  0  0  0  0  0  0
    6.3946   -7.2701    5.2098 C   0  0  0  0  0  0  0  0  0  0  0  0
    6.4874   -5.4147    3.6485 O   0  0  0  0  0  0  0  0  0  0  0  0
    5.5426   -4.6758    2.5590 O   0  0  0  0  0  0  0  0  0  0  0  0
    5.0820   -3.3017    2.9252 C   0  0  2  0  0  0  0  0  0  0  0  0
    4.8552   -3.5355    4.3431 C   0  0  1  0  0  0  0  0  0  0  0  0
    5.2263   -2.8881    5.5256 O   0  0  0  0  0  0  0  0  0  0  0  0
    5.3846   -3.8450    6.5298 C   0  0  1  0  0  0  0  0  0  0  0  0
    3.9883   -4.0165    7.2083 C   0  0  0  0  0  0  0  0  0  0  0  0
    3.0001   -2.8282    6.8679 C   0  0  0  0  0  0  0  0  0  0  0  0
    1.8991   -3.1328    5.8017 C   0  0  1  0  0  0  0  0  0  0  0  0
    6.0814   -5.0657    6.1378 O   0  0  0  0  0  0  0  0  0  0  0  0
   -0.9641   -3.4816    8.6264 H   0  0  0  0  0  0  0  0  0  0  0  0
    0.5332   -4.1946    8.0493 H   0  0  0  0  0  0  0  0  0  0  0  0
   -0.9190   -4.2088    7.0244 H   0  0  0  0  0  0  0  0  0  0  0  0
    0.2459   -2.9079    2.9224 H   0  0  0  0  0  0  0  0  0  0  0  0
    1.6139   -0.4540    5.6744 H   0  0  0  0  0  0  0  0  0  0  0  0
   -0.2512    1.0935    5.6702 H   0  0  0  0  0  0  0  0  0  0  0  0
    2.5075   -1.9844    0.8523 H   0  0  0  0  0  0  0  0  0  0  0  0
    4.0208   -2.7610    0.3675 H   0  0  0  0  0  0  0  0  0  0  0  0
    4.0683   -1.1998    1.2154 H   0  0  0  0  0  0  0  0  0  0  0  0
    1.2273   -5.8471    4.6651 H   0  0  0  0  0  0  0  0  0  0  0  0
    0.6512   -5.3575    3.0837 H   0  0  0  0  0  0  0  0  0  0  0  0
    0.7180   -7.6087    1.9969 H   0  0  0  0  0  0  0  0  0  0  0  0
   -0.8012   -9.3074    4.8388 H   0  0  0  0  0  0  0  0  0  0  0  0
   -0.9683   -8.9389    1.7592 H   0  0  0  0  0  0  0  0  0  0  0  0
   -1.9561   -8.0964    2.9629 H   0  0  0  0  0  0  0  0  0  0  0  0
   -2.0903   -9.8465    2.7649 H   0  0  0  0  0  0  0  0  0  0  0  0
    1.8652  -11.3030    2.6081 H   0  0  0  0  0  0  0  0  0  0  0  0
    0.6465  -10.4113    1.7301 H   0  0  0  0  0  0  0  0  0  0  0  0
    2.9147   -9.2278    3.4350 H   0  0  0  0  0  0  0  0  0  0  0  0
    3.2998   -9.9167    1.2315 H   0  0  0  0  0  0  0  0  0  0  0  0
    3.8809   -6.8706    4.6297 H   0  0  0  0  0  0  0  0  0  0  0  0
    7.4721   -7.2328    5.3773 H   0  0  0  0  0  0  0  0  0  0  0  0
    6.1980   -7.9545    4.3824 H   0  0  0  0  0  0  0  0  0  0  0  0
    5.9250   -7.6796    6.1070 H   0  0  0  0  0  0  0  0  0  0  0  0
    5.7865   -2.4934    2.7442 H   0  0  0  0  0  0  0  0  0  0  0  0
    5.9390   -3.5656    4.4046 H   0  0  0  0  0  0  0  0  0  0  0  0
    6.0529   -3.3850    7.2514 H   0  0  0  0  0  0  0  0  0  0  0  0
    3.5503   -4.9911    6.9976 H   0  0  0  0  0  0  0  0  0  0  0  0
    4.1650   -4.0274    8.2821 H   0  0  0  0  0  0  0  0  0  0  0  0
    2.4666   -2.6395    7.7962 H   0  0  0  0  0  0  0  0  0  0  0  0
    3.4919   -1.8770    6.6681 H   0  0  0  0  0  0  0  0  0  0  0  0
    1.6024   -4.1578    6.0195 H   0  0  0  0  0  0  0  0  0  0  0  0
  1  2  1  0
  1 40  1  0
  1 41  1  0
  1 42  1  0
  3  2  1  1
  3  7  1  0
  3 38  1  0
  3  4  1  0
  4  5  1  0
  5  6  1  0
  5 10  1  0
  5 43  1  6
  6  7  1  0
  7  8  1  0
  7 44  1  6
  8  9  2  0
  8 45  1  0
 10 15  1  0
 10 38  1  0
 10 11  1  1
 11 12  1  0
 12 32  1  0
 12 13  1  6
 12 14  1  0
 13 46  1  0
 13 47  1  0
 13 48  1  0
 14 15  1  0
 15 16  1  6
 15 26  1  0
 16 17  1  0
 16 49  1  0
 16 50  1  0
 17 18  1  0
 18 24  1  0
 18 19  1  0
 18 51  1  6
 19 20  1  0
 20 21  1  0
 20 22  1  0
 20 52  1  1
 21 53  1  0
 21 54  1  0
 21 55  1  0
 22 23  1  0
 23 24  1  0
 23 56  1  0
 23 57  1  0
 24 25  1  0
 24 58  1  1
 25 59  1  0
 26 33  1  0
 26 27  2  0
 27 28  1  0
 27 60  1  0
 28 39  1  0
 28 29  1  1
 28 30  1  0
 29 61  1  0
 29 62  1  0
 29 63  1  0
 30 31  1  0
 31 32  1  0
 32 33  1  0
 32 64  1  1
 33 34  1  0
 33 65  1  1
 34 35  1  0
 35 36  1  0
 35 39  1  0
 35 66  1  1
 36 37  1  0
 36 67  1  0
 36 68  1  0
 37 38  1  0
 37 69  1  0
 37 70  1  0
 38 71  1  6
M  END
>  <i_m_ct_stereo_status>  (125) 
1

>  <s_m_source_file>  (125) 
/var/tmp/pbs.5076253.sched01/tmpx6ss0mji/80_l3th0xi.sdf

>  <i_m_source_file_index>  (125) 
38

>  <i_lp_mmshare_version>  (125) 
48012

>  <i_f3d_flags>  (125) 
0

>  <s_epik_input>  (125) 
Tz1bQ0hdW0NASF0oTzEpW0NAQF0oT1tDSDNdKShPW0NAQEhdMVtDQF0yMzQpW0NAQEhdNFtDSDJdW0NIMl1bQ0BASF01T1tDQEhdNkM9N1tDQEBdMyhPW0NAXShPMikoW0NIM10pW0NIXTZPT1tDQEBdKE81KShbQ0hdNylbQ0gzXSlbQ0gyXU9bQ0BASF04T1tDQEBIXShbQ0gzXSlPW0NIMl1bQ0BIXThbT0hd

>  <s_epik_cmdline>  (125) 
J2VwaWtfcHl0aG9uJywgJy1waHQnLCAnMi4wJywgJy1waCcsICc3LjAnLCAnLXRuJywgJzgnLCAnLW1hJywgJzIwMCcsICctaW1hZScsICc8aW5maWxlLm1hZT4nLCAnLW9tYWUnLCAnPG91dGZpbGUubWFlPic=

>  <r_lp_tautomer_probability>  (125) 
0.9999

>  <r_epik_Ionization_Penalty>  (125) 
0.0117614

>  <r_epik_Ionization_Penalty_Charging>  (125) 
0

>  <r_epik_Ionization_Penalty_Neutral>  (125) 
0.0117614

>  <r_epik_State_Penalty>  (125) 
0.00906538

>  <r_epik_Charging_Adjusted_Penalty>  (125) 
0.00906538

>  <i_epik_Tot_Q>  (125) 
0

>  <i_epik_Tot_abs_Q>  (125) 
0

>  <s_epik_Chemistry_Notes>  (125) 
This compound contains an acetal/aminal-like group ( X-CH(R)-Y where X, Y are N, S, or O) that may be acid/base labile, releasing an aldehyde.

>  <s_lp_Force_Field>  (125) 
OPLS3e

>  <r_lp_Energy>  (125) 
175.4

>  <b_lp_Chiralities_Consistent>  (125) 
1

>  <s_lp_Variant>  (125) 
82:0-1

>  <s_i_glide_gridfile>  (125) 
pfpi4k_grid

>  <i_i_glide_lignum>  (125) 
38

>  <i_i_glide_rotatable_bonds>  (125) 
6

>  <r_i_docking_score>  (125) 
-2.49388

>  <r_i_glide_ligand_efficiency>  (125) 
-0.0639456

>  <r_i_glide_ligand_efficiency_sa>  (125) 
-0.216853

>  <r_i_glide_ligand_efficiency_ln>  (125) 
-0.534759

>  <r_i_glide_gscore>  (125) 
-2.49388

>  <r_i_glide_lipo>  (125) 
-0.274319

>  <r_i_glide_hbond>  (125) 
-0.123517

>  <r_i_glide_metal>  (125) 
-0

>  <r_i_glide_rewards>  (125) 
-0.0581558

>  <r_i_glide_evdw>  (125) 
-22.6267

>  <r_i_glide_ecoul>  (125) 
-6.01174

>  <r_i_glide_erotb>  (125) 
0.12538

>  <r_i_glide_esite>  (125) 
-0.130173

>  <r_i_glide_emodel>  (125) 
-32.5582

>  <r_i_glide_energy>  (125) 
-28.6384

>  <r_i_glide_einternal>  (125) 
2.7837

>  <r_i_glide_intrahb_reward>  (125) 
-0

>  <i_i_glide_confnum>  (125) 
1

>  <i_i_glide_posenum>  (125) 
3

>  <r_i_glide_eff_state_penalty>  (125) 
0

>  <ligand_id>  (125) 
82

>  <original_smiles>  (125) 
COC12OC(OC1C=O)C13OC4(C)OC1(COC1OC(C)OCC1O)C1=CC5(C)OOC4C1OC(CCC23)O5

>  <smiles>  (125) 
[H]OC1([H])C([H])([H])OC([H])(C([H])([H])[H])OC1([H])OC([H])([H])C12OC3(C([H])([H])[H])OC14C1([H])OC([H])(C([H])=O)C(OC([H])([H])[H])(O1)C4([H])C([H])([H])C([H])([H])C1([H])OC4([H])C2=C([H])C(C([H])([H])[H])(OOC43[H])O1

$$$$
82:0:2
     RDKit          3D

 71 78  0  0  1  0  0  0  0  0999 V2000
    2.9503   -3.3674   -1.0427 C   0  0  0  0  0  0  0  0  0  0  0  0
    4.0256   -2.6370   -0.4632 O   0  0  0  0  0  0  0  0  0  0  0  0
    4.1836   -2.7524    0.9131 C   0  0  1  0  0  0  0  0  0  0  0  0
    3.9771   -4.0053    1.4525 O   0  0  0  0  0  0  0  0  0  0  0  0
    4.3901   -3.7498    2.7437 C   0  0  1  0  0  0  0  0  0  0  0  0
    5.7022   -3.2752    2.5583 O   0  0  0  0  0  0  0  0  0  0  0  0
    5.6393   -2.5177    1.3535 C   0  0  1  0  0  0  0  0  0  0  0  0
    6.6919   -3.0614    0.3714 C   0  0  0  0  0  0  0  0  0  0  0  0
    6.7833   -4.2627    0.1132 O   0  0  0  0  0  0  0  0  0  0  0  0
    3.5448   -2.5022    3.1832 C   0  0  2  0  0  0  0  0  0  0  0  0
    4.3636   -1.8168    4.1791 O   0  0  0  0  0  0  0  0  0  0  0  0
    3.7373   -1.9900    5.4652 C   0  0  2  0  0  0  0  0  0  0  0  0
    4.7490   -2.4539    6.5177 C   0  0  0  0  0  0  0  0  0  0  0  0
    2.8006   -2.9896    5.2937 O   0  0  0  0  0  0  0  0  0  0  0  0
    2.2631   -2.7486    4.0085 C   0  0  2  0  0  0  0  0  0  0  0  0
    1.3315   -3.8979    3.6189 C   0  0  0  0  0  0  0  0  0  0  0  0
    1.9248   -5.1607    3.8739 O   0  0  0  0  0  0  0  0  0  0  0  0
    1.1342   -6.2905    3.6463 C   0  0  2  0  0  0  0  0  0  0  0  0
    0.6254   -6.2921    2.3385 O   0  0  0  0  0  0  0  0  0  0  0  0
   -0.1923   -7.3863    2.0543 C   0  0  1  0  0  0  0  0  0  0  0  0
    0.6001   -8.7131    2.0611 C   0  0  0  0  0  0  0  0  0  0  0  0
   -1.3003   -7.4468    2.9009 O   0  0  0  0  0  0  0  0  0  0  0  0
   -0.9630   -7.5653    4.2765 C   0  0  0  0  0  0  0  0  0  0  0  0
   -0.0412   -6.4019    4.6724 C   0  0  1  0  0  0  0  0  0  0  0  0
    0.4203   -6.6649    5.9870 O   0  0  0  0  0  0  0  0  0  0  0  0
    1.5635   -1.3943    4.1040 C   0  0  0  0  0  0  0  0  0  0  0  0
    0.2336   -1.1861    4.2104 C   0  0  0  0  0  0  0  0  0  0  0  0
   -0.0622    0.1572    4.7497 C   0  0  1  0  0  0  0  0  0  0  0  0
   -1.5793    0.3653    4.8973 C   0  0  0  0  0  0  0  0  0  0  0  0
    0.5343    0.2764    6.1203 O   0  0  0  0  0  0  0  0  0  0  0  0
    1.6448   -0.8246    6.5146 O   0  0  0  0  0  0  0  0  0  0  0  0
    2.9780   -0.6512    5.8594 C   0  0  2  0  0  0  0  0  0  0  0  0
    2.4951   -0.2527    4.5409 C   0  0  1  0  0  0  0  0  0  0  0  0
    2.7763    0.8028    3.6613 O   0  0  0  0  0  0  0  0  0  0  0  0
    1.6126    1.1186    2.9608 C   0  0  1  0  0  0  0  0  0  0  0  0
    1.5970    0.2166    1.6895 C   0  0  0  0  0  0  0  0  0  0  0  0
    3.0098   -0.4343    1.3772 C   0  0  0  0  0  0  0  0  0  0  0  0
    3.1768   -1.9473    1.7547 C   0  0  1  0  0  0  0  0  0  0  0  0
    0.3803    1.1567    3.7439 O   0  0  0  0  0  0  0  0  0  0  0  0
    3.0469   -3.3520   -2.1279 H   0  0  0  0  0  0  0  0  0  0  0  0
    1.9881   -2.9337   -0.7850 H   0  0  0  0  0  0  0  0  0  0  0  0
    2.9523   -4.4118   -0.7311 H   0  0  0  0  0  0  0  0  0  0  0  0
    4.3685   -4.6082    3.4050 H   0  0  0  0  0  0  0  0  0  0  0  0
    5.8079   -1.4514    1.5188 H   0  0  0  0  0  0  0  0  0  0  0  0
    7.3493   -2.3117   -0.0640 H   0  0  0  0  0  0  0  0  0  0  0  0
    5.1854   -3.4101    6.2254 H   0  0  0  0  0  0  0  0  0  0  0  0
    4.2405   -2.5913    7.4770 H   0  0  0  0  0  0  0  0  0  0  0  0
    5.5387   -1.7133    6.6428 H   0  0  0  0  0  0  0  0  0  0  0  0
    0.4415   -3.8188    4.2339 H   0  0  0  0  0  0  0  0  0  0  0  0
    1.0234   -3.8261    2.5773 H   0  0  0  0  0  0  0  0  0  0  0  0
    1.8376   -7.1141    3.7495 H   0  0  0  0  0  0  0  0  0  0  0  0
   -0.5804   -7.2096    1.0515 H   0  0  0  0  0  0  0  0  0  0  0  0
    1.0243   -8.9756    3.0294 H   0  0  0  0  0  0  0  0  0  0  0  0
    1.4157   -8.6459    1.3384 H   0  0  0  0  0  0  0  0  0  0  0  0
   -0.0636   -9.5266    1.7701 H   0  0  0  0  0  0  0  0  0  0  0  0
   -1.8790   -7.5311    4.8680 H   0  0  0  0  0  0  0  0  0  0  0  0
   -0.5176   -8.5394    4.4855 H   0  0  0  0  0  0  0  0  0  0  0  0
   -0.6513   -5.5056    4.6642 H   0  0  0  0  0  0  0  0  0  0  0  0
    0.9644   -7.4294    5.9800 H   0  0  0  0  0  0  0  0  0  0  0  0
   -0.5284   -1.9213    4.1040 H   0  0  0  0  0  0  0  0  0  0  0  0
   -1.8026    1.3560    5.2887 H   0  0  0  0  0  0  0  0  0  0  0  0
   -2.0285   -0.3782    5.5547 H   0  0  0  0  0  0  0  0  0  0  0  0
   -2.0597    0.2835    3.9235 H   0  0  0  0  0  0  0  0  0  0  0  0
    3.6444    0.0793    6.3039 H   0  0  0  0  0  0  0  0  0  0  0  0
    2.2352    0.6847    5.0440 H   0  0  0  0  0  0  0  0  0  0  0  0
    1.7488    2.1490    2.6417 H   0  0  0  0  0  0  0  0  0  0  0  0
    0.7969   -0.5207    1.7245 H   0  0  0  0  0  0  0  0  0  0  0  0
    1.3142    0.8736    0.8717 H   0  0  0  0  0  0  0  0  0  0  0  0
    3.0900   -0.3980    0.2946 H   0  0  0  0  0  0  0  0  0  0  0  0
    3.8574    0.1583    1.7163 H   0  0  0  0  0  0  0  0  0  0  0  0
    2.2213   -2.3832    1.4689 H   0  0  0  0  0  0  0  0  0  0  0  0
  1  2  1  0
  1 40  1  0
  1 41  1  0
  1 42  1  0
  3  2  1  6
  3  7  1  0
  3 38  1  0
  3  4  1  0
  4  5  1  0
  5  6  1  0
  5 10  1  0
  5 43  1  1
  6  7  1  0
  7  8  1  0
  7 44  1  1
  8  9  2  0
  8 45  1  0
 10 15  1  0
 10 38  1  0
 10 11  1  1
 11 12  1  0
 12 32  1  0
 12 13  1  1
 12 14  1  0
 13 46  1  0
 13 47  1  0
 13 48  1  0
 14 15  1  0
 15 16  1  6
 15 26  1  0
 16 17  1  0
 16 49  1  0
 16 50  1  0
 17 18  1  0
 18 24  1  0
 18 19  1  0
 18 51  1  6
 19 20  1  0
 20 21  1  0
 20 22  1  0
 20 52  1  6
 21 53  1  0
 21 54  1  0
 21 55  1  0
 22 23  1  0
 23 24  1  0
 23 56  1  0
 23 57  1  0
 24 25  1  0
 24 58  1  1
 25 59  1  0
 26 33  1  0
 26 27  2  0
 27 28  1  0
 27 60  1  0
 28 39  1  0
 28 29  1  1
 28 30  1  0
 29 61  1  0
 29 62  1  0
 29 63  1  0
 30 31  1  0
 31 32  1  0
 32 33  1  0
 32 64  1  1
 33 34  1  0
 33 65  1  1
 34 35  1  0
 35 36  1  0
 35 39  1  0
 35 66  1  6
 36 37  1  0
 36 67  1  0
 36 68  1  0
 37 38  1  0
 37 69  1  0
 37 70  1  0
 38 71  1  6
M  END
>  <i_m_ct_stereo_status>  (126) 
1

>  <s_m_source_file>  (126) 
/var/tmp/pbs.5076253.sched01/tmpx6ss0mji/80_l3th0xi.sdf

>  <i_m_source_file_index>  (126) 
38

>  <i_lp_mmshare_version>  (126) 
48012

>  <i_f3d_flags>  (126) 
0

>  <s_epik_input>  (126) 
Tz1bQ0hdW0NASF0oTzEpW0NAQF0oT1tDSDNdKShPW0NAQEhdMVtDQF0yMzQpW0NAQEhdNFtDSDJdW0NIMl1bQ0BASF01T1tDQEhdNkM9N1tDQEBdMyhPW0NAXShPMikoW0NIM10pW0NIXTZPT1tDQEBdKE81KShbQ0hdNylbQ0gzXSlbQ0gyXU9bQ0BASF04T1tDQEBIXShbQ0gzXSlPW0NIMl1bQ0BIXThbT0hd

>  <s_epik_cmdline>  (126) 
J2VwaWtfcHl0aG9uJywgJy1waHQnLCAnMi4wJywgJy1waCcsICc3LjAnLCAnLXRuJywgJzgnLCAnLW1hJywgJzIwMCcsICctaW1hZScsICc8aW5maWxlLm1hZT4nLCAnLW9tYWUnLCAnPG91dGZpbGUubWFlPic=

>  <r_lp_tautomer_probability>  (126) 
0.9999

>  <r_epik_Ionization_Penalty>  (126) 
0.0117614

>  <r_epik_Ionization_Penalty_Charging>  (126) 
0

>  <r_epik_Ionization_Penalty_Neutral>  (126) 
0.0117614

>  <r_epik_State_Penalty>  (126) 
0.00906538

>  <r_epik_Charging_Adjusted_Penalty>  (126) 
0.00906538

>  <i_epik_Tot_Q>  (126) 
0

>  <i_epik_Tot_abs_Q>  (126) 
0

>  <s_epik_Chemistry_Notes>  (126) 
This compound contains an acetal/aminal-like group ( X-CH(R)-Y where X, Y are N, S, or O) that may be acid/base labile, releasing an aldehyde.

>  <s_lp_Force_Field>  (126) 
OPLS3e

>  <r_lp_Energy>  (126) 
175.4

>  <b_lp_Chiralities_Consistent>  (126) 
1

>  <s_lp_Variant>  (126) 
82:0-1

>  <s_i_glide_gridfile>  (126) 
pfpi4k_grid

>  <i_i_glide_lignum>  (126) 
38

>  <i_i_glide_rotatable_bonds>  (126) 
6

>  <r_i_docking_score>  (126) 
-2.48645

>  <r_i_glide_ligand_efficiency>  (126) 
-0.0637552

>  <r_i_glide_ligand_efficiency_sa>  (126) 
-0.216207

>  <r_i_glide_ligand_efficiency_ln>  (126) 
-0.533166

>  <r_i_glide_gscore>  (126) 
-2.48645

>  <r_i_glide_lipo>  (126) 
-0.157238

>  <r_i_glide_hbond>  (126) 
-0.0824706

>  <r_i_glide_metal>  (126) 
-0

>  <r_i_glide_rewards>  (126) 
-0.160142

>  <r_i_glide_evdw>  (126) 
-27.15

>  <r_i_glide_ecoul>  (126) 
-4.87214

>  <r_i_glide_erotb>  (126) 
0.12538

>  <r_i_glide_esite>  (126) 
-0.123662

>  <r_i_glide_emodel>  (126) 
-35.4266

>  <r_i_glide_energy>  (126) 
-32.0221

>  <r_i_glide_einternal>  (126) 
3.97954

>  <r_i_glide_intrahb_reward>  (126) 
-0

>  <i_i_glide_confnum>  (126) 
3

>  <i_i_glide_posenum>  (126) 
1

>  <r_i_glide_eff_state_penalty>  (126) 
0

>  <ligand_id>  (126) 
82

>  <original_smiles>  (126) 
COC12OC(OC1C=O)C13OC4(C)OC1(COC1OC(C)OCC1O)C1=CC5(C)OOC4C1OC(CCC23)O5

>  <smiles>  (126) 
[H]OC1([H])C([H])([H])OC([H])(C([H])([H])[H])OC1([H])OC([H])([H])C12OC3(C([H])([H])[H])OC14C1([H])OC([H])(C([H])=O)C(OC([H])([H])[H])(O1)C4([H])C([H])([H])C([H])([H])C1([H])OC4([H])C2=C([H])C(C([H])([H])[H])(OOC43[H])O1

$$$$
82:1:0
     RDKit          3D

 71 78  0  0  1  0  0  0  0  0999 V2000
    2.8023   -3.6424    0.7176 C   0  0  0  0  0  0  0  0  0  0  0  0
    3.2601   -2.4761    1.3865 O   0  0  0  0  0  0  0  0  0  0  0  0
    3.6876   -2.6249    2.7082 C   0  0  1  0  0  0  0  0  0  0  0  0
    4.5008   -3.7004    2.9647 O   0  0  0  0  0  0  0  0  0  0  0  0
    4.8069   -3.4061    4.2712 C   0  0  1  0  0  0  0  0  0  0  0  0
    5.3467   -2.1084    4.1962 O   0  0  0  0  0  0  0  0  0  0  0  0
    4.6224   -1.4875    3.1351 C   0  0  1  0  0  0  0  0  0  0  0  0
    5.6116   -1.0478    2.0445 C   0  0  0  0  0  0  0  0  0  0  0  0
    5.2644   -0.2712    1.1544 O   0  0  0  0  0  0  0  0  0  0  0  0
    3.4048   -3.2922    4.9578 C   0  0  2  0  0  0  0  0  0  0  0  0
    3.5461   -2.3230    6.0420 O   0  0  0  0  0  0  0  0  0  0  0  0
    3.6523   -3.0604    7.2554 C   0  0  2  0  0  0  0  0  0  0  0  0
    4.9308   -2.6508    7.9975 C   0  0  0  0  0  0  0  0  0  0  0  0
    3.8158   -4.4033    6.7927 O   0  0  0  0  0  0  0  0  0  0  0  0
    2.8968   -4.5983    5.6867 C   0  0  2  0  0  0  0  0  0  0  0  0
    3.1000   -5.9722    5.0119 C   0  0  0  0  0  0  0  0  0  0  0  0
    2.5442   -7.0088    5.8351 O   0  0  0  0  0  0  0  0  0  0  0  0
    2.7939   -8.3095    5.3688 C   0  0  2  0  0  0  0  0  0  0  0  0
    2.3091   -8.5087    4.0740 O   0  0  0  0  0  0  0  0  0  0  0  0
    0.9191   -8.4202    3.9953 C   0  0  1  0  0  0  0  0  0  0  0  0
    0.5190   -8.6009    2.5294 C   0  0  0  0  0  0  0  0  0  0  0  0
    0.2920   -9.4106    4.7379 O   0  0  0  0  0  0  0  0  0  0  0  0
    0.6015   -9.3197    6.1228 C   0  0  0  0  0  0  0  0  0  0  0  0
    2.1240   -9.3446    6.3108 C   0  0  1  0  0  0  0  0  0  0  0  0
    2.6211  -10.6495    6.1126 O   0  0  0  0  0  0  0  0  0  0  0  0
    1.4528   -4.3486    6.1759 C   0  0  0  0  0  0  0  0  0  0  0  0
    0.1387   -4.7286    6.1492 C   0  0  0  0  0  0  0  0  0  0  0  0
   -0.8281   -3.8081    7.0816 C   0  0  1  0  0  0  0  0  0  0  0  0
   -2.1270   -4.5734    7.3858 C   0  0  0  0  0  0  0  0  0  0  0  0
   -0.3248   -3.3462    8.4769 O   0  0  0  0  0  0  0  0  0  0  0  0
    1.0853   -2.4244    8.6233 O   0  0  0  0  0  0  0  0  0  0  0  0
    2.3689   -3.1682    8.2751 C   0  0  1  0  0  0  0  0  0  0  0  0
    1.5964   -3.2655    7.0506 C   0  0  1  0  0  0  0  0  0  0  0  0
    1.0478   -2.0209    6.4836 O   0  0  0  0  0  0  0  0  0  0  0  0
   -0.1486   -1.9218    5.7847 C   0  0  1  0  0  0  0  0  0  0  0  0
    0.1173   -2.2031    4.2865 C   0  0  0  0  0  0  0  0  0  0  0  0
    1.5271   -1.7282    3.8348 C   0  0  0  0  0  0  0  0  0  0  0  0
    2.5543   -2.8827    3.7181 C   0  0  1  0  0  0  0  0  0  0  0  0
   -1.2141   -2.6807    6.3017 O   0  0  0  0  0  0  0  0  0  0  0  0
    2.7272   -3.4299   -0.3530 H   0  0  0  0  0  0  0  0  0  0  0  0
    1.8299   -3.9447    1.0770 H   0  0  0  0  0  0  0  0  0  0  0  0
    3.5027   -4.4749    0.8296 H   0  0  0  0  0  0  0  0  0  0  0  0
    5.5055   -4.1032    4.7266 H   0  0  0  0  0  0  0  0  0  0  0  0
    4.0460   -0.6296    3.4754 H   0  0  0  0  0  0  0  0  0  0  0  0
    6.6251   -1.4409    2.1179 H   0  0  0  0  0  0  0  0  0  0  0  0
    5.8026   -2.7580    7.3535 H   0  0  0  0  0  0  0  0  0  0  0  0
    5.0691   -3.2834    8.8766 H   0  0  0  0  0  0  0  0  0  0  0  0
    4.8518   -1.6182    8.3306 H   0  0  0  0  0  0  0  0  0  0  0  0
    2.6023   -5.9836    4.0429 H   0  0  0  0  0  0  0  0  0  0  0  0
    4.1596   -6.1672    4.8374 H   0  0  0  0  0  0  0  0  0  0  0  0
    3.8750   -8.4541    5.3731 H   0  0  0  0  0  0  0  0  0  0  0  0
    0.5890   -7.4442    4.3507 H   0  0  0  0  0  0  0  0  0  0  0  0
    0.8021   -9.5901    2.1636 H   0  0  0  0  0  0  0  0  0  0  0  0
    1.0134   -7.8410    1.9232 H   0  0  0  0  0  0  0  0  0  0  0  0
   -0.5601   -8.4862    2.4418 H   0  0  0  0  0  0  0  0  0  0  0  0
    0.2005   -8.3783    6.5032 H   0  0  0  0  0  0  0  0  0  0  0  0
    0.1063  -10.1151    6.6847 H   0  0  0  0  0  0  0  0  0  0  0  0
    2.3720   -9.0735    7.3350 H   0  0  0  0  0  0  0  0  0  0  0  0
    2.1345  -11.2732    6.6647 H   0  0  0  0  0  0  0  0  0  0  0  0
   -0.2338   -5.5713    5.5852 H   0  0  0  0  0  0  0  0  0  0  0  0
   -2.8274   -3.9321    7.9097 H   0  0  0  0  0  0  0  0  0  0  0  0
   -1.9376   -5.4409    8.0077 H   0  0  0  0  0  0  0  0  0  0  0  0
   -2.6276   -4.9156    6.4793 H   0  0  0  0  0  0  0  0  0  0  0  0
    2.5497   -3.9870    8.9811 H   0  0  0  0  0  0  0  0  0  0  0  0
    1.3796   -4.1723    7.6541 H   0  0  0  0  0  0  0  0  0  0  0  0
   -0.4651   -0.8837    5.8859 H   0  0  0  0  0  0  0  0  0  0  0  0
   -0.0513   -3.2534    4.0345 H   0  0  0  0  0  0  0  0  0  0  0  0
   -0.6295   -1.6360    3.7258 H   0  0  0  0  0  0  0  0  0  0  0  0
    1.4081   -1.3068    2.8363 H   0  0  0  0  0  0  0  0  0  0  0  0
    1.9055   -0.9027    4.4399 H   0  0  0  0  0  0  0  0  0  0  0  0
    2.0392   -3.7669    3.3487 H   0  0  0  0  0  0  0  0  0  0  0  0
  1  2  1  0
  1 40  1  0
  1 41  1  0
  1 42  1  0
  3  2  1  6
  3  7  1  0
  3 38  1  0
  3  4  1  0
  4  5  1  0
  5  6  1  0
  5 10  1  0
  5 43  1  1
  6  7  1  0
  7  8  1  0
  7 44  1  1
  8  9  2  0
  8 45  1  0
 10 15  1  0
 10 38  1  0
 10 11  1  1
 11 12  1  0
 12 32  1  0
 12 13  1  1
 12 14  1  0
 13 46  1  0
 13 47  1  0
 13 48  1  0
 14 15  1  0
 15 16  1  6
 15 26  1  0
 16 17  1  0
 16 49  1  0
 16 50  1  0
 17 18  1  0
 18 24  1  0
 18 19  1  0
 18 51  1  6
 19 20  1  0
 20 21  1  0
 20 22  1  0
 20 52  1  1
 21 53  1  0
 21 54  1  0
 21 55  1  0
 22 23  1  0
 23 24  1  0
 23 56  1  0
 23 57  1  0
 24 25  1  0
 24 58  1  1
 25 59  1  0
 26 33  1  0
 26 27  2  0
 27 28  1  0
 27 60  1  0
 28 39  1  0
 28 29  1  1
 28 30  1  0
 29 61  1  0
 29 62  1  0
 29 63  1  0
 30 31  1  0
 31 32  1  0
 32 33  1  0
 32 64  1  1
 33 34  1  0
 33 65  1  1
 34 35  1  0
 35 36  1  0
 35 39  1  0
 35 66  1  6
 36 37  1  0
 36 67  1  0
 36 68  1  0
 37 38  1  0
 37 69  1  0
 37 70  1  0
 38 71  1  6
M  END
>  <i_m_ct_stereo_status>  (127) 
1

>  <s_m_source_file>  (127) 
/var/tmp/pbs.5076253.sched01/tmpx6ss0mji/80_l3th0xi.sdf

>  <i_m_source_file_index>  (127) 
39

>  <i_lp_mmshare_version>  (127) 
48012

>  <i_f3d_flags>  (127) 
0

>  <s_epik_input>  (127) 
Tz1bQ0hdW0NASF0oTzEpW0NAQF0oT1tDSDNdKShPW0NAQEhdMVtDQF0yMzQpW0NAQEhdNFtDSDJdW0NIMl1bQ0BASF01T1tDQEhdNkM9N1tDQEBdMyhPW0NAXShPMikoW0NIM10pW0NIXTZPT1tDQEBdKE81KShbQ0hdNylbQ0gzXSlbQ0gyXU9bQ0BASF04T1tDQEBIXShbQ0gzXSlPW0NIMl1bQ0BIXThbT0hd

>  <s_epik_cmdline>  (127) 
J2VwaWtfcHl0aG9uJywgJy1waHQnLCAnMi4wJywgJy1waCcsICc3LjAnLCAnLXRuJywgJzgnLCAnLW1hJywgJzIwMCcsICctaW1hZScsICc8aW5maWxlLm1hZT4nLCAnLW9tYWUnLCAnPG91dGZpbGUubWFlPic=

>  <r_lp_tautomer_probability>  (127) 
0.9999

>  <r_epik_Ionization_Penalty>  (127) 
0.0117614

>  <r_epik_Ionization_Penalty_Charging>  (127) 
0

>  <r_epik_Ionization_Penalty_Neutral>  (127) 
0.0117614

>  <r_epik_State_Penalty>  (127) 
0.00906538

>  <r_epik_Charging_Adjusted_Penalty>  (127) 
0.00906538

>  <i_epik_Tot_Q>  (127) 
0

>  <i_epik_Tot_abs_Q>  (127) 
0

>  <s_epik_Chemistry_Notes>  (127) 
This compound contains an acetal/aminal-like group ( X-CH(R)-Y where X, Y are N, S, or O) that may be acid/base labile, releasing an aldehyde.

>  <s_lp_Force_Field>  (127) 
OPLS3e

>  <r_lp_Energy>  (127) 
309.32

>  <b_lp_Chiralities_Consistent>  (127) 
1

>  <s_lp_Variant>  (127) 
82:0-2

>  <s_i_glide_gridfile>  (127) 
pfpi4k_grid

>  <i_i_glide_lignum>  (127) 
39

>  <i_i_glide_rotatable_bonds>  (127) 
6

>  <r_i_docking_score>  (127) 
-2.35111

>  <r_i_glide_ligand_efficiency>  (127) 
-0.0602848

>  <r_i_glide_ligand_efficiency_sa>  (127) 
-0.204439

>  <r_i_glide_ligand_efficiency_ln>  (127) 
-0.504144

>  <r_i_glide_gscore>  (127) 
-2.35111

>  <r_i_glide_lipo>  (127) 
-0.162266

>  <r_i_glide_hbond>  (127) 
-0.178388

>  <r_i_glide_metal>  (127) 
-0

>  <r_i_glide_rewards>  (127) 
-0.190399

>  <r_i_glide_evdw>  (127) 
-20.7127

>  <r_i_glide_ecoul>  (127) 
-5.52308

>  <r_i_glide_erotb>  (127) 
0.12538

>  <r_i_glide_esite>  (127) 
-0.0813402

>  <r_i_glide_emodel>  (127) 
-30.0585

>  <r_i_glide_energy>  (127) 
-26.2357

>  <r_i_glide_einternal>  (127) 
1.17911

>  <r_i_glide_intrahb_reward>  (127) 
-0

>  <i_i_glide_confnum>  (127) 
2

>  <i_i_glide_posenum>  (127) 
8

>  <r_i_glide_eff_state_penalty>  (127) 
0

>  <ligand_id>  (127) 
82

>  <original_smiles>  (127) 
COC12OC(OC1C=O)C13OC4(C)OC1(COC1OC(C)OCC1O)C1=CC5(C)OOC4C1OC(CCC23)O5

>  <smiles>  (127) 
[H]OC1([H])C([H])([H])OC([H])(C([H])([H])[H])OC1([H])OC([H])([H])C12OC3(C([H])([H])[H])OC14C1([H])OC([H])(C([H])=O)C(OC([H])([H])[H])(O1)C4([H])C([H])([H])C([H])([H])C1([H])OC4([H])C2=C([H])C(C([H])([H])[H])(OOC43[H])O1

$$$$
82:1:1
     RDKit          3D

 71 78  0  0  1  0  0  0  0  0999 V2000
    4.9434   -2.5816    3.8614 C   0  0  0  0  0  0  0  0  0  0  0  0
    4.8735   -3.0242    2.5140 O   0  0  0  0  0  0  0  0  0  0  0  0
    4.3761   -4.3098    2.2831 C   0  0  1  0  0  0  0  0  0  0  0  0
    3.1590   -4.5971    2.8484 O   0  0  0  0  0  0  0  0  0  0  0  0
    2.9693   -5.8375    2.2873 C   0  0  1  0  0  0  0  0  0  0  0  0
    3.0594   -5.5793    0.9045 O   0  0  0  0  0  0  0  0  0  0  0  0
    4.0300   -4.5382    0.8028 C   0  0  1  0  0  0  0  0  0  0  0  0
    3.3924   -3.3252    0.1040 C   0  0  0  0  0  0  0  0  0  0  0  0
    4.0816   -2.3572   -0.2199 O   0  0  0  0  0  0  0  0  0  0  0  0
    4.2496   -6.6302    2.7160 C   0  0  2  0  0  0  0  0  0  0  0  0
    4.5137   -7.5946    1.6529 O   0  0  0  0  0  0  0  0  0  0  0  0
    4.0539   -8.8600    2.1064 C   0  0  2  0  0  0  0  0  0  0  0  0
    3.0662   -9.4420    1.0954 C   0  0  0  0  0  0  0  0  0  0  0  0
    3.3212   -8.5162    3.2901 O   0  0  0  0  0  0  0  0  0  0  0  0
    4.0986   -7.5264    4.0124 C   0  0  2  0  0  0  0  0  0  0  0  0
    3.3457   -6.9725    5.2394 C   0  0  0  0  0  0  0  0  0  0  0  0
    3.0216   -8.0417    6.1418 O   0  0  0  0  0  0  0  0  0  0  0  0
    2.0256   -7.7186    7.0711 C   0  0  2  0  0  0  0  0  0  0  0  0
    2.5073   -6.7939    7.9970 O   0  0  0  0  0  0  0  0  0  0  0  0
    1.6011   -6.4645    9.0104 C   0  0  1  0  0  0  0  0  0  0  0  0
    0.3861   -5.6846    8.4525 C   0  0  0  0  0  0  0  0  0  0  0  0
    1.1929   -7.5679    9.7532 O   0  0  0  0  0  0  0  0  0  0  0  0
    0.6162   -8.6008    8.9776 C   0  0  0  0  0  0  0  0  0  0  0  0
    1.5803   -8.9994    7.8342 C   0  0  1  0  0  0  0  0  0  0  0  0
    0.8288   -9.8547    7.0036 O   0  0  0  0  0  0  0  0  0  0  0  0
    5.4791   -8.1251    4.3645 C   0  0  0  0  0  0  0  0  0  0  0  0
    6.4786   -8.2481    5.2895 C   0  0  0  0  0  0  0  0  0  0  0  0
    7.7255   -9.1598    4.7784 C   0  0  1  0  0  0  0  0  0  0  0  0
    8.5420   -9.6399    5.9959 C   0  0  0  0  0  0  0  0  0  0  0  0
    7.4482  -10.4515    3.9582 O   0  0  0  0  0  0  0  0  0  0  0  0
    6.5900  -10.3940    2.5028 O   0  0  0  0  0  0  0  0  0  0  0  0
    5.1196  -10.0001    2.6318 C   0  0  1  0  0  0  0  0  0  0  0  0
    5.8051   -8.8631    3.2215 C   0  0  1  0  0  0  0  0  0  0  0  0
    6.8711   -8.2182    2.4383 O   0  0  0  0  0  0  0  0  0  0  0  0
    8.0107   -7.6246    2.9707 C   0  0  1  0  0  0  0  0  0  0  0  0
    7.7047   -6.1394    3.2891 C   0  0  0  0  0  0  0  0  0  0  0  0
    6.6701   -5.5270    2.2985 C   0  0  0  0  0  0  0  0  0  0  0  0
    5.2349   -5.4398    2.8831 C   0  0  1  0  0  0  0  0  0  0  0  0
    8.5978   -8.3010    4.0556 O   0  0  0  0  0  0  0  0  0  0  0  0
    5.1008   -1.5016    3.8770 H   0  0  0  0  0  0  0  0  0  0  0  0
    5.7795   -3.0442    4.3859 H   0  0  0  0  0  0  0  0  0  0  0  0
    4.0201   -2.7877    4.4035 H   0  0  0  0  0  0  0  0  0  0  0  0
    2.0202   -6.3017    2.5394 H   0  0  0  0  0  0  0  0  0  0  0  0
    4.9151   -4.8498    0.2530 H   0  0  0  0  0  0  0  0  0  0  0  0
    2.3218   -3.3859   -0.0946 H   0  0  0  0  0  0  0  0  0  0  0  0
    2.2554   -8.7391    0.8954 H   0  0  0  0  0  0  0  0  0  0  0  0
    2.6427  -10.3591    1.4958 H   0  0  0  0  0  0  0  0  0  0  0  0
    3.5843   -9.6720    0.1669 H   0  0  0  0  0  0  0  0  0  0  0  0
    3.9623   -6.2513    5.7746 H   0  0  0  0  0  0  0  0  0  0  0  0
    2.4434   -6.4462    4.9217 H   0  0  0  0  0  0  0  0  0  0  0  0
    1.1853   -7.2984    6.5214 H   0  0  0  0  0  0  0  0  0  0  0  0
    2.1562   -5.8348    9.7088 H   0  0  0  0  0  0  0  0  0  0  0  0
   -0.2134   -6.2975    7.7772 H   0  0  0  0  0  0  0  0  0  0  0  0
    0.7419   -4.8063    7.9116 H   0  0  0  0  0  0  0  0  0  0  0  0
   -0.2511   -5.3689    9.2787 H   0  0  0  0  0  0  0  0  0  0  0  0
    0.4034   -9.4586    9.6194 H   0  0  0  0  0  0  0  0  0  0  0  0
   -0.3480   -8.2684    8.5858 H   0  0  0  0  0  0  0  0  0  0  0  0
    2.4665   -9.5083    8.2275 H   0  0  0  0  0  0  0  0  0  0  0  0
    1.0199  -10.7771    7.2514 H   0  0  0  0  0  0  0  0  0  0  0  0
    6.4556   -7.7895    6.2712 H   0  0  0  0  0  0  0  0  0  0  0  0
    9.4408  -10.1535    5.6590 H   0  0  0  0  0  0  0  0  0  0  0  0
    7.9684  -10.3316    6.6074 H   0  0  0  0  0  0  0  0  0  0  0  0
    8.8548   -8.8037    6.6199 H   0  0  0  0  0  0  0  0  0  0  0  0
    4.5677  -10.7660    3.1810 H   0  0  0  0  0  0  0  0  0  0  0  0
    5.5696   -9.5679    4.0459 H   0  0  0  0  0  0  0  0  0  0  0  0
    8.7587   -7.6551    2.1788 H   0  0  0  0  0  0  0  0  0  0  0  0
    7.3912   -6.0045    4.3273 H   0  0  0  0  0  0  0  0  0  0  0  0
    8.6496   -5.5956    3.1990 H   0  0  0  0  0  0  0  0  0  0  0  0
    6.9945   -4.5083    2.0899 H   0  0  0  0  0  0  0  0  0  0  0  0
    6.6805   -6.0179    1.3250 H   0  0  0  0  0  0  0  0  0  0  0  0
    5.3058   -5.2221    3.9459 H   0  0  0  0  0  0  0  0  0  0  0  0
  1  2  1  0
  1 40  1  0
  1 41  1  0
  1 42  1  0
  3  2  1  6
  3  7  1  0
  3 38  1  0
  3  4  1  0
  4  5  1  0
  5  6  1  0
  5 10  1  0
  5 43  1  6
  6  7  1  0
  7  8  1  0
  7 44  1  6
  8  9  2  0
  8 45  1  0
 10 15  1  0
 10 38  1  0
 10 11  1  6
 11 12  1  0
 12 32  1  0
 12 13  1  6
 12 14  1  0
 13 46  1  0
 13 47  1  0
 13 48  1  0
 14 15  1  0
 15 16  1  1
 15 26  1  0
 16 17  1  0
 16 49  1  0
 16 50  1  0
 17 18  1  0
 18 24  1  0
 18 19  1  0
 18 51  1  6
 19 20  1  0
 20 21  1  0
 20 22  1  0
 20 52  1  1
 21 53  1  0
 21 54  1  0
 21 55  1  0
 22 23  1  0
 23 24  1  0
 23 56  1  0
 23 57  1  0
 24 25  1  0
 24 58  1  1
 25 59  1  0
 26 33  1  0
 26 27  2  0
 27 28  1  0
 27 60  1  0
 28 39  1  0
 28 29  1  1
 28 30  1  0
 29 61  1  0
 29 62  1  0
 29 63  1  0
 30 31  1  0
 31 32  1  0
 32 33  1  0
 32 64  1  1
 33 34  1  0
 33 65  1  1
 34 35  1  0
 35 36  1  0
 35 39  1  0
 35 66  1  6
 36 37  1  0
 36 67  1  0
 36 68  1  0
 37 38  1  0
 37 69  1  0
 37 70  1  0
 38 71  1  1
M  END
>  <i_m_ct_stereo_status>  (128) 
1

>  <s_m_source_file>  (128) 
/var/tmp/pbs.5076253.sched01/tmpx6ss0mji/80_l3th0xi.sdf

>  <i_m_source_file_index>  (128) 
39

>  <i_lp_mmshare_version>  (128) 
48012

>  <i_f3d_flags>  (128) 
0

>  <s_epik_input>  (128) 
Tz1bQ0hdW0NASF0oTzEpW0NAQF0oT1tDSDNdKShPW0NAQEhdMVtDQF0yMzQpW0NAQEhdNFtDSDJdW0NIMl1bQ0BASF01T1tDQEhdNkM9N1tDQEBdMyhPW0NAXShPMikoW0NIM10pW0NIXTZPT1tDQEBdKE81KShbQ0hdNylbQ0gzXSlbQ0gyXU9bQ0BASF04T1tDQEBIXShbQ0gzXSlPW0NIMl1bQ0BIXThbT0hd

>  <s_epik_cmdline>  (128) 
J2VwaWtfcHl0aG9uJywgJy1waHQnLCAnMi4wJywgJy1waCcsICc3LjAnLCAnLXRuJywgJzgnLCAnLW1hJywgJzIwMCcsICctaW1hZScsICc8aW5maWxlLm1hZT4nLCAnLW9tYWUnLCAnPG91dGZpbGUubWFlPic=

>  <r_lp_tautomer_probability>  (128) 
0.9999

>  <r_epik_Ionization_Penalty>  (128) 
0.0117614

>  <r_epik_Ionization_Penalty_Charging>  (128) 
0

>  <r_epik_Ionization_Penalty_Neutral>  (128) 
0.0117614

>  <r_epik_State_Penalty>  (128) 
0.00906538

>  <r_epik_Charging_Adjusted_Penalty>  (128) 
0.00906538

>  <i_epik_Tot_Q>  (128) 
0

>  <i_epik_Tot_abs_Q>  (128) 
0

>  <s_epik_Chemistry_Notes>  (128) 
This compound contains an acetal/aminal-like group ( X-CH(R)-Y where X, Y are N, S, or O) that may be acid/base labile, releasing an aldehyde.

>  <s_lp_Force_Field>  (128) 
OPLS3e

>  <r_lp_Energy>  (128) 
309.32

>  <b_lp_Chiralities_Consistent>  (128) 
1

>  <s_lp_Variant>  (128) 
82:0-2

>  <s_i_glide_gridfile>  (128) 
pfpi4k_grid

>  <i_i_glide_lignum>  (128) 
39

>  <i_i_glide_rotatable_bonds>  (128) 
6

>  <r_i_docking_score>  (128) 
-2.09411

>  <r_i_glide_ligand_efficiency>  (128) 
-0.053695

>  <r_i_glide_ligand_efficiency_sa>  (128) 
-0.182091

>  <r_i_glide_ligand_efficiency_ln>  (128) 
-0.449036

>  <r_i_glide_gscore>  (128) 
-2.09411

>  <r_i_glide_lipo>  (128) 
-0.113856

>  <r_i_glide_hbond>  (128) 
0

>  <r_i_glide_metal>  (128) 
-0

>  <r_i_glide_rewards>  (128) 
-0.0202757

>  <r_i_glide_evdw>  (128) 
-21.4291

>  <r_i_glide_ecoul>  (128) 
-6.3612

>  <r_i_glide_erotb>  (128) 
0.12538

>  <r_i_glide_esite>  (128) 
-0.0597178

>  <r_i_glide_emodel>  (128) 
-30.1114

>  <r_i_glide_energy>  (128) 
-27.7903

>  <r_i_glide_einternal>  (128) 
1.9915

>  <r_i_glide_intrahb_reward>  (128) 
-0

>  <i_i_glide_confnum>  (128) 
1

>  <i_i_glide_posenum>  (128) 
9

>  <r_i_glide_eff_state_penalty>  (128) 
0

>  <ligand_id>  (128) 
82

>  <original_smiles>  (128) 
COC12OC(OC1C=O)C13OC4(C)OC1(COC1OC(C)OCC1O)C1=CC5(C)OOC4C1OC(CCC23)O5

>  <smiles>  (128) 
[H]OC1([H])C([H])([H])OC([H])(C([H])([H])[H])OC1([H])OC([H])([H])C12OC3(C([H])([H])[H])OC14C1([H])OC([H])(C([H])=O)C(OC([H])([H])[H])(O1)C4([H])C([H])([H])C([H])([H])C1([H])OC4([H])C2=C([H])C(C([H])([H])[H])(OOC43[H])O1

$$$$
82:1:2
     RDKit          3D

 71 78  0  0  1  0  0  0  0  0999 V2000
    4.6048   -2.4235    3.2067 C   0  0  0  0  0  0  0  0  0  0  0  0
    4.4867   -2.9571    1.8950 O   0  0  0  0  0  0  0  0  0  0  0  0
    4.0576   -4.2843    1.7775 C   0  0  1  0  0  0  0  0  0  0  0  0
    2.8682   -4.5932    2.3900 O   0  0  0  0  0  0  0  0  0  0  0  0
    2.7386   -5.8813    1.9315 C   0  0  1  0  0  0  0  0  0  0  0  0
    2.7970   -5.7365    0.5379 O   0  0  0  0  0  0  0  0  0  0  0  0
    3.7022   -4.6509    0.3303 C   0  0  1  0  0  0  0  0  0  0  0  0
    2.9934   -3.5309   -0.4495 C   0  0  0  0  0  0  0  0  0  0  0  0
    1.9814   -3.7529   -1.1144 O   0  0  0  0  0  0  0  0  0  0  0  0
    4.0665   -6.5649    2.3911 C   0  0  2  0  0  0  0  0  0  0  0  0
    4.3787   -7.5944    1.4057 O   0  0  0  0  0  0  0  0  0  0  0  0
    3.9763   -8.8398    1.9642 C   0  0  2  0  0  0  0  0  0  0  0  0
    3.0141   -9.5442    1.0204 C   0  0  0  0  0  0  0  0  0  0  0  0
    3.2455   -8.4399    3.1278 O   0  0  0  0  0  0  0  0  0  0  0  0
    3.9784   -7.3567    3.7553 C   0  0  2  0  0  0  0  0  0  0  0  0
    3.2104   -6.7498    4.9399 C   0  0  0  0  0  0  0  0  0  0  0  0
    3.0264   -7.7483    5.9594 O   0  0  0  0  0  0  0  0  0  0  0  0
    1.8871   -7.5675    6.7621 C   0  0  2  0  0  0  0  0  0  0  0  0
    2.0849   -6.5294    7.6789 O   0  0  0  0  0  0  0  0  0  0  0  0
    1.0128   -6.3194    8.5515 C   0  0  1  0  0  0  0  0  0  0  0  0
   -0.2185   -5.7523    7.8102 C   0  0  0  0  0  0  0  0  0  0  0  0
    0.6768   -7.4486    9.2931 O   0  0  0  0  0  0  0  0  0  0  0  0
    0.4077   -8.6047    8.5175 C   0  0  0  0  0  0  0  0  0  0  0  0
    1.5709   -8.8758    7.5360 C   0  0  1  0  0  0  0  0  0  0  0  0
    1.0848   -9.8671    6.6454 O   0  0  0  0  0  0  0  0  0  0  0  0
    5.3888   -7.8572    4.1332 C   0  0  0  0  0  0  0  0  0  0  0  0
    6.4089   -7.8526    5.0420 C   0  0  0  0  0  0  0  0  0  0  0  0
    7.6903   -8.7438    4.5845 C   0  0  1  0  0  0  0  0  0  0  0  0
    8.5446   -9.0827    5.8217 C   0  0  0  0  0  0  0  0  0  0  0  0
    7.4637  -10.1017    3.8676 O   0  0  0  0  0  0  0  0  0  0  0  0
    6.5895  -10.2006    2.4280 O   0  0  0  0  0  0  0  0  0  0  0  0
    5.1064   -9.8837    2.5333 C   0  0  1  0  0  0  0  0  0  0  0  0
    5.7382   -8.6693    3.0490 C   0  0  1  0  0  0  0  0  0  0  0  0
    6.7595   -8.0079    2.1883 O   0  0  0  0  0  0  0  0  0  0  0  0
    7.8747   -7.3403    2.6546 C   0  0  1  0  0  0  0  0  0  0  0  0
    7.4920   -5.8594    2.8702 C   0  0  0  0  0  0  0  0  0  0  0  0
    6.4145   -5.3727    1.8525 C   0  0  0  0  0  0  0  0  0  0  0  0
    4.9845   -5.3145    2.4505 C   0  0  1  0  0  0  0  0  0  0  0  0
    8.5008   -7.9092    3.7737 O   0  0  0  0  0  0  0  0  0  0  0  0
    4.6983   -1.3377    3.1530 H   0  0  0  0  0  0  0  0  0  0  0  0
    5.4946   -2.8036    3.7064 H   0  0  0  0  0  0  0  0  0  0  0  0
    3.7293   -2.6507    3.8136 H   0  0  0  0  0  0  0  0  0  0  0  0
    1.8226   -6.3721    2.2382 H   0  0  0  0  0  0  0  0  0  0  0  0
    4.5967   -4.9517   -0.2060 H   0  0  0  0  0  0  0  0  0  0  0  0
    3.4678   -2.5513   -0.3986 H   0  0  0  0  0  0  0  0  0  0  0  0
    2.1551   -8.9200    0.8162 H   0  0  0  0  0  0  0  0  0  0  0  0
    2.6535  -10.4494    1.5065 H   0  0  0  0  0  0  0  0  0  0  0  0
    3.5283   -9.8261    0.1044 H   0  0  0  0  0  0  0  0  0  0  0  0
    3.7488   -5.9140    5.3855 H   0  0  0  0  0  0  0  0  0  0  0  0
    2.2566   -6.3521    4.5868 H   0  0  0  0  0  0  0  0  0  0  0  0
    1.0576   -7.3287    6.0985 H   0  0  0  0  0  0  0  0  0  0  0  0
    1.3695   -5.5962    9.2842 H   0  0  0  0  0  0  0  0  0  0  0  0
   -0.5904   -6.4727    7.0831 H   0  0  0  0  0  0  0  0  0  0  0  0
    0.0599   -4.8456    7.2690 H   0  0  0  0  0  0  0  0  0  0  0  0
   -1.0148   -5.5254    8.5242 H   0  0  0  0  0  0  0  0  0  0  0  0
    0.2640   -9.4580    9.1819 H   0  0  0  0  0  0  0  0  0  0  0  0
   -0.5411   -8.4670    7.9952 H   0  0  0  0  0  0  0  0  0  0  0  0
    2.4706   -9.2030    8.0665 H   0  0  0  0  0  0  0  0  0  0  0  0
    1.1825  -10.7415    7.0192 H   0  0  0  0  0  0  0  0  0  0  0  0
    6.3652   -7.3342    5.9823 H   0  0  0  0  0  0  0  0  0  0  0  0
    9.4584   -9.5703    5.5038 H   0  0  0  0  0  0  0  0  0  0  0  0
    8.0135   -9.7501    6.4857 H   0  0  0  0  0  0  0  0  0  0  0  0
    8.8158   -8.1851    6.3658 H   0  0  0  0  0  0  0  0  0  0  0  0
    4.6130  -10.6246    3.1779 H   0  0  0  0  0  0  0  0  0  0  0  0
    5.5475   -9.3287    3.9284 H   0  0  0  0  0  0  0  0  0  0  0  0
    8.6039   -7.4034    1.8531 H   0  0  0  0  0  0  0  0  0  0  0  0
    7.1812   -5.6545    3.8995 H   0  0  0  0  0  0  0  0  0  0  0  0
    8.4046   -5.2808    2.7222 H   0  0  0  0  0  0  0  0  0  0  0  0
    6.6856   -4.3519    1.5776 H   0  0  0  0  0  0  0  0  0  0  0  0
    6.4436   -5.9317    0.9167 H   0  0  0  0  0  0  0  0  0  0  0  0
    5.0587   -5.0180    3.4965 H   0  0  0  0  0  0  0  0  0  0  0  0
  1  2  1  0
  1 40  1  0
  1 41  1  0
  1 42  1  0
  3  2  1  6
  3  7  1  0
  3 38  1  0
  3  4  1  0
  4  5  1  0
  5  6  1  0
  5 10  1  0
  5 43  1  6
  6  7  1  0
  7  8  1  0
  7 44  1  6
  8  9  2  0
  8 45  1  0
 10 15  1  0
 10 38  1  0
 10 11  1  6
 11 12  1  0
 12 32  1  0
 12 13  1  6
 12 14  1  0
 13 46  1  0
 13 47  1  0
 13 48  1  0
 14 15  1  0
 15 16  1  1
 15 26  1  0
 16 17  1  0
 16 49  1  0
 16 50  1  0
 17 18  1  0
 18 24  1  0
 18 19  1  0
 18 51  1  6
 19 20  1  0
 20 21  1  0
 20 22  1  0
 20 52  1  1
 21 53  1  0
 21 54  1  0
 21 55  1  0
 22 23  1  0
 23 24  1  0
 23 56  1  0
 23 57  1  0
 24 25  1  0
 24 58  1  1
 25 59  1  0
 26 33  1  0
 26 27  2  0
 27 28  1  0
 27 60  1  0
 28 39  1  0
 28 29  1  1
 28 30  1  0
 29 61  1  0
 29 62  1  0
 29 63  1  0
 30 31  1  0
 31 32  1  0
 32 33  1  0
 32 64  1  1
 33 34  1  0
 33 65  1  1
 34 35  1  0
 35 36  1  0
 35 39  1  0
 35 66  1  6
 36 37  1  0
 36 67  1  0
 36 68  1  0
 37 38  1  0
 37 69  1  0
 37 70  1  0
 38 71  1  1
M  END
>  <i_m_ct_stereo_status>  (129) 
1

>  <s_m_source_file>  (129) 
/var/tmp/pbs.5076253.sched01/tmpx6ss0mji/80_l3th0xi.sdf

>  <i_m_source_file_index>  (129) 
39

>  <i_lp_mmshare_version>  (129) 
48012

>  <i_f3d_flags>  (129) 
0

>  <s_epik_input>  (129) 
Tz1bQ0hdW0NASF0oTzEpW0NAQF0oT1tDSDNdKShPW0NAQEhdMVtDQF0yMzQpW0NAQEhdNFtDSDJdW0NIMl1bQ0BASF01T1tDQEhdNkM9N1tDQEBdMyhPW0NAXShPMikoW0NIM10pW0NIXTZPT1tDQEBdKE81KShbQ0hdNylbQ0gzXSlbQ0gyXU9bQ0BASF04T1tDQEBIXShbQ0gzXSlPW0NIMl1bQ0BIXThbT0hd

>  <s_epik_cmdline>  (129) 
J2VwaWtfcHl0aG9uJywgJy1waHQnLCAnMi4wJywgJy1waCcsICc3LjAnLCAnLXRuJywgJzgnLCAnLW1hJywgJzIwMCcsICctaW1hZScsICc8aW5maWxlLm1hZT4nLCAnLW9tYWUnLCAnPG91dGZpbGUubWFlPic=

>  <r_lp_tautomer_probability>  (129) 
0.9999

>  <r_epik_Ionization_Penalty>  (129) 
0.0117614

>  <r_epik_Ionization_Penalty_Charging>  (129) 
0

>  <r_epik_Ionization_Penalty_Neutral>  (129) 
0.0117614

>  <r_epik_State_Penalty>  (129) 
0.00906538

>  <r_epik_Charging_Adjusted_Penalty>  (129) 
0.00906538

>  <i_epik_Tot_Q>  (129) 
0

>  <i_epik_Tot_abs_Q>  (129) 
0

>  <s_epik_Chemistry_Notes>  (129) 
This compound contains an acetal/aminal-like group ( X-CH(R)-Y where X, Y are N, S, or O) that may be acid/base labile, releasing an aldehyde.

>  <s_lp_Force_Field>  (129) 
OPLS3e

>  <r_lp_Energy>  (129) 
309.32

>  <b_lp_Chiralities_Consistent>  (129) 
1

>  <s_lp_Variant>  (129) 
82:0-2

>  <s_i_glide_gridfile>  (129) 
pfpi4k_grid

>  <i_i_glide_lignum>  (129) 
39

>  <i_i_glide_rotatable_bonds>  (129) 
6

>  <r_i_docking_score>  (129) 
-1.93171

>  <r_i_glide_ligand_efficiency>  (129) 
-0.049531

>  <r_i_glide_ligand_efficiency_sa>  (129) 
-0.16797

>  <r_i_glide_ligand_efficiency_ln>  (129) 
-0.414213

>  <r_i_glide_gscore>  (129) 
-1.93171

>  <r_i_glide_lipo>  (129) 
-0.10539

>  <r_i_glide_hbond>  (129) 
0

>  <r_i_glide_metal>  (129) 
-0

>  <r_i_glide_rewards>  (129) 
-0.0169536

>  <r_i_glide_evdw>  (129) 
-23.2409

>  <r_i_glide_ecoul>  (129) 
-4.66645

>  <r_i_glide_erotb>  (129) 
0.12538

>  <r_i_glide_esite>  (129) 
-0.0727345

>  <r_i_glide_emodel>  (129) 
-29.8595

>  <r_i_glide_energy>  (129) 
-27.9073

>  <r_i_glide_einternal>  (129) 
3.06521

>  <r_i_glide_intrahb_reward>  (129) 
-0

>  <i_i_glide_confnum>  (129) 
1

>  <i_i_glide_posenum>  (129) 
24

>  <r_i_glide_eff_state_penalty>  (129) 
0

>  <ligand_id>  (129) 
82

>  <original_smiles>  (129) 
COC12OC(OC1C=O)C13OC4(C)OC1(COC1OC(C)OCC1O)C1=CC5(C)OOC4C1OC(CCC23)O5

>  <smiles>  (129) 
[H]OC1([H])C([H])([H])OC([H])(C([H])([H])[H])OC1([H])OC([H])([H])C12OC3(C([H])([H])[H])OC14C1([H])OC([H])(C([H])=O)C(OC([H])([H])[H])(O1)C4([H])C([H])([H])C([H])([H])C1([H])OC4([H])C2=C([H])C(C([H])([H])[H])(OOC43[H])O1

$$$$
82:2:0
     RDKit          3D

 70 77  0  0  1  0  0  0  0  0999 V2000
    7.2760   -4.2228    0.9236 C   0  0  0  0  0  0  0  0  0  0  0  0
    7.4222   -5.4080    1.6941 O   0  0  0  0  0  0  0  0  0  0  0  0
    6.3164   -6.2584    1.7307 C   0  0  1  0  0  0  0  0  0  0  0  0
    5.6777   -6.4385    0.5242 O   0  0  0  0  0  0  0  0  0  0  0  0
    4.8019   -7.4341    0.8905 C   0  0  1  0  0  0  0  0  0  0  0  0
    5.6608   -8.4028    1.4398 O   0  0  0  0  0  0  0  0  0  0  0  0
    6.6179   -7.6848    2.0975 C   0  0  0  0  0  0  0  0  0  0  0  0
    7.5965   -8.2019    2.9309 C   0  0  0  0  0  0  0  0  0  0  0  0
    8.5006   -7.7466    3.6473 O   0  0  0  0  0  0  0  0  0  0  0  0
    4.0337   -6.7977    2.1013 C   0  0  2  0  0  0  0  0  0  0  0  0
    3.5677   -7.9288    2.8888 O   0  0  0  0  0  0  0  0  0  0  0  0
    2.1464   -8.0013    2.7800 C   0  0  2  0  0  0  0  0  0  0  0  0
    1.6945   -9.4339    2.4630 C   0  0  0  0  0  0  0  0  0  0  0  0
    1.8274   -7.1844    1.7114 O   0  0  0  0  0  0  0  0  0  0  0  0
    2.7038   -6.0775    1.8431 C   0  0  2  0  0  0  0  0  0  0  0  0
    2.5957   -5.1972    0.5735 C   0  0  0  0  0  0  0  0  0  0  0  0
    3.3177   -3.9731    0.7043 O   0  0  0  0  0  0  0  0  0  0  0  0
    3.3753   -3.2074   -0.4520 C   0  0  2  0  0  0  0  0  0  0  0  0
    4.2332   -3.7997   -1.3801 O   0  0  0  0  0  0  0  0  0  0  0  0
    4.4202   -3.0501   -2.5447 C   0  0  1  0  0  0  0  0  0  0  0  0
    3.1052   -2.9287   -3.3600 C   0  0  0  0  0  0  0  0  0  0  0  0
    4.9685   -1.7949   -2.2855 O   0  0  0  0  0  0  0  0  0  0  0  0
    4.1849   -1.0203   -1.3840 C   0  0  0  0  0  0  0  0  0  0  0  0
    3.9398   -1.8140   -0.0825 C   0  0  1  0  0  0  0  0  0  0  0  0
    3.0213   -1.0740    0.6841 O   0  0  0  0  0  0  0  0  0  0  0  0
    2.3274   -5.3784    3.1508 C   0  0  0  0  0  0  0  0  0  0  0  0
    1.6499   -4.2575    3.2911 C   0  0  0  0  0  0  0  0  0  0  0  0
    1.0631   -4.1211    4.6458 C   0  0  1  0  0  0  0  0  0  0  0  0
    0.2423   -2.8260    4.7763 C   0  0  0  0  0  0  0  0  0  0  0  0
    0.1264   -5.2657    4.8760 O   0  0  0  0  0  0  0  0  0  0  0  0
    0.2596   -6.5509    3.8929 O   0  0  0  0  0  0  0  0  0  0  0  0
    1.4774   -7.3946    4.0914 C   0  0  2  0  0  0  0  0  0  0  0  0
    2.4297   -6.3323    4.3816 C   0  0  1  0  0  0  0  0  0  0  0  0
    3.3633   -6.0760    5.3816 O   0  0  0  0  0  0  0  0  0  0  0  0
    3.4507   -4.6978    5.5939 C   0  0  1  0  0  0  0  0  0  0  0  0
    4.5478   -4.1630    4.6177 C   0  0  0  0  0  0  0  0  0  0  0  0
    5.4539   -5.3179    4.0217 C   0  0  0  0  0  0  0  0  0  0  0  0
    5.1355   -5.7539    2.5577 C   0  0  1  0  0  0  0  0  0  0  0  0
    2.1829   -3.9678    5.6073 O   0  0  0  0  0  0  0  0  0  0  0  0
    8.1881   -3.6300    0.9963 H   0  0  0  0  0  0  0  0  0  0  0  0
    6.4587   -3.6021    1.2837 H   0  0  0  0  0  0  0  0  0  0  0  0
    7.1078   -4.4515   -0.1299 H   0  0  0  0  0  0  0  0  0  0  0  0
    4.2085   -7.8175    0.0682 H   0  0  0  0  0  0  0  0  0  0  0  0
    7.4063   -9.2971    2.8863 H   0  0  0  0  0  0  0  0  0  0  0  0
    2.1409   -9.7710    1.5240 H   0  0  0  0  0  0  0  0  0  0  0  0
    0.6081   -9.4675    2.3645 H   0  0  0  0  0  0  0  0  0  0  0  0
    1.9968  -10.1075    3.2660 H   0  0  0  0  0  0  0  0  0  0  0  0
    2.9305   -5.7527   -0.3071 H   0  0  0  0  0  0  0  0  0  0  0  0
    1.5481   -4.9698    0.3866 H   0  0  0  0  0  0  0  0  0  0  0  0
    2.3652   -3.1396   -0.8528 H   0  0  0  0  0  0  0  0  0  0  0  0
    5.1687   -3.5883   -3.1253 H   0  0  0  0  0  0  0  0  0  0  0  0
    2.3351   -2.3710   -2.8249 H   0  0  0  0  0  0  0  0  0  0  0  0
    2.7165   -3.9232   -3.5727 H   0  0  0  0  0  0  0  0  0  0  0  0
    3.3034   -2.4081   -4.2958 H   0  0  0  0  0  0  0  0  0  0  0  0
    4.7098   -0.0925   -1.1635 H   0  0  0  0  0  0  0  0  0  0  0  0
    3.2473   -0.7281   -1.8607 H   0  0  0  0  0  0  0  0  0  0  0  0
    4.8758   -1.9455    0.4593 H   0  0  0  0  0  0  0  0  0  0  0  0
    2.1794   -1.0555    0.2231 H   0  0  0  0  0  0  0  0  0  0  0  0
    1.3855   -3.5896    2.4856 H   0  0  0  0  0  0  0  0  0  0  0  0
   -0.1760   -2.7308    5.7776 H   0  0  0  0  0  0  0  0  0  0  0  0
   -0.5766   -2.7917    4.0634 H   0  0  0  0  0  0  0  0  0  0  0  0
    0.8802   -1.9632    4.5928 H   0  0  0  0  0  0  0  0  0  0  0  0
    1.4269   -8.1386    4.8897 H   0  0  0  0  0  0  0  0  0  0  0  0
    1.9154   -6.2633    5.3328 H   0  0  0  0  0  0  0  0  0  0  0  0
    3.8301   -4.5958    6.6093 H   0  0  0  0  0  0  0  0  0  0  0  0
    4.1105   -3.5289    3.8455 H   0  0  0  0  0  0  0  0  0  0  0  0
    5.1696   -3.4826    5.2012 H   0  0  0  0  0  0  0  0  0  0  0  0
    6.4515   -4.8888    3.9830 H   0  0  0  0  0  0  0  0  0  0  0  0
    5.5804   -6.1748    4.6794 H   0  0  0  0  0  0  0  0  0  0  0  0
    4.8960   -4.8150    2.0878 H   0  0  0  0  0  0  0  0  0  0  0  0
  1  2  1  0
  1 40  1  0
  1 41  1  0
  1 42  1  0
  3  2  1  6
  3  7  1  0
  3 38  1  0
  3  4  1  0
  4  5  1  0
  5  6  1  0
  5 10  1  0
  5 43  1  6
  6  7  1  0
  7  8  2  0
  8  9  1  0
  8 44  1  0
 10 15  1  0
 10 38  1  0
 10 11  1  1
 11 12  1  0
 12 32  1  0
 12 13  1  6
 12 14  1  0
 13 45  1  0
 13 46  1  0
 13 47  1  0
 14 15  1  0
 15 16  1  6
 15 26  1  0
 16 17  1  0
 16 48  1  0
 16 49  1  0
 17 18  1  0
 18 24  1  0
 18 19  1  0
 18 50  1  6
 19 20  1  0
 20 21  1  0
 20 22  1  0
 20 51  1  6
 21 52  1  0
 21 53  1  0
 21 54  1  0
 22 23  1  0
 23 24  1  0
 23 55  1  0
 23 56  1  0
 24 25  1  0
 24 57  1  1
 25 58  1  0
 26 33  1  0
 26 27  2  0
 27 28  1  0
 27 59  1  0
 28 39  1  0
 28 29  1  6
 28 30  1  0
 29 60  1  0
 29 61  1  0
 29 62  1  0
 30 31  1  0
 31 32  1  0
 32 33  1  0
 32 63  1  1
 33 34  1  0
 33 64  1  1
 34 35  1  0
 35 36  1  0
 35 39  1  0
 35 65  1  1
 36 37  1  0
 36 66  1  0
 36 67  1  0
 37 38  1  0
 37 68  1  0
 37 69  1  0
 38 70  1  6
M  CHG  1   9  -1
M  END
>  <i_m_ct_stereo_status>  (130) 
1

>  <s_m_source_file>  (130) 
/var/tmp/pbs.5076253.sched01/tmp4uievzq0/12082cxahoa.sdf

>  <i_m_source_file_index>  (130) 
1

>  <i_lp_mmshare_version>  (130) 
48012

>  <i_f3d_flags>  (130) 
0

>  <s_epik_input>  (130) 
Tz1bQ0hdW0NASF0oTzEpW0NAQF0oT1tDSDNdKShPW0NAQEhdMVtDQF0yMzQpW0NAQEhdNFtDSDJdW0NIMl1bQ0BASF01T1tDQEhdNkM9N1tDQEBdMyhPW0NAXShPMikoW0NIM10pW0NIXTZPT1tDQEBdKE81KShbQ0hdNylbQ0gzXSlbQ0gyXU9bQ0BASF04T1tDQEBIXShbQ0gzXSlPW0NIMl1bQ0BIXThbT0hd

>  <s_epik_cmdline>  (130) 
J2VwaWtfcHl0aG9uJywgJy1waHQnLCAnMi4wJywgJy1waCcsICc3LjAnLCAnLXRuJywgJzgnLCAnLW1hJywgJzIwMCcsICctaW1hZScsICc8aW5maWxlLm1hZT4nLCAnLW9tYWUnLCAnPG91dGZpbGUubWFlPic=

>  <r_epik_Ionization_Penalty>  (130) 
2.32834

>  <r_epik_Ionization_Penalty_Charging>  (130) 
2.32833

>  <r_epik_Ionization_Penalty_Neutral>  (130) 
4.19025e-06

>  <r_epik_State_Penalty>  (130) 
2.48104

>  <r_epik_Charging_Adjusted_Penalty>  (130) 
4.80937

>  <i_epik_Tot_Q>  (130) 
-1

>  <i_epik_Tot_abs_Q>  (130) 
1

>  <s_epik_Chemistry_Notes>  (130) 
This compound contains an acetal/aminal-like group ( X-CH(R)-Y where X, Y are N, S, or O) that may be acid/base labile, releasing an aldehyde.

>  <s_lp_Force_Field>  (130) 
OPLS3e

>  <r_lp_Energy>  (130) 
174.04

>  <b_lp_Chiralities_Consistent>  (130) 
1

>  <s_lp_Variant>  (130) 
82:0-3

>  <s_i_glide_gridfile>  (130) 
pfpi4k_grid

>  <i_i_glide_lignum>  (130) 
1

>  <i_i_glide_rotatable_bonds>  (130) 
5

>  <r_i_docking_score>  (130) 
-2.81686

>  <r_i_glide_ligand_efficiency>  (130) 
-0.0722272

>  <r_i_glide_ligand_efficiency_sa>  (130) 
-0.244938

>  <r_i_glide_ligand_efficiency_ln>  (130) 
-0.604015

>  <r_i_glide_gscore>  (130) 
-2.81686

>  <r_i_glide_lipo>  (130) 
-0.449994

>  <r_i_glide_hbond>  (130) 
0

>  <r_i_glide_metal>  (130) 
-0

>  <r_i_glide_rewards>  (130) 
-0.251111

>  <r_i_glide_evdw>  (130) 
-28.5741

>  <r_i_glide_ecoul>  (130) 
-5.36615

>  <r_i_glide_erotb>  (130) 
0.127157

>  <r_i_glide_esite>  (130) 
-0.00928731

>  <r_i_glide_emodel>  (130) 
-38.5136

>  <r_i_glide_energy>  (130) 
-33.9402

>  <r_i_glide_einternal>  (130) 
4.13806

>  <r_i_glide_intrahb_reward>  (130) 
-0

>  <i_i_glide_confnum>  (130) 
2

>  <i_i_glide_posenum>  (130) 
20

>  <r_i_glide_eff_state_penalty>  (130) 
0

>  <ligand_id>  (130) 
82

>  <original_smiles>  (130) 
COC12OC(OC1C=O)C13OC4(C)OC1(COC1OC(C)OCC1O)C1=CC5(C)OOC4C1OC(CCC23)O5

>  <smiles>  (130) 
[H]OC1([H])C([H])([H])OC([H])(C([H])([H])[H])OC1([H])OC([H])([H])C12OC3(C([H])([H])[H])OC14C1([H])OC(=C([H])[O-])C(OC([H])([H])[H])(O1)C4([H])C([H])([H])C([H])([H])C1([H])OC4([H])C2=C([H])C(C([H])([H])[H])(OOC43[H])O1

$$$$
82:2:1
     RDKit          3D

 70 77  0  0  1  0  0  0  0  0999 V2000
    8.2930   -6.3672    0.8761 C   0  0  0  0  0  0  0  0  0  0  0  0
    7.3135   -5.7850    1.7290 O   0  0  0  0  0  0  0  0  0  0  0  0
    6.1415   -6.5239    1.8741 C   0  0  1  0  0  0  0  0  0  0  0  0
    5.4622   -6.7495    0.6979 O   0  0  0  0  0  0  0  0  0  0  0  0
    4.4685   -7.5724    1.1768 C   0  0  1  0  0  0  0  0  0  0  0  0
    5.2017   -8.5733    1.8427 O   0  0  0  0  0  0  0  0  0  0  0  0
    6.2496   -7.9223    2.4122 C   0  0  0  0  0  0  0  0  0  0  0  0
    7.1666   -8.4727    3.2945 C   0  0  0  0  0  0  0  0  0  0  0  0
    8.1468   -8.0638    3.9331 O   0  0  0  0  0  0  0  0  0  0  0  0
    3.8082   -6.6974    2.2942 C   0  0  2  0  0  0  0  0  0  0  0  0
    3.2150   -7.6597    3.2134 O   0  0  0  0  0  0  0  0  0  0  0  0
    1.7927   -7.5637    3.1217 C   0  0  2  0  0  0  0  0  0  0  0  0
    1.1509   -8.9502    2.9754 C   0  0  0  0  0  0  0  0  0  0  0  0
    1.5616   -6.8405    1.9649 O   0  0  0  0  0  0  0  0  0  0  0  0
    2.5778   -5.8481    1.9578 C   0  0  2  0  0  0  0  0  0  0  0  0
    2.5714   -5.1186    0.5879 C   0  0  0  0  0  0  0  0  0  0  0  0
    3.3200   -3.9063    0.6351 O   0  0  0  0  0  0  0  0  0  0  0  0
    3.3321   -3.1945   -0.5587 C   0  0  2  0  0  0  0  0  0  0  0  0
    4.1556   -3.8467   -1.4864 O   0  0  0  0  0  0  0  0  0  0  0  0
    4.3025   -3.1618   -2.6935 C   0  0  1  0  0  0  0  0  0  0  0  0
    2.9641   -3.0754   -3.4717 C   0  0  0  0  0  0  0  0  0  0  0  0
    4.8699   -1.9000   -2.5251 O   0  0  0  0  0  0  0  0  0  0  0  0
    4.1226   -1.0652   -1.6421 C   0  0  0  0  0  0  0  0  0  0  0  0
    3.9107   -1.7833   -0.2899 C   0  0  1  0  0  0  0  0  0  0  0  0
    3.0145   -0.9949    0.4613 O   0  0  0  0  0  0  0  0  0  0  0  0
    2.3197   -4.9628    3.1774 C   0  0  0  0  0  0  0  0  0  0  0  0
    1.7860   -3.7520    3.1898 C   0  0  0  0  0  0  0  0  0  0  0  0
    1.2517   -3.3826    4.5153 C   0  0  1  0  0  0  0  0  0  0  0  0
    0.6025   -1.9914    4.4825 C   0  0  0  0  0  0  0  0  0  0  0  0
    0.1842   -4.3636    4.8828 O   0  0  0  0  0  0  0  0  0  0  0  0
    0.1354   -5.7644    4.0608 O   0  0  0  0  0  0  0  0  0  0  0  0
    1.2356   -6.7304    4.3526 C   0  0  2  0  0  0  0  0  0  0  0  0
    2.3198   -5.7706    4.5112 C   0  0  1  0  0  0  0  0  0  0  0  0
    3.2921   -5.5206    5.4720 O   0  0  0  0  0  0  0  0  0  0  0  0
    3.5606   -4.1486    5.5175 C   0  0  1  0  0  0  0  0  0  0  0  0
    4.6986   -3.8802    4.4809 C   0  0  0  0  0  0  0  0  0  0  0  0
    5.4370   -5.2033    4.0190 C   0  0  0  0  0  0  0  0  0  0  0  0
    5.0478   -5.7615    2.6141 C   0  0  1  0  0  0  0  0  0  0  0  0
    2.4003   -3.2621    5.4465 O   0  0  0  0  0  0  0  0  0  0  0  0
    9.1785   -5.7307    0.8418 H   0  0  0  0  0  0  0  0  0  0  0  0
    7.9333   -6.4765   -0.1432 H   0  0  0  0  0  0  0  0  0  0  0  0
    8.5934   -7.3564    1.2211 H   0  0  0  0  0  0  0  0  0  0  0  0
    3.8128   -7.9723    0.4077 H   0  0  0  0  0  0  0  0  0  0  0  0
    6.8359   -9.5265    3.3857 H   0  0  0  0  0  0  0  0  0  0  0  0
    1.5300   -9.4514    2.0822 H   0  0  0  0  0  0  0  0  0  0  0  0
    0.0673   -8.8535    2.8861 H   0  0  0  0  0  0  0  0  0  0  0  0
    1.3751   -9.5585    3.8517 H   0  0  0  0  0  0  0  0  0  0  0  0
    2.9255   -5.7650   -0.2184 H   0  0  0  0  0  0  0  0  0  0  0  0
    1.5398   -4.8881    0.3291 H   0  0  0  0  0  0  0  0  0  0  0  0
    2.3092   -3.1412   -0.9310 H   0  0  0  0  0  0  0  0  0  0  0  0
    5.0292   -3.7417   -3.2635 H   0  0  0  0  0  0  0  0  0  0  0  0
    2.2159   -2.4787   -2.9460 H   0  0  0  0  0  0  0  0  0  0  0  0
    2.5590   -4.0768   -3.6165 H   0  0  0  0  0  0  0  0  0  0  0  0
    3.1395   -2.6107   -4.4412 H   0  0  0  0  0  0  0  0  0  0  0  0
    4.6601   -0.1313   -1.4940 H   0  0  0  0  0  0  0  0  0  0  0  0
    3.1728   -0.7883   -2.1035 H   0  0  0  0  0  0  0  0  0  0  0  0
    4.8643   -1.8961    0.2330 H   0  0  0  0  0  0  0  0  0  0  0  0
    2.1508   -1.0153    0.0373 H   0  0  0  0  0  0  0  0  0  0  0  0
    1.5844   -3.1586    2.3149 H   0  0  0  0  0  0  0  0  0  0  0  0
    0.2116   -1.7189    5.4622 H   0  0  0  0  0  0  0  0  0  0  0  0
   -0.2091   -1.9468    3.7582 H   0  0  0  0  0  0  0  0  0  0  0  0
    1.3405   -1.2427    4.1993 H   0  0  0  0  0  0  0  0  0  0  0  0
    1.1029   -7.3617    5.2344 H   0  0  0  0  0  0  0  0  0  0  0  0
    1.8384   -5.5267    5.4513 H   0  0  0  0  0  0  0  0  0  0  0  0
    3.9648   -3.9784    6.5131 H   0  0  0  0  0  0  0  0  0  0  0  0
    4.3318   -3.2895    3.6405 H   0  0  0  0  0  0  0  0  0  0  0  0
    5.4128   -3.2244    4.9800 H   0  0  0  0  0  0  0  0  0  0  0  0
    6.4830   -4.9213    3.9384 H   0  0  0  0  0  0  0  0  0  0  0  0
    5.4585   -5.9895    4.7725 H   0  0  0  0  0  0  0  0  0  0  0  0
    4.9606   -4.8681    2.0060 H   0  0  0  0  0  0  0  0  0  0  0  0
  1  2  1  0
  1 40  1  0
  1 41  1  0
  1 42  1  0
  3  2  1  6
  3  7  1  0
  3 38  1  0
  3  4  1  0
  4  5  1  0
  5  6  1  0
  5 10  1  0
  5 43  1  6
  6  7  1  0
  7  8  2  0
  8  9  1  0
  8 44  1  0
 10 15  1  0
 10 38  1  0
 10 11  1  1
 11 12  1  0
 12 32  1  0
 12 13  1  6
 12 14  1  0
 13 45  1  0
 13 46  1  0
 13 47  1  0
 14 15  1  0
 15 16  1  6
 15 26  1  0
 16 17  1  0
 16 48  1  0
 16 49  1  0
 17 18  1  0
 18 24  1  0
 18 19  1  0
 18 50  1  6
 19 20  1  0
 20 21  1  0
 20 22  1  0
 20 51  1  6
 21 52  1  0
 21 53  1  0
 21 54  1  0
 22 23  1  0
 23 24  1  0
 23 55  1  0
 23 56  1  0
 24 25  1  0
 24 57  1  1
 25 58  1  0
 26 33  1  0
 26 27  2  0
 27 28  1  0
 27 59  1  0
 28 39  1  0
 28 29  1  6
 28 30  1  0
 29 60  1  0
 29 61  1  0
 29 62  1  0
 30 31  1  0
 31 32  1  0
 32 33  1  0
 32 63  1  1
 33 34  1  0
 33 64  1  1
 34 35  1  0
 35 36  1  0
 35 39  1  0
 35 65  1  1
 36 37  1  0
 36 66  1  0
 36 67  1  0
 37 38  1  0
 37 68  1  0
 37 69  1  0
 38 70  1  6
M  CHG  1   9  -1
M  END
>  <i_m_ct_stereo_status>  (131) 
1

>  <s_m_source_file>  (131) 
/var/tmp/pbs.5076253.sched01/tmp4uievzq0/12082cxahoa.sdf

>  <i_m_source_file_index>  (131) 
1

>  <i_lp_mmshare_version>  (131) 
48012

>  <i_f3d_flags>  (131) 
0

>  <s_epik_input>  (131) 
Tz1bQ0hdW0NASF0oTzEpW0NAQF0oT1tDSDNdKShPW0NAQEhdMVtDQF0yMzQpW0NAQEhdNFtDSDJdW0NIMl1bQ0BASF01T1tDQEhdNkM9N1tDQEBdMyhPW0NAXShPMikoW0NIM10pW0NIXTZPT1tDQEBdKE81KShbQ0hdNylbQ0gzXSlbQ0gyXU9bQ0BASF04T1tDQEBIXShbQ0gzXSlPW0NIMl1bQ0BIXThbT0hd

>  <s_epik_cmdline>  (131) 
J2VwaWtfcHl0aG9uJywgJy1waHQnLCAnMi4wJywgJy1waCcsICc3LjAnLCAnLXRuJywgJzgnLCAnLW1hJywgJzIwMCcsICctaW1hZScsICc8aW5maWxlLm1hZT4nLCAnLW9tYWUnLCAnPG91dGZpbGUubWFlPic=

>  <r_epik_Ionization_Penalty>  (131) 
2.32834

>  <r_epik_Ionization_Penalty_Charging>  (131) 
2.32833

>  <r_epik_Ionization_Penalty_Neutral>  (131) 
4.19025e-06

>  <r_epik_State_Penalty>  (131) 
2.48104

>  <r_epik_Charging_Adjusted_Penalty>  (131) 
4.80937

>  <i_epik_Tot_Q>  (131) 
-1

>  <i_epik_Tot_abs_Q>  (131) 
1

>  <s_epik_Chemistry_Notes>  (131) 
This compound contains an acetal/aminal-like group ( X-CH(R)-Y where X, Y are N, S, or O) that may be acid/base labile, releasing an aldehyde.

>  <s_lp_Force_Field>  (131) 
OPLS3e

>  <r_lp_Energy>  (131) 
174.04

>  <b_lp_Chiralities_Consistent>  (131) 
1

>  <s_lp_Variant>  (131) 
82:0-3

>  <s_i_glide_gridfile>  (131) 
pfpi4k_grid

>  <i_i_glide_lignum>  (131) 
1

>  <i_i_glide_rotatable_bonds>  (131) 
5

>  <r_i_docking_score>  (131) 
-2.59046

>  <r_i_glide_ligand_efficiency>  (131) 
-0.066422

>  <r_i_glide_ligand_efficiency_sa>  (131) 
-0.225251

>  <r_i_glide_ligand_efficiency_ln>  (131) 
-0.555468

>  <r_i_glide_gscore>  (131) 
-2.59046

>  <r_i_glide_lipo>  (131) 
-0.291016

>  <r_i_glide_hbond>  (131) 
-0.010082

>  <r_i_glide_metal>  (131) 
-0

>  <r_i_glide_rewards>  (131) 
-0.236088

>  <r_i_glide_evdw>  (131) 
-26.4735

>  <r_i_glide_ecoul>  (131) 
-5.61468

>  <r_i_glide_erotb>  (131) 
0.127157

>  <r_i_glide_esite>  (131) 
-0.0145544

>  <r_i_glide_emodel>  (131) 
-37.6691

>  <r_i_glide_energy>  (131) 
-32.0881

>  <r_i_glide_einternal>  (131) 
1.15379

>  <r_i_glide_intrahb_reward>  (131) 
-0

>  <i_i_glide_confnum>  (131) 
2

>  <i_i_glide_posenum>  (131) 
3

>  <r_i_glide_eff_state_penalty>  (131) 
0

>  <ligand_id>  (131) 
82

>  <original_smiles>  (131) 
COC12OC(OC1C=O)C13OC4(C)OC1(COC1OC(C)OCC1O)C1=CC5(C)OOC4C1OC(CCC23)O5

>  <smiles>  (131) 
[H]OC1([H])C([H])([H])OC([H])(C([H])([H])[H])OC1([H])OC([H])([H])C12OC3(C([H])([H])[H])OC14C1([H])OC(=C([H])[O-])C(OC([H])([H])[H])(O1)C4([H])C([H])([H])C([H])([H])C1([H])OC4([H])C2=C([H])C(C([H])([H])[H])(OOC43[H])O1

$$$$
82:2:2
     RDKit          3D

 70 77  0  0  1  0  0  0  0  0999 V2000
    5.1006   -3.9764   -2.2500 C   0  0  0  0  0  0  0  0  0  0  0  0
    4.3725   -3.3413   -1.1994 O   0  0  0  0  0  0  0  0  0  0  0  0
    4.6874   -3.7411    0.1091 C   0  0  1  0  0  0  0  0  0  0  0  0
    4.4002   -5.0571    0.3961 O   0  0  0  0  0  0  0  0  0  0  0  0
    4.9257   -5.1116    1.6724 C   0  0  1  0  0  0  0  0  0  0  0  0
    6.2380   -4.6408    1.4741 O   0  0  0  0  0  0  0  0  0  0  0  0
    6.1257   -3.6575    0.5211 C   0  0  0  0  0  0  0  0  0  0  0  0
    7.1190   -2.8109    0.1037 C   0  0  0  0  0  0  0  0  0  0  0  0
    7.1865   -1.8711   -0.6913 O   0  0  0  0  0  0  0  0  0  0  0  0
    4.1684   -3.9565    2.4221 C   0  0  2  0  0  0  0  0  0  0  0  0
    5.0825   -3.5440    3.4784 O   0  0  0  0  0  0  0  0  0  0  0  0
    4.5294   -3.9293    4.7351 C   0  0  2  0  0  0  0  0  0  0  0  0
    5.5699   -4.6474    5.6111 C   0  0  0  0  0  0  0  0  0  0  0  0
    3.5333   -4.8290    4.4212 O   0  0  0  0  0  0  0  0  0  0  0  0
    2.9184   -4.2883    3.2620 C   0  0  2  0  0  0  0  0  0  0  0  0
    1.9313   -5.3390    2.6879 C   0  0  0  0  0  0  0  0  0  0  0  0
    0.8682   -5.6048    3.6153 O   0  0  0  0  0  0  0  0  0  0  0  0
    0.4064   -6.9148    3.5920 C   0  0  2  0  0  0  0  0  0  0  0  0
   -0.1944   -7.1951    2.3683 O   0  0  0  0  0  0  0  0  0  0  0  0
   -0.7480   -8.4801    2.2925 C   0  0  1  0  0  0  0  0  0  0  0  0
    0.3465   -9.5784    2.4041 C   0  0  0  0  0  0  0  0  0  0  0  0
   -1.7463   -8.6638    3.2457 O   0  0  0  0  0  0  0  0  0  0  0  0
   -1.2896   -8.5017    4.5803 C   0  0  0  0  0  0  0  0  0  0  0  0
   -0.6430   -7.0990    4.7252 C   0  0  1  0  0  0  0  0  0  0  0  0
   -0.0390   -7.0337    5.9987 O   0  0  0  0  0  0  0  0  0  0  0  0
    2.3133   -2.9414    3.6573 C   0  0  0  0  0  0  0  0  0  0  0  0
    1.0376   -2.6681    3.8573 C   0  0  0  0  0  0  0  0  0  0  0  0
    0.8392   -1.4638    4.6821 C   0  0  1  0  0  0  0  0  0  0  0  0
   -0.6594   -1.2083    4.9375 C   0  0  0  0  0  0  0  0  0  0  0  0
    1.4775   -1.6808    6.0199 O   0  0  0  0  0  0  0  0  0  0  0  0
    2.5618   -2.9033    6.1305 O   0  0  0  0  0  0  0  0  0  0  0  0
    3.8655   -2.6665    5.4401 C   0  0  2  0  0  0  0  0  0  0  0  0
    3.3644   -1.9642    4.2701 C   0  0  1  0  0  0  0  0  0  0  0  0
    3.6752   -0.7776    3.6199 O   0  0  0  0  0  0  0  0  0  0  0  0
    2.5136   -0.2361    3.0634 C   0  0  1  0  0  0  0  0  0  0  0  0
    2.3836   -0.8388    1.6264 C   0  0  0  0  0  0  0  0  0  0  0  0
    3.7215   -1.5140    1.1125 C   0  0  0  0  0  0  0  0  0  0  0  0
    3.7779   -3.0801    1.1567 C   0  0  1  0  0  0  0  0  0  0  0  0
    1.3097   -0.2956    3.8973 O   0  0  0  0  0  0  0  0  0  0  0  0
    4.7371   -3.6227   -3.2167 H   0  0  0  0  0  0  0  0  0  0  0  0
    5.0102   -5.0604   -2.2225 H   0  0  0  0  0  0  0  0  0  0  0  0
    6.1655   -3.7571   -2.2278 H   0  0  0  0  0  0  0  0  0  0  0  0
    4.8937   -6.0990    2.1349 H   0  0  0  0  0  0  0  0  0  0  0  0
    8.0120   -3.1272    0.6743 H   0  0  0  0  0  0  0  0  0  0  0  0
    5.9399   -5.5400    5.0977 H   0  0  0  0  0  0  0  0  0  0  0  0
    5.1104   -4.9575    6.5518 H   0  0  0  0  0  0  0  0  0  0  0  0
    6.4048   -3.9817    5.8275 H   0  0  0  0  0  0  0  0  0  0  0  0
    1.4788   -4.9961    1.7603 H   0  0  0  0  0  0  0  0  0  0  0  0
    2.4797   -6.2509    2.4411 H   0  0  0  0  0  0  0  0  0  0  0  0
    1.2699   -7.5576    3.7617 H   0  0  0  0  0  0  0  0  0  0  0  0
   -1.2393   -8.5487    1.3223 H   0  0  0  0  0  0  0  0  0  0  0  0
    0.8475   -9.5971    3.3685 H   0  0  0  0  0  0  0  0  0  0  0  0
    1.1098   -9.3980    1.6521 H   0  0  0  0  0  0  0  0  0  0  0  0
   -0.1085  -10.5557    2.2373 H   0  0  0  0  0  0  0  0  0  0  0  0
   -2.1362   -8.6514    5.2532 H   0  0  0  0  0  0  0  0  0  0  0  0
   -0.5860   -9.2903    4.8515 H   0  0  0  0  0  0  0  0  0  0  0  0
   -1.4064   -6.3287    4.6231 H   0  0  0  0  0  0  0  0  0  0  0  0
    0.6115   -7.7136    6.0709 H   0  0  0  0  0  0  0  0  0  0  0  0
    0.2164   -3.3271    3.6215 H   0  0  0  0  0  0  0  0  0  0  0  0
   -0.8011   -0.3131    5.5419 H   0  0  0  0  0  0  0  0  0  0  0  0
   -1.1289   -2.0510    5.4439 H   0  0  0  0  0  0  0  0  0  0  0  0
   -1.1783   -1.0521    3.9957 H   0  0  0  0  0  0  0  0  0  0  0  0
    4.6132   -2.0861    5.9911 H   0  0  0  0  0  0  0  0  0  0  0  0
    3.1997   -1.1442    4.9527 H   0  0  0  0  0  0  0  0  0  0  0  0
    2.7124    0.8317    2.9611 H   0  0  0  0  0  0  0  0  0  0  0  0
    1.5261   -1.5047    1.5567 H   0  0  0  0  0  0  0  0  0  0  0  0
    2.1291   -0.0038    0.9707 H   0  0  0  0  0  0  0  0  0  0  0  0
    3.7600   -1.2461    0.0573 H   0  0  0  0  0  0  0  0  0  0  0  0
    4.6281   -1.0627    1.5086 H   0  0  0  0  0  0  0  0  0  0  0  0
    2.7845   -3.3858    0.8411 H   0  0  0  0  0  0  0  0  0  0  0  0
  1  2  1  0
  1 40  1  0
  1 41  1  0
  1 42  1  0
  3  2  1  6
  3  7  1  0
  3 38  1  0
  3  4  1  0
  4  5  1  0
  5  6  1  0
  5 10  1  0
  5 43  1  1
  6  7  1  0
  7  8  2  0
  8  9  1  0
  8 44  1  0
 10 15  1  0
 10 38  1  0
 10 11  1  1
 11 12  1  0
 12 32  1  0
 12 13  1  1
 12 14  1  0
 13 45  1  0
 13 46  1  0
 13 47  1  0
 14 15  1  0
 15 16  1  6
 15 26  1  0
 16 17  1  0
 16 48  1  0
 16 49  1  0
 17 18  1  0
 18 24  1  0
 18 19  1  0
 18 50  1  1
 19 20  1  0
 20 21  1  0
 20 22  1  0
 20 51  1  6
 21 52  1  0
 21 53  1  0
 21 54  1  0
 22 23  1  0
 23 24  1  0
 23 55  1  0
 23 56  1  0
 24 25  1  0
 24 57  1  1
 25 58  1  0
 26 33  1  0
 26 27  2  0
 27 28  1  0
 27 59  1  0
 28 39  1  0
 28 29  1  1
 28 30  1  0
 29 60  1  0
 29 61  1  0
 29 62  1  0
 30 31  1  0
 31 32  1  0
 32 33  1  0
 32 63  1  1
 33 34  1  0
 33 64  1  1
 34 35  1  0
 35 36  1  0
 35 39  1  0
 35 65  1  6
 36 37  1  0
 36 66  1  0
 36 67  1  0
 37 38  1  0
 37 68  1  0
 37 69  1  0
 38 70  1  6
M  CHG  1   9  -1
M  END
>  <i_m_ct_stereo_status>  (132) 
1

>  <s_m_source_file>  (132) 
/var/tmp/pbs.5076253.sched01/tmp4uievzq0/12082cxahoa.sdf

>  <i_m_source_file_index>  (132) 
1

>  <i_lp_mmshare_version>  (132) 
48012

>  <i_f3d_flags>  (132) 
0

>  <s_epik_input>  (132) 
Tz1bQ0hdW0NASF0oTzEpW0NAQF0oT1tDSDNdKShPW0NAQEhdMVtDQF0yMzQpW0NAQEhdNFtDSDJdW0NIMl1bQ0BASF01T1tDQEhdNkM9N1tDQEBdMyhPW0NAXShPMikoW0NIM10pW0NIXTZPT1tDQEBdKE81KShbQ0hdNylbQ0gzXSlbQ0gyXU9bQ0BASF04T1tDQEBIXShbQ0gzXSlPW0NIMl1bQ0BIXThbT0hd

>  <s_epik_cmdline>  (132) 
J2VwaWtfcHl0aG9uJywgJy1waHQnLCAnMi4wJywgJy1waCcsICc3LjAnLCAnLXRuJywgJzgnLCAnLW1hJywgJzIwMCcsICctaW1hZScsICc8aW5maWxlLm1hZT4nLCAnLW9tYWUnLCAnPG91dGZpbGUubWFlPic=

>  <r_epik_Ionization_Penalty>  (132) 
2.32834

>  <r_epik_Ionization_Penalty_Charging>  (132) 
2.32833

>  <r_epik_Ionization_Penalty_Neutral>  (132) 
4.19025e-06

>  <r_epik_State_Penalty>  (132) 
2.48104

>  <r_epik_Charging_Adjusted_Penalty>  (132) 
4.80937

>  <i_epik_Tot_Q>  (132) 
-1

>  <i_epik_Tot_abs_Q>  (132) 
1

>  <s_epik_Chemistry_Notes>  (132) 
This compound contains an acetal/aminal-like group ( X-CH(R)-Y where X, Y are N, S, or O) that may be acid/base labile, releasing an aldehyde.

>  <s_lp_Force_Field>  (132) 
OPLS3e

>  <r_lp_Energy>  (132) 
174.04

>  <b_lp_Chiralities_Consistent>  (132) 
1

>  <s_lp_Variant>  (132) 
82:0-3

>  <s_i_glide_gridfile>  (132) 
pfpi4k_grid

>  <i_i_glide_lignum>  (132) 
1

>  <i_i_glide_rotatable_bonds>  (132) 
5

>  <r_i_docking_score>  (132) 
-2.36299

>  <r_i_glide_ligand_efficiency>  (132) 
-0.0605894

>  <r_i_glide_ligand_efficiency_sa>  (132) 
-0.205471

>  <r_i_glide_ligand_efficiency_ln>  (132) 
-0.506691

>  <r_i_glide_gscore>  (132) 
-2.36299

>  <r_i_glide_lipo>  (132) 
-0.221382

>  <r_i_glide_hbond>  (132) 
-0.221876

>  <r_i_glide_metal>  (132) 
-0

>  <r_i_glide_rewards>  (132) 
-0.092898

>  <r_i_glide_evdw>  (132) 
-27.5944

>  <r_i_glide_ecoul>  (132) 
-3.25423

>  <r_i_glide_erotb>  (132) 
0.127157

>  <r_i_glide_esite>  (132) 
-0.0861307

>  <r_i_glide_emodel>  (132) 
-35.3653

>  <r_i_glide_energy>  (132) 
-30.8486

>  <r_i_glide_einternal>  (132) 
1.82986

>  <r_i_glide_intrahb_reward>  (132) 
-0

>  <i_i_glide_confnum>  (132) 
1

>  <i_i_glide_posenum>  (132) 
18

>  <r_i_glide_eff_state_penalty>  (132) 
0

>  <ligand_id>  (132) 
82

>  <original_smiles>  (132) 
COC12OC(OC1C=O)C13OC4(C)OC1(COC1OC(C)OCC1O)C1=CC5(C)OOC4C1OC(CCC23)O5

>  <smiles>  (132) 
[H]OC1([H])C([H])([H])OC([H])(C([H])([H])[H])OC1([H])OC([H])([H])C12OC3(C([H])([H])[H])OC14C1([H])OC(=C([H])[O-])C(OC([H])([H])[H])(O1)C4([H])C([H])([H])C([H])([H])C1([H])OC4([H])C2=C([H])C(C([H])([H])[H])(OOC43[H])O1

$$$$
82:3:0
     RDKit          3D

 70 77  0  0  1  0  0  0  0  0999 V2000
    3.3466   -3.4317   -1.7239 C   0  0  0  0  0  0  0  0  0  0  0  0
    4.6825   -3.5312   -1.2695 O   0  0  0  0  0  0  0  0  0  0  0  0
    4.8983   -3.8001    0.0842 C   0  0  1  0  0  0  0  0  0  0  0  0
    4.5832   -5.0753    0.4960 O   0  0  0  0  0  0  0  0  0  0  0  0
    5.1161   -5.0140    1.7708 C   0  0  1  0  0  0  0  0  0  0  0  0
    6.4335   -4.5816    1.5396 O   0  0  0  0  0  0  0  0  0  0  0  0
    6.3389   -3.7519    0.4766 C   0  0  0  0  0  0  0  0  0  0  0  0
    7.3855   -3.0491   -0.1487 C   0  0  0  0  0  0  0  0  0  0  0  0
    7.5123   -2.3082   -1.0972 O   0  0  0  0  0  0  0  0  0  0  0  0
    4.3487   -3.7954    2.3955 C   0  0  2  0  0  0  0  0  0  0  0  0
    5.2282   -3.1815    3.3895 O   0  0  0  0  0  0  0  0  0  0  0  0
    4.7852   -3.6156    4.6707 C   0  0  2  0  0  0  0  0  0  0  0  0
    5.9528   -4.2526    5.4322 C   0  0  0  0  0  0  0  0  0  0  0  0
    3.8406   -4.6374    4.3441 O   0  0  0  0  0  0  0  0  0  0  0  0
    3.0575   -4.1637    3.2152 C   0  0  2  0  0  0  0  0  0  0  0  0
    2.1191   -5.2602    2.6746 C   0  0  0  0  0  0  0  0  0  0  0  0
    1.0422   -5.4862    3.5946 O   0  0  0  0  0  0  0  0  0  0  0  0
    0.5808   -6.8037    3.5942 C   0  0  2  0  0  0  0  0  0  0  0  0
   -0.0213   -7.0985    2.3666 O   0  0  0  0  0  0  0  0  0  0  0  0
   -0.5816   -8.3809    2.3015 C   0  0  1  0  0  0  0  0  0  0  0  0
    0.5006   -9.4925    2.4036 C   0  0  0  0  0  0  0  0  0  0  0  0
   -1.5802   -8.5589    3.2544 O   0  0  0  0  0  0  0  0  0  0  0  0
   -1.1253   -8.3814    4.5884 C   0  0  0  0  0  0  0  0  0  0  0  0
   -0.4679   -6.9853    4.7261 C   0  0  1  0  0  0  0  0  0  0  0  0
    0.1336   -6.9281    6.0052 O   0  0  0  0  0  0  0  0  0  0  0  0
    2.3436   -2.8465    3.6038 C   0  0  0  0  0  0  0  0  0  0  0  0
    1.2190   -2.0761    3.5466 C   0  0  0  0  0  0  0  0  0  0  0  0
    1.3422   -0.6621    4.3415 C   0  0  1  0  0  0  0  0  0  0  0  0
   -0.0630   -0.1077    4.6371 C   0  0  0  0  0  0  0  0  0  0  0  0
    2.0816   -0.6210    5.7133 O   0  0  0  0  0  0  0  0  0  0  0  0
    3.6954   -1.1188    5.8432 O   0  0  0  0  0  0  0  0  0  0  0  0
    3.9221   -2.6035    5.6178 C   0  0  1  0  0  0  0  0  0  0  0  0
    3.2996   -2.1888    4.3814 C   0  0  1  0  0  0  0  0  0  0  0  0
    3.8857   -1.0302    3.6626 O   0  0  0  0  0  0  0  0  0  0  0  0
    3.1754   -0.1111    2.9142 C   0  0  1  0  0  0  0  0  0  0  0  0
    3.0760   -0.6165    1.4552 C   0  0  0  0  0  0  0  0  0  0  0  0
    4.3118   -1.4615    1.0369 C   0  0  0  0  0  0  0  0  0  0  0  0
    4.0496   -2.9900    1.0873 C   0  0  1  0  0  0  0  0  0  0  0  0
    1.9308    0.2681    3.4393 O   0  0  0  0  0  0  0  0  0  0  0  0
    3.3254   -3.4481   -2.8127 H   0  0  0  0  0  0  0  0  0  0  0  0
    2.9005   -2.4932   -1.4024 H   0  0  0  0  0  0  0  0  0  0  0  0
    2.7351   -4.2508   -1.3541 H   0  0  0  0  0  0  0  0  0  0  0  0
    5.0631   -5.9584    2.3128 H   0  0  0  0  0  0  0  0  0  0  0  0
    8.2655   -3.3441    0.4829 H   0  0  0  0  0  0  0  0  0  0  0  0
    6.4158   -5.0448    4.8410 H   0  0  0  0  0  0  0  0  0  0  0  0
    5.5997   -4.6828    6.3699 H   0  0  0  0  0  0  0  0  0  0  0  0
    6.7019   -3.4992    5.6616 H   0  0  0  0  0  0  0  0  0  0  0  0
    1.6807   -4.9732    1.7223 H   0  0  0  0  0  0  0  0  0  0  0  0
    2.6952   -6.1698    2.4882 H   0  0  0  0  0  0  0  0  0  0  0  0
    1.4449   -7.4457    3.7640 H   0  0  0  0  0  0  0  0  0  0  0  0
   -1.0819   -8.4403    1.3330 H   0  0  0  0  0  0  0  0  0  0  0  0
    1.0258   -9.5173    3.3573 H   0  0  0  0  0  0  0  0  0  0  0  0
    1.2534   -9.3328    1.6329 H   0  0  0  0  0  0  0  0  0  0  0  0
    0.0286  -10.4669    2.2645 H   0  0  0  0  0  0  0  0  0  0  0  0
   -1.9708   -8.5065    5.2630 H   0  0  0  0  0  0  0  0  0  0  0  0
   -0.4497   -9.1858    4.8767 H   0  0  0  0  0  0  0  0  0  0  0  0
   -1.2305   -6.2140    4.6192 H   0  0  0  0  0  0  0  0  0  0  0  0
    0.7922   -7.6033    6.0706 H   0  0  0  0  0  0  0  0  0  0  0  0
    0.3122   -2.3645    3.0374 H   0  0  0  0  0  0  0  0  0  0  0  0
    0.0074    0.8920    5.0626 H   0  0  0  0  0  0  0  0  0  0  0  0
   -0.5964   -0.7309    5.3482 H   0  0  0  0  0  0  0  0  0  0  0  0
   -0.6648   -0.0286    3.7327 H   0  0  0  0  0  0  0  0  0  0  0  0
    3.4329   -3.2062    6.4080 H   0  0  0  0  0  0  0  0  0  0  0  0
    2.4904   -2.5310    5.0613 H   0  0  0  0  0  0  0  0  0  0  0  0
    3.7707    0.8032    2.9189 H   0  0  0  0  0  0  0  0  0  0  0  0
    2.1393   -1.1534    1.2773 H   0  0  0  0  0  0  0  0  0  0  0  0
    3.0225    0.2762    0.8257 H   0  0  0  0  0  0  0  0  0  0  0  0
    4.5212   -1.2093   -0.0014 H   0  0  0  0  0  0  0  0  0  0  0  0
    5.2243   -1.1877    1.5707 H   0  0  0  0  0  0  0  0  0  0  0  0
    3.0129   -3.1778    0.8208 H   0  0  0  0  0  0  0  0  0  0  0  0
  1  2  1  0
  1 40  1  0
  1 41  1  0
  1 42  1  0
  3  2  1  6
  3  7  1  0
  3 38  1  0
  3  4  1  0
  4  5  1  0
  5  6  1  0
  5 10  1  0
  5 43  1  1
  6  7  1  0
  7  8  2  0
  8  9  1  0
  8 44  1  0
 10 15  1  0
 10 38  1  0
 10 11  1  1
 11 12  1  0
 12 32  1  0
 12 13  1  1
 12 14  1  0
 13 45  1  0
 13 46  1  0
 13 47  1  0
 14 15  1  0
 15 16  1  6
 15 26  1  0
 16 17  1  0
 16 48  1  0
 16 49  1  0
 17 18  1  0
 18 24  1  0
 18 19  1  0
 18 50  1  1
 19 20  1  0
 20 21  1  0
 20 22  1  0
 20 51  1  6
 21 52  1  0
 21 53  1  0
 21 54  1  0
 22 23  1  0
 23 24  1  0
 23 55  1  0
 23 56  1  0
 24 25  1  0
 24 57  1  1
 25 58  1  0
 26 33  1  0
 26 27  2  0
 27 28  1  0
 27 59  1  0
 28 39  1  0
 28 29  1  1
 28 30  1  0
 29 60  1  0
 29 61  1  0
 29 62  1  0
 30 31  1  0
 31 32  1  0
 32 33  1  0
 32 63  1  1
 33 34  1  0
 33 64  1  1
 34 35  1  0
 35 36  1  0
 35 39  1  0
 35 65  1  6
 36 37  1  0
 36 66  1  0
 36 67  1  0
 37 38  1  0
 37 68  1  0
 37 69  1  0
 38 70  1  6
M  CHG  1   9  -1
M  END
>  <i_m_ct_stereo_status>  (133) 
1

>  <s_m_source_file>  (133) 
/var/tmp/pbs.5076253.sched01/tmp4uievzq0/12082cxahoa.sdf

>  <i_m_source_file_index>  (133) 
2

>  <i_lp_mmshare_version>  (133) 
48012

>  <i_f3d_flags>  (133) 
0

>  <s_epik_input>  (133) 
Tz1bQ0hdW0NASF0oTzEpW0NAQF0oT1tDSDNdKShPW0NAQEhdMVtDQF0yMzQpW0NAQEhdNFtDSDJdW0NIMl1bQ0BASF01T1tDQEhdNkM9N1tDQEBdMyhPW0NAXShPMikoW0NIM10pW0NIXTZPT1tDQEBdKE81KShbQ0hdNylbQ0gzXSlbQ0gyXU9bQ0BASF04T1tDQEBIXShbQ0gzXSlPW0NIMl1bQ0BIXThbT0hd

>  <s_epik_cmdline>  (133) 
J2VwaWtfcHl0aG9uJywgJy1waHQnLCAnMi4wJywgJy1waCcsICc3LjAnLCAnLXRuJywgJzgnLCAnLW1hJywgJzIwMCcsICctaW1hZScsICc8aW5maWxlLm1hZT4nLCAnLW9tYWUnLCAnPG91dGZpbGUubWFlPic=

>  <r_epik_Ionization_Penalty>  (133) 
2.32834

>  <r_epik_Ionization_Penalty_Charging>  (133) 
2.32833

>  <r_epik_Ionization_Penalty_Neutral>  (133) 
4.19025e-06

>  <r_epik_State_Penalty>  (133) 
2.48104

>  <r_epik_Charging_Adjusted_Penalty>  (133) 
4.80937

>  <i_epik_Tot_Q>  (133) 
-1

>  <i_epik_Tot_abs_Q>  (133) 
1

>  <s_epik_Chemistry_Notes>  (133) 
This compound contains an acetal/aminal-like group ( X-CH(R)-Y where X, Y are N, S, or O) that may be acid/base labile, releasing an aldehyde.

>  <s_lp_Force_Field>  (133) 
OPLS3e

>  <r_lp_Energy>  (133) 
307.666

>  <b_lp_Chiralities_Consistent>  (133) 
1

>  <s_lp_Variant>  (133) 
82:0-4

>  <s_i_glide_gridfile>  (133) 
pfpi4k_grid

>  <i_i_glide_lignum>  (133) 
2

>  <i_i_glide_rotatable_bonds>  (133) 
5

>  <r_i_docking_score>  (133) 
-2.54634

>  <r_i_glide_ligand_efficiency>  (133) 
-0.0652907

>  <r_i_glide_ligand_efficiency_sa>  (133) 
-0.221415

>  <r_i_glide_ligand_efficiency_ln>  (133) 
-0.546007

>  <r_i_glide_gscore>  (133) 
-2.54634

>  <r_i_glide_lipo>  (133) 
-0.315972

>  <r_i_glide_hbond>  (133) 
-0.214322

>  <r_i_glide_metal>  (133) 
-0

>  <r_i_glide_rewards>  (133) 
-0.121767

>  <r_i_glide_evdw>  (133) 
-27.665

>  <r_i_glide_ecoul>  (133) 
-3.68804

>  <r_i_glide_erotb>  (133) 
0.127157

>  <r_i_glide_esite>  (133) 
-0.0849794

>  <r_i_glide_emodel>  (133) 
-36.166

>  <r_i_glide_energy>  (133) 
-31.353

>  <r_i_glide_einternal>  (133) 
2.80107

>  <r_i_glide_intrahb_reward>  (133) 
-0

>  <i_i_glide_confnum>  (133) 
1

>  <i_i_glide_posenum>  (133) 
39

>  <r_i_glide_eff_state_penalty>  (133) 
0

>  <ligand_id>  (133) 
82

>  <original_smiles>  (133) 
COC12OC(OC1C=O)C13OC4(C)OC1(COC1OC(C)OCC1O)C1=CC5(C)OOC4C1OC(CCC23)O5

>  <smiles>  (133) 
[H]OC1([H])C([H])([H])OC([H])(C([H])([H])[H])OC1([H])OC([H])([H])C12OC3(C([H])([H])[H])OC14C1([H])OC(=C([H])[O-])C(OC([H])([H])[H])(O1)C4([H])C([H])([H])C([H])([H])C1([H])OC4([H])C2=C([H])C(C([H])([H])[H])(OOC43[H])O1

$$$$
82:3:1
     RDKit          3D

 70 77  0  0  1  0  0  0  0  0999 V2000
    7.5692    0.6159    4.9479 C   0  0  0  0  0  0  0  0  0  0  0  0
    6.1777    0.9077    4.8647 O   0  0  0  0  0  0  0  0  0  0  0  0
    5.2842   -0.1306    4.9056 C   0  0  1  0  0  0  0  0  0  0  0  0
    5.4465   -1.0876    3.9159 O   0  0  0  0  0  0  0  0  0  0  0  0
    4.5379   -2.0033    4.3743 C   0  0  1  0  0  0  0  0  0  0  0  0
    4.9153   -2.1996    5.7164 O   0  0  0  0  0  0  0  0  0  0  0  0
    5.3436   -0.9722    6.1449 C   0  0  0  0  0  0  0  0  0  0  0  0
    5.7824   -0.6378    7.4141 C   0  0  0  0  0  0  0  0  0  0  0  0
    6.2086    0.3964    7.9712 O   0  0  0  0  0  0  0  0  0  0  0  0
    3.2164   -1.1612    4.3728 C   0  0  2  0  0  0  0  0  0  0  0  0
    2.3516   -1.7074    5.4192 O   0  0  0  0  0  0  0  0  0  0  0  0
    1.3815   -2.5325    4.7742 C   0  0  2  0  0  0  0  0  0  0  0  0
    1.4128   -3.9416    5.3836 C   0  0  0  0  0  0  0  0  0  0  0  0
    1.8587   -2.6014    3.4302 O   0  0  0  0  0  0  0  0  0  0  0  0
    2.3477   -1.2766    3.0785 C   0  0  2  0  0  0  0  0  0  0  0  0
    3.0440   -1.2586    1.7105 C   0  0  0  0  0  0  0  0  0  0  0  0
    3.7178   -2.4929    1.5116 O   0  0  0  0  0  0  0  0  0  0  0  0
    4.1926   -2.7544    0.2278 C   0  0  2  0  0  0  0  0  0  0  0  0
    4.8855   -1.6526   -0.2914 O   0  0  0  0  0  0  0  0  0  0  0  0
    5.3314   -1.8225   -1.6014 C   0  0  1  0  0  0  0  0  0  0  0  0
    6.4479   -2.8915   -1.6780 C   0  0  0  0  0  0  0  0  0  0  0  0
    4.2957   -2.1052   -2.4908 O   0  0  0  0  0  0  0  0  0  0  0  0
    3.5444   -3.2659   -2.1588 C   0  0  0  0  0  0  0  0  0  0  0  0
    3.0200   -3.1550   -0.7127 C   0  0  1  0  0  0  0  0  0  0  0  0
    2.4644   -4.4030   -0.3303 O   0  0  0  0  0  0  0  0  0  0  0  0
    1.1816   -0.2781    3.1866 C   0  0  0  0  0  0  0  0  0  0  0  0
    0.5113    0.8019    2.6510 C   0  0  0  0  0  0  0  0  0  0  0  0
   -0.7997    1.2466    3.5093 C   0  0  1  0  0  0  0  0  0  0  0  0
   -1.7273    2.0990    2.6290 C   0  0  0  0  0  0  0  0  0  0  0  0
   -1.7289    0.1607    4.1280 O   0  0  0  0  0  0  0  0  0  0  0  0
   -1.1169   -1.0104    5.2011 O   0  0  0  0  0  0  0  0  0  0  0  0
   -0.1350   -1.9887    4.5807 C   0  0  1  0  0  0  0  0  0  0  0  0
    0.4829   -0.7104    4.3171 C   0  0  1  0  0  0  0  0  0  0  0  0
    0.6884    0.2162    5.4569 O   0  0  0  0  0  0  0  0  0  0  0  0
    0.6446    1.6007    5.3751 C   0  0  1  0  0  0  0  0  0  0  0  0
    2.0637    2.1285    5.0516 C   0  0  0  0  0  0  0  0  0  0  0  0
    3.1873    1.2201    5.6384 C   0  0  0  0  0  0  0  0  0  0  0  0
    3.8283    0.2617    4.5950 C   0  0  1  0  0  0  0  0  0  0  0  0
   -0.3468    2.1234    4.5274 O   0  0  0  0  0  0  0  0  0  0  0  0
    8.1428    1.5181    5.1462 H   0  0  0  0  0  0  0  0  0  0  0  0
    7.9392    0.1829    4.0149 H   0  0  0  0  0  0  0  0  0  0  0  0
    7.8022   -0.0817    5.7576 H   0  0  0  0  0  0  0  0  0  0  0  0
    4.5462   -2.9246    3.7895 H   0  0  0  0  0  0  0  0  0  0  0  0
    5.6977   -1.5811    7.9748 H   0  0  0  0  0  0  0  0  0  0  0  0
    2.4189   -4.3555    5.3492 H   0  0  0  0  0  0  0  0  0  0  0  0
    0.7477   -4.6054    4.8321 H   0  0  0  0  0  0  0  0  0  0  0  0
    1.0809   -3.9083    6.4201 H   0  0  0  0  0  0  0  0  0  0  0  0
    2.2755   -1.1140    0.9585 H   0  0  0  0  0  0  0  0  0  0  0  0
    3.7403   -0.4257    1.6230 H   0  0  0  0  0  0  0  0  0  0  0  0
    4.8860   -3.5814    0.3720 H   0  0  0  0  0  0  0  0  0  0  0  0
    5.7231   -0.8463   -1.8981 H   0  0  0  0  0  0  0  0  0  0  0  0
    6.0931   -3.8818   -1.3973 H   0  0  0  0  0  0  0  0  0  0  0  0
    7.2491   -2.6295   -0.9853 H   0  0  0  0  0  0  0  0  0  0  0  0
    6.8222   -2.9554   -2.7010 H   0  0  0  0  0  0  0  0  0  0  0  0
    2.7150   -3.3671   -2.8627 H   0  0  0  0  0  0  0  0  0  0  0  0
    4.1648   -4.1504   -2.3014 H   0  0  0  0  0  0  0  0  0  0  0  0
    2.2501   -2.3928   -0.7031 H   0  0  0  0  0  0  0  0  0  0  0  0
    2.7756   -5.0668   -0.9351 H   0  0  0  0  0  0  0  0  0  0  0  0
    0.7983    1.3112    1.7442 H   0  0  0  0  0  0  0  0  0  0  0  0
   -2.5561    2.5062    3.2095 H   0  0  0  0  0  0  0  0  0  0  0  0
   -2.1541    1.5150    1.8132 H   0  0  0  0  0  0  0  0  0  0  0  0
   -1.2019    2.9451    2.1836 H   0  0  0  0  0  0  0  0  0  0  0  0
   -0.6071   -2.6320    3.8230 H   0  0  0  0  0  0  0  0  0  0  0  0
   -0.1397   -0.9612    3.4340 H   0  0  0  0  0  0  0  0  0  0  0  0
    0.3626    1.9382    6.3777 H   0  0  0  0  0  0  0  0  0  0  0  0
    2.1915    2.2903    3.9841 H   0  0  0  0  0  0  0  0  0  0  0  0
    2.1274    3.1099    5.5102 H   0  0  0  0  0  0  0  0  0  0  0  0
    3.9773    1.8909    5.9768 H   0  0  0  0  0  0  0  0  0  0  0  0
    2.8789    0.6815    6.5379 H   0  0  0  0  0  0  0  0  0  0  0  0
    3.8909    0.7943    3.6406 H   0  0  0  0  0  0  0  0  0  0  0  0
  1  2  1  0
  1 40  1  0
  1 41  1  0
  1 42  1  0
  3  2  1  1
  3  7  1  0
  3 38  1  0
  3  4  1  0
  4  5  1  0
  5  6  1  0
  5 10  1  0
  5 43  1  6
  6  7  1  0
  7  8  2  0
  8  9  1  0
  8 44  1  0
 10 15  1  0
 10 38  1  0
 10 11  1  1
 11 12  1  0
 12 32  1  0
 12 13  1  1
 12 14  1  0
 13 45  1  0
 13 46  1  0
 13 47  1  0
 14 15  1  0
 15 16  1  6
 15 26  1  0
 16 17  1  0
 16 48  1  0
 16 49  1  0
 17 18  1  0
 18 24  1  0
 18 19  1  0
 18 50  1  1
 19 20  1  0
 20 21  1  0
 20 22  1  0
 20 51  1  6
 21 52  1  0
 21 53  1  0
 21 54  1  0
 22 23  1  0
 23 24  1  0
 23 55  1  0
 23 56  1  0
 24 25  1  0
 24 57  1  6
 25 58  1  0
 26 33  1  0
 26 27  2  0
 27 28  1  0
 27 59  1  0
 28 39  1  0
 28 29  1  6
 28 30  1  0
 29 60  1  0
 29 61  1  0
 29 62  1  0
 30 31  1  0
 31 32  1  0
 32 33  1  0
 32 63  1  6
 33 34  1  0
 33 64  1  6
 34 35  1  0
 35 36  1  0
 35 39  1  0
 35 65  1  1
 36 37  1  0
 36 66  1  0
 36 67  1  0
 37 38  1  0
 37 68  1  0
 37 69  1  0
 38 70  1  6
M  CHG  1   9  -1
M  END
>  <i_m_ct_stereo_status>  (134) 
1

>  <s_m_source_file>  (134) 
/var/tmp/pbs.5076253.sched01/tmp4uievzq0/12082cxahoa.sdf

>  <i_m_source_file_index>  (134) 
2

>  <i_lp_mmshare_version>  (134) 
48012

>  <i_f3d_flags>  (134) 
0

>  <s_epik_input>  (134) 
Tz1bQ0hdW0NASF0oTzEpW0NAQF0oT1tDSDNdKShPW0NAQEhdMVtDQF0yMzQpW0NAQEhdNFtDSDJdW0NIMl1bQ0BASF01T1tDQEhdNkM9N1tDQEBdMyhPW0NAXShPMikoW0NIM10pW0NIXTZPT1tDQEBdKE81KShbQ0hdNylbQ0gzXSlbQ0gyXU9bQ0BASF04T1tDQEBIXShbQ0gzXSlPW0NIMl1bQ0BIXThbT0hd

>  <s_epik_cmdline>  (134) 
J2VwaWtfcHl0aG9uJywgJy1waHQnLCAnMi4wJywgJy1waCcsICc3LjAnLCAnLXRuJywgJzgnLCAnLW1hJywgJzIwMCcsICctaW1hZScsICc8aW5maWxlLm1hZT4nLCAnLW9tYWUnLCAnPG91dGZpbGUubWFlPic=

>  <r_epik_Ionization_Penalty>  (134) 
2.32834

>  <r_epik_Ionization_Penalty_Charging>  (134) 
2.32833

>  <r_epik_Ionization_Penalty_Neutral>  (134) 
4.19025e-06

>  <r_epik_State_Penalty>  (134) 
2.48104

>  <r_epik_Charging_Adjusted_Penalty>  (134) 
4.80937

>  <i_epik_Tot_Q>  (134) 
-1

>  <i_epik_Tot_abs_Q>  (134) 
1

>  <s_epik_Chemistry_Notes>  (134) 
This compound contains an acetal/aminal-like group ( X-CH(R)-Y where X, Y are N, S, or O) that may be acid/base labile, releasing an aldehyde.

>  <s_lp_Force_Field>  (134) 
OPLS3e

>  <r_lp_Energy>  (134) 
307.666

>  <b_lp_Chiralities_Consistent>  (134) 
1

>  <s_lp_Variant>  (134) 
82:0-4

>  <s_i_glide_gridfile>  (134) 
pfpi4k_grid

>  <i_i_glide_lignum>  (134) 
2

>  <i_i_glide_rotatable_bonds>  (134) 
5

>  <r_i_docking_score>  (134) 
-2.52348

>  <r_i_glide_ligand_efficiency>  (134) 
-0.0647047

>  <r_i_glide_ligand_efficiency_sa>  (134) 
-0.219427

>  <r_i_glide_ligand_efficiency_ln>  (134) 
-0.541106

>  <r_i_glide_gscore>  (134) 
-2.52348

>  <r_i_glide_lipo>  (134) 
-0.140239

>  <r_i_glide_hbond>  (134) 
0

>  <r_i_glide_metal>  (134) 
-0

>  <r_i_glide_rewards>  (134) 
-0.115655

>  <r_i_glide_evdw>  (134) 
-26.812

>  <r_i_glide_ecoul>  (134) 
-6.49578

>  <r_i_glide_erotb>  (134) 
0.127157

>  <r_i_glide_esite>  (134) 
-0.0797753

>  <r_i_glide_emodel>  (134) 
-35.9326

>  <r_i_glide_energy>  (134) 
-33.3078

>  <r_i_glide_einternal>  (134) 
6.24014

>  <r_i_glide_intrahb_reward>  (134) 
-0

>  <i_i_glide_confnum>  (134) 
4

>  <i_i_glide_posenum>  (134) 
1

>  <r_i_glide_eff_state_penalty>  (134) 
0

>  <ligand_id>  (134) 
82

>  <original_smiles>  (134) 
COC12OC(OC1C=O)C13OC4(C)OC1(COC1OC(C)OCC1O)C1=CC5(C)OOC4C1OC(CCC23)O5

>  <smiles>  (134) 
[H]OC1([H])C([H])([H])OC([H])(C([H])([H])[H])OC1([H])OC([H])([H])C12OC3(C([H])([H])[H])OC14C1([H])OC(=C([H])[O-])C(OC([H])([H])[H])(O1)C4([H])C([H])([H])C([H])([H])C1([H])OC4([H])C2=C([H])C(C([H])([H])[H])(OOC43[H])O1

$$$$
82:3:2
     RDKit          3D

 70 77  0  0  1  0  0  0  0  0999 V2000
    5.1058   -4.0234   -1.9749 C   0  0  0  0  0  0  0  0  0  0  0  0
    4.3857   -3.2911   -0.9806 O   0  0  0  0  0  0  0  0  0  0  0  0
    4.6877   -3.6186    0.3538 C   0  0  1  0  0  0  0  0  0  0  0  0
    4.4410   -4.9209    0.7039 O   0  0  0  0  0  0  0  0  0  0  0  0
    4.9704   -4.8859    1.9858 C   0  0  1  0  0  0  0  0  0  0  0  0
    6.2576   -4.3794    1.7856 O   0  0  0  0  0  0  0  0  0  0  0  0
    6.1251   -3.4831    0.7686 C   0  0  0  0  0  0  0  0  0  0  0  0
    7.1159   -2.7006    0.2110 C   0  0  0  0  0  0  0  0  0  0  0  0
    7.1509   -1.8936   -0.7279 O   0  0  0  0  0  0  0  0  0  0  0  0
    4.1324   -3.7365    2.6619 C   0  0  2  0  0  0  0  0  0  0  0  0
    4.9724   -3.0943    3.6815 O   0  0  0  0  0  0  0  0  0  0  0  0
    4.5730   -3.6275    4.9459 C   0  0  2  0  0  0  0  0  0  0  0  0
    5.7908   -4.2262    5.6739 C   0  0  0  0  0  0  0  0  0  0  0  0
    3.6837   -4.6850    4.5822 O   0  0  0  0  0  0  0  0  0  0  0  0
    2.8736   -4.2129    3.4737 C   0  0  2  0  0  0  0  0  0  0  0  0
    1.9930   -5.3413    2.8992 C   0  0  0  0  0  0  0  0  0  0  0  0
    0.8789   -5.5896    3.7631 O   0  0  0  0  0  0  0  0  0  0  0  0
    0.3959   -6.8949    3.6861 C   0  0  2  0  0  0  0  0  0  0  0  0
   -0.1954   -7.1232    2.4360 O   0  0  0  0  0  0  0  0  0  0  0  0
   -0.7642   -8.3986    2.3082 C   0  0  1  0  0  0  0  0  0  0  0  0
    0.3071   -9.5179    2.3993 C   0  0  0  0  0  0  0  0  0  0  0  0
   -1.7778   -8.6063    3.2406 O   0  0  0  0  0  0  0  0  0  0  0  0
   -1.3363   -8.4888    4.5864 C   0  0  0  0  0  0  0  0  0  0  0  0
   -0.6696   -7.1078    4.7908 C   0  0  1  0  0  0  0  0  0  0  0  0
   -0.0779   -7.0925    6.0779 O   0  0  0  0  0  0  0  0  0  0  0  0
    2.0957   -2.9583    3.9196 C   0  0  0  0  0  0  0  0  0  0  0  0
    0.9186   -2.2565    3.9103 C   0  0  0  0  0  0  0  0  0  0  0  0
    0.9578   -0.8764    4.7698 C   0  0  1  0  0  0  0  0  0  0  0  0
   -0.4757   -0.4139    5.0996 C   0  0  0  0  0  0  0  0  0  0  0  0
    1.6968   -0.8619    6.1396 O   0  0  0  0  0  0  0  0  0  0  0  0
    3.3592   -1.2521    6.2114 O   0  0  0  0  0  0  0  0  0  0  0  0
    3.6675   -2.7153    5.9423 C   0  0  1  0  0  0  0  0  0  0  0  0
    2.9981   -2.2693    4.7367 C   0  0  1  0  0  0  0  0  0  0  0  0
    3.5149   -1.0461    4.0600 O   0  0  0  0  0  0  0  0  0  0  0  0
    2.7371   -0.1456    3.3470 C   0  0  1  0  0  0  0  0  0  0  0  0
    2.6623   -0.5995    1.8719 C   0  0  0  0  0  0  0  0  0  0  0  0
    3.9443   -1.3566    1.4074 C   0  0  0  0  0  0  0  0  0  0  0  0
    3.7844   -2.9023    1.3757 C   0  0  1  0  0  0  0  0  0  0  0  0
    1.4798    0.1254    3.9107 O   0  0  0  0  0  0  0  0  0  0  0  0
    4.9970   -3.5558   -2.9526 H   0  0  0  0  0  0  0  0  0  0  0  0
    4.7750   -5.0539   -2.0382 H   0  0  0  0  0  0  0  0  0  0  0  0
    6.1802   -4.0772   -1.8070 H   0  0  0  0  0  0  0  0  0  0  0  0
    4.9725   -5.8622    2.4831 H   0  0  0  0  0  0  0  0  0  0  0  0
    8.0461   -2.9540    0.7895 H   0  0  0  0  0  0  0  0  0  0  0  0
    6.2948   -4.9645    5.0528 H   0  0  0  0  0  0  0  0  0  0  0  0
    5.4776   -4.7143    6.5982 H   0  0  0  0  0  0  0  0  0  0  0  0
    6.5025   -3.4432    5.9327 H   0  0  0  0  0  0  0  0  0  0  0  0
    1.5987   -5.0714    1.9233 H   0  0  0  0  0  0  0  0  0  0  0  0
    2.6061   -6.2333    2.7533 H   0  0  0  0  0  0  0  0  0  0  0  0
    1.2489   -7.5539    3.8457 H   0  0  0  0  0  0  0  0  0  0  0  0
   -1.2411   -8.4303    1.3231 H   0  0  0  0  0  0  0  0  0  0  0  0
    0.8191   -9.5806    3.3565 H   0  0  0  0  0  0  0  0  0  0  0  0
    1.0828   -9.3291    1.6678 H   0  0  0  0  0  0  0  0  0  0  0  0
   -0.1645  -10.4857    2.2246 H   0  0  0  0  0  0  0  0  0  0  0  0
   -2.1851   -8.6438    5.2478 H   0  0  0  0  0  0  0  0  0  0  0  0
   -0.6705   -9.3085    4.8514 H   0  0  0  0  0  0  0  0  0  0  0  0
   -1.4279   -6.3284    4.7068 H   0  0  0  0  0  0  0  0  0  0  0  0
    0.5572   -7.7922    6.1392 H   0  0  0  0  0  0  0  0  0  0  0  0
    0.0236   -2.5677    3.4013 H   0  0  0  0  0  0  0  0  0  0  0  0
   -0.4735    0.5694    5.5714 H   0  0  0  0  0  0  0  0  0  0  0  0
   -0.9723   -1.0952    5.7879 H   0  0  0  0  0  0  0  0  0  0  0  0
   -1.1010   -0.3293    4.2101 H   0  0  0  0  0  0  0  0  0  0  0  0
    3.2145   -3.3796    6.7055 H   0  0  0  0  0  0  0  0  0  0  0  0
    2.2237   -2.6940    5.4168 H   0  0  0  0  0  0  0  0  0  0  0  0
    3.2799    0.8003    3.4011 H   0  0  0  0  0  0  0  0  0  0  0  0
    1.7607   -1.1748    1.6806 H   0  0  0  0  0  0  0  0  0  0  0  0
    2.5541    0.3098    1.2880 H   0  0  0  0  0  0  0  0  0  0  0  0
    4.1207   -1.0411    0.3791 H   0  0  0  0  0  0  0  0  0  0  0  0
    4.8429   -1.0477    1.9475 H   0  0  0  0  0  0  0  0  0  0  0  0
    2.7688   -3.1374    1.0569 H   0  0  0  0  0  0  0  0  0  0  0  0
  1  2  1  0
  1 40  1  0
  1 41  1  0
  1 42  1  0
  3  2  1  6
  3  7  1  0
  3 38  1  0
  3  4  1  0
  4  5  1  0
  5  6  1  0
  5 10  1  0
  5 43  1  1
  6  7  1  0
  7  8  2  0
  8  9  1  0
  8 44  1  0
 10 15  1  0
 10 38  1  0
 10 11  1  1
 11 12  1  0
 12 32  1  0
 12 13  1  1
 12 14  1  0
 13 45  1  0
 13 46  1  0
 13 47  1  0
 14 15  1  0
 15 16  1  6
 15 26  1  0
 16 17  1  0
 16 48  1  0
 16 49  1  0
 17 18  1  0
 18 24  1  0
 18 19  1  0
 18 50  1  1
 19 20  1  0
 20 21  1  0
 20 22  1  0
 20 51  1  6
 21 52  1  0
 21 53  1  0
 21 54  1  0
 22 23  1  0
 23 24  1  0
 23 55  1  0
 23 56  1  0
 24 25  1  0
 24 57  1  1
 25 58  1  0
 26 33  1  0
 26 27  2  0
 27 28  1  0
 27 59  1  0
 28 39  1  0
 28 29  1  1
 28 30  1  0
 29 60  1  0
 29 61  1  0
 29 62  1  0
 30 31  1  0
 31 32  1  0
 32 33  1  0
 32 63  1  1
 33 34  1  0
 33 64  1  1
 34 35  1  0
 35 36  1  0
 35 39  1  0
 35 65  1  6
 36 37  1  0
 36 66  1  0
 36 67  1  0
 37 38  1  0
 37 68  1  0
 37 69  1  0
 38 70  1  6
M  CHG  1   9  -1
M  END
>  <i_m_ct_stereo_status>  (135) 
1

>  <s_m_source_file>  (135) 
/var/tmp/pbs.5076253.sched01/tmp4uievzq0/12082cxahoa.sdf

>  <i_m_source_file_index>  (135) 
2

>  <i_lp_mmshare_version>  (135) 
48012

>  <i_f3d_flags>  (135) 
0

>  <s_epik_input>  (135) 
Tz1bQ0hdW0NASF0oTzEpW0NAQF0oT1tDSDNdKShPW0NAQEhdMVtDQF0yMzQpW0NAQEhdNFtDSDJdW0NIMl1bQ0BASF01T1tDQEhdNkM9N1tDQEBdMyhPW0NAXShPMikoW0NIM10pW0NIXTZPT1tDQEBdKE81KShbQ0hdNylbQ0gzXSlbQ0gyXU9bQ0BASF04T1tDQEBIXShbQ0gzXSlPW0NIMl1bQ0BIXThbT0hd

>  <s_epik_cmdline>  (135) 
J2VwaWtfcHl0aG9uJywgJy1waHQnLCAnMi4wJywgJy1waCcsICc3LjAnLCAnLXRuJywgJzgnLCAnLW1hJywgJzIwMCcsICctaW1hZScsICc8aW5maWxlLm1hZT4nLCAnLW9tYWUnLCAnPG91dGZpbGUubWFlPic=

>  <r_epik_Ionization_Penalty>  (135) 
2.32834

>  <r_epik_Ionization_Penalty_Charging>  (135) 
2.32833

>  <r_epik_Ionization_Penalty_Neutral>  (135) 
4.19025e-06

>  <r_epik_State_Penalty>  (135) 
2.48104

>  <r_epik_Charging_Adjusted_Penalty>  (135) 
4.80937

>  <i_epik_Tot_Q>  (135) 
-1

>  <i_epik_Tot_abs_Q>  (135) 
1

>  <s_epik_Chemistry_Notes>  (135) 
This compound contains an acetal/aminal-like group ( X-CH(R)-Y where X, Y are N, S, or O) that may be acid/base labile, releasing an aldehyde.

>  <s_lp_Force_Field>  (135) 
OPLS3e

>  <r_lp_Energy>  (135) 
307.666

>  <b_lp_Chiralities_Consistent>  (135) 
1

>  <s_lp_Variant>  (135) 
82:0-4

>  <s_i_glide_gridfile>  (135) 
pfpi4k_grid

>  <i_i_glide_lignum>  (135) 
2

>  <i_i_glide_rotatable_bonds>  (135) 
5

>  <r_i_docking_score>  (135) 
-2.30829

>  <r_i_glide_ligand_efficiency>  (135) 
-0.0591868

>  <r_i_glide_ligand_efficiency_sa>  (135) 
-0.200715

>  <r_i_glide_ligand_efficiency_ln>  (135) 
-0.494962

>  <r_i_glide_gscore>  (135) 
-2.30829

>  <r_i_glide_lipo>  (135) 
-0.224984

>  <r_i_glide_hbond>  (135) 
-0.246241

>  <r_i_glide_metal>  (135) 
-0

>  <r_i_glide_rewards>  (135) 
-0.0849963

>  <r_i_glide_evdw>  (135) 
-25.0889

>  <r_i_glide_ecoul>  (135) 
-3.57491

>  <r_i_glide_erotb>  (135) 
0.127157

>  <r_i_glide_esite>  (135) 
-0.0885403

>  <r_i_glide_emodel>  (135) 
-33.2516

>  <r_i_glide_energy>  (135) 
-28.6638

>  <r_i_glide_einternal>  (135) 
1.40323

>  <r_i_glide_intrahb_reward>  (135) 
-0

>  <i_i_glide_confnum>  (135) 
1

>  <i_i_glide_posenum>  (135) 
4

>  <r_i_glide_eff_state_penalty>  (135) 
0

>  <ligand_id>  (135) 
82

>  <original_smiles>  (135) 
COC12OC(OC1C=O)C13OC4(C)OC1(COC1OC(C)OCC1O)C1=CC5(C)OOC4C1OC(CCC23)O5

>  <smiles>  (135) 
[H]OC1([H])C([H])([H])OC([H])(C([H])([H])[H])OC1([H])OC([H])([H])C12OC3(C([H])([H])[H])OC14C1([H])OC(=C([H])[O-])C(OC([H])([H])[H])(O1)C4([H])C([H])([H])C([H])([H])C1([H])OC4([H])C2=C([H])C(C([H])([H])[H])(OOC43[H])O1

$$$$
83:0:0
     RDKit          3D

 79 85  0  0  1  0  0  0  0  0999 V2000
    1.7598   -0.0148    9.4469 C   0  0  0  0  0  0  0  0  0  0  0  0
    1.1278   -0.0488    8.1684 O   0  0  0  0  0  0  0  0  0  0  0  0
    1.0166    1.2205    7.5251 C   0  0  2  0  0  0  0  0  0  0  0  0
   -0.2849    1.3007    6.6968 C   0  0  1  0  0  0  0  0  0  0  0  0
   -0.7341    2.7590    6.6700 C   0  0  1  0  0  0  0  0  0  0  0  0
   -0.6028    3.3790    7.9236 O   0  0  0  0  0  0  0  0  0  0  0  0
   -1.5532    3.0161    8.9119 C   0  0  0  0  0  0  0  0  0  0  0  0
    0.1398    3.4081    5.5997 C   0  0  2  0  0  0  0  0  0  0  0  0
    1.6690    2.9733    5.8937 C   0  0  0  0  0  0  0  0  0  0  0  0
    2.6610    3.9170    5.7829 C   0  0  0  0  0  0  0  0  0  0  0  0
    2.4033    5.3708    5.4788 C   0  0  1  0  0  0  0  0  0  0  0  0
    3.5632    6.2027    5.6299 O   0  0  0  0  0  0  0  0  0  0  0  0
    4.1863    6.2612    6.9108 C   0  0  0  0  0  0  0  0  0  0  0  0
    1.8774    5.5892    4.0251 C   0  0  1  0  0  0  0  0  0  0  0  0
    2.0093    4.4381    3.2098 O   0  0  0  0  0  0  0  0  0  0  0  0
    3.3360    4.2266    2.7572 C   0  0  0  0  0  0  0  0  0  0  0  0
    0.4418    5.8917    4.4249 C   0  0  2  0  0  0  0  0  0  0  0  0
   -0.3999    6.1408    3.2975 O   0  0  0  0  0  0  0  0  0  0  0  0
    0.5720    7.0365    5.4938 C   0  0  1  0  0  0  0  0  0  0  0  0
   -0.5917    7.6168    6.0829 O   0  0  0  0  0  0  0  0  0  0  0  0
   -0.2961    8.7000    6.9868 C   0  0  0  0  0  0  0  0  0  0  0  0
    1.1502    5.8153    6.2251 C   0  0  2  0  0  0  0  0  0  0  0  0
    1.2683    5.8235    7.6726 O   0  0  0  0  0  0  0  0  0  0  0  0
    0.2178    5.9366    8.5361 C   0  0  0  0  0  0  0  0  0  0  0  0
    0.7052    5.7735    9.9791 C   0  0  0  0  0  0  0  0  0  0  0  0
   -0.9609    6.0947    8.2540 O   0  0  0  0  0  0  0  0  0  0  0  0
   -0.0093    4.9787    5.6089 C   0  0  2  0  0  0  0  0  0  0  0  0
    2.0700    1.5403    6.4810 C   0  0  1  0  0  0  0  0  0  0  0  0
    3.3280    1.6108    7.1452 O   0  0  0  0  0  0  0  0  0  0  0  0
    2.1133    0.3033    5.4617 C   0  0  1  0  0  0  0  0  0  0  0  0
    1.3324   -0.9096    5.7622 O   0  0  0  0  0  0  0  0  0  0  0  0
   -0.0466   -0.7930    5.3458 C   0  0  1  0  0  0  0  0  0  0  0  0
   -0.9465   -1.2860    6.2962 O   0  0  0  0  0  0  0  0  0  0  0  0
   -0.7976   -2.6818    6.5069 C   0  0  0  0  0  0  0  0  0  0  0  0
   -0.0901    0.7421    5.1896 C   0  0  1  0  0  0  0  0  0  0  0  0
   -0.9626    1.4171    4.3156 O   0  0  0  0  0  0  0  0  0  0  0  0
   -0.6421    2.8313    4.2719 C   0  0  1  0  0  0  0  0  0  0  0  0
   -1.8320    3.5503    4.1740 O   0  0  0  0  0  0  0  0  0  0  0  0
   -2.4895    3.4001    2.9330 C   0  0  0  0  0  0  0  0  0  0  0  0
    1.2484    0.6778    4.3362 C   0  0  1  0  0  0  0  0  0  0  0  0
    1.8414    1.6545    3.4970 O   0  0  0  0  0  0  0  0  0  0  0  0
    1.9162   -1.0215    9.8280 H   0  0  0  0  0  0  0  0  0  0  0  0
    1.1436    0.5293   10.1693 H   0  0  0  0  0  0  0  0  0  0  0  0
    2.7361    0.4753    9.3950 H   0  0  0  0  0  0  0  0  0  0  0  0
    1.1068    1.9609    8.3124 H   0  0  0  0  0  0  0  0  0  0  0  0
   -1.0656    0.7779    7.2504 H   0  0  0  0  0  0  0  0  0  0  0  0
   -1.7901    2.7927    6.4054 H   0  0  0  0  0  0  0  0  0  0  0  0
   -1.3542    3.6320    9.7816 H   0  0  0  0  0  0  0  0  0  0  0  0
   -1.5039    1.9734    9.2389 H   0  0  0  0  0  0  0  0  0  0  0  0
   -2.5615    3.2529    8.5776 H   0  0  0  0  0  0  0  0  0  0  0  0
    3.6801    3.6694    5.9863 H   0  0  0  0  0  0  0  0  0  0  0  0
    5.0490    6.9249    6.8511 H   0  0  0  0  0  0  0  0  0  0  0  0
    4.5442    5.2846    7.2370 H   0  0  0  0  0  0  0  0  0  0  0  0
    3.5169    6.6727    7.6655 H   0  0  0  0  0  0  0  0  0  0  0  0
    2.3389    6.4450    3.5311 H   0  0  0  0  0  0  0  0  0  0  0  0
    3.3500    3.3323    2.1333 H   0  0  0  0  0  0  0  0  0  0  0  0
    3.9862    4.0473    3.6116 H   0  0  0  0  0  0  0  0  0  0  0  0
    3.7212    5.0649    2.1799 H   0  0  0  0  0  0  0  0  0  0  0  0
   -0.0634    6.9152    2.8493 H   0  0  0  0  0  0  0  0  0  0  0  0
    1.3303    7.7654    5.1835 H   0  0  0  0  0  0  0  0  0  0  0  0
   -1.2407    9.0204    7.4308 H   0  0  0  0  0  0  0  0  0  0  0  0
    0.1099    9.5768    6.4920 H   0  0  0  0  0  0  0  0  0  0  0  0
    0.3510    8.3537    7.7925 H   0  0  0  0  0  0  0  0  0  0  0  0
    1.2621    4.8385   10.1273 H   0  0  0  0  0  0  0  0  0  0  0  0
   -0.1694    5.7387   10.6275 H   0  0  0  0  0  0  0  0  0  0  0  0
    1.3280    6.6226   10.2757 H   0  0  0  0  0  0  0  0  0  0  0  0
   -1.0207    5.2760    5.9013 H   0  0  0  0  0  0  0  0  0  0  0  0
    4.0007    1.5747    6.4856 H   0  0  0  0  0  0  0  0  0  0  0  0
    3.1179    0.0447    5.1193 H   0  0  0  0  0  0  0  0  0  0  0  0
   -0.2462   -1.3158    4.3986 H   0  0  0  0  0  0  0  0  0  0  0  0
   -1.5211   -3.0479    7.2383 H   0  0  0  0  0  0  0  0  0  0  0  0
    0.1963   -2.9181    6.8843 H   0  0  0  0  0  0  0  0  0  0  0  0
   -0.9594   -3.2287    5.5802 H   0  0  0  0  0  0  0  0  0  0  0  0
   -0.0814    3.0678    3.3729 H   0  0  0  0  0  0  0  0  0  0  0  0
   -3.3816    4.0233    2.9132 H   0  0  0  0  0  0  0  0  0  0  0  0
   -2.7972    2.3706    2.7762 H   0  0  0  0  0  0  0  0  0  0  0  0
   -1.8440    3.7125    2.1099 H   0  0  0  0  0  0  0  0  0  0  0  0
    1.2226   -0.1068    3.5711 H   0  0  0  0  0  0  0  0  0  0  0  0
    1.8979    2.4964    3.9185 H   0  0  0  0  0  0  0  0  0  0  0  0
  1  2  1  0
  1 42  1  0
  1 43  1  0
  1 44  1  0
  2  3  1  0
  3 28  1  0
  3  4  1  0
  3 45  1  1
  4 35  1  0
  4  5  1  0
  4 46  1  1
  5  6  1  0
  5  8  1  0
  5 47  1  6
  6  7  1  0
  7 48  1  0
  7 49  1  0
  7 50  1  0
  8 27  1  0
  8 37  1  0
  8  9  1  6
  9 10  2  0
  9 28  1  0
 10 11  1  0
 10 51  1  0
 11 22  1  0
 11 12  1  1
 11 14  1  0
 12 13  1  0
 13 52  1  0
 13 53  1  0
 13 54  1  0
 14 15  1  0
 14 17  1  0
 14 55  1  6
 15 16  1  0
 16 56  1  0
 16 57  1  0
 16 58  1  0
 17 27  1  0
 17 18  1  6
 17 19  1  0
 18 59  1  0
 19 20  1  0
 19 22  1  0
 19 60  1  6
 20 21  1  0
 21 61  1  0
 21 62  1  0
 21 63  1  0
 22 23  1  1
 22 27  1  0
 23 24  1  0
 24 25  1  0
 24 26  2  0
 25 64  1  0
 25 65  1  0
 25 66  1  0
 27 67  1  1
 28 29  1  1
 28 30  1  0
 29 68  1  0
 30 40  1  0
 30 31  1  0
 30 69  1  6
 31 32  1  0
 32 33  1  0
 32 35  1  0
 32 70  1  6
 33 34  1  0
 34 71  1  0
 34 72  1  0
 34 73  1  0
 35 36  1  6
 35 40  1  0
 36 37  1  0
 37 38  1  0
 37 74  1  6
 38 39  1  0
 39 75  1  0
 39 76  1  0
 39 77  1  0
 40 41  1  0
 40 78  1  6
 41 79  1  0
M  END
>  <i_m_ct_stereo_status>  (136) 
1

>  <s_m_source_file>  (136) 
/var/tmp/pbs.5076253.sched01/tmp4uievzq0/12082cxahoa.sdf

>  <i_m_source_file_index>  (136) 
3

>  <i_lp_mmshare_version>  (136) 
48012

>  <i_f3d_flags>  (136) 
0

>  <s_epik_input>  (136) 
W0NIM11PW0NAQEhdMVtDQEBIXShbQ0BIXTJPW0NIM10pW0NAXShbQ0BIXTNbT0hdKShPW0NASF00T1tDSDNdKVtDQEhdKE9bQ0gzXSlPW0NAQEhdM1tDQEBdMShbT0hdKUMoW0NAXTI0NSk9W0NIXVtDQF02KE9bQ0gzXSlbQ0BdNyhPQyg9TylbQ0gzXSlbQ0BIXTVbQ0BdKFtPSF0pKFtDQEBIXTZPW0NIM10pW0NASF03T1tDSDNd

>  <s_epik_cmdline>  (136) 
J2VwaWtfcHl0aG9uJywgJy1waHQnLCAnMi4wJywgJy1waCcsICc3LjAnLCAnLXRuJywgJzgnLCAnLW1hJywgJzIwMCcsICctaW1hZScsICc8aW5maWxlLm1hZT4nLCAnLW9tYWUnLCAnPG91dGZpbGUubWFlPic=

>  <r_lp_tautomer_probability>  (136) 
1

>  <r_epik_Ionization_Penalty>  (136) 
0.000152205

>  <r_epik_Ionization_Penalty_Charging>  (136) 
0

>  <r_epik_Ionization_Penalty_Neutral>  (136) 
0.000152205

>  <r_epik_State_Penalty>  (136) 
-0

>  <r_epik_Charging_Adjusted_Penalty>  (136) 
0

>  <i_epik_Tot_Q>  (136) 
0

>  <i_epik_Tot_abs_Q>  (136) 
0

>  <s_epik_Chemistry_Notes>  (136) 
This compound has an ester and may undergo hydrolysis at high or low pH. This compound contains an acetal/aminal-like group ( X-CH(R)-Y where X, Y are N, S, or O) that may be acid/base labile, releasing an aldehyde.

>  <s_lp_Force_Field>  (136) 
OPLS3e

>  <r_lp_Energy>  (136) 
159.472

>  <b_lp_Chiralities_Consistent>  (136) 
1

>  <s_lp_Variant>  (136) 
83:0-1

>  <s_i_glide_gridfile>  (136) 
pfpi4k_grid

>  <i_i_glide_lignum>  (136) 
3

>  <i_i_glide_rotatable_bonds>  (136) 
12

>  <r_i_docking_score>  (136) 
-3.21285

>  <r_i_glide_ligand_efficiency>  (136) 
-0.0783623

>  <r_i_glide_ligand_efficiency_sa>  (136) 
-0.27021

>  <r_i_glide_ligand_efficiency_ln>  (136) 
-0.681618

>  <r_i_glide_gscore>  (136) 
-3.21285

>  <r_i_glide_lipo>  (136) 
-0.0630395

>  <r_i_glide_hbond>  (136) 
-0.145747

>  <r_i_glide_metal>  (136) 
-0

>  <r_i_glide_rewards>  (136) 
-0.5

>  <r_i_glide_evdw>  (136) 
-17.775

>  <r_i_glide_ecoul>  (136) 
-10.748

>  <r_i_glide_erotb>  (136) 
0.0425836

>  <r_i_glide_esite>  (136) 
-0.0457024

>  <r_i_glide_emodel>  (136) 
-34.2729

>  <r_i_glide_energy>  (136) 
-28.523

>  <r_i_glide_einternal>  (136) 
10.0988

>  <r_i_glide_intrahb_reward>  (136) 
-0.5

>  <i_i_glide_confnum>  (136) 
2

>  <i_i_glide_posenum>  (136) 
19

>  <r_i_glide_eff_state_penalty>  (136) 
0

>  <ligand_id>  (136) 
83

>  <original_smiles>  (136) 
COC1C2C(OC)C34C(=CC5(OC)C(OC)C6(O)C(OC)C5(OC(C)=O)C63)C1(O)C1OC(OC)C2(OC4OC)C1O

>  <smiles>  (136) 
[H]OC1([H])C2([H])OC([H])(OC([H])([H])[H])C13OC([H])(OC([H])([H])[H])C14C(=C([H])C5(OC([H])([H])[H])C([H])(OC([H])([H])[H])C6(O[H])C([H])(OC([H])([H])[H])C5(OC(=O)C([H])([H])[H])C61[H])C2(O[H])C([H])(OC([H])([H])[H])C3([H])C4([H])OC([H])([H])[H]

$$$$
83:0:1
     RDKit          3D

 79 85  0  0  1  0  0  0  0  0999 V2000
    8.5933   -3.7467   -0.6721 C   0  0  0  0  0  0  0  0  0  0  0  0
    7.2464   -3.3346   -0.8805 O   0  0  0  0  0  0  0  0  0  0  0  0
    6.4132   -3.4994    0.2575 C   0  0  2  0  0  0  0  0  0  0  0  0
    5.1508   -4.2960   -0.0908 C   0  0  1  0  0  0  0  0  0  0  0  0
    4.7137   -5.0233    1.1826 C   0  0  1  0  0  0  0  0  0  0  0  0
    5.8082   -5.5917    1.8808 O   0  0  0  0  0  0  0  0  0  0  0  0
    6.1650   -6.9016    1.4528 C   0  0  0  0  0  0  0  0  0  0  0  0
    3.9584   -3.9694    1.9787 C   0  0  2  0  0  0  0  0  0  0  0  0
    4.9029   -2.6518    2.0518 C   0  0  0  0  0  0  0  0  0  0  0  0
    5.0089   -1.9816    3.2324 C   0  0  0  0  0  0  0  0  0  0  0  0
    4.3459   -2.4349    4.5225 C   0  0  1  0  0  0  0  0  0  0  0  0
    4.8828   -1.8026    5.6905 O   0  0  0  0  0  0  0  0  0  0  0  0
    4.7102   -0.3872    5.7852 C   0  0  0  0  0  0  0  0  0  0  0  0
    2.7851   -2.3527    4.4979 C   0  0  1  0  0  0  0  0  0  0  0  0
    2.2976   -1.5728    3.4112 O   0  0  0  0  0  0  0  0  0  0  0  0
    0.9172   -1.2286    3.4637 C   0  0  0  0  0  0  0  0  0  0  0  0
    2.5699   -3.8550    4.3771 C   0  0  2  0  0  0  0  0  0  0  0  0
    1.2030   -4.2062    4.3587 O   0  0  0  0  0  0  0  0  0  0  0  0
    3.3838   -4.4876    5.5451 C   0  0  1  0  0  0  0  0  0  0  0  0
    3.3169   -5.8882    5.7776 O   0  0  0  0  0  0  0  0  0  0  0  0
    4.0438   -6.3169    6.9424 C   0  0  0  0  0  0  0  0  0  0  0  0
    4.4740   -3.9657    4.6021 C   0  0  2  0  0  0  0  0  0  0  0  0
    5.8201   -4.4661    4.7962 O   0  0  0  0  0  0  0  0  0  0  0  0
    6.1713   -5.7840    4.6140 C   0  0  0  0  0  0  0  0  0  0  0  0
    7.6685   -6.0204    4.8133 C   0  0  0  0  0  0  0  0  0  0  0  0
    5.4428   -6.7099    4.3339 O   0  0  0  0  0  0  0  0  0  0  0  0
    3.6246   -4.5048    3.4239 C   0  0  2  0  0  0  0  0  0  0  0  0
    5.8365   -2.2141    0.8144 C   0  0  1  0  0  0  0  0  0  0  0  0
    6.9481   -1.4547    1.2538 O   0  0  0  0  0  0  0  0  0  0  0  0
    5.1571   -1.4175   -0.3971 C   0  0  1  0  0  0  0  0  0  0  0  0
    5.3152   -1.9010   -1.7811 O   0  0  0  0  0  0  0  0  0  0  0  0
    4.3739   -2.9542   -2.0850 C   0  0  1  0  0  0  0  0  0  0  0  0
    4.9697   -4.0121   -2.7653 O   0  0  0  0  0  0  0  0  0  0  0  0
    4.5074   -4.1831   -4.0949 C   0  0  0  0  0  0  0  0  0  0  0  0
    3.9676   -3.3302   -0.6457 C   0  0  1  0  0  0  0  0  0  0  0  0
    2.7062   -3.8567   -0.3199 O   0  0  0  0  0  0  0  0  0  0  0  0
    2.5679   -3.9447    1.1164 C   0  0  1  0  0  0  0  0  0  0  0  0
    1.8176   -5.0829    1.4679 O   0  0  0  0  0  0  0  0  0  0  0  0
    1.5127   -6.0306    0.4454 C   0  0  0  0  0  0  0  0  0  0  0  0
    3.7433   -1.7836   -0.3596 C   0  0  1  0  0  0  0  0  0  0  0  0
    3.0389   -1.1656    0.6914 O   0  0  0  0  0  0  0  0  0  0  0  0
    9.1659   -3.5281   -1.5691 H   0  0  0  0  0  0  0  0  0  0  0  0
    8.6619   -4.8218   -0.4799 H   0  0  0  0  0  0  0  0  0  0  0  0
    9.0411   -3.2124    0.1708 H   0  0  0  0  0  0  0  0  0  0  0  0
    7.0308   -3.9341    1.0321 H   0  0  0  0  0  0  0  0  0  0  0  0
    5.3978   -5.0905   -0.7868 H   0  0  0  0  0  0  0  0  0  0  0  0
    4.0660   -5.8443    0.9598 H   0  0  0  0  0  0  0  0  0  0  0  0
    6.9435   -7.2952    2.1087 H   0  0  0  0  0  0  0  0  0  0  0  0
    6.5878   -6.8880    0.4757 H   0  0  0  0  0  0  0  0  0  0  0  0
    5.3152   -7.5973    1.4909 H   0  0  0  0  0  0  0  0  0  0  0  0
    5.6738   -1.1411    3.3271 H   0  0  0  0  0  0  0  0  0  0  0  0
    5.0321   -0.0503    6.7716 H   0  0  0  0  0  0  0  0  0  0  0  0
    3.6730   -0.0736    5.6634 H   0  0  0  0  0  0  0  0  0  0  0  0
    5.3162    0.1458    5.0535 H   0  0  0  0  0  0  0  0  0  0  0  0
    2.3844   -1.9738    5.4429 H   0  0  0  0  0  0  0  0  0  0  0  0
    0.6780   -0.5516    2.6416 H   0  0  0  0  0  0  0  0  0  0  0  0
    0.6669   -0.7251    4.3973 H   0  0  0  0  0  0  0  0  0  0  0  0
    0.2695   -2.0971    3.3505 H   0  0  0  0  0  0  0  0  0  0  0  0
    0.8174   -3.7043    3.6580 H   0  0  0  0  0  0  0  0  0  0  0  0
    3.2564   -3.9063    6.4582 H   0  0  0  0  0  0  0  0  0  0  0  0
    4.0428   -7.4098    6.9930 H   0  0  0  0  0  0  0  0  0  0  0  0
    3.6309   -5.9322    7.8736 H   0  0  0  0  0  0  0  0  0  0  0  0
    5.0828   -6.0104    6.9031 H   0  0  0  0  0  0  0  0  0  0  0  0
    8.2860   -5.4122    4.1497 H   0  0  0  0  0  0  0  0  0  0  0  0
    7.8651   -7.0649    4.5604 H   0  0  0  0  0  0  0  0  0  0  0  0
    7.9258   -5.8589    5.8585 H   0  0  0  0  0  0  0  0  0  0  0  0
    3.4399   -5.5894    3.4050 H   0  0  0  0  0  0  0  0  0  0  0  0
    6.6488   -0.5732    1.4517 H   0  0  0  0  0  0  0  0  0  0  0  0
    5.2932   -0.3360   -0.3332 H   0  0  0  0  0  0  0  0  0  0  0  0
    3.5225   -2.5704   -2.6705 H   0  0  0  0  0  0  0  0  0  0  0  0
    4.9976   -5.0335   -4.5682 H   0  0  0  0  0  0  0  0  0  0  0  0
    4.6950   -3.2949   -4.6906 H   0  0  0  0  0  0  0  0  0  0  0  0
    3.4313   -4.3598   -4.1134 H   0  0  0  0  0  0  0  0  0  0  0  0
    1.9412   -3.1358    1.4786 H   0  0  0  0  0  0  0  0  0  0  0  0
    0.9358   -6.8536    0.8625 H   0  0  0  0  0  0  0  0  0  0  0  0
    2.4242   -6.4505    0.0457 H   0  0  0  0  0  0  0  0  0  0  0  0
    0.9300   -5.6002   -0.3775 H   0  0  0  0  0  0  0  0  0  0  0  0
    3.1761   -1.2554   -1.1389 H   0  0  0  0  0  0  0  0  0  0  0  0
    2.1337   -1.0597    0.3795 H   0  0  0  0  0  0  0  0  0  0  0  0
  1  2  1  0
  1 42  1  0
  1 43  1  0
  1 44  1  0
  2  3  1  0
  3 28  1  0
  3  4  1  0
  3 45  1  1
  4 35  1  0
  4  5  1  0
  4 46  1  6
  5  6  1  0
  5  8  1  0
  5 47  1  6
  6  7  1  0
  7 48  1  0
  7 49  1  0
  7 50  1  0
  8 27  1  0
  8 37  1  0
  8  9  1  1
  9 10  2  0
  9 28  1  0
 10 11  1  0
 10 51  1  0
 11 22  1  0
 11 12  1  1
 11 14  1  0
 12 13  1  0
 13 52  1  0
 13 53  1  0
 13 54  1  0
 14 15  1  0
 14 17  1  0
 14 55  1  1
 15 16  1  0
 16 56  1  0
 16 57  1  0
 16 58  1  0
 17 27  1  0
 17 18  1  6
 17 19  1  0
 18 59  1  0
 19 20  1  0
 19 22  1  0
 19 60  1  1
 20 21  1  0
 21 61  1  0
 21 62  1  0
 21 63  1  0
 22 23  1  1
 22 27  1  0
 23 24  1  0
 24 25  1  0
 24 26  2  0
 25 64  1  0
 25 65  1  0
 25 66  1  0
 27 67  1  6
 28 29  1  1
 28 30  1  0
 29 68  1  0
 30 40  1  0
 30 31  1  0
 30 69  1  6
 31 32  1  0
 32 33  1  0
 32 35  1  0
 32 70  1  6
 33 34  1  0
 34 71  1  0
 34 72  1  0
 34 73  1  0
 35 36  1  6
 35 40  1  0
 36 37  1  0
 37 38  1  0
 37 74  1  1
 38 39  1  0
 39 75  1  0
 39 76  1  0
 39 77  1  0
 40 41  1  0
 40 78  1  6
 41 79  1  0
M  END
>  <i_m_ct_stereo_status>  (137) 
1

>  <s_m_source_file>  (137) 
/var/tmp/pbs.5076253.sched01/tmp4uievzq0/12082cxahoa.sdf

>  <i_m_source_file_index>  (137) 
3

>  <i_lp_mmshare_version>  (137) 
48012

>  <i_f3d_flags>  (137) 
0

>  <s_epik_input>  (137) 
W0NIM11PW0NAQEhdMVtDQEBIXShbQ0BIXTJPW0NIM10pW0NAXShbQ0BIXTNbT0hdKShPW0NASF00T1tDSDNdKVtDQEhdKE9bQ0gzXSlPW0NAQEhdM1tDQEBdMShbT0hdKUMoW0NAXTI0NSk9W0NIXVtDQF02KE9bQ0gzXSlbQ0BdNyhPQyg9TylbQ0gzXSlbQ0BIXTVbQ0BdKFtPSF0pKFtDQEBIXTZPW0NIM10pW0NASF03T1tDSDNd

>  <s_epik_cmdline>  (137) 
J2VwaWtfcHl0aG9uJywgJy1waHQnLCAnMi4wJywgJy1waCcsICc3LjAnLCAnLXRuJywgJzgnLCAnLW1hJywgJzIwMCcsICctaW1hZScsICc8aW5maWxlLm1hZT4nLCAnLW9tYWUnLCAnPG91dGZpbGUubWFlPic=

>  <r_lp_tautomer_probability>  (137) 
1

>  <r_epik_Ionization_Penalty>  (137) 
0.000152205

>  <r_epik_Ionization_Penalty_Charging>  (137) 
0

>  <r_epik_Ionization_Penalty_Neutral>  (137) 
0.000152205

>  <r_epik_State_Penalty>  (137) 
-0

>  <r_epik_Charging_Adjusted_Penalty>  (137) 
0

>  <i_epik_Tot_Q>  (137) 
0

>  <i_epik_Tot_abs_Q>  (137) 
0

>  <s_epik_Chemistry_Notes>  (137) 
This compound has an ester and may undergo hydrolysis at high or low pH. This compound contains an acetal/aminal-like group ( X-CH(R)-Y where X, Y are N, S, or O) that may be acid/base labile, releasing an aldehyde.

>  <s_lp_Force_Field>  (137) 
OPLS3e

>  <r_lp_Energy>  (137) 
159.472

>  <b_lp_Chiralities_Consistent>  (137) 
1

>  <s_lp_Variant>  (137) 
83:0-1

>  <s_i_glide_gridfile>  (137) 
pfpi4k_grid

>  <i_i_glide_lignum>  (137) 
3

>  <i_i_glide_rotatable_bonds>  (137) 
12

>  <r_i_docking_score>  (137) 
-2.93889

>  <r_i_glide_ligand_efficiency>  (137) 
-0.0716802

>  <r_i_glide_ligand_efficiency_sa>  (137) 
-0.247169

>  <r_i_glide_ligand_efficiency_ln>  (137) 
-0.623495

>  <r_i_glide_gscore>  (137) 
-2.93889

>  <r_i_glide_lipo>  (137) 
-0.579896

>  <r_i_glide_hbond>  (137) 
-0.0603929

>  <r_i_glide_metal>  (137) 
-0

>  <r_i_glide_rewards>  (137) 
-0.000252065

>  <r_i_glide_evdw>  (137) 
-27.0211

>  <r_i_glide_ecoul>  (137) 
-6.55643

>  <r_i_glide_erotb>  (137) 
0.0608338

>  <r_i_glide_esite>  (137) 
-0.0246592

>  <r_i_glide_emodel>  (137) 
-29.151

>  <r_i_glide_energy>  (137) 
-33.5776

>  <r_i_glide_einternal>  (137) 
18.4118

>  <r_i_glide_intrahb_reward>  (137) 
-0

>  <i_i_glide_confnum>  (137) 
1

>  <i_i_glide_posenum>  (137) 
34

>  <r_i_glide_eff_state_penalty>  (137) 
0

>  <ligand_id>  (137) 
83

>  <original_smiles>  (137) 
COC1C2C(OC)C34C(=CC5(OC)C(OC)C6(O)C(OC)C5(OC(C)=O)C63)C1(O)C1OC(OC)C2(OC4OC)C1O

>  <smiles>  (137) 
[H]OC1([H])C2([H])OC([H])(OC([H])([H])[H])C13OC([H])(OC([H])([H])[H])C14C(=C([H])C5(OC([H])([H])[H])C([H])(OC([H])([H])[H])C6(O[H])C([H])(OC([H])([H])[H])C5(OC(=O)C([H])([H])[H])C61[H])C2(O[H])C([H])(OC([H])([H])[H])C3([H])C4([H])OC([H])([H])[H]

$$$$
83:0:2
     RDKit          3D

 79 85  0  0  1  0  0  0  0  0999 V2000
    8.2190   -3.1927   -0.6292 C   0  0  0  0  0  0  0  0  0  0  0  0
    6.9250   -2.6889   -0.3095 O   0  0  0  0  0  0  0  0  0  0  0  0
    6.2756   -3.3718    0.7719 C   0  0  2  0  0  0  0  0  0  0  0  0
    5.3399   -4.5059    0.2831 C   0  0  1  0  0  0  0  0  0  0  0  0
    5.2680   -5.5618    1.3921 C   0  0  1  0  0  0  0  0  0  0  0  0
    6.5325   -5.8086    1.9870 O   0  0  0  0  0  0  0  0  0  0  0  0
    7.4257   -6.6057    1.2271 C   0  0  0  0  0  0  0  0  0  0  0  0
    4.2590   -4.9867    2.3958 C   0  0  2  0  0  0  0  0  0  0  0  0
    4.6864   -3.4549    2.7024 C   0  0  0  0  0  0  0  0  0  0  0  0
    4.6410   -2.9925    3.9700 C   0  0  0  0  0  0  0  0  0  0  0  0
    4.3159   -3.8598    5.1763 C   0  0  1  0  0  0  0  0  0  0  0  0
    4.5616   -3.2139    6.4326 O   0  0  0  0  0  0  0  0  0  0  0  0
    5.8907   -2.7702    6.7114 C   0  0  0  0  0  0  0  0  0  0  0  0
    2.8105   -4.2940    5.1843 C   0  0  1  0  0  0  0  0  0  0  0  0
    1.9681   -3.6233    4.2737 O   0  0  0  0  0  0  0  0  0  0  0  0
    1.5273   -2.3575    4.7527 C   0  0  0  0  0  0  0  0  0  0  0  0
    3.0967   -5.7204    4.7787 C   0  0  2  0  0  0  0  0  0  0  0  0
    1.9244   -6.5121    4.6918 O   0  0  0  0  0  0  0  0  0  0  0  0
    4.1270   -6.2817    5.7915 C   0  0  1  0  0  0  0  0  0  0  0  0
    4.5462   -7.6128    5.6828 O   0  0  0  0  0  0  0  0  0  0  0  0
    3.8269   -8.5506    6.4598 C   0  0  0  0  0  0  0  0  0  0  0  0
    4.9265   -5.2411    4.9749 C   0  0  2  0  0  0  0  0  0  0  0  0
    6.3801   -5.2988    5.0576 O   0  0  0  0  0  0  0  0  0  0  0  0
    7.1664   -6.3624    4.7489 C   0  0  0  0  0  0  0  0  0  0  0  0
    8.6392   -5.9960    4.8377 C   0  0  0  0  0  0  0  0  0  0  0  0
    6.8475   -7.4774    4.3846 O   0  0  0  0  0  0  0  0  0  0  0  0
    4.2312   -5.8322    3.7146 C   0  0  2  0  0  0  0  0  0  0  0  0
    5.3025   -2.5111    1.5519 C   0  0  1  0  0  0  0  0  0  0  0  0
    6.0866   -1.4775    2.1483 O   0  0  0  0  0  0  0  0  0  0  0  0
    4.3116   -1.8276    0.5071 C   0  0  1  0  0  0  0  0  0  0  0  0
    4.5235   -1.9954   -0.9354 O   0  0  0  0  0  0  0  0  0  0  0  0
    4.0133   -3.2553   -1.4262 C   0  0  1  0  0  0  0  0  0  0  0  0
    4.9066   -3.8873   -2.2601 O   0  0  0  0  0  0  0  0  0  0  0  0
    4.9894   -3.2900   -3.5385 C   0  0  0  0  0  0  0  0  0  0  0  0
    3.8661   -3.9707   -0.0710 C   0  0  1  0  0  0  0  0  0  0  0  0
    2.8932   -4.9669    0.1905 O   0  0  0  0  0  0  0  0  0  0  0  0
    2.8671   -5.3058    1.5894 C   0  0  1  0  0  0  0  0  0  0  0  0
    2.6428   -6.6737    1.7187 O   0  0  0  0  0  0  0  0  0  0  0  0
    1.3339   -7.1088    1.3734 C   0  0  0  0  0  0  0  0  0  0  0  0
    3.1216   -2.6849    0.4928 C   0  0  1  0  0  0  0  0  0  0  0  0
    2.3479   -2.5085    1.6801 O   0  0  0  0  0  0  0  0  0  0  0  0
    8.6600   -2.5816   -1.4138 H   0  0  0  0  0  0  0  0  0  0  0  0
    8.1969   -4.2194   -0.9836 H   0  0  0  0  0  0  0  0  0  0  0  0
    8.8845   -3.1488    0.2332 H   0  0  0  0  0  0  0  0  0  0  0  0
    7.0600   -3.6631    1.4650 H   0  0  0  0  0  0  0  0  0  0  0  0
    5.8120   -5.0319   -0.5344 H   0  0  0  0  0  0  0  0  0  0  0  0
    4.9092   -6.5031    0.9848 H   0  0  0  0  0  0  0  0  0  0  0  0
    8.3117   -6.7732    1.8281 H   0  0  0  0  0  0  0  0  0  0  0  0
    7.7488   -6.1368    0.2962 H   0  0  0  0  0  0  0  0  0  0  0  0
    6.9899   -7.5787    1.0061 H   0  0  0  0  0  0  0  0  0  0  0  0
    4.9093   -1.9856    4.2025 H   0  0  0  0  0  0  0  0  0  0  0  0
    5.9146   -2.3025    7.6947 H   0  0  0  0  0  0  0  0  0  0  0  0
    6.2319   -2.0283    5.9929 H   0  0  0  0  0  0  0  0  0  0  0  0
    6.6067   -3.5844    6.7497 H   0  0  0  0  0  0  0  0  0  0  0  0
    2.3775   -4.2848    6.1891 H   0  0  0  0  0  0  0  0  0  0  0  0
    0.9474   -1.8517    3.9779 H   0  0  0  0  0  0  0  0  0  0  0  0
    2.3707   -1.7207    5.0075 H   0  0  0  0  0  0  0  0  0  0  0  0
    0.8941   -2.4728    5.6312 H   0  0  0  0  0  0  0  0  0  0  0  0
    2.2383   -7.3665    4.4826 H   0  0  0  0  0  0  0  0  0  0  0  0
    3.9608   -5.9293    6.8186 H   0  0  0  0  0  0  0  0  0  0  0  0
    4.3115   -9.5241    6.3961 H   0  0  0  0  0  0  0  0  0  0  0  0
    2.8183   -8.6516    6.0649 H   0  0  0  0  0  0  0  0  0  0  0  0
    3.7726   -8.2754    7.5154 H   0  0  0  0  0  0  0  0  0  0  0  0
    8.8530   -5.0719    4.3027 H   0  0  0  0  0  0  0  0  0  0  0  0
    9.2019   -6.8015    4.3583 H   0  0  0  0  0  0  0  0  0  0  0  0
    8.9480   -5.9140    5.8811 H   0  0  0  0  0  0  0  0  0  0  0  0
    4.4244   -6.8894    3.4962 H   0  0  0  0  0  0  0  0  0  0  0  0
    5.5107   -0.8098    2.4286 H   0  0  0  0  0  0  0  0  0  0  0  0
    4.0613   -0.7991    0.7537 H   0  0  0  0  0  0  0  0  0  0  0  0
    3.0665   -3.1332   -1.9394 H   0  0  0  0  0  0  0  0  0  0  0  0
    5.6833   -3.8606   -4.1610 H   0  0  0  0  0  0  0  0  0  0  0  0
    5.3516   -2.2613   -3.4801 H   0  0  0  0  0  0  0  0  0  0  0  0
    4.0177   -3.2927   -4.0424 H   0  0  0  0  0  0  0  0  0  0  0  0
    2.0481   -4.8252    2.0977 H   0  0  0  0  0  0  0  0  0  0  0  0
    1.2696   -8.1854    1.5256 H   0  0  0  0  0  0  0  0  0  0  0  0
    1.1049   -6.8965    0.3314 H   0  0  0  0  0  0  0  0  0  0  0  0
    0.5817   -6.6382    2.0068 H   0  0  0  0  0  0  0  0  0  0  0  0
    2.3547   -2.3048   -0.1859 H   0  0  0  0  0  0  0  0  0  0  0  0
    1.8808   -1.7011    1.5898 H   0  0  0  0  0  0  0  0  0  0  0  0
  1  2  1  0
  1 42  1  0
  1 43  1  0
  1 44  1  0
  2  3  1  0
  3 28  1  0
  3  4  1  0
  3 45  1  1
  4 35  1  0
  4  5  1  0
  4 46  1  6
  5  6  1  0
  5  8  1  0
  5 47  1  6
  6  7  1  0
  7 48  1  0
  7 49  1  0
  7 50  1  0
  8 27  1  0
  8 37  1  0
  8  9  1  1
  9 10  2  0
  9 28  1  0
 10 11  1  0
 10 51  1  0
 11 22  1  0
 11 12  1  1
 11 14  1  0
 12 13  1  0
 13 52  1  0
 13 53  1  0
 13 54  1  0
 14 15  1  0
 14 17  1  0
 14 55  1  1
 15 16  1  0
 16 56  1  0
 16 57  1  0
 16 58  1  0
 17 27  1  0
 17 18  1  6
 17 19  1  0
 18 59  1  0
 19 20  1  0
 19 22  1  0
 19 60  1  1
 20 21  1  0
 21 61  1  0
 21 62  1  0
 21 63  1  0
 22 23  1  6
 22 27  1  0
 23 24  1  0
 24 25  1  0
 24 26  2  0
 25 64  1  0
 25 65  1  0
 25 66  1  0
 27 67  1  6
 28 29  1  1
 28 30  1  0
 29 68  1  0
 30 40  1  0
 30 31  1  0
 30 69  1  6
 31 32  1  0
 32 33  1  0
 32 35  1  0
 32 70  1  6
 33 34  1  0
 34 71  1  0
 34 72  1  0
 34 73  1  0
 35 36  1  6
 35 40  1  0
 36 37  1  0
 37 38  1  0
 37 74  1  1
 38 39  1  0
 39 75  1  0
 39 76  1  0
 39 77  1  0
 40 41  1  0
 40 78  1  6
 41 79  1  0
M  END
>  <i_m_ct_stereo_status>  (138) 
1

>  <s_m_source_file>  (138) 
/var/tmp/pbs.5076253.sched01/tmp4uievzq0/12082cxahoa.sdf

>  <i_m_source_file_index>  (138) 
3

>  <i_lp_mmshare_version>  (138) 
48012

>  <i_f3d_flags>  (138) 
0

>  <s_epik_input>  (138) 
W0NIM11PW0NAQEhdMVtDQEBIXShbQ0BIXTJPW0NIM10pW0NAXShbQ0BIXTNbT0hdKShPW0NASF00T1tDSDNdKVtDQEhdKE9bQ0gzXSlPW0NAQEhdM1tDQEBdMShbT0hdKUMoW0NAXTI0NSk9W0NIXVtDQF02KE9bQ0gzXSlbQ0BdNyhPQyg9TylbQ0gzXSlbQ0BIXTVbQ0BdKFtPSF0pKFtDQEBIXTZPW0NIM10pW0NASF03T1tDSDNd

>  <s_epik_cmdline>  (138) 
J2VwaWtfcHl0aG9uJywgJy1waHQnLCAnMi4wJywgJy1waCcsICc3LjAnLCAnLXRuJywgJzgnLCAnLW1hJywgJzIwMCcsICctaW1hZScsICc8aW5maWxlLm1hZT4nLCAnLW9tYWUnLCAnPG91dGZpbGUubWFlPic=

>  <r_lp_tautomer_probability>  (138) 
1

>  <r_epik_Ionization_Penalty>  (138) 
0.000152205

>  <r_epik_Ionization_Penalty_Charging>  (138) 
0

>  <r_epik_Ionization_Penalty_Neutral>  (138) 
0.000152205

>  <r_epik_State_Penalty>  (138) 
-0

>  <r_epik_Charging_Adjusted_Penalty>  (138) 
0

>  <i_epik_Tot_Q>  (138) 
0

>  <i_epik_Tot_abs_Q>  (138) 
0

>  <s_epik_Chemistry_Notes>  (138) 
This compound has an ester and may undergo hydrolysis at high or low pH. This compound contains an acetal/aminal-like group ( X-CH(R)-Y where X, Y are N, S, or O) that may be acid/base labile, releasing an aldehyde.

>  <s_lp_Force_Field>  (138) 
OPLS3e

>  <r_lp_Energy>  (138) 
159.472

>  <b_lp_Chiralities_Consistent>  (138) 
1

>  <s_lp_Variant>  (138) 
83:0-1

>  <s_i_glide_gridfile>  (138) 
pfpi4k_grid

>  <i_i_glide_lignum>  (138) 
3

>  <i_i_glide_rotatable_bonds>  (138) 
12

>  <r_i_docking_score>  (138) 
-2.14438

>  <r_i_glide_ligand_efficiency>  (138) 
-0.0523021

>  <r_i_glide_ligand_efficiency_sa>  (138) 
-0.180349

>  <r_i_glide_ligand_efficiency_ln>  (138) 
-0.454938

>  <r_i_glide_gscore>  (138) 
-2.14438

>  <r_i_glide_lipo>  (138) 
-0.733445

>  <r_i_glide_hbond>  (138) 
0

>  <r_i_glide_metal>  (138) 
-0

>  <r_i_glide_rewards>  (138) 
-0.0017857

>  <r_i_glide_evdw>  (138) 
-27.2567

>  <r_i_glide_ecoul>  (138) 
-0.584089

>  <r_i_glide_erotb>  (138) 
0.0608338

>  <r_i_glide_esite>  (138) 
-0.0195398

>  <r_i_glide_emodel>  (138) 
-28.2107

>  <r_i_glide_energy>  (138) 
-27.8408

>  <r_i_glide_einternal>  (138) 
7.93526

>  <r_i_glide_intrahb_reward>  (138) 
-0

>  <i_i_glide_confnum>  (138) 
1

>  <i_i_glide_posenum>  (138) 
18

>  <r_i_glide_eff_state_penalty>  (138) 
0

>  <ligand_id>  (138) 
83

>  <original_smiles>  (138) 
COC1C2C(OC)C34C(=CC5(OC)C(OC)C6(O)C(OC)C5(OC(C)=O)C63)C1(O)C1OC(OC)C2(OC4OC)C1O

>  <smiles>  (138) 
[H]OC1([H])C2([H])OC([H])(OC([H])([H])[H])C13OC([H])(OC([H])([H])[H])C14C(=C([H])C5(OC([H])([H])[H])C([H])(OC([H])([H])[H])C6(O[H])C([H])(OC([H])([H])[H])C5(OC(=O)C([H])([H])[H])C61[H])C2(O[H])C([H])(OC([H])([H])[H])C3([H])C4([H])OC([H])([H])[H]

$$$$
84:0:0
     RDKit          3D

 62 66  0  0  1  0  0  0  0  0999 V2000
   -0.1089    0.0724    6.0452 C   0  0  0  0  0  0  0  0  0  0  0  0
    0.7072   -0.9710    5.8160 C   0  0  0  0  0  0  0  0  0  0  0  0
    0.9537   -1.9815    6.9177 C   0  0  0  0  0  0  0  0  0  0  0  0
    0.3888   -3.3496    6.5251 C   0  0  0  0  0  0  0  0  0  0  0  0
    0.8637   -3.7337    5.1490 C   0  0  0  0  0  0  0  0  0  0  0  0
    1.3280   -2.8403    4.2516 C   0  0  0  0  0  0  0  0  0  0  0  0
    2.0276   -3.2993    3.0149 C   0  0  0  0  0  0  0  0  0  0  0  0
    3.4115   -2.6634    3.0118 C   0  0  0  0  0  0  0  0  0  0  0  0
    3.5464   -1.1694    3.4588 C   0  0  1  0  0  0  0  0  0  0  0  0
    5.0326   -0.8205    3.5780 C   0  0  0  0  0  0  0  0  0  0  0  0
    5.4017   -0.2309    2.3185 O   0  0  0  0  0  0  0  0  0  0  0  0
    4.2763   -0.0130    1.5113 C   0  0  1  0  0  0  0  0  0  0  0  0
    4.1073   -1.0488    0.6080 O   0  0  0  0  0  0  0  0  0  0  0  0
    5.2119   -1.3648   -0.2359 C   0  0  2  0  0  0  0  0  0  0  0  0
    5.0237   -1.0374   -1.6022 O   0  0  0  0  0  0  0  0  0  0  0  0
    3.8799   -1.6429   -2.2192 C   0  0  1  0  0  0  0  0  0  0  0  0
    3.7383   -1.1038   -3.6597 C   0  0  0  0  0  0  0  0  0  0  0  0
    3.8094    0.3137   -3.7482 O   0  0  0  0  0  0  0  0  0  0  0  0
    4.0690   -3.1851   -2.1921 C   0  0  1  0  0  0  0  0  0  0  0  0
    5.0643   -3.6216   -3.1234 O   0  0  0  0  0  0  0  0  0  0  0  0
    4.3752   -3.6762   -0.7580 C   0  0  1  0  0  0  0  0  0  0  0  0
    4.6292   -5.0796   -0.7256 O   0  0  0  0  0  0  0  0  0  0  0  0
    5.5181   -2.8658   -0.0789 C   0  0  1  0  0  0  0  0  0  0  0  0
    6.7919   -3.1601   -0.6224 O   0  0  0  0  0  0  0  0  0  0  0  0
    3.1096   -0.0348    2.5192 C   0  0  2  0  0  0  0  0  0  0  0  0
    3.0925    1.3735    3.1854 C   0  0  0  0  0  0  0  0  0  0  0  0
    1.7021   -0.3271    1.9957 C   0  0  0  0  0  0  0  0  0  0  0  0
    0.7751   -0.5416    3.2342 C   0  0  0  0  0  0  0  0  0  0  0  0
    1.3876   -1.3193    4.4746 C   0  0  1  0  0  0  0  0  0  0  0  0
    2.7716   -0.9708    4.6401 O   0  0  0  0  0  0  0  0  0  0  0  0
   -0.3507    0.8316    5.3170 H   0  0  0  0  0  0  0  0  0  0  0  0
   -0.5300    0.2127    7.0312 H   0  0  0  0  0  0  0  0  0  0  0  0
    2.0308   -2.0538    7.0576 H   0  0  0  0  0  0  0  0  0  0  0  0
    0.5348   -1.6454    7.8643 H   0  0  0  0  0  0  0  0  0  0  0  0
    0.7305   -4.1034    7.2376 H   0  0  0  0  0  0  0  0  0  0  0  0
   -0.7007   -3.3444    6.5299 H   0  0  0  0  0  0  0  0  0  0  0  0
    0.9000   -4.7918    4.9398 H   0  0  0  0  0  0  0  0  0  0  0  0
    2.1241   -4.3818    2.9992 H   0  0  0  0  0  0  0  0  0  0  0  0
    1.4437   -3.0457    2.1391 H   0  0  0  0  0  0  0  0  0  0  0  0
    4.0414   -3.2674    3.6611 H   0  0  0  0  0  0  0  0  0  0  0  0
    3.7951   -2.8214    2.0257 H   0  0  0  0  0  0  0  0  0  0  0  0
    5.1967   -0.0844    4.3623 H   0  0  0  0  0  0  0  0  0  0  0  0
    5.6607   -1.6793    3.8143 H   0  0  0  0  0  0  0  0  0  0  0  0
    4.3551    0.9344    0.9472 H   0  0  0  0  0  0  0  0  0  0  0  0
    6.0755   -0.7565    0.0514 H   0  0  0  0  0  0  0  0  0  0  0  0
    2.9921   -1.3642   -1.6363 H   0  0  0  0  0  0  0  0  0  0  0  0
    4.5326   -1.4923   -4.3040 H   0  0  0  0  0  0  0  0  0  0  0  0
    2.7972   -1.4604   -4.0775 H   0  0  0  0  0  0  0  0  0  0  0  0
    3.0556    0.7155   -3.2563 H   0  0  0  0  0  0  0  0  0  0  0  0
    3.1146   -3.6315   -2.4971 H   0  0  0  0  0  0  0  0  0  0  0  0
    5.1904   -4.5770   -3.0031 H   0  0  0  0  0  0  0  0  0  0  0  0
    3.4618   -3.4808   -0.1888 H   0  0  0  0  0  0  0  0  0  0  0  0
    3.9374   -5.5196   -1.2700 H   0  0  0  0  0  0  0  0  0  0  0  0
    5.5778   -3.1061    0.9848 H   0  0  0  0  0  0  0  0  0  0  0  0
    6.8841   -4.1250   -0.5792 H   0  0  0  0  0  0  0  0  0  0  0  0
    2.7757    2.1318    2.4657 H   0  0  0  0  0  0  0  0  0  0  0  0
    4.0686    1.6800    3.5554 H   0  0  0  0  0  0  0  0  0  0  0  0
    2.4240    1.4491    4.0428 H   0  0  0  0  0  0  0  0  0  0  0  0
    1.3314    0.5023    1.3876 H   0  0  0  0  0  0  0  0  0  0  0  0
    1.7043   -1.1724    1.3114 H   0  0  0  0  0  0  0  0  0  0  0  0
    0.4847    0.4663    3.5114 H   0  0  0  0  0  0  0  0  0  0  0  0
   -0.1534   -1.0175    2.9292 H   0  0  0  0  0  0  0  0  0  0  0  0
  1  2  2  0
  1 31  1  0
  1 32  1  0
  2 29  1  0
  2  3  1  0
  3  4  1  0
  3 33  1  0
  3 34  1  0
  4  5  1  0
  4 35  1  0
  4 36  1  0
  5  6  2  0
  5 37  1  0
  6 29  1  0
  6  7  1  0
  7  8  1  0
  7 38  1  0
  7 39  1  0
  9  8  1  6
  8 40  1  0
  8 41  1  0
  9 25  1  0
  9 30  1  0
  9 10  1  0
 10 11  1  0
 10 42  1  0
 10 43  1  0
 11 12  1  0
 12 13  1  0
 12 25  1  0
 12 44  1  6
 13 14  1  0
 14 23  1  0
 14 15  1  0
 14 45  1  1
 15 16  1  0
 16 17  1  0
 16 19  1  0
 16 46  1  1
 17 18  1  0
 17 47  1  0
 17 48  1  0
 18 49  1  0
 19 20  1  0
 19 21  1  0
 19 50  1  6
 20 51  1  0
 21 22  1  0
 21 23  1  0
 21 52  1  1
 22 53  1  0
 23 24  1  0
 23 54  1  1
 24 55  1  0
 25 26  1  1
 25 27  1  0
 26 56  1  0
 26 57  1  0
 26 58  1  0
 27 28  1  0
 27 59  1  0
 27 60  1  0
 29 28  1  6
 28 61  1  0
 28 62  1  0
 29 30  1  0
M  END
>  <i_m_ct_stereo_status>  (139) 
1

>  <s_m_source_file>  (139) 
/var/tmp/pbs.5076253.sched01/tmp4uievzq0/12082cxahoa.sdf

>  <i_m_source_file_index>  (139) 
4

>  <i_lp_mmshare_version>  (139) 
48012

>  <i_f3d_flags>  (139) 
0

>  <s_epik_input>  (139) 
W0NIMl09QzFbQ0gyXVtDSDJdW0NIXT1DKFtDSDJdW0NIMl0yKVtDQEBdMShPMylbQ0gyXVtDSDJdW0NAXShDMjM0KShbQ0gzXSlbQ0BASF0oT1tDSDJdNClPW0NAQEhdNU9bQ0BASF0oW0NIMl1bT0hdKVtDQEBIXShbT0hdKVtDQEBIXShbT0hdKVtDQEhdNVtPSF0=

>  <s_epik_cmdline>  (139) 
J2VwaWtfcHl0aG9uJywgJy1waHQnLCAnMi4wJywgJy1waCcsICc3LjAnLCAnLXRuJywgJzgnLCAnLW1hJywgJzIwMCcsICctaW1hZScsICc8aW5maWxlLm1hZT4nLCAnLW9tYWUnLCAnPG91dGZpbGUubWFlPic=

>  <r_lp_tautomer_probability>  (139) 
1

>  <r_epik_Ionization_Penalty>  (139) 
3.84418e-06

>  <r_epik_Ionization_Penalty_Charging>  (139) 
0

>  <r_epik_Ionization_Penalty_Neutral>  (139) 
3.84418e-06

>  <r_epik_State_Penalty>  (139) 
-0

>  <r_epik_Charging_Adjusted_Penalty>  (139) 
0

>  <i_epik_Tot_Q>  (139) 
0

>  <i_epik_Tot_abs_Q>  (139) 
0

>  <s_epik_Chemistry_Notes>  (139) 
This compound contains an acetal/aminal-like group ( X-CH(R)-Y where X, Y are N, S, or O) that may be acid/base labile, releasing an aldehyde.

>  <s_lp_Force_Field>  (139) 
OPLS3e

>  <r_lp_Energy>  (139) 
31.9532

>  <b_lp_Chiralities_Consistent>  (139) 
1

>  <s_lp_Variant>  (139) 
84:0-1

>  <s_i_glide_gridfile>  (139) 
pfpi4k_grid

>  <i_i_glide_lignum>  (139) 
4

>  <i_i_glide_rotatable_bonds>  (139) 
7

>  <r_i_docking_score>  (139) 
-3.88664

>  <r_i_glide_ligand_efficiency>  (139) 
-0.129555

>  <r_i_glide_ligand_efficiency_sa>  (139) 
-0.402556

>  <r_i_glide_ligand_efficiency_ln>  (139) 
-0.883087

>  <r_i_glide_gscore>  (139) 
-3.88664

>  <r_i_glide_lipo>  (139) 
-0.395169

>  <r_i_glide_hbond>  (139) 
-0.170398

>  <r_i_glide_metal>  (139) 
-0

>  <r_i_glide_rewards>  (139) 
-0.597656

>  <r_i_glide_evdw>  (139) 
-26.7091

>  <r_i_glide_ecoul>  (139) 
-11.3615

>  <r_i_glide_erotb>  (139) 
0.330136

>  <r_i_glide_esite>  (139) 
-0.0138665

>  <r_i_glide_emodel>  (139) 
-41.8143

>  <r_i_glide_energy>  (139) 
-38.0706

>  <r_i_glide_einternal>  (139) 
8.52935

>  <r_i_glide_intrahb_reward>  (139) 
-0

>  <i_i_glide_confnum>  (139) 
5

>  <i_i_glide_posenum>  (139) 
6

>  <r_i_glide_eff_state_penalty>  (139) 
0

>  <ligand_id>  (139) 
84

>  <original_smiles>  (139) 
C=C1CCC=C2CCC34COC(OC5OC(CO)C(O)C(O)C5O)C3(C)CCC12O4

>  <smiles>  (139) 
[H]OC([H])([H])C1([H])OC([H])(OC2([H])OC([H])([H])C34OC5(C(=C([H])[H])C([H])([H])C([H])([H])C([H])=C5C([H])([H])C3([H])[H])C([H])([H])C([H])([H])C24C([H])([H])[H])C([H])(O[H])C([H])(O[H])C1([H])O[H]

$$$$
84:0:1
     RDKit          3D

 62 66  0  0  1  0  0  0  0  0999 V2000
    2.6042  -10.2080    3.2527 C   0  0  0  0  0  0  0  0  0  0  0  0
    3.7551   -9.5300    3.4313 C   0  0  0  0  0  0  0  0  0  0  0  0
    4.7917  -10.0753    4.3970 C   0  0  0  0  0  0  0  0  0  0  0  0
    6.0618  -10.4688    3.6415 C   0  0  0  0  0  0  0  0  0  0  0  0
    6.5115   -9.3334    2.7533 C   0  0  0  0  0  0  0  0  0  0  0  0
    5.6950   -8.3353    2.3520 C   0  0  0  0  0  0  0  0  0  0  0  0
    6.2462   -7.1049    1.6827 C   0  0  0  0  0  0  0  0  0  0  0  0
    5.8206   -5.8795    2.5015 C   0  0  0  0  0  0  0  0  0  0  0  0
    4.3549   -5.8754    3.0809 C   0  0  1  0  0  0  0  0  0  0  0  0
    4.2167   -4.7003    4.0560 C   0  0  0  0  0  0  0  0  0  0  0  0
    3.6848   -3.6197    3.2704 O   0  0  0  0  0  0  0  0  0  0  0  0
    3.3018   -4.0667    1.9930 C   0  0  1  0  0  0  0  0  0  0  0  0
    4.2811   -3.7816    1.0540 O   0  0  0  0  0  0  0  0  0  0  0  0
    4.3139   -2.4492    0.6030 C   0  0  2  0  0  0  0  0  0  0  0  0
    3.3926   -2.1934   -0.4337 O   0  0  0  0  0  0  0  0  0  0  0  0
    3.5913   -2.9914   -1.6154 C   0  0  1  0  0  0  0  0  0  0  0  0
    2.4388   -2.7053   -2.5958 C   0  0  0  0  0  0  0  0  0  0  0  0
    2.6040   -3.4519   -3.7967 O   0  0  0  0  0  0  0  0  0  0  0  0
    4.9813   -2.6409   -2.2036 C   0  0  1  0  0  0  0  0  0  0  0  0
    4.9713   -1.3073   -2.7082 O   0  0  0  0  0  0  0  0  0  0  0  0
    6.0815   -2.8345   -1.1408 C   0  0  1  0  0  0  0  0  0  0  0  0
    7.3908   -2.5053   -1.6295 O   0  0  0  0  0  0  0  0  0  0  0  0
    5.7418   -2.0800    0.1613 C   0  0  1  0  0  0  0  0  0  0  0  0
    5.7892   -0.6674   -0.0081 O   0  0  0  0  0  0  0  0  0  0  0  0
    3.1634   -5.5853    2.1636 C   0  0  2  0  0  0  0  0  0  0  0  0
    1.7634   -5.8035    2.8201 C   0  0  0  0  0  0  0  0  0  0  0  0
    3.2511   -6.4657    0.9112 C   0  0  0  0  0  0  0  0  0  0  0  0
    3.3402   -7.9561    1.3775 C   0  0  0  0  0  0  0  0  0  0  0  0
    4.1981   -8.2460    2.6861 C   0  0  1  0  0  0  0  0  0  0  0  0
    4.0571   -7.1617    3.6258 O   0  0  0  0  0  0  0  0  0  0  0  0
    1.8171   -9.9115    2.5777 H   0  0  0  0  0  0  0  0  0  0  0  0
    2.4177  -11.1083    3.8274 H   0  0  0  0  0  0  0  0  0  0  0  0
    5.0174   -9.2917    5.1260 H   0  0  0  0  0  0  0  0  0  0  0  0
    4.4043  -10.9255    4.9603 H   0  0  0  0  0  0  0  0  0  0  0  0
    6.8570  -10.6935    4.3531 H   0  0  0  0  0  0  0  0  0  0  0  0
    5.8991  -11.3588    3.0286 H   0  0  0  0  0  0  0  0  0  0  0  0
    7.5606   -9.3033    2.5082 H   0  0  0  0  0  0  0  0  0  0  0  0
    7.3322   -7.1522    1.6329 H   0  0  0  0  0  0  0  0  0  0  0  0
    5.9129   -7.0592    0.6506 H   0  0  0  0  0  0  0  0  0  0  0  0
    6.4984   -5.8438    3.3544 H   0  0  0  0  0  0  0  0  0  0  0  0
    6.0514   -4.9786    1.9424 H   0  0  0  0  0  0  0  0  0  0  0  0
    3.5007   -4.9420    4.8442 H   0  0  0  0  0  0  0  0  0  0  0  0
    5.1603   -4.4361    4.5377 H   0  0  0  0  0  0  0  0  0  0  0  0
    2.3656   -3.5903    1.7006 H   0  0  0  0  0  0  0  0  0  0  0  0
    4.0058   -1.8086    1.4468 H   0  0  0  0  0  0  0  0  0  0  0  0
    3.5520   -4.0466   -1.3320 H   0  0  0  0  0  0  0  0  0  0  0  0
    1.4723   -2.9485   -2.1588 H   0  0  0  0  0  0  0  0  0  0  0  0
    2.3877   -1.6444   -2.8431 H   0  0  0  0  0  0  0  0  0  0  0  0
    2.5008   -4.3952   -3.5717 H   0  0  0  0  0  0  0  0  0  0  0  0
    5.1827   -3.3213   -3.0333 H   0  0  0  0  0  0  0  0  0  0  0  0
    4.2143   -1.2233   -3.3053 H   0  0  0  0  0  0  0  0  0  0  0  0
    6.0952   -3.8946   -0.8903 H   0  0  0  0  0  0  0  0  0  0  0  0
    7.5842   -3.0373   -2.4263 H   0  0  0  0  0  0  0  0  0  0  0  0
    6.4420   -2.3512    0.9530 H   0  0  0  0  0  0  0  0  0  0  0  0
    5.1549   -0.4471   -0.7131 H   0  0  0  0  0  0  0  0  0  0  0  0
    0.9714   -5.5892    2.1025 H   0  0  0  0  0  0  0  0  0  0  0  0
    1.5881   -5.1512    3.6754 H   0  0  0  0  0  0  0  0  0  0  0  0
    1.6057   -6.8252    3.1706 H   0  0  0  0  0  0  0  0  0  0  0  0
    2.3734   -6.3115    0.2840 H   0  0  0  0  0  0  0  0  0  0  0  0
    4.0840   -6.1783    0.2772 H   0  0  0  0  0  0  0  0  0  0  0  0
    2.3055   -8.2458    1.5259 H   0  0  0  0  0  0  0  0  0  0  0  0
    3.6963   -8.5897    0.5640 H   0  0  0  0  0  0  0  0  0  0  0  0
  1  2  2  0
  1 31  1  0
  1 32  1  0
  2 29  1  0
  2  3  1  0
  3  4  1  0
  3 33  1  0
  3 34  1  0
  4  5  1  0
  4 35  1  0
  4 36  1  0
  5  6  2  0
  5 37  1  0
  6 29  1  0
  6  7  1  0
  7  8  1  0
  7 38  1  0
  7 39  1  0
  9  8  1  6
  8 40  1  0
  8 41  1  0
  9 25  1  0
  9 30  1  0
  9 10  1  0
 10 11  1  0
 10 42  1  0
 10 43  1  0
 11 12  1  0
 12 13  1  0
 12 25  1  0
 12 44  1  6
 13 14  1  0
 14 23  1  0
 14 15  1  0
 14 45  1  1
 15 16  1  0
 16 17  1  0
 16 19  1  0
 16 46  1  1
 17 18  1  0
 17 47  1  0
 17 48  1  0
 18 49  1  0
 19 20  1  0
 19 21  1  0
 19 50  1  6
 20 51  1  0
 21 22  1  0
 21 23  1  0
 21 52  1  1
 22 53  1  0
 23 24  1  0
 23 54  1  1
 24 55  1  0
 25 26  1  1
 25 27  1  0
 26 56  1  0
 26 57  1  0
 26 58  1  0
 27 28  1  0
 27 59  1  0
 27 60  1  0
 29 28  1  6
 28 61  1  0
 28 62  1  0
 29 30  1  0
M  END
>  <i_m_ct_stereo_status>  (140) 
1

>  <s_m_source_file>  (140) 
/var/tmp/pbs.5076253.sched01/tmp4uievzq0/12082cxahoa.sdf

>  <i_m_source_file_index>  (140) 
4

>  <i_lp_mmshare_version>  (140) 
48012

>  <i_f3d_flags>  (140) 
0

>  <s_epik_input>  (140) 
W0NIMl09QzFbQ0gyXVtDSDJdW0NIXT1DKFtDSDJdW0NIMl0yKVtDQEBdMShPMylbQ0gyXVtDSDJdW0NAXShDMjM0KShbQ0gzXSlbQ0BASF0oT1tDSDJdNClPW0NAQEhdNU9bQ0BASF0oW0NIMl1bT0hdKVtDQEBIXShbT0hdKVtDQEBIXShbT0hdKVtDQEhdNVtPSF0=

>  <s_epik_cmdline>  (140) 
J2VwaWtfcHl0aG9uJywgJy1waHQnLCAnMi4wJywgJy1waCcsICc3LjAnLCAnLXRuJywgJzgnLCAnLW1hJywgJzIwMCcsICctaW1hZScsICc8aW5maWxlLm1hZT4nLCAnLW9tYWUnLCAnPG91dGZpbGUubWFlPic=

>  <r_lp_tautomer_probability>  (140) 
1

>  <r_epik_Ionization_Penalty>  (140) 
3.84418e-06

>  <r_epik_Ionization_Penalty_Charging>  (140) 
0

>  <r_epik_Ionization_Penalty_Neutral>  (140) 
3.84418e-06

>  <r_epik_State_Penalty>  (140) 
-0

>  <r_epik_Charging_Adjusted_Penalty>  (140) 
0

>  <i_epik_Tot_Q>  (140) 
0

>  <i_epik_Tot_abs_Q>  (140) 
0

>  <s_epik_Chemistry_Notes>  (140) 
This compound contains an acetal/aminal-like group ( X-CH(R)-Y where X, Y are N, S, or O) that may be acid/base labile, releasing an aldehyde.

>  <s_lp_Force_Field>  (140) 
OPLS3e

>  <r_lp_Energy>  (140) 
31.9532

>  <b_lp_Chiralities_Consistent>  (140) 
1

>  <s_lp_Variant>  (140) 
84:0-1

>  <s_i_glide_gridfile>  (140) 
pfpi4k_grid

>  <i_i_glide_lignum>  (140) 
4

>  <i_i_glide_rotatable_bonds>  (140) 
7

>  <r_i_docking_score>  (140) 
-3.57826

>  <r_i_glide_ligand_efficiency>  (140) 
-0.119275

>  <r_i_glide_ligand_efficiency_sa>  (140) 
-0.370616

>  <r_i_glide_ligand_efficiency_ln>  (140) 
-0.81302

>  <r_i_glide_gscore>  (140) 
-3.57826

>  <r_i_glide_lipo>  (140) 
-0.277004

>  <r_i_glide_hbond>  (140) 
0

>  <r_i_glide_metal>  (140) 
-0

>  <r_i_glide_rewards>  (140) 
-1.01683

>  <r_i_glide_evdw>  (140) 
-24.7096

>  <r_i_glide_ecoul>  (140) 
-9.17356

>  <r_i_glide_erotb>  (140) 
0.330136

>  <r_i_glide_esite>  (140) 
-0.00305102

>  <r_i_glide_emodel>  (140) 
-46.376

>  <r_i_glide_energy>  (140) 
-33.8832

>  <r_i_glide_einternal>  (140) 
1.38414

>  <r_i_glide_intrahb_reward>  (140) 
-0.5

>  <i_i_glide_confnum>  (140) 
5

>  <i_i_glide_posenum>  (140) 
19

>  <r_i_glide_eff_state_penalty>  (140) 
0

>  <ligand_id>  (140) 
84

>  <original_smiles>  (140) 
C=C1CCC=C2CCC34COC(OC5OC(CO)C(O)C(O)C5O)C3(C)CCC12O4

>  <smiles>  (140) 
[H]OC([H])([H])C1([H])OC([H])(OC2([H])OC([H])([H])C34OC5(C(=C([H])[H])C([H])([H])C([H])([H])C([H])=C5C([H])([H])C3([H])[H])C([H])([H])C([H])([H])C24C([H])([H])[H])C([H])(O[H])C([H])(O[H])C1([H])O[H]

$$$$
84:0:2
     RDKit          3D

 62 66  0  0  1  0  0  0  0  0999 V2000
    1.7529  -10.1721    3.8438 C   0  0  0  0  0  0  0  0  0  0  0  0
    2.9442   -9.6137    3.5787 C   0  0  0  0  0  0  0  0  0  0  0  0
    4.2139  -10.2565    4.1092 C   0  0  0  0  0  0  0  0  0  0  0  0
    5.0843  -10.7554    2.9569 C   0  0  0  0  0  0  0  0  0  0  0  0
    5.2647   -9.6645    1.9313 C   0  0  0  0  0  0  0  0  0  0  0  0
    4.4499   -8.6007    1.8366 C   0  0  0  0  0  0  0  0  0  0  0  0
    4.8190   -7.4281    0.9926 C   0  0  0  0  0  0  0  0  0  0  0  0
    4.8143   -6.2037    1.8893 C   0  0  0  0  0  0  0  0  0  0  0  0
    3.6957   -6.0440    2.9619 C   0  0  1  0  0  0  0  0  0  0  0  0
    4.0439   -4.8616    3.8729 C   0  0  0  0  0  0  0  0  0  0  0  0
    3.3670   -3.7225    3.3105 O   0  0  0  0  0  0  0  0  0  0  0  0
    2.4816   -4.1013    2.2954 C   0  0  1  0  0  0  0  0  0  0  0  0
    3.0140   -3.8946    1.0260 O   0  0  0  0  0  0  0  0  0  0  0  0
    3.2042   -2.5602    0.5915 C   0  0  2  0  0  0  0  0  0  0  0  0
    3.0962   -2.4368   -0.8114 O   0  0  0  0  0  0  0  0  0  0  0  0
    4.0341   -3.2203   -1.5648 C   0  0  1  0  0  0  0  0  0  0  0  0
    3.6538   -3.1010   -3.0579 C   0  0  0  0  0  0  0  0  0  0  0  0
    4.5290   -3.8667   -3.8801 O   0  0  0  0  0  0  0  0  0  0  0  0
    5.4485   -2.6827   -1.2400 C   0  0  1  0  0  0  0  0  0  0  0  0
    5.6020   -1.3640   -1.7566 O   0  0  0  0  0  0  0  0  0  0  0  0
    5.7139   -2.6629    0.2762 C   0  0  1  0  0  0  0  0  0  0  0  0
    6.9742   -2.0795    0.6021 O   0  0  0  0  0  0  0  0  0  0  0  0
    4.5676   -1.9791    1.0515 C   0  0  1  0  0  0  0  0  0  0  0  0
    4.5720   -0.5634    0.8060 O   0  0  0  0  0  0  0  0  0  0  0  0
    2.2918   -5.6140    2.5302 C   0  0  2  0  0  0  0  0  0  0  0  0
    1.2172   -5.7060    3.6527 C   0  0  0  0  0  0  0  0  0  0  0  0
    1.8382   -6.4805    1.3472 C   0  0  0  0  0  0  0  0  0  0  0  0
    1.9523   -7.9785    1.7806 C   0  0  0  0  0  0  0  0  0  0  0  0
    3.1969   -8.3733    2.6930 C   0  0  1  0  0  0  0  0  0  0  0  0
    3.4969   -7.3009    3.6032 O   0  0  0  0  0  0  0  0  0  0  0  0
    0.8026   -9.7872    3.4995 H   0  0  0  0  0  0  0  0  0  0  0  0
    1.7069  -11.0528    4.4766 H   0  0  0  0  0  0  0  0  0  0  0  0
    4.7563   -9.4997    4.6820 H   0  0  0  0  0  0  0  0  0  0  0  0
    3.9799  -11.0700    4.7944 H   0  0  0  0  0  0  0  0  0  0  0  0
    6.0634  -11.0615    3.3319 H   0  0  0  0  0  0  0  0  0  0  0  0
    4.6202  -11.6230    2.4816 H   0  0  0  0  0  0  0  0  0  0  0  0
    6.1499   -9.7418    1.3162 H   0  0  0  0  0  0  0  0  0  0  0  0
    5.8071   -7.5656    0.5688 H   0  0  0  0  0  0  0  0  0  0  0  0
    4.1548   -7.3402    0.1433 H   0  0  0  0  0  0  0  0  0  0  0  0
    5.7816   -6.1789    2.3896 H   0  0  0  0  0  0  0  0  0  0  0  0
    4.7732   -5.3792    1.2213 H   0  0  0  0  0  0  0  0  0  0  0  0
    3.6643   -5.0255    4.8810 H   0  0  0  0  0  0  0  0  0  0  0  0
    5.1174   -4.6829    3.9615 H   0  0  0  0  0  0  0  0  0  0  0  0
    1.5467   -3.5450    2.4088 H   0  0  0  0  0  0  0  0  0  0  0  0
    2.3531   -1.9720    0.9603 H   0  0  0  0  0  0  0  0  0  0  0  0
    3.9457   -4.2639   -1.2537 H   0  0  0  0  0  0  0  0  0  0  0  0
    2.6275   -3.4392   -3.2230 H   0  0  0  0  0  0  0  0  0  0  0  0
    3.6824   -2.0617   -3.3819 H   0  0  0  0  0  0  0  0  0  0  0  0
    4.4727   -4.7822   -3.5681 H   0  0  0  0  0  0  0  0  0  0  0  0
    6.1857   -3.3288   -1.7129 H   0  0  0  0  0  0  0  0  0  0  0  0
    4.9505   -0.8067   -1.2974 H   0  0  0  0  0  0  0  0  0  0  0  0
    5.7875   -3.6947    0.5626 H   0  0  0  0  0  0  0  0  0  0  0  0
    6.8641   -1.1203    0.5180 H   0  0  0  0  0  0  0  0  0  0  0  0
    4.7173   -2.1238    2.1196 H   0  0  0  0  0  0  0  0  0  0  0  0
    3.8533   -0.1464    1.3080 H   0  0  0  0  0  0  0  0  0  0  0  0
    0.2396   -5.4008    3.2725 H   0  0  0  0  0  0  0  0  0  0  0  0
    1.4345   -5.0446    4.4931 H   0  0  0  0  0  0  0  0  0  0  0  0
    1.1044   -6.7104    4.0642 H   0  0  0  0  0  0  0  0  0  0  0  0
    0.8089   -6.2563    1.0708 H   0  0  0  0  0  0  0  0  0  0  0  0
    2.4090   -6.2535    0.4503 H   0  0  0  0  0  0  0  0  0  0  0  0
    1.0197   -8.1612    2.3065 H   0  0  0  0  0  0  0  0  0  0  0  0
    1.9108   -8.6301    0.9061 H   0  0  0  0  0  0  0  0  0  0  0  0
  1  2  2  0
  1 31  1  0
  1 32  1  0
  2 29  1  0
  2  3  1  0
  3  4  1  0
  3 33  1  0
  3 34  1  0
  4  5  1  0
  4 35  1  0
  4 36  1  0
  5  6  2  0
  5 37  1  0
  6 29  1  0
  6  7  1  0
  7  8  1  0
  7 38  1  0
  7 39  1  0
  9  8  1  6
  8 40  1  0
  8 41  1  0
  9 25  1  0
  9 30  1  0
  9 10  1  0
 10 11  1  0
 10 42  1  0
 10 43  1  0
 11 12  1  0
 12 13  1  0
 12 25  1  0
 12 44  1  6
 13 14  1  0
 14 23  1  0
 14 15  1  0
 14 45  1  1
 15 16  1  0
 16 17  1  0
 16 19  1  0
 16 46  1  1
 17 18  1  0
 17 47  1  0
 17 48  1  0
 18 49  1  0
 19 20  1  0
 19 21  1  0
 19 50  1  6
 20 51  1  0
 21 22  1  0
 21 23  1  0
 21 52  1  1
 22 53  1  0
 23 24  1  0
 23 54  1  1
 24 55  1  0
 25 26  1  1
 25 27  1  0
 26 56  1  0
 26 57  1  0
 26 58  1  0
 27 28  1  0
 27 59  1  0
 27 60  1  0
 29 28  1  6
 28 61  1  0
 28 62  1  0
 29 30  1  0
M  END
>  <i_m_ct_stereo_status>  (141) 
1

>  <s_m_source_file>  (141) 
/var/tmp/pbs.5076253.sched01/tmp4uievzq0/12082cxahoa.sdf

>  <i_m_source_file_index>  (141) 
4

>  <i_lp_mmshare_version>  (141) 
48012

>  <i_f3d_flags>  (141) 
0

>  <s_epik_input>  (141) 
W0NIMl09QzFbQ0gyXVtDSDJdW0NIXT1DKFtDSDJdW0NIMl0yKVtDQEBdMShPMylbQ0gyXVtDSDJdW0NAXShDMjM0KShbQ0gzXSlbQ0BASF0oT1tDSDJdNClPW0NAQEhdNU9bQ0BASF0oW0NIMl1bT0hdKVtDQEBIXShbT0hdKVtDQEBIXShbT0hdKVtDQEhdNVtPSF0=

>  <s_epik_cmdline>  (141) 
J2VwaWtfcHl0aG9uJywgJy1waHQnLCAnMi4wJywgJy1waCcsICc3LjAnLCAnLXRuJywgJzgnLCAnLW1hJywgJzIwMCcsICctaW1hZScsICc8aW5maWxlLm1hZT4nLCAnLW9tYWUnLCAnPG91dGZpbGUubWFlPic=

>  <r_lp_tautomer_probability>  (141) 
1

>  <r_epik_Ionization_Penalty>  (141) 
3.84418e-06

>  <r_epik_Ionization_Penalty_Charging>  (141) 
0

>  <r_epik_Ionization_Penalty_Neutral>  (141) 
3.84418e-06

>  <r_epik_State_Penalty>  (141) 
-0

>  <r_epik_Charging_Adjusted_Penalty>  (141) 
0

>  <i_epik_Tot_Q>  (141) 
0

>  <i_epik_Tot_abs_Q>  (141) 
0

>  <s_epik_Chemistry_Notes>  (141) 
This compound contains an acetal/aminal-like group ( X-CH(R)-Y where X, Y are N, S, or O) that may be acid/base labile, releasing an aldehyde.

>  <s_lp_Force_Field>  (141) 
OPLS3e

>  <r_lp_Energy>  (141) 
31.9532

>  <b_lp_Chiralities_Consistent>  (141) 
1

>  <s_lp_Variant>  (141) 
84:0-1

>  <s_i_glide_gridfile>  (141) 
pfpi4k_grid

>  <i_i_glide_lignum>  (141) 
4

>  <i_i_glide_rotatable_bonds>  (141) 
7

>  <r_i_docking_score>  (141) 
-3.30582

>  <r_i_glide_ligand_efficiency>  (141) 
-0.110194

>  <r_i_glide_ligand_efficiency_sa>  (141) 
-0.342398

>  <r_i_glide_ligand_efficiency_ln>  (141) 
-0.751117

>  <r_i_glide_gscore>  (141) 
-3.30582

>  <r_i_glide_lipo>  (141) 
-0.203566

>  <r_i_glide_hbond>  (141) 
0

>  <r_i_glide_metal>  (141) 
-0

>  <r_i_glide_rewards>  (141) 
-1.01488

>  <r_i_glide_evdw>  (141) 
-26.4726

>  <r_i_glide_ecoul>  (141) 
-7.02422

>  <r_i_glide_erotb>  (141) 
0.330136

>  <r_i_glide_esite>  (141) 
-0.0402474

>  <r_i_glide_emodel>  (141) 
-43.7484

>  <r_i_glide_energy>  (141) 
-33.4968

>  <r_i_glide_einternal>  (141) 
3.96743

>  <r_i_glide_intrahb_reward>  (141) 
-0.5

>  <i_i_glide_confnum>  (141) 
5

>  <i_i_glide_posenum>  (141) 
28

>  <r_i_glide_eff_state_penalty>  (141) 
0

>  <ligand_id>  (141) 
84

>  <original_smiles>  (141) 
C=C1CCC=C2CCC34COC(OC5OC(CO)C(O)C(O)C5O)C3(C)CCC12O4

>  <smiles>  (141) 
[H]OC([H])([H])C1([H])OC([H])(OC2([H])OC([H])([H])C34OC5(C(=C([H])[H])C([H])([H])C([H])([H])C([H])=C5C([H])([H])C3([H])[H])C([H])([H])C([H])([H])C24C([H])([H])[H])C([H])(O[H])C([H])(O[H])C1([H])O[H]

$$$$
88:0:0
     RDKit          3D

 81 90  0  0  1  0  0  0  0  0999 V2000
    0.8677   -2.3224    3.8557 C   0  0  0  0  0  0  0  0  0  0  0  0
    1.7709   -3.4020    3.9242 O   0  0  0  0  0  0  0  0  0  0  0  0
    2.7297   -3.2645    4.9667 C   0  0  0  0  0  0  0  0  0  0  0  0
    3.7647   -4.4359    4.9305 C   0  0  1  0  0  0  0  0  0  0  0  0
    4.0390   -4.7757    6.2771 O   0  0  0  0  0  0  0  0  0  0  0  0
    3.0458   -5.4019    7.1157 C   0  0  0  0  0  0  0  0  0  0  0  0
    3.2870   -5.5006    4.1918 O   0  0  0  0  0  0  0  0  0  0  0  0
    4.3756   -6.1998    3.5522 C   0  0  1  0  0  0  0  0  0  0  0  0
    4.0667   -7.7166    3.7617 C   0  0  2  0  0  0  0  0  0  0  0  0
    3.0190   -8.1052    2.8677 O   0  0  0  0  0  0  0  0  0  0  0  0
    2.8695   -9.4732    2.6118 C   0  0  2  0  0  0  0  0  0  0  0  0
    3.9367   -9.8785    1.8085 O   0  0  0  0  0  0  0  0  0  0  0  0
    1.6764   -9.6206    1.9574 O   0  0  0  0  0  0  0  0  0  0  0  0
    0.7683  -10.2547    2.8289 C   0  0  2  0  0  0  0  0  0  0  0  0
   -0.6163   -9.6051    2.7356 C   0  0  0  0  0  0  0  0  0  0  0  0
   -0.6364   -8.2615    3.4511 C   0  0  1  0  0  0  0  0  0  0  0  0
   -1.9860   -7.5614    3.2718 C   0  0  0  0  0  0  0  0  0  0  0  0
   -0.3120   -8.5222    4.9189 C   0  0  0  0  0  0  0  0  0  0  0  0
    1.1072   -9.0367    5.1380 C   0  0  2  0  0  0  0  0  0  0  0  0
    1.5508   -8.8959    6.6052 C   0  0  1  0  0  0  0  0  0  0  0  0
    2.4051   -9.8612    7.1444 O   0  0  0  0  0  0  0  0  0  0  0  0
    2.1433   -8.0034    5.5312 C   0  0  1  0  0  0  0  0  0  0  0  0
    3.6354   -8.0232    5.1943 C   0  0  0  0  0  0  0  0  0  0  0  0
    4.5047   -8.2316    6.0544 O   0  0  0  0  0  0  0  0  0  0  0  0
    1.4430  -10.2673    4.2202 C   0  0  1  0  0  0  0  0  0  0  0  0
    1.2377  -11.6282    4.9189 C   0  0  0  0  0  0  0  0  0  0  0  0
    2.7875  -10.2446    3.7698 O   0  0  0  0  0  0  0  0  0  0  0  0
    4.6318   -5.7306    2.0989 C   0  0  1  0  0  0  0  0  0  0  0  0
    3.7466   -5.5580    1.1245 O   0  0  0  0  0  0  0  0  0  0  0  0
    3.9960   -4.2910    1.8262 C   0  0  2  0  0  0  0  0  0  0  0  0
    4.9980   -3.5643    2.7935 C   0  0  1  0  0  0  0  0  0  0  0  0
    4.7607   -2.0658    2.8379 C   0  0  0  0  0  0  0  0  0  0  0  0
    4.1963   -1.2405    1.8142 C   0  0  0  0  0  0  0  0  0  0  0  0
    4.1336    0.0154    2.2998 C   0  0  0  0  0  0  0  0  0  0  0  0
    4.6599    0.0874    3.5479 O   0  0  0  0  0  0  0  0  0  0  0  0
    5.0527   -1.1732    3.8500 C   0  0  0  0  0  0  0  0  0  0  0  0
    5.0934   -4.2330    4.2201 C   0  0  1  0  0  0  0  0  0  0  0  0
    6.2261   -4.6137    4.9308 O   0  0  0  0  0  0  0  0  0  0  0  0
    5.7394   -5.6650    4.0718 C   0  0  1  0  0  0  0  0  0  0  0  0
    6.7967   -6.0089    3.0015 C   0  0  0  0  0  0  0  0  0  0  0  0
    7.7654   -5.0893    2.8987 F   0  0  0  0  0  0  0  0  0  0  0  0
    7.3930   -7.1626    3.3409 F   0  0  0  0  0  0  0  0  0  0  0  0
    6.0421   -6.1323    1.6544 C   0  0  0  0  0  0  0  0  0  0  0  0
    6.0794   -7.5810    1.1411 C   0  0  0  0  0  0  0  0  0  0  0  0
    6.6218   -5.3072    0.4725 C   0  0  0  0  0  0  0  0  0  0  0  0
    0.2110   -2.5343    3.0218 H   0  0  0  0  0  0  0  0  0  0  0  0
    1.3899   -1.3872    3.6569 H   0  0  0  0  0  0  0  0  0  0  0  0
    0.2738   -2.2385    4.7682 H   0  0  0  0  0  0  0  0  0  0  0  0
    3.2367   -2.2934    5.0169 H   0  0  0  0  0  0  0  0  0  0  0  0
    2.1565   -3.2731    5.8920 H   0  0  0  0  0  0  0  0  0  0  0  0
    3.3582   -5.2220    8.1821 H   0  0  0  0  0  0  0  0  0  0  0  0
    2.9626   -6.4368    6.9744 H   0  0  0  0  0  0  0  0  0  0  0  0
    2.0470   -4.9523    6.9825 H   0  0  0  0  0  0  0  0  0  0  0  0
    4.9486   -8.3232    3.5551 H   0  0  0  0  0  0  0  0  0  0  0  0
    3.7780  -10.7709    1.4992 H   0  0  0  0  0  0  0  0  0  0  0  0
    0.6831  -11.2729    2.4767 H   0  0  0  0  0  0  0  0  0  0  0  0
   -0.9227   -9.5089    1.6969 H   0  0  0  0  0  0  0  0  0  0  0  0
   -1.3571  -10.2339    3.2202 H   0  0  0  0  0  0  0  0  0  0  0  0
    0.1363   -7.6216    3.0196 H   0  0  0  0  0  0  0  0  0  0  0  0
   -2.8009   -8.1578    3.6803 H   0  0  0  0  0  0  0  0  0  0  0  0
   -2.1911   -7.4034    2.2150 H   0  0  0  0  0  0  0  0  0  0  0  0
   -1.9906   -6.5973    3.7780 H   0  0  0  0  0  0  0  0  0  0  0  0
   -0.4150   -7.5920    5.4627 H   0  0  0  0  0  0  0  0  0  0  0  0
   -1.0268   -9.2097    5.3766 H   0  0  0  0  0  0  0  0  0  0  0  0
    0.8816   -8.4452    7.3230 H   0  0  0  0  0  0  0  0  0  0  0  0
    1.9405  -10.6905    7.2289 H   0  0  0  0  0  0  0  0  0  0  0  0
    1.7859   -6.9616    5.5115 H   0  0  0  0  0  0  0  0  0  0  0  0
    0.2795  -11.6635    5.4336 H   0  0  0  0  0  0  0  0  0  0  0  0
    2.0297  -11.8047    5.6379 H   0  0  0  0  0  0  0  0  0  0  0  0
    1.2837  -12.4641    4.2248 H   0  0  0  0  0  0  0  0  0  0  0  0
    2.9947   -3.9849    2.1109 H   0  0  0  0  0  0  0  0  0  0  0  0
    5.9982   -3.5615    2.3989 H   0  0  0  0  0  0  0  0  0  0  0  0
    3.8564   -1.5423    0.8206 H   0  0  0  0  0  0  0  0  0  0  0  0
    3.7724    0.9667    1.9075 H   0  0  0  0  0  0  0  0  0  0  0  0
    5.4818   -1.2918    4.8338 H   0  0  0  0  0  0  0  0  0  0  0  0
    7.0811   -7.7930    0.7725 H   0  0  0  0  0  0  0  0  0  0  0  0
    5.3357   -7.7453    0.3581 H   0  0  0  0  0  0  0  0  0  0  0  0
    5.9283   -8.3482    1.8909 H   0  0  0  0  0  0  0  0  0  0  0  0
    7.6513   -5.6033    0.2713 H   0  0  0  0  0  0  0  0  0  0  0  0
    6.6267   -4.2338    0.5922 H   0  0  0  0  0  0  0  0  0  0  0  0
    6.0393   -5.5068   -0.4223 H   0  0  0  0  0  0  0  0  0  0  0  0
  1  2  1  0
  1 46  1  0
  1 47  1  0
  1 48  1  0
  2  3  1  0
  3  4  1  0
  3 49  1  0
  3 50  1  0
  4 37  1  0
  4  5  1  1
  4  7  1  0
  5  6  1  0
  6 51  1  0
  6 52  1  0
  6 53  1  0
  8  7  1  1
  8 39  1  0
  8  9  1  0
  8 28  1  0
  9 23  1  0
  9 10  1  0
  9 54  1  6
 10 11  1  0
 11 27  1  0
 11 12  1  6
 11 13  1  0
 12 55  1  0
 13 14  1  0
 14 25  1  0
 14 15  1  0
 14 56  1  6
 15 16  1  0
 15 57  1  0
 15 58  1  0
 16 17  1  0
 16 18  1  0
 16 59  1  6
 17 60  1  0
 17 61  1  0
 17 62  1  0
 19 18  1  1
 18 63  1  0
 18 64  1  0
 19 22  1  0
 19 20  1  0
 19 25  1  0
 20 21  1  0
 20 22  1  0
 20 65  1  1
 21 66  1  0
 22 23  1  0
 22 67  1  1
 23 24  2  0
 25 26  1  1
 25 27  1  0
 26 68  1  0
 26 69  1  0
 26 70  1  0
 28 30  1  0
 28 43  1  0
 28 29  1  6
 29 30  1  0
 30 31  1  0
 30 71  1  1
 31 32  1  0
 31 37  1  0
 31 72  1  6
 32 36  2  0
 32 33  1  0
 33 34  2  0
 33 73  1  0
 34 35  1  0
 34 74  1  0
 35 36  1  0
 36 75  1  0
 37 39  1  0
 37 38  1  1
 39 38  1  1
 39 40  1  0
 40 41  1  0
 40 42  1  0
 40 43  1  0
 43 44  1  0
 43 45  1  0
 44 76  1  0
 44 77  1  0
 44 78  1  0
 45 79  1  0
 45 80  1  0
 45 81  1  0
M  END
>  <i_m_ct_stereo_status>  (142) 
1

>  <s_m_source_file>  (142) 
/var/tmp/pbs.5076253.sched01/tmp4uievzq0/12082cxahoa.sdf

>  <i_m_source_file_index>  (142) 
10

>  <i_lp_mmshare_version>  (142) 
48012

>  <i_f3d_flags>  (142) 
0

>  <s_epik_input>  (142) 
W2NIXTFvW2NIXVtjSF1jMVtDQEhdKFtDQEhdMk8zKVtDQEBdKE80KShbQ0BAXShPNSkoT1tDSDNdKVtDSDJdT1tDSDNdKVtDQF00KEMoRikoRilDNihbQ0gzXSlbQ0gzXSlbQ0BAXTUoW0NAXTIzNilbQ0BASF0oQyg9TylbQ0BASF0oW0NAXTc4OSlbQ0BASF04W09IXSlPW0NAXTEoW09IXSlPW0NAQEhdKFtDQF05KE8xKVtDSDNdKVtDSDJdW0NAQEhdKFtDSDNdKVtDSDJdNw==

>  <s_epik_cmdline>  (142) 
J2VwaWtfcHl0aG9uJywgJy1waHQnLCAnMi4wJywgJy1waCcsICc3LjAnLCAnLXRuJywgJzgnLCAnLW1hJywgJzIwMCcsICctaW1hZScsICc8aW5maWxlLm1hZT4nLCAnLW9tYWUnLCAnPG91dGZpbGUubWFlPic=

>  <r_lp_tautomer_probability>  (142) 
1

>  <r_epik_Ionization_Penalty>  (142) 
0.0124063

>  <r_epik_Ionization_Penalty_Charging>  (142) 
0

>  <r_epik_Ionization_Penalty_Neutral>  (142) 
0.0124063

>  <r_epik_State_Penalty>  (142) 
0.00960103

>  <r_epik_Charging_Adjusted_Penalty>  (142) 
0.00960103

>  <i_epik_Tot_Q>  (142) 
0

>  <i_epik_Tot_abs_Q>  (142) 
0

>  <s_lp_Force_Field>  (142) 
OPLS3e

>  <r_lp_Energy>  (142) 
132.711

>  <b_lp_Chiralities_Consistent>  (142) 
1

>  <s_lp_Variant>  (142) 
88:0-1

>  <s_i_glide_gridfile>  (142) 
pfpi4k_grid

>  <i_i_glide_lignum>  (142) 
10

>  <i_i_glide_rotatable_bonds>  (142) 
7

>  <r_i_docking_score>  (142) 
-2.76431

>  <r_i_glide_ligand_efficiency>  (142) 
-0.0614291

>  <r_i_glide_ligand_efficiency_sa>  (142) 
-0.218497

>  <r_i_glide_ligand_efficiency_ln>  (142) 
-0.575099

>  <r_i_glide_gscore>  (142) 
-2.76431

>  <r_i_glide_lipo>  (142) 
-0.685727

>  <r_i_glide_hbond>  (142) 
0

>  <r_i_glide_metal>  (142) 
-0

>  <r_i_glide_rewards>  (142) 
-0.0116743

>  <r_i_glide_evdw>  (142) 
-20.106

>  <r_i_glide_ecoul>  (142) 
-7.03293

>  <r_i_glide_erotb>  (142) 
0.0118354

>  <r_i_glide_esite>  (142) 
-0.018504

>  <r_i_glide_emodel>  (142) 
-26.8405

>  <r_i_glide_energy>  (142) 
-27.1389

>  <r_i_glide_einternal>  (142) 
5.50157

>  <r_i_glide_intrahb_reward>  (142) 
-0

>  <i_i_glide_confnum>  (142) 
3

>  <i_i_glide_posenum>  (142) 
24

>  <r_i_glide_eff_state_penalty>  (142) 
0

>  <ligand_id>  (142) 
88

>  <original_smiles>  (142) 
COCC1(OC)OC2(C3OC4(O)OC5CC(C)CC6(C(O)C6C3=O)C5(C)O4)C34OC3C(c3ccoc3)C13OC32C(F)(F)C4(C)C

>  <smiles>  (142) 
[H]OC12OC([H])(C34OC(OC([H])([H])[H])(C([H])([H])OC([H])([H])[H])C56OC53C(F)(F)C(C([H])([H])[H])(C([H])([H])[H])C43OC3([H])C6([H])c3c([H])oc([H])c3[H])C(=O)C3([H])C([H])(O[H])C34C([H])([H])C([H])(C([H])([H])[H])C([H])([H])C([H])(O1)C4(C([H])([H])[H])O2

$$$$
88:0:1
     RDKit          3D

 81 90  0  0  1  0  0  0  0  0999 V2000
   -0.3441   -1.9090    4.7883 C   0  0  0  0  0  0  0  0  0  0  0  0
    0.7152   -2.8038    4.5656 O   0  0  0  0  0  0  0  0  0  0  0  0
    1.8517   -2.5221    5.3531 C   0  0  0  0  0  0  0  0  0  0  0  0
    3.0225   -3.4940    5.0085 C   0  0  1  0  0  0  0  0  0  0  0  0
    3.6644   -3.8452    6.2176 O   0  0  0  0  0  0  0  0  0  0  0  0
    3.0148   -4.5886    7.2497 C   0  0  0  0  0  0  0  0  0  0  0  0
    2.5884   -4.5890    4.2893 O   0  0  0  0  0  0  0  0  0  0  0  0
    3.6363   -5.0391    3.3873 C   0  0  1  0  0  0  0  0  0  0  0  0
    3.6804   -6.5997    3.5040 C   0  0  2  0  0  0  0  0  0  0  0  0
    2.6927   -7.1935    2.6747 O   0  0  0  0  0  0  0  0  0  0  0  0
    2.7882   -8.5706    2.4016 C   0  0  2  0  0  0  0  0  0  0  0  0
    3.8362   -8.8201    1.5190 O   0  0  0  0  0  0  0  0  0  0  0  0
    1.5979   -8.9267    1.8269 O   0  0  0  0  0  0  0  0  0  0  0  0
    0.9318   -9.7631    2.7340 C   0  0  2  0  0  0  0  0  0  0  0  0
   -0.5543   -9.4325    2.7510 C   0  0  0  0  0  0  0  0  0  0  0  0
   -0.7956   -8.1416    3.5173 C   0  0  1  0  0  0  0  0  0  0  0  0
   -2.2658   -7.7468    3.4456 C   0  0  0  0  0  0  0  0  0  0  0  0
   -0.3188   -8.3653    4.9545 C   0  0  0  0  0  0  0  0  0  0  0  0
    1.1883   -8.5612    5.0724 C   0  0  2  0  0  0  0  0  0  0  0  0
    1.7093   -8.3791    6.4978 C   0  0  1  0  0  0  0  0  0  0  0  0
    2.7507   -9.2221    6.9316 O   0  0  0  0  0  0  0  0  0  0  0  0
    2.0341   -7.3378    5.4438 C   0  0  1  0  0  0  0  0  0  0  0  0
    3.4822   -7.1018    4.9733 C   0  0  0  0  0  0  0  0  0  0  0  0
    4.4546   -7.2665    5.6747 O   0  0  0  0  0  0  0  0  0  0  0  0
    1.6891   -9.6738    4.0807 C   0  0  1  0  0  0  0  0  0  0  0  0
    1.8230  -11.0659    4.7389 C   0  0  0  0  0  0  0  0  0  0  0  0
    2.9483   -9.3601    3.5399 O   0  0  0  0  0  0  0  0  0  0  0  0
    3.4270   -4.4789    1.9543 C   0  0  1  0  0  0  0  0  0  0  0  0
    2.3131   -4.5093    1.2405 O   0  0  0  0  0  0  0  0  0  0  0  0
    2.4974   -3.2046    1.9272 C   0  0  2  0  0  0  0  0  0  0  0  0
    3.5499   -2.3216    2.7170 C   0  0  1  0  0  0  0  0  0  0  0  0
    3.0820   -0.8780    2.9141 C   0  0  0  0  0  0  0  0  0  0  0  0
    2.2148   -0.1385    2.0596 C   0  0  0  0  0  0  0  0  0  0  0  0
    2.0232    1.0915    2.6571 C   0  0  0  0  0  0  0  0  0  0  0  0
    2.7597    1.1778    3.7886 O   0  0  0  0  0  0  0  0  0  0  0  0
    3.4222   -0.0027    3.9074 C   0  0  0  0  0  0  0  0  0  0  0  0
    4.0786   -3.0164    4.0179 C   0  0  1  0  0  0  0  0  0  0  0  0
    5.3961   -3.1098    4.4126 O   0  0  0  0  0  0  0  0  0  0  0  0
    4.9618   -4.2534    3.6225 C   0  0  1  0  0  0  0  0  0  0  0  0
    5.7680   -4.3542    2.3003 C   0  0  0  0  0  0  0  0  0  0  0  0
    6.4847   -3.2530    2.0633 F   0  0  0  0  0  0  0  0  0  0  0  0
    6.6359   -5.3651    2.4161 F   0  0  0  0  0  0  0  0  0  0  0  0
    4.7392   -4.5897    1.1626 C   0  0  0  0  0  0  0  0  0  0  0  0
    4.9262   -5.9784    0.5226 C   0  0  0  0  0  0  0  0  0  0  0  0
    4.8558   -3.6446   -0.0710 C   0  0  0  0  0  0  0  0  0  0  0  0
   -1.1361   -2.2060    4.1114 H   0  0  0  0  0  0  0  0  0  0  0  0
   -0.0380   -0.8912    4.5528 H   0  0  0  0  0  0  0  0  0  0  0  0
   -0.7075   -1.9655    5.8151 H   0  0  0  0  0  0  0  0  0  0  0  0
    2.1782   -1.4832    5.3510 H   0  0  0  0  0  0  0  0  0  0  0  0
    1.5224   -2.6300    6.3775 H   0  0  0  0  0  0  0  0  0  0  0  0
    3.6176   -4.4553    8.1641 H   0  0  0  0  0  0  0  0  0  0  0  0
    3.0110   -5.6351    7.0405 H   0  0  0  0  0  0  0  0  0  0  0  0
    1.9904   -4.2547    7.4647 H   0  0  0  0  0  0  0  0  0  0  0  0
    4.6304   -6.9951    3.1624 H   0  0  0  0  0  0  0  0  0  0  0  0
    3.8118   -9.7512    1.3210 H   0  0  0  0  0  0  0  0  0  0  0  0
    1.0569  -10.7590    2.3322 H   0  0  0  0  0  0  0  0  0  0  0  0
   -0.9399   -9.3708    1.7322 H   0  0  0  0  0  0  0  0  0  0  0  0
   -1.0794  -10.2574    3.2395 H   0  0  0  0  0  0  0  0  0  0  0  0
   -0.2151   -7.3422    3.0609 H   0  0  0  0  0  0  0  0  0  0  0  0
   -2.8793   -8.5533    3.8394 H   0  0  0  0  0  0  0  0  0  0  0  0
   -2.5684   -7.5824    2.4123 H   0  0  0  0  0  0  0  0  0  0  0  0
   -2.4594   -6.8390    4.0168 H   0  0  0  0  0  0  0  0  0  0  0  0
   -0.5836   -7.4869    5.5436 H   0  0  0  0  0  0  0  0  0  0  0  0
   -0.8343   -9.2180    5.4062 H   0  0  0  0  0  0  0  0  0  0  0  0
    1.0007   -8.1314    7.2814 H   0  0  0  0  0  0  0  0  0  0  0  0
    2.3673  -10.0602    7.1664 H   0  0  0  0  0  0  0  0  0  0  0  0
    1.4433   -6.4239    5.5317 H   0  0  0  0  0  0  0  0  0  0  0  0
    0.9257  -11.3384    5.2969 H   0  0  0  0  0  0  0  0  0  0  0  0
    2.6744  -11.1157    5.4154 H   0  0  0  0  0  0  0  0  0  0  0  0
    2.0135  -11.8415    3.9967 H   0  0  0  0  0  0  0  0  0  0  0  0
    1.5509   -3.0833    2.4458 H   0  0  0  0  0  0  0  0  0  0  0  0
    4.4167   -2.1237    2.1010 H   0  0  0  0  0  0  0  0  0  0  0  0
    1.7588   -0.4450    1.1330 H   0  0  0  0  0  0  0  0  0  0  0  0
    1.4337    1.9499    2.3987 H   0  0  0  0  0  0  0  0  0  0  0  0
    4.0539   -0.0693    4.7805 H   0  0  0  0  0  0  0  0  0  0  0  0
    5.7688   -5.9790   -0.1764 H   0  0  0  0  0  0  0  0  0  0  0  0
    4.0479   -6.3007   -0.0457 H   0  0  0  0  0  0  0  0  0  0  0  0
    5.1533   -6.7357    1.2655 H   0  0  0  0  0  0  0  0  0  0  0  0
    5.8526   -3.7326   -0.5141 H   0  0  0  0  0  0  0  0  0  0  0  0
    4.6860   -2.5937    0.1316 H   0  0  0  0  0  0  0  0  0  0  0  0
    4.1461   -3.9441   -0.8480 H   0  0  0  0  0  0  0  0  0  0  0  0
  1  2  1  0
  1 46  1  0
  1 47  1  0
  1 48  1  0
  2  3  1  0
  3  4  1  0
  3 49  1  0
  3 50  1  0
  4 37  1  0
  4  5  1  1
  4  7  1  0
  5  6  1  0
  6 51  1  0
  6 52  1  0
  6 53  1  0
  8  7  1  1
  8 39  1  0
  8  9  1  0
  8 28  1  0
  9 23  1  0
  9 10  1  0
  9 54  1  6
 10 11  1  0
 11 27  1  0
 11 12  1  6
 11 13  1  0
 12 55  1  0
 13 14  1  0
 14 25  1  0
 14 15  1  0
 14 56  1  6
 15 16  1  0
 15 57  1  0
 15 58  1  0
 16 17  1  0
 16 18  1  0
 16 59  1  6
 17 60  1  0
 17 61  1  0
 17 62  1  0
 19 18  1  1
 18 63  1  0
 18 64  1  0
 19 22  1  0
 19 20  1  0
 19 25  1  0
 20 21  1  0
 20 22  1  0
 20 65  1  1
 21 66  1  0
 22 23  1  0
 22 67  1  1
 23 24  2  0
 25 26  1  1
 25 27  1  0
 26 68  1  0
 26 69  1  0
 26 70  1  0
 28 30  1  0
 28 43  1  0
 28 29  1  6
 29 30  1  0
 30 31  1  0
 30 71  1  1
 31 32  1  0
 31 37  1  0
 31 72  1  6
 32 36  2  0
 32 33  1  0
 33 34  2  0
 33 73  1  0
 34 35  1  0
 34 74  1  0
 35 36  1  0
 36 75  1  0
 37 39  1  0
 37 38  1  1
 39 38  1  1
 39 40  1  0
 40 41  1  0
 40 42  1  0
 40 43  1  0
 43 44  1  0
 43 45  1  0
 44 76  1  0
 44 77  1  0
 44 78  1  0
 45 79  1  0
 45 80  1  0
 45 81  1  0
M  END
>  <i_m_ct_stereo_status>  (143) 
1

>  <s_m_source_file>  (143) 
/var/tmp/pbs.5076253.sched01/tmp4uievzq0/12082cxahoa.sdf

>  <i_m_source_file_index>  (143) 
10

>  <i_lp_mmshare_version>  (143) 
48012

>  <i_f3d_flags>  (143) 
0

>  <s_epik_input>  (143) 
W2NIXTFvW2NIXVtjSF1jMVtDQEhdKFtDQEhdMk8zKVtDQEBdKE80KShbQ0BAXShPNSkoT1tDSDNdKVtDSDJdT1tDSDNdKVtDQF00KEMoRikoRilDNihbQ0gzXSlbQ0gzXSlbQ0BAXTUoW0NAXTIzNilbQ0BASF0oQyg9TylbQ0BASF0oW0NAXTc4OSlbQ0BASF04W09IXSlPW0NAXTEoW09IXSlPW0NAQEhdKFtDQF05KE8xKVtDSDNdKVtDSDJdW0NAQEhdKFtDSDNdKVtDSDJdNw==

>  <s_epik_cmdline>  (143) 
J2VwaWtfcHl0aG9uJywgJy1waHQnLCAnMi4wJywgJy1waCcsICc3LjAnLCAnLXRuJywgJzgnLCAnLW1hJywgJzIwMCcsICctaW1hZScsICc8aW5maWxlLm1hZT4nLCAnLW9tYWUnLCAnPG91dGZpbGUubWFlPic=

>  <r_lp_tautomer_probability>  (143) 
1

>  <r_epik_Ionization_Penalty>  (143) 
0.0124063

>  <r_epik_Ionization_Penalty_Charging>  (143) 
0

>  <r_epik_Ionization_Penalty_Neutral>  (143) 
0.0124063

>  <r_epik_State_Penalty>  (143) 
0.00960103

>  <r_epik_Charging_Adjusted_Penalty>  (143) 
0.00960103

>  <i_epik_Tot_Q>  (143) 
0

>  <i_epik_Tot_abs_Q>  (143) 
0

>  <s_lp_Force_Field>  (143) 
OPLS3e

>  <r_lp_Energy>  (143) 
132.711

>  <b_lp_Chiralities_Consistent>  (143) 
1

>  <s_lp_Variant>  (143) 
88:0-1

>  <s_i_glide_gridfile>  (143) 
pfpi4k_grid

>  <i_i_glide_lignum>  (143) 
10

>  <i_i_glide_rotatable_bonds>  (143) 
7

>  <r_i_docking_score>  (143) 
-2.22127

>  <r_i_glide_ligand_efficiency>  (143) 
-0.0493615

>  <r_i_glide_ligand_efficiency_sa>  (143) 
-0.175574

>  <r_i_glide_ligand_efficiency_ln>  (143) 
-0.462123

>  <r_i_glide_gscore>  (143) 
-2.22127

>  <r_i_glide_lipo>  (143) 
-0.321803

>  <r_i_glide_hbond>  (143) 
-0.000827939

>  <r_i_glide_metal>  (143) 
-0

>  <r_i_glide_rewards>  (143) 
-0.0746051

>  <r_i_glide_evdw>  (143) 
-26.9245

>  <r_i_glide_ecoul>  (143) 
-3.19811

>  <r_i_glide_erotb>  (143) 
0.0118354

>  <r_i_glide_esite>  (143) 
-0.00992744

>  <r_i_glide_emodel>  (143) 
-30.5459

>  <r_i_glide_energy>  (143) 
-30.1226

>  <r_i_glide_einternal>  (143) 
6.54205

>  <r_i_glide_intrahb_reward>  (143) 
-0

>  <i_i_glide_confnum>  (143) 
3

>  <i_i_glide_posenum>  (143) 
8

>  <r_i_glide_eff_state_penalty>  (143) 
0

>  <ligand_id>  (143) 
88

>  <original_smiles>  (143) 
COCC1(OC)OC2(C3OC4(O)OC5CC(C)CC6(C(O)C6C3=O)C5(C)O4)C34OC3C(c3ccoc3)C13OC32C(F)(F)C4(C)C

>  <smiles>  (143) 
[H]OC12OC([H])(C34OC(OC([H])([H])[H])(C([H])([H])OC([H])([H])[H])C56OC53C(F)(F)C(C([H])([H])[H])(C([H])([H])[H])C43OC3([H])C6([H])c3c([H])oc([H])c3[H])C(=O)C3([H])C([H])(O[H])C34C([H])([H])C([H])(C([H])([H])[H])C([H])([H])C([H])(O1)C4(C([H])([H])[H])O2

$$$$
88:0:2
     RDKit          3D

 81 90  0  0  1  0  0  0  0  0999 V2000
   -0.3777   -2.8671    5.6121 C   0  0  0  0  0  0  0  0  0  0  0  0
    0.6909   -3.7827    5.7086 O   0  0  0  0  0  0  0  0  0  0  0  0
    1.9604   -3.2219    5.4015 C   0  0  0  0  0  0  0  0  0  0  0  0
    3.0314   -4.3246    5.6015 C   0  0  1  0  0  0  0  0  0  0  0  0
    2.9124   -4.8916    6.8864 O   0  0  0  0  0  0  0  0  0  0  0  0
    2.9824   -4.0025    7.9951 C   0  0  0  0  0  0  0  0  0  0  0  0
    2.8476   -5.3026    4.6612 O   0  0  0  0  0  0  0  0  0  0  0  0
    4.1180   -5.9581    4.3892 C   0  0  1  0  0  0  0  0  0  0  0  0
    3.8208   -7.4720    4.4102 C   0  0  2  0  0  0  0  0  0  0  0  0
    2.8824   -7.7945    3.3882 O   0  0  0  0  0  0  0  0  0  0  0  0
    2.7975   -9.1202    2.9849 C   0  0  2  0  0  0  0  0  0  0  0  0
    3.9328   -9.4695    2.2233 O   0  0  0  0  0  0  0  0  0  0  0  0
    1.6704   -9.2191    2.1941 O   0  0  0  0  0  0  0  0  0  0  0  0
    0.7141   -9.9589    2.9220 C   0  0  2  0  0  0  0  0  0  0  0  0
   -0.6781   -9.3628    2.7677 C   0  0  0  0  0  0  0  0  0  0  0  0
   -0.7908   -8.0942    3.5961 C   0  0  1  0  0  0  0  0  0  0  0  0
   -2.1398   -7.4253    3.4048 C   0  0  0  0  0  0  0  0  0  0  0  0
   -0.5604   -8.4202    5.0612 C   0  0  0  0  0  0  0  0  0  0  0  0
    0.8375   -8.9320    5.3592 C   0  0  2  0  0  0  0  0  0  0  0  0
    1.1420   -8.9472    6.8606 C   0  0  1  0  0  0  0  0  0  0  0  0
    2.1245   -9.7928    7.4247 O   0  0  0  0  0  0  0  0  0  0  0  0
    1.7810   -7.8780    5.9944 C   0  0  1  0  0  0  0  0  0  0  0  0
    3.2803   -7.8666    5.7840 C   0  0  0  0  0  0  0  0  0  0  0  0
    4.1138   -8.0732    6.6884 O   0  0  0  0  0  0  0  0  0  0  0  0
    1.2673  -10.0802    4.3651 C   0  0  1  0  0  0  0  0  0  0  0  0
    1.0426  -11.5163    4.8846 C   0  0  0  0  0  0  0  0  0  0  0  0
    2.6439  -10.0076    4.0439 O   0  0  0  0  0  0  0  0  0  0  0  0
    4.7472   -5.3951    3.1217 C   0  0  1  0  0  0  0  0  0  0  0  0
    4.1996   -5.2022    1.9043 O   0  0  0  0  0  0  0  0  0  0  0  0
    4.1332   -3.9819    2.7660 C   0  0  2  0  0  0  0  0  0  0  0  0
    4.7603   -3.2766    4.0081 C   0  0  1  0  0  0  0  0  0  0  0  0
    4.4222   -1.7935    4.0628 C   0  0  0  0  0  0  0  0  0  0  0  0
    3.8980   -0.9806    3.0029 C   0  0  0  0  0  0  0  0  0  0  0  0
    3.7609    0.2733    3.5001 C   0  0  0  0  0  0  0  0  0  0  0  0
    4.2020    0.3356    4.7857 O   0  0  0  0  0  0  0  0  0  0  0  0
    4.5961   -0.9289    5.1087 C   0  0  0  0  0  0  0  0  0  0  0  0
    4.4756   -4.0545    5.3303 C   0  0  1  0  0  0  0  0  0  0  0  0
    5.3786   -4.3312    6.3159 O   0  0  0  0  0  0  0  0  0  0  0  0
    5.2166   -5.4490    5.3621 C   0  0  1  0  0  0  0  0  0  0  0  0
    6.5326   -5.7615    4.6616 C   0  0  0  0  0  0  0  0  0  0  0  0
    7.4259   -4.8397    5.1278 F   0  0  0  0  0  0  0  0  0  0  0  0
    6.9826   -6.9349    5.0614 F   0  0  0  0  0  0  0  0  0  0  0  0
    6.2418   -5.7417    3.1163 C   0  0  0  0  0  0  0  0  0  0  0  0
    6.5571   -7.1377    2.4954 C   0  0  0  0  0  0  0  0  0  0  0  0
    7.0705   -4.8339    2.1104 C   0  0  0  0  0  0  0  0  0  0  0  0
   -1.2987   -3.3568    5.9411 H   0  0  0  0  0  0  0  0  0  0  0  0
   -0.5161   -2.5270    4.5839 H   0  0  0  0  0  0  0  0  0  0  0  0
   -0.2249   -2.0064    6.2599 H   0  0  0  0  0  0  0  0  0  0  0  0
    1.9310   -2.8406    4.3833 H   0  0  0  0  0  0  0  0  0  0  0  0
    2.1590   -2.3679    6.0487 H   0  0  0  0  0  0  0  0  0  0  0  0
    3.1645   -4.5953    8.8883 H   0  0  0  0  0  0  0  0  0  0  0  0
    2.0382   -3.4854    8.1391 H   0  0  0  0  0  0  0  0  0  0  0  0
    3.7786   -3.2630    7.9235 H   0  0  0  0  0  0  0  0  0  0  0  0
    4.6952   -8.0993    4.2495 H   0  0  0  0  0  0  0  0  0  0  0  0
    3.7553  -10.3026    1.8239 H   0  0  0  0  0  0  0  0  0  0  0  0
    0.7018  -10.9440    2.4594 H   0  0  0  0  0  0  0  0  0  0  0  0
   -0.8972   -9.1618    1.7192 H   0  0  0  0  0  0  0  0  0  0  0  0
   -1.4138  -10.0957    3.1107 H   0  0  0  0  0  0  0  0  0  0  0  0
   -0.0056   -7.3983    3.2812 H   0  0  0  0  0  0  0  0  0  0  0  0
   -2.9640   -8.0880    3.6575 H   0  0  0  0  0  0  0  0  0  0  0  0
   -2.2444   -7.1118    2.3701 H   0  0  0  0  0  0  0  0  0  0  0  0
   -2.1850   -6.5488    4.0465 H   0  0  0  0  0  0  0  0  0  0  0  0
   -0.6826   -7.5012    5.6354 H   0  0  0  0  0  0  0  0  0  0  0  0
   -1.2942   -9.1269    5.4564 H   0  0  0  0  0  0  0  0  0  0  0  0
    0.3587   -8.6712    7.5547 H   0  0  0  0  0  0  0  0  0  0  0  0
    1.7858  -10.7030    7.4345 H   0  0  0  0  0  0  0  0  0  0  0  0
    1.3405   -6.8894    6.1400 H   0  0  0  0  0  0  0  0  0  0  0  0
    0.0639  -11.6614    5.3251 H   0  0  0  0  0  0  0  0  0  0  0  0
    1.7934  -11.7664    5.6387 H   0  0  0  0  0  0  0  0  0  0  0  0
    1.1583  -12.2627    4.1015 H   0  0  0  0  0  0  0  0  0  0  0  0
    3.0608   -3.7409    2.7491 H   0  0  0  0  0  0  0  0  0  0  0  0
    5.8431   -3.2279    3.9145 H   0  0  0  0  0  0  0  0  0  0  0  0
    3.6586   -1.2721    1.9825 H   0  0  0  0  0  0  0  0  0  0  0  0
    3.3939    1.2001    3.0857 H   0  0  0  0  0  0  0  0  0  0  0  0
    5.0003   -1.0220    6.0976 H   0  0  0  0  0  0  0  0  0  0  0  0
    7.6343   -7.2682    2.3829 H   0  0  0  0  0  0  0  0  0  0  0  0
    6.1137   -7.2615    1.4963 H   0  0  0  0  0  0  0  0  0  0  0  0
    6.2425   -7.9951    3.0921 H   0  0  0  0  0  0  0  0  0  0  0  0
    8.1359   -4.9431    2.3164 H   0  0  0  0  0  0  0  0  0  0  0  0
    6.8713   -3.7731    2.1112 H   0  0  0  0  0  0  0  0  0  0  0  0
    6.9214   -5.1468    1.0665 H   0  0  0  0  0  0  0  0  0  0  0  0
  1  2  1  0
  1 46  1  0
  1 47  1  0
  1 48  1  0
  2  3  1  0
  3  4  1  0
  3 49  1  0
  3 50  1  0
  4 37  1  0
  4  5  1  1
  4  7  1  0
  5  6  1  0
  6 51  1  0
  6 52  1  0
  6 53  1  0
  8  7  1  1
  8 39  1  0
  8  9  1  0
  8 28  1  0
  9 23  1  0
  9 10  1  0
  9 54  1  6
 10 11  1  0
 11 27  1  0
 11 12  1  6
 11 13  1  0
 12 55  1  0
 13 14  1  0
 14 25  1  0
 14 15  1  0
 14 56  1  6
 15 16  1  0
 15 57  1  0
 15 58  1  0
 16 17  1  0
 16 18  1  0
 16 59  1  6
 17 60  1  0
 17 61  1  0
 17 62  1  0
 19 18  1  1
 18 63  1  0
 18 64  1  0
 19 22  1  0
 19 20  1  0
 19 25  1  0
 20 21  1  0
 20 22  1  0
 20 65  1  1
 21 66  1  0
 22 23  1  0
 22 67  1  1
 23 24  2  0
 25 26  1  1
 25 27  1  0
 26 68  1  0
 26 69  1  0
 26 70  1  0
 28 30  1  0
 28 43  1  0
 28 29  1  6
 29 30  1  0
 30 31  1  0
 30 71  1  1
 31 32  1  0
 31 37  1  0
 31 72  1  6
 32 36  2  0
 32 33  1  0
 33 34  2  0
 33 73  1  0
 34 35  1  0
 34 74  1  0
 35 36  1  0
 36 75  1  0
 37 39  1  0
 37 38  1  1
 39 38  1  1
 39 40  1  0
 40 41  1  0
 40 42  1  0
 40 43  1  0
 43 44  1  0
 43 45  1  0
 44 76  1  0
 44 77  1  0
 44 78  1  0
 45 79  1  0
 45 80  1  0
 45 81  1  0
M  END
>  <i_m_ct_stereo_status>  (144) 
1

>  <s_m_source_file>  (144) 
/var/tmp/pbs.5076253.sched01/tmp4uievzq0/12082cxahoa.sdf

>  <i_m_source_file_index>  (144) 
10

>  <i_lp_mmshare_version>  (144) 
48012

>  <i_f3d_flags>  (144) 
0

>  <s_epik_input>  (144) 
W2NIXTFvW2NIXVtjSF1jMVtDQEhdKFtDQEhdMk8zKVtDQEBdKE80KShbQ0BAXShPNSkoT1tDSDNdKVtDSDJdT1tDSDNdKVtDQF00KEMoRikoRilDNihbQ0gzXSlbQ0gzXSlbQ0BAXTUoW0NAXTIzNilbQ0BASF0oQyg9TylbQ0BASF0oW0NAXTc4OSlbQ0BASF04W09IXSlPW0NAXTEoW09IXSlPW0NAQEhdKFtDQF05KE8xKVtDSDNdKVtDSDJdW0NAQEhdKFtDSDNdKVtDSDJdNw==

>  <s_epik_cmdline>  (144) 
J2VwaWtfcHl0aG9uJywgJy1waHQnLCAnMi4wJywgJy1waCcsICc3LjAnLCAnLXRuJywgJzgnLCAnLW1hJywgJzIwMCcsICctaW1hZScsICc8aW5maWxlLm1hZT4nLCAnLW9tYWUnLCAnPG91dGZpbGUubWFlPic=

>  <r_lp_tautomer_probability>  (144) 
1

>  <r_epik_Ionization_Penalty>  (144) 
0.0124063

>  <r_epik_Ionization_Penalty_Charging>  (144) 
0

>  <r_epik_Ionization_Penalty_Neutral>  (144) 
0.0124063

>  <r_epik_State_Penalty>  (144) 
0.00960103

>  <r_epik_Charging_Adjusted_Penalty>  (144) 
0.00960103

>  <i_epik_Tot_Q>  (144) 
0

>  <i_epik_Tot_abs_Q>  (144) 
0

>  <s_lp_Force_Field>  (144) 
OPLS3e

>  <r_lp_Energy>  (144) 
132.711

>  <b_lp_Chiralities_Consistent>  (144) 
1

>  <s_lp_Variant>  (144) 
88:0-1

>  <s_i_glide_gridfile>  (144) 
pfpi4k_grid

>  <i_i_glide_lignum>  (144) 
10

>  <i_i_glide_rotatable_bonds>  (144) 
7

>  <r_i_docking_score>  (144) 
-2.1519

>  <r_i_glide_ligand_efficiency>  (144) 
-0.0478199

>  <r_i_glide_ligand_efficiency_sa>  (144) 
-0.17009

>  <r_i_glide_ligand_efficiency_ln>  (144) 
-0.44769

>  <r_i_glide_gscore>  (144) 
-2.1519

>  <r_i_glide_lipo>  (144) 
-0.238544

>  <r_i_glide_hbond>  (144) 
0

>  <r_i_glide_metal>  (144) 
-0

>  <r_i_glide_rewards>  (144) 
-0.0122828

>  <r_i_glide_evdw>  (144) 
-19.9562

>  <r_i_glide_ecoul>  (144) 
-6.0383

>  <r_i_glide_erotb>  (144) 
0.0118354

>  <r_i_glide_esite>  (144) 
-0.00934956

>  <r_i_glide_emodel>  (144) 
-27.085

>  <r_i_glide_energy>  (144) 
-25.9945

>  <r_i_glide_einternal>  (144) 
3.3904

>  <r_i_glide_intrahb_reward>  (144) 
-0

>  <i_i_glide_confnum>  (144) 
3

>  <i_i_glide_posenum>  (144) 
39

>  <r_i_glide_eff_state_penalty>  (144) 
0

>  <ligand_id>  (144) 
88

>  <original_smiles>  (144) 
COCC1(OC)OC2(C3OC4(O)OC5CC(C)CC6(C(O)C6C3=O)C5(C)O4)C34OC3C(c3ccoc3)C13OC32C(F)(F)C4(C)C

>  <smiles>  (144) 
[H]OC12OC([H])(C34OC(OC([H])([H])[H])(C([H])([H])OC([H])([H])[H])C56OC53C(F)(F)C(C([H])([H])[H])(C([H])([H])[H])C43OC3([H])C6([H])c3c([H])oc([H])c3[H])C(=O)C3([H])C([H])(O[H])C34C([H])([H])C([H])(C([H])([H])[H])C([H])([H])C([H])(O1)C4(C([H])([H])[H])O2

$$$$
88:1:0
     RDKit          3D

 80 89  0  0  1  0  0  0  0  0999 V2000
    3.9119   -0.9850    0.0380 C   0  0  0  0  0  0  0  0  0  0  0  0
    3.7711   -1.5095    1.3514 O   0  0  0  0  0  0  0  0  0  0  0  0
    4.8254   -1.0763    2.2161 C   0  0  0  0  0  0  0  0  0  0  0  0
    4.5717   -1.5954    3.6668 C   0  0  1  0  0  0  0  0  0  0  0  0
    5.4433   -0.8924    4.5119 O   0  0  0  0  0  0  0  0  0  0  0  0
    5.3550    0.5303    4.7413 C   0  0  0  0  0  0  0  0  0  0  0  0
    3.2441   -1.4690    4.0491 O   0  0  0  0  0  0  0  0  0  0  0  0
    2.8924   -2.5177    4.9900 C   0  0  1  0  0  0  0  0  0  0  0  0
    2.0941   -1.7973    6.1408 C   0  0  2  0  0  0  0  0  0  0  0  0
    0.7962   -1.4478    5.6513 O   0  0  0  0  0  0  0  0  0  0  0  0
   -0.1834   -1.1283    6.6105 C   0  0  2  0  0  0  0  0  0  0  0  0
   -0.5951   -2.2483    7.2002 O   0  0  0  0  0  0  0  0  0  0  0  0
   -1.2456   -0.5199    5.9661 O   0  0  0  0  0  0  0  0  0  0  0  0
   -1.3255    0.7846    6.4418 C   0  0  2  0  0  0  0  0  0  0  0  0
   -1.6831    1.7492    5.3102 C   0  0  0  0  0  0  0  0  0  0  0  0
   -0.4983    1.9378    4.3835 C   0  0  1  0  0  0  0  0  0  0  0  0
   -0.8721    2.7928    3.1685 C   0  0  0  0  0  0  0  0  0  0  0  0
    0.6258    2.5614    5.2164 C   0  0  0  0  0  0  0  0  0  0  0  0
    1.1637    1.6432    6.3208 C   0  0  2  0  0  0  0  0  0  0  0  0
    2.5221    2.0839    6.8333 C   0  0  1  0  0  0  0  0  0  0  0  0
    2.7580    1.9691    8.2230 O   0  0  0  0  0  0  0  0  0  0  0  0
    2.4170    0.8215    6.0079 C   0  0  1  0  0  0  0  0  0  0  0  0
    2.8153   -0.5266    6.6118 C   0  0  0  0  0  0  0  0  0  0  0  0
    3.7056   -0.6031    7.4438 O   0  0  0  0  0  0  0  0  0  0  0  0
   -0.0037    1.0716    7.2066 C   0  0  1  0  0  0  0  0  0  0  0  0
   -0.2562    1.8906    8.4888 C   0  0  0  0  0  0  0  0  0  0  0  0
    0.2450   -0.2371    7.6001 O   0  0  0  0  0  0  0  0  0  0  0  0
    2.1953   -3.7247    4.3038 C   0  0  1  0  0  0  0  0  0  0  0  0
    1.1822   -3.7096    3.4676 O   0  0  0  0  0  0  0  0  0  0  0  0
    2.4635   -3.7505    2.7337 C   0  0  2  0  0  0  0  0  0  0  0  0
    4.0131   -4.0528    2.9277 C   0  0  1  0  0  0  0  0  0  0  0  0
    4.7864   -4.1973    1.6140 C   0  0  0  0  0  0  0  0  0  0  0  0
    4.2421   -4.1741    0.2838 C   0  0  0  0  0  0  0  0  0  0  0  0
    5.2907   -4.3006   -0.5657 C   0  0  0  0  0  0  0  0  0  0  0  0
    6.4534   -4.4587    0.1068 O   0  0  0  0  0  0  0  0  0  0  0  0
    6.1178   -4.4220    1.4192 C   0  0  0  0  0  0  0  0  0  0  0  0
    4.7249   -3.0897    3.9437 C   0  0  1  0  0  0  0  0  0  0  0  0
    5.5329   -3.4237    4.9944 O   0  0  0  0  0  0  0  0  0  0  0  0
    4.1520   -3.3327    5.3919 C   0  0  1  0  0  0  0  0  0  0  0  0
    3.6475   -4.7178    5.8711 C   0  0  0  0  0  0  0  0  0  0  0  0
    4.4878   -5.7069    5.5549 F   0  0  0  0  0  0  0  0  0  0  0  0
    3.5188   -4.6792    7.2060 F   0  0  0  0  0  0  0  0  0  0  0  0
    2.2640   -4.9590    5.2013 C   0  0  0  0  0  0  0  0  0  0  0  0
    1.0885   -4.9542    6.2106 C   0  0  0  0  0  0  0  0  0  0  0  0
    2.0841   -6.3023    4.4495 C   0  0  0  0  0  0  0  0  0  0  0  0
    3.0879   -1.4201   -0.5075 H   0  0  0  0  0  0  0  0  0  0  0  0
    4.8535   -1.2936   -0.4286 H   0  0  0  0  0  0  0  0  0  0  0  0
    3.8374    0.1121    0.0399 H   0  0  0  0  0  0  0  0  0  0  0  0
    5.8415   -1.3872    1.9022 H   0  0  0  0  0  0  0  0  0  0  0  0
    4.8048    0.0182    2.1873 H   0  0  0  0  0  0  0  0  0  0  0  0
    6.3613    0.8807    5.0862 H   0  0  0  0  0  0  0  0  0  0  0  0
    4.5731    0.7817    5.4849 H   0  0  0  0  0  0  0  0  0  0  0  0
    5.1000    1.0784    3.8223 H   0  0  0  0  0  0  0  0  0  0  0  0
    2.0084   -2.4557    7.0061 H   0  0  0  0  0  0  0  0  0  0  0  0
   -2.1296    0.7852    7.1515 H   0  0  0  0  0  0  0  0  0  0  0  0
   -2.5397    1.3748    4.7524 H   0  0  0  0  0  0  0  0  0  0  0  0
   -1.9635    2.7112    5.7493 H   0  0  0  0  0  0  0  0  0  0  0  0
   -0.1778    0.9676    4.0123 H   0  0  0  0  0  0  0  0  0  0  0  0
   -1.2053    3.7906    3.4572 H   0  0  0  0  0  0  0  0  0  0  0  0
   -1.6663    2.3268    2.5825 H   0  0  0  0  0  0  0  0  0  0  0  0
   -0.0082    2.9105    2.5110 H   0  0  0  0  0  0  0  0  0  0  0  0
    1.4542    2.7641    4.5507 H   0  0  0  0  0  0  0  0  0  0  0  0
    0.3103    3.5143    5.6354 H   0  0  0  0  0  0  0  0  0  0  0  0
    3.0114    2.9496    6.3828 H   0  0  0  0  0  0  0  0  0  0  0  0
    3.6817    1.7987    8.3339 H   0  0  0  0  0  0  0  0  0  0  0  0
    2.7861    0.8769    4.9903 H   0  0  0  0  0  0  0  0  0  0  0  0
   -0.3125    2.9579    8.2600 H   0  0  0  0  0  0  0  0  0  0  0  0
    0.5434    1.7471    9.2082 H   0  0  0  0  0  0  0  0  0  0  0  0
   -1.1719    1.5911    8.9936 H   0  0  0  0  0  0  0  0  0  0  0  0
    2.3623   -2.9036    2.0424 H   0  0  0  0  0  0  0  0  0  0  0  0
    4.1767   -5.0299    3.3115 H   0  0  0  0  0  0  0  0  0  0  0  0
    3.2171   -4.0323   -0.0140 H   0  0  0  0  0  0  0  0  0  0  0  0
    5.3724   -4.2728   -1.6534 H   0  0  0  0  0  0  0  0  0  0  0  0
    6.9760   -4.5606    2.0925 H   0  0  0  0  0  0  0  0  0  0  0  0
    1.0658   -5.9020    6.7476 H   0  0  0  0  0  0  0  0  0  0  0  0
    0.1208   -4.8365    5.7192 H   0  0  0  0  0  0  0  0  0  0  0  0
    1.1576   -4.1923    6.9765 H   0  0  0  0  0  0  0  0  0  0  0  0
    2.2220   -7.1289    5.1472 H   0  0  0  0  0  0  0  0  0  0  0  0
    2.7665   -6.4777    3.6233 H   0  0  0  0  0  0  0  0  0  0  0  0
    1.0719   -6.3962    4.0455 H   0  0  0  0  0  0  0  0  0  0  0  0
  1  2  1  0
  1 46  1  0
  1 47  1  0
  1 48  1  0
  2  3  1  0
  3  4  1  0
  3 49  1  0
  3 50  1  0
  4 37  1  0
  4  5  1  1
  4  7  1  0
  5  6  1  0
  6 51  1  0
  6 52  1  0
  6 53  1  0
  8  7  1  6
  8 39  1  0
  8  9  1  0
  8 28  1  0
  9 23  1  0
  9 10  1  0
  9 54  1  1
 10 11  1  0
 11 27  1  0
 11 12  1  1
 11 13  1  0
 13 14  1  0
 14 25  1  0
 14 15  1  0
 14 55  1  1
 15 16  1  0
 15 56  1  0
 15 57  1  0
 16 17  1  0
 16 18  1  0
 16 58  1  6
 17 59  1  0
 17 60  1  0
 17 61  1  0
 19 18  1  6
 18 62  1  0
 18 63  1  0
 19 22  1  0
 19 20  1  0
 19 25  1  0
 20 21  1  0
 20 22  1  0
 20 64  1  6
 21 65  1  0
 22 23  1  0
 22 66  1  6
 23 24  2  0
 25 26  1  1
 25 27  1  0
 26 67  1  0
 26 68  1  0
 26 69  1  0
 28 30  1  0
 28 43  1  0
 28 29  1  6
 29 30  1  0
 30 31  1  0
 30 70  1  6
 31 32  1  0
 31 37  1  0
 31 71  1  1
 32 36  2  0
 32 33  1  0
 33 34  2  0
 33 72  1  0
 34 35  1  0
 34 73  1  0
 35 36  1  0
 36 74  1  0
 37 39  1  0
 37 38  1  1
 39 38  1  1
 39 40  1  0
 40 41  1  0
 40 42  1  0
 40 43  1  0
 43 44  1  0
 43 45  1  0
 44 75  1  0
 44 76  1  0
 44 77  1  0
 45 78  1  0
 45 79  1  0
 45 80  1  0
M  CHG  1  12  -1
M  END
>  <i_m_ct_stereo_status>  (145) 
1

>  <s_m_source_file>  (145) 
/var/tmp/pbs.5076253.sched01/tmp4uievzq0/12082cxahoa.sdf

>  <i_m_source_file_index>  (145) 
11

>  <i_lp_mmshare_version>  (145) 
48012

>  <i_f3d_flags>  (145) 
0

>  <s_epik_input>  (145) 
W2NIXTFvW2NIXVtjSF1jMVtDQEhdKFtDQEhdMk8zKVtDQEBdKE80KShbQ0BAXShPNSkoT1tDSDNdKVtDSDJdT1tDSDNdKVtDQF00KEMoRikoRilDNihbQ0gzXSlbQ0gzXSlbQ0BAXTUoW0NAXTIzNilbQ0BASF0oQyg9TylbQ0BASF0oW0NAXTc4OSlbQ0BASF04W09IXSlPW0NAXTEoW09IXSlPW0NAQEhdKFtDQF05KE8xKVtDSDNdKVtDSDJdW0NAQEhdKFtDSDNdKVtDSDJdNw==

>  <s_epik_cmdline>  (145) 
J2VwaWtfcHl0aG9uJywgJy1waHQnLCAnMi4wJywgJy1waCcsICc3LjAnLCAnLXRuJywgJzgnLCAnLW1hJywgJzIwMCcsICctaW1hZScsICc8aW5maWxlLm1hZT4nLCAnLW9tYWUnLCAnPG91dGZpbGUubWFlPic=

>  <r_lp_tautomer_probability>  (145) 
1

>  <r_epik_Ionization_Penalty>  (145) 
2.29685

>  <r_epik_Ionization_Penalty_Charging>  (145) 
2.29685

>  <r_epik_Ionization_Penalty_Neutral>  (145) 
2.57521e-07

>  <r_epik_State_Penalty>  (145) 
2.44729

>  <r_epik_Charging_Adjusted_Penalty>  (145) 
4.74414

>  <i_epik_Tot_Q>  (145) 
-1

>  <i_epik_Tot_abs_Q>  (145) 
1

>  <s_lp_Force_Field>  (145) 
OPLS3e

>  <r_lp_Energy>  (145) 
130.669

>  <b_lp_Chiralities_Consistent>  (145) 
1

>  <s_lp_Variant>  (145) 
88:0-2

>  <s_i_glide_gridfile>  (145) 
pfpi4k_grid

>  <i_i_glide_lignum>  (145) 
11

>  <i_i_glide_rotatable_bonds>  (145) 
6

>  <r_i_docking_score>  (145) 
-1.94987

>  <r_i_glide_ligand_efficiency>  (145) 
-0.0433305

>  <r_i_glide_ligand_efficiency_sa>  (145) 
-0.154122

>  <r_i_glide_ligand_efficiency_ln>  (145) 
-0.405661

>  <r_i_glide_gscore>  (145) 
-1.94987

>  <r_i_glide_lipo>  (145) 
-0.407912

>  <r_i_glide_hbond>  (145) 
-0.0800218

>  <r_i_glide_metal>  (145) 
-0

>  <r_i_glide_rewards>  (145) 
-0.0477382

>  <r_i_glide_evdw>  (145) 
-20.7574

>  <r_i_glide_ecoul>  (145) 
-2.29207

>  <r_i_glide_erotb>  (145) 
0.0129204

>  <r_i_glide_esite>  (145) 
-0.0454397

>  <r_i_glide_emodel>  (145) 
-23.5361

>  <r_i_glide_energy>  (145) 
-23.0495

>  <r_i_glide_einternal>  (145) 
3.46449

>  <r_i_glide_intrahb_reward>  (145) 
-0

>  <i_i_glide_confnum>  (145) 
1

>  <i_i_glide_posenum>  (145) 
24

>  <r_i_glide_eff_state_penalty>  (145) 
0

>  <ligand_id>  (145) 
88

>  <original_smiles>  (145) 
COCC1(OC)OC2(C3OC4(O)OC5CC(C)CC6(C(O)C6C3=O)C5(C)O4)C34OC3C(c3ccoc3)C13OC32C(F)(F)C4(C)C

>  <smiles>  (145) 
[H]OC1([H])C2([H])C(=O)C([H])(C34OC(OC([H])([H])[H])(C([H])([H])OC([H])([H])[H])C56OC53C(F)(F)C(C([H])([H])[H])(C([H])([H])[H])C43OC3([H])C6([H])c3c([H])oc([H])c3[H])OC3([O-])OC4([H])C([H])([H])C([H])(C([H])([H])[H])C([H])([H])C12C4(C([H])([H])[H])O3

$$$$
88:1:1
     RDKit          3D

 80 89  0  0  1  0  0  0  0  0999 V2000
    3.3086   -1.9035   -0.2630 C   0  0  0  0  0  0  0  0  0  0  0  0
    3.2288   -2.0950    1.1352 O   0  0  0  0  0  0  0  0  0  0  0  0
    4.3034   -1.5054    1.8410 C   0  0  0  0  0  0  0  0  0  0  0  0
    4.2912   -1.8450    3.3823 C   0  0  1  0  0  0  0  0  0  0  0  0
    5.1095   -0.9066    4.0845 O   0  0  0  0  0  0  0  0  0  0  0  0
    6.2048   -0.2586    3.4392 C   0  0  0  0  0  0  0  0  0  0  0  0
    3.0190   -1.7616    3.8489 O   0  0  0  0  0  0  0  0  0  0  0  0
    2.8556   -2.6087    5.0144 C   0  0  1  0  0  0  0  0  0  0  0  0
    2.1226   -1.7332    6.0803 C   0  0  2  0  0  0  0  0  0  0  0  0
    0.8040   -1.4286    5.6072 O   0  0  0  0  0  0  0  0  0  0  0  0
   -0.1397   -1.0204    6.5440 C   0  0  2  0  0  0  0  0  0  0  0  0
   -0.5536   -2.0724    7.2431 O   0  0  0  0  0  0  0  0  0  0  0  0
   -1.2144   -0.4912    5.8750 O   0  0  0  0  0  0  0  0  0  0  0  0
   -1.2847    0.8748    6.1995 C   0  0  2  0  0  0  0  0  0  0  0  0
   -1.6889    1.7015    4.9841 C   0  0  0  0  0  0  0  0  0  0  0  0
   -0.5342    1.7750    4.0014 C   0  0  1  0  0  0  0  0  0  0  0  0
   -0.9420    2.4925    2.7150 C   0  0  0  0  0  0  0  0  0  0  0  0
    0.6387    2.4584    4.7174 C   0  0  0  0  0  0  0  0  0  0  0  0
    1.2146    1.6724    5.8865 C   0  0  2  0  0  0  0  0  0  0  0  0
    2.5856    2.1712    6.3290 C   0  0  1  0  0  0  0  0  0  0  0  0
    2.8294    2.2246    7.7098 O   0  0  0  0  0  0  0  0  0  0  0  0
    2.4834    0.8404    5.6242 C   0  0  1  0  0  0  0  0  0  0  0  0
    2.8855   -0.4355    6.3714 C   0  0  0  0  0  0  0  0  0  0  0  0
    3.8300   -0.4506    7.1628 O   0  0  0  0  0  0  0  0  0  0  0  0
    0.0683    1.2257    6.8668 C   0  0  1  0  0  0  0  0  0  0  0  0
   -0.1558    2.1968    8.0472 C   0  0  0  0  0  0  0  0  0  0  0  0
    0.3263   -0.0472    7.4137 O   0  0  0  0  0  0  0  0  0  0  0  0
    2.2107   -3.9578    4.6370 C   0  0  1  0  0  0  0  0  0  0  0  0
    1.1051   -4.1883    3.9533 O   0  0  0  0  0  0  0  0  0  0  0  0
    2.3171   -4.2758    3.1125 C   0  0  2  0  0  0  0  0  0  0  0  0
    3.9220   -4.4003    3.1521 C   0  0  1  0  0  0  0  0  0  0  0  0
    4.5693   -4.7742    1.8222 C   0  0  0  0  0  0  0  0  0  0  0  0
    3.9275   -4.9545    0.5741 C   0  0  0  0  0  0  0  0  0  0  0  0
    4.9293   -5.1485   -0.3551 C   0  0  0  0  0  0  0  0  0  0  0  0
    6.1320   -5.2391    0.2600 O   0  0  0  0  0  0  0  0  0  0  0  0
    5.8984   -5.0459    1.5857 C   0  0  0  0  0  0  0  0  0  0  0  0
    4.6099   -3.2182    3.8912 C   0  0  1  0  0  0  0  0  0  0  0  0
    5.5667   -3.2931    4.8868 O   0  0  0  0  0  0  0  0  0  0  0  0
    4.2144   -3.2570    5.4134 C   0  0  1  0  0  0  0  0  0  0  0  0
    3.8850   -4.5401    6.2031 C   0  0  0  0  0  0  0  0  0  0  0  0
    4.7998   -5.4838    5.9882 F   0  0  0  0  0  0  0  0  0  0  0  0
    3.8866   -4.2543    7.5034 F   0  0  0  0  0  0  0  0  0  0  0  0
    2.4811   -4.9877    5.7307 C   0  0  0  0  0  0  0  0  0  0  0  0
    1.4102   -4.9223    6.8484 C   0  0  0  0  0  0  0  0  0  0  0  0
    2.3820   -6.4732    5.2554 C   0  0  0  0  0  0  0  0  0  0  0  0
    2.5387   -2.5537   -0.6866 H   0  0  0  0  0  0  0  0  0  0  0  0
    4.2501   -2.2247   -0.6906 H   0  0  0  0  0  0  0  0  0  0  0  0
    3.1074   -0.8916   -0.5973 H   0  0  0  0  0  0  0  0  0  0  0  0
    5.2336   -1.7781    1.3833 H   0  0  0  0  0  0  0  0  0  0  0  0
    4.1628   -0.4420    1.7054 H   0  0  0  0  0  0  0  0  0  0  0  0
    6.8709    0.1949    4.1675 H   0  0  0  0  0  0  0  0  0  0  0  0
    5.8211    0.5412    2.8118 H   0  0  0  0  0  0  0  0  0  0  0  0
    6.7901   -0.9388    2.8324 H   0  0  0  0  0  0  0  0  0  0  0  0
    2.0353   -2.2388    7.0393 H   0  0  0  0  0  0  0  0  0  0  0  0
   -2.0740    0.9507    6.9415 H   0  0  0  0  0  0  0  0  0  0  0  0
   -2.5662    1.2711    4.4946 H   0  0  0  0  0  0  0  0  0  0  0  0
   -1.9638    2.7025    5.3237 H   0  0  0  0  0  0  0  0  0  0  0  0
   -0.2423    0.7607    3.7330 H   0  0  0  0  0  0  0  0  0  0  0  0
   -1.2523    3.5239    2.8867 H   0  0  0  0  0  0  0  0  0  0  0  0
   -1.7600    1.9690    2.2158 H   0  0  0  0  0  0  0  0  0  0  0  0
   -0.0977    2.5058    2.0306 H   0  0  0  0  0  0  0  0  0  0  0  0
    1.4412    2.5994    3.9938 H   0  0  0  0  0  0  0  0  0  0  0  0
    0.3461    3.4447    5.0839 H   0  0  0  0  0  0  0  0  0  0  0  0
    3.0389    3.0033    5.7885 H   0  0  0  0  0  0  0  0  0  0  0  0
    2.3450    1.5082    8.1235 H   0  0  0  0  0  0  0  0  0  0  0  0
    2.8349    0.8507    4.5949 H   0  0  0  0  0  0  0  0  0  0  0  0
   -0.2298    3.2303    7.7033 H   0  0  0  0  0  0  0  0  0  0  0  0
    0.6400    2.1403    8.7899 H   0  0  0  0  0  0  0  0  0  0  0  0
   -1.0664    1.9583    8.5998 H   0  0  0  0  0  0  0  0  0  0  0  0
    2.0287   -3.6409    2.2765 H   0  0  0  0  0  0  0  0  0  0  0  0
    4.2114   -5.2811    3.7141 H   0  0  0  0  0  0  0  0  0  0  0  0
    2.8762   -4.8896    0.3279 H   0  0  0  0  0  0  0  0  0  0  0  0
    4.9165   -5.2006   -1.4242 H   0  0  0  0  0  0  0  0  0  0  0  0
    6.7935   -5.1085    2.1831 H   0  0  0  0  0  0  0  0  0  0  0  0
    1.5352   -5.7554    7.5406 H   0  0  0  0  0  0  0  0  0  0  0  0
    0.3922   -4.9843    6.4409 H   0  0  0  0  0  0  0  0  0  0  0  0
    1.4413   -4.0316    7.4676 H   0  0  0  0  0  0  0  0  0  0  0  0
    2.6657   -7.1487    6.0673 H   0  0  0  0  0  0  0  0  0  0  0  0
    2.9993   -6.7325    4.3993 H   0  0  0  0  0  0  0  0  0  0  0  0
    1.3497   -6.7241    4.9807 H   0  0  0  0  0  0  0  0  0  0  0  0
  1  2  1  0
  1 46  1  0
  1 47  1  0
  1 48  1  0
  2  3  1  0
  3  4  1  0
  3 49  1  0
  3 50  1  0
  4 37  1  0
  4  5  1  1
  4  7  1  0
  5  6  1  0
  6 51  1  0
  6 52  1  0
  6 53  1  0
  8  7  1  6
  8 39  1  0
  8  9  1  0
  8 28  1  0
  9 23  1  0
  9 10  1  0
  9 54  1  1
 10 11  1  0
 11 27  1  0
 11 12  1  1
 11 13  1  0
 13 14  1  0
 14 25  1  0
 14 15  1  0
 14 55  1  1
 15 16  1  0
 15 56  1  0
 15 57  1  0
 16 17  1  0
 16 18  1  0
 16 58  1  6
 17 59  1  0
 17 60  1  0
 17 61  1  0
 19 18  1  6
 18 62  1  0
 18 63  1  0
 19 22  1  0
 19 20  1  0
 19 25  1  0
 20 21  1  0
 20 22  1  0
 20 64  1  6
 21 65  1  0
 22 23  1  0
 22 66  1  6
 23 24  2  0
 25 26  1  1
 25 27  1  0
 26 67  1  0
 26 68  1  0
 26 69  1  0
 28 30  1  0
 28 43  1  0
 28 29  1  6
 29 30  1  0
 30 31  1  0
 30 70  1  6
 31 32  1  0
 31 37  1  0
 31 71  1  1
 32 36  2  0
 32 33  1  0
 33 34  2  0
 33 72  1  0
 34 35  1  0
 34 73  1  0
 35 36  1  0
 36 74  1  0
 37 39  1  0
 37 38  1  1
 39 38  1  1
 39 40  1  0
 40 41  1  0
 40 42  1  0
 40 43  1  0
 43 44  1  0
 43 45  1  0
 44 75  1  0
 44 76  1  0
 44 77  1  0
 45 78  1  0
 45 79  1  0
 45 80  1  0
M  CHG  1  12  -1
M  END
>  <i_m_ct_stereo_status>  (146) 
1

>  <s_m_source_file>  (146) 
/var/tmp/pbs.5076253.sched01/tmp4uievzq0/12082cxahoa.sdf

>  <i_m_source_file_index>  (146) 
11

>  <i_lp_mmshare_version>  (146) 
48012

>  <i_f3d_flags>  (146) 
0

>  <s_epik_input>  (146) 
W2NIXTFvW2NIXVtjSF1jMVtDQEhdKFtDQEhdMk8zKVtDQEBdKE80KShbQ0BAXShPNSkoT1tDSDNdKVtDSDJdT1tDSDNdKVtDQF00KEMoRikoRilDNihbQ0gzXSlbQ0gzXSlbQ0BAXTUoW0NAXTIzNilbQ0BASF0oQyg9TylbQ0BASF0oW0NAXTc4OSlbQ0BASF04W09IXSlPW0NAXTEoW09IXSlPW0NAQEhdKFtDQF05KE8xKVtDSDNdKVtDSDJdW0NAQEhdKFtDSDNdKVtDSDJdNw==

>  <s_epik_cmdline>  (146) 
J2VwaWtfcHl0aG9uJywgJy1waHQnLCAnMi4wJywgJy1waCcsICc3LjAnLCAnLXRuJywgJzgnLCAnLW1hJywgJzIwMCcsICctaW1hZScsICc8aW5maWxlLm1hZT4nLCAnLW9tYWUnLCAnPG91dGZpbGUubWFlPic=

>  <r_lp_tautomer_probability>  (146) 
1

>  <r_epik_Ionization_Penalty>  (146) 
2.29685

>  <r_epik_Ionization_Penalty_Charging>  (146) 
2.29685

>  <r_epik_Ionization_Penalty_Neutral>  (146) 
2.57521e-07

>  <r_epik_State_Penalty>  (146) 
2.44729

>  <r_epik_Charging_Adjusted_Penalty>  (146) 
4.74414

>  <i_epik_Tot_Q>  (146) 
-1

>  <i_epik_Tot_abs_Q>  (146) 
1

>  <s_lp_Force_Field>  (146) 
OPLS3e

>  <r_lp_Energy>  (146) 
130.669

>  <b_lp_Chiralities_Consistent>  (146) 
1

>  <s_lp_Variant>  (146) 
88:0-2

>  <s_i_glide_gridfile>  (146) 
pfpi4k_grid

>  <i_i_glide_lignum>  (146) 
11

>  <i_i_glide_rotatable_bonds>  (146) 
6

>  <r_i_docking_score>  (146) 
-1.88139

>  <r_i_glide_ligand_efficiency>  (146) 
-0.0418087

>  <r_i_glide_ligand_efficiency_sa>  (146) 
-0.148709

>  <r_i_glide_ligand_efficiency_ln>  (146) 
-0.391413

>  <r_i_glide_gscore>  (146) 
-1.88139

>  <r_i_glide_lipo>  (146) 
-0.267613

>  <r_i_glide_hbond>  (146) 
-0.0580342

>  <r_i_glide_metal>  (146) 
-0

>  <r_i_glide_rewards>  (146) 
-0.0194179

>  <r_i_glide_evdw>  (146) 
-19.487

>  <r_i_glide_ecoul>  (146) 
-3.55359

>  <r_i_glide_erotb>  (146) 
0.0129204

>  <r_i_glide_esite>  (146) 
-0.0418567

>  <r_i_glide_emodel>  (146) 
-22.2556

>  <r_i_glide_energy>  (146) 
-23.0406

>  <r_i_glide_einternal>  (146) 
7.11994

>  <r_i_glide_intrahb_reward>  (146) 
-0

>  <i_i_glide_confnum>  (146) 
1

>  <i_i_glide_posenum>  (146) 
16

>  <r_i_glide_eff_state_penalty>  (146) 
0

>  <ligand_id>  (146) 
88

>  <original_smiles>  (146) 
COCC1(OC)OC2(C3OC4(O)OC5CC(C)CC6(C(O)C6C3=O)C5(C)O4)C34OC3C(c3ccoc3)C13OC32C(F)(F)C4(C)C

>  <smiles>  (146) 
[H]OC1([H])C2([H])C(=O)C([H])(C34OC(OC([H])([H])[H])(C([H])([H])OC([H])([H])[H])C56OC53C(F)(F)C(C([H])([H])[H])(C([H])([H])[H])C43OC3([H])C6([H])c3c([H])oc([H])c3[H])OC3([O-])OC4([H])C([H])([H])C([H])(C([H])([H])[H])C([H])([H])C12C4(C([H])([H])[H])O3

$$$$
88:1:2
     RDKit          3D

 80 89  0  0  1  0  0  0  0  0999 V2000
   -2.5915   -1.2892    5.7876 C   0  0  0  0  0  0  0  0  0  0  0  0
   -1.3090   -1.7336    5.4757 O   0  0  0  0  0  0  0  0  0  0  0  0
   -0.4631   -1.8071    6.5825 C   0  0  0  0  0  0  0  0  0  0  0  0
    0.9855   -1.8050    6.0709 C   0  0  1  0  0  0  0  0  0  0  0  0
    1.7737   -2.4437    7.0429 O   0  0  0  0  0  0  0  0  0  0  0  0
    1.6254   -3.8570    7.2011 C   0  0  0  0  0  0  0  0  0  0  0  0
    1.0928   -2.4220    4.8492 O   0  0  0  0  0  0  0  0  0  0  0  0
    2.1694   -1.8430    4.1004 C   0  0  1  0  0  0  0  0  0  0  0  0
    2.9428   -3.1061    3.5857 C   0  0  2  0  0  0  0  0  0  0  0  0
    4.1666   -2.7238    3.0956 O   0  0  0  0  0  0  0  0  0  0  0  0
    5.2081   -3.6034    2.8439 C   0  0  2  0  0  0  0  0  0  0  0  0
    5.7483   -3.9725    3.9155 O   0  0  0  0  0  0  0  0  0  0  0  0
    6.0481   -2.9571    1.9409 O   0  0  0  0  0  0  0  0  0  0  0  0
    6.0968   -3.6735    0.7213 C   0  0  2  0  0  0  0  0  0  0  0  0
    6.2724   -2.8240   -0.5710 C   0  0  0  0  0  0  0  0  0  0  0  0
    4.9779   -2.0705   -0.8389 C   0  0  1  0  0  0  0  0  0  0  0  0
    5.0647   -1.0268   -1.9678 C   0  0  0  0  0  0  0  0  0  0  0  0
    3.8330   -3.0879   -1.0594 C   0  0  0  0  0  0  0  0  0  0  0  0
    3.5554   -3.9594    0.1794 C   0  0  2  0  0  0  0  0  0  0  0  0
    2.2360   -4.7062    0.0383 C   0  0  1  0  0  0  0  0  0  0  0  0
    2.1568   -6.0249    0.5464 O   0  0  0  0  0  0  0  0  0  0  0  0
    2.3356   -3.5897    1.0647 C   0  0  1  0  0  0  0  0  0  0  0  0
    2.1609   -3.9125    2.5336 C   0  0  0  0  0  0  0  0  0  0  0  0
    1.3406   -4.7655    2.9154 O   0  0  0  0  0  0  0  0  0  0  0  0
    4.8507   -4.5910    0.7829 C   0  0  1  0  0  0  0  0  0  0  0  0
    5.1713   -5.9930    0.2266 C   0  0  0  0  0  0  0  0  0  0  0  0
    4.7544   -4.7630    2.1713 O   0  0  0  0  0  0  0  0  0  0  0  0
    1.6990   -0.7262    3.1129 C   0  0  1  0  0  0  0  0  0  0  0  0
    0.6998   -0.7492    2.2025 O   0  0  0  0  0  0  0  0  0  0  0  0
    0.2716   -0.1514    3.5074 C   0  0  2  0  0  0  0  0  0  0  0  0
    0.8048    0.5083    4.8237 C   0  0  1  0  0  0  0  0  0  0  0  0
   -0.2703    1.2648    5.5944 C   0  0  0  0  0  0  0  0  0  0  0  0
   -1.3317    2.0728    5.0509 C   0  0  0  0  0  0  0  0  0  0  0  0
   -2.0761    2.4919    6.1068 C   0  0  0  0  0  0  0  0  0  0  0  0
   -1.5623    2.0433    7.2792 O   0  0  0  0  0  0  0  0  0  0  0  0
   -0.4372    1.3621    6.9393 C   0  0  0  0  0  0  0  0  0  0  0  0
    1.6549   -0.4855    5.7122 C   0  0  1  0  0  0  0  0  0  0  0  0
    2.8780   -0.2534    6.3005 O   0  0  0  0  0  0  0  0  0  0  0  0
    2.9841   -0.8232    4.9654 C   0  0  1  0  0  0  0  0  0  0  0  0
    3.7075    0.1438    4.0215 C   0  0  0  0  0  0  0  0  0  0  0  0
    3.8130    1.3720    4.5369 F   0  0  0  0  0  0  0  0  0  0  0  0
    4.9479   -0.2892    3.8026 F   0  0  0  0  0  0  0  0  0  0  0  0
    2.8753    0.1793    2.7060 C   0  0  0  0  0  0  0  0  0  0  0  0
    3.5945   -0.3294    1.5078 C   0  0  0  0  0  0  0  0  0  0  0  0
    2.4722    1.5779    2.1753 C   0  0  0  0  0  0  0  0  0  0  0  0
   -3.1467   -1.1682    4.8740 H   0  0  0  0  0  0  0  0  0  0  0  0
   -2.6081   -0.3344    6.3258 H   0  0  0  0  0  0  0  0  0  0  0  0
   -3.0414   -2.0574    6.4077 H   0  0  0  0  0  0  0  0  0  0  0  0
   -0.5760   -1.0549    7.3642 H   0  0  0  0  0  0  0  0  0  0  0  0
   -0.7350   -2.7282    7.0868 H   0  0  0  0  0  0  0  0  0  0  0  0
    2.0802   -4.1488    8.1490 H   0  0  0  0  0  0  0  0  0  0  0  0
    2.1268   -4.4019    6.4024 H   0  0  0  0  0  0  0  0  0  0  0  0
    0.5974   -4.2121    7.2406 H   0  0  0  0  0  0  0  0  0  0  0  0
    3.1135   -3.7814    4.4388 H   0  0  0  0  0  0  0  0  0  0  0  0
    7.0002   -4.2767    0.8118 H   0  0  0  0  0  0  0  0  0  0  0  0
    7.0666   -2.0930   -0.4069 H   0  0  0  0  0  0  0  0  0  0  0  0
    6.5413   -3.4443   -1.4264 H   0  0  0  0  0  0  0  0  0  0  0  0
    4.8637   -1.5064    0.0216 H   0  0  0  0  0  0  0  0  0  0  0  0
    5.3101   -1.4514   -2.9377 H   0  0  0  0  0  0  0  0  0  0  0  0
    5.8040   -0.2940   -1.6749 H   0  0  0  0  0  0  0  0  0  0  0  0
    4.1201   -0.4725   -2.0362 H   0  0  0  0  0  0  0  0  0  0  0  0
    2.9227   -2.5268   -1.2835 H   0  0  0  0  0  0  0  0  0  0  0  0
    4.0299   -3.7312   -1.9134 H   0  0  0  0  0  0  0  0  0  0  0  0
    1.6163   -4.5610   -0.8466 H   0  0  0  0  0  0  0  0  0  0  0  0
    2.9391   -6.4718    0.2938 H   0  0  0  0  0  0  0  0  0  0  0  0
    1.8172   -2.6790    0.7665 H   0  0  0  0  0  0  0  0  0  0  0  0
    5.0804   -6.0130   -0.8558 H   0  0  0  0  0  0  0  0  0  0  0  0
    4.5192   -6.7555    0.6424 H   0  0  0  0  0  0  0  0  0  0  0  0
    6.1761   -6.3106    0.5007 H   0  0  0  0  0  0  0  0  0  0  0  0
   -0.5956   -0.7410    3.7109 H   0  0  0  0  0  0  0  0  0  0  0  0
    1.4514    1.3452    4.5979 H   0  0  0  0  0  0  0  0  0  0  0  0
   -1.5287    2.2934    4.0153 H   0  0  0  0  0  0  0  0  0  0  0  0
   -2.9741    3.0901    6.2137 H   0  0  0  0  0  0  0  0  0  0  0  0
    0.1039    0.9463    7.7898 H   0  0  0  0  0  0  0  0  0  0  0  0
    4.3480    0.3754    1.1209 H   0  0  0  0  0  0  0  0  0  0  0  0
    2.9171   -0.6368    0.6804 H   0  0  0  0  0  0  0  0  0  0  0  0
    4.2117   -1.1616    1.7337 H   0  0  0  0  0  0  0  0  0  0  0  0
    3.3950    2.1297    2.0010 H   0  0  0  0  0  0  0  0  0  0  0  0
    1.8446    2.2056    2.7932 H   0  0  0  0  0  0  0  0  0  0  0  0
    1.9659    1.4641    1.2066 H   0  0  0  0  0  0  0  0  0  0  0  0
  1  2  1  0
  1 46  1  0
  1 47  1  0
  1 48  1  0
  2  3  1  0
  3  4  1  0
  3 49  1  0
  3 50  1  0
  4 37  1  0
  4  5  1  1
  4  7  1  0
  5  6  1  0
  6 51  1  0
  6 52  1  0
  6 53  1  0
  8  7  1  1
  8 39  1  0
  8  9  1  0
  8 28  1  0
  9 23  1  0
  9 10  1  0
  9 54  1  1
 10 11  1  0
 11 27  1  0
 11 12  1  1
 11 13  1  0
 13 14  1  0
 14 25  1  0
 14 15  1  0
 14 55  1  1
 15 16  1  0
 15 56  1  0
 15 57  1  0
 16 17  1  0
 16 18  1  0
 16 58  1  1
 17 59  1  0
 17 60  1  0
 17 61  1  0
 19 18  1  6
 18 62  1  0
 18 63  1  0
 19 22  1  0
 19 20  1  0
 19 25  1  0
 20 21  1  0
 20 22  1  0
 20 64  1  6
 21 65  1  0
 22 23  1  0
 22 66  1  6
 23 24  2  0
 25 26  1  6
 25 27  1  0
 26 67  1  0
 26 68  1  0
 26 69  1  0
 28 30  1  0
 28 43  1  0
 28 29  1  6
 29 30  1  0
 30 31  1  0
 30 70  1  1
 31 32  1  0
 31 37  1  0
 31 71  1  6
 32 36  2  0
 32 33  1  0
 33 34  2  0
 33 72  1  0
 34 35  1  0
 34 73  1  0
 35 36  1  0
 36 74  1  0
 37 39  1  0
 37 38  1  1
 39 38  1  1
 39 40  1  0
 40 41  1  0
 40 42  1  0
 40 43  1  0
 43 44  1  0
 43 45  1  0
 44 75  1  0
 44 76  1  0
 44 77  1  0
 45 78  1  0
 45 79  1  0
 45 80  1  0
M  CHG  1  12  -1
M  END
>  <i_m_ct_stereo_status>  (147) 
1

>  <s_m_source_file>  (147) 
/var/tmp/pbs.5076253.sched01/tmp4uievzq0/12082cxahoa.sdf

>  <i_m_source_file_index>  (147) 
11

>  <i_lp_mmshare_version>  (147) 
48012

>  <i_f3d_flags>  (147) 
0

>  <s_epik_input>  (147) 
W2NIXTFvW2NIXVtjSF1jMVtDQEhdKFtDQEhdMk8zKVtDQEBdKE80KShbQ0BAXShPNSkoT1tDSDNdKVtDSDJdT1tDSDNdKVtDQF00KEMoRikoRilDNihbQ0gzXSlbQ0gzXSlbQ0BAXTUoW0NAXTIzNilbQ0BASF0oQyg9TylbQ0BASF0oW0NAXTc4OSlbQ0BASF04W09IXSlPW0NAXTEoW09IXSlPW0NAQEhdKFtDQF05KE8xKVtDSDNdKVtDSDJdW0NAQEhdKFtDSDNdKVtDSDJdNw==

>  <s_epik_cmdline>  (147) 
J2VwaWtfcHl0aG9uJywgJy1waHQnLCAnMi4wJywgJy1waCcsICc3LjAnLCAnLXRuJywgJzgnLCAnLW1hJywgJzIwMCcsICctaW1hZScsICc8aW5maWxlLm1hZT4nLCAnLW9tYWUnLCAnPG91dGZpbGUubWFlPic=

>  <r_lp_tautomer_probability>  (147) 
1

>  <r_epik_Ionization_Penalty>  (147) 
2.29685

>  <r_epik_Ionization_Penalty_Charging>  (147) 
2.29685

>  <r_epik_Ionization_Penalty_Neutral>  (147) 
2.57521e-07

>  <r_epik_State_Penalty>  (147) 
2.44729

>  <r_epik_Charging_Adjusted_Penalty>  (147) 
4.74414

>  <i_epik_Tot_Q>  (147) 
-1

>  <i_epik_Tot_abs_Q>  (147) 
1

>  <s_lp_Force_Field>  (147) 
OPLS3e

>  <r_lp_Energy>  (147) 
130.669

>  <b_lp_Chiralities_Consistent>  (147) 
1

>  <s_lp_Variant>  (147) 
88:0-2

>  <s_i_glide_gridfile>  (147) 
pfpi4k_grid

>  <i_i_glide_lignum>  (147) 
11

>  <i_i_glide_rotatable_bonds>  (147) 
6

>  <r_i_docking_score>  (147) 
-1.25683

>  <r_i_glide_ligand_efficiency>  (147) 
-0.0279295

>  <r_i_glide_ligand_efficiency_sa>  (147) 
-0.0993421

>  <r_i_glide_ligand_efficiency_ln>  (147) 
-0.261476

>  <r_i_glide_gscore>  (147) 
-1.25683

>  <r_i_glide_lipo>  (147) 
-0.331297

>  <r_i_glide_hbond>  (147) 
0

>  <r_i_glide_metal>  (147) 
-0

>  <r_i_glide_rewards>  (147) 
-0.190063

>  <r_i_glide_evdw>  (147) 
-24.1551

>  <r_i_glide_ecoul>  (147) 
0.60499

>  <r_i_glide_erotb>  (147) 
0.0129204

>  <r_i_glide_esite>  (147) 
-0.0170024

>  <r_i_glide_emodel>  (147) 
-18.645

>  <r_i_glide_energy>  (147) 
-23.5501

>  <r_i_glide_einternal>  (147) 
6.84266

>  <r_i_glide_intrahb_reward>  (147) 
-0

>  <i_i_glide_confnum>  (147) 
1

>  <i_i_glide_posenum>  (147) 
6

>  <r_i_glide_eff_state_penalty>  (147) 
0

>  <ligand_id>  (147) 
88

>  <original_smiles>  (147) 
COCC1(OC)OC2(C3OC4(O)OC5CC(C)CC6(C(O)C6C3=O)C5(C)O4)C34OC3C(c3ccoc3)C13OC32C(F)(F)C4(C)C

>  <smiles>  (147) 
[H]OC1([H])C2([H])C(=O)C([H])(C34OC(OC([H])([H])[H])(C([H])([H])OC([H])([H])[H])C56OC53C(F)(F)C(C([H])([H])[H])(C([H])([H])[H])C43OC3([H])C6([H])c3c([H])oc([H])c3[H])OC3([O-])OC4([H])C([H])([H])C([H])(C([H])([H])[H])C([H])([H])C12C4(C([H])([H])[H])O3

$$$$
89:0:0
     RDKit          3D

124142  0  0  1  0  0  0  0  0999 V2000
    5.9735    4.0674    6.2243 C   0  0  0  0  0  0  0  0  0  0  0  0
    4.8162    3.0818    6.0274 C   0  0  0  0  0  0  0  0  0  0  0  0
    5.1788    1.6890    6.5486 C   0  0  2  0  0  0  0  0  0  0  0  0
    5.7718    0.9450    5.5422 O   0  0  0  0  0  0  0  0  0  0  0  0
    5.4870   -0.4142    5.8585 C   0  0  1  0  0  0  0  0  0  0  0  0
    6.5914   -0.8234    6.8640 C   0  0  1  0  0  0  0  0  0  0  0  0
    7.8182   -0.1861    6.6810 O   0  0  0  0  0  0  0  0  0  0  0  0
    6.1707   -0.9943    8.2373 O   0  0  0  0  0  0  0  0  0  0  0  0
    6.8094   -2.1161    7.5845 C   0  0  1  0  0  0  0  0  0  0  0  0
    5.9706   -3.3502    7.3123 C   0  0  1  0  0  0  0  0  0  0  0  0
    4.6850   -3.3376    8.1339 C   0  0  0  0  0  0  0  0  0  0  0  0
    3.5458   -2.7231    7.3362 C   0  0  2  0  0  0  0  0  0  0  0  0
    3.4522   -3.1856    5.9929 O   0  0  0  0  0  0  0  0  0  0  0  0
    4.5177   -3.9424    5.5101 C   0  0  1  0  0  0  0  0  0  0  0  0
    5.7597   -3.4371    5.9035 O   0  0  0  0  0  0  0  0  0  0  0  0
    4.3626   -5.4586    5.7512 C   0  0  2  0  0  0  0  0  0  0  0  0
    5.3965   -6.0343    4.9514 O   0  0  0  0  0  0  0  0  0  0  0  0
    5.5618   -5.1757    3.8330 C   0  0  0  0  0  0  0  0  0  0  0  0
    4.3927   -4.1532    3.9932 C   0  0  2  0  0  0  0  0  0  0  0  0
    4.4741   -2.9204    3.2366 O   0  0  0  0  0  0  0  0  0  0  0  0
    4.3425   -2.8682    1.8288 C   0  0  1  0  0  0  0  0  0  0  0  0
    3.3144   -3.6867    1.3459 O   0  0  0  0  0  0  0  0  0  0  0  0
    3.8905   -1.4213    1.5065 C   0  0  0  0  0  0  0  0  0  0  0  0
    4.3952   -1.0050    0.1100 C   0  0  2  0  0  0  0  0  0  0  0  0
    3.9033   -1.9423   -1.0253 C   0  0  0  0  0  0  0  0  0  0  0  0
    5.1540   -2.7664   -1.3684 C   0  0  1  0  0  0  0  0  0  0  0  0
    6.2062   -1.6697   -1.3435 C   0  0  0  0  0  0  0  0  0  0  0  0
    5.9471   -1.0060    0.0174 C   0  0  2  0  0  0  0  0  0  0  0  0
    6.5567   -1.9121    1.0996 C   0  0  0  0  0  0  0  0  0  0  0  0
    5.7147   -3.2044    1.1267 C   0  0  2  0  0  0  0  0  0  0  0  0
    5.5192   -3.8247   -0.2998 C   0  0  0  0  0  0  0  0  0  0  0  0
    3.0905   -4.9136    3.8754 C   0  0  1  0  0  0  0  0  0  0  0  0
    1.8805   -4.2138    3.7954 O   0  0  0  0  0  0  0  0  0  0  0  0
    3.1023   -6.3170    3.6849 O   0  0  0  0  0  0  0  0  0  0  0  0
    3.0712   -5.8392    5.0472 C   0  0  1  0  0  0  0  0  0  0  0  0
    3.3843   -1.1807    7.4226 C   0  0  2  0  0  0  0  0  0  0  0  0
    1.8976   -0.9000    7.2455 C   0  0  2  0  0  0  0  0  0  0  0  0
    1.2035   -1.6123    6.2086 O   0  0  0  0  0  0  0  0  0  0  0  0
    1.6080   -0.2751    5.9070 C   0  0  1  0  0  0  0  0  0  0  0  0
    0.4609    0.7539    5.6998 C   0  0  1  0  0  0  0  0  0  0  0  0
    0.4553    1.3792    4.2528 C   0  0  0  0  0  0  0  0  0  0  0  0
   -0.5070    0.8275    3.5538 C   0  0  0  0  0  0  0  0  0  0  0  0
   -1.3302    0.0245    4.2966 O   0  0  0  0  0  0  0  0  0  0  0  0
   -1.0280    0.2519    5.6762 C   0  0  1  0  0  0  0  0  0  0  0  0
   -1.4184   -1.0365    6.4015 C   0  0  0  0  0  0  0  0  0  0  0  0
   -1.8117    1.5217    6.2107 C   0  0  1  0  0  0  0  0  0  0  0  0
   -2.1347    1.5387    7.6658 O   0  0  0  0  0  0  0  0  0  0  0  0
   -1.1566    2.2083    8.5020 C   0  0  2  0  0  0  0  0  0  0  0  0
   -1.4692    1.9252    9.9799 C   0  0  0  0  0  0  0  0  0  0  0  0
   -2.7761    2.3605   10.3647 O   0  0  0  0  0  0  0  0  0  0  0  0
   -1.1053    3.6720    8.3925 O   0  0  0  0  0  0  0  0  0  0  0  0
   -0.4274    4.5065    7.3480 C   0  0  0  0  0  0  0  0  0  0  0  0
   -0.3251    3.9099    5.8632 C   0  0  1  0  0  0  0  0  0  0  0  0
   -1.1553    4.1566    4.7192 O   0  0  0  0  0  0  0  0  0  0  0  0
   -0.2992    3.8502    3.5893 C   0  0  1  0  0  0  0  0  0  0  0  0
    0.4870    5.1412    3.4194 C   0  0  1  0  0  0  0  0  0  0  0  0
   -0.4042    6.2056    3.4779 O   0  0  0  0  0  0  0  0  0  0  0  0
   -1.3723    6.3001    2.4248 C   0  0  0  0  0  0  0  0  0  0  0  0
    1.3233    5.1175    4.5284 O   0  0  0  0  0  0  0  0  0  0  0  0
    1.0812    3.8702    5.1515 C   0  0  2  0  0  0  0  0  0  0  0  0
    0.8516    2.8902    3.9819 C   0  0  1  0  0  0  0  0  0  0  0  0
   -0.6995    2.5271    6.1120 C   0  0  2  0  0  0  0  0  0  0  0  0
    0.4218    1.8146    6.8331 C   0  0  1  0  0  0  0  0  0  0  0  0
    0.0527    1.5725    8.1911 O   0  0  0  0  0  0  0  0  0  0  0  0
    2.9838   -0.1570    5.2271 C   0  0  1  0  0  0  0  0  0  0  0  0
    3.1961    0.8422    4.2393 O   0  0  0  0  0  0  0  0  0  0  0  0
    4.0294   -0.2479    6.3568 C   0  0  2  0  0  0  0  0  0  0  0  0
    4.0200    1.0434    6.9351 O   0  0  0  0  0  0  0  0  0  0  0  0
    5.6673    5.0646    5.9007 H   0  0  0  0  0  0  0  0  0  0  0  0
    6.8819    3.7887    5.6864 H   0  0  0  0  0  0  0  0  0  0  0  0
    6.2458    4.1370    7.2765 H   0  0  0  0  0  0  0  0  0  0  0  0
    3.9915    3.4348    6.6344 H   0  0  0  0  0  0  0  0  0  0  0  0
    4.4527    3.0293    4.9957 H   0  0  0  0  0  0  0  0  0  0  0  0
    5.8204    1.7220    7.4324 H   0  0  0  0  0  0  0  0  0  0  0  0
    5.5082   -1.0344    4.9550 H   0  0  0  0  0  0  0  0  0  0  0  0
    7.6340    0.7159    6.4943 H   0  0  0  0  0  0  0  0  0  0  0  0
    7.8386   -2.3101    7.8751 H   0  0  0  0  0  0  0  0  0  0  0  0
    6.5657   -4.2073    7.6349 H   0  0  0  0  0  0  0  0  0  0  0  0
    4.4117   -4.3551    8.3800 H   0  0  0  0  0  0  0  0  0  0  0  0
    4.7960   -2.8262    9.0886 H   0  0  0  0  0  0  0  0  0  0  0  0
    2.6492   -3.1334    7.7991 H   0  0  0  0  0  0  0  0  0  0  0  0
    4.3772   -5.7674    6.7996 H   0  0  0  0  0  0  0  0  0  0  0  0
    6.5433   -4.7152    3.8917 H   0  0  0  0  0  0  0  0  0  0  0  0
    5.4918   -5.7189    2.9024 H   0  0  0  0  0  0  0  0  0  0  0  0
    3.4316   -3.6648    0.4073 H   0  0  0  0  0  0  0  0  0  0  0  0
    2.8025   -1.3563    1.5755 H   0  0  0  0  0  0  0  0  0  0  0  0
    4.2851   -0.7360    2.2597 H   0  0  0  0  0  0  0  0  0  0  0  0
    4.0416    0.0054   -0.0814 H   0  0  0  0  0  0  0  0  0  0  0  0
    3.0198   -2.5354   -0.7931 H   0  0  0  0  0  0  0  0  0  0  0  0
    3.5953   -1.3441   -1.8848 H   0  0  0  0  0  0  0  0  0  0  0  0
    5.0753   -3.2365   -2.3491 H   0  0  0  0  0  0  0  0  0  0  0  0
    7.2160   -2.0623   -1.4613 H   0  0  0  0  0  0  0  0  0  0  0  0
    5.9814   -0.9795   -2.1528 H   0  0  0  0  0  0  0  0  0  0  0  0
    6.3594    0.0014    0.0937 H   0  0  0  0  0  0  0  0  0  0  0  0
    7.5957   -2.1357    0.8655 H   0  0  0  0  0  0  0  0  0  0  0  0
    6.5758   -1.4119    2.0750 H   0  0  0  0  0  0  0  0  0  0  0  0
    6.2833   -3.9270    1.7011 H   0  0  0  0  0  0  0  0  0  0  0  0
    4.8298   -4.6719   -0.3346 H   0  0  0  0  0  0  0  0  0  0  0  0
    6.4736   -4.2720   -0.5769 H   0  0  0  0  0  0  0  0  0  0  0  0
    1.9561   -3.7617    2.9671 H   0  0  0  0  0  0  0  0  0  0  0  0
    2.1571   -5.8350    5.6343 H   0  0  0  0  0  0  0  0  0  0  0  0
    3.6678   -0.8569    8.4366 H   0  0  0  0  0  0  0  0  0  0  0  0
    1.3237   -0.7019    8.1491 H   0  0  0  0  0  0  0  0  0  0  0  0
   -0.9706    1.1847    2.6359 H   0  0  0  0  0  0  0  0  0  0  0  0
   -0.9712   -0.9689    7.4071 H   0  0  0  0  0  0  0  0  0  0  0  0
   -1.0468   -1.9454    5.9130 H   0  0  0  0  0  0  0  0  0  0  0  0
   -2.5129   -1.1092    6.4085 H   0  0  0  0  0  0  0  0  0  0  0  0
   -2.6470    1.7665    5.5456 H   0  0  0  0  0  0  0  0  0  0  0  0
   -1.3284    0.8704   10.1687 H   0  0  0  0  0  0  0  0  0  0  0  0
   -0.7337    2.4277   10.6015 H   0  0  0  0  0  0  0  0  0  0  0  0
   -2.9320    2.0734   11.2702 H   0  0  0  0  0  0  0  0  0  0  0  0
   -0.9301    5.4756    7.3365 H   0  0  0  0  0  0  0  0  0  0  0  0
    0.5950    4.6581    7.6971 H   0  0  0  0  0  0  0  0  0  0  0  0
   -0.8521    3.5759    2.6995 H   0  0  0  0  0  0  0  0  0  0  0  0
    1.1568    5.1697    2.5598 H   0  0  0  0  0  0  0  0  0  0  0  0
   -1.8091    7.2963    2.4628 H   0  0  0  0  0  0  0  0  0  0  0  0
   -2.1637    5.5560    2.5745 H   0  0  0  0  0  0  0  0  0  0  0  0
   -0.9666    6.2414    1.4125 H   0  0  0  0  0  0  0  0  0  0  0  0
    1.9769    3.6812    5.7336 H   0  0  0  0  0  0  0  0  0  0  0  0
    1.6519    2.8908    3.2505 H   0  0  0  0  0  0  0  0  0  0  0  0
   -1.6165    3.0534    6.3939 H   0  0  0  0  0  0  0  0  0  0  0  0
    1.3731    2.3179    6.9606 H   0  0  0  0  0  0  0  0  0  0  0  0
    3.0355   -1.0563    4.6360 H   0  0  0  0  0  0  0  0  0  0  0  0
    2.5611    0.7403    3.5388 H   0  0  0  0  0  0  0  0  0  0  0  0
  1  2  1  0
  1 69  1  0
  1 70  1  0
  1 71  1  0
  2  3  1  0
  2 72  1  0
  2 73  1  0
  3 68  1  0
  3  4  1  0
  3 74  1  1
  4  5  1  0
  5 67  1  0
  5  6  1  0
  5 75  1  6
  6  9  1  0
  6  7  1  1
  6  8  1  0
  7 76  1  0
  8  9  1  0
  9 10  1  0
  9 77  1  1
 10 15  1  0
 10 11  1  0
 10 78  1  1
 11 12  1  0
 11 79  1  0
 11 80  1  0
 12 13  1  0
 12 36  1  0
 12 81  1  1
 14 13  1  1
 14 19  1  0
 14 15  1  0
 14 16  1  0
 16 35  1  0
 16 17  1  0
 16 82  1  1
 17 18  1  0
 18 19  1  0
 18 83  1  0
 18 84  1  0
 19 20  1  6
 19 32  1  0
 21 20  1  1
 21 30  1  0
 21 22  1  0
 21 23  1  0
 22 85  1  0
 23 24  1  0
 23 86  1  0
 23 87  1  0
 24 28  1  0
 24 25  1  0
 24 88  1  6
 25 26  1  0
 25 89  1  0
 25 90  1  0
 26 31  1  0
 26 27  1  0
 26 91  1  6
 27 28  1  0
 27 92  1  0
 27 93  1  0
 28 29  1  0
 28 94  1  6
 29 30  1  0
 29 95  1  0
 29 96  1  0
 30 31  1  0
 30 97  1  1
 31 98  1  0
 31 99  1  0
 32 35  1  0
 32 33  1  6
 32 34  1  0
 33100  1  0
 34 35  1  0
 35101  1  1
 36 67  1  0
 36 37  1  0
 36102  1  1
 37 39  1  0
 37 38  1  0
 37103  1  1
 39 38  1  6
 39 40  1  0
 39 65  1  0
 40 44  1  0
 40 63  1  0
 40 41  1  6
 41 61  1  0
 41 42  2  0
 42 43  1  0
 42104  1  0
 43 44  1  0
 44 45  1  1
 44 46  1  0
 45105  1  0
 45106  1  0
 45107  1  0
 46 62  1  0
 46 47  1  0
 46108  1  6
 47 48  1  0
 48 64  1  0
 48 49  1  1
 48 51  1  0
 49 50  1  0
 49109  1  0
 49110  1  0
 50111  1  0
 51 52  1  0
 52 53  1  0
 52112  1  0
 52113  1  0
 53 60  1  0
 53 54  1  6
 53 62  1  0
 54 55  1  0
 55 61  1  0
 55 56  1  0
 55114  1  6
 56 57  1  0
 56 59  1  0
 56115  1  6
 57 58  1  0
 58116  1  0
 58117  1  0
 58118  1  0
 59 60  1  0
 60 61  1  0
 60119  1  1
 61120  1  6
 62 63  1  0
 62121  1  6
 63 64  1  0
 63122  1  1
 65 66  1  0
 65 67  1  0
 65123  1  6
 66124  1  0
 67 68  1  1
M  END
>  <i_m_ct_stereo_status>  (148) 
1

>  <s_m_source_file>  (148) 
/var/tmp/pbs.5076253.sched01/tmp4uievzq0/12082cxahoa.sdf

>  <i_m_source_file_index>  (148) 
12

>  <i_lp_mmshare_version>  (148) 
48012

>  <i_f3d_flags>  (148) 
2

>  <s_epik_input>  (148) 
W09IXVtDSDJdW0NAQF0oTzEpKE9bQ0gyXTIpT1tDQEBIXTNbQ0hdNFtDQEhdMVtDQEBdKFtDSDNdKShPW0NIXTUpW0NAXTMoQz01W0NIXShbQ0BIXTZbQ0BAXTI0NylbQ0BASF0oTzcpW0NASF0oTzYpT1tDSDNdKVtDQF04KFtDQEhdOU84KVtDQEBIXShbT0hdKVtDQF0xKFtDQEBIXShPW0NASF0oTzEpW0NIMl1bQ0gzXSlbQ0BdMShbT0hdKVtDQEBIXShPMSlbQ0BIXShPMSlbQ0gyXTIpW0NAQEhdOVtDQEhdMk9bQ0BdMTJbQ0BIXTFbQ0BIXTNbQ0BAXShPMykoW09IXSlbQ0BAXTIoW0NIMl1PMSlPW0NAQF0oW09IXSkoW0NIMl0xKVtDQEhdKFtDSDJdMilbQ0gyXVtDQEBIXShbQ0gyXTMpW0NIMl1bQ0BIXTJbQ0BIXTEz

>  <s_epik_cmdline>  (148) 
J2VwaWtfcHl0aG9uJywgJy1waHQnLCAnMi4wJywgJy1waCcsICc3LjAnLCAnLXRuJywgJzgnLCAnLW1hJywgJzIwMCcsICctaW1hZScsICc8aW5maWxlLm1hZT4nLCAnLW9tYWUnLCAnPG91dGZpbGUubWFlPic=

>  <r_lp_tautomer_probability>  (148) 
1

>  <r_epik_Ionization_Penalty>  (148) 
0.000232446

>  <r_epik_Ionization_Penalty_Charging>  (148) 
0

>  <r_epik_Ionization_Penalty_Neutral>  (148) 
0.000232446

>  <r_epik_State_Penalty>  (148) 
-0

>  <r_epik_Charging_Adjusted_Penalty>  (148) 
0

>  <i_epik_Tot_Q>  (148) 
0

>  <i_epik_Tot_abs_Q>  (148) 
0

>  <s_epik_Chemistry_Notes>  (148) 
This compound contains an acetal/aminal-like group ( X-CH(R)-Y where X, Y are N, S, or O) that may be acid/base labile, releasing an aldehyde.

>  <s_lp_Force_Field>  (148) 
OPLS3e

>  <r_lp_Energy>  (148) 
309.603

>  <b_lp_Chiralities_Consistent>  (148) 
0

>  <s_lp_Variant>  (148) 
89:0-1

>  <s_i_glide_gridfile>  (148) 
pfpi4k_grid

>  <i_i_glide_lignum>  (148) 
12

>  <i_i_glide_rotatable_bonds>  (148) 
11

>  <r_i_docking_score>  (148) 
-3.20768

>  <r_i_glide_ligand_efficiency>  (148) 
-0.0471718

>  <r_i_glide_ligand_efficiency_sa>  (148) 
-0.192539

>  <r_i_glide_ligand_efficiency_ln>  (148) 
-0.614556

>  <r_i_glide_gscore>  (148) 
-3.20768

>  <r_i_glide_lipo>  (148) 
-0.30883

>  <r_i_glide_hbond>  (148) 
-0.138238

>  <r_i_glide_metal>  (148) 
-0

>  <r_i_glide_rewards>  (148) 
-0.597586

>  <r_i_glide_evdw>  (148) 
-24.1424

>  <r_i_glide_ecoul>  (148) 
-7.60906

>  <r_i_glide_erotb>  (148) 
0.0968937

>  <r_i_glide_esite>  (148) 
-0.12044

>  <r_i_glide_emodel>  (148) 
-26.5407

>  <r_i_glide_energy>  (148) 
-31.7515

>  <r_i_glide_einternal>  (148) 
18.7639

>  <r_i_glide_intrahb_reward>  (148) 
-0.5

>  <i_i_glide_confnum>  (148) 
1

>  <i_i_glide_posenum>  (148) 
30

>  <r_i_glide_eff_state_penalty>  (148) 
0

>  <ligand_id>  (148) 
89

>  <original_smiles>  (148) 
CCC1OC2C3(O)OC3C3CC(OC4(O3)C3OCC4(OC4(O)CC5CC6CC5CC4C6)C4(O)OC34)C3C4OC4(C45C6=COC4(C)C4OC7(CO)OCC8(OC9C(OC)OC8C69)C4C5O7)C(O)C32O1

>  <smiles>  (148) 
[H]OC([H])([H])C12OC([H])([H])C34OC5([H])C([H])(OC([H])([H])[H])OC3([H])C5([H])C3=C([H])OC5(C([H])([H])[H])C([H])(O1)C4([H])C([H])(O2)C35C12OC1([H])C1([H])C3([H])OC4(OC([H])(C3([H])[H])C3([H])OC3(O[H])C3([H])OC([H])(C([H])([H])C([H])([H])[H])OC31C2([H])O[H])C1([H])OC([H])([H])C4(OC2(O[H])C([H])([H])C3([H])C([H])([H])C4([H])C([H])([H])C2([H])C([H])([H])C3([H])C4([H])[H])C2(O[H])OC12[H]

$$$$
90:0:0
     RDKit          3D

 94107  0  0  1  0  0  0  0  0999 V2000
    7.5612   -1.5041    0.4613 C   0  0  0  0  0  0  0  0  0  0  0  0
    6.4341   -1.6944    1.2877 O   0  0  0  0  0  0  0  0  0  0  0  0
    5.3079   -0.9195    0.9044 C   0  0  0  0  0  0  0  0  0  0  0  0
    4.0669   -1.4674    1.6440 C   0  0  2  0  0  0  0  0  0  0  0  0
    4.1351   -0.8811    2.9230 O   0  0  0  0  0  0  0  0  0  0  0  0
    3.9894   -3.0228    1.6861 C   0  0  2  0  0  0  0  0  0  0  0  0
    3.9575   -3.5672    0.1907 C   0  0  1  0  0  0  0  0  0  0  0  0
    5.0119   -4.4309   -0.1853 O   0  0  0  0  0  0  0  0  0  0  0  0
    2.6305   -4.2489    0.2560 C   0  0  1  0  0  0  0  0  0  0  0  0
    1.8868   -5.4146   -0.3136 C   0  0  0  0  0  0  0  0  0  0  0  0
    1.2509   -5.5167    1.0104 O   0  0  0  0  0  0  0  0  0  0  0  0
    2.4721   -4.9683    1.5838 C   0  0  2  0  0  0  0  0  0  0  0  0
    2.6904   -3.6983    2.3949 C   0  0  1  0  0  0  0  0  0  0  0  0
    2.7686   -4.0329    3.9063 C   0  0  1  0  0  0  0  0  0  0  0  0
    2.7734   -2.8696    4.7009 O   0  0  0  0  0  0  0  0  0  0  0  0
    1.6127   -2.0512    4.6619 C   0  0  2  0  0  0  0  0  0  0  0  0
    0.4521   -2.7410    4.9794 O   0  0  0  0  0  0  0  0  0  0  0  0
   -0.6752   -1.9311    5.2702 C   0  0  0  0  0  0  0  0  0  0  0  0
   -0.8515   -0.8149    4.2376 C   0  0  2  0  0  0  0  0  0  0  0  0
    0.2919   -0.5743    3.2288 C   0  0  2  0  0  0  0  0  0  0  0  0
    1.4486   -1.3630    3.4551 O   0  0  0  0  0  0  0  0  0  0  0  0
    0.4583    0.8393    3.7047 C   0  0  1  0  0  0  0  0  0  0  0  0
   -0.7056    1.6853    3.7795 O   0  0  0  0  0  0  0  0  0  0  0  0
   -0.6306    0.5938    4.7454 C   0  0  1  0  0  0  0  0  0  0  0  0
    1.7023   -4.8432    4.2363 O   0  0  0  0  0  0  0  0  0  0  0  0
    2.0486   -5.6050    5.3485 C   0  0  2  0  0  0  0  0  0  0  0  0
    1.5761   -4.9662    6.5089 O   0  0  0  0  0  0  0  0  0  0  0  0
    2.0026   -5.4877    7.7584 C   0  0  0  0  0  0  0  0  0  0  0  0
    3.4401   -5.7041    5.3765 O   0  0  0  0  0  0  0  0  0  0  0  0
    3.9314   -4.9569    4.2911 C   0  0  1  0  0  0  0  0  0  0  0  0
    4.1832   -6.0994    3.3453 C   0  0  2  0  0  0  0  0  0  0  0  0
    4.7692   -5.9261    2.0694 O   0  0  0  0  0  0  0  0  0  0  0  0
    3.3530   -6.1701    2.0876 C   0  0  2  0  0  0  0  0  0  0  0  0
    2.8285   -7.6017    1.8520 C   0  0  0  0  0  0  0  0  0  0  0  0
    2.0977   -8.2802    3.0275 C   0  0  0  0  0  0  0  0  0  0  0  0
    2.3599   -9.5212    3.5132 C   0  0  0  0  0  0  0  0  0  0  0  0
    3.6188  -10.3728    3.6525 C   0  0  0  0  0  0  0  0  0  0  0  0
    3.3191  -11.7925    3.1753 C   0  0  0  0  0  0  0  0  0  0  0  0
    4.9309   -9.8877    3.0086 C   0  0  0  0  0  0  0  0  0  0  0  0
    3.8700  -10.5416    5.0632 O   0  0  0  0  0  0  0  0  0  0  0  0
    3.6580   -9.4550    6.0195 C   0  0  2  0  0  0  0  0  0  0  0  0
    2.2327   -9.2298    6.4125 C   0  0  0  0  0  0  0  0  0  0  0  0
    1.4053   -8.2406    6.0113 C   0  0  0  0  0  0  0  0  0  0  0  0
   -0.0719   -8.2823    5.7336 C   0  0  1  0  0  0  0  0  0  0  0  0
    0.0047   -6.8466    5.7603 O   0  0  0  0  0  0  0  0  0  0  0  0
    1.3309   -6.9824    5.1408 C   0  0  1  0  0  0  0  0  0  0  0  0
    0.9605   -7.4742    3.7110 C   0  0  2  0  0  0  0  0  0  0  0  0
   -0.2227   -8.2935    4.2140 C   0  0  2  0  0  0  0  0  0  0  0  0
   -1.5735   -8.3339    3.5547 C   0  0  0  0  0  0  0  0  0  0  0  0
   -0.6746   -9.4443    3.5012 O   0  0  0  0  0  0  0  0  0  0  0  0
    4.7472   -8.4410    6.1480 C   0  0  0  0  0  0  0  0  0  0  0  0
    4.5758   -9.4661    7.1220 O   0  0  0  0  0  0  0  0  0  0  0  0
    8.3872   -2.1205    0.8094 H   0  0  0  0  0  0  0  0  0  0  0  0
    7.8934   -0.4705    0.4747 H   0  0  0  0  0  0  0  0  0  0  0  0
    7.3490   -1.7921   -0.5695 H   0  0  0  0  0  0  0  0  0  0  0  0
    5.4713    0.1380    1.1185 H   0  0  0  0  0  0  0  0  0  0  0  0
    5.1496   -0.9817   -0.1707 H   0  0  0  0  0  0  0  0  0  0  0  0
    3.1630   -1.0956    1.1608 H   0  0  0  0  0  0  0  0  0  0  0  0
    3.9937    0.0535    2.8188 H   0  0  0  0  0  0  0  0  0  0  0  0
    4.8794   -3.3960    2.1672 H   0  0  0  0  0  0  0  0  0  0  0  0
    3.9177   -2.7625   -0.5476 H   0  0  0  0  0  0  0  0  0  0  0  0
    4.7437   -4.8883   -0.9745 H   0  0  0  0  0  0  0  0  0  0  0  0
    1.8909   -3.4512    0.1092 H   0  0  0  0  0  0  0  0  0  0  0  0
    1.1593   -5.1149   -1.0804 H   0  0  0  0  0  0  0  0  0  0  0  0
    2.5099   -6.2407   -0.5833 H   0  0  0  0  0  0  0  0  0  0  0  0
    1.7874   -3.1329    2.2302 H   0  0  0  0  0  0  0  0  0  0  0  0
    1.7817   -1.3110    5.4573 H   0  0  0  0  0  0  0  0  0  0  0  0
   -1.5137   -2.6417    5.2519 H   0  0  0  0  0  0  0  0  0  0  0  0
   -0.6553   -1.5839    6.3078 H   0  0  0  0  0  0  0  0  0  0  0  0
   -1.8057   -0.8916    3.7155 H   0  0  0  0  0  0  0  0  0  0  0  0
   -0.0212   -0.6818    2.1833 H   0  0  0  0  0  0  0  0  0  0  0  0
    1.4552    1.2197    3.9810 H   0  0  0  0  0  0  0  0  0  0  0  0
   -0.4543    0.8114    5.8093 H   0  0  0  0  0  0  0  0  0  0  0  0
    1.5419   -4.8902    8.5426 H   0  0  0  0  0  0  0  0  0  0  0  0
    3.0840   -5.4304    7.8864 H   0  0  0  0  0  0  0  0  0  0  0  0
    1.6814   -6.5138    7.9225 H   0  0  0  0  0  0  0  0  0  0  0  0
    4.8393   -4.3988    4.5095 H   0  0  0  0  0  0  0  0  0  0  0  0
    4.5238   -7.0049    3.8336 H   0  0  0  0  0  0  0  0  0  0  0  0
    2.1237   -7.6635    1.0255 H   0  0  0  0  0  0  0  0  0  0  0  0
    3.6504   -8.2129    1.5073 H   0  0  0  0  0  0  0  0  0  0  0  0
    1.6354   -9.9568    4.1839 H   0  0  0  0  0  0  0  0  0  0  0  0
    3.0789  -11.7697    2.1136 H   0  0  0  0  0  0  0  0  0  0  0  0
    2.4598  -12.2293    3.6793 H   0  0  0  0  0  0  0  0  0  0  0  0
    4.1639  -12.4654    3.3241 H   0  0  0  0  0  0  0  0  0  0  0  0
    4.8726   -9.9488    1.9211 H   0  0  0  0  0  0  0  0  0  0  0  0
    5.7591  -10.5360    3.3107 H   0  0  0  0  0  0  0  0  0  0  0  0
    5.2092   -8.8814    3.2931 H   0  0  0  0  0  0  0  0  0  0  0  0
    1.7702  -10.0848    6.8729 H   0  0  0  0  0  0  0  0  0  0  0  0
   -0.8063   -8.7343    6.4079 H   0  0  0  0  0  0  0  0  0  0  0  0
    0.5568   -6.6918    3.0653 H   0  0  0  0  0  0  0  0  0  0  0  0
   -2.4278   -8.4966    4.1977 H   0  0  0  0  0  0  0  0  0  0  0  0
   -1.7705   -7.8627    2.5834 H   0  0  0  0  0  0  0  0  0  0  0  0
    5.6453   -8.5363    5.5337 H   0  0  0  0  0  0  0  0  0  0  0  0
    4.5064   -7.4611    6.5255 H   0  0  0  0  0  0  0  0  0  0  0  0
  1  2  1  0
  1 53  1  0
  1 54  1  0
  1 55  1  0
  2  3  1  0
  3  4  1  0
  3 56  1  0
  3 57  1  0
  4  5  1  0
  4  6  1  0
  4 58  1  6
  5 59  1  0
  6 13  1  0
  6  7  1  0
  6 60  1  1
  7  8  1  0
  7  9  1  0
  7 61  1  6
  8 62  1  0
  9 12  1  0
  9 10  1  0
  9 63  1  1
 10 11  1  0
 10 64  1  0
 10 65  1  0
 12 11  1  6
 12 33  1  0
 12 13  1  0
 13 14  1  0
 13 66  1  1
 14 30  1  0
 14 15  1  1
 14 25  1  0
 15 16  1  0
 16 21  1  0
 16 17  1  0
 16 67  1  1
 17 18  1  0
 18 19  1  0
 18 68  1  0
 18 69  1  0
 19 24  1  0
 19 20  1  0
 19 70  1  6
 20 21  1  0
 20 22  1  0
 20 71  1  6
 22 24  1  0
 22 23  1  0
 22 72  1  1
 23 24  1  0
 24 73  1  1
 25 26  1  0
 26 46  1  0
 26 27  1  1
 26 29  1  0
 27 28  1  0
 28 74  1  0
 28 75  1  0
 28 76  1  0
 29 30  1  0
 30 31  1  0
 30 77  1  1
 31 33  1  0
 31 32  1  0
 31 78  1  1
 33 32  1  6
 33 34  1  0
 34 35  1  0
 34 79  1  0
 34 80  1  0
 35 47  1  0
 35 36  2  3
 36 37  1  0
 36 81  1  0
 37 38  1  0
 37 39  1  0
 37 40  1  0
 38 82  1  0
 38 83  1  0
 38 84  1  0
 39 85  1  0
 39 86  1  0
 39 87  1  0
 41 40  1  6
 41 52  1  0
 41 42  1  0
 41 51  1  0
 42 43  2  3
 42 88  1  0
 43 46  1  0
 43 44  1  0
 44 48  1  0
 44 45  1  0
 44 89  1  1
 46 45  1  1
 46 47  1  0
 47 48  1  0
 47 90  1  6
 48 50  1  6
 48 49  1  0
 49 50  1  0
 49 91  1  0
 49 92  1  0
 51 52  1  0
 51 93  1  0
 51 94  1  0
M  END
>  <i_m_ct_stereo_status>  (149) 
1

>  <s_m_source_file>  (149) 
/var/tmp/pbs.5076253.sched01/tmp4uievzq0/12082cxahoa.sdf

>  <i_m_source_file_index>  (149) 
13

>  <i_lp_mmshare_version>  (149) 
48012

>  <i_f3d_flags>  (149) 
0

>  <s_epik_input>  (149) 
TzFbQ0BASF0yW0NASF0xW0NASF0oW0NASF0yMylPW0NAQEhdKE9bQ0gyXTMpT1tDQF0oW0NAQEhdNFtDQEhdKE81KVtDQEBdNTZbQ0BAXTc4OSkoW0NASF05W0NAQEhdKFtDQEBIXShbT0hdKVtDQEhdN1tDSDJdTzgpW0NAQEhdKFtPSF0pW0NIMl1PW0NIM10pT1tDQEBdKE80KShPW0NIM10pW0NAQF0xMkMzL1tDQEBIXShPMSlbQ0BAXTEoW0NIMl1PMSlbQ0BASF0yQyhcW0NIMl02KT1bQ0hdXEMoW0NIM10pKFtDSDNdKU9bQ0BdMSgvW0NIXT0zKVtDSDJdTzE=

>  <s_epik_cmdline>  (149) 
J2VwaWtfcHl0aG9uJywgJy1waHQnLCAnMi4wJywgJy1waCcsICc3LjAnLCAnLXRuJywgJzgnLCAnLW1hJywgJzIwMCcsICctaW1hZScsICc8aW5maWxlLm1hZT4nLCAnLW9tYWUnLCAnPG91dGZpbGUubWFlPic=

>  <r_lp_tautomer_probability>  (149) 
1

>  <r_epik_Ionization_Penalty>  (149) 
3.68725e-07

>  <r_epik_Ionization_Penalty_Charging>  (149) 
0

>  <r_epik_Ionization_Penalty_Neutral>  (149) 
3.68725e-07

>  <r_epik_State_Penalty>  (149) 
-0

>  <r_epik_Charging_Adjusted_Penalty>  (149) 
0

>  <i_epik_Tot_Q>  (149) 
0

>  <i_epik_Tot_abs_Q>  (149) 
0

>  <s_epik_Chemistry_Notes>  (149) 
This compound contains an acetal/aminal-like group ( X-CH(R)-Y where X, Y are N, S, or O) that may be acid/base labile, releasing an aldehyde.

>  <s_lp_Force_Field>  (149) 
OPLS3e

>  <r_lp_Energy>  (149) 
156.78

>  <b_lp_Chiralities_Consistent>  (149) 
1

>  <s_lp_Variant>  (149) 
90:0-1

>  <s_i_glide_gridfile>  (149) 
pfpi4k_grid

>  <i_i_glide_lignum>  (149) 
13

>  <i_i_glide_rotatable_bonds>  (149) 
8

>  <r_i_docking_score>  (149) 
-2.07732

>  <r_i_glide_ligand_efficiency>  (149) 
-0.0399485

>  <r_i_glide_ligand_efficiency_sa>  (149) 
-0.149108

>  <r_i_glide_ligand_efficiency_ln>  (149) 
-0.419556

>  <r_i_glide_gscore>  (149) 
-2.07732

>  <r_i_glide_lipo>  (149) 
-0.153569

>  <r_i_glide_hbond>  (149) 
-0.13341

>  <r_i_glide_metal>  (149) 
-0

>  <r_i_glide_rewards>  (149) 
-0.000302329

>  <r_i_glide_evdw>  (149) 
-23.5484

>  <r_i_glide_ecoul>  (149) 
-5.04736

>  <r_i_glide_erotb>  (149) 
0.161448

>  <r_i_glide_esite>  (149) 
-0.0169657

>  <r_i_glide_emodel>  (149) 
-29.0508

>  <r_i_glide_energy>  (149) 
-28.5958

>  <r_i_glide_einternal>  (149) 
3.89111

>  <r_i_glide_intrahb_reward>  (149) 
-0

>  <i_i_glide_confnum>  (149) 
2

>  <i_i_glide_posenum>  (149) 
33

>  <r_i_glide_eff_state_penalty>  (149) 
0

>  <ligand_id>  (149) 
90

>  <original_smiles>  (149) 
COCC(O)C1C(O)C2COC23C1C1(OC2OCC4C(O2)C2OC42)OC2(OC)OC1C1OC13CC1=CC(C)(C)OC3(C=C4C5OC42C1C51CO1)CO3

>  <smiles>  (149) 
[H]OC([H])(C([H])([H])OC([H])([H])[H])C1([H])C([H])(O[H])C2([H])C([H])([H])OC23C1([H])C1(OC2([H])OC([H])([H])C4([H])C([H])(O2)C2([H])OC24[H])OC2(OC([H])([H])[H])OC1([H])C1([H])OC13C([H])([H])C1=C([H])C(C([H])([H])[H])(C([H])([H])[H])OC3(OC3([H])[H])C([H])=C3C4([H])OC32C1([H])C41OC1([H])[H]

$$$$
90:0:1
     RDKit          3D

 94107  0  0  1  0  0  0  0  0999 V2000
    5.7310   -3.3978   -3.1704 C   0  0  0  0  0  0  0  0  0  0  0  0
    6.2480   -3.3250   -1.8524 O   0  0  0  0  0  0  0  0  0  0  0  0
    5.2109   -3.2291   -0.8957 C   0  0  0  0  0  0  0  0  0  0  0  0
    5.8084   -3.1986    0.5248 C   0  0  2  0  0  0  0  0  0  0  0  0
    5.9525   -4.5404    0.9300 O   0  0  0  0  0  0  0  0  0  0  0  0
    4.9267   -2.3531    1.4858 C   0  0  2  0  0  0  0  0  0  0  0  0
    5.3330   -0.8344    1.2802 C   0  0  1  0  0  0  0  0  0  0  0  0
    4.2805    0.0002    0.8289 O   0  0  0  0  0  0  0  0  0  0  0  0
    5.8277   -0.5638    2.6636 C   0  0  1  0  0  0  0  0  0  0  0  0
    5.9754    0.5122    3.6842 C   0  0  0  0  0  0  0  0  0  0  0  0
    5.7993   -0.5452    4.6810 O   0  0  0  0  0  0  0  0  0  0  0  0
    4.9564   -1.2321    3.7021 C   0  0  2  0  0  0  0  0  0  0  0  0
    5.0892   -2.6123    3.0577 C   0  0  1  0  0  0  0  0  0  0  0  0
    4.1366   -3.6299    3.7098 C   0  0  1  0  0  0  0  0  0  0  0  0
    4.5241   -4.9133    3.2933 O   0  0  0  0  0  0  0  0  0  0  0  0
    3.5963   -5.7738    2.6900 C   0  0  2  0  0  0  0  0  0  0  0  0
    3.0497   -5.2379    1.5413 O   0  0  0  0  0  0  0  0  0  0  0  0
    2.3662   -6.1957    0.7649 C   0  0  0  0  0  0  0  0  0  0  0  0
    1.4177   -7.0947    1.5843 C   0  0  2  0  0  0  0  0  0  0  0  0
    1.5352   -7.0387    3.1062 C   0  0  2  0  0  0  0  0  0  0  0  0
    2.5798   -6.1610    3.5577 O   0  0  0  0  0  0  0  0  0  0  0  0
    1.8862   -8.5097    3.1676 C   0  0  2  0  0  0  0  0  0  0  0  0
    1.0465   -9.4664    2.4776 O   0  0  0  0  0  0  0  0  0  0  0  0
    1.8176   -8.5609    1.6452 C   0  0  1  0  0  0  0  0  0  0  0  0
    4.3766   -3.5332    5.0789 O   0  0  0  0  0  0  0  0  0  0  0  0
    3.2249   -3.9271    5.7509 C   0  0  2  0  0  0  0  0  0  0  0  0
    3.2878   -5.2699    6.1565 O   0  0  0  0  0  0  0  0  0  0  0  0
    4.5998   -5.8055    6.3541 C   0  0  0  0  0  0  0  0  0  0  0  0
    2.1405   -3.7535    4.8978 O   0  0  0  0  0  0  0  0  0  0  0  0
    2.6313   -3.2889    3.6565 C   0  0  1  0  0  0  0  0  0  0  0  0
    2.3252   -1.8514    3.8243 C   0  0  2  0  0  0  0  0  0  0  0  0
    2.6464   -0.9126    2.8157 O   0  0  0  0  0  0  0  0  0  0  0  0
    3.4592   -0.8775    3.9926 C   0  0  2  0  0  0  0  0  0  0  0  0
    3.1455    0.1109    5.1031 C   0  0  0  0  0  0  0  0  0  0  0  0
    2.7169   -0.4911    6.4546 C   0  0  0  0  0  0  0  0  0  0  0  0
    1.6223   -0.1296    7.1524 C   0  0  0  0  0  0  0  0  0  0  0  0
    0.2195    0.3276    6.7702 C   0  0  0  0  0  0  0  0  0  0  0  0
   -0.1916    1.5209    7.6504 C   0  0  0  0  0  0  0  0  0  0  0  0
   -0.1334    0.6584    5.3088 C   0  0  0  0  0  0  0  0  0  0  0  0
   -0.6485   -0.7386    7.1553 O   0  0  0  0  0  0  0  0  0  0  0  0
   -0.2970   -2.1625    7.0037 C   0  0  2  0  0  0  0  0  0  0  0  0
    0.5814   -2.7023    8.0704 C   0  0  0  0  0  0  0  0  0  0  0  0
    1.8811   -3.0307    7.9835 C   0  0  0  0  0  0  0  0  0  0  0  0
    2.9630   -2.8654    9.0177 C   0  0  1  0  0  0  0  0  0  0  0  0
    3.7688   -3.6591    8.1352 O   0  0  0  0  0  0  0  0  0  0  0  0
    3.0637   -3.0131    7.0288 C   0  0  1  0  0  0  0  0  0  0  0  0
    3.6440   -1.5788    7.0751 C   0  0  2  0  0  0  0  0  0  0  0  0
    3.7088   -1.6126    8.5991 C   0  0  2  0  0  0  0  0  0  0  0  0
    4.9330   -1.1347    9.3449 C   0  0  0  0  0  0  0  0  0  0  0  0
    3.6896   -0.3977    9.3761 O   0  0  0  0  0  0  0  0  0  0  0  0
   -0.6210   -2.7979    5.6814 C   0  0  0  0  0  0  0  0  0  0  0  0
   -1.4521   -2.9891    6.8221 O   0  0  0  0  0  0  0  0  0  0  0  0
    6.5543   -3.5218   -3.8532 H   0  0  0  0  0  0  0  0  0  0  0  0
    5.1780   -2.4951   -3.4440 H   0  0  0  0  0  0  0  0  0  0  0  0
    5.0798   -4.2620   -3.3109 H   0  0  0  0  0  0  0  0  0  0  0  0
    4.6640   -2.3091   -1.0856 H   0  0  0  0  0  0  0  0  0  0  0  0
    4.5026   -4.0514   -0.9959 H   0  0  0  0  0  0  0  0  0  0  0  0
    6.8190   -2.7916    0.5131 H   0  0  0  0  0  0  0  0  0  0  0  0
    6.4705   -4.9893    0.2847 H   0  0  0  0  0  0  0  0  0  0  0  0
    3.8880   -2.4982    1.2264 H   0  0  0  0  0  0  0  0  0  0  0  0
    6.1502   -0.7275    0.5576 H   0  0  0  0  0  0  0  0  0  0  0  0
    4.6416    0.8423    0.6170 H   0  0  0  0  0  0  0  0  0  0  0  0
    6.8515   -0.9580    2.6934 H   0  0  0  0  0  0  0  0  0  0  0  0
    6.9831    0.9476    3.7636 H   0  0  0  0  0  0  0  0  0  0  0  0
    5.1810    1.2775    3.6868 H   0  0  0  0  0  0  0  0  0  0  0  0
    6.0892   -2.9675    3.2444 H   0  0  0  0  0  0  0  0  0  0  0  0
    4.2098   -6.6756    2.4684 H   0  0  0  0  0  0  0  0  0  0  0  0
    1.8023   -5.5848    0.0713 H   0  0  0  0  0  0  0  0  0  0  0  0
    3.0668   -6.7065    0.0941 H   0  0  0  0  0  0  0  0  0  0  0  0
    0.3619   -6.9408    1.3102 H   0  0  0  0  0  0  0  0  0  0  0  0
    0.5748   -6.7882    3.5714 H   0  0  0  0  0  0  0  0  0  0  0  0
    2.8248   -8.8235    3.6595 H   0  0  0  0  0  0  0  0  0  0  0  0
    2.7140   -8.8939    1.0910 H   0  0  0  0  0  0  0  0  0  0  0  0
    4.5070   -6.8403    6.6728 H   0  0  0  0  0  0  0  0  0  0  0  0
    5.1612   -5.2660    7.1161 H   0  0  0  0  0  0  0  0  0  0  0  0
    5.1881   -5.7961    5.4370 H   0  0  0  0  0  0  0  0  0  0  0  0
    2.0915   -3.6582    2.7883 H   0  0  0  0  0  0  0  0  0  0  0  0
    1.3579   -1.6406    4.2543 H   0  0  0  0  0  0  0  0  0  0  0  0
    3.9698    0.7806    5.3381 H   0  0  0  0  0  0  0  0  0  0  0  0
    2.3712    0.7651    4.7223 H   0  0  0  0  0  0  0  0  0  0  0  0
    1.5377   -0.4867    8.1656 H   0  0  0  0  0  0  0  0  0  0  0  0
    0.4128    2.3965    7.4177 H   0  0  0  0  0  0  0  0  0  0  0  0
   -0.0675    1.3094    8.7117 H   0  0  0  0  0  0  0  0  0  0  0  0
   -1.2343    1.8015    7.5015 H   0  0  0  0  0  0  0  0  0  0  0  0
    0.3537    1.5739    4.9656 H   0  0  0  0  0  0  0  0  0  0  0  0
   -1.2112    0.8265    5.2283 H   0  0  0  0  0  0  0  0  0  0  0  0
    0.0794   -0.1471    4.6209 H   0  0  0  0  0  0  0  0  0  0  0  0
    0.1752   -2.6282    9.0626 H   0  0  0  0  0  0  0  0  0  0  0  0
    2.8948   -3.2524   10.0443 H   0  0  0  0  0  0  0  0  0  0  0  0
    4.6537   -1.5244    6.6798 H   0  0  0  0  0  0  0  0  0  0  0  0
    5.1620   -1.6510   10.2610 H   0  0  0  0  0  0  0  0  0  0  0  0
    5.7436   -0.6339    8.8257 H   0  0  0  0  0  0  0  0  0  0  0  0
   -1.0541   -2.1740    4.9056 H   0  0  0  0  0  0  0  0  0  0  0  0
   -0.1438   -3.7260    5.3800 H   0  0  0  0  0  0  0  0  0  0  0  0
  1  2  1  0
  1 53  1  0
  1 54  1  0
  1 55  1  0
  2  3  1  0
  3  4  1  0
  3 56  1  0
  3 57  1  0
  4  5  1  0
  4  6  1  0
  4 58  1  6
  5 59  1  0
  6 13  1  0
  6  7  1  0
  6 60  1  6
  7  8  1  0
  7  9  1  0
  7 61  1  6
  8 62  1  0
  9 12  1  0
  9 10  1  0
  9 63  1  6
 10 11  1  0
 10 64  1  0
 10 65  1  0
 12 11  1  1
 12 33  1  0
 12 13  1  0
 13 14  1  0
 13 66  1  6
 14 30  1  0
 14 15  1  6
 14 25  1  0
 15 16  1  0
 16 21  1  0
 16 17  1  0
 16 67  1  6
 17 18  1  0
 18 19  1  0
 18 68  1  0
 18 69  1  0
 19 24  1  0
 19 20  1  0
 19 70  1  1
 20 21  1  0
 20 22  1  0
 20 71  1  1
 22 24  1  0
 22 23  1  0
 22 72  1  6
 23 24  1  0
 24 73  1  6
 25 26  1  0
 26 46  1  0
 26 27  1  1
 26 29  1  0
 27 28  1  0
 28 74  1  0
 28 75  1  0
 28 76  1  0
 29 30  1  0
 30 31  1  0
 30 77  1  6
 31 33  1  0
 31 32  1  0
 31 78  1  1
 33 32  1  6
 33 34  1  0
 34 35  1  0
 34 79  1  0
 34 80  1  0
 35 47  1  0
 35 36  2  3
 36 37  1  0
 36 81  1  0
 37 38  1  0
 37 39  1  0
 37 40  1  0
 38 82  1  0
 38 83  1  0
 38 84  1  0
 39 85  1  0
 39 86  1  0
 39 87  1  0
 41 40  1  6
 41 52  1  0
 41 42  1  0
 41 51  1  0
 42 43  2  3
 42 88  1  0
 43 46  1  0
 43 44  1  0
 44 48  1  0
 44 45  1  0
 44 89  1  1
 46 45  1  1
 46 47  1  0
 47 48  1  0
 47 90  1  6
 48 50  1  1
 48 49  1  0
 49 50  1  0
 49 91  1  0
 49 92  1  0
 51 52  1  0
 51 93  1  0
 51 94  1  0
M  END
>  <i_m_ct_stereo_status>  (150) 
1

>  <s_m_source_file>  (150) 
/var/tmp/pbs.5076253.sched01/tmp4uievzq0/12082cxahoa.sdf

>  <i_m_source_file_index>  (150) 
13

>  <i_lp_mmshare_version>  (150) 
48012

>  <i_f3d_flags>  (150) 
0

>  <s_epik_input>  (150) 
TzFbQ0BASF0yW0NASF0xW0NASF0oW0NASF0yMylPW0NAQEhdKE9bQ0gyXTMpT1tDQF0oW0NAQEhdNFtDQEhdKE81KVtDQEBdNTZbQ0BAXTc4OSkoW0NASF05W0NAQEhdKFtDQEBIXShbT0hdKVtDQEhdN1tDSDJdTzgpW0NAQEhdKFtPSF0pW0NIMl1PW0NIM10pT1tDQEBdKE80KShPW0NIM10pW0NAQF0xMkMzL1tDQEBIXShPMSlbQ0BAXTEoW0NIMl1PMSlbQ0BASF0yQyhcW0NIMl02KT1bQ0hdXEMoW0NIM10pKFtDSDNdKU9bQ0BdMSgvW0NIXT0zKVtDSDJdTzE=

>  <s_epik_cmdline>  (150) 
J2VwaWtfcHl0aG9uJywgJy1waHQnLCAnMi4wJywgJy1waCcsICc3LjAnLCAnLXRuJywgJzgnLCAnLW1hJywgJzIwMCcsICctaW1hZScsICc8aW5maWxlLm1hZT4nLCAnLW9tYWUnLCAnPG91dGZpbGUubWFlPic=

>  <r_lp_tautomer_probability>  (150) 
1

>  <r_epik_Ionization_Penalty>  (150) 
3.68725e-07

>  <r_epik_Ionization_Penalty_Charging>  (150) 
0

>  <r_epik_Ionization_Penalty_Neutral>  (150) 
3.68725e-07

>  <r_epik_State_Penalty>  (150) 
-0

>  <r_epik_Charging_Adjusted_Penalty>  (150) 
0

>  <i_epik_Tot_Q>  (150) 
0

>  <i_epik_Tot_abs_Q>  (150) 
0

>  <s_epik_Chemistry_Notes>  (150) 
This compound contains an acetal/aminal-like group ( X-CH(R)-Y where X, Y are N, S, or O) that may be acid/base labile, releasing an aldehyde.

>  <s_lp_Force_Field>  (150) 
OPLS3e

>  <r_lp_Energy>  (150) 
156.78

>  <b_lp_Chiralities_Consistent>  (150) 
1

>  <s_lp_Variant>  (150) 
90:0-1

>  <s_i_glide_gridfile>  (150) 
pfpi4k_grid

>  <i_i_glide_lignum>  (150) 
13

>  <i_i_glide_rotatable_bonds>  (150) 
8

>  <r_i_docking_score>  (150) 
-2.03206

>  <r_i_glide_ligand_efficiency>  (150) 
-0.0390781

>  <r_i_glide_ligand_efficiency_sa>  (150) 
-0.14586

>  <r_i_glide_ligand_efficiency_ln>  (150) 
-0.410415

>  <r_i_glide_gscore>  (150) 
-2.03206

>  <r_i_glide_lipo>  (150) 
-0.70415

>  <r_i_glide_hbond>  (150) 
-0.0402445

>  <r_i_glide_metal>  (150) 
-0

>  <r_i_glide_rewards>  (150) 
-0.00106135

>  <r_i_glide_evdw>  (150) 
-20.2224

>  <r_i_glide_ecoul>  (150) 
-2.54822

>  <r_i_glide_erotb>  (150) 
0.161448

>  <r_i_glide_esite>  (150) 
-0.0547035

>  <r_i_glide_emodel>  (150) 
-21.4509

>  <r_i_glide_energy>  (150) 
-22.7706

>  <r_i_glide_einternal>  (150) 
7.97164

>  <r_i_glide_intrahb_reward>  (150) 
-0

>  <i_i_glide_confnum>  (150) 
1

>  <i_i_glide_posenum>  (150) 
4

>  <r_i_glide_eff_state_penalty>  (150) 
0

>  <ligand_id>  (150) 
90

>  <original_smiles>  (150) 
COCC(O)C1C(O)C2COC23C1C1(OC2OCC4C(O2)C2OC42)OC2(OC)OC1C1OC13CC1=CC(C)(C)OC3(C=C4C5OC42C1C51CO1)CO3

>  <smiles>  (150) 
[H]OC([H])(C([H])([H])OC([H])([H])[H])C1([H])C([H])(O[H])C2([H])C([H])([H])OC23C1([H])C1(OC2([H])OC([H])([H])C4([H])C([H])(O2)C2([H])OC24[H])OC2(OC([H])([H])[H])OC1([H])C1([H])OC13C([H])([H])C1=C([H])C(C([H])([H])[H])(C([H])([H])[H])OC3(OC3([H])[H])C([H])=C3C4([H])OC32C1([H])C41OC1([H])[H]

$$$$
90:0:2
     RDKit          3D

 94107  0  0  1  0  0  0  0  0999 V2000
    5.0899   -1.1255   -0.9048 C   0  0  0  0  0  0  0  0  0  0  0  0
    6.0767   -1.3803    0.0866 O   0  0  0  0  0  0  0  0  0  0  0  0
    5.7942   -0.8470    1.3773 C   0  0  0  0  0  0  0  0  0  0  0  0
    4.4630   -1.3901    1.9697 C   0  0  2  0  0  0  0  0  0  0  0  0
    4.2965   -0.7702    3.2304 O   0  0  0  0  0  0  0  0  0  0  0  0
    4.4442   -2.9605    2.0639 C   0  0  2  0  0  0  0  0  0  0  0  0
    4.5264   -3.6916    0.6827 C   0  0  1  0  0  0  0  0  0  0  0  0
    5.6304   -4.4656    0.3136 O   0  0  0  0  0  0  0  0  0  0  0  0
    3.1963   -4.2187    0.5207 C   0  0  1  0  0  0  0  0  0  0  0  0
    2.4896   -5.3782   -0.0945 C   0  0  0  0  0  0  0  0  0  0  0  0
    1.7685   -5.4661    1.1730 O   0  0  0  0  0  0  0  0  0  0  0  0
    2.9552   -4.9305    1.8295 C   0  0  2  0  0  0  0  0  0  0  0  0
    3.1317   -3.6710    2.6720 C   0  0  1  0  0  0  0  0  0  0  0  0
    3.1167   -3.9427    4.1911 C   0  0  1  0  0  0  0  0  0  0  0  0
    3.0430   -2.7545    4.9559 O   0  0  0  0  0  0  0  0  0  0  0  0
    1.8295   -2.0027    4.8138 C   0  0  2  0  0  0  0  0  0  0  0  0
    0.6864   -2.7433    5.0809 O   0  0  0  0  0  0  0  0  0  0  0  0
   -0.4937   -1.9658    5.2400 C   0  0  0  0  0  0  0  0  0  0  0  0
   -0.5697   -0.8471    4.2122 C   0  0  2  0  0  0  0  0  0  0  0  0
    0.6246   -0.6459    3.2554 C   0  0  2  0  0  0  0  0  0  0  0  0
    1.7696   -1.3954    3.5806 O   0  0  0  0  0  0  0  0  0  0  0  0
    0.7985    0.7520    3.7299 C   0  0  1  0  0  0  0  0  0  0  0  0
   -0.3821    1.5738    3.6585 O   0  0  0  0  0  0  0  0  0  0  0  0
   -0.3453    0.5726    4.6938 C   0  0  1  0  0  0  0  0  0  0  0  0
    2.0540   -4.7840    4.4517 O   0  0  0  0  0  0  0  0  0  0  0  0
    2.3317   -5.5315    5.5921 C   0  0  2  0  0  0  0  0  0  0  0  0
    1.7554   -4.8888    6.6993 O   0  0  0  0  0  0  0  0  0  0  0  0
    2.1116   -5.3642    7.9937 C   0  0  0  0  0  0  0  0  0  0  0  0
    3.7141   -5.5761    5.7353 O   0  0  0  0  0  0  0  0  0  0  0  0
    4.2764   -4.8587    4.6552 C   0  0  1  0  0  0  0  0  0  0  0  0
    4.5804   -6.0066    3.7173 C   0  0  2  0  0  0  0  0  0  0  0  0
    5.2489   -5.8505    2.4803 O   0  0  0  0  0  0  0  0  0  0  0  0
    3.8351   -6.1235    2.4048 C   0  0  2  0  0  0  0  0  0  0  0  0
    3.3623   -7.5690    2.1558 C   0  0  0  0  0  0  0  0  0  0  0  0
    2.5649   -8.2476    3.2892 C   0  0  0  0  0  0  0  0  0  0  0  0
    2.8321   -9.4726    3.8188 C   0  0  0  0  0  0  0  0  0  0  0  0
    4.0961  -10.2955    4.0845 C   0  0  0  0  0  0  0  0  0  0  0  0
    3.8726  -11.7266    3.5855 C   0  0  0  0  0  0  0  0  0  0  0  0
    5.4363   -9.7898    3.5170 C   0  0  0  0  0  0  0  0  0  0  0  0
    4.2531  -10.4483    5.5231 O   0  0  0  0  0  0  0  0  0  0  0  0
    3.9254   -9.3632    6.4528 C   0  0  2  0  0  0  0  0  0  0  0  0
    2.4702   -9.1703    6.7273 C   0  0  0  0  0  0  0  0  0  0  0  0
    1.6777   -8.1980    6.2563 C   0  0  0  0  0  0  0  0  0  0  0  0
    0.2116   -8.2388    5.8727 C   0  0  1  0  0  0  0  0  0  0  0  0
    0.2856   -6.8063    5.8965 O   0  0  0  0  0  0  0  0  0  0  0  0
    1.6412   -6.9483    5.3546 C   0  0  1  0  0  0  0  0  0  0  0  0
    1.3606   -7.4667    3.9055 C   0  0  2  0  0  0  0  0  0  0  0  0
    0.1543   -8.2921    4.3703 C   0  0  2  0  0  0  0  0  0  0  0  0
   -1.1609   -8.3779    3.6332 C   0  0  0  0  0  0  0  0  0  0  0  0
   -0.2618   -9.4999    3.7114 O   0  0  0  0  0  0  0  0  0  0  0  0
    4.9621   -8.3103    6.5937 C   0  0  0  0  0  0  0  0  0  0  0  0
    4.7729   -9.3012    7.6047 O   0  0  0  0  0  0  0  0  0  0  0  0
    5.3152   -1.7322   -1.7758 H   0  0  0  0  0  0  0  0  0  0  0  0
    4.9989   -0.0590   -1.1437 H   0  0  0  0  0  0  0  0  0  0  0  0
    4.0632   -1.3385   -0.6396 H   0  0  0  0  0  0  0  0  0  0  0  0
    6.6231   -1.0653    2.0534 H   0  0  0  0  0  0  0  0  0  0  0  0
    5.7723    0.2354    1.2566 H   0  0  0  0  0  0  0  0  0  0  0  0
    3.6362   -0.9994    1.3754 H   0  0  0  0  0  0  0  0  0  0  0  0
    3.4031   -0.9444    3.5099 H   0  0  0  0  0  0  0  0  0  0  0  0
    5.3252   -3.2637    2.6289 H   0  0  0  0  0  0  0  0  0  0  0  0
    4.5900   -3.1084   -0.2037 H   0  0  0  0  0  0  0  0  0  0  0  0
    5.4218   -4.8516   -0.5210 H   0  0  0  0  0  0  0  0  0  0  0  0
    2.5018   -3.3651    0.3580 H   0  0  0  0  0  0  0  0  0  0  0  0
    1.8551   -5.1060   -0.9470 H   0  0  0  0  0  0  0  0  0  0  0  0
    3.1406   -6.2266   -0.3223 H   0  0  0  0  0  0  0  0  0  0  0  0
    2.2659   -3.0841    2.4163 H   0  0  0  0  0  0  0  0  0  0  0  0
    1.8911   -1.1600    5.5098 H   0  0  0  0  0  0  0  0  0  0  0  0
   -1.3324   -2.6538    5.1144 H   0  0  0  0  0  0  0  0  0  0  0  0
   -0.5354   -1.5923    6.2583 H   0  0  0  0  0  0  0  0  0  0  0  0
   -1.5336   -0.8711    3.6810 H   0  0  0  0  0  0  0  0  0  0  0  0
    0.3891   -0.7173    2.1903 H   0  0  0  0  0  0  0  0  0  0  0  0
    1.7344    1.3097    3.8374 H   0  0  0  0  0  0  0  0  0  0  0  0
   -0.4544    0.9725    5.7035 H   0  0  0  0  0  0  0  0  0  0  0  0
    1.5824   -4.7866    8.7546 H   0  0  0  0  0  0  0  0  0  0  0  0
    3.1784   -5.2537    8.1875 H   0  0  0  0  0  0  0  0  0  0  0  0
    1.8385   -6.4068    8.1443 H   0  0  0  0  0  0  0  0  0  0  0  0
    5.2006   -4.3364    4.9058 H   0  0  0  0  0  0  0  0  0  0  0  0
    4.9247   -6.9020    4.2144 H   0  0  0  0  0  0  0  0  0  0  0  0
    2.7365   -7.6358    1.2739 H   0  0  0  0  0  0  0  0  0  0  0  0
    4.2272   -8.1673    1.8844 H   0  0  0  0  0  0  0  0  0  0  0  0
    2.0593   -9.9082    4.4154 H   0  0  0  0  0  0  0  0  0  0  0  0
    3.7577  -11.7532    2.4739 H   0  0  0  0  0  0  0  0  0  0  0  0
    2.9750  -12.1766    3.9954 H   0  0  0  0  0  0  0  0  0  0  0  0
    4.7095  -12.3761    3.8222 H   0  0  0  0  0  0  0  0  0  0  0  0
    5.4781   -9.8550    2.4295 H   0  0  0  0  0  0  0  0  0  0  0  0
    6.2526  -10.4122    3.8869 H   0  0  0  0  0  0  0  0  0  0  0  0
    5.6807   -8.7776    3.8060 H   0  0  0  0  0  0  0  0  0  0  0  0
    2.0041  -10.0423    7.1657 H   0  0  0  0  0  0  0  0  0  0  0  0
   -0.5859   -8.6671    6.4622 H   0  0  0  0  0  0  0  0  0  0  0  0
    1.0292   -6.6685    3.2418 H   0  0  0  0  0  0  0  0  0  0  0  0
   -2.0676   -8.4389    4.2320 H   0  0  0  0  0  0  0  0  0  0  0  0
   -1.2495   -7.9771    2.6296 H   0  0  0  0  0  0  0  0  0  0  0  0
    5.9104   -8.3939    6.0704 H   0  0  0  0  0  0  0  0  0  0  0  0
    4.6209   -7.3214    6.8638 H   0  0  0  0  0  0  0  0  0  0  0  0
  1  2  1  0
  1 53  1  0
  1 54  1  0
  1 55  1  0
  2  3  1  0
  3  4  1  0
  3 56  1  0
  3 57  1  0
  4  5  1  0
  4  6  1  0
  4 58  1  6
  5 59  1  0
  6 13  1  0
  6  7  1  0
  6 60  1  1
  7  8  1  0
  7  9  1  0
  7 61  1  6
  8 62  1  0
  9 12  1  0
  9 10  1  0
  9 63  1  1
 10 11  1  0
 10 64  1  0
 10 65  1  0
 12 11  1  6
 12 33  1  0
 12 13  1  0
 13 14  1  0
 13 66  1  1
 14 30  1  0
 14 15  1  1
 14 25  1  0
 15 16  1  0
 16 21  1  0
 16 17  1  0
 16 67  1  1
 17 18  1  0
 18 19  1  0
 18 68  1  0
 18 69  1  0
 19 24  1  0
 19 20  1  0
 19 70  1  6
 20 21  1  0
 20 22  1  0
 20 71  1  6
 22 24  1  0
 22 23  1  0
 22 72  1  1
 23 24  1  0
 24 73  1  1
 25 26  1  0
 26 46  1  0
 26 27  1  1
 26 29  1  0
 27 28  1  0
 28 74  1  0
 28 75  1  0
 28 76  1  0
 29 30  1  0
 30 31  1  0
 30 77  1  1
 31 33  1  0
 31 32  1  0
 31 78  1  1
 33 32  1  6
 33 34  1  0
 34 35  1  0
 34 79  1  0
 34 80  1  0
 35 47  1  0
 35 36  2  3
 36 37  1  0
 36 81  1  0
 37 38  1  0
 37 39  1  0
 37 40  1  0
 38 82  1  0
 38 83  1  0
 38 84  1  0
 39 85  1  0
 39 86  1  0
 39 87  1  0
 41 40  1  6
 41 52  1  0
 41 42  1  0
 41 51  1  0
 42 43  2  3
 42 88  1  0
 43 46  1  0
 43 44  1  0
 44 48  1  0
 44 45  1  0
 44 89  1  1
 46 45  1  1
 46 47  1  0
 47 48  1  0
 47 90  1  6
 48 50  1  1
 48 49  1  0
 49 50  1  0
 49 91  1  0
 49 92  1  0
 51 52  1  0
 51 93  1  0
 51 94  1  0
M  END
>  <i_m_ct_stereo_status>  (151) 
1

>  <s_m_source_file>  (151) 
/var/tmp/pbs.5076253.sched01/tmp4uievzq0/12082cxahoa.sdf

>  <i_m_source_file_index>  (151) 
13

>  <i_lp_mmshare_version>  (151) 
48012

>  <i_f3d_flags>  (151) 
0

>  <s_epik_input>  (151) 
TzFbQ0BASF0yW0NASF0xW0NASF0oW0NASF0yMylPW0NAQEhdKE9bQ0gyXTMpT1tDQF0oW0NAQEhdNFtDQEhdKE81KVtDQEBdNTZbQ0BAXTc4OSkoW0NASF05W0NAQEhdKFtDQEBIXShbT0hdKVtDQEhdN1tDSDJdTzgpW0NAQEhdKFtPSF0pW0NIMl1PW0NIM10pT1tDQEBdKE80KShPW0NIM10pW0NAQF0xMkMzL1tDQEBIXShPMSlbQ0BAXTEoW0NIMl1PMSlbQ0BASF0yQyhcW0NIMl02KT1bQ0hdXEMoW0NIM10pKFtDSDNdKU9bQ0BdMSgvW0NIXT0zKVtDSDJdTzE=

>  <s_epik_cmdline>  (151) 
J2VwaWtfcHl0aG9uJywgJy1waHQnLCAnMi4wJywgJy1waCcsICc3LjAnLCAnLXRuJywgJzgnLCAnLW1hJywgJzIwMCcsICctaW1hZScsICc8aW5maWxlLm1hZT4nLCAnLW9tYWUnLCAnPG91dGZpbGUubWFlPic=

>  <r_lp_tautomer_probability>  (151) 
1

>  <r_epik_Ionization_Penalty>  (151) 
3.68725e-07

>  <r_epik_Ionization_Penalty_Charging>  (151) 
0

>  <r_epik_Ionization_Penalty_Neutral>  (151) 
3.68725e-07

>  <r_epik_State_Penalty>  (151) 
-0

>  <r_epik_Charging_Adjusted_Penalty>  (151) 
0

>  <i_epik_Tot_Q>  (151) 
0

>  <i_epik_Tot_abs_Q>  (151) 
0

>  <s_epik_Chemistry_Notes>  (151) 
This compound contains an acetal/aminal-like group ( X-CH(R)-Y where X, Y are N, S, or O) that may be acid/base labile, releasing an aldehyde.

>  <s_lp_Force_Field>  (151) 
OPLS3e

>  <r_lp_Energy>  (151) 
156.78

>  <b_lp_Chiralities_Consistent>  (151) 
1

>  <s_lp_Variant>  (151) 
90:0-1

>  <s_i_glide_gridfile>  (151) 
pfpi4k_grid

>  <i_i_glide_lignum>  (151) 
13

>  <i_i_glide_rotatable_bonds>  (151) 
8

>  <r_i_docking_score>  (151) 
0.382296

>  <r_i_glide_ligand_efficiency>  (151) 
0.00735185

>  <r_i_glide_ligand_efficiency_sa>  (151) 
0.0274409

>  <r_i_glide_ligand_efficiency_ln>  (151) 
0.0772122

>  <r_i_glide_gscore>  (151) 
0.382296

>  <r_i_glide_lipo>  (151) 
-0.186709

>  <r_i_glide_hbond>  (151) 
-0.0973378

>  <r_i_glide_metal>  (151) 
-0

>  <r_i_glide_rewards>  (151) 
-0.5

>  <r_i_glide_evdw>  (151) 
-28.3202

>  <r_i_glide_ecoul>  (151) 
-3.61788

>  <r_i_glide_erotb>  (151) 
0.161448

>  <r_i_glide_esite>  (151) 
-0.0131439

>  <r_i_glide_emodel>  (151) 
-24.9807

>  <r_i_glide_energy>  (151) 
-31.9381

>  <r_i_glide_einternal>  (151) 
2.82473

>  <r_i_glide_intrahb_reward>  (151) 
-0.5

>  <i_i_glide_confnum>  (151) 
3

>  <i_i_glide_posenum>  (151) 
25

>  <r_i_glide_eff_state_penalty>  (151) 
0

>  <ligand_id>  (151) 
90

>  <original_smiles>  (151) 
COCC(O)C1C(O)C2COC23C1C1(OC2OCC4C(O2)C2OC42)OC2(OC)OC1C1OC13CC1=CC(C)(C)OC3(C=C4C5OC42C1C51CO1)CO3

>  <smiles>  (151) 
[H]OC([H])(C([H])([H])OC([H])([H])[H])C1([H])C([H])(O[H])C2([H])C([H])([H])OC23C1([H])C1(OC2([H])OC([H])([H])C4([H])C([H])(O2)C2([H])OC24[H])OC2(OC([H])([H])[H])OC1([H])C1([H])OC13C([H])([H])C1=C([H])C(C([H])([H])[H])(C([H])([H])[H])OC3(OC3([H])[H])C([H])=C3C4([H])OC32C1([H])C41OC1([H])[H]

$$$$
90:1:0
     RDKit          3D

 94107  0  0  1  0  0  0  0  0999 V2000
   -1.8960    0.0132    5.7127 C   0  0  0  0  0  0  0  0  0  0  0  0
   -1.6735   -1.2673    5.1454 O   0  0  0  0  0  0  0  0  0  0  0  0
   -0.4020   -1.4445    4.5226 C   0  0  0  0  0  0  0  0  0  0  0  0
    0.5876   -2.0114    5.5632 C   0  0  2  0  0  0  0  0  0  0  0  0
    0.9951   -1.0070    6.4734 O   0  0  0  0  0  0  0  0  0  0  0  0
    1.8942   -2.6645    5.0411 C   0  0  2  0  0  0  0  0  0  0  0  0
    2.7425   -1.6502    4.1846 C   0  0  1  0  0  0  0  0  0  0  0  0
    3.9877   -1.3051    4.7491 O   0  0  0  0  0  0  0  0  0  0  0  0
    2.8484   -2.4856    2.9369 C   0  0  1  0  0  0  0  0  0  0  0  0
    3.7984   -2.7471    1.8200 C   0  0  0  0  0  0  0  0  0  0  0  0
    3.2266   -4.1179    1.8395 O   0  0  0  0  0  0  0  0  0  0  0  0
    3.0281   -3.9521    3.2916 C   0  0  2  0  0  0  0  0  0  0  0  0
    1.7745   -4.0034    4.1623 C   0  0  1  0  0  0  0  0  0  0  0  0
    1.6380   -5.3487    4.9387 C   0  0  1  0  0  0  0  0  0  0  0  0
    0.3468   -5.4114    5.5194 O   0  0  0  0  0  0  0  0  0  0  0  0
    0.1938   -5.1884    6.8965 C   0  0  2  0  0  0  0  0  0  0  0  0
    0.2663   -6.3860    7.5907 O   0  0  0  0  0  0  0  0  0  0  0  0
    0.2980   -6.1947    9.0018 C   0  0  0  0  0  0  0  0  0  0  0  0
   -0.6662   -5.0944    9.5186 C   0  0  2  0  0  0  0  0  0  0  0  0
   -1.3568   -4.2107    8.4864 C   0  0  2  0  0  0  0  0  0  0  0  0
   -1.0434   -4.5695    7.1417 O   0  0  0  0  0  0  0  0  0  0  0  0
   -0.6243   -3.0007    9.0390 C   0  0  1  0  0  0  0  0  0  0  0  0
   -0.7464   -2.7180   10.4421 O   0  0  0  0  0  0  0  0  0  0  0  0
    0.0369   -3.8718   10.0741 C   0  0  1  0  0  0  0  0  0  0  0  0
    1.6809   -6.3360    3.9672 O   0  0  0  0  0  0  0  0  0  0  0  0
    2.2277   -7.4987    4.5076 C   0  0  2  0  0  0  0  0  0  0  0  0
    1.2675   -8.4158    4.9743 O   0  0  0  0  0  0  0  0  0  0  0  0
    0.0115   -8.4223    4.3160 C   0  0  0  0  0  0  0  0  0  0  0  0
    3.0320   -7.1292    5.5768 O   0  0  0  0  0  0  0  0  0  0  0  0
    2.8319   -5.7500    5.8343 C   0  0  1  0  0  0  0  0  0  0  0  0
    4.1771   -5.2075    5.4066 C   0  0  2  0  0  0  0  0  0  0  0  0
    4.5264   -3.8540    5.2711 O   0  0  0  0  0  0  0  0  0  0  0  0
    4.2708   -4.5500    4.0428 C   0  0  2  0  0  0  0  0  0  0  0  0
    5.3978   -5.2082    3.2247 C   0  0  0  0  0  0  0  0  0  0  0  0
    5.3415   -6.7467    3.3740 C   0  0  0  0  0  0  0  0  0  0  0  0
    6.2508   -7.3457    4.1994 C   0  0  0  0  0  0  0  0  0  0  0  0
    6.3384   -8.7365    4.8475 C   0  0  0  0  0  0  0  0  0  0  0  0
    6.8823   -9.7785    3.8494 C   0  0  0  0  0  0  0  0  0  0  0  0
    7.3445   -8.6916    6.0195 C   0  0  0  0  0  0  0  0  0  0  0  0
    5.0998   -8.9833    5.5491 O   0  0  0  0  0  0  0  0  0  0  0  0
    4.4345  -10.2312    5.4354 C   0  0  2  0  0  0  0  0  0  0  0  0
    3.9732  -10.5648    4.0922 C   0  0  0  0  0  0  0  0  0  0  0  0
    3.4921   -9.5887    3.3041 C   0  0  0  0  0  0  0  0  0  0  0  0
    3.3163   -9.3978    1.8560 C   0  0  1  0  0  0  0  0  0  0  0  0
    2.2377   -8.4987    2.2323 O   0  0  0  0  0  0  0  0  0  0  0  0
    3.0715   -8.1474    3.3987 C   0  0  1  0  0  0  0  0  0  0  0  0
    4.1111   -7.3128    2.6396 C   0  0  2  0  0  0  0  0  0  0  0  0
    4.2894   -8.2967    1.5108 C   0  0  2  0  0  0  0  0  0  0  0  0
    4.6478   -7.9100    0.1068 C   0  0  0  0  0  0  0  0  0  0  0  0
    5.5875   -8.5726    0.9697 O   0  0  0  0  0  0  0  0  0  0  0  0
    3.6104  -10.5929    6.6448 C   0  0  0  0  0  0  0  0  0  0  0  0
    4.8299  -11.3079    6.3230 O   0  0  0  0  0  0  0  0  0  0  0  0
   -2.8990    0.0808    6.1433 H   0  0  0  0  0  0  0  0  0  0  0  0
   -1.8084    0.7769    4.9397 H   0  0  0  0  0  0  0  0  0  0  0  0
   -1.1788    0.2150    6.5091 H   0  0  0  0  0  0  0  0  0  0  0  0
   -0.5769   -2.2190    3.7784 H   0  0  0  0  0  0  0  0  0  0  0  0
   -0.0745   -0.5545    3.9778 H   0  0  0  0  0  0  0  0  0  0  0  0
    0.0106   -2.7458    6.1053 H   0  0  0  0  0  0  0  0  0  0  0  0
    1.3970   -0.3000    5.9901 H   0  0  0  0  0  0  0  0  0  0  0  0
    2.4639   -2.9133    5.9356 H   0  0  0  0  0  0  0  0  0  0  0  0
    2.1999   -0.7228    3.9896 H   0  0  0  0  0  0  0  0  0  0  0  0
    4.4556   -2.1095    4.9012 H   0  0  0  0  0  0  0  0  0  0  0  0
    1.9162   -2.3279    2.3874 H   0  0  0  0  0  0  0  0  0  0  0  0
    3.5377   -2.2128    0.9028 H   0  0  0  0  0  0  0  0  0  0  0  0
    4.8578   -2.6769    2.0751 H   0  0  0  0  0  0  0  0  0  0  0  0
    0.9062   -3.9344    3.5143 H   0  0  0  0  0  0  0  0  0  0  0  0
    0.9458   -4.4933    7.2404 H   0  0  0  0  0  0  0  0  0  0  0  0
    0.0047   -7.1615    9.4097 H   0  0  0  0  0  0  0  0  0  0  0  0
    1.3386   -6.0699    9.3065 H   0  0  0  0  0  0  0  0  0  0  0  0
   -1.4258   -5.4714   10.1957 H   0  0  0  0  0  0  0  0  0  0  0  0
   -2.4451   -4.2033    8.6264 H   0  0  0  0  0  0  0  0  0  0  0  0
   -0.0220   -2.3583    8.3855 H   0  0  0  0  0  0  0  0  0  0  0  0
    1.1399   -3.8598   10.1291 H   0  0  0  0  0  0  0  0  0  0  0  0
   -0.5445   -9.3028    4.6355 H   0  0  0  0  0  0  0  0  0  0  0  0
    0.0918   -8.4655    3.2310 H   0  0  0  0  0  0  0  0  0  0  0  0
   -0.5863   -7.5486    4.5767 H   0  0  0  0  0  0  0  0  0  0  0  0
    2.7234   -5.5605    6.8936 H   0  0  0  0  0  0  0  0  0  0  0  0
    5.0146   -5.7451    5.8501 H   0  0  0  0  0  0  0  0  0  0  0  0
    5.3853   -4.9322    2.1741 H   0  0  0  0  0  0  0  0  0  0  0  0
    6.3332   -4.8428    3.6182 H   0  0  0  0  0  0  0  0  0  0  0  0
    6.9872   -6.6891    4.6244 H   0  0  0  0  0  0  0  0  0  0  0  0
    7.8846   -9.4906    3.5096 H   0  0  0  0  0  0  0  0  0  0  0  0
    6.2697   -9.8549    2.9545 H   0  0  0  0  0  0  0  0  0  0  0  0
    6.9672  -10.7743    4.2901 H   0  0  0  0  0  0  0  0  0  0  0  0
    8.3544   -8.4391    5.6847 H   0  0  0  0  0  0  0  0  0  0  0  0
    7.4039   -9.6601    6.5208 H   0  0  0  0  0  0  0  0  0  0  0  0
    7.0524   -7.9593    6.7715 H   0  0  0  0  0  0  0  0  0  0  0  0
    4.2593  -11.5051    3.6560 H   0  0  0  0  0  0  0  0  0  0  0  0
    3.0349  -10.2173    1.1768 H   0  0  0  0  0  0  0  0  0  0  0  0
    3.6117   -6.4679    2.1738 H   0  0  0  0  0  0  0  0  0  0  0  0
    4.2685   -8.5536   -0.6895 H   0  0  0  0  0  0  0  0  0  0  0  0
    4.9233   -6.8978   -0.1664 H   0  0  0  0  0  0  0  0  0  0  0  0
    3.6390   -9.9418    7.5134 H   0  0  0  0  0  0  0  0  0  0  0  0
    2.6872  -11.1060    6.4374 H   0  0  0  0  0  0  0  0  0  0  0  0
  1  2  1  0
  1 53  1  0
  1 54  1  0
  1 55  1  0
  2  3  1  0
  3  4  1  0
  3 56  1  0
  3 57  1  0
  4  5  1  0
  4  6  1  0
  4 58  1  1
  5 59  1  0
  6 13  1  0
  6  7  1  0
  6 60  1  1
  7  8  1  0
  7  9  1  0
  7 61  1  6
  8 62  1  0
  9 12  1  0
  9 10  1  0
  9 63  1  6
 10 11  1  0
 10 64  1  0
 10 65  1  0
 12 11  1  6
 12 33  1  0
 12 13  1  0
 13 14  1  0
 13 66  1  6
 14 30  1  0
 14 15  1  1
 14 25  1  0
 15 16  1  0
 16 21  1  0
 16 17  1  0
 16 67  1  1
 17 18  1  0
 18 19  1  0
 18 68  1  0
 18 69  1  0
 19 24  1  0
 19 20  1  0
 19 70  1  1
 20 21  1  0
 20 22  1  0
 20 71  1  6
 22 24  1  0
 22 23  1  0
 22 72  1  6
 23 24  1  0
 24 73  1  6
 25 26  1  0
 26 46  1  0
 26 27  1  1
 26 29  1  0
 27 28  1  0
 28 74  1  0
 28 75  1  0
 28 76  1  0
 29 30  1  0
 30 31  1  0
 30 77  1  1
 31 33  1  0
 31 32  1  0
 31 78  1  6
 33 32  1  1
 33 34  1  0
 34 35  1  0
 34 79  1  0
 34 80  1  0
 35 47  1  0
 35 36  2  3
 36 37  1  0
 36 81  1  0
 37 38  1  0
 37 39  1  0
 37 40  1  0
 38 82  1  0
 38 83  1  0
 38 84  1  0
 39 85  1  0
 39 86  1  0
 39 87  1  0
 41 40  1  6
 41 52  1  0
 41 42  1  0
 41 51  1  0
 42 43  2  3
 42 88  1  0
 43 46  1  0
 43 44  1  0
 44 48  1  0
 44 45  1  0
 44 89  1  6
 46 45  1  6
 46 47  1  0
 47 48  1  0
 47 90  1  6
 48 50  1  1
 48 49  1  0
 49 50  1  0
 49 91  1  0
 49 92  1  0
 51 52  1  0
 51 93  1  0
 51 94  1  0
M  END
>  <i_m_ct_stereo_status>  (152) 
1

>  <s_m_source_file>  (152) 
/var/tmp/pbs.5076253.sched01/tmp4uievzq0/12082cxahoa.sdf

>  <i_m_source_file_index>  (152) 
14

>  <i_lp_mmshare_version>  (152) 
48012

>  <i_f3d_flags>  (152) 
0

>  <s_epik_input>  (152) 
TzFbQ0BASF0yW0NASF0xW0NASF0oW0NASF0yMylPW0NAQEhdKE9bQ0gyXTMpT1tDQF0oW0NAQEhdNFtDQEhdKE81KVtDQEBdNTZbQ0BAXTc4OSkoW0NASF05W0NAQEhdKFtDQEBIXShbT0hdKVtDQEhdN1tDSDJdTzgpW0NAQEhdKFtPSF0pW0NIMl1PW0NIM10pT1tDQEBdKE80KShPW0NIM10pW0NAQF0xMkMzL1tDQEBIXShPMSlbQ0BAXTEoW0NIMl1PMSlbQ0BASF0yQyhcW0NIMl02KT1bQ0hdXEMoW0NIM10pKFtDSDNdKU9bQ0BdMSgvW0NIXT0zKVtDSDJdTzE=

>  <s_epik_cmdline>  (152) 
J2VwaWtfcHl0aG9uJywgJy1waHQnLCAnMi4wJywgJy1waCcsICc3LjAnLCAnLXRuJywgJzgnLCAnLW1hJywgJzIwMCcsICctaW1hZScsICc8aW5maWxlLm1hZT4nLCAnLW9tYWUnLCAnPG91dGZpbGUubWFlPic=

>  <r_lp_tautomer_probability>  (152) 
1

>  <r_epik_Ionization_Penalty>  (152) 
3.68725e-07

>  <r_epik_Ionization_Penalty_Charging>  (152) 
0

>  <r_epik_Ionization_Penalty_Neutral>  (152) 
3.68725e-07

>  <r_epik_State_Penalty>  (152) 
-0

>  <r_epik_Charging_Adjusted_Penalty>  (152) 
0

>  <i_epik_Tot_Q>  (152) 
0

>  <i_epik_Tot_abs_Q>  (152) 
0

>  <s_epik_Chemistry_Notes>  (152) 
This compound contains an acetal/aminal-like group ( X-CH(R)-Y where X, Y are N, S, or O) that may be acid/base labile, releasing an aldehyde.

>  <s_lp_Force_Field>  (152) 
OPLS3e

>  <r_lp_Energy>  (152) 
136.623

>  <b_lp_Chiralities_Consistent>  (152) 
1

>  <s_lp_Variant>  (152) 
90:0-2

>  <s_i_glide_gridfile>  (152) 
pfpi4k_grid

>  <i_i_glide_lignum>  (152) 
14

>  <i_i_glide_rotatable_bonds>  (152) 
8

>  <r_i_docking_score>  (152) 
-2.18151

>  <r_i_glide_ligand_efficiency>  (152) 
-0.041952

>  <r_i_glide_ligand_efficiency_sa>  (152) 
-0.156586

>  <r_i_glide_ligand_efficiency_ln>  (152) 
-0.440597

>  <r_i_glide_gscore>  (152) 
-2.18151

>  <r_i_glide_lipo>  (152) 
-0.0328545

>  <r_i_glide_hbond>  (152) 
-0.120548

>  <r_i_glide_metal>  (152) 
-0

>  <r_i_glide_rewards>  (152) 
-0.5

>  <r_i_glide_evdw>  (152) 
-26.4286

>  <r_i_glide_ecoul>  (152) 
-2.36343

>  <r_i_glide_erotb>  (152) 
0.161448

>  <r_i_glide_esite>  (152) 
-0.0136057

>  <r_i_glide_emodel>  (152) 
-32.0557

>  <r_i_glide_energy>  (152) 
-28.792

>  <r_i_glide_einternal>  (152) 
8.70478

>  <r_i_glide_intrahb_reward>  (152) 
-0.5

>  <i_i_glide_confnum>  (152) 
2

>  <i_i_glide_posenum>  (152) 
15

>  <r_i_glide_eff_state_penalty>  (152) 
0

>  <ligand_id>  (152) 
90

>  <original_smiles>  (152) 
COCC(O)C1C(O)C2COC23C1C1(OC2OCC4C(O2)C2OC42)OC2(OC)OC1C1OC13CC1=CC(C)(C)OC3(C=C4C5OC42C1C51CO1)CO3

>  <smiles>  (152) 
[H]OC([H])(C([H])([H])OC([H])([H])[H])C1([H])C([H])(O[H])C2([H])C([H])([H])OC23C1([H])C1(OC2([H])OC([H])([H])C4([H])C([H])(O2)C2([H])OC24[H])OC2(OC([H])([H])[H])OC1([H])C1([H])OC13C([H])([H])C1=C([H])C(C([H])([H])[H])(C([H])([H])[H])OC3(OC3([H])[H])C([H])=C3C4([H])OC32C1([H])C41OC1([H])[H]

$$$$
90:2:0
     RDKit          3D

 94107  0  0  1  0  0  0  0  0999 V2000
    7.3428   -8.0378    2.4483 C   0  0  0  0  0  0  0  0  0  0  0  0
    6.2911   -8.9806    2.5819 O   0  0  0  0  0  0  0  0  0  0  0  0
    5.4699   -9.1471    1.4277 C   0  0  0  0  0  0  0  0  0  0  0  0
    4.4751   -7.9789    1.2055 C   0  0  2  0  0  0  0  0  0  0  0  0
    5.1645   -6.8967    0.6386 O   0  0  0  0  0  0  0  0  0  0  0  0
    3.6370   -7.5760    2.4494 C   0  0  2  0  0  0  0  0  0  0  0  0
    2.4248   -8.5904    2.5190 C   0  0  1  0  0  0  0  0  0  0  0  0
    2.3131   -9.2839    3.7387 O   0  0  0  0  0  0  0  0  0  0  0  0
    1.3178   -7.5974    2.3162 C   0  0  1  0  0  0  0  0  0  0  0  0
   -0.0987   -7.3204    2.6766 C   0  0  0  0  0  0  0  0  0  0  0  0
    0.2920   -5.8939    2.6728 O   0  0  0  0  0  0  0  0  0  0  0  0
    1.6251   -6.3175    3.0859 C   0  0  2  0  0  0  0  0  0  0  0  0
    2.9705   -6.0974    2.4022 C   0  0  1  0  0  0  0  0  0  0  0  0
    3.7580   -4.9116    3.0570 C   0  0  1  0  0  0  0  0  0  0  0  0
    4.8956   -4.5352    2.2944 O   0  0  0  0  0  0  0  0  0  0  0  0
    4.6465   -3.7506    1.1305 C   0  0  2  0  0  0  0  0  0  0  0  0
    3.9030   -2.6145    1.3649 O   0  0  0  0  0  0  0  0  0  0  0  0
    3.9209   -1.6093    0.3778 C   0  0  0  0  0  0  0  0  0  0  0  0
    3.6448   -2.2122   -0.9940 C   0  0  2  0  0  0  0  0  0  0  0  0
    3.7069   -3.7112   -1.1527 C   0  0  2  0  0  0  0  0  0  0  0  0
    4.0971   -4.4374    0.0417 O   0  0  0  0  0  0  0  0  0  0  0  0
    4.8620   -3.5951   -2.1304 C   0  0  2  0  0  0  0  0  0  0  0  0
    4.7919   -2.6977   -3.2496 O   0  0  0  0  0  0  0  0  0  0  0  0
    4.8201   -2.0842   -1.9380 C   0  0  1  0  0  0  0  0  0  0  0  0
    2.8895   -3.8601    3.2988 O   0  0  0  0  0  0  0  0  0  0  0  0
    3.4119   -3.1031    4.3420 C   0  0  2  0  0  0  0  0  0  0  0  0
    4.1499   -2.0297    3.8355 O   0  0  0  0  0  0  0  0  0  0  0  0
    5.0009   -1.2810    4.6748 C   0  0  0  0  0  0  0  0  0  0  0  0
    4.2160   -3.9226    5.1350 O   0  0  0  0  0  0  0  0  0  0  0  0
    4.1837   -5.1884    4.5136 C   0  0  1  0  0  0  0  0  0  0  0  0
    3.0918   -5.8219    5.3445 C   0  0  2  0  0  0  0  0  0  0  0  0
    2.6903   -7.1652    5.1924 O   0  0  0  0  0  0  0  0  0  0  0  0
    1.7847   -6.2080    4.6511 C   0  0  2  0  0  0  0  0  0  0  0  0
    0.5489   -5.8187    5.4552 C   0  0  0  0  0  0  0  0  0  0  0  0
    0.5180   -4.3957    6.0389 C   0  0  0  0  0  0  0  0  0  0  0  0
    0.3119   -4.0553    7.3511 C   0  0  0  0  0  0  0  0  0  0  0  0
    0.5837   -4.6879    8.7145 C   0  0  0  0  0  0  0  0  0  0  0  0
   -0.6381   -4.4708    9.6262 C   0  0  0  0  0  0  0  0  0  0  0  0
    0.9421   -6.1829    8.7044 C   0  0  0  0  0  0  0  0  0  0  0  0
    1.7151   -4.0377    9.3687 O   0  0  0  0  0  0  0  0  0  0  0  0
    2.2299   -2.7413    8.9528 C   0  0  2  0  0  0  0  0  0  0  0  0
    2.8357   -2.7071    7.5947 C   0  0  0  0  0  0  0  0  0  0  0  0
    2.3023   -2.1108    6.5098 C   0  0  0  0  0  0  0  0  0  0  0  0
    1.1897   -1.1705    6.0755 C   0  0  1  0  0  0  0  0  0  0  0  0
    1.8994   -1.1584    4.8123 O   0  0  0  0  0  0  0  0  0  0  0  0
    2.1814   -2.5690    5.1050 C   0  0  1  0  0  0  0  0  0  0  0  0
    0.7581   -3.2436    5.0175 C   0  0  2  0  0  0  0  0  0  0  0  0
    0.0735   -1.9468    5.4252 C   0  0  2  0  0  0  0  0  0  0  0  0
   -1.0074   -1.3130    4.5941 C   0  0  0  0  0  0  0  0  0  0  0  0
   -1.2842   -1.9232    5.8617 O   0  0  0  0  0  0  0  0  0  0  0  0
    2.7859   -1.9078   10.0561 C   0  0  0  0  0  0  0  0  0  0  0  0
    1.5122   -1.6115    9.4476 O   0  0  0  0  0  0  0  0  0  0  0  0
    7.9939   -8.0985    3.3212 H   0  0  0  0  0  0  0  0  0  0  0  0
    6.9689   -7.0151    2.4090 H   0  0  0  0  0  0  0  0  0  0  0  0
    7.9415   -8.2373    1.5586 H   0  0  0  0  0  0  0  0  0  0  0  0
    6.0590   -9.3730    0.5316 H   0  0  0  0  0  0  0  0  0  0  0  0
    4.8761  -10.0424    1.6049 H   0  0  0  0  0  0  0  0  0  0  0  0
    3.8093   -8.2857    0.3982 H   0  0  0  0  0  0  0  0  0  0  0  0
    5.8371   -6.6129    1.2337 H   0  0  0  0  0  0  0  0  0  0  0  0
    4.2553   -7.6879    3.3437 H   0  0  0  0  0  0  0  0  0  0  0  0
    2.4329   -9.3330    1.7169 H   0  0  0  0  0  0  0  0  0  0  0  0
    2.3253   -8.6356    4.4273 H   0  0  0  0  0  0  0  0  0  0  0  0
    1.2701   -7.4044    1.2381 H   0  0  0  0  0  0  0  0  0  0  0  0
   -0.7952   -7.5499    1.8714 H   0  0  0  0  0  0  0  0  0  0  0  0
   -0.4053   -7.7175    3.6440 H   0  0  0  0  0  0  0  0  0  0  0  0
    2.7417   -5.8295    1.3728 H   0  0  0  0  0  0  0  0  0  0  0  0
    5.6524   -3.4668    0.8366 H   0  0  0  0  0  0  0  0  0  0  0  0
    3.1121   -0.9476    0.6807 H   0  0  0  0  0  0  0  0  0  0  0  0
    4.8057   -0.9518    0.4761 H   0  0  0  0  0  0  0  0  0  0  0  0
    2.7219   -1.8546   -1.4181 H   0  0  0  0  0  0  0  0  0  0  0  0
    2.7542   -4.0825   -1.5399 H   0  0  0  0  0  0  0  0  0  0  0  0
    5.7964   -4.0975   -1.8361 H   0  0  0  0  0  0  0  0  0  0  0  0
    5.7354   -1.5970   -1.5668 H   0  0  0  0  0  0  0  0  0  0  0  0
    5.4478   -0.5126    4.0504 H   0  0  0  0  0  0  0  0  0  0  0  0
    5.8101   -1.8841    5.0766 H   0  0  0  0  0  0  0  0  0  0  0  0
    4.4822   -0.7716    5.4832 H   0  0  0  0  0  0  0  0  0  0  0  0
    5.1199   -5.7346    4.5661 H   0  0  0  0  0  0  0  0  0  0  0  0
    3.0546   -5.4995    6.3812 H   0  0  0  0  0  0  0  0  0  0  0  0
   -0.3669   -5.8802    4.8652 H   0  0  0  0  0  0  0  0  0  0  0  0
    0.4175   -6.5664    6.2239 H   0  0  0  0  0  0  0  0  0  0  0  0
    0.1569   -3.0167    7.5667 H   0  0  0  0  0  0  0  0  0  0  0  0
   -1.5259   -4.9653    9.2321 H   0  0  0  0  0  0  0  0  0  0  0  0
   -0.8693   -3.4139    9.7349 H   0  0  0  0  0  0  0  0  0  0  0  0
   -0.4605   -4.8621   10.6262 H   0  0  0  0  0  0  0  0  0  0  0  0
    0.1051   -6.8042    8.3807 H   0  0  0  0  0  0  0  0  0  0  0  0
    1.2110   -6.5151    9.7081 H   0  0  0  0  0  0  0  0  0  0  0  0
    1.7995   -6.3872    8.0659 H   0  0  0  0  0  0  0  0  0  0  0  0
    3.5425   -3.4973    7.4239 H   0  0  0  0  0  0  0  0  0  0  0  0
    1.0316   -0.1472    6.4580 H   0  0  0  0  0  0  0  0  0  0  0  0
    0.4806   -3.5143    3.9963 H   0  0  0  0  0  0  0  0  0  0  0  0
   -1.0801   -0.2317    4.5744 H   0  0  0  0  0  0  0  0  0  0  0  0
   -1.3470   -1.8513    3.7257 H   0  0  0  0  0  0  0  0  0  0  0  0
    2.7604   -2.3284   11.0600 H   0  0  0  0  0  0  0  0  0  0  0  0
    3.5914   -1.1935    9.8299 H   0  0  0  0  0  0  0  0  0  0  0  0
  1  2  1  0
  1 53  1  0
  1 54  1  0
  1 55  1  0
  2  3  1  0
  3  4  1  0
  3 56  1  0
  3 57  1  0
  4  5  1  0
  4  6  1  0
  4 58  1  6
  5 59  1  0
  6 13  1  0
  6  7  1  0
  6 60  1  1
  7  8  1  0
  7  9  1  0
  7 61  1  6
  8 62  1  0
  9 12  1  0
  9 10  1  0
  9 63  1  6
 10 11  1  0
 10 64  1  0
 10 65  1  0
 12 11  1  6
 12 33  1  0
 12 13  1  0
 13 14  1  0
 13 66  1  6
 14 30  1  0
 14 15  1  6
 14 25  1  0
 15 16  1  0
 16 21  1  0
 16 17  1  0
 16 67  1  6
 17 18  1  0
 18 19  1  0
 18 68  1  0
 18 69  1  0
 19 24  1  0
 19 20  1  0
 19 70  1  6
 20 21  1  0
 20 22  1  0
 20 71  1  6
 22 24  1  0
 22 23  1  0
 22 72  1  6
 23 24  1  0
 24 73  1  6
 25 26  1  0
 26 46  1  0
 26 27  1  6
 26 29  1  0
 27 28  1  0
 28 74  1  0
 28 75  1  0
 28 76  1  0
 29 30  1  0
 30 31  1  0
 30 77  1  6
 31 33  1  0
 31 32  1  0
 31 78  1  1
 33 32  1  1
 33 34  1  0
 34 35  1  0
 34 79  1  0
 34 80  1  0
 35 47  1  0
 35 36  2  3
 36 37  1  0
 36 81  1  0
 37 38  1  0
 37 39  1  0
 37 40  1  0
 38 82  1  0
 38 83  1  0
 38 84  1  0
 39 85  1  0
 39 86  1  0
 39 87  1  0
 41 40  1  1
 41 52  1  0
 41 42  1  0
 41 51  1  0
 42 43  2  3
 42 88  1  0
 43 46  1  0
 43 44  1  0
 44 48  1  0
 44 45  1  0
 44 89  1  1
 46 45  1  6
 46 47  1  0
 47 48  1  0
 47 90  1  6
 48 50  1  1
 48 49  1  0
 49 50  1  0
 49 91  1  0
 49 92  1  0
 51 52  1  0
 51 93  1  0
 51 94  1  0
M  END
>  <i_m_ct_stereo_status>  (153) 
1

>  <s_m_source_file>  (153) 
/var/tmp/pbs.5076253.sched01/tmp4uievzq0/12082cxahoa.sdf

>  <i_m_source_file_index>  (153) 
15

>  <i_lp_mmshare_version>  (153) 
48012

>  <i_f3d_flags>  (153) 
0

>  <s_epik_input>  (153) 
TzFbQ0BASF0yW0NASF0xW0NASF0oW0NASF0yMylPW0NAQEhdKE9bQ0gyXTMpT1tDQF0oW0NAQEhdNFtDQEhdKE81KVtDQEBdNTZbQ0BAXTc4OSkoW0NASF05W0NAQEhdKFtDQEBIXShbT0hdKVtDQEhdN1tDSDJdTzgpW0NAQEhdKFtPSF0pW0NIMl1PW0NIM10pT1tDQEBdKE80KShPW0NIM10pW0NAQF0xMkMzL1tDQEBIXShPMSlbQ0BAXTEoW0NIMl1PMSlbQ0BASF0yQyhcW0NIMl02KT1bQ0hdXEMoW0NIM10pKFtDSDNdKU9bQ0BdMSgvW0NIXT0zKVtDSDJdTzE=

>  <s_epik_cmdline>  (153) 
J2VwaWtfcHl0aG9uJywgJy1waHQnLCAnMi4wJywgJy1waCcsICc3LjAnLCAnLXRuJywgJzgnLCAnLW1hJywgJzIwMCcsICctaW1hZScsICc8aW5maWxlLm1hZT4nLCAnLW9tYWUnLCAnPG91dGZpbGUubWFlPic=

>  <r_lp_tautomer_probability>  (153) 
1

>  <r_epik_Ionization_Penalty>  (153) 
3.68725e-07

>  <r_epik_Ionization_Penalty_Charging>  (153) 
0

>  <r_epik_Ionization_Penalty_Neutral>  (153) 
3.68725e-07

>  <r_epik_State_Penalty>  (153) 
-0

>  <r_epik_Charging_Adjusted_Penalty>  (153) 
0

>  <i_epik_Tot_Q>  (153) 
0

>  <i_epik_Tot_abs_Q>  (153) 
0

>  <s_epik_Chemistry_Notes>  (153) 
This compound contains an acetal/aminal-like group ( X-CH(R)-Y where X, Y are N, S, or O) that may be acid/base labile, releasing an aldehyde.

>  <s_lp_Force_Field>  (153) 
OPLS3e

>  <r_lp_Energy>  (153) 
159.144

>  <b_lp_Chiralities_Consistent>  (153) 
1

>  <s_lp_Variant>  (153) 
90:0-3

>  <s_i_glide_gridfile>  (153) 
pfpi4k_grid

>  <i_i_glide_lignum>  (153) 
15

>  <i_i_glide_rotatable_bonds>  (153) 
8

>  <r_i_docking_score>  (153) 
-2.67214

>  <r_i_glide_ligand_efficiency>  (153) 
-0.0513873

>  <r_i_glide_ligand_efficiency_sa>  (153) 
-0.191804

>  <r_i_glide_ligand_efficiency_ln>  (153) 
-0.539691

>  <r_i_glide_gscore>  (153) 
-2.67214

>  <r_i_glide_lipo>  (153) 
-0.11431

>  <r_i_glide_hbond>  (153) 
-0.125799

>  <r_i_glide_metal>  (153) 
-0

>  <r_i_glide_rewards>  (153) 
-0.535959

>  <r_i_glide_evdw>  (153) 
-28.1995

>  <r_i_glide_ecoul>  (153) 
-4.31696

>  <r_i_glide_erotb>  (153) 
0.161448

>  <r_i_glide_esite>  (153) 
0

>  <r_i_glide_emodel>  (153) 
-39.375

>  <r_i_glide_energy>  (153) 
-32.5165

>  <r_i_glide_einternal>  (153) 
3.86549

>  <r_i_glide_intrahb_reward>  (153) 
-0.5

>  <i_i_glide_confnum>  (153) 
4

>  <i_i_glide_posenum>  (153) 
21

>  <r_i_glide_eff_state_penalty>  (153) 
0

>  <ligand_id>  (153) 
90

>  <original_smiles>  (153) 
COCC(O)C1C(O)C2COC23C1C1(OC2OCC4C(O2)C2OC42)OC2(OC)OC1C1OC13CC1=CC(C)(C)OC3(C=C4C5OC42C1C51CO1)CO3

>  <smiles>  (153) 
[H]OC([H])(C([H])([H])OC([H])([H])[H])C1([H])C([H])(O[H])C2([H])C([H])([H])OC23C1([H])C1(OC2([H])OC([H])([H])C4([H])C([H])(O2)C2([H])OC24[H])OC2(OC([H])([H])[H])OC1([H])C1([H])OC13C([H])([H])C1=C([H])C(C([H])([H])[H])(C([H])([H])[H])OC3(OC3([H])[H])C([H])=C3C4([H])OC32C1([H])C41OC1([H])[H]

$$$$
90:2:1
     RDKit          3D

 94107  0  0  1  0  0  0  0  0999 V2000
    6.4342   -7.7702    6.1973 C   0  0  0  0  0  0  0  0  0  0  0  0
    5.5886   -7.4170    5.1476 O   0  0  0  0  0  0  0  0  0  0  0  0
    4.2841   -7.9846    5.2464 C   0  0  0  0  0  0  0  0  0  0  0  0
    3.3038   -7.4708    4.1617 C   0  0  2  0  0  0  0  0  0  0  0  0
    3.6364   -8.1081    2.9095 O   0  0  0  0  0  0  0  0  0  0  0  0
    3.2982   -5.9083    3.8883 C   0  0  2  0  0  0  0  0  0  0  0  0
    4.7336   -5.3789    3.4514 C   0  0  1  0  0  0  0  0  0  0  0  0
    4.7964   -4.6480    2.2180 O   0  0  0  0  0  0  0  0  0  0  0  0
    4.9637   -4.5693    4.6999 C   0  0  1  0  0  0  0  0  0  0  0  0
    5.7117   -3.3501    5.1547 C   0  0  0  0  0  0  0  0  0  0  0  0
    4.5443   -3.1123    6.0441 O   0  0  0  0  0  0  0  0  0  0  0  0
    3.7103   -3.7794    5.0453 C   0  0  2  0  0  0  0  0  0  0  0  0
    2.8064   -5.0157    5.1466 C   0  0  1  0  0  0  0  0  0  0  0  0
    1.3105   -4.5854    5.2938 C   0  0  1  0  0  0  0  0  0  0  0  0
    0.4562   -5.6245    5.7283 O   0  0  0  0  0  0  0  0  0  0  0  0
    0.2027   -6.7042    4.8573 C   0  0  2  0  0  0  0  0  0  0  0  0
   -1.0520   -6.5761    4.2544 O   0  0  0  0  0  0  0  0  0  0  0  0
   -1.1366   -7.4714    3.1516 C   0  0  0  0  0  0  0  0  0  0  0  0
   -0.7525   -8.9205    3.5675 C   0  0  2  0  0  0  0  0  0  0  0  0
   -0.0736   -9.1409    4.9269 C   0  0  2  0  0  0  0  0  0  0  0  0
    0.2146   -7.8923    5.6011 O   0  0  0  0  0  0  0  0  0  0  0  0
    1.0813   -9.8078    4.2418 C   0  0  1  0  0  0  0  0  0  0  0  0
    0.8179  -10.8679    3.3291 O   0  0  0  0  0  0  0  0  0  0  0  0
    0.4578   -9.5496    2.8840 C   0  0  1  0  0  0  0  0  0  0  0  0
    1.3003   -3.5822    6.2659 O   0  0  0  0  0  0  0  0  0  0  0  0
    0.1578   -2.8328    6.0763 C   0  0  2  0  0  0  0  0  0  0  0  0
   -0.8690   -3.2749    6.9189 O   0  0  0  0  0  0  0  0  0  0  0  0
   -0.4843   -3.7349    8.2165 C   0  0  0  0  0  0  0  0  0  0  0  0
   -0.2288   -2.9817    4.7504 O   0  0  0  0  0  0  0  0  0  0  0  0
    0.7245   -3.8155    4.1259 C   0  0  1  0  0  0  0  0  0  0  0  0
    1.6543   -2.7967    3.5507 C   0  0  2  0  0  0  0  0  0  0  0  0
    2.7802   -3.1706    2.7786 O   0  0  0  0  0  0  0  0  0  0  0  0
    3.0601   -2.6850    4.1037 C   0  0  2  0  0  0  0  0  0  0  0  0
    3.4972   -1.2263    4.2775 C   0  0  0  0  0  0  0  0  0  0  0  0
    2.4884   -0.2920    4.9597 C   0  0  0  0  0  0  0  0  0  0  0  0
    2.0398    0.8957    4.4662 C   0  0  0  0  0  0  0  0  0  0  0  0
    1.7926    1.5036    3.0755 C   0  0  0  0  0  0  0  0  0  0  0  0
    2.2870    2.9647    3.0570 C   0  0  0  0  0  0  0  0  0  0  0  0
    2.4195    0.7480    1.8878 C   0  0  0  0  0  0  0  0  0  0  0  0
    0.3656    1.5501    2.7935 O   0  0  0  0  0  0  0  0  0  0  0  0
   -0.6481    1.4076    3.8249 C   0  0  2  0  0  0  0  0  0  0  0  0
   -0.6923    0.0772    4.5039 C   0  0  0  0  0  0  0  0  0  0  0  0
   -0.3127   -0.2107    5.7584 C   0  0  0  0  0  0  0  0  0  0  0  0
    0.0911    0.4731    7.0600 C   0  0  1  0  0  0  0  0  0  0  0  0
   -0.0969   -0.8534    7.6238 O   0  0  0  0  0  0  0  0  0  0  0  0
    0.4812   -1.3309    6.3587 C   0  0  1  0  0  0  0  0  0  0  0  0
    1.9541   -0.7975    6.3461 C   0  0  2  0  0  0  0  0  0  0  0  0
    1.5821    0.3595    7.2563 C   0  0  2  0  0  0  0  0  0  0  0  0
    2.2813    0.6294    8.5640 C   0  0  0  0  0  0  0  0  0  0  0  0
    2.4408    1.4979    7.4238 O   0  0  0  0  0  0  0  0  0  0  0  0
   -1.9158    2.1530    3.5463 C   0  0  0  0  0  0  0  0  0  0  0  0
   -0.9484    2.6245    4.5066 O   0  0  0  0  0  0  0  0  0  0  0  0
    7.3190   -7.1509    6.1014 H   0  0  0  0  0  0  0  0  0  0  0  0
    6.7525   -8.8264    6.1830 H   0  0  0  0  0  0  0  0  0  0  0  0
    5.9935   -7.5571    7.1810 H   0  0  0  0  0  0  0  0  0  0  0  0
    4.2867   -9.0839    5.2524 H   0  0  0  0  0  0  0  0  0  0  0  0
    3.8466   -7.7240    6.2152 H   0  0  0  0  0  0  0  0  0  0  0  0
    2.3584   -7.8169    4.4815 H   0  0  0  0  0  0  0  0  0  0  0  0
    4.5421   -8.0323    2.6188 H   0  0  0  0  0  0  0  0  0  0  0  0
    2.6266   -5.7337    3.0540 H   0  0  0  0  0  0  0  0  0  0  0  0
    5.4567   -6.1915    3.3407 H   0  0  0  0  0  0  0  0  0  0  0  0
    4.1626   -3.9431    2.2770 H   0  0  0  0  0  0  0  0  0  0  0  0
    5.1833   -5.3039    5.4958 H   0  0  0  0  0  0  0  0  0  0  0  0
    6.6228   -3.6272    5.6903 H   0  0  0  0  0  0  0  0  0  0  0  0
    5.8561   -2.6049    4.3496 H   0  0  0  0  0  0  0  0  0  0  0  0
    3.0699   -5.5335    6.0644 H   0  0  0  0  0  0  0  0  0  0  0  0
    0.9072   -6.7430    4.1075 H   0  0  0  0  0  0  0  0  0  0  0  0
   -2.1769   -7.4434    2.8369 H   0  0  0  0  0  0  0  0  0  0  0  0
   -0.5681   -7.1181    2.2857 H   0  0  0  0  0  0  0  0  0  0  0  0
   -1.6120   -9.5723    3.4296 H   0  0  0  0  0  0  0  0  0  0  0  0
   -0.5535   -9.8487    5.6028 H   0  0  0  0  0  0  0  0  0  0  0  0
    2.1157   -9.6543    4.6128 H   0  0  0  0  0  0  0  0  0  0  0  0
    1.0156   -9.0341    2.1106 H   0  0  0  0  0  0  0  0  0  0  0  0
   -1.3632   -4.0500    8.7745 H   0  0  0  0  0  0  0  0  0  0  0  0
    0.0147   -2.9595    8.7910 H   0  0  0  0  0  0  0  0  0  0  0  0
    0.1801   -4.5920    8.1625 H   0  0  0  0  0  0  0  0  0  0  0  0
    0.3233   -4.4742    3.3599 H   0  0  0  0  0  0  0  0  0  0  0  0
    1.1639   -1.9220    3.1368 H   0  0  0  0  0  0  0  0  0  0  0  0
    4.4014   -1.1380    4.8714 H   0  0  0  0  0  0  0  0  0  0  0  0
    3.8120   -0.8502    3.3092 H   0  0  0  0  0  0  0  0  0  0  0  0
    1.4979    1.5328    5.1409 H   0  0  0  0  0  0  0  0  0  0  0  0
    3.3632    3.0376    3.2192 H   0  0  0  0  0  0  0  0  0  0  0  0
    1.7988    3.5596    3.8287 H   0  0  0  0  0  0  0  0  0  0  0  0
    2.0669    3.4416    2.1001 H   0  0  0  0  0  0  0  0  0  0  0  0
    3.5113    0.7970    1.8914 H   0  0  0  0  0  0  0  0  0  0  0  0
    2.0873    1.1947    0.9507 H   0  0  0  0  0  0  0  0  0  0  0  0
    2.1022   -0.2924    1.8565 H   0  0  0  0  0  0  0  0  0  0  0  0
   -0.7081   -0.7278    3.7783 H   0  0  0  0  0  0  0  0  0  0  0  0
   -0.5055    1.2531    7.5773 H   0  0  0  0  0  0  0  0  0  0  0  0
    2.6523   -1.4519    6.8642 H   0  0  0  0  0  0  0  0  0  0  0  0
    1.7122    1.0562    9.3851 H   0  0  0  0  0  0  0  0  0  0  0  0
    3.1602    0.0459    8.8226 H   0  0  0  0  0  0  0  0  0  0  0  0
   -2.0068    2.7077    2.6188 H   0  0  0  0  0  0  0  0  0  0  0  0
   -2.8446    1.7761    3.9976 H   0  0  0  0  0  0  0  0  0  0  0  0
  1  2  1  0
  1 53  1  0
  1 54  1  0
  1 55  1  0
  2  3  1  0
  3  4  1  0
  3 56  1  0
  3 57  1  0
  4  5  1  0
  4  6  1  0
  4 58  1  1
  5 59  1  0
  6 13  1  0
  6  7  1  0
  6 60  1  6
  7  8  1  0
  7  9  1  0
  7 61  1  6
  8 62  1  0
  9 12  1  0
  9 10  1  0
  9 63  1  1
 10 11  1  0
 10 64  1  0
 10 65  1  0
 12 11  1  1
 12 33  1  0
 12 13  1  0
 13 14  1  0
 13 66  1  1
 14 30  1  0
 14 15  1  1
 14 25  1  0
 15 16  1  0
 16 21  1  0
 16 17  1  0
 16 67  1  6
 17 18  1  0
 18 19  1  0
 18 68  1  0
 18 69  1  0
 19 24  1  0
 19 20  1  0
 19 70  1  1
 20 21  1  0
 20 22  1  0
 20 71  1  1
 22 24  1  0
 22 23  1  0
 22 72  1  6
 23 24  1  0
 24 73  1  6
 25 26  1  0
 26 46  1  0
 26 27  1  1
 26 29  1  0
 27 28  1  0
 28 74  1  0
 28 75  1  0
 28 76  1  0
 29 30  1  0
 30 31  1  0
 30 77  1  6
 31 33  1  0
 31 32  1  0
 31 78  1  6
 33 32  1  6
 33 34  1  0
 34 35  1  0
 34 79  1  0
 34 80  1  0
 35 47  1  0
 35 36  2  3
 36 37  1  0
 36 81  1  0
 37 38  1  0
 37 39  1  0
 37 40  1  0
 38 82  1  0
 38 83  1  0
 38 84  1  0
 39 85  1  0
 39 86  1  0
 39 87  1  0
 41 40  1  6
 41 52  1  0
 41 42  1  0
 41 51  1  0
 42 43  2  3
 42 88  1  0
 43 46  1  0
 43 44  1  0
 44 48  1  0
 44 45  1  0
 44 89  1  1
 46 45  1  1
 46 47  1  0
 47 48  1  0
 47 90  1  1
 48 50  1  6
 48 49  1  0
 49 50  1  0
 49 91  1  0
 49 92  1  0
 51 52  1  0
 51 93  1  0
 51 94  1  0
M  END
>  <i_m_ct_stereo_status>  (154) 
1

>  <s_m_source_file>  (154) 
/var/tmp/pbs.5076253.sched01/tmp4uievzq0/12082cxahoa.sdf

>  <i_m_source_file_index>  (154) 
15

>  <i_lp_mmshare_version>  (154) 
48012

>  <i_f3d_flags>  (154) 
0

>  <s_epik_input>  (154) 
TzFbQ0BASF0yW0NASF0xW0NASF0oW0NASF0yMylPW0NAQEhdKE9bQ0gyXTMpT1tDQF0oW0NAQEhdNFtDQEhdKE81KVtDQEBdNTZbQ0BAXTc4OSkoW0NASF05W0NAQEhdKFtDQEBIXShbT0hdKVtDQEhdN1tDSDJdTzgpW0NAQEhdKFtPSF0pW0NIMl1PW0NIM10pT1tDQEBdKE80KShPW0NIM10pW0NAQF0xMkMzL1tDQEBIXShPMSlbQ0BAXTEoW0NIMl1PMSlbQ0BASF0yQyhcW0NIMl02KT1bQ0hdXEMoW0NIM10pKFtDSDNdKU9bQ0BdMSgvW0NIXT0zKVtDSDJdTzE=

>  <s_epik_cmdline>  (154) 
J2VwaWtfcHl0aG9uJywgJy1waHQnLCAnMi4wJywgJy1waCcsICc3LjAnLCAnLXRuJywgJzgnLCAnLW1hJywgJzIwMCcsICctaW1hZScsICc8aW5maWxlLm1hZT4nLCAnLW9tYWUnLCAnPG91dGZpbGUubWFlPic=

>  <r_lp_tautomer_probability>  (154) 
1

>  <r_epik_Ionization_Penalty>  (154) 
3.68725e-07

>  <r_epik_Ionization_Penalty_Charging>  (154) 
0

>  <r_epik_Ionization_Penalty_Neutral>  (154) 
3.68725e-07

>  <r_epik_State_Penalty>  (154) 
-0

>  <r_epik_Charging_Adjusted_Penalty>  (154) 
0

>  <i_epik_Tot_Q>  (154) 
0

>  <i_epik_Tot_abs_Q>  (154) 
0

>  <s_epik_Chemistry_Notes>  (154) 
This compound contains an acetal/aminal-like group ( X-CH(R)-Y where X, Y are N, S, or O) that may be acid/base labile, releasing an aldehyde.

>  <s_lp_Force_Field>  (154) 
OPLS3e

>  <r_lp_Energy>  (154) 
159.144

>  <b_lp_Chiralities_Consistent>  (154) 
1

>  <s_lp_Variant>  (154) 
90:0-3

>  <s_i_glide_gridfile>  (154) 
pfpi4k_grid

>  <i_i_glide_lignum>  (154) 
15

>  <i_i_glide_rotatable_bonds>  (154) 
8

>  <r_i_docking_score>  (154) 
-2.45152

>  <r_i_glide_ligand_efficiency>  (154) 
-0.0471446

>  <r_i_glide_ligand_efficiency_sa>  (154) 
-0.175968

>  <r_i_glide_ligand_efficiency_ln>  (154) 
-0.495132

>  <r_i_glide_gscore>  (154) 
-2.45152

>  <r_i_glide_lipo>  (154) 
-0.046119

>  <r_i_glide_hbond>  (154) 
-0.0258853

>  <r_i_glide_metal>  (154) 
-0

>  <r_i_glide_rewards>  (154) 
-0.500076

>  <r_i_glide_evdw>  (154) 
-29.0651

>  <r_i_glide_ecoul>  (154) 
-4.56707

>  <r_i_glide_erotb>  (154) 
0.161448

>  <r_i_glide_esite>  (154) 
-0.05853

>  <r_i_glide_emodel>  (154) 
-36.3383

>  <r_i_glide_energy>  (154) 
-33.6322

>  <r_i_glide_einternal>  (154) 
6.74658

>  <r_i_glide_intrahb_reward>  (154) 
-0.5

>  <i_i_glide_confnum>  (154) 
2

>  <i_i_glide_posenum>  (154) 
14

>  <r_i_glide_eff_state_penalty>  (154) 
0

>  <ligand_id>  (154) 
90

>  <original_smiles>  (154) 
COCC(O)C1C(O)C2COC23C1C1(OC2OCC4C(O2)C2OC42)OC2(OC)OC1C1OC13CC1=CC(C)(C)OC3(C=C4C5OC42C1C51CO1)CO3

>  <smiles>  (154) 
[H]OC([H])(C([H])([H])OC([H])([H])[H])C1([H])C([H])(O[H])C2([H])C([H])([H])OC23C1([H])C1(OC2([H])OC([H])([H])C4([H])C([H])(O2)C2([H])OC24[H])OC2(OC([H])([H])[H])OC1([H])C1([H])OC13C([H])([H])C1=C([H])C(C([H])([H])[H])(C([H])([H])[H])OC3(OC3([H])[H])C([H])=C3C4([H])OC32C1([H])C41OC1([H])[H]

$$$$
90:2:2
     RDKit          3D

 94107  0  0  1  0  0  0  0  0999 V2000
    7.5302   -8.2054    2.7233 C   0  0  0  0  0  0  0  0  0  0  0  0
    6.3985   -9.0530    2.5776 O   0  0  0  0  0  0  0  0  0  0  0  0
    5.6903   -8.9226    1.3456 C   0  0  0  0  0  0  0  0  0  0  0  0
    4.8879   -7.6021    1.2293 C   0  0  2  0  0  0  0  0  0  0  0  0
    5.7770   -6.5694    0.8896 O   0  0  0  0  0  0  0  0  0  0  0  0
    4.0219   -7.2679    2.4733 C   0  0  2  0  0  0  0  0  0  0  0  0
    2.8470   -8.3349    2.5333 C   0  0  1  0  0  0  0  0  0  0  0  0
    2.7385   -9.0816    3.7279 O   0  0  0  0  0  0  0  0  0  0  0  0
    1.7126   -7.3850    2.3372 C   0  0  1  0  0  0  0  0  0  0  0  0
    0.2749   -7.2057    2.6952 C   0  0  0  0  0  0  0  0  0  0  0  0
    0.5950   -5.7676    2.7077 O   0  0  0  0  0  0  0  0  0  0  0  0
    1.9521   -6.1129    3.1201 C   0  0  2  0  0  0  0  0  0  0  0  0
    3.2833   -5.8147    2.4417 C   0  0  1  0  0  0  0  0  0  0  0  0
    4.0025   -4.5960    3.1233 C   0  0  1  0  0  0  0  0  0  0  0  0
    5.1082   -4.1560    2.3750 O   0  0  0  0  0  0  0  0  0  0  0  0
    4.8229   -3.4211    1.1760 C   0  0  2  0  0  0  0  0  0  0  0  0
    3.9621   -2.3559    1.3855 O   0  0  0  0  0  0  0  0  0  0  0  0
    3.9192   -1.3809    0.3753 C   0  0  0  0  0  0  0  0  0  0  0  0
    3.7697   -2.0351   -0.9984 C   0  0  2  0  0  0  0  0  0  0  0  0
    3.9735   -3.5528   -1.1021 C   0  0  2  0  0  0  0  0  0  0  0  0
    4.3692   -4.1983    0.1043 O   0  0  0  0  0  0  0  0  0  0  0  0
    5.1358   -3.3339   -2.0431 C   0  0  2  0  0  0  0  0  0  0  0  0
    4.9732   -2.4792   -3.2016 O   0  0  0  0  0  0  0  0  0  0  0  0
    4.9532   -1.8305   -1.9214 C   0  0  1  0  0  0  0  0  0  0  0  0
    3.0806   -3.5945    3.3361 O   0  0  0  0  0  0  0  0  0  0  0  0
    3.5405   -2.8001    4.3743 C   0  0  2  0  0  0  0  0  0  0  0  0
    4.2124   -1.6881    3.8564 O   0  0  0  0  0  0  0  0  0  0  0  0
    4.9824   -0.8827    4.7225 C   0  0  0  0  0  0  0  0  0  0  0  0
    4.3876   -3.5700    5.1748 O   0  0  0  0  0  0  0  0  0  0  0  0
    4.4150   -4.8439    4.5808 C   0  0  1  0  0  0  0  0  0  0  0  0
    3.3436   -5.5201    5.4052 C   0  0  2  0  0  0  0  0  0  0  0  0
    3.0631   -6.8935    5.2664 O   0  0  0  0  0  0  0  0  0  0  0  0
    2.0802   -6.0023    4.6974 C   0  0  2  0  0  0  0  0  0  0  0  0
    0.8123   -5.6856    5.4939 C   0  0  0  0  0  0  0  0  0  0  0  0
    0.7049   -4.2661    6.0662 C   0  0  0  0  0  0  0  0  0  0  0  0
    0.4651   -3.9413    7.3929 C   0  0  0  0  0  0  0  0  0  0  0  0
    0.7602   -4.5677    8.7412 C   0  0  0  0  0  0  0  0  0  0  0  0
   -0.4735   -4.4235    9.6506 C   0  0  0  0  0  0  0  0  0  0  0  0
    1.2060   -6.0400    8.7346 C   0  0  0  0  0  0  0  0  0  0  0  0
    1.8466   -3.8499    9.4122 O   0  0  0  0  0  0  0  0  0  0  0  0
    2.2897   -2.5303    9.0036 C   0  0  2  0  0  0  0  0  0  0  0  0
    2.9085   -2.4599    7.6595 C   0  0  0  0  0  0  0  0  0  0  0  0
    2.3441   -1.8826    6.5535 C   0  0  0  0  0  0  0  0  0  0  0  0
    1.1966   -1.0014    6.1264 C   0  0  1  0  0  0  0  0  0  0  0  0
    1.9209   -0.9467    4.8758 O   0  0  0  0  0  0  0  0  0  0  0  0
    2.2769   -2.3373    5.1517 C   0  0  1  0  0  0  0  0  0  0  0  0
    0.8943   -3.0965    5.0511 C   0  0  2  0  0  0  0  0  0  0  0  0
    0.1353   -1.8448    5.4556 C   0  0  2  0  0  0  0  0  0  0  0  0
   -0.9792   -1.2749    4.6199 C   0  0  0  0  0  0  0  0  0  0  0  0
   -1.2342   -1.8969    5.8943 O   0  0  0  0  0  0  0  0  0  0  0  0
    2.8089   -1.6741   10.1177 C   0  0  0  0  0  0  0  0  0  0  0  0
    1.5086   -1.4565    9.5263 O   0  0  0  0  0  0  0  0  0  0  0  0
    8.0980   -8.5013    3.6037 H   0  0  0  0  0  0  0  0  0  0  0  0
    7.2271   -7.1681    2.8693 H   0  0  0  0  0  0  0  0  0  0  0  0
    8.1848   -8.2571    1.8529 H   0  0  0  0  0  0  0  0  0  0  0  0
    6.3435   -9.0999    0.4868 H   0  0  0  0  0  0  0  0  0  0  0  0
    4.9921   -9.7583    1.3237 H   0  0  0  0  0  0  0  0  0  0  0  0
    4.2272   -7.6807    0.3561 H   0  0  0  0  0  0  0  0  0  0  0  0
    6.4467   -6.5079    1.5629 H   0  0  0  0  0  0  0  0  0  0  0  0
    4.6390   -7.3597    3.3711 H   0  0  0  0  0  0  0  0  0  0  0  0
    2.8849   -9.0483    1.7046 H   0  0  0  0  0  0  0  0  0  0  0  0
    3.4274   -9.7188    3.7520 H   0  0  0  0  0  0  0  0  0  0  0  0
    1.6670   -7.1949    1.2585 H   0  0  0  0  0  0  0  0  0  0  0  0
   -0.4119   -7.4671    1.8771 H   0  0  0  0  0  0  0  0  0  0  0  0
   -0.0239   -7.6247    3.6594 H   0  0  0  0  0  0  0  0  0  0  0  0
    3.0563   -5.5388    1.4217 H   0  0  0  0  0  0  0  0  0  0  0  0
    5.8139   -3.0334    0.8908 H   0  0  0  0  0  0  0  0  0  0  0  0
    3.0302   -0.7960    0.6092 H   0  0  0  0  0  0  0  0  0  0  0  0
    4.7170   -0.6377    0.4571 H   0  0  0  0  0  0  0  0  0  0  0  0
    2.8095   -1.7546   -1.4884 H   0  0  0  0  0  0  0  0  0  0  0  0
    3.0795   -4.0177   -1.5411 H   0  0  0  0  0  0  0  0  0  0  0  0
    6.1166   -3.7560   -1.7755 H   0  0  0  0  0  0  0  0  0  0  0  0
    5.7955   -1.2002   -1.5784 H   0  0  0  0  0  0  0  0  0  0  0  0
    5.4163   -0.0818    4.1213 H   0  0  0  0  0  0  0  0  0  0  0  0
    5.8022   -1.4415    5.1698 H   0  0  0  0  0  0  0  0  0  0  0  0
    4.4030   -0.4142    5.5137 H   0  0  0  0  0  0  0  0  0  0  0  0
    5.3799   -5.3476    4.6519 H   0  0  0  0  0  0  0  0  0  0  0  0
    3.3020   -5.1916    6.4412 H   0  0  0  0  0  0  0  0  0  0  0  0
   -0.0830   -5.7917    4.8929 H   0  0  0  0  0  0  0  0  0  0  0  0
    0.7120   -6.4372    6.2543 H   0  0  0  0  0  0  0  0  0  0  0  0
    0.2487   -2.9152    7.6013 H   0  0  0  0  0  0  0  0  0  0  0  0
   -1.3329   -4.9655    9.2523 H   0  0  0  0  0  0  0  0  0  0  0  0
   -0.7661   -3.3803    9.7636 H   0  0  0  0  0  0  0  0  0  0  0  0
   -0.2813   -4.8082   10.6531 H   0  0  0  0  0  0  0  0  0  0  0  0
    0.4075   -6.7073    8.4031 H   0  0  0  0  0  0  0  0  0  0  0  0
    1.4860   -6.3615    9.7393 H   0  0  0  0  0  0  0  0  0  0  0  0
    2.0788   -6.1939    8.1009 H   0  0  0  0  0  0  0  0  0  0  0  0
    3.6639   -3.2077    7.4908 H   0  0  0  0  0  0  0  0  0  0  0  0
    0.9628    0.0099    6.5205 H   0  0  0  0  0  0  0  0  0  0  0  0
    0.6367   -3.3774    4.0336 H   0  0  0  0  0  0  0  0  0  0  0  0
   -1.1168   -0.1931    4.6024 H   0  0  0  0  0  0  0  0  0  0  0  0
   -1.2877   -1.8326    3.7529 H   0  0  0  0  0  0  0  0  0  0  0  0
    2.8106   -2.1003   11.1185 H   0  0  0  0  0  0  0  0  0  0  0  0
    3.5624   -0.9146    9.8897 H   0  0  0  0  0  0  0  0  0  0  0  0
  1  2  1  0
  1 53  1  0
  1 54  1  0
  1 55  1  0
  2  3  1  0
  3  4  1  0
  3 56  1  0
  3 57  1  0
  4  5  1  0
  4  6  1  0
  4 58  1  6
  5 59  1  0
  6 13  1  0
  6  7  1  0
  6 60  1  1
  7  8  1  0
  7  9  1  0
  7 61  1  6
  8 62  1  0
  9 12  1  0
  9 10  1  0
  9 63  1  6
 10 11  1  0
 10 64  1  0
 10 65  1  0
 12 11  1  6
 12 33  1  0
 12 13  1  0
 13 14  1  0
 13 66  1  6
 14 30  1  0
 14 15  1  6
 14 25  1  0
 15 16  1  0
 16 21  1  0
 16 17  1  0
 16 67  1  6
 17 18  1  0
 18 19  1  0
 18 68  1  0
 18 69  1  0
 19 24  1  0
 19 20  1  0
 19 70  1  6
 20 21  1  0
 20 22  1  0
 20 71  1  6
 22 24  1  0
 22 23  1  0
 22 72  1  6
 23 24  1  0
 24 73  1  6
 25 26  1  0
 26 46  1  0
 26 27  1  6
 26 29  1  0
 27 28  1  0
 28 74  1  0
 28 75  1  0
 28 76  1  0
 29 30  1  0
 30 31  1  0
 30 77  1  6
 31 33  1  0
 31 32  1  0
 31 78  1  1
 33 32  1  1
 33 34  1  0
 34 35  1  0
 34 79  1  0
 34 80  1  0
 35 47  1  0
 35 36  2  3
 36 37  1  0
 36 81  1  0
 37 38  1  0
 37 39  1  0
 37 40  1  0
 38 82  1  0
 38 83  1  0
 38 84  1  0
 39 85  1  0
 39 86  1  0
 39 87  1  0
 41 40  1  1
 41 52  1  0
 41 42  1  0
 41 51  1  0
 42 43  2  3
 42 88  1  0
 43 46  1  0
 43 44  1  0
 44 48  1  0
 44 45  1  0
 44 89  1  1
 46 45  1  6
 46 47  1  0
 47 48  1  0
 47 90  1  6
 48 50  1  1
 48 49  1  0
 49 50  1  0
 49 91  1  0
 49 92  1  0
 51 52  1  0
 51 93  1  0
 51 94  1  0
M  END
>  <i_m_ct_stereo_status>  (155) 
1

>  <s_m_source_file>  (155) 
/var/tmp/pbs.5076253.sched01/tmp4uievzq0/12082cxahoa.sdf

>  <i_m_source_file_index>  (155) 
15

>  <i_lp_mmshare_version>  (155) 
48012

>  <i_f3d_flags>  (155) 
0

>  <s_epik_input>  (155) 
TzFbQ0BASF0yW0NASF0xW0NASF0oW0NASF0yMylPW0NAQEhdKE9bQ0gyXTMpT1tDQF0oW0NAQEhdNFtDQEhdKE81KVtDQEBdNTZbQ0BAXTc4OSkoW0NASF05W0NAQEhdKFtDQEBIXShbT0hdKVtDQEhdN1tDSDJdTzgpW0NAQEhdKFtPSF0pW0NIMl1PW0NIM10pT1tDQEBdKE80KShPW0NIM10pW0NAQF0xMkMzL1tDQEBIXShPMSlbQ0BAXTEoW0NIMl1PMSlbQ0BASF0yQyhcW0NIMl02KT1bQ0hdXEMoW0NIM10pKFtDSDNdKU9bQ0BdMSgvW0NIXT0zKVtDSDJdTzE=

>  <s_epik_cmdline>  (155) 
J2VwaWtfcHl0aG9uJywgJy1waHQnLCAnMi4wJywgJy1waCcsICc3LjAnLCAnLXRuJywgJzgnLCAnLW1hJywgJzIwMCcsICctaW1hZScsICc8aW5maWxlLm1hZT4nLCAnLW9tYWUnLCAnPG91dGZpbGUubWFlPic=

>  <r_lp_tautomer_probability>  (155) 
1

>  <r_epik_Ionization_Penalty>  (155) 
3.68725e-07

>  <r_epik_Ionization_Penalty_Charging>  (155) 
0

>  <r_epik_Ionization_Penalty_Neutral>  (155) 
3.68725e-07

>  <r_epik_State_Penalty>  (155) 
-0

>  <r_epik_Charging_Adjusted_Penalty>  (155) 
0

>  <i_epik_Tot_Q>  (155) 
0

>  <i_epik_Tot_abs_Q>  (155) 
0

>  <s_epik_Chemistry_Notes>  (155) 
This compound contains an acetal/aminal-like group ( X-CH(R)-Y where X, Y are N, S, or O) that may be acid/base labile, releasing an aldehyde.

>  <s_lp_Force_Field>  (155) 
OPLS3e

>  <r_lp_Energy>  (155) 
159.144

>  <b_lp_Chiralities_Consistent>  (155) 
1

>  <s_lp_Variant>  (155) 
90:0-3

>  <s_i_glide_gridfile>  (155) 
pfpi4k_grid

>  <i_i_glide_lignum>  (155) 
15

>  <i_i_glide_rotatable_bonds>  (155) 
8

>  <r_i_docking_score>  (155) 
-2.25839

>  <r_i_glide_ligand_efficiency>  (155) 
-0.0434306

>  <r_i_glide_ligand_efficiency_sa>  (155) 
-0.162105

>  <r_i_glide_ligand_efficiency_ln>  (155) 
-0.456126

>  <r_i_glide_gscore>  (155) 
-2.25839

>  <r_i_glide_lipo>  (155) 
-0.301993

>  <r_i_glide_hbond>  (155) 
-0.0756497

>  <r_i_glide_metal>  (155) 
-0

>  <r_i_glide_rewards>  (155) 
-0.038981

>  <r_i_glide_evdw>  (155) 
-28.5622

>  <r_i_glide_ecoul>  (155) 
-3.83402

>  <r_i_glide_erotb>  (155) 
0.161448

>  <r_i_glide_esite>  (155) 
0

>  <r_i_glide_emodel>  (155) 
-34.0484

>  <r_i_glide_energy>  (155) 
-32.3963

>  <r_i_glide_einternal>  (155) 
3.12046

>  <r_i_glide_intrahb_reward>  (155) 
-0

>  <i_i_glide_confnum>  (155) 
4

>  <i_i_glide_posenum>  (155) 
8

>  <r_i_glide_eff_state_penalty>  (155) 
0

>  <ligand_id>  (155) 
90

>  <original_smiles>  (155) 
COCC(O)C1C(O)C2COC23C1C1(OC2OCC4C(O2)C2OC42)OC2(OC)OC1C1OC13CC1=CC(C)(C)OC3(C=C4C5OC42C1C51CO1)CO3

>  <smiles>  (155) 
[H]OC([H])(C([H])([H])OC([H])([H])[H])C1([H])C([H])(O[H])C2([H])C([H])([H])OC23C1([H])C1(OC2([H])OC([H])([H])C4([H])C([H])(O2)C2([H])OC24[H])OC2(OC([H])([H])[H])OC1([H])C1([H])OC13C([H])([H])C1=C([H])C(C([H])([H])[H])(C([H])([H])[H])OC3(OC3([H])[H])C([H])=C3C4([H])OC32C1([H])C41OC1([H])[H]

$$$$
90:3:0
     RDKit          3D

 94107  0  0  1  0  0  0  0  0999 V2000
    4.1266   -7.8400   10.6783 C   0  0  0  0  0  0  0  0  0  0  0  0
    4.3921   -9.0120    9.9259 O   0  0  0  0  0  0  0  0  0  0  0  0
    3.3003   -9.9110    9.8078 C   0  0  0  0  0  0  0  0  0  0  0  0
    2.1428   -9.3535    8.9154 C   0  0  2  0  0  0  0  0  0  0  0  0
    1.0288  -10.2070    9.0865 O   0  0  0  0  0  0  0  0  0  0  0  0
    2.4335   -9.1295    7.3855 C   0  0  2  0  0  0  0  0  0  0  0  0
    2.9921  -10.4435    6.7091 C   0  0  1  0  0  0  0  0  0  0  0  0
    2.2977  -10.9588    5.5859 O   0  0  0  0  0  0  0  0  0  0  0  0
    4.3415   -9.9590    6.3668 C   0  0  1  0  0  0  0  0  0  0  0  0
    5.4119  -10.1652    5.3492 C   0  0  0  0  0  0  0  0  0  0  0  0
    5.6639   -8.7167    5.5150 O   0  0  0  0  0  0  0  0  0  0  0  0
    4.2403   -8.5584    5.8091 C   0  0  2  0  0  0  0  0  0  0  0  0
    3.5388   -7.9950    7.0322 C   0  0  1  0  0  0  0  0  0  0  0  0
    3.0709   -6.5273    6.8158 C   0  0  1  0  0  0  0  0  0  0  0  0
    2.7147   -6.0084    8.0912 O   0  0  0  0  0  0  0  0  0  0  0  0
    1.5853   -5.1861    8.2466 C   0  0  2  0  0  0  0  0  0  0  0  0
    1.6463   -4.0492    7.4822 O   0  0  0  0  0  0  0  0  0  0  0  0
    0.4283   -3.3485    7.3508 C   0  0  0  0  0  0  0  0  0  0  0  0
   -0.2171   -3.1630    8.7236 C   0  0  2  0  0  0  0  0  0  0  0  0
    0.3610   -3.9194    9.9249 C   0  0  2  0  0  0  0  0  0  0  0  0
    1.4324   -4.8141    9.5863 O   0  0  0  0  0  0  0  0  0  0  0  0
   -0.9348   -4.6725   10.1003 C   0  0  2  0  0  0  0  0  0  0  0  0
   -2.1675   -3.9359   10.1847 O   0  0  0  0  0  0  0  0  0  0  0  0
   -1.5100   -3.9422    8.8980 C   0  0  1  0  0  0  0  0  0  0  0  0
    4.1736   -5.8521    6.2963 O   0  0  0  0  0  0  0  0  0  0  0  0
    3.7202   -4.7773    5.5440 C   0  0  2  0  0  0  0  0  0  0  0  0
    3.8713   -3.6214    6.3269 O   0  0  0  0  0  0  0  0  0  0  0  0
    3.2973   -2.4074    5.8579 C   0  0  0  0  0  0  0  0  0  0  0  0
    2.3918   -5.0201    5.1751 O   0  0  0  0  0  0  0  0  0  0  0  0
    2.0666   -6.3015    5.6782 C   0  0  1  0  0  0  0  0  0  0  0  0
    2.3023   -7.1682    4.4817 C   0  0  2  0  0  0  0  0  0  0  0  0
    2.0685   -8.5558    4.5163 O   0  0  0  0  0  0  0  0  0  0  0  0
    3.4548   -8.1575    4.5086 C   0  0  2  0  0  0  0  0  0  0  0  0
    4.2393   -8.1219    3.2004 C   0  0  0  0  0  0  0  0  0  0  0  0
    4.4004   -6.7109    2.6301 C   0  0  0  0  0  0  0  0  0  0  0  0
    3.8704   -6.4851    1.3843 C   0  0  0  0  0  0  0  0  0  0  0  0
    3.8173   -5.3911    0.3067 C   0  0  0  0  0  0  0  0  0  0  0  0
    4.7066   -5.9116   -0.7999 C   0  0  0  0  0  0  0  0  0  0  0  0
    2.3538   -5.2434   -0.1950 C   0  0  0  0  0  0  0  0  0  0  0  0
    4.4541   -4.1375    0.5244 O   0  0  0  0  0  0  0  0  0  0  0  0
    3.6932   -3.0723    1.0502 C   0  0  2  0  0  0  0  0  0  0  0  0
    3.2898   -3.3297    2.4288 C   0  0  0  0  0  0  0  0  0  0  0  0
    4.3175   -3.6963    3.1996 C   0  0  0  0  0  0  0  0  0  0  0  0
    5.8069   -3.5984    3.0825 C   0  0  1  0  0  0  0  0  0  0  0  0
    5.7604   -3.7808    4.5339 O   0  0  0  0  0  0  0  0  0  0  0  0
    4.6089   -4.6371    4.2806 C   0  0  1  0  0  0  0  0  0  0  0  0
    5.2647   -5.8286    3.5395 C   0  0  2  0  0  0  0  0  0  0  0  0
    6.2897   -5.0029    2.8140 C   0  0  2  0  0  0  0  0  0  0  0  0
    7.7243   -5.4632    2.6401 C   0  0  0  0  0  0  0  0  0  0  0  0
    6.8053   -5.4075    1.5350 O   0  0  0  0  0  0  0  0  0  0  0  0
    2.9621   -2.1718    0.1122 C   0  0  0  0  0  0  0  0  0  0  0  0
    4.2219   -1.7839    0.6811 O   0  0  0  0  0  0  0  0  0  0  0  0
    5.0073   -7.1956   10.6408 H   0  0  0  0  0  0  0  0  0  0  0  0
    3.9015   -8.0928   11.7160 H   0  0  0  0  0  0  0  0  0  0  0  0
    3.2963   -7.2669   10.2691 H   0  0  0  0  0  0  0  0  0  0  0  0
    3.6965  -10.8423    9.4040 H   0  0  0  0  0  0  0  0  0  0  0  0
    2.9340  -10.1629   10.8060 H   0  0  0  0  0  0  0  0  0  0  0  0
    1.7797   -8.4120    9.3279 H   0  0  0  0  0  0  0  0  0  0  0  0
    1.1888  -11.0139    8.5731 H   0  0  0  0  0  0  0  0  0  0  0  0
    1.4854   -8.8558    6.9169 H   0  0  0  0  0  0  0  0  0  0  0  0
    3.0520  -11.2668    7.3960 H   0  0  0  0  0  0  0  0  0  0  0  0
    1.6889  -11.6085    5.9371 H   0  0  0  0  0  0  0  0  0  0  0  0
    4.9071   -9.9832    7.3031 H   0  0  0  0  0  0  0  0  0  0  0  0
    6.2355  -10.7879    5.7160 H   0  0  0  0  0  0  0  0  0  0  0  0
    5.0416  -10.4764    4.3653 H   0  0  0  0  0  0  0  0  0  0  0  0
    4.2876   -7.9265    7.8135 H   0  0  0  0  0  0  0  0  0  0  0  0
    0.7107   -5.7872    8.0342 H   0  0  0  0  0  0  0  0  0  0  0  0
    0.6305   -2.3573    6.9576 H   0  0  0  0  0  0  0  0  0  0  0  0
   -0.2258   -3.7973    6.5963 H   0  0  0  0  0  0  0  0  0  0  0  0
   -0.3216   -2.1065    8.9967 H   0  0  0  0  0  0  0  0  0  0  0  0
    0.6254   -3.2313   10.7437 H   0  0  0  0  0  0  0  0  0  0  0  0
   -0.9127   -5.7709   10.1163 H   0  0  0  0  0  0  0  0  0  0  0  0
   -1.9604   -4.4795    8.0457 H   0  0  0  0  0  0  0  0  0  0  0  0
    3.1576   -1.7854    6.7402 H   0  0  0  0  0  0  0  0  0  0  0  0
    2.3163   -2.5887    5.4165 H   0  0  0  0  0  0  0  0  0  0  0  0
    3.9151   -1.8500    5.1557 H   0  0  0  0  0  0  0  0  0  0  0  0
    1.0347   -6.3979    5.9895 H   0  0  0  0  0  0  0  0  0  0  0  0
    1.9150   -6.7610    3.5482 H   0  0  0  0  0  0  0  0  0  0  0  0
    5.2481   -8.5256    3.2832 H   0  0  0  0  0  0  0  0  0  0  0  0
    3.7222   -8.7770    2.5020 H   0  0  0  0  0  0  0  0  0  0  0  0
    3.3569   -7.3428    0.9906 H   0  0  0  0  0  0  0  0  0  0  0  0
    4.4015   -6.9288   -1.0461 H   0  0  0  0  0  0  0  0  0  0  0  0
    5.7634   -5.9288   -0.5245 H   0  0  0  0  0  0  0  0  0  0  0  0
    4.6262   -5.2706   -1.6806 H   0  0  0  0  0  0  0  0  0  0  0  0
    1.9134   -6.2034   -0.4647 H   0  0  0  0  0  0  0  0  0  0  0  0
    2.2661   -4.6008   -1.0750 H   0  0  0  0  0  0  0  0  0  0  0  0
    1.7323   -4.8374    0.5948 H   0  0  0  0  0  0  0  0  0  0  0  0
    2.2699   -3.6300    2.6445 H   0  0  0  0  0  0  0  0  0  0  0  0
    6.2644   -2.6731    2.7230 H   0  0  0  0  0  0  0  0  0  0  0  0
    5.8018   -6.4522    4.2468 H   0  0  0  0  0  0  0  0  0  0  0  0
    8.5552   -4.7919    2.5077 H   0  0  0  0  0  0  0  0  0  0  0  0
    7.9842   -6.4749    2.9396 H   0  0  0  0  0  0  0  0  0  0  0  0
    2.9529   -2.3744   -0.9587 H   0  0  0  0  0  0  0  0  0  0  0  0
    2.1032   -1.6886    0.5546 H   0  0  0  0  0  0  0  0  0  0  0  0
  1  2  1  0
  1 53  1  0
  1 54  1  0
  1 55  1  0
  2  3  1  0
  3  4  1  0
  3 56  1  0
  3 57  1  0
  4  5  1  0
  4  6  1  0
  4 58  1  1
  5 59  1  0
  6 13  1  0
  6  7  1  0
  6 60  1  6
  7  8  1  0
  7  9  1  0
  7 61  1  1
  8 62  1  0
  9 12  1  0
  9 10  1  0
  9 63  1  1
 10 11  1  0
 10 64  1  0
 10 65  1  0
 12 11  1  6
 12 33  1  0
 12 13  1  0
 13 14  1  0
 13 66  1  1
 14 30  1  0
 14 15  1  1
 14 25  1  0
 15 16  1  0
 16 21  1  0
 16 17  1  0
 16 67  1  6
 17 18  1  0
 18 19  1  0
 18 68  1  0
 18 69  1  0
 19 24  1  0
 19 20  1  0
 19 70  1  1
 20 21  1  0
 20 22  1  0
 20 71  1  1
 22 24  1  0
 22 23  1  0
 22 72  1  6
 23 24  1  0
 24 73  1  6
 25 26  1  0
 26 46  1  0
 26 27  1  1
 26 29  1  0
 27 28  1  0
 28 74  1  0
 28 75  1  0
 28 76  1  0
 29 30  1  0
 30 31  1  0
 30 77  1  1
 31 33  1  0
 31 32  1  0
 31 78  1  6
 33 32  1  6
 33 34  1  0
 34 35  1  0
 34 79  1  0
 34 80  1  0
 35 47  1  0
 35 36  2  3
 36 37  1  0
 36 81  1  0
 37 38  1  0
 37 39  1  0
 37 40  1  0
 38 82  1  0
 38 83  1  0
 38 84  1  0
 39 85  1  0
 39 86  1  0
 39 87  1  0
 41 40  1  6
 41 52  1  0
 41 42  1  0
 41 51  1  0
 42 43  2  3
 42 88  1  0
 43 46  1  0
 43 44  1  0
 44 48  1  0
 44 45  1  0
 44 89  1  1
 46 45  1  1
 46 47  1  0
 47 48  1  0
 47 90  1  1
 48 50  1  6
 48 49  1  0
 49 50  1  0
 49 91  1  0
 49 92  1  0
 51 52  1  0
 51 93  1  0
 51 94  1  0
M  END
>  <i_m_ct_stereo_status>  (156) 
1

>  <s_m_source_file>  (156) 
/var/tmp/pbs.5076253.sched01/tmp4uievzq0/12082cxahoa.sdf

>  <i_m_source_file_index>  (156) 
16

>  <i_lp_mmshare_version>  (156) 
48012

>  <i_f3d_flags>  (156) 
0

>  <s_epik_input>  (156) 
TzFbQ0BASF0yW0NASF0xW0NASF0oW0NASF0yMylPW0NAQEhdKE9bQ0gyXTMpT1tDQF0oW0NAQEhdNFtDQEhdKE81KVtDQEBdNTZbQ0BAXTc4OSkoW0NASF05W0NAQEhdKFtDQEBIXShbT0hdKVtDQEhdN1tDSDJdTzgpW0NAQEhdKFtPSF0pW0NIMl1PW0NIM10pT1tDQEBdKE80KShPW0NIM10pW0NAQF0xMkMzL1tDQEBIXShPMSlbQ0BAXTEoW0NIMl1PMSlbQ0BASF0yQyhcW0NIMl02KT1bQ0hdXEMoW0NIM10pKFtDSDNdKU9bQ0BdMSgvW0NIXT0zKVtDSDJdTzE=

>  <s_epik_cmdline>  (156) 
J2VwaWtfcHl0aG9uJywgJy1waHQnLCAnMi4wJywgJy1waCcsICc3LjAnLCAnLXRuJywgJzgnLCAnLW1hJywgJzIwMCcsICctaW1hZScsICc8aW5maWxlLm1hZT4nLCAnLW9tYWUnLCAnPG91dGZpbGUubWFlPic=

>  <r_lp_tautomer_probability>  (156) 
1

>  <r_epik_Ionization_Penalty>  (156) 
3.68725e-07

>  <r_epik_Ionization_Penalty_Charging>  (156) 
0

>  <r_epik_Ionization_Penalty_Neutral>  (156) 
3.68725e-07

>  <r_epik_State_Penalty>  (156) 
-0

>  <r_epik_Charging_Adjusted_Penalty>  (156) 
0

>  <i_epik_Tot_Q>  (156) 
0

>  <i_epik_Tot_abs_Q>  (156) 
0

>  <s_epik_Chemistry_Notes>  (156) 
This compound contains an acetal/aminal-like group ( X-CH(R)-Y where X, Y are N, S, or O) that may be acid/base labile, releasing an aldehyde.

>  <s_lp_Force_Field>  (156) 
OPLS3e

>  <r_lp_Energy>  (156) 
150.762

>  <b_lp_Chiralities_Consistent>  (156) 
1

>  <s_lp_Variant>  (156) 
90:0-4

>  <s_i_glide_gridfile>  (156) 
pfpi4k_grid

>  <i_i_glide_lignum>  (156) 
16

>  <i_i_glide_rotatable_bonds>  (156) 
8

>  <r_i_docking_score>  (156) 
-1.75981

>  <r_i_glide_ligand_efficiency>  (156) 
-0.0338424

>  <r_i_glide_ligand_efficiency_sa>  (156) 
-0.126317

>  <r_i_glide_ligand_efficiency_ln>  (156) 
-0.355427

>  <r_i_glide_gscore>  (156) 
-1.75981

>  <r_i_glide_lipo>  (156) 
-0.120332

>  <r_i_glide_hbond>  (156) 
-0.154077

>  <r_i_glide_metal>  (156) 
-0

>  <r_i_glide_rewards>  (156) 
0

>  <r_i_glide_evdw>  (156) 
-6.75412

>  <r_i_glide_ecoul>  (156) 
-8.70706

>  <r_i_glide_erotb>  (156) 
0.161448

>  <r_i_glide_esite>  (156) 
-0.00307998

>  <r_i_glide_emodel>  (156) 
-9.20761

>  <r_i_glide_energy>  (156) 
-15.4612

>  <r_i_glide_einternal>  (156) 
6.29462

>  <r_i_glide_intrahb_reward>  (156) 
-0

>  <i_i_glide_confnum>  (156) 
1

>  <i_i_glide_posenum>  (156) 
8

>  <r_i_glide_eff_state_penalty>  (156) 
0

>  <ligand_id>  (156) 
90

>  <original_smiles>  (156) 
COCC(O)C1C(O)C2COC23C1C1(OC2OCC4C(O2)C2OC42)OC2(OC)OC1C1OC13CC1=CC(C)(C)OC3(C=C4C5OC42C1C51CO1)CO3

>  <smiles>  (156) 
[H]OC([H])(C([H])([H])OC([H])([H])[H])C1([H])C([H])(O[H])C2([H])C([H])([H])OC23C1([H])C1(OC2([H])OC([H])([H])C4([H])C([H])(O2)C2([H])OC24[H])OC2(OC([H])([H])[H])OC1([H])C1([H])OC13C([H])([H])C1=C([H])C(C([H])([H])[H])(C([H])([H])[H])OC3(OC3([H])[H])C([H])=C3C4([H])OC32C1([H])C41OC1([H])[H]

$$$$
94:0:0
     RDKit          3D

 60 67  0  0  1  0  0  0  0  0999 V2000
    7.5668   -5.1378    6.2940 C   0  0  0  0  0  0  0  0  0  0  0  0
    7.5718   -6.6387    6.0150 C   0  0  2  0  0  0  0  0  0  0  0  0
    8.6760   -6.9373    5.1880 O   0  0  0  0  0  0  0  0  0  0  0  0
    8.4976   -7.2323    3.8223 C   0  0  1  0  0  0  0  0  0  0  0  0
    8.1247   -8.5480    3.5067 O   0  0  0  0  0  0  0  0  0  0  0  0
    6.8298   -8.8599    2.9939 C   0  0  0  0  0  0  0  0  0  0  0  0
    5.6414   -8.4118    3.8668 C   0  0  1  0  0  0  0  0  0  0  0  0
    4.5761   -9.4303    4.1168 C   0  0  0  0  0  0  0  0  0  0  0  0
    4.3714   -9.7024    5.3977 C   0  0  0  0  0  0  0  0  0  0  0  0
    5.2261   -8.9713    6.1616 O   0  0  0  0  0  0  0  0  0  0  0  0
    6.1349   -8.3100    5.3219 C   0  0  2  0  0  0  0  0  0  0  0  0
    6.3000   -6.9630    5.5645 O   0  0  0  0  0  0  0  0  0  0  0  0
    3.5515   -8.8821    3.1877 C   0  0  0  0  0  0  0  0  0  0  0  0
    4.3970   -7.5848    3.3398 C   0  0  2  0  0  0  0  0  0  0  0  0
    4.2231   -6.5845    2.1270 C   0  0  2  0  0  0  0  0  0  0  0  0
    4.9342   -7.0936    0.8847 C   0  0  1  0  0  0  0  0  0  0  0  0
    4.2304   -6.8443   -0.2894 O   0  0  0  0  0  0  0  0  0  0  0  0
    6.1926   -6.4231    0.8925 O   0  0  0  0  0  0  0  0  0  0  0  0
    6.2544   -5.3244    1.8423 C   0  0  1  0  0  0  0  0  0  0  0  0
    6.7554   -5.7163    3.1211 O   0  0  0  0  0  0  0  0  0  0  0  0
    8.1696   -6.1929    2.9516 O   0  0  0  0  0  0  0  0  0  0  0  0
    7.0377   -4.0884    1.2775 C   0  0  1  0  0  0  0  0  0  0  0  0
    8.5285   -4.2769    0.9033 C   0  0  0  0  0  0  0  0  0  0  0  0
    6.3550   -3.4878    0.0536 C   0  0  0  0  0  0  0  0  0  0  0  0
    4.9024   -3.2686    0.3162 C   0  0  1  0  0  0  0  0  0  0  0  0
    4.4887   -2.0570    0.9612 O   0  0  0  0  0  0  0  0  0  0  0  0
    4.0097   -2.2680   -0.3777 C   0  0  1  0  0  0  0  0  0  0  0  0
    4.6935   -1.6076   -1.4192 O   0  0  0  0  0  0  0  0  0  0  0  0
    4.2356   -4.4506    0.7402 O   0  0  0  0  0  0  0  0  0  0  0  0
    4.7399   -5.1178    1.9462 C   0  0  1  0  0  0  0  0  0  0  0  0
    3.7322   -4.7395    3.0294 C   0  0  1  0  0  0  0  0  0  0  0  0
    3.2084   -3.4336    3.0702 O   0  0  0  0  0  0  0  0  0  0  0  0
    2.8591   -5.8627    2.3798 C   0  0  1  0  0  0  0  0  0  0  0  0
    1.9748   -5.5746    1.3097 O   0  0  0  0  0  0  0  0  0  0  0  0
    7.3911   -4.6010    5.3653 H   0  0  0  0  0  0  0  0  0  0  0  0
    8.5187   -4.8294    6.7271 H   0  0  0  0  0  0  0  0  0  0  0  0
    6.7655   -4.8994    6.9941 H   0  0  0  0  0  0  0  0  0  0  0  0
    7.7420   -7.1763    6.9497 H   0  0  0  0  0  0  0  0  0  0  0  0
    9.5536   -7.3188    3.5553 H   0  0  0  0  0  0  0  0  0  0  0  0
    6.8229   -8.4396    2.0018 H   0  0  0  0  0  0  0  0  0  0  0  0
    6.8021   -9.9419    2.8494 H   0  0  0  0  0  0  0  0  0  0  0  0
    3.4280   -9.9234    5.8745 H   0  0  0  0  0  0  0  0  0  0  0  0
    7.0374   -8.8912    5.5141 H   0  0  0  0  0  0  0  0  0  0  0  0
    3.5354   -9.2909    2.1785 H   0  0  0  0  0  0  0  0  0  0  0  0
    2.5357   -8.7730    3.5744 H   0  0  0  0  0  0  0  0  0  0  0  0
    4.0386   -7.0780    4.2351 H   0  0  0  0  0  0  0  0  0  0  0  0
    5.0902   -8.1685    0.9017 H   0  0  0  0  0  0  0  0  0  0  0  0
    4.1325   -5.9060   -0.3974 H   0  0  0  0  0  0  0  0  0  0  0  0
    6.9911   -3.3268    2.0528 H   0  0  0  0  0  0  0  0  0  0  0  0
    8.6886   -5.1483    0.2693 H   0  0  0  0  0  0  0  0  0  0  0  0
    9.1678   -4.3516    1.7795 H   0  0  0  0  0  0  0  0  0  0  0  0
    8.8917   -3.4075    0.3538 H   0  0  0  0  0  0  0  0  0  0  0  0
    6.8314   -2.5448   -0.2162 H   0  0  0  0  0  0  0  0  0  0  0  0
    6.4548   -4.1521   -0.8076 H   0  0  0  0  0  0  0  0  0  0  0  0
    2.9353   -2.4221   -0.5070 H   0  0  0  0  0  0  0  0  0  0  0  0
    4.2491   -0.7945   -1.6024 H   0  0  0  0  0  0  0  0  0  0  0  0
    4.1003   -4.9894    4.0276 H   0  0  0  0  0  0  0  0  0  0  0  0
    3.0276   -3.1917    2.1749 H   0  0  0  0  0  0  0  0  0  0  0  0
    2.2702   -6.3459    3.1597 H   0  0  0  0  0  0  0  0  0  0  0  0
    2.5260   -5.2250    0.6205 H   0  0  0  0  0  0  0  0  0  0  0  0
  1  2  1  0
  1 35  1  0
  1 36  1  0
  1 37  1  0
  2 12  1  0
  2  3  1  0
  2 38  1  1
  3  4  1  0
  4 21  1  0
  4  5  1  0
  4 39  1  6
  5  6  1  0
  7  6  1  6
  6 40  1  0
  6 41  1  0
  7 11  1  0
  7 14  1  0
  7  8  1  0
  8  9  2  0
  8 13  1  0
  9 10  1  0
  9 42  1  0
 10 11  1  0
 11 12  1  0
 11 43  1  6
 13 14  1  0
 13 44  1  0
 13 45  1  0
 14 15  1  0
 14 46  1  1
 15 30  1  1
 15 33  1  0
 15 16  1  0
 16 17  1  0
 16 18  1  0
 16 47  1  1
 17 48  1  0
 19 18  1  6
 19 30  1  0
 19 20  1  0
 19 22  1  0
 20 21  1  0
 22 23  1  0
 22 24  1  0
 22 49  1  1
 23 50  1  0
 23 51  1  0
 23 52  1  0
 24 25  1  0
 24 53  1  0
 24 54  1  0
 25 27  1  0
 25 26  1  1
 25 29  1  0
 26 27  1  0
 27 28  1  0
 27 55  1  1
 28 56  1  0
 30 29  1  6
 30 31  1  0
 31 32  1  0
 31 33  1  0
 31 57  1  1
 32 58  1  0
 33 34  1  0
 33 59  1  1
 34 60  1  0
M  END
>  <i_m_ct_stereo_status>  (157) 
1

>  <s_m_source_file>  (157) 
/var/tmp/pbs.5076253.sched01/tmp4uievzq0/12082cxahoa.sdf

>  <i_m_source_file_index>  (157) 
19

>  <i_lp_mmshare_version>  (157) 
48012

>  <i_f3d_flags>  (157) 
0

>  <s_epik_input>  (157) 
W0NAQF0xMjNDND1bQ0hdT1tDQEBIXTJPW0NASF0oW0NIM10pT1tDQEBIXShPW0NIMl0xKU9PW0NAXTU2W0NAXTcoQyhbQ0BIXTNbQ0gyXTQpKFtDQEhdKE81KVtPSF0pW0NASF0oW09IXSlbQ0BASF03W09IXSlPW0NAXTgoW0NIMl1bQ0BASF02W0NIM10pT1tDQEhdOFtPSF0=

>  <s_epik_cmdline>  (157) 
J2VwaWtfcHl0aG9uJywgJy1waHQnLCAnMi4wJywgJy1waCcsICc3LjAnLCAnLXRuJywgJzgnLCAnLW1hJywgJzIwMCcsICctaW1hZScsICc8aW5maWxlLm1hZT4nLCAnLW9tYWUnLCAnPG91dGZpbGUubWFlPic=

>  <r_lp_tautomer_probability>  (157) 
1

>  <r_epik_Ionization_Penalty>  (157) 
4.97328e-05

>  <r_epik_Ionization_Penalty_Charging>  (157) 
0

>  <r_epik_Ionization_Penalty_Neutral>  (157) 
4.97328e-05

>  <r_epik_State_Penalty>  (157) 
-0

>  <r_epik_Charging_Adjusted_Penalty>  (157) 
0

>  <i_epik_Tot_Q>  (157) 
0

>  <i_epik_Tot_abs_Q>  (157) 
0

>  <s_epik_Chemistry_Notes>  (157) 
This compound contains an acetal/aminal-like group ( X-CH(R)-Y where X, Y are N, S, or O) that may be acid/base labile, releasing an aldehyde.

>  <s_lp_Force_Field>  (157) 
OPLS3e

>  <r_lp_Energy>  (157) 
113.968

>  <b_lp_Chiralities_Consistent>  (157) 
1

>  <s_lp_Variant>  (157) 
94:0-1

>  <s_i_glide_gridfile>  (157) 
pfpi4k_grid

>  <i_i_glide_lignum>  (157) 
19

>  <i_i_glide_rotatable_bonds>  (157) 
4

>  <r_i_docking_score>  (157) 
-3.7975

>  <r_i_glide_ligand_efficiency>  (157) 
-0.111691

>  <r_i_glide_ligand_efficiency_sa>  (157) 
-0.361836

>  <r_i_glide_ligand_efficiency_ln>  (157) 
-0.838974

>  <r_i_glide_gscore>  (157) 
-3.7975

>  <r_i_glide_lipo>  (157) 
-0.3133

>  <r_i_glide_hbond>  (157) 
0

>  <r_i_glide_metal>  (157) 
-0

>  <r_i_glide_rewards>  (157) 
-1.82693

>  <r_i_glide_evdw>  (157) 
-20.6105

>  <r_i_glide_ecoul>  (157) 
-3.87768

>  <r_i_glide_erotb>  (157) 
0

>  <r_i_glide_esite>  (157) 
-0.0450966

>  <r_i_glide_emodel>  (157) 
-47.8615

>  <r_i_glide_energy>  (157) 
-24.4882

>  <r_i_glide_einternal>  (157) 
0.202778

>  <r_i_glide_intrahb_reward>  (157) 
-1.5

>  <i_i_glide_confnum>  (157) 
2

>  <i_i_glide_posenum>  (157) 
1

>  <r_i_glide_eff_state_penalty>  (157) 
0

>  <ligand_id>  (157) 
94

>  <original_smiles>  (157) 
CC1OC2OCC34C(=COC3O1)CC4C13C(O)OC4(OO2)C(C)CC2(OC2O)OC41C(O)C3O

>  <smiles>  (157) 
[H]OC1([H])OC12OC13C([H])(O[H])C([H])(O[H])C14C([H])(O[H])OC3(OOC1([H])OC([H])([H])C35C(=C([H])OC3([H])OC([H])(C([H])([H])[H])O1)C([H])([H])C54[H])C([H])(C([H])([H])[H])C2([H])[H]

$$$$
94:0:1
     RDKit          3D

 60 67  0  0  1  0  0  0  0  0999 V2000
    8.7215   -6.0364    5.9315 C   0  0  0  0  0  0  0  0  0  0  0  0
    8.1414   -7.4355    5.7239 C   0  0  2  0  0  0  0  0  0  0  0  0
    8.8302   -8.0517    4.6617 O   0  0  0  0  0  0  0  0  0  0  0  0
    8.2302   -8.1919    3.3980 C   0  0  1  0  0  0  0  0  0  0  0  0
    7.3724   -9.2890    3.2270 O   0  0  0  0  0  0  0  0  0  0  0  0
    5.9601   -9.1264    3.0787 C   0  0  0  0  0  0  0  0  0  0  0  0
    5.2587   -8.3462    4.2055 C   0  0  1  0  0  0  0  0  0  0  0  0
    4.0117   -8.9609    4.7553 C   0  0  0  0  0  0  0  0  0  0  0  0
    4.0586   -9.2286    6.0537 C   0  0  0  0  0  0  0  0  0  0  0  0
    5.2733   -8.8664    6.5428 O   0  0  0  0  0  0  0  0  0  0  0  0
    6.1088   -8.4946    5.4809 C   0  0  2  0  0  0  0  0  0  0  0  0
    6.7660   -7.2938    5.6260 O   0  0  0  0  0  0  0  0  0  0  0  0
    3.0293   -8.0651    4.0948 C   0  0  0  0  0  0  0  0  0  0  0  0
    4.2668   -7.1301    3.9760 C   0  0  2  0  0  0  0  0  0  0  0  0
    4.1361   -6.0668    2.8121 C   0  0  2  0  0  0  0  0  0  0  0  0
    4.2755   -6.7136    1.4363 C   0  0  1  0  0  0  0  0  0  0  0  0
    3.3910   -6.1860    0.4842 O   0  0  0  0  0  0  0  0  0  0  0  0
    5.6515   -6.4970    1.0969 O   0  0  0  0  0  0  0  0  0  0  0  0
    6.3310   -5.5467    1.9697 C   0  0  1  0  0  0  0  0  0  0  0  0
    6.9683   -6.1504    3.0979 O   0  0  0  0  0  0  0  0  0  0  0  0
    8.0630   -7.0584    2.6038 O   0  0  0  0  0  0  0  0  0  0  0  0
    7.3285   -4.6191    1.1936 C   0  0  1  0  0  0  0  0  0  0  0  0
    8.5330   -5.2791    0.4863 C   0  0  0  0  0  0  0  0  0  0  0  0
    6.6165   -3.7601    0.1558 C   0  0  0  0  0  0  0  0  0  0  0  0
    5.4283   -3.0772    0.7681 C   0  0  1  0  0  0  0  0  0  0  0  0
    5.6057   -1.8321    1.4614 O   0  0  0  0  0  0  0  0  0  0  0  0
    4.7698   -1.8034    0.2975 C   0  0  1  0  0  0  0  0  0  0  0  0
    5.3375   -1.3454   -0.9063 O   0  0  0  0  0  0  0  0  0  0  0  0
    4.5268   -3.9787    1.3967 O   0  0  0  0  0  0  0  0  0  0  0  0
    5.0568   -4.8520    2.4573 C   0  0  1  0  0  0  0  0  0  0  0  0
    4.5537   -4.2170    3.7544 C   0  0  1  0  0  0  0  0  0  0  0  0
    4.5294   -2.8150    3.8855 O   0  0  0  0  0  0  0  0  0  0  0  0
    3.2188   -4.9411    3.3884 C   0  0  1  0  0  0  0  0  0  0  0  0
    2.2518   -4.3028    2.5790 O   0  0  0  0  0  0  0  0  0  0  0  0
    8.5208   -5.4141    5.0592 H   0  0  0  0  0  0  0  0  0  0  0  0
    9.7981   -6.0900    6.1006 H   0  0  0  0  0  0  0  0  0  0  0  0
    8.2490   -5.5819    6.8029 H   0  0  0  0  0  0  0  0  0  0  0  0
    8.3480   -8.0504    6.6026 H   0  0  0  0  0  0  0  0  0  0  0  0
    9.0975   -8.6062    2.8822 H   0  0  0  0  0  0  0  0  0  0  0  0
    5.8441   -8.6699    2.1064 H   0  0  0  0  0  0  0  0  0  0  0  0
    5.5307  -10.1276    2.9893 H   0  0  0  0  0  0  0  0  0  0  0  0
    3.2512   -9.1461    6.7650 H   0  0  0  0  0  0  0  0  0  0  0  0
    6.7805   -9.3534    5.4538 H   0  0  0  0  0  0  0  0  0  0  0  0
    2.6281   -8.3877    3.1372 H   0  0  0  0  0  0  0  0  0  0  0  0
    2.2417   -7.6391    4.7187 H   0  0  0  0  0  0  0  0  0  0  0  0
    4.3353   -6.5831    4.9169 H   0  0  0  0  0  0  0  0  0  0  0  0
    4.0720   -7.7815    1.4599 H   0  0  0  0  0  0  0  0  0  0  0  0
    3.6341   -5.2742    0.3542 H   0  0  0  0  0  0  0  0  0  0  0  0
    7.7480   -3.9349    1.9189 H   0  0  0  0  0  0  0  0  0  0  0  0
    8.2317   -6.1240   -0.1269 H   0  0  0  0  0  0  0  0  0  0  0  0
    9.3066   -5.6100    1.1779 H   0  0  0  0  0  0  0  0  0  0  0  0
    9.0102   -4.5582   -0.1766 H   0  0  0  0  0  0  0  0  0  0  0  0
    7.2907   -3.0197   -0.2547 H   0  0  0  0  0  0  0  0  0  0  0  0
    6.2624   -4.3699   -0.6742 H   0  0  0  0  0  0  0  0  0  0  0  0
    3.7054   -1.6015    0.4513 H   0  0  0  0  0  0  0  0  0  0  0  0
    5.0203   -0.4708   -1.0722 H   0  0  0  0  0  0  0  0  0  0  0  0
    5.0551   -4.6328    4.6320 H   0  0  0  0  0  0  0  0  0  0  0  0
    4.1355   -2.4821    3.0943 H   0  0  0  0  0  0  0  0  0  0  0  0
    2.7178   -5.2486    4.3076 H   0  0  0  0  0  0  0  0  0  0  0  0
    2.7338   -3.9686    1.8326 H   0  0  0  0  0  0  0  0  0  0  0  0
  1  2  1  0
  1 35  1  0
  1 36  1  0
  1 37  1  0
  2 12  1  0
  2  3  1  0
  2 38  1  1
  3  4  1  0
  4 21  1  0
  4  5  1  0
  4 39  1  6
  5  6  1  0
  7  6  1  6
  6 40  1  0
  6 41  1  0
  7 11  1  0
  7 14  1  0
  7  8  1  0
  8  9  2  0
  8 13  1  0
  9 10  1  0
  9 42  1  0
 10 11  1  0
 11 12  1  0
 11 43  1  6
 13 14  1  0
 13 44  1  0
 13 45  1  0
 14 15  1  0
 14 46  1  1
 15 30  1  1
 15 33  1  0
 15 16  1  0
 16 17  1  0
 16 18  1  0
 16 47  1  1
 17 48  1  0
 19 18  1  6
 19 30  1  0
 19 20  1  0
 19 22  1  0
 20 21  1  0
 22 23  1  0
 22 24  1  0
 22 49  1  1
 23 50  1  0
 23 51  1  0
 23 52  1  0
 24 25  1  0
 24 53  1  0
 24 54  1  0
 25 27  1  0
 25 26  1  1
 25 29  1  0
 26 27  1  0
 27 28  1  0
 27 55  1  1
 28 56  1  0
 30 29  1  6
 30 31  1  0
 31 32  1  0
 31 33  1  0
 31 57  1  1
 32 58  1  0
 33 34  1  0
 33 59  1  1
 34 60  1  0
M  END
>  <i_m_ct_stereo_status>  (158) 
1

>  <s_m_source_file>  (158) 
/var/tmp/pbs.5076253.sched01/tmp4uievzq0/12082cxahoa.sdf

>  <i_m_source_file_index>  (158) 
19

>  <i_lp_mmshare_version>  (158) 
48012

>  <i_f3d_flags>  (158) 
0

>  <s_epik_input>  (158) 
W0NAQF0xMjNDND1bQ0hdT1tDQEBIXTJPW0NASF0oW0NIM10pT1tDQEBIXShPW0NIMl0xKU9PW0NAXTU2W0NAXTcoQyhbQ0BIXTNbQ0gyXTQpKFtDQEhdKE81KVtPSF0pW0NASF0oW09IXSlbQ0BASF03W09IXSlPW0NAXTgoW0NIMl1bQ0BASF02W0NIM10pT1tDQEhdOFtPSF0=

>  <s_epik_cmdline>  (158) 
J2VwaWtfcHl0aG9uJywgJy1waHQnLCAnMi4wJywgJy1waCcsICc3LjAnLCAnLXRuJywgJzgnLCAnLW1hJywgJzIwMCcsICctaW1hZScsICc8aW5maWxlLm1hZT4nLCAnLW9tYWUnLCAnPG91dGZpbGUubWFlPic=

>  <r_lp_tautomer_probability>  (158) 
1

>  <r_epik_Ionization_Penalty>  (158) 
4.97328e-05

>  <r_epik_Ionization_Penalty_Charging>  (158) 
0

>  <r_epik_Ionization_Penalty_Neutral>  (158) 
4.97328e-05

>  <r_epik_State_Penalty>  (158) 
-0

>  <r_epik_Charging_Adjusted_Penalty>  (158) 
0

>  <i_epik_Tot_Q>  (158) 
0

>  <i_epik_Tot_abs_Q>  (158) 
0

>  <s_epik_Chemistry_Notes>  (158) 
This compound contains an acetal/aminal-like group ( X-CH(R)-Y where X, Y are N, S, or O) that may be acid/base labile, releasing an aldehyde.

>  <s_lp_Force_Field>  (158) 
OPLS3e

>  <r_lp_Energy>  (158) 
113.968

>  <b_lp_Chiralities_Consistent>  (158) 
1

>  <s_lp_Variant>  (158) 
94:0-1

>  <s_i_glide_gridfile>  (158) 
pfpi4k_grid

>  <i_i_glide_lignum>  (158) 
19

>  <i_i_glide_rotatable_bonds>  (158) 
4

>  <r_i_docking_score>  (158) 
-3.13378

>  <r_i_glide_ligand_efficiency>  (158) 
-0.09217

>  <r_i_glide_ligand_efficiency_sa>  (158) 
-0.298595

>  <r_i_glide_ligand_efficiency_ln>  (158) 
-0.69234

>  <r_i_glide_gscore>  (158) 
-3.13378

>  <r_i_glide_lipo>  (158) 
-0.264228

>  <r_i_glide_hbond>  (158) 
0

>  <r_i_glide_metal>  (158) 
-0

>  <r_i_glide_rewards>  (158) 
-1.33162

>  <r_i_glide_evdw>  (158) 
-23.7785

>  <r_i_glide_ecoul>  (158) 
-2.20571

>  <r_i_glide_erotb>  (158) 
0

>  <r_i_glide_esite>  (158) 
-0.0181581

>  <r_i_glide_emodel>  (158) 
-42.6065

>  <r_i_glide_energy>  (158) 
-25.9842

>  <r_i_glide_einternal>  (158) 
0.43845

>  <r_i_glide_intrahb_reward>  (158) 
-1

>  <i_i_glide_confnum>  (158) 
1

>  <i_i_glide_posenum>  (158) 
3

>  <r_i_glide_eff_state_penalty>  (158) 
0

>  <ligand_id>  (158) 
94

>  <original_smiles>  (158) 
CC1OC2OCC34C(=COC3O1)CC4C13C(O)OC4(OO2)C(C)CC2(OC2O)OC41C(O)C3O

>  <smiles>  (158) 
[H]OC1([H])OC12OC13C([H])(O[H])C([H])(O[H])C14C([H])(O[H])OC3(OOC1([H])OC([H])([H])C35C(=C([H])OC3([H])OC([H])(C([H])([H])[H])O1)C([H])([H])C54[H])C([H])(C([H])([H])[H])C2([H])[H]

$$$$
94:0:2
     RDKit          3D

 60 67  0  0  1  0  0  0  0  0999 V2000
    8.3153   -3.8589    0.4987 C   0  0  0  0  0  0  0  0  0  0  0  0
    7.4469   -2.7361   -0.0656 C   0  0  2  0  0  0  0  0  0  0  0  0
    7.3535   -1.6933    0.8807 O   0  0  0  0  0  0  0  0  0  0  0  0
    6.1842   -1.4772    1.6415 C   0  0  1  0  0  0  0  0  0  0  0  0
    5.1902   -0.6889    1.0593 O   0  0  0  0  0  0  0  0  0  0  0  0
    3.9657   -1.3113    0.6970 C   0  0  0  0  0  0  0  0  0  0  0  0
    4.1065   -2.5198   -0.2595 C   0  0  1  0  0  0  0  0  0  0  0  0
    3.2239   -2.5034   -1.4525 C   0  0  0  0  0  0  0  0  0  0  0  0
    3.8269   -2.5073   -2.6281 C   0  0  0  0  0  0  0  0  0  0  0  0
    5.1662   -2.5238   -2.4261 O   0  0  0  0  0  0  0  0  0  0  0  0
    5.4152   -2.3791   -1.0529 C   0  0  2  0  0  0  0  0  0  0  0  0
    6.2737   -3.3050   -0.5125 O   0  0  0  0  0  0  0  0  0  0  0  0
    2.2427   -3.4873   -0.9770 C   0  0  0  0  0  0  0  0  0  0  0  0
    3.3979   -3.9194   -0.0403 C   0  0  2  0  0  0  0  0  0  0  0  0
    2.9008   -4.6786    1.2733 C   0  0  2  0  0  0  0  0  0  0  0  0
    2.2416   -3.7440    2.2959 C   0  0  1  0  0  0  0  0  0  0  0  0
    1.1594   -4.3201    2.9878 O   0  0  0  0  0  0  0  0  0  0  0  0
    3.3054   -3.4028    3.1816 O   0  0  0  0  0  0  0  0  0  0  0  0
    4.4614   -4.2695    3.0442 C   0  0  1  0  0  0  0  0  0  0  0  0
    5.4287   -3.7290    2.1405 O   0  0  0  0  0  0  0  0  0  0  0  0
    5.8084   -2.3700    2.6536 O   0  0  0  0  0  0  0  0  0  0  0  0
    5.1017   -4.6237    4.4319 C   0  0  1  0  0  0  0  0  0  0  0  0
    5.5846   -3.4678    5.3341 C   0  0  0  0  0  0  0  0  0  0  0  0
    4.1463   -5.4244    5.3039 C   0  0  0  0  0  0  0  0  0  0  0  0
    3.5820   -6.5762    4.5435 C   0  0  1  0  0  0  0  0  0  0  0  0
    4.3263   -7.7996    4.4930 O   0  0  0  0  0  0  0  0  0  0  0  0
    3.0346   -7.8580    5.1150 C   0  0  1  0  0  0  0  0  0  0  0  0
    2.9872   -7.8069    6.5209 O   0  0  0  0  0  0  0  0  0  0  0  0
    2.9590   -6.1969    3.3293 O   0  0  0  0  0  0  0  0  0  0  0  0
    3.7440   -5.4346    2.3551 C   0  0  1  0  0  0  0  0  0  0  0  0
    4.0605   -6.4548    1.2643 C   0  0  1  0  0  0  0  0  0  0  0  0
    4.3696   -7.7808    1.6338 O   0  0  0  0  0  0  0  0  0  0  0  0
    2.6032   -6.1292    0.7984 C   0  0  1  0  0  0  0  0  0  0  0  0
    1.5013   -6.8562    1.3013 O   0  0  0  0  0  0  0  0  0  0  0  0
    7.8398   -4.3133    1.3685 H   0  0  0  0  0  0  0  0  0  0  0  0
    9.2993   -3.4808    0.7761 H   0  0  0  0  0  0  0  0  0  0  0  0
    8.4390   -4.6270   -0.2669 H   0  0  0  0  0  0  0  0  0  0  0  0
    7.9508   -2.3130   -0.9375 H   0  0  0  0  0  0  0  0  0  0  0  0
    6.6154   -0.7257    2.3037 H   0  0  0  0  0  0  0  0  0  0  0  0
    3.4981   -1.5680    1.6397 H   0  0  0  0  0  0  0  0  0  0  0  0
    3.3457   -0.5286    0.2580 H   0  0  0  0  0  0  0  0  0  0  0  0
    3.4864   -3.0226   -3.5090 H   0  0  0  0  0  0  0  0  0  0  0  0
    5.7954   -1.3602   -1.0376 H   0  0  0  0  0  0  0  0  0  0  0  0
    1.4217   -3.0540   -0.4269 H   0  0  0  0  0  0  0  0  0  0  0  0
    1.9031   -4.2424   -1.6948 H   0  0  0  0  0  0  0  0  0  0  0  0
    4.0123   -4.6143   -0.6122 H   0  0  0  0  0  0  0  0  0  0  0  0
    1.8425   -2.8520    1.8209 H   0  0  0  0  0  0  0  0  0  0  0  0
    0.7156   -3.6143    3.4395 H   0  0  0  0  0  0  0  0  0  0  0  0
    5.9582   -5.2604    4.2176 H   0  0  0  0  0  0  0  0  0  0  0  0
    4.8593   -2.6613    5.4321 H   0  0  0  0  0  0  0  0  0  0  0  0
    6.5161   -3.0572    5.0040 H   0  0  0  0  0  0  0  0  0  0  0  0
    5.8160   -3.8353    6.3344 H   0  0  0  0  0  0  0  0  0  0  0  0
    4.6627   -5.7845    6.1932 H   0  0  0  0  0  0  0  0  0  0  0  0
    3.3265   -4.7909    5.6507 H   0  0  0  0  0  0  0  0  0  0  0  0
    2.2525   -8.4294    4.6125 H   0  0  0  0  0  0  0  0  0  0  0  0
    3.0694   -8.6844    6.8591 H   0  0  0  0  0  0  0  0  0  0  0  0
    4.8368   -6.0967    0.5848 H   0  0  0  0  0  0  0  0  0  0  0  0
    4.2801   -8.3246    0.8676 H   0  0  0  0  0  0  0  0  0  0  0  0
    2.5585   -6.1936   -0.2866 H   0  0  0  0  0  0  0  0  0  0  0  0
    1.7147   -7.0057    2.2164 H   0  0  0  0  0  0  0  0  0  0  0  0
  1  2  1  0
  1 35  1  0
  1 36  1  0
  1 37  1  0
  2 12  1  0
  2  3  1  0
  2 38  1  6
  3  4  1  0
  4 21  1  0
  4  5  1  0
  4 39  1  1
  5  6  1  0
  7  6  1  1
  6 40  1  0
  6 41  1  0
  7 11  1  0
  7 14  1  0
  7  8  1  0
  8  9  2  0
  8 13  1  0
  9 10  1  0
  9 42  1  0
 10 11  1  0
 11 12  1  0
 11 43  1  6
 13 14  1  0
 13 44  1  0
 13 45  1  0
 14 15  1  0
 14 46  1  6
 15 30  1  1
 15 33  1  0
 15 16  1  0
 16 17  1  0
 16 18  1  0
 16 47  1  6
 17 48  1  0
 19 18  1  1
 19 30  1  0
 19 20  1  0
 19 22  1  0
 20 21  1  0
 22 23  1  0
 22 24  1  0
 22 49  1  6
 23 50  1  0
 23 51  1  0
 23 52  1  0
 24 25  1  0
 24 53  1  0
 24 54  1  0
 25 27  1  0
 25 26  1  6
 25 29  1  0
 26 27  1  0
 27 28  1  0
 27 55  1  6
 28 56  1  0
 30 29  1  1
 30 31  1  0
 31 32  1  0
 31 33  1  0
 31 57  1  6
 32 58  1  0
 33 34  1  0
 33 59  1  6
 34 60  1  0
M  END
>  <i_m_ct_stereo_status>  (159) 
1

>  <s_m_source_file>  (159) 
/var/tmp/pbs.5076253.sched01/tmp4uievzq0/12082cxahoa.sdf

>  <i_m_source_file_index>  (159) 
19

>  <i_lp_mmshare_version>  (159) 
48012

>  <i_f3d_flags>  (159) 
0

>  <s_epik_input>  (159) 
W0NAQF0xMjNDND1bQ0hdT1tDQEBIXTJPW0NASF0oW0NIM10pT1tDQEBIXShPW0NIMl0xKU9PW0NAXTU2W0NAXTcoQyhbQ0BIXTNbQ0gyXTQpKFtDQEhdKE81KVtPSF0pW0NASF0oW09IXSlbQ0BASF03W09IXSlPW0NAXTgoW0NIMl1bQ0BASF02W0NIM10pT1tDQEhdOFtPSF0=

>  <s_epik_cmdline>  (159) 
J2VwaWtfcHl0aG9uJywgJy1waHQnLCAnMi4wJywgJy1waCcsICc3LjAnLCAnLXRuJywgJzgnLCAnLW1hJywgJzIwMCcsICctaW1hZScsICc8aW5maWxlLm1hZT4nLCAnLW9tYWUnLCAnPG91dGZpbGUubWFlPic=

>  <r_lp_tautomer_probability>  (159) 
1

>  <r_epik_Ionization_Penalty>  (159) 
4.97328e-05

>  <r_epik_Ionization_Penalty_Charging>  (159) 
0

>  <r_epik_Ionization_Penalty_Neutral>  (159) 
4.97328e-05

>  <r_epik_State_Penalty>  (159) 
-0

>  <r_epik_Charging_Adjusted_Penalty>  (159) 
0

>  <i_epik_Tot_Q>  (159) 
0

>  <i_epik_Tot_abs_Q>  (159) 
0

>  <s_epik_Chemistry_Notes>  (159) 
This compound contains an acetal/aminal-like group ( X-CH(R)-Y where X, Y are N, S, or O) that may be acid/base labile, releasing an aldehyde.

>  <s_lp_Force_Field>  (159) 
OPLS3e

>  <r_lp_Energy>  (159) 
113.968

>  <b_lp_Chiralities_Consistent>  (159) 
1

>  <s_lp_Variant>  (159) 
94:0-1

>  <s_i_glide_gridfile>  (159) 
pfpi4k_grid

>  <i_i_glide_lignum>  (159) 
19

>  <i_i_glide_rotatable_bonds>  (159) 
4

>  <r_i_docking_score>  (159) 
-2.93765

>  <r_i_glide_ligand_efficiency>  (159) 
-0.0864014

>  <r_i_glide_ligand_efficiency_sa>  (159) 
-0.279907

>  <r_i_glide_ligand_efficiency_ln>  (159) 
-0.649009

>  <r_i_glide_gscore>  (159) 
-2.93765

>  <r_i_glide_lipo>  (159) 
-0.261615

>  <r_i_glide_hbond>  (159) 
0

>  <r_i_glide_metal>  (159) 
-0

>  <r_i_glide_rewards>  (159) 
-0.947129

>  <r_i_glide_evdw>  (159) 
-24.3937

>  <r_i_glide_ecoul>  (159) 
-3.20616

>  <r_i_glide_erotb>  (159) 
0

>  <r_i_glide_esite>  (159) 
-0.0282974

>  <r_i_glide_emodel>  (159) 
-37.102

>  <r_i_glide_energy>  (159) 
-27.5998

>  <r_i_glide_einternal>  (159) 
1.70788

>  <r_i_glide_intrahb_reward>  (159) 
-0.5

>  <i_i_glide_confnum>  (159) 
1

>  <i_i_glide_posenum>  (159) 
13

>  <r_i_glide_eff_state_penalty>  (159) 
0

>  <ligand_id>  (159) 
94

>  <original_smiles>  (159) 
CC1OC2OCC34C(=COC3O1)CC4C13C(O)OC4(OO2)C(C)CC2(OC2O)OC41C(O)C3O

>  <smiles>  (159) 
[H]OC1([H])OC12OC13C([H])(O[H])C([H])(O[H])C14C([H])(O[H])OC3(OOC1([H])OC([H])([H])C35C(=C([H])OC3([H])OC([H])(C([H])([H])[H])O1)C([H])([H])C54[H])C([H])(C([H])([H])[H])C2([H])[H]

$$$$
95:0:0
     RDKit          3D

 63 72  0  0  1  0  0  0  0  0999 V2000
    8.0886   -3.0834    0.5908 C   0  0  0  0  0  0  0  0  0  0  0  0
    6.5984   -2.7628    0.4180 C   0  0  2  0  0  0  0  0  0  0  0  0
    6.4851   -1.7646   -0.6355 O   0  0  0  0  0  0  0  0  0  0  0  0
    5.6020   -0.9637    0.2155 C   0  0  2  0  0  0  0  0  0  0  0  0
    6.0597   -1.6394    1.4708 C   0  0  0  0  0  0  0  0  0  0  0  0
    5.3620   -1.5242    2.6855 C   0  0  0  0  0  0  0  0  0  0  0  0
    4.7618   -2.6331    3.5773 C   0  0  1  0  0  0  0  0  0  0  0  0
    3.6427   -2.6885    4.4767 O   0  0  0  0  0  0  0  0  0  0  0  0
    3.2730   -3.0845    3.1503 C   0  0  2  0  0  0  0  0  0  0  0  0
    2.9554   -4.5265    2.4347 C   0  0  2  0  0  0  0  0  0  0  0  0
    1.8056   -5.1602    3.2834 C   0  0  0  0  0  0  0  0  0  0  0  0
    0.9424   -6.0589    2.5770 O   0  0  0  0  0  0  0  0  0  0  0  0
    0.9416   -7.3975    2.9879 C   0  0  1  0  0  0  0  0  0  0  0  0
    0.0256   -8.1420    2.2191 O   0  0  0  0  0  0  0  0  0  0  0  0
    2.3647   -7.9650    2.8526 C   0  0  1  0  0  0  0  0  0  0  0  0
    2.8812   -7.3090    1.6830 O   0  0  0  0  0  0  0  0  0  0  0  0
    4.1298   -6.7737    1.4632 C   0  0  2  0  0  0  0  0  0  0  0  0
    4.2377   -6.7130    0.0802 O   0  0  0  0  0  0  0  0  0  0  0  0
    5.2146   -7.8481    1.8030 C   0  0  0  0  0  0  0  0  0  0  0  0
    5.1085   -8.4294    3.0943 O   0  0  0  0  0  0  0  0  0  0  0  0
    3.9906   -9.2571    3.4414 C   0  0  1  0  0  0  0  0  0  0  0  0
    3.1415   -8.2448    4.1755 C   0  0  1  0  0  0  0  0  0  0  0  0
    3.7490   -7.2423    4.9619 O   0  0  0  0  0  0  0  0  0  0  0  0
    2.7094   -9.4684    2.5702 C   0  0  1  0  0  0  0  0  0  0  0  0
    1.7283  -10.5649    3.0435 C   0  0  0  0  0  0  0  0  0  0  0  0
    2.9454   -9.8429    1.2270 O   0  0  0  0  0  0  0  0  0  0  0  0
    4.2674   -5.2989    2.1409 C   0  0  2  0  0  0  0  0  0  0  0  0
    5.0137   -5.4911    3.3341 O   0  0  0  0  0  0  0  0  0  0  0  0
    4.8902   -4.0775    1.2848 C   0  0  1  0  0  0  0  0  0  0  0  0
    5.7231   -4.1421    0.1472 C   0  0  1  0  0  0  0  0  0  0  0  0
    4.4843   -4.3416   -0.6813 O   0  0  0  0  0  0  0  0  0  0  0  0
    3.2160   -3.8848   -0.1218 C   0  0  1  0  0  0  0  0  0  0  0  0
    2.3570   -3.3836   -1.1309 O   0  0  0  0  0  0  0  0  0  0  0  0
    2.4864   -4.5136    0.9910 O   0  0  0  0  0  0  0  0  0  0  0  0
    3.9317   -2.9355    0.5403 C   0  0  1  0  0  0  0  0  0  0  0  0
    3.2823   -1.7104    0.9695 O   0  0  0  0  0  0  0  0  0  0  0  0
    4.2492   -1.5590   -0.0773 C   0  0  1  0  0  0  0  0  0  0  0  0
    8.2603   -3.7557    1.4387 H   0  0  0  0  0  0  0  0  0  0  0  0
    8.7049   -2.1876    0.7394 H   0  0  0  0  0  0  0  0  0  0  0  0
    8.4787   -3.5919   -0.2985 H   0  0  0  0  0  0  0  0  0  0  0  0
    5.7044    0.1170    0.1611 H   0  0  0  0  0  0  0  0  0  0  0  0
    4.8929   -0.5691    2.8651 H   0  0  0  0  0  0  0  0  0  0  0  0
    5.5456   -3.2627    3.9791 H   0  0  0  0  0  0  0  0  0  0  0  0
    2.4835   -2.3769    2.9051 H   0  0  0  0  0  0  0  0  0  0  0  0
    2.1488   -5.5342    4.2442 H   0  0  0  0  0  0  0  0  0  0  0  0
    1.1361   -4.3409    3.5524 H   0  0  0  0  0  0  0  0  0  0  0  0
    0.5851   -7.4482    4.0193 H   0  0  0  0  0  0  0  0  0  0  0  0
    0.4730   -8.4383    1.4350 H   0  0  0  0  0  0  0  0  0  0  0  0
    3.6401   -6.0560   -0.2464 H   0  0  0  0  0  0  0  0  0  0  0  0
    5.2230   -8.6320    1.0399 H   0  0  0  0  0  0  0  0  0  0  0  0
    6.1914   -7.3718    1.7328 H   0  0  0  0  0  0  0  0  0  0  0  0
    4.2372  -10.1098    4.0732 H   0  0  0  0  0  0  0  0  0  0  0  0
    2.4735   -8.7649    4.8627 H   0  0  0  0  0  0  0  0  0  0  0  0
    4.3606   -6.7811    4.3936 H   0  0  0  0  0  0  0  0  0  0  0  0
    1.3177  -10.3752    4.0379 H   0  0  0  0  0  0  0  0  0  0  0  0
    2.1991  -11.5493    3.0804 H   0  0  0  0  0  0  0  0  0  0  0  0
    0.8669  -10.6524    2.3795 H   0  0  0  0  0  0  0  0  0  0  0  0
    3.3731  -10.6982    1.2233 H   0  0  0  0  0  0  0  0  0  0  0  0
    5.8285   -5.9214    3.1154 H   0  0  0  0  0  0  0  0  0  0  0  0
    5.6841   -3.8840    1.9795 H   0  0  0  0  0  0  0  0  0  0  0  0
    6.3575   -5.0308    0.1450 H   0  0  0  0  0  0  0  0  0  0  0  0
    2.0702   -2.5110   -0.8890 H   0  0  0  0  0  0  0  0  0  0  0  0
    3.8268   -1.2865   -1.0481 H   0  0  0  0  0  0  0  0  0  0  0  0
  2  1  1  1
  1 38  1  0
  1 39  1  0
  1 40  1  0
  2  5  1  0
  2 30  1  0
  2  3  1  0
  3  4  1  0
  4 37  1  0
  4  5  1  0
  4 41  1  1
  5  6  2  3
  6  7  1  0
  6 42  1  0
  7  9  1  0
  7  8  1  0
  7 43  1  1
  8  9  1  0
  9 10  1  0
  9 44  1  6
 10 27  1  0
 10 34  1  6
 10 11  1  0
 11 12  1  0
 11 45  1  0
 11 46  1  0
 12 13  1  0
 13 14  1  0
 13 15  1  0
 13 47  1  1
 14 48  1  0
 15 22  1  0
 15 24  1  0
 15 16  1  6
 16 17  1  0
 17 18  1  6
 17 19  1  0
 17 27  1  0
 18 49  1  0
 19 20  1  0
 19 50  1  0
 19 51  1  0
 20 21  1  0
 21 22  1  0
 21 24  1  0
 21 52  1  1
 22 23  1  0
 22 53  1  1
 23 54  1  0
 24 25  1  0
 24 26  1  6
 25 55  1  0
 25 56  1  0
 25 57  1  0
 26 58  1  0
 27 28  1  1
 27 29  1  0
 28 59  1  0
 29 35  1  0
 29 30  1  0
 29 60  1  1
 30 31  1  0
 30 61  1  1
 31 32  1  0
 32 33  1  6
 32 34  1  0
 32 35  1  0
 33 62  1  0
 35 37  1  0
 35 36  1  1
 36 37  1  0
 37 63  1  6
M  END
>  <i_m_ct_stereo_status>  (160) 
1

>  <s_m_source_file>  (160) 
/var/tmp/pbs.5076253.sched01/tmp4uievzq0/12082cxahoa.sdf

>  <i_m_source_file_index>  (160) 
21

>  <i_lp_mmshare_version>  (160) 
48012

>  <i_f3d_flags>  (160) 
2

>  <s_epik_input>  (160) 
W0NAQF0xMjNbQ0BIXTRbQ0BIXShPNCkvW0NIXT1DNVxbQ0BAXTYoW0NIM10pW0NASF03W0NIXShDOChbQ0BAXShPNykoTzMpW09IXSlbQ0BIXShPOClbQ0BASF01TzYpW0NAXTIoW09IXSlbQ0BdOShbT0hdKU9bQ0BdMihbQ0BIXShbT0hdKU9bQ0gyXTEpW0NASF0oW09IXSlbQ0BIXShPW0NIMl05KVtDQF0yKFtDSDNdKVtPSF0=

>  <s_epik_cmdline>  (160) 
J2VwaWtfcHl0aG9uJywgJy1waHQnLCAnMi4wJywgJy1waCcsICc3LjAnLCAnLXRuJywgJzgnLCAnLW1hJywgJzIwMCcsICctaW1hZScsICc8aW5maWxlLm1hZT4nLCAnLW9tYWUnLCAnPG91dGZpbGUubWFlPic=

>  <r_epik_Ionization_Penalty>  (160) 
0.0160615

>  <r_epik_Ionization_Penalty_Charging>  (160) 
0

>  <r_epik_Ionization_Penalty_Neutral>  (160) 
0.0160615

>  <r_epik_State_Penalty>  (160) 
0.0123916

>  <r_epik_Charging_Adjusted_Penalty>  (160) 
0.0123916

>  <i_epik_Tot_Q>  (160) 
0

>  <i_epik_Tot_abs_Q>  (160) 
0

>  <s_epik_Chemistry_Notes>  (160) 
This compound contains an acetal/aminal-like group ( X-CH(R)-Y where X, Y are N, S, or O) that may be acid/base labile, releasing an aldehyde.

>  <s_lp_Force_Field>  (160) 
OPLS3e

>  <r_lp_Energy>  (160) 
340.167

>  <b_lp_Chiralities_Consistent>  (160) 
0

>  <s_lp_Variant>  (160) 
95:0-1

>  <s_i_glide_gridfile>  (160) 
pfpi4k_grid

>  <i_i_glide_lignum>  (160) 
21

>  <i_i_glide_rotatable_bonds>  (160) 
6

>  <r_i_docking_score>  (160) 
-4.39982

>  <r_i_glide_ligand_efficiency>  (160) 
-0.118914

>  <r_i_glide_ligand_efficiency_sa>  (160) 
-0.396248

>  <r_i_glide_ligand_efficiency_ln>  (160) 
-0.954217

>  <r_i_glide_gscore>  (160) 
-4.39982

>  <r_i_glide_lipo>  (160) 
-0.926728

>  <r_i_glide_hbond>  (160) 
-0.135938

>  <r_i_glide_metal>  (160) 
-0

>  <r_i_glide_rewards>  (160) 
-0.593534

>  <r_i_glide_evdw>  (160) 
-25.2434

>  <r_i_glide_ecoul>  (160) 
-9.61408

>  <r_i_glide_erotb>  (160) 
0

>  <r_i_glide_esite>  (160) 
-0.0393333

>  <r_i_glide_emodel>  (160) 
-49.9139

>  <r_i_glide_energy>  (160) 
-34.8575

>  <r_i_glide_einternal>  (160) 
2.54307

>  <r_i_glide_intrahb_reward>  (160) 
-0.5

>  <i_i_glide_confnum>  (160) 
2

>  <i_i_glide_posenum>  (160) 
23

>  <r_i_glide_eff_state_penalty>  (160) 
0

>  <ligand_id>  (160) 
95

>  <original_smiles>  (160) 
CC12OC3C1=CC1OC1C14COC(O)C56OC(O)(COC(C5O)C6(C)O)C1(O)C1C2OC(O)(O4)C12OC32

>  <smiles>  (160) 
[H]OC1([H])OC([H])([H])C23OC4(O[H])OC5([H])C6(C([H])([H])[H])OC([H])(C6=C([H])C6([H])OC62[H])C2([H])OC42C5([H])C3(O[H])C2(O[H])OC13C([H])(O[H])C([H])(OC2([H])[H])C3(O[H])C([H])([H])[H]

$$$$
95:0:1
     RDKit          3D

 63 72  0  0  1  0  0  0  0  0999 V2000
    8.0780   -3.0908    0.7054 C   0  0  0  0  0  0  0  0  0  0  0  0
    6.6008   -2.7651    0.4701 C   0  0  2  0  0  0  0  0  0  0  0  0
    6.5324   -1.7757   -0.5981 O   0  0  0  0  0  0  0  0  0  0  0  0
    5.6210   -0.9658    0.2201 C   0  0  2  0  0  0  0  0  0  0  0  0
    6.0249   -1.6287    1.4956 C   0  0  0  0  0  0  0  0  0  0  0  0
    5.2789   -1.5022    2.6844 C   0  0  0  0  0  0  0  0  0  0  0  0
    4.6438   -2.6016    3.5567 C   0  0  1  0  0  0  0  0  0  0  0  0
    3.4886   -2.6437    4.4137 O   0  0  0  0  0  0  0  0  0  0  0  0
    3.1690   -3.0522    3.0784 C   0  0  2  0  0  0  0  0  0  0  0  0
    2.8844   -4.4967    2.3678 C   0  0  2  0  0  0  0  0  0  0  0  0
    1.6946   -5.1229    3.1699 C   0  0  0  0  0  0  0  0  0  0  0  0
    0.8531   -6.0251    2.4391 O   0  0  0  0  0  0  0  0  0  0  0  0
    0.8314   -7.3585    2.8703 C   0  0  1  0  0  0  0  0  0  0  0  0
   -0.0603   -8.1174    2.0818 O   0  0  0  0  0  0  0  0  0  0  0  0
    2.2576   -7.9335    2.7931 C   0  0  1  0  0  0  0  0  0  0  0  0
    2.8186   -7.2866    1.6386 O   0  0  0  0  0  0  0  0  0  0  0  0
    4.0809   -6.7576    1.4646 C   0  0  2  0  0  0  0  0  0  0  0  0
    4.2402   -6.7075    0.0776 O   0  0  0  0  0  0  0  0  0  0  0  0
    5.1477   -7.8310    1.8458 C   0  0  0  0  0  0  0  0  0  0  0  0
    4.9937   -8.4177    3.1296 O   0  0  0  0  0  0  0  0  0  0  0  0
    3.8521   -9.2258    3.4488 C   0  0  1  0  0  0  0  0  0  0  0  0
    2.9756   -8.2094    4.1489 C   0  0  1  0  0  0  0  0  0  0  0  0
    3.5288   -7.1964    4.9594 O   0  0  0  0  0  0  0  0  0  0  0  0
    2.6061   -9.4406    2.5315 C   0  0  1  0  0  0  0  0  0  0  0  0
    1.6027  -10.5308    2.9700 C   0  0  0  0  0  0  0  0  0  0  0  0
    2.8868   -9.8396    1.2064 O   0  0  0  0  0  0  0  0  0  0  0  0
    4.2029   -5.2721    2.1254 C   0  0  2  0  0  0  0  0  0  0  0  0
    4.9174   -5.4175    3.3402 O   0  0  0  0  0  0  0  0  0  0  0  0
    4.8517   -4.0599    1.2780 C   0  0  1  0  0  0  0  0  0  0  0  0
    5.7281   -4.1404    0.1752 C   0  0  1  0  0  0  0  0  0  0  0  0
    4.5176   -4.3449   -0.6955 O   0  0  0  0  0  0  0  0  0  0  0  0
    3.2356   -3.8725   -0.1891 C   0  0  1  0  0  0  0  0  0  0  0  0
    2.4160   -3.3675   -1.2306 O   0  0  0  0  0  0  0  0  0  0  0  0
    2.4653   -4.4971    0.9043 O   0  0  0  0  0  0  0  0  0  0  0  0
    3.9260   -2.9262    0.4925 C   0  0  1  0  0  0  0  0  0  0  0  0
    3.2718   -1.6948    0.8895 O   0  0  0  0  0  0  0  0  0  0  0  0
    4.2770   -1.5500   -0.1200 C   0  0  1  0  0  0  0  0  0  0  0  0
    8.2124   -3.7611    1.5612 H   0  0  0  0  0  0  0  0  0  0  0  0
    8.6904   -2.1983    0.8739 H   0  0  0  0  0  0  0  0  0  0  0  0
    8.5010   -3.6041   -0.1614 H   0  0  0  0  0  0  0  0  0  0  0  0
    5.7298    0.1169    0.1646 H   0  0  0  0  0  0  0  0  0  0  0  0
    4.8104   -0.5438    2.8365 H   0  0  0  0  0  0  0  0  0  0  0  0
    5.4169   -3.2131    4.0036 H   0  0  0  0  0  0  0  0  0  0  0  0
    2.3927   -2.3471    2.8014 H   0  0  0  0  0  0  0  0  0  0  0  0
    1.9974   -5.4893    4.1466 H   0  0  0  0  0  0  0  0  0  0  0  0
    1.0182   -4.3012    3.4091 H   0  0  0  0  0  0  0  0  0  0  0  0
    0.4422   -7.3913    3.8894 H   0  0  0  0  0  0  0  0  0  0  0  0
    0.4184   -8.4610    1.3438 H   0  0  0  0  0  0  0  0  0  0  0  0
    3.6556   -6.0587   -0.2731 H   0  0  0  0  0  0  0  0  0  0  0  0
    5.1789   -8.6192    1.0873 H   0  0  0  0  0  0  0  0  0  0  0  0
    6.1317   -7.3591    1.8104 H   0  0  0  0  0  0  0  0  0  0  0  0
    4.0693  -10.0775    4.0890 H   0  0  0  0  0  0  0  0  0  0  0  0
    2.2757   -8.7283    4.8034 H   0  0  0  0  0  0  0  0  0  0  0  0
    3.8423   -7.6178    5.7417 H   0  0  0  0  0  0  0  0  0  0  0  0
    1.1541  -10.3341    3.9428 H   0  0  0  0  0  0  0  0  0  0  0  0
    2.0695  -11.5153    3.0315 H   0  0  0  0  0  0  0  0  0  0  0  0
    0.7689  -10.6199    2.2718 H   0  0  0  0  0  0  0  0  0  0  0  0
    3.3367  -10.6803    1.2199 H   0  0  0  0  0  0  0  0  0  0  0  0
    5.6884   -5.9414    3.1776 H   0  0  0  0  0  0  0  0  0  0  0  0
    5.6211   -3.8575    1.9943 H   0  0  0  0  0  0  0  0  0  0  0  0
    6.3581   -5.0312    0.2072 H   0  0  0  0  0  0  0  0  0  0  0  0
    2.0795   -2.5164   -0.9702 H   0  0  0  0  0  0  0  0  0  0  0  0
    3.8938   -1.2927   -1.1010 H   0  0  0  0  0  0  0  0  0  0  0  0
  2  1  1  1
  1 38  1  0
  1 39  1  0
  1 40  1  0
  2  5  1  0
  2 30  1  0
  2  3  1  0
  3  4  1  0
  4 37  1  0
  4  5  1  0
  4 41  1  1
  5  6  2  3
  6  7  1  0
  6 42  1  0
  7  9  1  0
  7  8  1  0
  7 43  1  1
  8  9  1  0
  9 10  1  0
  9 44  1  6
 10 27  1  0
 10 34  1  6
 10 11  1  0
 11 12  1  0
 11 45  1  0
 11 46  1  0
 12 13  1  0
 13 14  1  0
 13 15  1  0
 13 47  1  1
 14 48  1  0
 15 22  1  0
 15 24  1  0
 15 16  1  6
 16 17  1  0
 17 18  1  6
 17 19  1  0
 17 27  1  0
 18 49  1  0
 19 20  1  0
 19 50  1  0
 19 51  1  0
 20 21  1  0
 21 22  1  0
 21 24  1  0
 21 52  1  1
 22 23  1  0
 22 53  1  1
 23 54  1  0
 24 25  1  0
 24 26  1  6
 25 55  1  0
 25 56  1  0
 25 57  1  0
 26 58  1  0
 27 28  1  1
 27 29  1  0
 28 59  1  0
 29 35  1  0
 29 30  1  0
 29 60  1  1
 30 31  1  0
 30 61  1  1
 31 32  1  0
 32 33  1  6
 32 34  1  0
 32 35  1  0
 33 62  1  0
 35 37  1  0
 35 36  1  1
 36 37  1  0
 37 63  1  6
M  END
>  <i_m_ct_stereo_status>  (161) 
1

>  <s_m_source_file>  (161) 
/var/tmp/pbs.5076253.sched01/tmp4uievzq0/12082cxahoa.sdf

>  <i_m_source_file_index>  (161) 
21

>  <i_lp_mmshare_version>  (161) 
48012

>  <i_f3d_flags>  (161) 
2

>  <s_epik_input>  (161) 
W0NAQF0xMjNbQ0BIXTRbQ0BIXShPNCkvW0NIXT1DNVxbQ0BAXTYoW0NIM10pW0NASF03W0NIXShDOChbQ0BAXShPNykoTzMpW09IXSlbQ0BIXShPOClbQ0BASF01TzYpW0NAXTIoW09IXSlbQ0BdOShbT0hdKU9bQ0BdMihbQ0BIXShbT0hdKU9bQ0gyXTEpW0NASF0oW09IXSlbQ0BIXShPW0NIMl05KVtDQF0yKFtDSDNdKVtPSF0=

>  <s_epik_cmdline>  (161) 
J2VwaWtfcHl0aG9uJywgJy1waHQnLCAnMi4wJywgJy1waCcsICc3LjAnLCAnLXRuJywgJzgnLCAnLW1hJywgJzIwMCcsICctaW1hZScsICc8aW5maWxlLm1hZT4nLCAnLW9tYWUnLCAnPG91dGZpbGUubWFlPic=

>  <r_epik_Ionization_Penalty>  (161) 
0.0160615

>  <r_epik_Ionization_Penalty_Charging>  (161) 
0

>  <r_epik_Ionization_Penalty_Neutral>  (161) 
0.0160615

>  <r_epik_State_Penalty>  (161) 
0.0123916

>  <r_epik_Charging_Adjusted_Penalty>  (161) 
0.0123916

>  <i_epik_Tot_Q>  (161) 
0

>  <i_epik_Tot_abs_Q>  (161) 
0

>  <s_epik_Chemistry_Notes>  (161) 
This compound contains an acetal/aminal-like group ( X-CH(R)-Y where X, Y are N, S, or O) that may be acid/base labile, releasing an aldehyde.

>  <s_lp_Force_Field>  (161) 
OPLS3e

>  <r_lp_Energy>  (161) 
340.167

>  <b_lp_Chiralities_Consistent>  (161) 
0

>  <s_lp_Variant>  (161) 
95:0-1

>  <s_i_glide_gridfile>  (161) 
pfpi4k_grid

>  <i_i_glide_lignum>  (161) 
21

>  <i_i_glide_rotatable_bonds>  (161) 
6

>  <r_i_docking_score>  (161) 
-3.95126

>  <r_i_glide_ligand_efficiency>  (161) 
-0.106791

>  <r_i_glide_ligand_efficiency_sa>  (161) 
-0.355851

>  <r_i_glide_ligand_efficiency_ln>  (161) 
-0.856936

>  <r_i_glide_gscore>  (161) 
-3.95126

>  <r_i_glide_lipo>  (161) 
-0.895302

>  <r_i_glide_hbond>  (161) 
-0.149621

>  <r_i_glide_metal>  (161) 
-0

>  <r_i_glide_rewards>  (161) 
-0.0922111

>  <r_i_glide_evdw>  (161) 
-25.1533

>  <r_i_glide_ecoul>  (161) 
-10.0847

>  <r_i_glide_erotb>  (161) 
0

>  <r_i_glide_esite>  (161) 
-0.0437654

>  <r_i_glide_emodel>  (161) 
-43.2478

>  <r_i_glide_energy>  (161) 
-35.2379

>  <r_i_glide_einternal>  (161) 
4.06952

>  <r_i_glide_intrahb_reward>  (161) 
-0

>  <i_i_glide_confnum>  (161) 
2

>  <i_i_glide_posenum>  (161) 
10

>  <r_i_glide_eff_state_penalty>  (161) 
0

>  <ligand_id>  (161) 
95

>  <original_smiles>  (161) 
CC12OC3C1=CC1OC1C14COC(O)C56OC(O)(COC(C5O)C6(C)O)C1(O)C1C2OC(O)(O4)C12OC32

>  <smiles>  (161) 
[H]OC1([H])OC([H])([H])C23OC4(O[H])OC5([H])C6(C([H])([H])[H])OC([H])(C6=C([H])C6([H])OC62[H])C2([H])OC42C5([H])C3(O[H])C2(O[H])OC13C([H])(O[H])C([H])(OC2([H])[H])C3(O[H])C([H])([H])[H]

$$$$
95:0:2
     RDKit          3D

 63 72  0  0  1  0  0  0  0  0999 V2000
    4.4865   -3.7287   -3.4090 C   0  0  0  0  0  0  0  0  0  0  0  0
    4.4404   -2.8338   -2.1688 C   0  0  2  0  0  0  0  0  0  0  0  0
    4.0377   -1.5014   -2.5819 O   0  0  0  0  0  0  0  0  0  0  0  0
    5.1378   -0.9128   -1.8207 C   0  0  2  0  0  0  0  0  0  0  0  0
    5.8890   -2.2048   -1.8119 C   0  0  0  0  0  0  0  0  0  0  0  0
    7.0013   -2.4241   -0.9703 C   0  0  0  0  0  0  0  0  0  0  0  0
    7.1817   -3.5100    0.0983 C   0  0  1  0  0  0  0  0  0  0  0  0
    7.9400   -3.5568    1.2763 O   0  0  0  0  0  0  0  0  0  0  0  0
    6.5921   -3.1304    1.5526 C   0  0  2  0  0  0  0  0  0  0  0  0
    5.2293   -3.8273    2.1768 C   0  0  2  0  0  0  0  0  0  0  0  0
    5.5893   -4.3134    3.6211 C   0  0  0  0  0  0  0  0  0  0  0  0
    4.5111   -4.3986    4.5563 O   0  0  0  0  0  0  0  0  0  0  0  0
    4.2094   -5.6636    5.0657 C   0  0  1  0  0  0  0  0  0  0  0  0
    3.1557   -5.5864    5.9902 O   0  0  0  0  0  0  0  0  0  0  0  0
    3.8354   -6.5724    3.8906 C   0  0  1  0  0  0  0  0  0  0  0  0
    3.1817   -5.6931    2.9708 O   0  0  0  0  0  0  0  0  0  0  0  0
    3.2854   -5.6339    1.6038 C   0  0  2  0  0  0  0  0  0  0  0  0
    2.1145   -5.0111    1.1967 O   0  0  0  0  0  0  0  0  0  0  0  0
    3.1099   -7.0525    0.9959 C   0  0  0  0  0  0  0  0  0  0  0  0
    3.9018   -8.0865    1.5480 O   0  0  0  0  0  0  0  0  0  0  0  0
    3.7477   -8.4909    2.9103 C   0  0  1  0  0  0  0  0  0  0  0  0
    4.8659   -7.6875    3.5297 C   0  0  1  0  0  0  0  0  0  0  0  0
    6.0617   -7.4612    2.8129 O   0  0  0  0  0  0  0  0  0  0  0  0
    2.8371   -7.7794    3.9696 C   0  0  1  0  0  0  0  0  0  0  0  0
    2.6838   -8.5281    5.3089 C   0  0  0  0  0  0  0  0  0  0  0  0
    1.4895   -7.5725    3.5875 O   0  0  0  0  0  0  0  0  0  0  0  0
    4.6006   -4.7973    1.1486 C   0  0  2  0  0  0  0  0  0  0  0  0
    5.5617   -5.7702    0.7680 O   0  0  0  0  0  0  0  0  0  0  0  0
    4.4806   -3.6486    0.0169 C   0  0  1  0  0  0  0  0  0  0  0  0
    3.4837   -3.4865   -0.9696 C   0  0  1  0  0  0  0  0  0  0  0  0
    2.6465   -2.8316    0.0941 O   0  0  0  0  0  0  0  0  0  0  0  0
    3.3375   -2.2258    1.2244 C   0  0  1  0  0  0  0  0  0  0  0  0
    2.6756   -1.0687    1.6542 O   0  0  0  0  0  0  0  0  0  0  0  0
    3.9827   -2.9676    2.3312 O   0  0  0  0  0  0  0  0  0  0  0  0
    4.4086   -2.0316    0.4043 C   0  0  1  0  0  0  0  0  0  0  0  0
    5.3955   -1.0144    0.7029 O   0  0  0  0  0  0  0  0  0  0  0  0
    4.5728   -0.7531   -0.4337 C   0  0  1  0  0  0  0  0  0  0  0  0
    4.9212   -4.7026   -3.1759 H   0  0  0  0  0  0  0  0  0  0  0  0
    5.0695   -3.2930   -4.2181 H   0  0  0  0  0  0  0  0  0  0  0  0
    3.4764   -3.8811   -3.7901 H   0  0  0  0  0  0  0  0  0  0  0  0
    5.6080   -0.0472   -2.2838 H   0  0  0  0  0  0  0  0  0  0  0  0
    7.6003   -1.5771   -0.6967 H   0  0  0  0  0  0  0  0  0  0  0  0
    7.2128   -4.4865   -0.3708 H   0  0  0  0  0  0  0  0  0  0  0  0
    6.7225   -2.1655    2.0236 H   0  0  0  0  0  0  0  0  0  0  0  0
    6.2613   -5.1693    3.6239 H   0  0  0  0  0  0  0  0  0  0  0  0
    6.1673   -3.5147    4.0665 H   0  0  0  0  0  0  0  0  0  0  0  0
    5.0782   -6.0494    5.6054 H   0  0  0  0  0  0  0  0  0  0  0  0
    3.4678   -5.1141    6.7509 H   0  0  0  0  0  0  0  0  0  0  0  0
    2.2175   -4.0846    1.3732 H   0  0  0  0  0  0  0  0  0  0  0  0
    2.0556   -7.3422    0.9998 H   0  0  0  0  0  0  0  0  0  0  0  0
    3.4200   -6.9596   -0.0336 H   0  0  0  0  0  0  0  0  0  0  0  0
    3.8742   -9.5641    3.0531 H   0  0  0  0  0  0  0  0  0  0  0  0
    5.1905   -8.1828    4.4463 H   0  0  0  0  0  0  0  0  0  0  0  0
    5.8244   -7.0305    1.9931 H   0  0  0  0  0  0  0  0  0  0  0  0
    3.6302   -8.6759    5.8319 H   0  0  0  0  0  0  0  0  0  0  0  0
    2.2423   -9.5192    5.1754 H   0  0  0  0  0  0  0  0  0  0  0  0
    2.0381   -7.9821    5.9965 H   0  0  0  0  0  0  0  0  0  0  0  0
    1.0886   -8.4307    3.5469 H   0  0  0  0  0  0  0  0  0  0  0  0
    5.2596   -6.2275   -0.0065 H   0  0  0  0  0  0  0  0  0  0  0  0
    5.1630   -4.1369   -0.6593 H   0  0  0  0  0  0  0  0  0  0  0  0
    3.0623   -4.4476   -1.2497 H   0  0  0  0  0  0  0  0  0  0  0  0
    2.1316   -0.7676    0.9252 H   0  0  0  0  0  0  0  0  0  0  0  0
    3.8638    0.0602   -0.3058 H   0  0  0  0  0  0  0  0  0  0  0  0
  2  1  1  6
  1 38  1  0
  1 39  1  0
  1 40  1  0
  2  5  1  0
  2 30  1  0
  2  3  1  0
  3  4  1  0
  4 37  1  0
  4  5  1  0
  4 41  1  6
  5  6  2  3
  6  7  1  0
  6 42  1  0
  7  9  1  0
  7  8  1  0
  7 43  1  6
  8  9  1  0
  9 10  1  0
  9 44  1  6
 10 27  1  0
 10 34  1  1
 10 11  1  0
 11 12  1  0
 11 45  1  0
 11 46  1  0
 12 13  1  0
 13 14  1  0
 13 15  1  0
 13 47  1  1
 14 48  1  0
 15 22  1  0
 15 24  1  0
 15 16  1  6
 16 17  1  0
 17 18  1  6
 17 19  1  0
 17 27  1  0
 18 49  1  0
 19 20  1  0
 19 50  1  0
 19 51  1  0
 20 21  1  0
 21 22  1  0
 21 24  1  0
 21 52  1  6
 22 23  1  0
 22 53  1  1
 23 54  1  0
 24 25  1  0
 24 26  1  6
 25 55  1  0
 25 56  1  0
 25 57  1  0
 26 58  1  0
 27 28  1  6
 27 29  1  0
 28 59  1  0
 29 35  1  0
 29 30  1  0
 29 60  1  6
 30 31  1  0
 30 61  1  6
 31 32  1  0
 32 33  1  1
 32 34  1  0
 32 35  1  0
 33 62  1  0
 35 37  1  0
 35 36  1  1
 36 37  1  0
 37 63  1  1
M  END
>  <i_m_ct_stereo_status>  (162) 
1

>  <s_m_source_file>  (162) 
/var/tmp/pbs.5076253.sched01/tmp4uievzq0/12082cxahoa.sdf

>  <i_m_source_file_index>  (162) 
21

>  <i_lp_mmshare_version>  (162) 
48012

>  <i_f3d_flags>  (162) 
2

>  <s_epik_input>  (162) 
W0NAQF0xMjNbQ0BIXTRbQ0BIXShPNCkvW0NIXT1DNVxbQ0BAXTYoW0NIM10pW0NASF03W0NIXShDOChbQ0BAXShPNykoTzMpW09IXSlbQ0BIXShPOClbQ0BASF01TzYpW0NAXTIoW09IXSlbQ0BdOShbT0hdKU9bQ0BdMihbQ0BIXShbT0hdKU9bQ0gyXTEpW0NASF0oW09IXSlbQ0BIXShPW0NIMl05KVtDQF0yKFtDSDNdKVtPSF0=

>  <s_epik_cmdline>  (162) 
J2VwaWtfcHl0aG9uJywgJy1waHQnLCAnMi4wJywgJy1waCcsICc3LjAnLCAnLXRuJywgJzgnLCAnLW1hJywgJzIwMCcsICctaW1hZScsICc8aW5maWxlLm1hZT4nLCAnLW9tYWUnLCAnPG91dGZpbGUubWFlPic=

>  <r_epik_Ionization_Penalty>  (162) 
0.0160615

>  <r_epik_Ionization_Penalty_Charging>  (162) 
0

>  <r_epik_Ionization_Penalty_Neutral>  (162) 
0.0160615

>  <r_epik_State_Penalty>  (162) 
0.0123916

>  <r_epik_Charging_Adjusted_Penalty>  (162) 
0.0123916

>  <i_epik_Tot_Q>  (162) 
0

>  <i_epik_Tot_abs_Q>  (162) 
0

>  <s_epik_Chemistry_Notes>  (162) 
This compound contains an acetal/aminal-like group ( X-CH(R)-Y where X, Y are N, S, or O) that may be acid/base labile, releasing an aldehyde.

>  <s_lp_Force_Field>  (162) 
OPLS3e

>  <r_lp_Energy>  (162) 
340.167

>  <b_lp_Chiralities_Consistent>  (162) 
0

>  <s_lp_Variant>  (162) 
95:0-1

>  <s_i_glide_gridfile>  (162) 
pfpi4k_grid

>  <i_i_glide_lignum>  (162) 
21

>  <i_i_glide_rotatable_bonds>  (162) 
6

>  <r_i_docking_score>  (162) 
-2.32635

>  <r_i_glide_ligand_efficiency>  (162) 
-0.0628742

>  <r_i_glide_ligand_efficiency_sa>  (162) 
-0.209511

>  <r_i_glide_ligand_efficiency_ln>  (162) 
-0.50453

>  <r_i_glide_gscore>  (162) 
-2.32635

>  <r_i_glide_lipo>  (162) 
-0.428362

>  <r_i_glide_hbond>  (162) 
0

>  <r_i_glide_metal>  (162) 
-0

>  <r_i_glide_rewards>  (162) 
-0.521512

>  <r_i_glide_evdw>  (162) 
-17.0852

>  <r_i_glide_ecoul>  (162) 
-3.35486

>  <r_i_glide_erotb>  (162) 
0

>  <r_i_glide_esite>  (162) 
-0.0189816

>  <r_i_glide_emodel>  (162) 
-29.1165

>  <r_i_glide_energy>  (162) 
-20.4401

>  <r_i_glide_einternal>  (162) 
3.91625

>  <r_i_glide_intrahb_reward>  (162) 
-0.5

>  <i_i_glide_confnum>  (162) 
2

>  <i_i_glide_posenum>  (162) 
31

>  <r_i_glide_eff_state_penalty>  (162) 
0

>  <ligand_id>  (162) 
95

>  <original_smiles>  (162) 
CC12OC3C1=CC1OC1C14COC(O)C56OC(O)(COC(C5O)C6(C)O)C1(O)C1C2OC(O)(O4)C12OC32

>  <smiles>  (162) 
[H]OC1([H])OC([H])([H])C23OC4(O[H])OC5([H])C6(C([H])([H])[H])OC([H])(C6=C([H])C6([H])OC62[H])C2([H])OC42C5([H])C3(O[H])C2(O[H])OC13C([H])(O[H])C([H])(OC2([H])[H])C3(O[H])C([H])([H])[H]

$$$$
95:1:0
     RDKit          3D

 63 72  0  0  1  0  0  0  0  0999 V2000
    3.7496   -3.6647   -0.1850 C   0  0  0  0  0  0  0  0  0  0  0  0
    4.1625   -3.7417    1.2845 C   0  0  2  0  0  0  0  0  0  0  0  0
    4.2621   -2.3961    1.8229 O   0  0  0  0  0  0  0  0  0  0  0  0
    5.5547   -2.7265    2.4219 C   0  0  2  0  0  0  0  0  0  0  0  0
    5.7539   -3.8857    1.4894 C   0  0  0  0  0  0  0  0  0  0  0  0
    6.5424   -5.0239    1.6337 C   0  0  0  0  0  0  0  0  0  0  0  0
    7.0034   -5.8033    2.8997 C   0  0  2  0  0  0  0  0  0  0  0  0
    6.8365   -7.2276    2.8524 O   0  0  0  0  0  0  0  0  0  0  0  0
    6.2171   -6.6721    4.0263 C   0  0  2  0  0  0  0  0  0  0  0  0
    4.6396   -7.0422    4.4156 C   0  0  2  0  0  0  0  0  0  0  0  0
    4.7647   -8.2936    5.3606 C   0  0  0  0  0  0  0  0  0  0  0  0
    3.6813   -8.5336    6.2657 O   0  0  0  0  0  0  0  0  0  0  0  0
    2.9710   -9.7335    6.1172 C   0  0  1  0  0  0  0  0  0  0  0  0
    1.9809   -9.8534    7.1146 O   0  0  0  0  0  0  0  0  0  0  0  0
    2.3688   -9.7535    4.7007 C   0  0  1  0  0  0  0  0  0  0  0  0
    2.0573   -8.3802    4.4422 O   0  0  0  0  0  0  0  0  0  0  0  0
    2.2160   -7.6431    3.2897 C   0  0  2  0  0  0  0  0  0  0  0  0
    1.3211   -6.5820    3.4576 O   0  0  0  0  0  0  0  0  0  0  0  0
    1.5875   -8.4155    2.0869 C   0  0  0  0  0  0  0  0  0  0  0  0
    2.0170   -9.7567    1.9334 O   0  0  0  0  0  0  0  0  0  0  0  0
    1.6964  -10.7497    2.9193 C   0  0  1  0  0  0  0  0  0  0  0  0
    2.9959  -10.7655    3.6906 C   0  0  1  0  0  0  0  0  0  0  0  0
    4.2063  -10.5422    2.9975 O   0  0  0  0  0  0  0  0  0  0  0  0
    1.0298  -10.4525    4.2912 C   0  0  1  0  0  0  0  0  0  0  0  0
    0.6001  -11.6971    5.0712 C   0  0  0  0  0  0  0  0  0  0  0  0
   -0.1763   -9.7028    4.2394 O   0  0  0  0  0  0  0  0  0  0  0  0
    3.7631   -7.1443    3.1463 C   0  0  2  0  0  0  0  0  0  0  0  0
    4.3951   -8.0129    2.2151 O   0  0  0  0  0  0  0  0  0  0  0  0
    4.0545   -5.6228    2.7510 C   0  0  1  0  0  0  0  0  0  0  0  0
    3.1450   -4.6901    2.1671 C   0  0  1  0  0  0  0  0  0  0  0  0
    2.5802   -4.4163    3.5286 O   0  0  0  0  0  0  0  0  0  0  0  0
    3.4311   -4.7276    4.6605 C   0  0  1  0  0  0  0  0  0  0  0  0
    3.2699   -3.7950    5.7047 O   0  0  0  0  0  0  0  0  0  0  0  0
    3.7360   -6.0737    5.1468 O   0  0  0  0  0  0  0  0  0  0  0  0
    4.5293   -4.5141    3.8794 C   0  0  1  0  0  0  0  0  0  0  0  0
    5.8017   -4.2030    4.5056 O   0  0  0  0  0  0  0  0  0  0  0  0
    5.1551   -3.1484    3.7832 C   0  0  1  0  0  0  0  0  0  0  0  0
    3.7638   -4.6509   -0.6518 H   0  0  0  0  0  0  0  0  0  0  0  0
    4.3883   -3.0060   -0.7784 H   0  0  0  0  0  0  0  0  0  0  0  0
    2.7321   -3.2849   -0.2689 H   0  0  0  0  0  0  0  0  0  0  0  0
    6.3042   -1.9334    2.3688 H   0  0  0  0  0  0  0  0  0  0  0  0
    6.4056   -5.7219    0.8272 H   0  0  0  0  0  0  0  0  0  0  0  0
    8.0153   -5.5058    3.1523 H   0  0  0  0  0  0  0  0  0  0  0  0
    6.8388   -6.7279    4.9149 H   0  0  0  0  0  0  0  0  0  0  0  0
    5.1111   -9.1822    4.8369 H   0  0  0  0  0  0  0  0  0  0  0  0
    5.5787   -8.0791    6.0493 H   0  0  0  0  0  0  0  0  0  0  0  0
    3.6648  -10.5621    6.2758 H   0  0  0  0  0  0  0  0  0  0  0  0
    1.8070  -10.7950    7.2795 H   0  0  0  0  0  0  0  0  0  0  0  0
    1.6308   -6.0714    4.1917 H   0  0  0  0  0  0  0  0  0  0  0  0
    0.4963   -8.3822    2.1362 H   0  0  0  0  0  0  0  0  0  0  0  0
    1.8506   -7.8933    1.1671 H   0  0  0  0  0  0  0  0  0  0  0  0
    1.4596  -11.7403    2.5333 H   0  0  0  0  0  0  0  0  0  0  0  0
    3.1293  -11.7270    4.1825 H   0  0  0  0  0  0  0  0  0  0  0  0
    4.2149  -11.1621    2.2725 H   0  0  0  0  0  0  0  0  0  0  0  0
    1.4378  -12.3579    5.2779 H   0  0  0  0  0  0  0  0  0  0  0  0
   -0.1285  -12.3028    4.5344 H   0  0  0  0  0  0  0  0  0  0  0  0
    0.1557  -11.4286    6.0288 H   0  0  0  0  0  0  0  0  0  0  0  0
   -0.8736  -10.2650    4.5755 H   0  0  0  0  0  0  0  0  0  0  0  0
    4.2859   -8.9130    2.5177 H   0  0  0  0  0  0  0  0  0  0  0  0
    4.5478   -5.8884    1.8540 H   0  0  0  0  0  0  0  0  0  0  0  0
    2.4229   -5.1793    1.5208 H   0  0  0  0  0  0  0  0  0  0  0  0
    4.1131   -3.6888    6.1190 H   0  0  0  0  0  0  0  0  0  0  0  0
    4.8074   -2.3327    4.4134 H   0  0  0  0  0  0  0  0  0  0  0  0
  2  1  1  6
  1 38  1  0
  1 39  1  0
  1 40  1  0
  2  5  1  0
  2 30  1  0
  2  3  1  0
  3  4  1  0
  4 37  1  0
  4  5  1  0
  4 41  1  1
  5  6  2  3
  6  7  1  0
  6 42  1  0
  7  9  1  0
  7  8  1  0
  7 43  1  1
  8  9  1  0
  9 10  1  0
  9 44  1  1
 10 27  1  0
 10 34  1  1
 10 11  1  0
 11 12  1  0
 11 45  1  0
 11 46  1  0
 12 13  1  0
 13 14  1  0
 13 15  1  0
 13 47  1  6
 14 48  1  0
 15 22  1  0
 15 24  1  0
 15 16  1  6
 16 17  1  0
 17 18  1  1
 17 19  1  0
 17 27  1  0
 18 49  1  0
 19 20  1  0
 19 50  1  0
 19 51  1  0
 20 21  1  0
 21 22  1  0
 21 24  1  0
 21 52  1  6
 22 23  1  0
 22 53  1  1
 23 54  1  0
 24 25  1  0
 24 26  1  6
 25 55  1  0
 25 56  1  0
 25 57  1  0
 26 58  1  0
 27 28  1  6
 27 29  1  0
 28 59  1  0
 29 35  1  0
 29 30  1  0
 29 60  1  6
 30 31  1  0
 30 61  1  6
 31 32  1  0
 32 33  1  1
 32 34  1  0
 32 35  1  0
 33 62  1  0
 35 37  1  0
 35 36  1  1
 36 37  1  0
 37 63  1  1
M  END
>  <i_m_ct_stereo_status>  (163) 
1

>  <s_m_source_file>  (163) 
/var/tmp/pbs.5076253.sched01/tmp4uievzq0/12082cxahoa.sdf

>  <i_m_source_file_index>  (163) 
22

>  <i_lp_mmshare_version>  (163) 
48012

>  <i_f3d_flags>  (163) 
2

>  <s_epik_input>  (163) 
W0NAQF0xMjNbQ0BIXTRbQ0BIXShPNCkvW0NIXT1DNVxbQ0BAXTYoW0NIM10pW0NASF03W0NIXShDOChbQ0BAXShPNykoTzMpW09IXSlbQ0BIXShPOClbQ0BASF01TzYpW0NAXTIoW09IXSlbQ0BdOShbT0hdKU9bQ0BdMihbQ0BIXShbT0hdKU9bQ0gyXTEpW0NASF0oW09IXSlbQ0BIXShPW0NIMl05KVtDQF0yKFtDSDNdKVtPSF0=

>  <s_epik_cmdline>  (163) 
J2VwaWtfcHl0aG9uJywgJy1waHQnLCAnMi4wJywgJy1waCcsICc3LjAnLCAnLXRuJywgJzgnLCAnLW1hJywgJzIwMCcsICctaW1hZScsICc8aW5maWxlLm1hZT4nLCAnLW9tYWUnLCAnPG91dGZpbGUubWFlPic=

>  <r_epik_Ionization_Penalty>  (163) 
0.0160615

>  <r_epik_Ionization_Penalty_Charging>  (163) 
0

>  <r_epik_Ionization_Penalty_Neutral>  (163) 
0.0160615

>  <r_epik_State_Penalty>  (163) 
0.0123916

>  <r_epik_Charging_Adjusted_Penalty>  (163) 
0.0123916

>  <i_epik_Tot_Q>  (163) 
0

>  <i_epik_Tot_abs_Q>  (163) 
0

>  <s_epik_Chemistry_Notes>  (163) 
This compound contains an acetal/aminal-like group ( X-CH(R)-Y where X, Y are N, S, or O) that may be acid/base labile, releasing an aldehyde.

>  <s_lp_Force_Field>  (163) 
OPLS3e

>  <r_lp_Energy>  (163) 
319.65

>  <b_lp_Chiralities_Consistent>  (163) 
0

>  <s_lp_Variant>  (163) 
95:0-2

>  <s_i_glide_gridfile>  (163) 
pfpi4k_grid

>  <i_i_glide_lignum>  (163) 
22

>  <i_i_glide_rotatable_bonds>  (163) 
6

>  <r_i_docking_score>  (163) 
-3.61394

>  <r_i_glide_ligand_efficiency>  (163) 
-0.0976739

>  <r_i_glide_ligand_efficiency_sa>  (163) 
-0.325471

>  <r_i_glide_ligand_efficiency_ln>  (163) 
-0.783778

>  <r_i_glide_gscore>  (163) 
-3.61394

>  <r_i_glide_lipo>  (163) 
-0.355338

>  <r_i_glide_hbond>  (163) 
0

>  <r_i_glide_metal>  (163) 
-0

>  <r_i_glide_rewards>  (163) 
-0.5

>  <r_i_glide_evdw>  (163) 
-15.7302

>  <r_i_glide_ecoul>  (163) 
-12.8172

>  <r_i_glide_erotb>  (163) 
0

>  <r_i_glide_esite>  (163) 
-0.0495027

>  <r_i_glide_emodel>  (163) 
-38.6196

>  <r_i_glide_energy>  (163) 
-28.5475

>  <r_i_glide_einternal>  (163) 
6.27254

>  <r_i_glide_intrahb_reward>  (163) 
-0.5

>  <i_i_glide_confnum>  (163) 
1

>  <i_i_glide_posenum>  (163) 
7

>  <r_i_glide_eff_state_penalty>  (163) 
0

>  <ligand_id>  (163) 
95

>  <original_smiles>  (163) 
CC12OC3C1=CC1OC1C14COC(O)C56OC(O)(COC(C5O)C6(C)O)C1(O)C1C2OC(O)(O4)C12OC32

>  <smiles>  (163) 
[H]OC1([H])OC([H])([H])C23OC4(O[H])OC5([H])C6(C([H])([H])[H])OC([H])(C6=C([H])C6([H])OC62[H])C2([H])OC42C5([H])C3(O[H])C2(O[H])OC13C([H])(O[H])C([H])(OC2([H])[H])C3(O[H])C([H])([H])[H]

$$$$
95:1:1
     RDKit          3D

 63 72  0  0  1  0  0  0  0  0999 V2000
    0.6791   -6.7292    5.2090 C   0  0  0  0  0  0  0  0  0  0  0  0
    1.9296   -7.2451    4.4991 C   0  0  2  0  0  0  0  0  0  0  0  0
    1.8501   -8.6922    4.4006 O   0  0  0  0  0  0  0  0  0  0  0  0
    3.2296   -8.8067    4.8798 C   0  0  2  0  0  0  0  0  0  0  0  0
    3.1921   -7.4291    5.4890 C   0  0  0  0  0  0  0  0  0  0  0  0
    4.2273   -6.5597    5.7954 C   0  0  0  0  0  0  0  0  0  0  0  0
    5.6319   -6.3650    5.1571 C   0  0  2  0  0  0  0  0  0  0  0  0
    5.9939   -5.0082    4.8645 O   0  0  0  0  0  0  0  0  0  0  0  0
    6.1372   -5.8472    3.7006 C   0  0  2  0  0  0  0  0  0  0  0  0
    5.4545   -5.3987    2.2519 C   0  0  2  0  0  0  0  0  0  0  0  0
    6.5949   -4.6034    1.5242 C   0  0  0  0  0  0  0  0  0  0  0  0
    6.5205   -4.5424    0.0961 O   0  0  0  0  0  0  0  0  0  0  0  0
    6.3767   -3.2771   -0.4777 C   0  0  1  0  0  0  0  0  0  0  0  0
    6.3472   -3.3710   -1.8813 O   0  0  0  0  0  0  0  0  0  0  0  0
    5.0812   -2.6473    0.0415 C   0  0  1  0  0  0  0  0  0  0  0  0
    4.2016   -3.7677    0.1744 O   0  0  0  0  0  0  0  0  0  0  0  0
    3.3140   -4.0710    1.1765 C   0  0  2  0  0  0  0  0  0  0  0  0
    2.4351   -4.9701    0.5612 O   0  0  0  0  0  0  0  0  0  0  0  0
    2.4096   -2.8261    1.4386 C   0  0  0  0  0  0  0  0  0  0  0  0
    3.0978   -1.6105    1.6753 O   0  0  0  0  0  0  0  0  0  0  0  0
    3.8429   -0.9851    0.6163 C   0  0  1  0  0  0  0  0  0  0  0  0
    5.2237   -1.4400    1.0168 C   0  0  1  0  0  0  0  0  0  0  0  0
    5.5620   -1.5541    2.3810 O   0  0  0  0  0  0  0  0  0  0  0  0
    4.1861   -1.6402   -0.7629 C   0  0  1  0  0  0  0  0  0  0  0  0
    4.8448   -0.7182   -1.8077 C   0  0  0  0  0  0  0  0  0  0  0  0
    3.0765   -2.1307   -1.4892 O   0  0  0  0  0  0  0  0  0  0  0  0
    4.0791   -4.7183    2.4634 C   0  0  2  0  0  0  0  0  0  0  0  0
    4.1926   -3.6647    3.4216 O   0  0  0  0  0  0  0  0  0  0  0  0
    3.4795   -6.0254    3.1572 C   0  0  1  0  0  0  0  0  0  0  0  0
    2.1467   -6.5330    3.0285 C   0  0  1  0  0  0  0  0  0  0  0  0
    2.5422   -7.1887    1.7405 O   0  0  0  0  0  0  0  0  0  0  0  0
    3.9635   -7.4359    1.5342 C   0  0  1  0  0  0  0  0  0  0  0  0
    4.1917   -8.6266    0.8077 O   0  0  0  0  0  0  0  0  0  0  0  0
    4.9656   -6.4138    1.2417 O   0  0  0  0  0  0  0  0  0  0  0  0
    4.1272   -7.5232    2.8898 C   0  0  1  0  0  0  0  0  0  0  0  0
    5.2666   -8.2355    3.4409 O   0  0  0  0  0  0  0  0  0  0  0  0
    3.9851   -8.8518    3.6059 C   0  0  1  0  0  0  0  0  0  0  0  0
    0.7503   -5.6555    5.3993 H   0  0  0  0  0  0  0  0  0  0  0  0
    0.4986   -7.2258    6.1677 H   0  0  0  0  0  0  0  0  0  0  0  0
   -0.2026   -6.8935    4.5887 H   0  0  0  0  0  0  0  0  0  0  0  0
    3.4155   -9.6308    5.5689 H   0  0  0  0  0  0  0  0  0  0  0  0
    3.8671   -5.6060    6.1464 H   0  0  0  0  0  0  0  0  0  0  0  0
    6.3723   -6.8854    5.7516 H   0  0  0  0  0  0  0  0  0  0  0  0
    7.1493   -6.2041    3.5393 H   0  0  0  0  0  0  0  0  0  0  0  0
    6.8047   -3.6473    1.9950 H   0  0  0  0  0  0  0  0  0  0  0  0
    7.5150   -5.1676    1.6693 H   0  0  0  0  0  0  0  0  0  0  0  0
    7.2507   -2.6774   -0.2257 H   0  0  0  0  0  0  0  0  0  0  0  0
    5.6102   -3.9169   -2.1067 H   0  0  0  0  0  0  0  0  0  0  0  0
    2.9696   -5.6406    0.1583 H   0  0  0  0  0  0  0  0  0  0  0  0
    1.7424   -2.6644    0.5966 H   0  0  0  0  0  0  0  0  0  0  0  0
    1.7790   -3.0338    2.3060 H   0  0  0  0  0  0  0  0  0  0  0  0
    3.7797    0.1010    0.5894 H   0  0  0  0  0  0  0  0  0  0  0  0
    5.9693   -0.7600    0.6064 H   0  0  0  0  0  0  0  0  0  0  0  0
    4.8876   -2.0962    2.7800 H   0  0  0  0  0  0  0  0  0  0  0  0
    5.7913   -0.3121   -1.4661 H   0  0  0  0  0  0  0  0  0  0  0  0
    4.2113    0.1277   -2.0693 H   0  0  0  0  0  0  0  0  0  0  0  0
    5.0497   -1.2502   -2.7356 H   0  0  0  0  0  0  0  0  0  0  0  0
    2.3016   -1.7032   -1.1307 H   0  0  0  0  0  0  0  0  0  0  0  0
    3.3417   -3.2571    3.5290 H   0  0  0  0  0  0  0  0  0  0  0  0
    3.3334   -5.5368    4.0841 H   0  0  0  0  0  0  0  0  0  0  0  0
    1.4219   -5.7357    2.8745 H   0  0  0  0  0  0  0  0  0  0  0  0
    4.2446   -9.3493    1.4159 H   0  0  0  0  0  0  0  0  0  0  0  0
    3.8617   -9.7724    3.0425 H   0  0  0  0  0  0  0  0  0  0  0  0
  2  1  1  1
  1 38  1  0
  1 39  1  0
  1 40  1  0
  2  5  1  0
  2 30  1  0
  2  3  1  0
  3  4  1  0
  4 37  1  0
  4  5  1  0
  4 41  1  1
  5  6  2  3
  6  7  1  0
  6 42  1  0
  7  9  1  0
  7  8  1  0
  7 43  1  1
  8  9  1  0
  9 10  1  0
  9 44  1  6
 10 27  1  0
 10 34  1  6
 10 11  1  0
 11 12  1  0
 11 45  1  0
 11 46  1  0
 12 13  1  0
 13 14  1  0
 13 15  1  0
 13 47  1  6
 14 48  1  0
 15 22  1  0
 15 24  1  0
 15 16  1  1
 16 17  1  0
 17 18  1  6
 17 19  1  0
 17 27  1  0
 18 49  1  0
 19 20  1  0
 19 50  1  0
 19 51  1  0
 20 21  1  0
 21 22  1  0
 21 24  1  0
 21 52  1  6
 22 23  1  0
 22 53  1  6
 23 54  1  0
 24 25  1  0
 24 26  1  6
 25 55  1  0
 25 56  1  0
 25 57  1  0
 26 58  1  0
 27 28  1  1
 27 29  1  0
 28 59  1  0
 29 35  1  0
 29 30  1  0
 29 60  1  1
 30 31  1  0
 30 61  1  6
 31 32  1  0
 32 33  1  6
 32 34  1  0
 32 35  1  0
 33 62  1  0
 35 37  1  0
 35 36  1  6
 36 37  1  0
 37 63  1  6
M  END
>  <i_m_ct_stereo_status>  (164) 
1

>  <s_m_source_file>  (164) 
/var/tmp/pbs.5076253.sched01/tmp4uievzq0/12082cxahoa.sdf

>  <i_m_source_file_index>  (164) 
22

>  <i_lp_mmshare_version>  (164) 
48012

>  <i_f3d_flags>  (164) 
2

>  <s_epik_input>  (164) 
W0NAQF0xMjNbQ0BIXTRbQ0BIXShPNCkvW0NIXT1DNVxbQ0BAXTYoW0NIM10pW0NASF03W0NIXShDOChbQ0BAXShPNykoTzMpW09IXSlbQ0BIXShPOClbQ0BASF01TzYpW0NAXTIoW09IXSlbQ0BdOShbT0hdKU9bQ0BdMihbQ0BIXShbT0hdKU9bQ0gyXTEpW0NASF0oW09IXSlbQ0BIXShPW0NIMl05KVtDQF0yKFtDSDNdKVtPSF0=

>  <s_epik_cmdline>  (164) 
J2VwaWtfcHl0aG9uJywgJy1waHQnLCAnMi4wJywgJy1waCcsICc3LjAnLCAnLXRuJywgJzgnLCAnLW1hJywgJzIwMCcsICctaW1hZScsICc8aW5maWxlLm1hZT4nLCAnLW9tYWUnLCAnPG91dGZpbGUubWFlPic=

>  <r_epik_Ionization_Penalty>  (164) 
0.0160615

>  <r_epik_Ionization_Penalty_Charging>  (164) 
0

>  <r_epik_Ionization_Penalty_Neutral>  (164) 
0.0160615

>  <r_epik_State_Penalty>  (164) 
0.0123916

>  <r_epik_Charging_Adjusted_Penalty>  (164) 
0.0123916

>  <i_epik_Tot_Q>  (164) 
0

>  <i_epik_Tot_abs_Q>  (164) 
0

>  <s_epik_Chemistry_Notes>  (164) 
This compound contains an acetal/aminal-like group ( X-CH(R)-Y where X, Y are N, S, or O) that may be acid/base labile, releasing an aldehyde.

>  <s_lp_Force_Field>  (164) 
OPLS3e

>  <r_lp_Energy>  (164) 
319.65

>  <b_lp_Chiralities_Consistent>  (164) 
0

>  <s_lp_Variant>  (164) 
95:0-2

>  <s_i_glide_gridfile>  (164) 
pfpi4k_grid

>  <i_i_glide_lignum>  (164) 
22

>  <i_i_glide_rotatable_bonds>  (164) 
6

>  <r_i_docking_score>  (164) 
-2.96002

>  <r_i_glide_ligand_efficiency>  (164) 
-0.0800005

>  <r_i_glide_ligand_efficiency_sa>  (164) 
-0.266579

>  <r_i_glide_ligand_efficiency_ln>  (164) 
-0.641958

>  <r_i_glide_gscore>  (164) 
-2.96002

>  <r_i_glide_lipo>  (164) 
-0.203601

>  <r_i_glide_hbond>  (164) 
0

>  <r_i_glide_metal>  (164) 
-0

>  <r_i_glide_rewards>  (164) 
-0.712577

>  <r_i_glide_evdw>  (164) 
-23.1159

>  <r_i_glide_ecoul>  (164) 
-5.91499

>  <r_i_glide_erotb>  (164) 
0

>  <r_i_glide_esite>  (164) 
-0.000795508

>  <r_i_glide_emodel>  (164) 
-39.0175

>  <r_i_glide_energy>  (164) 
-29.0309

>  <r_i_glide_einternal>  (164) 
3.26917

>  <r_i_glide_intrahb_reward>  (164) 
-0.5

>  <i_i_glide_confnum>  (164) 
1

>  <i_i_glide_posenum>  (164) 
30

>  <r_i_glide_eff_state_penalty>  (164) 
0

>  <ligand_id>  (164) 
95

>  <original_smiles>  (164) 
CC12OC3C1=CC1OC1C14COC(O)C56OC(O)(COC(C5O)C6(C)O)C1(O)C1C2OC(O)(O4)C12OC32

>  <smiles>  (164) 
[H]OC1([H])OC([H])([H])C23OC4(O[H])OC5([H])C6(C([H])([H])[H])OC([H])(C6=C([H])C6([H])OC62[H])C2([H])OC42C5([H])C3(O[H])C2(O[H])OC13C([H])(O[H])C([H])(OC2([H])[H])C3(O[H])C([H])([H])[H]

$$$$
95:1:2
     RDKit          3D

 63 72  0  0  1  0  0  0  0  0999 V2000
    4.6005   -3.9107   -3.3488 C   0  0  0  0  0  0  0  0  0  0  0  0
    4.5336   -3.0296   -2.1037 C   0  0  2  0  0  0  0  0  0  0  0  0
    4.1571   -1.6851   -2.5097 O   0  0  0  0  0  0  0  0  0  0  0  0
    5.2243   -1.1255   -1.6787 C   0  0  2  0  0  0  0  0  0  0  0  0
    5.9716   -2.4335   -1.6836 C   0  0  0  0  0  0  0  0  0  0  0  0
    6.9212   -2.9176   -0.7975 C   0  0  0  0  0  0  0  0  0  0  0  0
    7.1199   -2.6826    0.7255 C   0  0  2  0  0  0  0  0  0  0  0  0
    7.2802   -3.8625    1.5129 O   0  0  0  0  0  0  0  0  0  0  0  0
    6.2291   -3.0297    2.0468 C   0  0  2  0  0  0  0  0  0  0  0  0
    4.7488   -3.6754    2.4167 C   0  0  2  0  0  0  0  0  0  0  0  0
    4.8664   -4.0607    3.9339 C   0  0  0  0  0  0  0  0  0  0  0  0
    3.6399   -4.1469    4.6670 O   0  0  0  0  0  0  0  0  0  0  0  0
    3.3056   -5.3979    5.2015 C   0  0  1  0  0  0  0  0  0  0  0  0
    2.1005   -5.3231    5.9265 O   0  0  0  0  0  0  0  0  0  0  0  0
    3.1892   -6.4011    4.0475 C   0  0  1  0  0  0  0  0  0  0  0  0
    2.6643   -5.6178    2.9716 O   0  0  0  0  0  0  0  0  0  0  0  0
    3.0084   -5.6216    1.6440 C   0  0  2  0  0  0  0  0  0  0  0  0
    1.9019   -5.0645    1.0119 O   0  0  0  0  0  0  0  0  0  0  0  0
    2.9798   -7.0741    1.0999 C   0  0  0  0  0  0  0  0  0  0  0  0
    3.7165   -8.0292    1.8424 O   0  0  0  0  0  0  0  0  0  0  0  0
    3.3444   -8.3703    3.1854 C   0  0  1  0  0  0  0  0  0  0  0  0
    4.3043   -7.4859    3.9466 C   0  0  1  0  0  0  0  0  0  0  0  0
    5.6024   -7.2419    3.4518 O   0  0  0  0  0  0  0  0  0  0  0  0
    2.2400   -7.6498    4.0320 C   0  0  1  0  0  0  0  0  0  0  0  0
    1.8751   -8.3239    5.3733 C   0  0  0  0  0  0  0  0  0  0  0  0
    0.9687   -7.5357    3.4186 O   0  0  0  0  0  0  0  0  0  0  0  0
    4.3647   -4.7586    1.3842 C   0  0  2  0  0  0  0  0  0  0  0  0
    5.4157   -5.7108    1.2371 O   0  0  0  0  0  0  0  0  0  0  0  0
    4.4199   -3.6985    0.1877 C   0  0  1  0  0  0  0  0  0  0  0  0
    3.5439   -3.6459   -0.9319 C   0  0  1  0  0  0  0  0  0  0  0  0
    2.5498   -2.9284   -0.0811 O   0  0  0  0  0  0  0  0  0  0  0  0
    3.0521   -2.2118    1.0744 C   0  0  1  0  0  0  0  0  0  0  0  0
    2.3384   -1.0153    1.2835 O   0  0  0  0  0  0  0  0  0  0  0  0
    3.4802   -2.8581    2.3095 O   0  0  0  0  0  0  0  0  0  0  0  0
    4.2602   -2.0742    0.4530 C   0  0  1  0  0  0  0  0  0  0  0  0
    5.1899   -1.0350    0.8724 O   0  0  0  0  0  0  0  0  0  0  0  0
    4.5501   -0.8598   -0.3839 C   0  0  1  0  0  0  0  0  0  0  0  0
    5.0055   -4.8965   -3.1091 H   0  0  0  0  0  0  0  0  0  0  0  0
    5.2230   -3.4926   -4.1414 H   0  0  0  0  0  0  0  0  0  0  0  0
    3.6021   -4.0495   -3.7660 H   0  0  0  0  0  0  0  0  0  0  0  0
    5.7468   -0.2768   -2.1140 H   0  0  0  0  0  0  0  0  0  0  0  0
    7.2072   -3.9288   -1.0163 H   0  0  0  0  0  0  0  0  0  0  0  0
    7.9071   -1.9542    0.8783 H   0  0  0  0  0  0  0  0  0  0  0  0
    6.4943   -2.3011    2.8009 H   0  0  0  0  0  0  0  0  0  0  0  0
    5.5487   -4.8902    4.1065 H   0  0  0  0  0  0  0  0  0  0  0  0
    5.3554   -3.2257    4.4330 H   0  0  0  0  0  0  0  0  0  0  0  0
    4.0810   -5.6990    5.9107 H   0  0  0  0  0  0  0  0  0  0  0  0
    2.2573   -4.8163    6.7072 H   0  0  0  0  0  0  0  0  0  0  0  0
    1.9884   -4.1230    1.0942 H   0  0  0  0  0  0  0  0  0  0  0  0
    1.9517   -7.4223    0.9842 H   0  0  0  0  0  0  0  0  0  0  0  0
    3.4133   -7.0292    0.0985 H   0  0  0  0  0  0  0  0  0  0  0  0
    3.4879   -9.4208    3.4315 H   0  0  0  0  0  0  0  0  0  0  0  0
    4.4683   -7.9013    4.9415 H   0  0  0  0  0  0  0  0  0  0  0  0
    5.5011   -6.8936    2.5691 H   0  0  0  0  0  0  0  0  0  0  0  0
    2.7151   -8.3903    6.0636 H   0  0  0  0  0  0  0  0  0  0  0  0
    1.5055   -9.3420    5.2347 H   0  0  0  0  0  0  0  0  0  0  0  0
    1.0955   -7.7728    5.9010 H   0  0  0  0  0  0  0  0  0  0  0  0
    0.6352   -8.4142    3.3200 H   0  0  0  0  0  0  0  0  0  0  0  0
    5.2128   -6.2818    0.5068 H   0  0  0  0  0  0  0  0  0  0  0  0
    5.2161   -4.2007   -0.3042 H   0  0  0  0  0  0  0  0  0  0  0  0
    3.1996   -4.6489   -1.1483 H   0  0  0  0  0  0  0  0  0  0  0  0
    1.7110   -0.9339    0.5612 H   0  0  0  0  0  0  0  0  0  0  0  0
    3.8589   -0.0348   -0.3654 H   0  0  0  0  0  0  0  0  0  0  0  0
  2  1  1  6
  1 38  1  0
  1 39  1  0
  1 40  1  0
  2  5  1  0
  2 30  1  0
  2  3  1  0
  3  4  1  0
  4 37  1  0
  4  5  1  0
  4 41  1  6
  5  6  2  3
  6  7  1  0
  6 42  1  0
  7  9  1  0
  7  8  1  0
  7 43  1  6
  8  9  1  0
  9 10  1  0
  9 44  1  1
 10 27  1  0
 10 34  1  1
 10 11  1  0
 11 12  1  0
 11 45  1  0
 11 46  1  0
 12 13  1  0
 13 14  1  0
 13 15  1  0
 13 47  1  1
 14 48  1  0
 15 22  1  0
 15 24  1  0
 15 16  1  6
 16 17  1  0
 17 18  1  6
 17 19  1  0
 17 27  1  0
 18 49  1  0
 19 20  1  0
 19 50  1  0
 19 51  1  0
 20 21  1  0
 21 22  1  0
 21 24  1  0
 21 52  1  1
 22 23  1  0
 22 53  1  1
 23 54  1  0
 24 25  1  0
 24 26  1  6
 25 55  1  0
 25 56  1  0
 25 57  1  0
 26 58  1  0
 27 28  1  6
 27 29  1  0
 28 59  1  0
 29 35  1  0
 29 30  1  0
 29 60  1  6
 30 31  1  0
 30 61  1  6
 31 32  1  0
 32 33  1  1
 32 34  1  0
 32 35  1  0
 33 62  1  0
 35 37  1  0
 35 36  1  1
 36 37  1  0
 37 63  1  6
M  END
>  <i_m_ct_stereo_status>  (165) 
1

>  <s_m_source_file>  (165) 
/var/tmp/pbs.5076253.sched01/tmp4uievzq0/12082cxahoa.sdf

>  <i_m_source_file_index>  (165) 
22

>  <i_lp_mmshare_version>  (165) 
48012

>  <i_f3d_flags>  (165) 
2

>  <s_epik_input>  (165) 
W0NAQF0xMjNbQ0BIXTRbQ0BIXShPNCkvW0NIXT1DNVxbQ0BAXTYoW0NIM10pW0NASF03W0NIXShDOChbQ0BAXShPNykoTzMpW09IXSlbQ0BIXShPOClbQ0BASF01TzYpW0NAXTIoW09IXSlbQ0BdOShbT0hdKU9bQ0BdMihbQ0BIXShbT0hdKU9bQ0gyXTEpW0NASF0oW09IXSlbQ0BIXShPW0NIMl05KVtDQF0yKFtDSDNdKVtPSF0=

>  <s_epik_cmdline>  (165) 
J2VwaWtfcHl0aG9uJywgJy1waHQnLCAnMi4wJywgJy1waCcsICc3LjAnLCAnLXRuJywgJzgnLCAnLW1hJywgJzIwMCcsICctaW1hZScsICc8aW5maWxlLm1hZT4nLCAnLW9tYWUnLCAnPG91dGZpbGUubWFlPic=

>  <r_epik_Ionization_Penalty>  (165) 
0.0160615

>  <r_epik_Ionization_Penalty_Charging>  (165) 
0

>  <r_epik_Ionization_Penalty_Neutral>  (165) 
0.0160615

>  <r_epik_State_Penalty>  (165) 
0.0123916

>  <r_epik_Charging_Adjusted_Penalty>  (165) 
0.0123916

>  <i_epik_Tot_Q>  (165) 
0

>  <i_epik_Tot_abs_Q>  (165) 
0

>  <s_epik_Chemistry_Notes>  (165) 
This compound contains an acetal/aminal-like group ( X-CH(R)-Y where X, Y are N, S, or O) that may be acid/base labile, releasing an aldehyde.

>  <s_lp_Force_Field>  (165) 
OPLS3e

>  <r_lp_Energy>  (165) 
319.65

>  <b_lp_Chiralities_Consistent>  (165) 
0

>  <s_lp_Variant>  (165) 
95:0-2

>  <s_i_glide_gridfile>  (165) 
pfpi4k_grid

>  <i_i_glide_lignum>  (165) 
22

>  <i_i_glide_rotatable_bonds>  (165) 
6

>  <r_i_docking_score>  (165) 
-2.73321

>  <r_i_glide_ligand_efficiency>  (165) 
-0.0738706

>  <r_i_glide_ligand_efficiency_sa>  (165) 
-0.246153

>  <r_i_glide_ligand_efficiency_ln>  (165) 
-0.59277

>  <r_i_glide_gscore>  (165) 
-2.73321

>  <r_i_glide_lipo>  (165) 
-0.270162

>  <r_i_glide_hbond>  (165) 
0

>  <r_i_glide_metal>  (165) 
-0

>  <r_i_glide_rewards>  (165) 
-0.5

>  <r_i_glide_evdw>  (165) 
-16.7009

>  <r_i_glide_ecoul>  (165) 
-7.30318

>  <r_i_glide_erotb>  (165) 
0

>  <r_i_glide_esite>  (165) 
-0.0325299

>  <r_i_glide_emodel>  (165) 
-32.646

>  <r_i_glide_energy>  (165) 
-24.0041

>  <r_i_glide_einternal>  (165) 
4.25192

>  <r_i_glide_intrahb_reward>  (165) 
-0.5

>  <i_i_glide_confnum>  (165) 
2

>  <i_i_glide_posenum>  (165) 
13

>  <r_i_glide_eff_state_penalty>  (165) 
0

>  <ligand_id>  (165) 
95

>  <original_smiles>  (165) 
CC12OC3C1=CC1OC1C14COC(O)C56OC(O)(COC(C5O)C6(C)O)C1(O)C1C2OC(O)(O4)C12OC32

>  <smiles>  (165) 
[H]OC1([H])OC([H])([H])C23OC4(O[H])OC5([H])C6(C([H])([H])[H])OC([H])(C6=C([H])C6([H])OC62[H])C2([H])OC42C5([H])C3(O[H])C2(O[H])OC13C([H])(O[H])C([H])(OC2([H])[H])C3(O[H])C([H])([H])[H]

$$$$
95:2:0
     RDKit          3D

 62 71  0  0  1  0  0  0  0  0999 V2000
    1.3047  -11.0992    3.2020 C   0  0  0  0  0  0  0  0  0  0  0  0
    1.2916   -9.7245    3.8742 C   0  0  1  0  0  0  0  0  0  0  0  0
    0.2648   -9.6142    4.9038 O   0  0  0  0  0  0  0  0  0  0  0  0
    1.1597   -8.7930    5.6794 C   0  0  1  0  0  0  0  0  0  0  0  0
    2.3278   -9.4311    4.8490 C   0  0  0  0  0  0  0  0  0  0  0  0
    3.6482   -9.1379    4.5763 C   0  0  0  0  0  0  0  0  0  0  0  0
    4.2148   -9.1710    3.1473 C   0  0  2  0  0  0  0  0  0  0  0  0
    5.1766   -8.1754    2.7631 O   0  0  0  0  0  0  0  0  0  0  0  0
    3.9886   -8.1463    1.9375 C   0  0  2  0  0  0  0  0  0  0  0  0
    3.1677   -6.7364    1.7408 C   0  0  2  0  0  0  0  0  0  0  0  0
    3.9302   -6.0586    0.5580 C   0  0  0  0  0  0  0  0  0  0  0  0
    3.1337   -5.1527   -0.2048 O   0  0  0  0  0  0  0  0  0  0  0  0
    3.6354   -3.8685   -0.3793 C   0  0  1  0  0  0  0  0  0  0  0  0
    2.8476   -3.1273   -1.2871 O   0  0  0  0  0  0  0  0  0  0  0  0
    3.6418   -3.2082    1.0028 C   0  0  1  0  0  0  0  0  0  0  0  0
    2.6113   -3.8653    1.7643 O   0  0  0  0  0  0  0  0  0  0  0  0
    2.6479   -4.3698    3.0671 C   0  0  2  0  0  0  0  0  0  0  0  0
    1.3686   -4.0888    3.5654 O   0  0  0  0  0  0  0  0  0  0  0  0
    3.5122   -3.4463    4.0101 C   0  0  0  0  0  0  0  0  0  0  0  0
    3.5399   -2.0985    3.5668 O   0  0  0  0  0  0  0  0  0  0  0  0
    4.3334   -1.7688    2.4217 C   0  0  1  0  0  0  0  0  0  0  0  0
    5.0010   -2.9040    1.6481 C   0  0  1  0  0  0  0  0  0  0  0  0
    5.8083   -3.8885    2.2525 O   0  0  0  0  0  0  0  0  0  0  0  0
    3.3852   -1.6708    1.2037 C   0  0  1  0  0  0  0  0  0  0  0  0
    3.7943   -0.6741    0.1049 C   0  0  0  0  0  0  0  0  0  0  0  0
    2.0648   -1.2675    1.5255 O   0  0  0  0  0  0  0  0  0  0  0  0
    3.0331   -5.9900    3.0730 C   0  0  2  0  0  0  0  0  0  0  0  0
    4.2789   -6.0773    3.7605 O   0  0  0  0  0  0  0  0  0  0  0  0
    2.0066   -7.0555    3.7125 C   0  0  2  0  0  0  0  0  0  0  0  0
    1.4564   -8.5125    2.9889 C   0  0  2  0  0  0  0  0  0  0  0  0
    0.2884   -8.2327    2.3010 O   0  0  0  0  0  0  0  0  0  0  0  0
    0.5451   -6.9194    2.2689 C   0  0  2  0  0  0  0  0  0  0  0  0
   -0.4704   -6.2589    1.7771 O   0  0  0  0  0  0  0  0  0  0  0  0
    1.7147   -6.6911    1.3622 O   0  0  0  0  0  0  0  0  0  0  0  0
    0.6628   -6.5952    3.8362 C   0  0  2  0  0  0  0  0  0  0  0  0
   -0.5142   -7.2494    4.4351 O   0  0  0  0  0  0  0  0  0  0  0  0
    0.5676   -7.3426    5.2919 C   0  0  1  0  0  0  0  0  0  0  0  0
    2.1760  -11.2299    2.5565 H   0  0  0  0  0  0  0  0  0  0  0  0
    0.4244  -11.2032    2.5633 H   0  0  0  0  0  0  0  0  0  0  0  0
    1.2890  -11.9323    3.9122 H   0  0  0  0  0  0  0  0  0  0  0  0
    1.1270   -9.0336    6.7404 H   0  0  0  0  0  0  0  0  0  0  0  0
    4.2466   -8.6312    5.3111 H   0  0  0  0  0  0  0  0  0  0  0  0
    4.5172  -10.1777    2.8785 H   0  0  0  0  0  0  0  0  0  0  0  0
    4.0955   -8.6717    0.9919 H   0  0  0  0  0  0  0  0  0  0  0  0
    4.8927   -5.6670    0.8702 H   0  0  0  0  0  0  0  0  0  0  0  0
    4.2017   -6.8251   -0.1699 H   0  0  0  0  0  0  0  0  0  0  0  0
    4.6308   -3.9239   -0.8288 H   0  0  0  0  0  0  0  0  0  0  0  0
    2.1838   -2.6490   -0.8048 H   0  0  0  0  0  0  0  0  0  0  0  0
    1.2682   -3.1481    3.5229 H   0  0  0  0  0  0  0  0  0  0  0  0
    3.0529   -3.4354    4.9981 H   0  0  0  0  0  0  0  0  0  0  0  0
    4.5188   -3.7871    4.2263 H   0  0  0  0  0  0  0  0  0  0  0  0
    4.9458   -0.8727    2.5254 H   0  0  0  0  0  0  0  0  0  0  0  0
    5.6443   -2.4606    0.8892 H   0  0  0  0  0  0  0  0  0  0  0  0
    5.2743   -4.3327    2.9008 H   0  0  0  0  0  0  0  0  0  0  0  0
    4.7584   -0.9109   -0.3415 H   0  0  0  0  0  0  0  0  0  0  0  0
    3.8566    0.3410    0.4974 H   0  0  0  0  0  0  0  0  0  0  0  0
    3.0772   -0.6532   -0.7177 H   0  0  0  0  0  0  0  0  0  0  0  0
    1.6070   -1.0804    0.7051 H   0  0  0  0  0  0  0  0  0  0  0  0
    4.6059   -6.9681    3.6710 H   0  0  0  0  0  0  0  0  0  0  0  0
    2.5303   -7.0282    4.6731 H   0  0  0  0  0  0  0  0  0  0  0  0
    1.9264   -8.9284    2.1143 H   0  0  0  0  0  0  0  0  0  0  0  0
    0.4575   -6.6992    6.1625 H   0  0  0  0  0  0  0  0  0  0  0  0
  2  1  1  6
  1 38  1  0
  1 39  1  0
  1 40  1  0
  2  5  1  0
  2 30  1  0
  2  3  1  0
  3  4  1  0
  4 37  1  0
  4  5  1  0
  4 41  1  1
  5  6  2  3
  6  7  1  0
  6 42  1  0
  7  9  1  0
  7  8  1  0
  7 43  1  6
  8  9  1  0
  9 10  1  0
  9 44  1  6
 10 27  1  0
 10 34  1  6
 10 11  1  0
 11 12  1  0
 11 45  1  0
 11 46  1  0
 12 13  1  0
 13 14  1  0
 13 15  1  0
 13 47  1  6
 14 48  1  0
 15 22  1  0
 15 24  1  0
 15 16  1  1
 16 17  1  0
 17 18  1  1
 17 19  1  0
 17 27  1  0
 18 49  1  0
 19 20  1  0
 19 50  1  0
 19 51  1  0
 20 21  1  0
 21 22  1  0
 21 24  1  0
 21 52  1  1
 22 23  1  0
 22 53  1  6
 23 54  1  0
 24 25  1  0
 24 26  1  1
 25 55  1  0
 25 56  1  0
 25 57  1  0
 26 58  1  0
 27 28  1  1
 27 29  1  0
 28 59  1  0
 29 35  1  0
 29 30  1  0
 29 60  1  1
 30 31  1  0
 30 61  1  6
 31 32  1  0
 32 33  1  6
 32 34  1  0
 32 35  1  0
 35 37  1  0
 35 36  1  1
 36 37  1  0
 37 62  1  1
M  CHG  1  33  -1
M  END
>  <i_m_ct_stereo_status>  (166) 
1

>  <s_m_source_file>  (166) 
/var/tmp/pbs.5076253.sched01/tmp4uievzq0/12082cxahoa.sdf

>  <i_m_source_file_index>  (166) 
23

>  <i_lp_mmshare_version>  (166) 
48012

>  <i_f3d_flags>  (166) 
2

>  <s_epik_input>  (166) 
W0NAQF0xMjNbQ0BIXTRbQ0BIXShPNCkvW0NIXT1DNVxbQ0BAXTYoW0NIM10pW0NASF03W0NIXShDOChbQ0BAXShPNykoTzMpW09IXSlbQ0BIXShPOClbQ0BASF01TzYpW0NAXTIoW09IXSlbQ0BdOShbT0hdKU9bQ0BdMihbQ0BIXShbT0hdKU9bQ0gyXTEpW0NASF0oW09IXSlbQ0BIXShPW0NIMl05KVtDQF0yKFtDSDNdKVtPSF0=

>  <s_epik_cmdline>  (166) 
J2VwaWtfcHl0aG9uJywgJy1waHQnLCAnMi4wJywgJy1waCcsICc3LjAnLCAnLXRuJywgJzgnLCAnLW1hJywgJzIwMCcsICctaW1hZScsICc8aW5maWxlLm1hZT4nLCAnLW9tYWUnLCAnPG91dGZpbGUubWFlPic=

>  <r_epik_Ionization_Penalty>  (166) 
2.1573

>  <r_epik_Ionization_Penalty_Charging>  (166) 
2.15722

>  <r_epik_Ionization_Penalty_Neutral>  (166) 
8.72671e-05

>  <r_epik_State_Penalty>  (166) 
2.29751

>  <r_epik_Charging_Adjusted_Penalty>  (166) 
4.45473

>  <i_epik_Tot_Q>  (166) 
-1

>  <i_epik_Tot_abs_Q>  (166) 
1

>  <s_epik_Chemistry_Notes>  (166) 
This compound contains an acetal/aminal-like group ( X-CH(R)-Y where X, Y are N, S, or O) that may be acid/base labile, releasing an aldehyde.

>  <s_lp_Force_Field>  (166) 
OPLS3e

>  <r_lp_Energy>  (166) 
332.656

>  <b_lp_Chiralities_Consistent>  (166) 
0

>  <s_lp_Variant>  (166) 
95:0-3

>  <s_i_glide_gridfile>  (166) 
pfpi4k_grid

>  <i_i_glide_lignum>  (166) 
23

>  <i_i_glide_rotatable_bonds>  (166) 
5

>  <r_i_docking_score>  (166) 
-4.15971

>  <r_i_glide_ligand_efficiency>  (166) 
-0.112425

>  <r_i_glide_ligand_efficiency_sa>  (166) 
-0.374624

>  <r_i_glide_ligand_efficiency_ln>  (166) 
-0.902144

>  <r_i_glide_gscore>  (166) 
-4.15971

>  <r_i_glide_lipo>  (166) 
-0.362686

>  <r_i_glide_hbond>  (166) 
-0.339449

>  <r_i_glide_metal>  (166) 
-0

>  <r_i_glide_rewards>  (166) 
-1

>  <r_i_glide_evdw>  (166) 
-20.2761

>  <r_i_glide_ecoul>  (166) 
-9.09707

>  <r_i_glide_erotb>  (166) 
0

>  <r_i_glide_esite>  (166) 
-0.0792076

>  <r_i_glide_emodel>  (166) 
-50.5688

>  <r_i_glide_energy>  (166) 
-29.3732

>  <r_i_glide_einternal>  (166) 
2.07535

>  <r_i_glide_intrahb_reward>  (166) 
-1

>  <i_i_glide_confnum>  (166) 
2

>  <i_i_glide_posenum>  (166) 
5

>  <r_i_glide_eff_state_penalty>  (166) 
0

>  <ligand_id>  (166) 
95

>  <original_smiles>  (166) 
CC12OC3C1=CC1OC1C14COC(O)C56OC(O)(COC(C5O)C6(C)O)C1(O)C1C2OC(O)(O4)C12OC32

>  <smiles>  (166) 
[H]OC1([H])OC([H])([H])C23OC4([O-])OC5([H])C6(C([H])([H])[H])OC([H])(C6=C([H])C6([H])OC62[H])C2([H])OC42C5([H])C3(O[H])C2(O[H])OC13C([H])(O[H])C([H])(OC2([H])[H])C3(O[H])C([H])([H])[H]

$$$$
95:2:1
     RDKit          3D

 62 71  0  0  1  0  0  0  0  0999 V2000
    1.2550  -11.1111    3.1731 C   0  0  0  0  0  0  0  0  0  0  0  0
    1.2277   -9.7467    3.8610 C   0  0  1  0  0  0  0  0  0  0  0  0
    0.1816   -9.6466    4.8631 O   0  0  0  0  0  0  0  0  0  0  0  0
    1.0513   -8.8439    5.6781 C   0  0  1  0  0  0  0  0  0  0  0  0
    2.2337   -9.4679    4.8666 C   0  0  0  0  0  0  0  0  0  0  0  0
    3.5579   -9.1665    4.6335 C   0  0  0  0  0  0  0  0  0  0  0  0
    4.1616   -9.1770    3.2250 C   0  0  2  0  0  0  0  0  0  0  0  0
    5.1354   -8.1734    2.8783 O   0  0  0  0  0  0  0  0  0  0  0  0
    3.9645   -8.1318    2.0256 C   0  0  2  0  0  0  0  0  0  0  0  0
    3.1502   -6.7240    1.8379 C   0  0  2  0  0  0  0  0  0  0  0  0
    3.9366   -6.0257    0.6847 C   0  0  0  0  0  0  0  0  0  0  0  0
    3.1563   -5.1109   -0.0849 O   0  0  0  0  0  0  0  0  0  0  0  0
    3.6635   -3.8251   -0.2249 C   0  0  1  0  0  0  0  0  0  0  0  0
    2.9031   -3.0661   -1.1477 O   0  0  0  0  0  0  0  0  0  0  0  0
    3.6372   -3.1870    1.1709 C   0  0  1  0  0  0  0  0  0  0  0  0
    2.5864   -3.8536    1.8932 O   0  0  0  0  0  0  0  0  0  0  0  0
    2.5937   -4.3836    3.1857 C   0  0  2  0  0  0  0  0  0  0  0  0
    1.2991   -4.1067    3.6559 O   0  0  0  0  0  0  0  0  0  0  0  0
    3.4328   -3.4783    4.1581 C   0  0  0  0  0  0  0  0  0  0  0  0
    3.4475   -2.1238    3.7367 O   0  0  0  0  0  0  0  0  0  0  0  0
    4.2782   -1.7674    2.6272 C   0  0  1  0  0  0  0  0  0  0  0  0
    4.9869   -2.8847    1.8541 C   0  0  1  0  0  0  0  0  0  0  0  0
    5.8052   -3.8553    2.4750 O   0  0  0  0  0  0  0  0  0  0  0  0
    3.3668   -1.6567    1.3877 C   0  0  1  0  0  0  0  0  0  0  0  0
    3.8023   -0.6476    0.3145 C   0  0  0  0  0  0  0  0  0  0  0  0
    2.0270   -1.2534    1.6476 O   0  0  0  0  0  0  0  0  0  0  0  0
    2.9772   -6.0032    3.1798 C   0  0  2  0  0  0  0  0  0  0  0  0
    4.1883   -6.1300    3.9266 O   0  0  0  0  0  0  0  0  0  0  0  0
    1.9324   -7.0760    3.7676 C   0  0  2  0  0  0  0  0  0  0  0  0
    1.4064   -8.5210    3.0051 C   0  0  2  0  0  0  0  0  0  0  0  0
    0.2565   -8.2412    2.2920 O   0  0  0  0  0  0  0  0  0  0  0  0
    0.5133   -6.9235    2.2880 C   0  0  2  0  0  0  0  0  0  0  0  0
   -0.4902   -6.2638    1.7835 O   0  0  0  0  0  0  0  0  0  0  0  0
    1.7088   -6.6782    1.4154 O   0  0  0  0  0  0  0  0  0  0  0  0
    0.5893   -6.6206    3.8655 C   0  0  2  0  0  0  0  0  0  0  0  0
   -0.6033   -7.2863    4.4193 O   0  0  0  0  0  0  0  0  0  0  0  0
    0.4525   -7.3972    5.3026 C   0  0  1  0  0  0  0  0  0  0  0  0
    2.1427  -11.2249    2.5514 H   0  0  0  0  0  0  0  0  0  0  0  0
    0.3933  -11.2047    2.5106 H   0  0  0  0  0  0  0  0  0  0  0  0
    1.2224  -11.9542    3.8696 H   0  0  0  0  0  0  0  0  0  0  0  0
    0.9892   -9.1137    6.7288 H   0  0  0  0  0  0  0  0  0  0  0  0
    4.1371   -8.6790    5.3924 H   0  0  0  0  0  0  0  0  0  0  0  0
    4.4698  -10.1772    2.9500 H   0  0  0  0  0  0  0  0  0  0  0  0
    4.0944   -8.6414    1.0762 H   0  0  0  0  0  0  0  0  0  0  0  0
    4.8898   -5.6352    1.0288 H   0  0  0  0  0  0  0  0  0  0  0  0
    4.2217   -6.7808   -0.0505 H   0  0  0  0  0  0  0  0  0  0  0  0
    4.6702   -3.8726   -0.6520 H   0  0  0  0  0  0  0  0  0  0  0  0
    2.2142   -2.6034   -0.6901 H   0  0  0  0  0  0  0  0  0  0  0  0
    1.1883   -3.1706    3.5921 H   0  0  0  0  0  0  0  0  0  0  0  0
    2.9506   -3.4846    5.1343 H   0  0  0  0  0  0  0  0  0  0  0  0
    4.4355   -3.8223    4.3901 H   0  0  0  0  0  0  0  0  0  0  0  0
    4.8906   -0.8732    2.7576 H   0  0  0  0  0  0  0  0  0  0  0  0
    5.6375   -2.4214    1.1159 H   0  0  0  0  0  0  0  0  0  0  0  0
    6.1547   -4.4129    1.7998 H   0  0  0  0  0  0  0  0  0  0  0  0
    4.7853   -0.8648   -0.1044 H   0  0  0  0  0  0  0  0  0  0  0  0
    3.8369    0.3680    0.7078 H   0  0  0  0  0  0  0  0  0  0  0  0
    3.1100   -0.6548   -0.5260 H   0  0  0  0  0  0  0  0  0  0  0  0
    1.6188   -1.0773    0.8116 H   0  0  0  0  0  0  0  0  0  0  0  0
    4.5417   -7.0021    3.7796 H   0  0  0  0  0  0  0  0  0  0  0  0
    2.4271   -7.0605    4.7420 H   0  0  0  0  0  0  0  0  0  0  0  0
    1.8997   -8.9176    2.1375 H   0  0  0  0  0  0  0  0  0  0  0  0
    0.3302   -6.7674    6.1739 H   0  0  0  0  0  0  0  0  0  0  0  0
  2  1  1  6
  1 38  1  0
  1 39  1  0
  1 40  1  0
  2  5  1  0
  2 30  1  0
  2  3  1  0
  3  4  1  0
  4 37  1  0
  4  5  1  0
  4 41  1  1
  5  6  2  3
  6  7  1  0
  6 42  1  0
  7  9  1  0
  7  8  1  0
  7 43  1  6
  8  9  1  0
  9 10  1  0
  9 44  1  6
 10 27  1  0
 10 34  1  6
 10 11  1  0
 11 12  1  0
 11 45  1  0
 11 46  1  0
 12 13  1  0
 13 14  1  0
 13 15  1  0
 13 47  1  6
 14 48  1  0
 15 22  1  0
 15 24  1  0
 15 16  1  1
 16 17  1  0
 17 18  1  1
 17 19  1  0
 17 27  1  0
 18 49  1  0
 19 20  1  0
 19 50  1  0
 19 51  1  0
 20 21  1  0
 21 22  1  0
 21 24  1  0
 21 52  1  1
 22 23  1  0
 22 53  1  6
 23 54  1  0
 24 25  1  0
 24 26  1  1
 25 55  1  0
 25 56  1  0
 25 57  1  0
 26 58  1  0
 27 28  1  1
 27 29  1  0
 28 59  1  0
 29 35  1  0
 29 30  1  0
 29 60  1  1
 30 31  1  0
 30 61  1  6
 31 32  1  0
 32 33  1  6
 32 34  1  0
 32 35  1  0
 35 37  1  0
 35 36  1  1
 36 37  1  0
 37 62  1  1
M  CHG  1  33  -1
M  END
>  <i_m_ct_stereo_status>  (167) 
1

>  <s_m_source_file>  (167) 
/var/tmp/pbs.5076253.sched01/tmp4uievzq0/12082cxahoa.sdf

>  <i_m_source_file_index>  (167) 
23

>  <i_lp_mmshare_version>  (167) 
48012

>  <i_f3d_flags>  (167) 
2

>  <s_epik_input>  (167) 
W0NAQF0xMjNbQ0BIXTRbQ0BIXShPNCkvW0NIXT1DNVxbQ0BAXTYoW0NIM10pW0NASF03W0NIXShDOChbQ0BAXShPNykoTzMpW09IXSlbQ0BIXShPOClbQ0BASF01TzYpW0NAXTIoW09IXSlbQ0BdOShbT0hdKU9bQ0BdMihbQ0BIXShbT0hdKU9bQ0gyXTEpW0NASF0oW09IXSlbQ0BIXShPW0NIMl05KVtDQF0yKFtDSDNdKVtPSF0=

>  <s_epik_cmdline>  (167) 
J2VwaWtfcHl0aG9uJywgJy1waHQnLCAnMi4wJywgJy1waCcsICc3LjAnLCAnLXRuJywgJzgnLCAnLW1hJywgJzIwMCcsICctaW1hZScsICc8aW5maWxlLm1hZT4nLCAnLW9tYWUnLCAnPG91dGZpbGUubWFlPic=

>  <r_epik_Ionization_Penalty>  (167) 
2.1573

>  <r_epik_Ionization_Penalty_Charging>  (167) 
2.15722

>  <r_epik_Ionization_Penalty_Neutral>  (167) 
8.72671e-05

>  <r_epik_State_Penalty>  (167) 
2.29751

>  <r_epik_Charging_Adjusted_Penalty>  (167) 
4.45473

>  <i_epik_Tot_Q>  (167) 
-1

>  <i_epik_Tot_abs_Q>  (167) 
1

>  <s_epik_Chemistry_Notes>  (167) 
This compound contains an acetal/aminal-like group ( X-CH(R)-Y where X, Y are N, S, or O) that may be acid/base labile, releasing an aldehyde.

>  <s_lp_Force_Field>  (167) 
OPLS3e

>  <r_lp_Energy>  (167) 
332.656

>  <b_lp_Chiralities_Consistent>  (167) 
0

>  <s_lp_Variant>  (167) 
95:0-3

>  <s_i_glide_gridfile>  (167) 
pfpi4k_grid

>  <i_i_glide_lignum>  (167) 
23

>  <i_i_glide_rotatable_bonds>  (167) 
5

>  <r_i_docking_score>  (167) 
-3.63668

>  <r_i_glide_ligand_efficiency>  (167) 
-0.0982888

>  <r_i_glide_ligand_efficiency_sa>  (167) 
-0.32752

>  <r_i_glide_ligand_efficiency_ln>  (167) 
-0.788711

>  <r_i_glide_gscore>  (167) 
-3.63668

>  <r_i_glide_lipo>  (167) 
-0.35018

>  <r_i_glide_hbond>  (167) 
-0.33786

>  <r_i_glide_metal>  (167) 
-0

>  <r_i_glide_rewards>  (167) 
-0.5

>  <r_i_glide_evdw>  (167) 
-21.4486

>  <r_i_glide_ecoul>  (167) 
-8.66722

>  <r_i_glide_erotb>  (167) 
0

>  <r_i_glide_esite>  (167) 
-0.0761297

>  <r_i_glide_emodel>  (167) 
-44.0355

>  <r_i_glide_energy>  (167) 
-30.1159

>  <r_i_glide_einternal>  (167) 
3.3612

>  <r_i_glide_intrahb_reward>  (167) 
-0.5

>  <i_i_glide_confnum>  (167) 
2

>  <i_i_glide_posenum>  (167) 
16

>  <r_i_glide_eff_state_penalty>  (167) 
0

>  <ligand_id>  (167) 
95

>  <original_smiles>  (167) 
CC12OC3C1=CC1OC1C14COC(O)C56OC(O)(COC(C5O)C6(C)O)C1(O)C1C2OC(O)(O4)C12OC32

>  <smiles>  (167) 
[H]OC1([H])OC([H])([H])C23OC4([O-])OC5([H])C6(C([H])([H])[H])OC([H])(C6=C([H])C6([H])OC62[H])C2([H])OC42C5([H])C3(O[H])C2(O[H])OC13C([H])(O[H])C([H])(OC2([H])[H])C3(O[H])C([H])([H])[H]

$$$$
95:2:2
     RDKit          3D

 62 71  0  0  1  0  0  0  0  0999 V2000
    0.5456   -9.4540    7.8174 C   0  0  0  0  0  0  0  0  0  0  0  0
    1.3443   -8.1624    7.6470 C   0  0  1  0  0  0  0  0  0  0  0  0
    1.1408   -7.2400    8.7617 O   0  0  0  0  0  0  0  0  0  0  0  0
    2.5223   -6.8257    8.6340 C   0  0  1  0  0  0  0  0  0  0  0  0
    2.7823   -8.2045    7.9043 C   0  0  0  0  0  0  0  0  0  0  0  0
    3.7425   -8.7468    7.0871 C   0  0  0  0  0  0  0  0  0  0  0  0
    3.3909   -9.5027    5.7881 C   0  0  2  0  0  0  0  0  0  0  0  0
    4.2377   -9.3627    4.6308 O   0  0  0  0  0  0  0  0  0  0  0  0
    2.8807   -8.9143    4.3859 C   0  0  2  0  0  0  0  0  0  0  0  0
    2.5832   -7.4064    3.7932 C   0  0  2  0  0  0  0  0  0  0  0  0
    2.7469   -7.6290    2.2525 C   0  0  0  0  0  0  0  0  0  0  0  0
    1.9889   -6.7546    1.4244 O   0  0  0  0  0  0  0  0  0  0  0  0
    2.7082   -5.9992    0.5011 C   0  0  1  0  0  0  0  0  0  0  0  0
    1.8165   -5.2668   -0.3110 O   0  0  0  0  0  0  0  0  0  0  0  0
    3.6747   -5.0713    1.2384 C   0  0  1  0  0  0  0  0  0  0  0  0
    3.0822   -4.8368    2.5257 O   0  0  0  0  0  0  0  0  0  0  0  0
    3.6659   -4.8638    3.7905 C   0  0  2  0  0  0  0  0  0  0  0  0
    3.0370   -3.8119    4.4770 O   0  0  0  0  0  0  0  0  0  0  0  0
    5.1453   -4.3135    3.7559 C   0  0  0  0  0  0  0  0  0  0  0  0
    5.3486   -3.3841    2.7012 O   0  0  0  0  0  0  0  0  0  0  0  0
    5.4459   -3.8856    1.3649 C   0  0  1  0  0  0  0  0  0  0  0  0
    5.1837   -5.3765    1.1200 C   0  0  1  0  0  0  0  0  0  0  0  0
    5.8339   -6.4069    1.8436 O   0  0  0  0  0  0  0  0  0  0  0  0
    4.0768   -3.6568    0.6810 C   0  0  1  0  0  0  0  0  0  0  0  0
    4.1131   -3.4007   -0.8406 C   0  0  0  0  0  0  0  0  0  0  0  0
    3.3612   -2.5316    1.1651 O   0  0  0  0  0  0  0  0  0  0  0  0
    3.4482   -6.3528    4.4972 C   0  0  2  0  0  0  0  0  0  0  0  0
    4.7566   -6.8826    4.6400 O   0  0  0  0  0  0  0  0  0  0  0  0
    2.6701   -6.4673    5.9011 C   0  0  2  0  0  0  0  0  0  0  0  0
    1.3899   -7.5517    6.2689 C   0  0  2  0  0  0  0  0  0  0  0  0
    0.1969   -6.9121    5.9944 O   0  0  0  0  0  0  0  0  0  0  0  0
    0.7807   -5.9962    5.2134 C   0  0  2  0  0  0  0  0  0  0  0  0
   -0.0734   -5.0641    4.8875 O   0  0  0  0  0  0  0  0  0  0  0  0
    1.2669   -6.6866    3.9700 O   0  0  0  0  0  0  0  0  0  0  0  0
    1.8336   -5.3523    6.2219 C   0  0  2  0  0  0  0  0  0  0  0  0
    1.0492   -5.0813    7.4417 O   0  0  0  0  0  0  0  0  0  0  0  0
    2.3247   -5.4723    7.7811 C   0  0  1  0  0  0  0  0  0  0  0  0
    0.8232  -10.2054    7.0768 H   0  0  0  0  0  0  0  0  0  0  0  0
   -0.5178   -9.2541    7.6744 H   0  0  0  0  0  0  0  0  0  0  0  0
    0.6676   -9.9019    8.8060 H   0  0  0  0  0  0  0  0  0  0  0  0
    3.0091   -6.6881    9.5990 H   0  0  0  0  0  0  0  0  0  0  0  0
    4.7713   -8.4391    7.1918 H   0  0  0  0  0  0  0  0  0  0  0  0
    3.1454  -10.5336    6.0113 H   0  0  0  0  0  0  0  0  0  0  0  0
    2.2705   -9.6570    3.8811 H   0  0  0  0  0  0  0  0  0  0  0  0
    3.7891   -7.7329    1.9600 H   0  0  0  0  0  0  0  0  0  0  0  0
    2.3216   -8.5999    1.9949 H   0  0  0  0  0  0  0  0  0  0  0  0
    3.2658   -6.6574   -0.1564 H   0  0  0  0  0  0  0  0  0  0  0  0
    2.1279   -5.3294   -1.2178 H   0  0  0  0  0  0  0  0  0  0  0  0
    3.2305   -3.0282    3.9843 H   0  0  0  0  0  0  0  0  0  0  0  0
    5.3366   -3.7753    4.6841 H   0  0  0  0  0  0  0  0  0  0  0  0
    5.9376   -5.0566    3.7553 H   0  0  0  0  0  0  0  0  0  0  0  0
    6.2661   -3.4669    0.7808 H   0  0  0  0  0  0  0  0  0  0  0  0
    5.4192   -5.5885    0.0751 H   0  0  0  0  0  0  0  0  0  0  0  0
    5.5557   -7.2287    1.4701 H   0  0  0  0  0  0  0  0  0  0  0  0
    4.5423   -4.2319   -1.3988 H   0  0  0  0  0  0  0  0  0  0  0  0
    4.7026   -2.5151   -1.0805 H   0  0  0  0  0  0  0  0  0  0  0  0
    3.1175   -3.2334   -1.2560 H   0  0  0  0  0  0  0  0  0  0  0  0
    2.7068   -2.3072    0.5252 H   0  0  0  0  0  0  0  0  0  0  0  0
    5.1345   -6.9653    3.7756 H   0  0  0  0  0  0  0  0  0  0  0  0
    3.6095   -6.4467    6.4641 H   0  0  0  0  0  0  0  0  0  0  0  0
    1.1396   -8.3863    5.6346 H   0  0  0  0  0  0  0  0  0  0  0  0
    2.9192   -4.6464    8.1672 H   0  0  0  0  0  0  0  0  0  0  0  0
  2  1  1  6
  1 38  1  0
  1 39  1  0
  1 40  1  0
  2  5  1  0
  2 30  1  0
  2  3  1  0
  3  4  1  0
  4 37  1  0
  4  5  1  0
  4 41  1  1
  5  6  2  3
  6  7  1  0
  6 42  1  0
  7  9  1  0
  7  8  1  0
  7 43  1  1
  8  9  1  0
  9 10  1  0
  9 44  1  6
 10 27  1  0
 10 34  1  6
 10 11  1  0
 11 12  1  0
 11 45  1  0
 11 46  1  0
 12 13  1  0
 13 14  1  0
 13 15  1  0
 13 47  1  6
 14 48  1  0
 15 22  1  0
 15 24  1  0
 15 16  1  1
 16 17  1  0
 17 18  1  1
 17 19  1  0
 17 27  1  0
 18 49  1  0
 19 20  1  0
 19 50  1  0
 19 51  1  0
 20 21  1  0
 21 22  1  0
 21 24  1  0
 21 52  1  6
 22 23  1  0
 22 53  1  6
 23 54  1  0
 24 25  1  0
 24 26  1  1
 25 55  1  0
 25 56  1  0
 25 57  1  0
 26 58  1  0
 27 28  1  1
 27 29  1  0
 28 59  1  0
 29 35  1  0
 29 30  1  0
 29 60  1  1
 30 31  1  0
 30 61  1  6
 31 32  1  0
 32 33  1  6
 32 34  1  0
 32 35  1  0
 35 37  1  0
 35 36  1  6
 36 37  1  0
 37 62  1  6
M  CHG  1  33  -1
M  END
>  <i_m_ct_stereo_status>  (168) 
1

>  <s_m_source_file>  (168) 
/var/tmp/pbs.5076253.sched01/tmp4uievzq0/12082cxahoa.sdf

>  <i_m_source_file_index>  (168) 
23

>  <i_lp_mmshare_version>  (168) 
48012

>  <i_f3d_flags>  (168) 
2

>  <s_epik_input>  (168) 
W0NAQF0xMjNbQ0BIXTRbQ0BIXShPNCkvW0NIXT1DNVxbQ0BAXTYoW0NIM10pW0NASF03W0NIXShDOChbQ0BAXShPNykoTzMpW09IXSlbQ0BIXShPOClbQ0BASF01TzYpW0NAXTIoW09IXSlbQ0BdOShbT0hdKU9bQ0BdMihbQ0BIXShbT0hdKU9bQ0gyXTEpW0NASF0oW09IXSlbQ0BIXShPW0NIMl05KVtDQF0yKFtDSDNdKVtPSF0=

>  <s_epik_cmdline>  (168) 
J2VwaWtfcHl0aG9uJywgJy1waHQnLCAnMi4wJywgJy1waCcsICc3LjAnLCAnLXRuJywgJzgnLCAnLW1hJywgJzIwMCcsICctaW1hZScsICc8aW5maWxlLm1hZT4nLCAnLW9tYWUnLCAnPG91dGZpbGUubWFlPic=

>  <r_epik_Ionization_Penalty>  (168) 
2.1573

>  <r_epik_Ionization_Penalty_Charging>  (168) 
2.15722

>  <r_epik_Ionization_Penalty_Neutral>  (168) 
8.72671e-05

>  <r_epik_State_Penalty>  (168) 
2.29751

>  <r_epik_Charging_Adjusted_Penalty>  (168) 
4.45473

>  <i_epik_Tot_Q>  (168) 
-1

>  <i_epik_Tot_abs_Q>  (168) 
1

>  <s_epik_Chemistry_Notes>  (168) 
This compound contains an acetal/aminal-like group ( X-CH(R)-Y where X, Y are N, S, or O) that may be acid/base labile, releasing an aldehyde.

>  <s_lp_Force_Field>  (168) 
OPLS3e

>  <r_lp_Energy>  (168) 
332.656

>  <b_lp_Chiralities_Consistent>  (168) 
0

>  <s_lp_Variant>  (168) 
95:0-3

>  <s_i_glide_gridfile>  (168) 
pfpi4k_grid

>  <i_i_glide_lignum>  (168) 
23

>  <i_i_glide_rotatable_bonds>  (168) 
5

>  <r_i_docking_score>  (168) 
-2.69015

>  <r_i_glide_ligand_efficiency>  (168) 
-0.0727068

>  <r_i_glide_ligand_efficiency_sa>  (168) 
-0.242275

>  <r_i_glide_ligand_efficiency_ln>  (168) 
-0.583431

>  <r_i_glide_gscore>  (168) 
-2.69015

>  <r_i_glide_lipo>  (168) 
-0.169989

>  <r_i_glide_hbond>  (168) 
0

>  <r_i_glide_metal>  (168) 
-0

>  <r_i_glide_rewards>  (168) 
-0.5

>  <r_i_glide_evdw>  (168) 
-15.9955

>  <r_i_glide_ecoul>  (168) 
-7.91859

>  <r_i_glide_erotb>  (168) 
0

>  <r_i_glide_esite>  (168) 
-0.0325981

>  <r_i_glide_emodel>  (168) 
-34.8161

>  <r_i_glide_energy>  (168) 
-23.9141

>  <r_i_glide_einternal>  (168) 
4.498

>  <r_i_glide_intrahb_reward>  (168) 
-0.5

>  <i_i_glide_confnum>  (168) 
1

>  <i_i_glide_posenum>  (168) 
18

>  <r_i_glide_eff_state_penalty>  (168) 
0

>  <ligand_id>  (168) 
95

>  <original_smiles>  (168) 
CC12OC3C1=CC1OC1C14COC(O)C56OC(O)(COC(C5O)C6(C)O)C1(O)C1C2OC(O)(O4)C12OC32

>  <smiles>  (168) 
[H]OC1([H])OC([H])([H])C23OC4([O-])OC5([H])C6(C([H])([H])[H])OC([H])(C6=C([H])C6([H])OC62[H])C2([H])OC42C5([H])C3(O[H])C2(O[H])OC13C([H])(O[H])C([H])(OC2([H])[H])C3(O[H])C([H])([H])[H]

$$$$
95:3:0
     RDKit          3D

 62 71  0  0  1  0  0  0  0  0999 V2000
    1.8168   -7.1810    6.7612 C   0  0  0  0  0  0  0  0  0  0  0  0
    1.5469   -7.4442    5.2836 C   0  0  2  0  0  0  0  0  0  0  0  0
    0.2858   -8.1533    5.1401 O   0  0  0  0  0  0  0  0  0  0  0  0
    0.8956   -9.1037    4.2094 C   0  0  2  0  0  0  0  0  0  0  0  0
    2.2624   -8.7647    4.7243 C   0  0  0  0  0  0  0  0  0  0  0  0
    3.5069   -8.9225    4.1208 C   0  0  0  0  0  0  0  0  0  0  0  0
    3.9381   -8.8824    2.6198 C   0  0  2  0  0  0  0  0  0  0  0  0
    5.0603   -8.0360    2.3111 O   0  0  0  0  0  0  0  0  0  0  0  0
    3.9352   -7.7266    1.4626 C   0  0  2  0  0  0  0  0  0  0  0  0
    3.4344   -6.1498    1.3146 C   0  0  2  0  0  0  0  0  0  0  0  0
    4.2117   -5.6282    0.0553 C   0  0  0  0  0  0  0  0  0  0  0  0
    3.6198   -4.5137   -0.6139 O   0  0  0  0  0  0  0  0  0  0  0  0
    4.3753   -3.3487   -0.6963 C   0  0  1  0  0  0  0  0  0  0  0  0
    3.7090   -2.3721   -1.4552 O   0  0  0  0  0  0  0  0  0  0  0  0
    4.6041   -2.8551    0.7343 C   0  0  1  0  0  0  0  0  0  0  0  0
    3.4200   -3.2228    1.4412 O   0  0  0  0  0  0  0  0  0  0  0  0
    3.2829   -3.7858    2.6900 C   0  0  2  0  0  0  0  0  0  0  0  0
    1.9569   -3.4879    3.0114 O   0  0  0  0  0  0  0  0  0  0  0  0
    4.0569   -2.9278    3.7278 C   0  0  0  0  0  0  0  0  0  0  0  0
    5.4088   -2.6616    3.4039 O   0  0  0  0  0  0  0  0  0  0  0  0
    5.7614   -1.8791    2.2546 C   0  0  1  0  0  0  0  0  0  0  0  0
    6.0578   -2.9715    1.2586 C   0  0  1  0  0  0  0  0  0  0  0  0
    6.6330   -4.1885    1.6797 O   0  0  0  0  0  0  0  0  0  0  0  0
    4.7660   -1.3590    1.1694 C   0  0  1  0  0  0  0  0  0  0  0  0
    5.3393   -0.3580    0.1506 C   0  0  0  0  0  0  0  0  0  0  0  0
    3.6397   -0.6582    1.6588 O   0  0  0  0  0  0  0  0  0  0  0  0
    3.5756   -5.3965    2.6574 C   0  0  2  0  0  0  0  0  0  0  0  0
    4.8993   -5.6126    3.1596 O   0  0  0  0  0  0  0  0  0  0  0  0
    2.5688   -6.3941    3.3983 C   0  0  1  0  0  0  0  0  0  0  0  0
    1.5999   -6.0569    4.3968 C   0  0  1  0  0  0  0  0  0  0  0  0
    0.6703   -5.6239    3.3089 O   0  0  0  0  0  0  0  0  0  0  0  0
    0.9132   -6.1645    1.9821 C   0  0  1  0  0  0  0  0  0  0  0  0
   -0.2113   -6.3232    1.3268 O   0  0  0  0  0  0  0  0  0  0  0  0
    1.9924   -5.7738    1.0859 O   0  0  0  0  0  0  0  0  0  0  0  0
    1.4625   -7.2852    2.5515 C   0  0  1  0  0  0  0  0  0  0  0  0
    1.5382   -8.5324    1.8176 O   0  0  0  0  0  0  0  0  0  0  0  0
    0.6068   -8.4860    2.8919 C   0  0  1  0  0  0  0  0  0  0  0  0
    2.8085   -6.7478    6.9011 H   0  0  0  0  0  0  0  0  0  0  0  0
    1.7543   -8.0841    7.3714 H   0  0  0  0  0  0  0  0  0  0  0  0
    1.0924   -6.4683    7.1484 H   0  0  0  0  0  0  0  0  0  0  0  0
    0.5806  -10.1376    4.3393 H   0  0  0  0  0  0  0  0  0  0  0  0
    4.3113   -8.5100    4.7003 H   0  0  0  0  0  0  0  0  0  0  0  0
    4.0579   -9.8913    2.2430 H   0  0  0  0  0  0  0  0  0  0  0  0
    3.9567   -8.2186    0.4889 H   0  0  0  0  0  0  0  0  0  0  0  0
    5.2807   -5.5412    0.2302 H   0  0  0  0  0  0  0  0  0  0  0  0
    4.1643   -6.4108   -0.7019 H   0  0  0  0  0  0  0  0  0  0  0  0
    5.3125   -3.5581   -1.2224 H   0  0  0  0  0  0  0  0  0  0  0  0
    3.4375   -2.7584   -2.2698 H   0  0  0  0  0  0  0  0  0  0  0  0
    1.8553   -2.5537    2.9608 H   0  0  0  0  0  0  0  0  0  0  0  0
    3.5351   -1.9877    3.9087 H   0  0  0  0  0  0  0  0  0  0  0  0
    4.0422   -3.4578    4.6799 H   0  0  0  0  0  0  0  0  0  0  0  0
    6.6024   -1.2024    2.4055 H   0  0  0  0  0  0  0  0  0  0  0  0
    6.7444   -2.5888    0.5069 H   0  0  0  0  0  0  0  0  0  0  0  0
    6.0715   -4.5393    2.3597 H   0  0  0  0  0  0  0  0  0  0  0  0
    6.1688   -0.7604   -0.4264 H   0  0  0  0  0  0  0  0  0  0  0  0
    5.7026    0.5416    0.6477 H   0  0  0  0  0  0  0  0  0  0  0  0
    4.5862   -0.0497   -0.5746 H   0  0  0  0  0  0  0  0  0  0  0  0
    2.9893   -0.7024    0.9724 H   0  0  0  0  0  0  0  0  0  0  0  0
    5.1034   -6.5423    3.0711 H   0  0  0  0  0  0  0  0  0  0  0  0
    3.3075   -6.7437    4.0644 H   0  0  0  0  0  0  0  0  0  0  0  0
    1.9118   -5.2119    5.0068 H   0  0  0  0  0  0  0  0  0  0  0  0
   -0.4396   -8.5265    2.5940 H   0  0  0  0  0  0  0  0  0  0  0  0
  2  1  1  1
  1 38  1  0
  1 39  1  0
  1 40  1  0
  2  5  1  0
  2 30  1  0
  2  3  1  0
  3  4  1  0
  4 37  1  0
  4  5  1  0
  4 41  1  6
  5  6  2  3
  6  7  1  0
  6 42  1  0
  7  9  1  0
  7  8  1  0
  7 43  1  6
  8  9  1  0
  9 10  1  0
  9 44  1  6
 10 27  1  0
 10 34  1  6
 10 11  1  0
 11 12  1  0
 11 45  1  0
 11 46  1  0
 12 13  1  0
 13 14  1  0
 13 15  1  0
 13 47  1  6
 14 48  1  0
 15 22  1  0
 15 24  1  0
 15 16  1  1
 16 17  1  0
 17 18  1  1
 17 19  1  0
 17 27  1  0
 18 49  1  0
 19 20  1  0
 19 50  1  0
 19 51  1  0
 20 21  1  0
 21 22  1  0
 21 24  1  0
 21 52  1  1
 22 23  1  0
 22 53  1  6
 23 54  1  0
 24 25  1  0
 24 26  1  1
 25 55  1  0
 25 56  1  0
 25 57  1  0
 26 58  1  0
 27 28  1  1
 27 29  1  0
 28 59  1  0
 29 35  1  0
 29 30  1  0
 29 60  1  1
 30 31  1  0
 30 61  1  1
 31 32  1  0
 32 33  1  6
 32 34  1  0
 32 35  1  0
 35 37  1  0
 35 36  1  6
 36 37  1  0
 37 62  1  6
M  CHG  1  33  -1
M  END
>  <i_m_ct_stereo_status>  (169) 
1

>  <s_m_source_file>  (169) 
/var/tmp/pbs.5076253.sched01/tmp4uievzq0/12082cxahoa.sdf

>  <i_m_source_file_index>  (169) 
24

>  <i_lp_mmshare_version>  (169) 
48012

>  <i_f3d_flags>  (169) 
2

>  <s_epik_input>  (169) 
W0NAQF0xMjNbQ0BIXTRbQ0BIXShPNCkvW0NIXT1DNVxbQ0BAXTYoW0NIM10pW0NASF03W0NIXShDOChbQ0BAXShPNykoTzMpW09IXSlbQ0BIXShPOClbQ0BASF01TzYpW0NAXTIoW09IXSlbQ0BdOShbT0hdKU9bQ0BdMihbQ0BIXShbT0hdKU9bQ0gyXTEpW0NASF0oW09IXSlbQ0BIXShPW0NIMl05KVtDQF0yKFtDSDNdKVtPSF0=

>  <s_epik_cmdline>  (169) 
J2VwaWtfcHl0aG9uJywgJy1waHQnLCAnMi4wJywgJy1waCcsICc3LjAnLCAnLXRuJywgJzgnLCAnLW1hJywgJzIwMCcsICctaW1hZScsICc8aW5maWxlLm1hZT4nLCAnLW9tYWUnLCAnPG91dGZpbGUubWFlPic=

>  <r_epik_Ionization_Penalty>  (169) 
2.1573

>  <r_epik_Ionization_Penalty_Charging>  (169) 
2.15722

>  <r_epik_Ionization_Penalty_Neutral>  (169) 
8.72671e-05

>  <r_epik_State_Penalty>  (169) 
2.29751

>  <r_epik_Charging_Adjusted_Penalty>  (169) 
4.45473

>  <i_epik_Tot_Q>  (169) 
-1

>  <i_epik_Tot_abs_Q>  (169) 
1

>  <s_epik_Chemistry_Notes>  (169) 
This compound contains an acetal/aminal-like group ( X-CH(R)-Y where X, Y are N, S, or O) that may be acid/base labile, releasing an aldehyde.

>  <s_lp_Force_Field>  (169) 
OPLS3e

>  <r_lp_Energy>  (169) 
321.113

>  <b_lp_Chiralities_Consistent>  (169) 
0

>  <s_lp_Variant>  (169) 
95:0-4

>  <s_i_glide_gridfile>  (169) 
pfpi4k_grid

>  <i_i_glide_lignum>  (169) 
24

>  <i_i_glide_rotatable_bonds>  (169) 
5

>  <r_i_docking_score>  (169) 
-3.59891

>  <r_i_glide_ligand_efficiency>  (169) 
-0.097268

>  <r_i_glide_ligand_efficiency_sa>  (169) 
-0.324118

>  <r_i_glide_ligand_efficiency_ln>  (169) 
-0.78052

>  <r_i_glide_gscore>  (169) 
-3.59891

>  <r_i_glide_lipo>  (169) 
-0.401279

>  <r_i_glide_hbond>  (169) 
-0.405266

>  <r_i_glide_metal>  (169) 
-0

>  <r_i_glide_rewards>  (169) 
-1.05978

>  <r_i_glide_evdw>  (169) 
-21.8657

>  <r_i_glide_ecoul>  (169) 
-3.74101

>  <r_i_glide_erotb>  (169) 
0

>  <r_i_glide_esite>  (169) 
-0.0781551

>  <r_i_glide_emodel>  (169) 
-45.5947

>  <r_i_glide_energy>  (169) 
-25.6067

>  <r_i_glide_einternal>  (169) 
1.41632

>  <r_i_glide_intrahb_reward>  (169) 
-1

>  <i_i_glide_confnum>  (169) 
1

>  <i_i_glide_posenum>  (169) 
1

>  <r_i_glide_eff_state_penalty>  (169) 
0

>  <ligand_id>  (169) 
95

>  <original_smiles>  (169) 
CC12OC3C1=CC1OC1C14COC(O)C56OC(O)(COC(C5O)C6(C)O)C1(O)C1C2OC(O)(O4)C12OC32

>  <smiles>  (169) 
[H]OC1([H])OC([H])([H])C23OC4([O-])OC5([H])C6(C([H])([H])[H])OC([H])(C6=C([H])C6([H])OC62[H])C2([H])OC42C5([H])C3(O[H])C2(O[H])OC13C([H])(O[H])C([H])(OC2([H])[H])C3(O[H])C([H])([H])[H]

$$$$
95:3:1
     RDKit          3D

 62 71  0  0  1  0  0  0  0  0999 V2000
    1.7736   -5.9010    8.1566 C   0  0  0  0  0  0  0  0  0  0  0  0
    1.3710   -6.5960    6.8578 C   0  0  2  0  0  0  0  0  0  0  0  0
    0.1661   -7.3616    7.1062 O   0  0  0  0  0  0  0  0  0  0  0  0
    0.7116   -8.5052    6.3768 C   0  0  2  0  0  0  0  0  0  0  0  0
    2.1082   -7.9947    6.5962 C   0  0  0  0  0  0  0  0  0  0  0  0
    3.2833   -8.2717    5.9075 C   0  0  0  0  0  0  0  0  0  0  0  0
    3.5203   -8.6533    4.4154 C   0  0  2  0  0  0  0  0  0  0  0  0
    4.5494   -7.9155    3.7364 O   0  0  0  0  0  0  0  0  0  0  0  0
    3.3091   -7.8731    3.0012 C   0  0  2  0  0  0  0  0  0  0  0  0
    2.6918   -6.4108    2.4817 C   0  0  2  0  0  0  0  0  0  0  0  0
    3.2846   -6.2383    1.0394 C   0  0  0  0  0  0  0  0  0  0  0  0
    2.5467   -5.3933    0.1510 O   0  0  0  0  0  0  0  0  0  0  0  0
    3.2090   -4.2574   -0.3288 C   0  0  1  0  0  0  0  0  0  0  0  0
    2.3953   -3.5551   -1.2337 O   0  0  0  0  0  0  0  0  0  0  0  0
    3.5771   -3.3742    0.8735 C   0  0  1  0  0  0  0  0  0  0  0  0
    2.5019   -3.5778    1.7934 O   0  0  0  0  0  0  0  0  0  0  0  0
    2.5306   -3.7607    3.1550 C   0  0  2  0  0  0  0  0  0  0  0  0
    1.2337   -3.4354    3.5553 O   0  0  0  0  0  0  0  0  0  0  0  0
    3.3650   -2.6097    3.8060 C   0  0  0  0  0  0  0  0  0  0  0  0
    4.6569   -2.3935    3.2584 O   0  0  0  0  0  0  0  0  0  0  0  0
    4.8358   -1.9642    1.9019 C   0  0  1  0  0  0  0  0  0  0  0  0
    5.0935   -3.2882    1.2256 C   0  0  1  0  0  0  0  0  0  0  0  0
    5.8167   -4.2969    1.8942 O   0  0  0  0  0  0  0  0  0  0  0  0
    3.6928   -1.8081    0.8494 C   0  0  1  0  0  0  0  0  0  0  0  0
    4.0826   -1.1185   -0.4763 C   0  0  0  0  0  0  0  0  0  0  0  0
    2.6002   -1.0181    1.2785 O   0  0  0  0  0  0  0  0  0  0  0  0
    2.9286   -5.3001    3.5357 C   0  0  2  0  0  0  0  0  0  0  0  0
    4.3017   -5.2657    3.9055 O   0  0  0  0  0  0  0  0  0  0  0  0
    2.0762   -6.0898    4.6339 C   0  0  1  0  0  0  0  0  0  0  0  0
    1.2145   -5.5158    5.6166 C   0  0  1  0  0  0  0  0  0  0  0  0
    0.1436   -5.4345    4.5738 O   0  0  0  0  0  0  0  0  0  0  0  0
    0.2630   -6.3114    3.4235 C   0  0  1  0  0  0  0  0  0  0  0  0
   -0.9208   -6.6583    2.9861 O   0  0  0  0  0  0  0  0  0  0  0  0
    1.2139   -6.1543    2.3360 O   0  0  0  0  0  0  0  0  0  0  0  0
    0.9385   -7.2144    4.2103 C   0  0  1  0  0  0  0  0  0  0  0  0
    1.0149   -8.6223    3.8521 O   0  0  0  0  0  0  0  0  0  0  0  0
    0.2184   -8.2950    4.9871 C   0  0  1  0  0  0  0  0  0  0  0  0
    2.7416   -5.4063    8.0582 H   0  0  0  0  0  0  0  0  0  0  0  0
    1.8308   -6.5893    9.0022 H   0  0  0  0  0  0  0  0  0  0  0  0
    1.0431   -5.1311    8.4147 H   0  0  0  0  0  0  0  0  0  0  0  0
    0.4737   -9.4767    6.8121 H   0  0  0  0  0  0  0  0  0  0  0  0
    4.1094   -7.6724    6.2455 H   0  0  0  0  0  0  0  0  0  0  0  0
    3.6503   -9.7280    4.3316 H   0  0  0  0  0  0  0  0  0  0  0  0
    3.2504   -8.6105    2.1976 H   0  0  0  0  0  0  0  0  0  0  0  0
    4.3564   -6.0591    1.0468 H   0  0  0  0  0  0  0  0  0  0  0  0
    3.2026   -7.2043    0.5467 H   0  0  0  0  0  0  0  0  0  0  0  0
    4.0970   -4.5666   -0.8886 H   0  0  0  0  0  0  0  0  0  0  0  0
    2.2865   -4.0962   -2.0049 H   0  0  0  0  0  0  0  0  0  0  0  0
    0.6705   -4.1574    3.3078 H   0  0  0  0  0  0  0  0  0  0  0  0
    2.8004   -1.6760    3.7832 H   0  0  0  0  0  0  0  0  0  0  0  0
    3.4947   -2.8416    4.8633 H   0  0  0  0  0  0  0  0  0  0  0  0
    5.6543   -1.2587    1.7655 H   0  0  0  0  0  0  0  0  0  0  0  0
    5.6580   -3.1180    0.3083 H   0  0  0  0  0  0  0  0  0  0  0  0
    5.3321   -4.5114    2.6888 H   0  0  0  0  0  0  0  0  0  0  0  0
    4.8693   -1.6418   -1.0222 H   0  0  0  0  0  0  0  0  0  0  0  0
    4.4406   -0.1035   -0.3040 H   0  0  0  0  0  0  0  0  0  0  0  0
    3.2371   -1.0490   -1.1643 H   0  0  0  0  0  0  0  0  0  0  0  0
    1.9501   -1.0626    0.5727 H   0  0  0  0  0  0  0  0  0  0  0  0
    4.4037   -4.6846    4.6455 H   0  0  0  0  0  0  0  0  0  0  0  0
    2.9183   -6.2160    5.2680 H   0  0  0  0  0  0  0  0  0  0  0  0
    1.5315   -4.5165    5.9203 H   0  0  0  0  0  0  0  0  0  0  0  0
   -0.8497   -8.4497    4.8490 H   0  0  0  0  0  0  0  0  0  0  0  0
  2  1  1  1
  1 38  1  0
  1 39  1  0
  1 40  1  0
  2  5  1  0
  2 30  1  0
  2  3  1  0
  3  4  1  0
  4 37  1  0
  4  5  1  0
  4 41  1  1
  5  6  2  3
  6  7  1  0
  6 42  1  0
  7  9  1  0
  7  8  1  0
  7 43  1  6
  8  9  1  0
  9 10  1  0
  9 44  1  6
 10 27  1  0
 10 34  1  6
 10 11  1  0
 11 12  1  0
 11 45  1  0
 11 46  1  0
 12 13  1  0
 13 14  1  0
 13 15  1  0
 13 47  1  6
 14 48  1  0
 15 22  1  0
 15 24  1  0
 15 16  1  1
 16 17  1  0
 17 18  1  1
 17 19  1  0
 17 27  1  0
 18 49  1  0
 19 20  1  0
 19 50  1  0
 19 51  1  0
 20 21  1  0
 21 22  1  0
 21 24  1  0
 21 52  1  1
 22 23  1  0
 22 53  1  6
 23 54  1  0
 24 25  1  0
 24 26  1  1
 25 55  1  0
 25 56  1  0
 25 57  1  0
 26 58  1  0
 27 28  1  1
 27 29  1  0
 28 59  1  0
 29 35  1  0
 29 30  1  0
 29 60  1  1
 30 31  1  0
 30 61  1  1
 31 32  1  0
 32 33  1  6
 32 34  1  0
 32 35  1  0
 35 37  1  0
 35 36  1  6
 36 37  1  0
 37 62  1  6
M  CHG  1  33  -1
M  END
>  <i_m_ct_stereo_status>  (170) 
1

>  <s_m_source_file>  (170) 
/var/tmp/pbs.5076253.sched01/tmp4uievzq0/12082cxahoa.sdf

>  <i_m_source_file_index>  (170) 
24

>  <i_lp_mmshare_version>  (170) 
48012

>  <i_f3d_flags>  (170) 
2

>  <s_epik_input>  (170) 
W0NAQF0xMjNbQ0BIXTRbQ0BIXShPNCkvW0NIXT1DNVxbQ0BAXTYoW0NIM10pW0NASF03W0NIXShDOChbQ0BAXShPNykoTzMpW09IXSlbQ0BIXShPOClbQ0BASF01TzYpW0NAXTIoW09IXSlbQ0BdOShbT0hdKU9bQ0BdMihbQ0BIXShbT0hdKU9bQ0gyXTEpW0NASF0oW09IXSlbQ0BIXShPW0NIMl05KVtDQF0yKFtDSDNdKVtPSF0=

>  <s_epik_cmdline>  (170) 
J2VwaWtfcHl0aG9uJywgJy1waHQnLCAnMi4wJywgJy1waCcsICc3LjAnLCAnLXRuJywgJzgnLCAnLW1hJywgJzIwMCcsICctaW1hZScsICc8aW5maWxlLm1hZT4nLCAnLW9tYWUnLCAnPG91dGZpbGUubWFlPic=

>  <r_epik_Ionization_Penalty>  (170) 
2.1573

>  <r_epik_Ionization_Penalty_Charging>  (170) 
2.15722

>  <r_epik_Ionization_Penalty_Neutral>  (170) 
8.72671e-05

>  <r_epik_State_Penalty>  (170) 
2.29751

>  <r_epik_Charging_Adjusted_Penalty>  (170) 
4.45473

>  <i_epik_Tot_Q>  (170) 
-1

>  <i_epik_Tot_abs_Q>  (170) 
1

>  <s_epik_Chemistry_Notes>  (170) 
This compound contains an acetal/aminal-like group ( X-CH(R)-Y where X, Y are N, S, or O) that may be acid/base labile, releasing an aldehyde.

>  <s_lp_Force_Field>  (170) 
OPLS3e

>  <r_lp_Energy>  (170) 
321.113

>  <b_lp_Chiralities_Consistent>  (170) 
0

>  <s_lp_Variant>  (170) 
95:0-4

>  <s_i_glide_gridfile>  (170) 
pfpi4k_grid

>  <i_i_glide_lignum>  (170) 
24

>  <i_i_glide_rotatable_bonds>  (170) 
5

>  <r_i_docking_score>  (170) 
-3.38677

>  <r_i_glide_ligand_efficiency>  (170) 
-0.0915343

>  <r_i_glide_ligand_efficiency_sa>  (170) 
-0.305013

>  <r_i_glide_ligand_efficiency_ln>  (170) 
-0.734511

>  <r_i_glide_gscore>  (170) 
-3.38677

>  <r_i_glide_lipo>  (170) 
-0.108016

>  <r_i_glide_hbond>  (170) 
-0.2

>  <r_i_glide_metal>  (170) 
-0

>  <r_i_glide_rewards>  (170) 
-0.5

>  <r_i_glide_evdw>  (170) 
-19.2135

>  <r_i_glide_ecoul>  (170) 
-10.1797

>  <r_i_glide_erotb>  (170) 
0

>  <r_i_glide_esite>  (170) 
-0.0911242

>  <r_i_glide_emodel>  (170) 
-43.8059

>  <r_i_glide_energy>  (170) 
-29.3932

>  <r_i_glide_einternal>  (170) 
1.17242

>  <r_i_glide_intrahb_reward>  (170) 
-0.5

>  <i_i_glide_confnum>  (170) 
2

>  <i_i_glide_posenum>  (170) 
7

>  <r_i_glide_eff_state_penalty>  (170) 
0

>  <ligand_id>  (170) 
95

>  <original_smiles>  (170) 
CC12OC3C1=CC1OC1C14COC(O)C56OC(O)(COC(C5O)C6(C)O)C1(O)C1C2OC(O)(O4)C12OC32

>  <smiles>  (170) 
[H]OC1([H])OC([H])([H])C23OC4([O-])OC5([H])C6(C([H])([H])[H])OC([H])(C6=C([H])C6([H])OC62[H])C2([H])OC42C5([H])C3(O[H])C2(O[H])OC13C([H])(O[H])C([H])(OC2([H])[H])C3(O[H])C([H])([H])[H]

$$$$
95:3:2
     RDKit          3D

 62 71  0  0  1  0  0  0  0  0999 V2000
    1.7571   -5.9054    8.1076 C   0  0  0  0  0  0  0  0  0  0  0  0
    1.3713   -6.5990    6.8035 C   0  0  2  0  0  0  0  0  0  0  0  0
    0.1651   -7.3669    7.0351 O   0  0  0  0  0  0  0  0  0  0  0  0
    0.7221   -8.5074    6.3080 C   0  0  2  0  0  0  0  0  0  0  0  0
    2.1153   -7.9969    6.5488 C   0  0  0  0  0  0  0  0  0  0  0  0
    3.2996   -8.2679    5.8753 C   0  0  0  0  0  0  0  0  0  0  0  0
    3.5613   -8.6361    4.3851 C   0  0  2  0  0  0  0  0  0  0  0  0
    4.5896   -7.8712    3.7318 O   0  0  0  0  0  0  0  0  0  0  0  0
    3.3634   -7.8552    2.9705 C   0  0  2  0  0  0  0  0  0  0  0  0
    2.7481   -6.4004    2.4480 C   0  0  2  0  0  0  0  0  0  0  0  0
    3.3624   -6.2262    1.0114 C   0  0  0  0  0  0  0  0  0  0  0  0
    2.6457   -5.3844    0.1060 O   0  0  0  0  0  0  0  0  0  0  0  0
    3.3089   -4.2421   -0.3570 C   0  0  1  0  0  0  0  0  0  0  0  0
    2.5073   -3.5362   -1.2695 O   0  0  0  0  0  0  0  0  0  0  0  0
    3.6647   -3.3703    0.8544 C   0  0  1  0  0  0  0  0  0  0  0  0
    2.5806   -3.5760    1.7619 O   0  0  0  0  0  0  0  0  0  0  0  0
    2.5977   -3.7558    3.1251 C   0  0  2  0  0  0  0  0  0  0  0  0
    1.2942   -3.4169    3.4993 O   0  0  0  0  0  0  0  0  0  0  0  0
    3.4157   -2.6039    3.7929 C   0  0  0  0  0  0  0  0  0  0  0  0
    4.7044   -2.3512    3.2561 O   0  0  0  0  0  0  0  0  0  0  0  0
    4.8985   -1.9525    1.8937 C   0  0  1  0  0  0  0  0  0  0  0  0
    5.1784   -3.2751    1.2164 C   0  0  1  0  0  0  0  0  0  0  0  0
    5.9121   -4.2751    1.8857 O   0  0  0  0  0  0  0  0  0  0  0  0
    3.7600   -1.8020    0.8353 C   0  0  1  0  0  0  0  0  0  0  0  0
    4.1689   -1.1018   -0.4815 C   0  0  0  0  0  0  0  0  0  0  0  0
    2.6405   -1.0336    1.2540 O   0  0  0  0  0  0  0  0  0  0  0  0
    2.9762   -5.3005    3.5126 C   0  0  2  0  0  0  0  0  0  0  0  0
    4.3355   -5.3111    3.9398 O   0  0  0  0  0  0  0  0  0  0  0  0
    2.0944   -6.0850    4.5887 C   0  0  1  0  0  0  0  0  0  0  0  0
    1.2230   -5.5148    5.5630 C   0  0  1  0  0  0  0  0  0  0  0  0
    0.1637   -5.4363    4.5086 O   0  0  0  0  0  0  0  0  0  0  0  0
    0.3027   -6.3047    3.3531 C   0  0  1  0  0  0  0  0  0  0  0  0
   -0.8741   -6.6744    2.9021 O   0  0  0  0  0  0  0  0  0  0  0  0
    1.2704   -6.1573    2.2756 O   0  0  0  0  0  0  0  0  0  0  0  0
    0.9692   -7.2099    4.1463 C   0  0  1  0  0  0  0  0  0  0  0  0
    1.0612   -8.6160    3.7875 O   0  0  0  0  0  0  0  0  0  0  0  0
    0.2490   -8.2949    4.9115 C   0  0  1  0  0  0  0  0  0  0  0  0
    2.7253   -5.4074    8.0224 H   0  0  0  0  0  0  0  0  0  0  0  0
    1.8040   -6.5936    8.9542 H   0  0  0  0  0  0  0  0  0  0  0  0
    1.0225   -5.1366    8.3553 H   0  0  0  0  0  0  0  0  0  0  0  0
    0.4807   -9.4800    6.7354 H   0  0  0  0  0  0  0  0  0  0  0  0
    4.1196   -7.6697    6.2323 H   0  0  0  0  0  0  0  0  0  0  0  0
    3.7047   -9.7093    4.2959 H   0  0  0  0  0  0  0  0  0  0  0  0
    3.3291   -8.5981    2.1706 H   0  0  0  0  0  0  0  0  0  0  0  0
    4.4371   -6.0473    1.0382 H   0  0  0  0  0  0  0  0  0  0  0  0
    3.2936   -7.1930    0.5128 H   0  0  0  0  0  0  0  0  0  0  0  0
    4.2019   -4.5482   -0.9063 H   0  0  0  0  0  0  0  0  0  0  0  0
    2.3926   -4.0846   -2.0324 H   0  0  0  0  0  0  0  0  0  0  0  0
    1.1448   -2.5278    3.2176 H   0  0  0  0  0  0  0  0  0  0  0  0
    2.8437   -1.6735    3.7698 H   0  0  0  0  0  0  0  0  0  0  0  0
    3.5352   -2.8466    4.8487 H   0  0  0  0  0  0  0  0  0  0  0  0
    5.7158   -1.2439    1.7656 H   0  0  0  0  0  0  0  0  0  0  0  0
    5.7477   -3.0978    0.3050 H   0  0  0  0  0  0  0  0  0  0  0  0
    6.0624   -4.9814    1.2781 H   0  0  0  0  0  0  0  0  0  0  0  0
    4.9632   -1.6224   -1.0130 H   0  0  0  0  0  0  0  0  0  0  0  0
    4.5275   -0.0887   -0.3017 H   0  0  0  0  0  0  0  0  0  0  0  0
    3.3368   -1.0342   -1.1827 H   0  0  0  0  0  0  0  0  0  0  0  0
    1.9955   -1.0741    0.5503 H   0  0  0  0  0  0  0  0  0  0  0  0
    4.6191   -6.2168    4.0084 H   0  0  0  0  0  0  0  0  0  0  0  0
    2.9145   -6.2153    5.2427 H   0  0  0  0  0  0  0  0  0  0  0  0
    1.5441   -4.5179    5.8679 H   0  0  0  0  0  0  0  0  0  0  0  0
   -0.8174   -8.4532    4.7587 H   0  0  0  0  0  0  0  0  0  0  0  0
  2  1  1  1
  1 38  1  0
  1 39  1  0
  1 40  1  0
  2  5  1  0
  2 30  1  0
  2  3  1  0
  3  4  1  0
  4 37  1  0
  4  5  1  0
  4 41  1  1
  5  6  2  3
  6  7  1  0
  6 42  1  0
  7  9  1  0
  7  8  1  0
  7 43  1  6
  8  9  1  0
  9 10  1  0
  9 44  1  6
 10 27  1  0
 10 34  1  6
 10 11  1  0
 11 12  1  0
 11 45  1  0
 11 46  1  0
 12 13  1  0
 13 14  1  0
 13 15  1  0
 13 47  1  6
 14 48  1  0
 15 22  1  0
 15 24  1  0
 15 16  1  1
 16 17  1  0
 17 18  1  1
 17 19  1  0
 17 27  1  0
 18 49  1  0
 19 20  1  0
 19 50  1  0
 19 51  1  0
 20 21  1  0
 21 22  1  0
 21 24  1  0
 21 52  1  1
 22 23  1  0
 22 53  1  6
 23 54  1  0
 24 25  1  0
 24 26  1  1
 25 55  1  0
 25 56  1  0
 25 57  1  0
 26 58  1  0
 27 28  1  1
 27 29  1  0
 28 59  1  0
 29 35  1  0
 29 30  1  0
 29 60  1  1
 30 31  1  0
 30 61  1  1
 31 32  1  0
 32 33  1  6
 32 34  1  0
 32 35  1  0
 35 37  1  0
 35 36  1  6
 36 37  1  0
 37 62  1  6
M  CHG  1  33  -1
M  END
>  <i_m_ct_stereo_status>  (171) 
1

>  <s_m_source_file>  (171) 
/var/tmp/pbs.5076253.sched01/tmp4uievzq0/12082cxahoa.sdf

>  <i_m_source_file_index>  (171) 
24

>  <i_lp_mmshare_version>  (171) 
48012

>  <i_f3d_flags>  (171) 
2

>  <s_epik_input>  (171) 
W0NAQF0xMjNbQ0BIXTRbQ0BIXShPNCkvW0NIXT1DNVxbQ0BAXTYoW0NIM10pW0NASF03W0NIXShDOChbQ0BAXShPNykoTzMpW09IXSlbQ0BIXShPOClbQ0BASF01TzYpW0NAXTIoW09IXSlbQ0BdOShbT0hdKU9bQ0BdMihbQ0BIXShbT0hdKU9bQ0gyXTEpW0NASF0oW09IXSlbQ0BIXShPW0NIMl05KVtDQF0yKFtDSDNdKVtPSF0=

>  <s_epik_cmdline>  (171) 
J2VwaWtfcHl0aG9uJywgJy1waHQnLCAnMi4wJywgJy1waCcsICc3LjAnLCAnLXRuJywgJzgnLCAnLW1hJywgJzIwMCcsICctaW1hZScsICc8aW5maWxlLm1hZT4nLCAnLW9tYWUnLCAnPG91dGZpbGUubWFlPic=

>  <r_epik_Ionization_Penalty>  (171) 
2.1573

>  <r_epik_Ionization_Penalty_Charging>  (171) 
2.15722

>  <r_epik_Ionization_Penalty_Neutral>  (171) 
8.72671e-05

>  <r_epik_State_Penalty>  (171) 
2.29751

>  <r_epik_Charging_Adjusted_Penalty>  (171) 
4.45473

>  <i_epik_Tot_Q>  (171) 
-1

>  <i_epik_Tot_abs_Q>  (171) 
1

>  <s_epik_Chemistry_Notes>  (171) 
This compound contains an acetal/aminal-like group ( X-CH(R)-Y where X, Y are N, S, or O) that may be acid/base labile, releasing an aldehyde.

>  <s_lp_Force_Field>  (171) 
OPLS3e

>  <r_lp_Energy>  (171) 
321.113

>  <b_lp_Chiralities_Consistent>  (171) 
0

>  <s_lp_Variant>  (171) 
95:0-4

>  <s_i_glide_gridfile>  (171) 
pfpi4k_grid

>  <i_i_glide_lignum>  (171) 
24

>  <i_i_glide_rotatable_bonds>  (171) 
5

>  <r_i_docking_score>  (171) 
-3.3706

>  <r_i_glide_ligand_efficiency>  (171) 
-0.0910974

>  <r_i_glide_ligand_efficiency_sa>  (171) 
-0.303557

>  <r_i_glide_ligand_efficiency_ln>  (171) 
-0.731005

>  <r_i_glide_gscore>  (171) 
-3.3706

>  <r_i_glide_lipo>  (171) 
-0.120692

>  <r_i_glide_hbond>  (171) 
-0.2

>  <r_i_glide_metal>  (171) 
-0

>  <r_i_glide_rewards>  (171) 
-0.5

>  <r_i_glide_evdw>  (171) 
-19.2711

>  <r_i_glide_ecoul>  (171) 
-9.97187

>  <r_i_glide_erotb>  (171) 
0

>  <r_i_glide_esite>  (171) 
-0.0905763

>  <r_i_glide_emodel>  (171) 
-43.057

>  <r_i_glide_energy>  (171) 
-29.243

>  <r_i_glide_einternal>  (171) 
2.46707

>  <r_i_glide_intrahb_reward>  (171) 
-0.5

>  <i_i_glide_confnum>  (171) 
2

>  <i_i_glide_posenum>  (171) 
11

>  <r_i_glide_eff_state_penalty>  (171) 
0

>  <ligand_id>  (171) 
95

>  <original_smiles>  (171) 
CC12OC3C1=CC1OC1C14COC(O)C56OC(O)(COC(C5O)C6(C)O)C1(O)C1C2OC(O)(O4)C12OC32

>  <smiles>  (171) 
[H]OC1([H])OC([H])([H])C23OC4([O-])OC5([H])C6(C([H])([H])[H])OC([H])(C6=C([H])C6([H])OC62[H])C2([H])OC42C5([H])C3(O[H])C2(O[H])OC13C([H])(O[H])C([H])(OC2([H])[H])C3(O[H])C([H])([H])[H]

$$$$
96:0:0
     RDKit          3D

 71 80  0  0  1  0  0  0  0  0999 V2000
    3.2574    0.2390   -4.9656 C   0  0  0  0  0  0  0  0  0  0  0  0
    3.3666   -1.1624   -4.8163 O   0  0  0  0  0  0  0  0  0  0  0  0
    3.8512   -1.5612   -3.5502 C   0  0  2  0  0  0  0  0  0  0  0  0
    3.9562   -3.0465   -3.2954 C   0  0  2  0  0  0  0  0  0  0  0  0
    2.4700   -3.4261   -3.5320 C   0  0  0  0  0  0  0  0  0  0  0  0
    1.8137   -2.4124   -2.8422 O   0  0  0  0  0  0  0  0  0  0  0  0
    2.8014   -1.4715   -2.4418 C   0  0  1  0  0  0  0  0  0  0  0  0
    3.5680   -2.1014   -1.2540 C   0  0  2  0  0  0  0  0  0  0  0  0
    4.3106   -3.1064   -1.8936 O   0  0  0  0  0  0  0  0  0  0  0  0
    2.7652   -2.6048   -0.2267 O   0  0  0  0  0  0  0  0  0  0  0  0
    3.5577   -2.6874    0.9784 C   0  0  2  0  0  0  0  0  0  0  0  0
    2.9577   -2.0324    2.2582 C   0  0  2  0  0  0  0  0  0  0  0  0
    1.7182   -1.1720    2.3380 C   0  0  0  0  0  0  0  0  0  0  0  0
    1.7265   -1.7220    3.8022 C   0  0  1  0  0  0  0  0  0  0  0  0
    2.6372   -1.1352    4.7299 O   0  0  0  0  0  0  0  0  0  0  0  0
    3.8079   -0.5640    4.2099 C   0  0  1  0  0  0  0  0  0  0  0  0
    4.0597   -1.1634    2.8173 C   0  0  0  0  0  0  0  0  0  0  0  0
    5.0761   -1.0652    1.9824 C   0  0  0  0  0  0  0  0  0  0  0  0
    4.8844   -1.9208    0.7340 C   0  0  1  0  0  0  0  0  0  0  0  0
    5.9400   -2.8690    0.5204 O   0  0  0  0  0  0  0  0  0  0  0  0
    7.2697   -2.3488    0.3647 C   0  0  0  0  0  0  0  0  0  0  0  0
    4.4848   -1.1449   -0.5105 C   0  0  1  0  0  0  0  0  0  0  0  0
    5.5158   -0.6721   -1.2563 O   0  0  0  0  0  0  0  0  0  0  0  0
    3.4943    0.9278    4.2503 C   0  0  2  0  0  0  0  0  0  0  0  0
    2.8076    1.3196    5.4700 O   0  0  0  0  0  0  0  0  0  0  0  0
    2.1255    1.6279    4.2747 C   0  0  1  0  0  0  0  0  0  0  0  0
    1.8012    3.0845    4.2212 C   0  0  1  0  0  0  0  0  0  0  0  0
    2.1850    3.5178    2.9325 O   0  0  0  0  0  0  0  0  0  0  0  0
    0.3151    2.7822    4.4951 C   0  0  0  0  0  0  0  0  0  0  0  0
   -0.1231    3.0841    5.9268 C   0  0  0  0  0  0  0  0  0  0  0  0
   -0.7028    3.4631    3.5779 C   0  0  0  0  0  0  0  0  0  0  0  0
    0.6284    1.2927    4.2103 C   0  0  2  0  0  0  0  0  0  0  0  0
   -0.1872    0.1482    4.9143 C   0  0  1  0  0  0  0  0  0  0  0  0
   -0.5509   -0.9063    3.9923 O   0  0  0  0  0  0  0  0  0  0  0  0
    0.4145   -1.7885    4.6078 C   0  0  1  0  0  0  0  0  0  0  0  0
   -0.2281   -3.0958    5.0107 C   0  0  0  0  0  0  0  0  0  0  0  0
    0.5217   -3.7393    6.0111 O   0  0  0  0  0  0  0  0  0  0  0  0
    0.4182   -0.8767    5.7473 O   0  0  0  0  0  0  0  0  0  0  0  0
    2.3524   -2.9126    3.2589 O   0  0  0  0  0  0  0  0  0  0  0  0
    2.9080    0.4618   -5.9701 H   0  0  0  0  0  0  0  0  0  0  0  0
    4.2256    0.7180   -4.8214 H   0  0  0  0  0  0  0  0  0  0  0  0
    2.5412    0.6691   -4.2686 H   0  0  0  0  0  0  0  0  0  0  0  0
    4.7998   -1.0615   -3.3841 H   0  0  0  0  0  0  0  0  0  0  0  0
    4.6654   -3.5886   -3.9124 H   0  0  0  0  0  0  0  0  0  0  0  0
    2.2043   -3.4101   -4.6084 H   0  0  0  0  0  0  0  0  0  0  0  0
    2.0175   -4.2512   -3.0266 H   0  0  0  0  0  0  0  0  0  0  0  0
    2.3090   -0.5194   -2.2722 H   0  0  0  0  0  0  0  0  0  0  0  0
    3.8343   -3.7311    1.1477 H   0  0  0  0  0  0  0  0  0  0  0  0
    1.8920   -0.1017    2.1903 H   0  0  0  0  0  0  0  0  0  0  0  0
    0.9125   -1.5815    1.7337 H   0  0  0  0  0  0  0  0  0  0  0  0
    4.6362   -0.7898    4.8950 H   0  0  0  0  0  0  0  0  0  0  0  0
    5.9295   -0.4454    2.1909 H   0  0  0  0  0  0  0  0  0  0  0  0
    7.9779   -3.1538    0.1685 H   0  0  0  0  0  0  0  0  0  0  0  0
    7.5423   -1.8431    1.2814 H   0  0  0  0  0  0  0  0  0  0  0  0
    7.4700   -1.5769   -0.3750 H   0  0  0  0  0  0  0  0  0  0  0  0
    3.8665   -0.2969   -0.1966 H   0  0  0  0  0  0  0  0  0  0  0  0
    5.3435    0.2725   -1.3870 H   0  0  0  0  0  0  0  0  0  0  0  0
    4.3495    1.5522    4.0054 H   0  0  0  0  0  0  0  0  0  0  0  0
    2.2845    3.6927    4.9847 H   0  0  0  0  0  0  0  0  0  0  0  0
    1.4031    3.8507    2.5176 H   0  0  0  0  0  0  0  0  0  0  0  0
   -1.1549    2.7782    6.1047 H   0  0  0  0  0  0  0  0  0  0  0  0
   -0.0305    4.1467    6.1695 H   0  0  0  0  0  0  0  0  0  0  0  0
    0.5050    2.5342    6.6280 H   0  0  0  0  0  0  0  0  0  0  0  0
   -1.7138    3.1009    3.7529 H   0  0  0  0  0  0  0  0  0  0  0  0
   -0.4936    3.2704    2.5291 H   0  0  0  0  0  0  0  0  0  0  0  0
   -0.7020    4.5455    3.7121 H   0  0  0  0  0  0  0  0  0  0  0  0
    0.3645    1.2099    3.1623 H   0  0  0  0  0  0  0  0  0  0  0  0
   -1.0994    0.5409    5.3442 H   0  0  0  0  0  0  0  0  0  0  0  0
   -1.2378   -2.9142    5.3853 H   0  0  0  0  0  0  0  0  0  0  0  0
   -0.2557   -3.7565    4.1499 H   0  0  0  0  0  0  0  0  0  0  0  0
    0.6889   -3.1004    6.6884 H   0  0  0  0  0  0  0  0  0  0  0  0
  1  2  1  0
  1 40  1  0
  1 41  1  0
  1 42  1  0
  2  3  1  0
  3  7  1  0
  3  4  1  0
  3 43  1  1
  4  9  1  0
  4  5  1  0
  4 44  1  6
  5  6  1  0
  5 45  1  0
  5 46  1  0
  6  7  1  0
  7  8  1  0
  7 47  1  1
  8 22  1  0
  8  9  1  6
  8 10  1  0
 10 11  1  0
 11 19  1  0
 11 12  1  0
 11 48  1  1
 12 17  1  0
 12 39  1  1
 12 13  1  0
 13 14  1  0
 13 49  1  0
 13 50  1  0
 14 35  1  0
 14 15  1  0
 14 39  1  6
 15 16  1  0
 16 17  1  0
 16 24  1  0
 16 51  1  1
 17 18  2  0
 18 19  1  0
 18 52  1  0
 19 20  1  6
 19 22  1  0
 20 21  1  0
 21 53  1  0
 21 54  1  0
 21 55  1  0
 22 23  1  0
 22 56  1  1
 23 57  1  0
 24 26  1  0
 24 25  1  0
 24 58  1  6
 26 25  1  1
 26 32  1  0
 26 27  1  0
 27 28  1  0
 27 29  1  0
 27 59  1  1
 28 60  1  0
 29 30  1  0
 29 31  1  0
 29 32  1  0
 30 61  1  0
 30 62  1  0
 30 63  1  0
 31 64  1  0
 31 65  1  0
 31 66  1  0
 32 33  1  0
 32 67  1  6
 33 38  1  0
 33 34  1  0
 33 68  1  1
 34 35  1  0
 35 36  1  1
 35 38  1  0
 36 37  1  0
 36 69  1  0
 36 70  1  0
 37 71  1  0
M  END
>  <i_m_ct_stereo_status>  (172) 
1

>  <s_m_source_file>  (172) 
/var/tmp/pbs.5076253.sched01/tmp4uievzq0/12082cxahoa.sdf

>  <i_m_source_file_index>  (172) 
25

>  <i_lp_mmshare_version>  (172) 
48012

>  <i_f3d_flags>  (172) 
0

>  <s_epik_input>  (172) 
TzFbQ0gyXVtDQEhdKE8yKVtDQEBIXShPW0NIM10pW0NAQEhdMVtDQEBdMjNPW0NAQEhdNFtDQEBdNTZDKD1bQ0hdW0NAXTQoT1tDSDNdKVtDQEhdM1tPSF0pW0NASF03W0NASF04W0NAXTkoTzgpW0NASF0oQyhbQ0gzXSkoW0NIM10pW0NAQEhdOVtPSF0pW0NASF0xT1tDQF0oTzEpKFtDQEBdKE83KShPNilbQ0gyXTUpW0NIMl1bT0hd

>  <s_epik_cmdline>  (172) 
J2VwaWtfcHl0aG9uJywgJy1waHQnLCAnMi4wJywgJy1waCcsICc3LjAnLCAnLXRuJywgJzgnLCAnLW1hJywgJzIwMCcsICctaW1hZScsICc8aW5maWxlLm1hZT4nLCAnLW9tYWUnLCAnPG91dGZpbGUubWFlPic=

>  <r_epik_Ionization_Penalty>  (172) 
0.0046528

>  <r_epik_Ionization_Penalty_Charging>  (172) 
0

>  <r_epik_Ionization_Penalty_Neutral>  (172) 
0.0046528

>  <r_epik_State_Penalty>  (172) 
0.00336443

>  <r_epik_Charging_Adjusted_Penalty>  (172) 
0.00336443

>  <i_epik_Tot_Q>  (172) 
0

>  <i_epik_Tot_abs_Q>  (172) 
0

>  <s_epik_Chemistry_Notes>  (172) 
This compound contains an acetal/aminal-like group ( X-CH(R)-Y where X, Y are N, S, or O) that may be acid/base labile, releasing an aldehyde.

>  <s_lp_Force_Field>  (172) 
OPLS3e

>  <r_lp_Energy>  (172) 
80.3791

>  <b_lp_Chiralities_Consistent>  (172) 
1

>  <s_lp_Variant>  (172) 
96:0-1

>  <s_i_glide_gridfile>  (172) 
pfpi4k_grid

>  <i_i_glide_lignum>  (172) 
25

>  <i_i_glide_rotatable_bonds>  (172) 
6

>  <r_i_docking_score>  (172) 
-3.19424

>  <r_i_glide_ligand_efficiency>  (172) 
-0.0819035

>  <r_i_glide_ligand_efficiency_sa>  (172) 
-0.277752

>  <r_i_glide_ligand_efficiency_ln>  (172) 
-0.684935

>  <r_i_glide_gscore>  (172) 
-3.19424

>  <r_i_glide_lipo>  (172) 
-0.932701

>  <r_i_glide_hbond>  (172) 
-0.296424

>  <r_i_glide_metal>  (172) 
-0

>  <r_i_glide_rewards>  (172) 
-0.00684812

>  <r_i_glide_evdw>  (172) 
-23.9167

>  <r_i_glide_ecoul>  (172) 
-6.18454

>  <r_i_glide_erotb>  (172) 
0.0679544

>  <r_i_glide_esite>  (172) 
-0.077756

>  <r_i_glide_emodel>  (172) 
-27.7152

>  <r_i_glide_energy>  (172) 
-30.1013

>  <r_i_glide_einternal>  (172) 
6.25845

>  <r_i_glide_intrahb_reward>  (172) 
-0

>  <i_i_glide_confnum>  (172) 
1

>  <i_i_glide_posenum>  (172) 
5

>  <r_i_glide_eff_state_penalty>  (172) 
0

>  <ligand_id>  (172) 
96

>  <original_smiles>  (172) 
COC1C2COC1C1(O2)OC2C34CC5(OC(C3=CC2(OC)C1O)C1OC12C(O)C(C)(C)C2C1OC5(CO)O1)O4

>  <smiles>  (172) 
[H]OC([H])([H])C12OC([H])(O1)C1([H])C3(OC3([H])C3([H])OC24OC2(C3=C([H])C3(OC([H])([H])[H])C([H])(O[H])C5(OC6([H])C([H])([H])OC5([H])C6([H])OC([H])([H])[H])OC23[H])C4([H])[H])C([H])(O[H])C1(C([H])([H])[H])C([H])([H])[H]

$$$$
96:0:1
     RDKit          3D

 71 80  0  0  1  0  0  0  0  0999 V2000
    2.8962   -3.2976   -1.4944 C   0  0  0  0  0  0  0  0  0  0  0  0
    2.2521   -3.3443   -0.2404 O   0  0  0  0  0  0  0  0  0  0  0  0
    2.9153   -2.5050    0.7125 C   0  0  2  0  0  0  0  0  0  0  0  0
    3.9905   -3.2360    1.5139 C   0  0  2  0  0  0  0  0  0  0  0  0
    3.1329   -4.3246    2.1975 C   0  0  0  0  0  0  0  0  0  0  0  0
    1.9693   -3.5942    2.5932 O   0  0  0  0  0  0  0  0  0  0  0  0
    2.1390   -2.2845    2.0203 C   0  0  1  0  0  0  0  0  0  0  0  0
    3.2438   -1.5888    2.8523 C   0  0  2  0  0  0  0  0  0  0  0  0
    4.4091   -2.2851    2.4949 O   0  0  0  0  0  0  0  0  0  0  0  0
    2.9584   -1.6992    4.2279 O   0  0  0  0  0  0  0  0  0  0  0  0
    3.7936   -0.7990    4.9653 C   0  0  2  0  0  0  0  0  0  0  0  0
    3.0700    0.0806    6.0267 C   0  0  2  0  0  0  0  0  0  0  0  0
    1.5840    0.1181    6.2727 C   0  0  0  0  0  0  0  0  0  0  0  0
    2.0767    0.5690    7.6801 C   0  0  1  0  0  0  0  0  0  0  0  0
    2.4652    1.9374    7.8134 O   0  0  0  0  0  0  0  0  0  0  0  0
    2.9787    2.5828    6.6661 C   0  0  1  0  0  0  0  0  0  0  0  0
    3.4239    1.5115    5.6922 C   0  0  0  0  0  0  0  0  0  0  0  0
    4.0282    1.5860    4.5215 C   0  0  0  0  0  0  0  0  0  0  0  0
    4.2991    0.2309    3.9044 C   0  0  1  0  0  0  0  0  0  0  0  0
    5.6595    0.0468    3.4933 O   0  0  0  0  0  0  0  0  0  0  0  0
    6.7222    0.3395    4.3763 C   0  0  0  0  0  0  0  0  0  0  0  0
    3.4461   -0.0826    2.6956 C   0  0  1  0  0  0  0  0  0  0  0  0
    3.9356    0.4255    1.4638 O   0  0  0  0  0  0  0  0  0  0  0  0
    1.7983    3.4658    6.2426 C   0  0  2  0  0  0  0  0  0  0  0  0
    1.1616    4.0722    7.3680 O   0  0  0  0  0  0  0  0  0  0  0  0
    0.3110    3.2977    6.5878 C   0  0  1  0  0  0  0  0  0  0  0  0
   -0.8770    4.0842    6.1314 C   0  0  1  0  0  0  0  0  0  0  0  0
   -1.0368    3.9030    4.7435 O   0  0  0  0  0  0  0  0  0  0  0  0
   -1.7914    3.2999    7.0782 C   0  0  0  0  0  0  0  0  0  0  0  0
   -2.2189    4.0953    8.3112 C   0  0  0  0  0  0  0  0  0  0  0  0
   -3.0602    2.7376    6.4590 C   0  0  0  0  0  0  0  0  0  0  0  0
   -0.6419    2.2825    7.2787 C   0  0  2  0  0  0  0  0  0  0  0  0
   -0.4489    1.5382    8.6392 C   0  0  1  0  0  0  0  0  0  0  0  0
   -0.2092    0.1192    8.4183 O   0  0  0  0  0  0  0  0  0  0  0  0
    1.1563    0.2817    8.8772 C   0  0  1  0  0  0  0  0  0  0  0  0
    1.5139   -0.6423   10.0244 C   0  0  0  0  0  0  0  0  0  0  0  0
    1.8317   -1.9208    9.5192 O   0  0  0  0  0  0  0  0  0  0  0  0
    0.7522    1.5522    9.4535 O   0  0  0  0  0  0  0  0  0  0  0  0
    3.2677   -0.2067    7.4525 O   0  0  0  0  0  0  0  0  0  0  0  0
    2.3059   -3.8013   -2.2632 H   0  0  0  0  0  0  0  0  0  0  0  0
    3.8714   -3.7853   -1.4029 H   0  0  0  0  0  0  0  0  0  0  0  0
    3.0651   -2.2672   -1.8243 H   0  0  0  0  0  0  0  0  0  0  0  0
    3.2863   -1.5612    0.2696 H   0  0  0  0  0  0  0  0  0  0  0  0
    4.8525   -3.5952    0.9529 H   0  0  0  0  0  0  0  0  0  0  0  0
    2.8110   -5.0399    1.4311 H   0  0  0  0  0  0  0  0  0  0  0  0
    3.6108   -4.8449    3.0343 H   0  0  0  0  0  0  0  0  0  0  0  0
    1.1846   -1.7442    2.0173 H   0  0  0  0  0  0  0  0  0  0  0  0
    4.5992   -1.3889    5.4054 H   0  0  0  0  0  0  0  0  0  0  0  0
    1.0295    0.8353    5.6556 H   0  0  0  0  0  0  0  0  0  0  0  0
    1.1481   -0.8802    6.2868 H   0  0  0  0  0  0  0  0  0  0  0  0
    3.8185    3.2148    6.9629 H   0  0  0  0  0  0  0  0  0  0  0  0
    4.2777    2.5242    4.0810 H   0  0  0  0  0  0  0  0  0  0  0  0
    7.6507    0.2118    3.8080 H   0  0  0  0  0  0  0  0  0  0  0  0
    6.6797   -0.2321    5.3034 H   0  0  0  0  0  0  0  0  0  0  0  0
    6.7894    1.3612    4.6803 H   0  0  0  0  0  0  0  0  0  0  0  0
    2.5007    0.3868    2.8874 H   0  0  0  0  0  0  0  0  0  0  0  0
    3.9031    1.3653    1.5292 H   0  0  0  0  0  0  0  0  0  0  0  0
    2.0615    4.1861    5.4491 H   0  0  0  0  0  0  0  0  0  0  0  0
   -0.7509    5.1386    6.3636 H   0  0  0  0  0  0  0  0  0  0  0  0
   -0.6418    3.0579    4.5631 H   0  0  0  0  0  0  0  0  0  0  0  0
   -2.8053    3.4743    8.9842 H   0  0  0  0  0  0  0  0  0  0  0  0
   -2.8182    4.9786    8.0535 H   0  0  0  0  0  0  0  0  0  0  0  0
   -1.3269    4.4389    8.8442 H   0  0  0  0  0  0  0  0  0  0  0  0
   -3.5968    2.1355    7.1872 H   0  0  0  0  0  0  0  0  0  0  0  0
   -2.8109    2.1307    5.5926 H   0  0  0  0  0  0  0  0  0  0  0  0
   -3.7273    3.5140    6.0825 H   0  0  0  0  0  0  0  0  0  0  0  0
   -0.9162    1.4887    6.5826 H   0  0  0  0  0  0  0  0  0  0  0  0
   -1.3266    1.6177    9.2844 H   0  0  0  0  0  0  0  0  0  0  0  0
    2.3676   -0.2307   10.5660 H   0  0  0  0  0  0  0  0  0  0  0  0
    0.6902   -0.7014   10.7415 H   0  0  0  0  0  0  0  0  0  0  0  0
    2.2168   -2.4141   10.2229 H   0  0  0  0  0  0  0  0  0  0  0  0
  1  2  1  0
  1 40  1  0
  1 41  1  0
  1 42  1  0
  2  3  1  0
  3  7  1  0
  3  4  1  0
  3 43  1  6
  4  9  1  0
  4  5  1  0
  4 44  1  6
  5  6  1  0
  5 45  1  0
  5 46  1  0
  6  7  1  0
  7  8  1  0
  7 47  1  6
  8 22  1  0
  8  9  1  1
  8 10  1  0
 10 11  1  0
 11 19  1  0
 11 12  1  0
 11 48  1  1
 12 17  1  0
 12 39  1  1
 12 13  1  0
 13 14  1  0
 13 49  1  0
 13 50  1  0
 14 35  1  0
 14 15  1  0
 14 39  1  1
 15 16  1  0
 16 17  1  0
 16 24  1  0
 16 51  1  1
 17 18  2  0
 18 19  1  0
 18 52  1  0
 19 20  1  6
 19 22  1  0
 20 21  1  0
 21 53  1  0
 21 54  1  0
 21 55  1  0
 22 23  1  0
 22 56  1  1
 23 57  1  0
 24 26  1  0
 24 25  1  0
 24 58  1  6
 26 25  1  1
 26 32  1  0
 26 27  1  0
 27 28  1  0
 27 29  1  0
 27 59  1  6
 28 60  1  0
 29 30  1  0
 29 31  1  0
 29 32  1  0
 30 61  1  0
 30 62  1  0
 30 63  1  0
 31 64  1  0
 31 65  1  0
 31 66  1  0
 32 33  1  0
 32 67  1  6
 33 38  1  0
 33 34  1  0
 33 68  1  1
 34 35  1  0
 35 36  1  1
 35 38  1  0
 36 37  1  0
 36 69  1  0
 36 70  1  0
 37 71  1  0
M  END
>  <i_m_ct_stereo_status>  (173) 
1

>  <s_m_source_file>  (173) 
/var/tmp/pbs.5076253.sched01/tmp4uievzq0/12082cxahoa.sdf

>  <i_m_source_file_index>  (173) 
25

>  <i_lp_mmshare_version>  (173) 
48012

>  <i_f3d_flags>  (173) 
0

>  <s_epik_input>  (173) 
TzFbQ0gyXVtDQEhdKE8yKVtDQEBIXShPW0NIM10pW0NAQEhdMVtDQEBdMjNPW0NAQEhdNFtDQEBdNTZDKD1bQ0hdW0NAXTQoT1tDSDNdKVtDQEhdM1tPSF0pW0NASF03W0NASF04W0NAXTkoTzgpW0NASF0oQyhbQ0gzXSkoW0NIM10pW0NAQEhdOVtPSF0pW0NASF0xT1tDQF0oTzEpKFtDQEBdKE83KShPNilbQ0gyXTUpW0NIMl1bT0hd

>  <s_epik_cmdline>  (173) 
J2VwaWtfcHl0aG9uJywgJy1waHQnLCAnMi4wJywgJy1waCcsICc3LjAnLCAnLXRuJywgJzgnLCAnLW1hJywgJzIwMCcsICctaW1hZScsICc8aW5maWxlLm1hZT4nLCAnLW9tYWUnLCAnPG91dGZpbGUubWFlPic=

>  <r_epik_Ionization_Penalty>  (173) 
0.0046528

>  <r_epik_Ionization_Penalty_Charging>  (173) 
0

>  <r_epik_Ionization_Penalty_Neutral>  (173) 
0.0046528

>  <r_epik_State_Penalty>  (173) 
0.00336443

>  <r_epik_Charging_Adjusted_Penalty>  (173) 
0.00336443

>  <i_epik_Tot_Q>  (173) 
0

>  <i_epik_Tot_abs_Q>  (173) 
0

>  <s_epik_Chemistry_Notes>  (173) 
This compound contains an acetal/aminal-like group ( X-CH(R)-Y where X, Y are N, S, or O) that may be acid/base labile, releasing an aldehyde.

>  <s_lp_Force_Field>  (173) 
OPLS3e

>  <r_lp_Energy>  (173) 
80.3791

>  <b_lp_Chiralities_Consistent>  (173) 
1

>  <s_lp_Variant>  (173) 
96:0-1

>  <s_i_glide_gridfile>  (173) 
pfpi4k_grid

>  <i_i_glide_lignum>  (173) 
25

>  <i_i_glide_rotatable_bonds>  (173) 
6

>  <r_i_docking_score>  (173) 
-1.95696

>  <r_i_glide_ligand_efficiency>  (173) 
-0.0501784

>  <r_i_glide_ligand_efficiency_sa>  (173) 
-0.170166

>  <r_i_glide_ligand_efficiency_ln>  (173) 
-0.419627

>  <r_i_glide_gscore>  (173) 
-1.95696

>  <r_i_glide_lipo>  (173) 
-0.518811

>  <r_i_glide_hbond>  (173) 
-0.0417659

>  <r_i_glide_metal>  (173) 
-0

>  <r_i_glide_rewards>  (173) 
0

>  <r_i_glide_evdw>  (173) 
-16.1893

>  <r_i_glide_ecoul>  (173) 
-4.19755

>  <r_i_glide_erotb>  (173) 
0.0679544

>  <r_i_glide_esite>  (173) 
-0.0252377

>  <r_i_glide_emodel>  (173) 
-21.5484

>  <r_i_glide_energy>  (173) 
-20.3868

>  <r_i_glide_einternal>  (173) 
0.995168

>  <r_i_glide_intrahb_reward>  (173) 
-0

>  <i_i_glide_confnum>  (173) 
6

>  <i_i_glide_posenum>  (173) 
4

>  <r_i_glide_eff_state_penalty>  (173) 
0

>  <ligand_id>  (173) 
96

>  <original_smiles>  (173) 
COC1C2COC1C1(O2)OC2C34CC5(OC(C3=CC2(OC)C1O)C1OC12C(O)C(C)(C)C2C1OC5(CO)O1)O4

>  <smiles>  (173) 
[H]OC([H])([H])C12OC([H])(O1)C1([H])C3(OC3([H])C3([H])OC24OC2(C3=C([H])C3(OC([H])([H])[H])C([H])(O[H])C5(OC6([H])C([H])([H])OC5([H])C6([H])OC([H])([H])[H])OC23[H])C4([H])[H])C([H])(O[H])C1(C([H])([H])[H])C([H])([H])[H]

$$$$
96:0:2
     RDKit          3D

 71 80  0  0  1  0  0  0  0  0999 V2000
    2.6517   -2.5989    0.5824 C   0  0  0  0  0  0  0  0  0  0  0  0
    3.3188   -3.4568    1.4928 O   0  0  0  0  0  0  0  0  0  0  0  0
    3.8956   -2.7099    2.5557 C   0  0  2  0  0  0  0  0  0  0  0  0
    4.7436   -3.4755    3.5538 C   0  0  2  0  0  0  0  0  0  0  0  0
    3.7292   -4.4861    4.0847 C   0  0  0  0  0  0  0  0  0  0  0  0
    2.5543   -3.6717    4.2020 O   0  0  0  0  0  0  0  0  0  0  0  0
    2.9103   -2.3759    3.6767 C   0  0  1  0  0  0  0  0  0  0  0  0
    3.8672   -1.7000    4.6811 C   0  0  2  0  0  0  0  0  0  0  0  0
    5.0239   -2.4904    4.5708 O   0  0  0  0  0  0  0  0  0  0  0  0
    3.3424   -1.6975    5.9831 O   0  0  0  0  0  0  0  0  0  0  0  0
    4.0710   -0.7397    6.7764 C   0  0  2  0  0  0  0  0  0  0  0  0
    3.1824    0.2053    7.6305 C   0  0  2  0  0  0  0  0  0  0  0  0
    1.6803    0.2933    7.5813 C   0  0  0  0  0  0  0  0  0  0  0  0
    1.8941    0.8094    9.0339 C   0  0  1  0  0  0  0  0  0  0  0  0
    2.3239    2.1636    9.1957 O   0  0  0  0  0  0  0  0  0  0  0  0
    3.0740    2.7289    8.1442 C   0  0  1  0  0  0  0  0  0  0  0  0
    3.6627    1.6008    7.3073 C   0  0  0  0  0  0  0  0  0  0  0  0
    4.5147    1.6018    6.2901 C   0  0  0  0  0  0  0  0  0  0  0  0
    4.8395    0.1955    5.7963 C   0  0  1  0  0  0  0  0  0  0  0  0
    6.2445   -0.1196    5.8916 O   0  0  0  0  0  0  0  0  0  0  0  0
    7.1492    0.7532    5.2046 C   0  0  0  0  0  0  0  0  0  0  0  0
    4.1835   -0.2167    4.4698 C   0  0  1  0  0  0  0  0  0  0  0  0
    4.8394    0.1549    3.2716 O   0  0  0  0  0  0  0  0  0  0  0  0
    2.0509    3.6234    7.4523 C   0  0  2  0  0  0  0  0  0  0  0  0
    1.2181    4.3381    8.3791 O   0  0  0  0  0  0  0  0  0  0  0  0
    0.5127    3.5340    7.4773 C   0  0  1  0  0  0  0  0  0  0  0  0
   -0.5068    4.3329    6.7280 C   0  0  1  0  0  0  0  0  0  0  0  0
   -0.3838    4.0406    5.3537 O   0  0  0  0  0  0  0  0  0  0  0  0
   -1.6431    3.6477    7.5057 C   0  0  0  0  0  0  0  0  0  0  0  0
   -2.2482    4.5374    8.5958 C   0  0  0  0  0  0  0  0  0  0  0  0
   -2.8132    3.1074    6.6705 C   0  0  0  0  0  0  0  0  0  0  0  0
   -0.6064    2.6177    8.0026 C   0  0  2  0  0  0  0  0  0  0  0  0
   -0.7626    1.9306    9.3946 C   0  0  1  0  0  0  0  0  0  0  0  0
   -0.5351    0.4921    9.3027 O   0  0  0  0  0  0  0  0  0  0  0  0
    0.7198    0.6400   10.0198 C   0  0  1  0  0  0  0  0  0  0  0  0
    0.7928   -0.2234   11.2696 C   0  0  0  0  0  0  0  0  0  0  0  0
    1.1601   -1.5369   10.9068 O   0  0  0  0  0  0  0  0  0  0  0  0
    0.2620    1.9641   10.4195 O   0  0  0  0  0  0  0  0  0  0  0  0
    3.0676   -0.0315    9.0784 O   0  0  0  0  0  0  0  0  0  0  0  0
    2.2676   -3.1696   -0.2640 H   0  0  0  0  0  0  0  0  0  0  0  0
    3.3159   -1.8235    0.1875 H   0  0  0  0  0  0  0  0  0  0  0  0
    1.8160   -2.0985    1.0765 H   0  0  0  0  0  0  0  0  0  0  0  0
    4.4832   -1.8896    2.1462 H   0  0  0  0  0  0  0  0  0  0  0  0
    5.6630   -3.8986    3.1665 H   0  0  0  0  0  0  0  0  0  0  0  0
    3.5592   -5.2477    3.3253 H   0  0  0  0  0  0  0  0  0  0  0  0
    4.0014   -4.9606    5.0275 H   0  0  0  0  0  0  0  0  0  0  0  0
    2.0260   -1.7801    3.4580 H   0  0  0  0  0  0  0  0  0  0  0  0
    4.7987   -1.2538    7.4065 H   0  0  0  0  0  0  0  0  0  0  0  0
    1.2845    0.9864    6.8383 H   0  0  0  0  0  0  0  0  0  0  0  0
    1.2123   -0.6896    7.5567 H   0  0  0  0  0  0  0  0  0  0  0  0
    3.8592    3.3505    8.5735 H   0  0  0  0  0  0  0  0  0  0  0  0
    4.9423    2.4950    5.8846 H   0  0  0  0  0  0  0  0  0  0  0  0
    8.1520    0.3436    5.2411 H   0  0  0  0  0  0  0  0  0  0  0  0
    7.1700    1.7333    5.6712 H   0  0  0  0  0  0  0  0  0  0  0  0
    6.9512    0.8925    4.1467 H   0  0  0  0  0  0  0  0  0  0  0  0
    3.2198    0.2684    4.4222 H   0  0  0  0  0  0  0  0  0  0  0  0
    4.5101    0.9922    2.9880 H   0  0  0  0  0  0  0  0  0  0  0  0
    2.4788    4.2491    6.6684 H   0  0  0  0  0  0  0  0  0  0  0  0
   -0.4301    5.4070    6.8830 H   0  0  0  0  0  0  0  0  0  0  0  0
   -0.0537    3.1545    5.3098 H   0  0  0  0  0  0  0  0  0  0  0  0
   -2.9886    4.0040    9.1882 H   0  0  0  0  0  0  0  0  0  0  0  0
   -2.7227    5.4344    8.1846 H   0  0  0  0  0  0  0  0  0  0  0  0
   -1.4659    4.8728    9.2767 H   0  0  0  0  0  0  0  0  0  0  0  0
   -3.5139    2.5493    7.2911 H   0  0  0  0  0  0  0  0  0  0  0  0
   -2.4689    2.4387    5.8790 H   0  0  0  0  0  0  0  0  0  0  0  0
   -3.3779    3.9006    6.1787 H   0  0  0  0  0  0  0  0  0  0  0  0
   -0.7390    1.8035    7.3000 H   0  0  0  0  0  0  0  0  0  0  0  0
   -1.7584    2.0873    9.8349 H   0  0  0  0  0  0  0  0  0  0  0  0
    1.5411    0.1807   11.9536 H   0  0  0  0  0  0  0  0  0  0  0  0
   -0.1569   -0.2324   11.8180 H   0  0  0  0  0  0  0  0  0  0  0  0
    1.2813   -2.0361   11.6979 H   0  0  0  0  0  0  0  0  0  0  0  0
  1  2  1  0
  1 40  1  0
  1 41  1  0
  1 42  1  0
  2  3  1  0
  3  7  1  0
  3  4  1  0
  3 43  1  6
  4  9  1  0
  4  5  1  0
  4 44  1  6
  5  6  1  0
  5 45  1  0
  5 46  1  0
  6  7  1  0
  7  8  1  0
  7 47  1  6
  8 22  1  0
  8  9  1  1
  8 10  1  0
 10 11  1  0
 11 19  1  0
 11 12  1  0
 11 48  1  1
 12 17  1  0
 12 39  1  1
 12 13  1  0
 13 14  1  0
 13 49  1  0
 13 50  1  0
 14 35  1  0
 14 15  1  0
 14 39  1  1
 15 16  1  0
 16 17  1  0
 16 24  1  0
 16 51  1  1
 17 18  2  0
 18 19  1  0
 18 52  1  0
 19 20  1  6
 19 22  1  0
 20 21  1  0
 21 53  1  0
 21 54  1  0
 21 55  1  0
 22 23  1  0
 22 56  1  6
 23 57  1  0
 24 26  1  0
 24 25  1  0
 24 58  1  6
 26 25  1  1
 26 32  1  0
 26 27  1  0
 27 28  1  0
 27 29  1  0
 27 59  1  6
 28 60  1  0
 29 30  1  0
 29 31  1  0
 29 32  1  0
 30 61  1  0
 30 62  1  0
 30 63  1  0
 31 64  1  0
 31 65  1  0
 31 66  1  0
 32 33  1  0
 32 67  1  6
 33 38  1  0
 33 34  1  0
 33 68  1  1
 34 35  1  0
 35 36  1  1
 35 38  1  0
 36 37  1  0
 36 69  1  0
 36 70  1  0
 37 71  1  0
M  END
>  <i_m_ct_stereo_status>  (174) 
1

>  <s_m_source_file>  (174) 
/var/tmp/pbs.5076253.sched01/tmp4uievzq0/12082cxahoa.sdf

>  <i_m_source_file_index>  (174) 
25

>  <i_lp_mmshare_version>  (174) 
48012

>  <i_f3d_flags>  (174) 
0

>  <s_epik_input>  (174) 
TzFbQ0gyXVtDQEhdKE8yKVtDQEBIXShPW0NIM10pW0NAQEhdMVtDQEBdMjNPW0NAQEhdNFtDQEBdNTZDKD1bQ0hdW0NAXTQoT1tDSDNdKVtDQEhdM1tPSF0pW0NASF03W0NASF04W0NAXTkoTzgpW0NASF0oQyhbQ0gzXSkoW0NIM10pW0NAQEhdOVtPSF0pW0NASF0xT1tDQF0oTzEpKFtDQEBdKE83KShPNilbQ0gyXTUpW0NIMl1bT0hd

>  <s_epik_cmdline>  (174) 
J2VwaWtfcHl0aG9uJywgJy1waHQnLCAnMi4wJywgJy1waCcsICc3LjAnLCAnLXRuJywgJzgnLCAnLW1hJywgJzIwMCcsICctaW1hZScsICc8aW5maWxlLm1hZT4nLCAnLW9tYWUnLCAnPG91dGZpbGUubWFlPic=

>  <r_epik_Ionization_Penalty>  (174) 
0.0046528

>  <r_epik_Ionization_Penalty_Charging>  (174) 
0

>  <r_epik_Ionization_Penalty_Neutral>  (174) 
0.0046528

>  <r_epik_State_Penalty>  (174) 
0.00336443

>  <r_epik_Charging_Adjusted_Penalty>  (174) 
0.00336443

>  <i_epik_Tot_Q>  (174) 
0

>  <i_epik_Tot_abs_Q>  (174) 
0

>  <s_epik_Chemistry_Notes>  (174) 
This compound contains an acetal/aminal-like group ( X-CH(R)-Y where X, Y are N, S, or O) that may be acid/base labile, releasing an aldehyde.

>  <s_lp_Force_Field>  (174) 
OPLS3e

>  <r_lp_Energy>  (174) 
80.3791

>  <b_lp_Chiralities_Consistent>  (174) 
1

>  <s_lp_Variant>  (174) 
96:0-1

>  <s_i_glide_gridfile>  (174) 
pfpi4k_grid

>  <i_i_glide_lignum>  (174) 
25

>  <i_i_glide_rotatable_bonds>  (174) 
6

>  <r_i_docking_score>  (174) 
-1.8585

>  <r_i_glide_ligand_efficiency>  (174) 
-0.0476539

>  <r_i_glide_ligand_efficiency_sa>  (174) 
-0.161604

>  <r_i_glide_ligand_efficiency_ln>  (174) 
-0.398516

>  <r_i_glide_gscore>  (174) 
-1.8585

>  <r_i_glide_lipo>  (174) 
-0.506548

>  <r_i_glide_hbond>  (174) 
0

>  <r_i_glide_metal>  (174) 
-0

>  <r_i_glide_rewards>  (174) 
0

>  <r_i_glide_evdw>  (174) 
-17.1144

>  <r_i_glide_ecoul>  (174) 
-3.50895

>  <r_i_glide_erotb>  (174) 
0.0679544

>  <r_i_glide_esite>  (174) 
-0.0378463

>  <r_i_glide_emodel>  (174) 
-20.9158

>  <r_i_glide_energy>  (174) 
-20.6233

>  <r_i_glide_einternal>  (174) 
1.77997

>  <r_i_glide_intrahb_reward>  (174) 
-0

>  <i_i_glide_confnum>  (174) 
6

>  <i_i_glide_posenum>  (174) 
15

>  <r_i_glide_eff_state_penalty>  (174) 
0

>  <ligand_id>  (174) 
96

>  <original_smiles>  (174) 
COC1C2COC1C1(O2)OC2C34CC5(OC(C3=CC2(OC)C1O)C1OC12C(O)C(C)(C)C2C1OC5(CO)O1)O4

>  <smiles>  (174) 
[H]OC([H])([H])C12OC([H])(O1)C1([H])C3(OC3([H])C3([H])OC24OC2(C3=C([H])C3(OC([H])([H])[H])C([H])(O[H])C5(OC6([H])C([H])([H])OC5([H])C6([H])OC([H])([H])[H])OC23[H])C4([H])[H])C([H])(O[H])C1(C([H])([H])[H])C([H])([H])[H]

$$$$
105:0:0
     RDKit          3D

 40 46  0  0  1  0  0  0  0  0999 V2000
    0.0235   -6.5677    2.9798 O   0  0  0  0  0  0  0  0  0  0  0  0
    1.0637   -5.9623    3.2708 C   0  0  0  0  0  0  0  0  0  0  0  0
    1.8588   -6.1445    4.4753 C   0  0  0  0  0  0  0  0  0  0  0  0
    2.9024   -5.3379    4.3597 C   0  0  0  0  0  0  0  0  0  0  0  0
    2.8635   -4.6040    3.0558 C   0  0  2  0  0  0  0  0  0  0  0  0
    1.6410   -5.0118    2.4936 O   0  0  0  0  0  0  0  0  0  0  0  0
    3.9576   -4.9169    2.2273 O   0  0  0  0  0  0  0  0  0  0  0  0
    4.3780   -3.7632    1.4584 C   0  0  1  0  0  0  0  0  0  0  0  0
    4.5226   -4.2066   -0.0142 C   0  0  2  0  0  0  0  0  0  0  0  0
    5.9186   -4.1708   -0.3747 O   0  0  0  0  0  0  0  0  0  0  0  0
    6.2057   -3.1495   -1.3834 C   0  0  2  0  0  0  0  0  0  0  0  0
    6.7653   -1.8991   -0.8780 O   0  0  0  0  0  0  0  0  0  0  0  0
    5.4617   -1.2293   -0.9677 C   0  0  0  0  0  0  0  0  0  0  0  0
    4.8712   -2.4545   -1.6831 C   0  0  1  0  0  0  0  0  0  0  0  0
    4.3284   -2.2671   -2.9857 O   0  0  0  0  0  0  0  0  0  0  0  0
    3.0215   -2.6672   -2.9975 C   0  0  0  0  0  0  0  0  0  0  0  0
    2.2320   -2.5163   -3.9054 O   0  0  0  0  0  0  0  0  0  0  0  0
    2.7510   -3.3902   -1.7386 C   0  0  0  0  0  0  0  0  0  0  0  0
    3.8735   -3.2863   -1.0133 C   0  0  0  0  0  0  0  0  0  0  0  0
    3.2482   -2.7650    1.7250 C   0  0  2  0  0  0  0  0  0  0  0  0
    3.3120   -1.2227    1.7394 C   0  0  1  0  0  0  0  0  0  0  0  0
    3.0100   -0.5481    0.5336 O   0  0  0  0  0  0  0  0  0  0  0  0
    2.2155   -0.8967    2.7248 C   0  0  1  0  0  0  0  0  0  0  0  0
    0.9770   -1.6096    2.5218 O   0  0  0  0  0  0  0  0  0  0  0  0
    1.8458   -2.1313    3.5307 C   0  0  1  0  0  0  0  0  0  0  0  0
    2.9483   -3.0864    3.1715 C   0  0  1  0  0  0  0  0  0  0  0  0
    1.6148   -6.8112    5.2911 H   0  0  0  0  0  0  0  0  0  0  0  0
    3.6840   -5.2004    5.0983 H   0  0  0  0  0  0  0  0  0  0  0  0
    5.3243   -3.3964    1.8640 H   0  0  0  0  0  0  0  0  0  0  0  0
    4.1781   -5.2370   -0.1508 H   0  0  0  0  0  0  0  0  0  0  0  0
    6.8005   -3.4458   -2.2526 H   0  0  0  0  0  0  0  0  0  0  0  0
    5.0649   -0.9803    0.0171 H   0  0  0  0  0  0  0  0  0  0  0  0
    5.4872   -0.3656   -1.6639 H   0  0  0  0  0  0  0  0  0  0  0  0
    1.9289   -4.0592   -1.5888 H   0  0  0  0  0  0  0  0  0  0  0  0
    2.3786   -3.0642    1.1306 H   0  0  0  0  0  0  0  0  0  0  0  0
    4.2626   -0.9115    2.1652 H   0  0  0  0  0  0  0  0  0  0  0  0
    2.2404   -0.9477    0.1957 H   0  0  0  0  0  0  0  0  0  0  0  0
    2.1136    0.1204    3.0885 H   0  0  0  0  0  0  0  0  0  0  0  0
    1.5134   -1.9869    4.5498 H   0  0  0  0  0  0  0  0  0  0  0  0
    3.8110   -2.8616    3.8130 H   0  0  0  0  0  0  0  0  0  0  0  0
  1  2  2  0
  2  6  1  0
  2  3  1  0
  3  4  2  0
  3 27  1  0
  4  5  1  0
  4 28  1  0
  5 26  1  0
  5  6  1  6
  5  7  1  0
  7  8  1  0
  8  9  1  0
  8 20  1  0
  8 29  1  1
  9 19  1  0
  9 10  1  0
  9 30  1  1
 10 11  1  0
 11 14  1  0
 11 12  1  0
 11 31  1  6
 12 13  1  0
 13 14  1  0
 13 32  1  0
 13 33  1  0
 14 19  1  0
 14 15  1  6
 15 16  1  0
 16 17  2  0
 16 18  1  0
 18 19  2  0
 18 34  1  0
 20 26  1  0
 20 21  1  0
 20 35  1  6
 21 22  1  0
 21 23  1  0
 21 36  1  1
 22 37  1  0
 23 25  1  0
 23 24  1  0
 23 38  1  1
 24 25  1  0
 25 26  1  0
 25 39  1  1
 26 40  1  1
M  END
>  <i_m_ct_stereo_status>  (175) 
1

>  <s_m_source_file>  (175) 
/var/tmp/pbs.5076253.sched01/tmp4uievzq0/12082cxahoa.sdf

>  <i_m_source_file_index>  (175) 
36

>  <i_lp_mmshare_version>  (175) 
48012

>  <i_f3d_flags>  (175) 
0

>  <s_epik_input>  (175) 
Tz1DKE8xKVtDSF09W0NIXVtDQF0xMltDQEhdM1tDQEBIXShbQ0BASF0oW09IXSlbQ0BASF00W0NASF0zTzQpW0NAQEhdKE8yKVtDQEBIXShDNT1bQ0hdQyhPNik9TylPW0NAQEhdKFtDQF01NjcpT1tDSDJdNw==

>  <s_epik_cmdline>  (175) 
J2VwaWtfcHl0aG9uJywgJy1waHQnLCAnMi4wJywgJy1waCcsICc3LjAnLCAnLXRuJywgJzgnLCAnLW1hJywgJzIwMCcsICctaW1hZScsICc8aW5maWxlLm1hZT4nLCAnLW9tYWUnLCAnPG91dGZpbGUubWFlPic=

>  <r_lp_tautomer_probability>  (175) 
1

>  <r_epik_Ionization_Penalty>  (175) 
9.55352e-07

>  <r_epik_Ionization_Penalty_Charging>  (175) 
0

>  <r_epik_Ionization_Penalty_Neutral>  (175) 
9.55352e-07

>  <r_epik_State_Penalty>  (175) 
-0

>  <r_epik_Charging_Adjusted_Penalty>  (175) 
0

>  <i_epik_Tot_Q>  (175) 
0

>  <i_epik_Tot_abs_Q>  (175) 
0

>  <s_epik_Chemistry_Notes>  (175) 
This compound has an ester and may undergo hydrolysis at high or low pH. This compound contains an acetal/aminal-like group ( X-CH(R)-Y where X, Y are N, S, or O) that may be acid/base labile, releasing an aldehyde.

>  <s_lp_Force_Field>  (175) 
OPLS3e

>  <r_lp_Energy>  (175) 
18.8578

>  <b_lp_Chiralities_Consistent>  (175) 
1

>  <s_lp_Variant>  (175) 
105:0-1

>  <s_i_glide_gridfile>  (175) 
pfpi4k_grid

>  <i_i_glide_lignum>  (175) 
36

>  <i_i_glide_rotatable_bonds>  (175) 
2

>  <r_i_docking_score>  (175) 
-3.62872

>  <r_i_glide_ligand_efficiency>  (175) 
-0.139566

>  <r_i_glide_ligand_efficiency_sa>  (175) 
-0.413465

>  <r_i_glide_ligand_efficiency_ln>  (175) 
-0.852194

>  <r_i_glide_gscore>  (175) 
-3.62872

>  <r_i_glide_lipo>  (175) 
-0.184906

>  <r_i_glide_hbond>  (175) 
-0.283407

>  <r_i_glide_metal>  (175) 
-0

>  <r_i_glide_rewards>  (175) 
-1.08332

>  <r_i_glide_evdw>  (175) 
-25.3895

>  <r_i_glide_ecoul>  (175) 
-6.15985

>  <r_i_glide_erotb>  (175) 
0.146285

>  <r_i_glide_esite>  (175) 
-0.0299176

>  <r_i_glide_emodel>  (175) 
-36.9292

>  <r_i_glide_energy>  (175) 
-31.5494

>  <r_i_glide_einternal>  (175) 
2.73899

>  <r_i_glide_intrahb_reward>  (175) 
-0

>  <i_i_glide_confnum>  (175) 
4

>  <i_i_glide_posenum>  (175) 
1

>  <r_i_glide_eff_state_penalty>  (175) 
0

>  <ligand_id>  (175) 
105

>  <original_smiles>  (175) 
O=C1C=CC2(O1)OC(C1OC3OCC34OC(=O)C=C14)C1C(O)C3OC3C12

>  <smiles>  (175) 
[H]OC1([H])C2([H])OC2([H])C2([H])C3(OC(=O)C([H])=C3[H])OC([H])(C3([H])OC4([H])OC([H])([H])C45OC(=O)C([H])=C35)C12[H]

$$$$
105:0:1
     RDKit          3D

 40 46  0  0  1  0  0  0  0  0999 V2000
   -0.2197   -6.9171    1.9762 O   0  0  0  0  0  0  0  0  0  0  0  0
    0.8366   -6.4970    2.4609 C   0  0  0  0  0  0  0  0  0  0  0  0
    1.5208   -7.0056    3.6403 C   0  0  0  0  0  0  0  0  0  0  0  0
    2.6023   -6.2558    3.8092 C   0  0  0  0  0  0  0  0  0  0  0  0
    2.6856   -5.2267    2.7169 C   0  0  2  0  0  0  0  0  0  0  0  0
    1.5209   -5.4324    1.9748 O   0  0  0  0  0  0  0  0  0  0  0  0
    3.8311   -5.3914    1.9207 O   0  0  0  0  0  0  0  0  0  0  0  0
    4.3734   -4.1184    1.4806 C   0  0  1  0  0  0  0  0  0  0  0  0
    4.6550   -4.2024   -0.0390 C   0  0  2  0  0  0  0  0  0  0  0  0
    6.0751   -4.2642   -0.2706 O   0  0  0  0  0  0  0  0  0  0  0  0
    6.5823   -3.0964   -0.9598 C   0  0  2  0  0  0  0  0  0  0  0  0
    7.2168   -2.1044   -0.0893 O   0  0  0  0  0  0  0  0  0  0  0  0
    6.0127   -1.2817   -0.0977 C   0  0  0  0  0  0  0  0  0  0  0  0
    5.3922   -2.1799   -1.1489 C   0  0  1  0  0  0  0  0  0  0  0  0
    5.0281   -1.6168   -2.3896 O   0  0  0  0  0  0  0  0  0  0  0  0
    3.6946   -1.8322   -2.6586 C   0  0  0  0  0  0  0  0  0  0  0  0
    3.0506   -1.3642   -3.5798 O   0  0  0  0  0  0  0  0  0  0  0  0
    3.2235   -2.8030   -1.6487 C   0  0  0  0  0  0  0  0  0  0  0  0
    4.2455   -3.0000   -0.8064 C   0  0  0  0  0  0  0  0  0  0  0  0
    3.2614   -3.1477    1.8915 C   0  0  2  0  0  0  0  0  0  0  0  0
    3.3728   -1.6471    2.2558 C   0  0  1  0  0  0  0  0  0  0  0  0
    3.2373   -0.7519    1.2073 O   0  0  0  0  0  0  0  0  0  0  0  0
    2.1991   -1.4973    3.2059 C   0  0  1  0  0  0  0  0  0  0  0  0
    0.9784   -2.0851    2.7490 O   0  0  0  0  0  0  0  0  0  0  0  0
    1.7450   -2.8544    3.6805 C   0  0  1  0  0  0  0  0  0  0  0  0
    2.8375   -3.7853    3.1899 C   0  0  1  0  0  0  0  0  0  0  0  0
    1.1713   -7.8138    4.2700 H   0  0  0  0  0  0  0  0  0  0  0  0
    3.2952   -6.3386    4.6277 H   0  0  0  0  0  0  0  0  0  0  0  0
    5.2868   -3.8920    2.0358 H   0  0  0  0  0  0  0  0  0  0  0  0
    4.1586   -5.0840   -0.4647 H   0  0  0  0  0  0  0  0  0  0  0  0
    7.1898   -3.3197   -1.8448 H   0  0  0  0  0  0  0  0  0  0  0  0
    5.4803   -1.2189    0.8376 H   0  0  0  0  0  0  0  0  0  0  0  0
    6.2257   -0.3065   -0.5372 H   0  0  0  0  0  0  0  0  0  0  0  0
    2.3465   -3.4094   -1.7404 H   0  0  0  0  0  0  0  0  0  0  0  0
    2.4370   -3.2451    1.1777 H   0  0  0  0  0  0  0  0  0  0  0  0
    4.2959   -1.4459    2.8251 H   0  0  0  0  0  0  0  0  0  0  0  0
    2.4477   -1.0032    0.7100 H   0  0  0  0  0  0  0  0  0  0  0  0
    2.1095   -0.6013    3.8185 H   0  0  0  0  0  0  0  0  0  0  0  0
    1.3349   -2.9673    4.6878 H   0  0  0  0  0  0  0  0  0  0  0  0
    3.6445   -3.7652    3.9286 H   0  0  0  0  0  0  0  0  0  0  0  0
  1  2  2  0
  2  6  1  0
  2  3  1  0
  3  4  2  0
  3 27  1  0
  4  5  1  0
  4 28  1  0
  5 26  1  0
  5  6  1  6
  5  7  1  0
  7  8  1  0
  8  9  1  0
  8 20  1  0
  8 29  1  1
  9 19  1  0
  9 10  1  0
  9 30  1  6
 10 11  1  0
 11 14  1  0
 11 12  1  0
 11 31  1  6
 12 13  1  0
 13 14  1  0
 13 32  1  0
 13 33  1  0
 14 19  1  0
 14 15  1  6
 15 16  1  0
 16 17  2  0
 16 18  1  0
 18 19  2  0
 18 34  1  0
 20 26  1  0
 20 21  1  0
 20 35  1  6
 21 22  1  0
 21 23  1  0
 21 36  1  1
 22 37  1  0
 23 25  1  0
 23 24  1  0
 23 38  1  1
 24 25  1  0
 25 26  1  0
 25 39  1  1
 26 40  1  1
M  END
>  <i_m_ct_stereo_status>  (176) 
1

>  <s_m_source_file>  (176) 
/var/tmp/pbs.5076253.sched01/tmp4uievzq0/12082cxahoa.sdf

>  <i_m_source_file_index>  (176) 
36

>  <i_lp_mmshare_version>  (176) 
48012

>  <i_f3d_flags>  (176) 
0

>  <s_epik_input>  (176) 
Tz1DKE8xKVtDSF09W0NIXVtDQF0xMltDQEhdM1tDQEBIXShbQ0BASF0oW09IXSlbQ0BASF00W0NASF0zTzQpW0NAQEhdKE8yKVtDQEBIXShDNT1bQ0hdQyhPNik9TylPW0NAQEhdKFtDQF01NjcpT1tDSDJdNw==

>  <s_epik_cmdline>  (176) 
J2VwaWtfcHl0aG9uJywgJy1waHQnLCAnMi4wJywgJy1waCcsICc3LjAnLCAnLXRuJywgJzgnLCAnLW1hJywgJzIwMCcsICctaW1hZScsICc8aW5maWxlLm1hZT4nLCAnLW9tYWUnLCAnPG91dGZpbGUubWFlPic=

>  <r_lp_tautomer_probability>  (176) 
1

>  <r_epik_Ionization_Penalty>  (176) 
9.55352e-07

>  <r_epik_Ionization_Penalty_Charging>  (176) 
0

>  <r_epik_Ionization_Penalty_Neutral>  (176) 
9.55352e-07

>  <r_epik_State_Penalty>  (176) 
-0

>  <r_epik_Charging_Adjusted_Penalty>  (176) 
0

>  <i_epik_Tot_Q>  (176) 
0

>  <i_epik_Tot_abs_Q>  (176) 
0

>  <s_epik_Chemistry_Notes>  (176) 
This compound has an ester and may undergo hydrolysis at high or low pH. This compound contains an acetal/aminal-like group ( X-CH(R)-Y where X, Y are N, S, or O) that may be acid/base labile, releasing an aldehyde.

>  <s_lp_Force_Field>  (176) 
OPLS3e

>  <r_lp_Energy>  (176) 
18.8578

>  <b_lp_Chiralities_Consistent>  (176) 
1

>  <s_lp_Variant>  (176) 
105:0-1

>  <s_i_glide_gridfile>  (176) 
pfpi4k_grid

>  <i_i_glide_lignum>  (176) 
36

>  <i_i_glide_rotatable_bonds>  (176) 
2

>  <r_i_docking_score>  (176) 
-3.16718

>  <r_i_glide_ligand_efficiency>  (176) 
-0.121814

>  <r_i_glide_ligand_efficiency_sa>  (176) 
-0.360875

>  <r_i_glide_ligand_efficiency_ln>  (176) 
-0.743801

>  <r_i_glide_gscore>  (176) 
-3.16718

>  <r_i_glide_lipo>  (176) 
-0.0612589

>  <r_i_glide_hbond>  (176) 
-0.230608

>  <r_i_glide_metal>  (176) 
-0

>  <r_i_glide_rewards>  (176) 
-1.0252

>  <r_i_glide_evdw>  (176) 
-28.2302

>  <r_i_glide_ecoul>  (176) 
-3.31169

>  <r_i_glide_erotb>  (176) 
0.146285

>  <r_i_glide_esite>  (176) 
-0.0881335

>  <r_i_glide_emodel>  (176) 
-36.6884

>  <r_i_glide_energy>  (176) 
-31.5419

>  <r_i_glide_einternal>  (176) 
2.32355

>  <r_i_glide_intrahb_reward>  (176) 
-0

>  <i_i_glide_confnum>  (176) 
1

>  <i_i_glide_posenum>  (176) 
32

>  <r_i_glide_eff_state_penalty>  (176) 
0

>  <ligand_id>  (176) 
105

>  <original_smiles>  (176) 
O=C1C=CC2(O1)OC(C1OC3OCC34OC(=O)C=C14)C1C(O)C3OC3C12

>  <smiles>  (176) 
[H]OC1([H])C2([H])OC2([H])C2([H])C3(OC(=O)C([H])=C3[H])OC([H])(C3([H])OC4([H])OC([H])([H])C45OC(=O)C([H])=C35)C12[H]

$$$$
105:0:2
     RDKit          3D

 40 46  0  0  1  0  0  0  0  0999 V2000
   -0.1481   -5.4301    4.8062 O   0  0  0  0  0  0  0  0  0  0  0  0
    0.9102   -4.8078    4.7132 C   0  0  0  0  0  0  0  0  0  0  0  0
    2.0294   -4.9004    5.6394 C   0  0  0  0  0  0  0  0  0  0  0  0
    2.9953   -4.1381    5.1583 C   0  0  0  0  0  0  0  0  0  0  0  0
    2.5578   -3.5180    3.8618 C   0  0  2  0  0  0  0  0  0  0  0  0
    1.2163   -3.9016    3.7376 O   0  0  0  0  0  0  0  0  0  0  0  0
    3.3427   -3.9555    2.7685 O   0  0  0  0  0  0  0  0  0  0  0  0
    3.6175   -2.8876    1.8268 C   0  0  1  0  0  0  0  0  0  0  0  0
    3.3261   -3.3934    0.3957 C   0  0  2  0  0  0  0  0  0  0  0  0
    3.8553   -4.7115    0.2483 O   0  0  0  0  0  0  0  0  0  0  0  0
    5.0018   -4.7367   -0.6259 C   0  0  2  0  0  0  0  0  0  0  0  0
    6.2718   -4.6096    0.0704 O   0  0  0  0  0  0  0  0  0  0  0  0
    6.4356   -3.2564   -0.4239 C   0  0  0  0  0  0  0  0  0  0  0  0
    5.1561   -3.3491   -1.2069 C   0  0  1  0  0  0  0  0  0  0  0  0
    5.1967   -2.9862   -2.5730 O   0  0  0  0  0  0  0  0  0  0  0  0
    4.3292   -1.9500   -2.8065 C   0  0  0  0  0  0  0  0  0  0  0  0
    4.2051   -1.3280   -3.8589 O   0  0  0  0  0  0  0  0  0  0  0  0
    3.5336   -1.7705   -1.5850 C   0  0  0  0  0  0  0  0  0  0  0  0
    4.0151   -2.6169   -0.6780 C   0  0  0  0  0  0  0  0  0  0  0  0
    2.6299   -1.8350    2.3132 C   0  0  2  0  0  0  0  0  0  0  0  0
    2.7246   -0.3243    2.1589 C   0  0  1  0  0  0  0  0  0  0  0  0
    2.3104    0.1589    0.9086 O   0  0  0  0  0  0  0  0  0  0  0  0
    1.8403    0.1465    3.3071 C   0  0  1  0  0  0  0  0  0  0  0  0
    0.6112   -0.5696    3.5764 O   0  0  0  0  0  0  0  0  0  0  0  0
    1.7703   -0.9590    4.3268 C   0  0  1  0  0  0  0  0  0  0  0  0
    2.7232   -2.0125    3.8042 C   0  0  1  0  0  0  0  0  0  0  0  0
    2.0300   -5.4817    6.5522 H   0  0  0  0  0  0  0  0  0  0  0  0
    3.9521   -3.9750    5.6258 H   0  0  0  0  0  0  0  0  0  0  0  0
    4.6487   -2.5449    1.9444 H   0  0  0  0  0  0  0  0  0  0  0  0
    2.2491   -3.4762    0.2170 H   0  0  0  0  0  0  0  0  0  0  0  0
    4.9975   -5.5269   -1.3747 H   0  0  0  0  0  0  0  0  0  0  0  0
    6.4044   -2.5071    0.3600 H   0  0  0  0  0  0  0  0  0  0  0  0
    7.2998   -3.1399   -1.0767 H   0  0  0  0  0  0  0  0  0  0  0  0
    2.6232   -1.2399   -1.5703 H   0  0  0  0  0  0  0  0  0  0  0  0
    1.6333   -2.1285    1.9793 H   0  0  0  0  0  0  0  0  0  0  0  0
    3.7499    0.0194    2.3324 H   0  0  0  0  0  0  0  0  0  0  0  0
    1.5657   -0.3392    0.5628 H   0  0  0  0  0  0  0  0  0  0  0  0
    1.9084    1.1780    3.6446 H   0  0  0  0  0  0  0  0  0  0  0  0
    1.7577   -0.7287    5.3893 H   0  0  0  0  0  0  0  0  0  0  0  0
    3.7269   -1.7592    4.1542 H   0  0  0  0  0  0  0  0  0  0  0  0
  1  2  2  0
  2  6  1  0
  2  3  1  0
  3  4  2  0
  3 27  1  0
  4  5  1  0
  4 28  1  0
  5 26  1  0
  5  6  1  6
  5  7  1  0
  7  8  1  0
  8  9  1  0
  8 20  1  0
  8 29  1  6
  9 19  1  0
  9 10  1  0
  9 30  1  6
 10 11  1  0
 11 14  1  0
 11 12  1  0
 11 31  1  6
 12 13  1  0
 13 14  1  0
 13 32  1  0
 13 33  1  0
 14 19  1  0
 14 15  1  6
 15 16  1  0
 16 17  2  0
 16 18  1  0
 18 19  2  0
 18 34  1  0
 20 26  1  0
 20 21  1  0
 20 35  1  6
 21 22  1  0
 21 23  1  0
 21 36  1  1
 22 37  1  0
 23 25  1  0
 23 24  1  0
 23 38  1  1
 24 25  1  0
 25 26  1  0
 25 39  1  1
 26 40  1  1
M  END
>  <i_m_ct_stereo_status>  (177) 
1

>  <s_m_source_file>  (177) 
/var/tmp/pbs.5076253.sched01/tmp4uievzq0/12082cxahoa.sdf

>  <i_m_source_file_index>  (177) 
36

>  <i_lp_mmshare_version>  (177) 
48012

>  <i_f3d_flags>  (177) 
0

>  <s_epik_input>  (177) 
Tz1DKE8xKVtDSF09W0NIXVtDQF0xMltDQEhdM1tDQEBIXShbQ0BASF0oW09IXSlbQ0BASF00W0NASF0zTzQpW0NAQEhdKE8yKVtDQEBIXShDNT1bQ0hdQyhPNik9TylPW0NAQEhdKFtDQF01NjcpT1tDSDJdNw==

>  <s_epik_cmdline>  (177) 
J2VwaWtfcHl0aG9uJywgJy1waHQnLCAnMi4wJywgJy1waCcsICc3LjAnLCAnLXRuJywgJzgnLCAnLW1hJywgJzIwMCcsICctaW1hZScsICc8aW5maWxlLm1hZT4nLCAnLW9tYWUnLCAnPG91dGZpbGUubWFlPic=

>  <r_lp_tautomer_probability>  (177) 
1

>  <r_epik_Ionization_Penalty>  (177) 
9.55352e-07

>  <r_epik_Ionization_Penalty_Charging>  (177) 
0

>  <r_epik_Ionization_Penalty_Neutral>  (177) 
9.55352e-07

>  <r_epik_State_Penalty>  (177) 
-0

>  <r_epik_Charging_Adjusted_Penalty>  (177) 
0

>  <i_epik_Tot_Q>  (177) 
0

>  <i_epik_Tot_abs_Q>  (177) 
0

>  <s_epik_Chemistry_Notes>  (177) 
This compound has an ester and may undergo hydrolysis at high or low pH. This compound contains an acetal/aminal-like group ( X-CH(R)-Y where X, Y are N, S, or O) that may be acid/base labile, releasing an aldehyde.

>  <s_lp_Force_Field>  (177) 
OPLS3e

>  <r_lp_Energy>  (177) 
18.8578

>  <b_lp_Chiralities_Consistent>  (177) 
1

>  <s_lp_Variant>  (177) 
105:0-1

>  <s_i_glide_gridfile>  (177) 
pfpi4k_grid

>  <i_i_glide_lignum>  (177) 
36

>  <i_i_glide_rotatable_bonds>  (177) 
2

>  <r_i_docking_score>  (177) 
-3.14125

>  <r_i_glide_ligand_efficiency>  (177) 
-0.120817

>  <r_i_glide_ligand_efficiency_sa>  (177) 
-0.357921

>  <r_i_glide_ligand_efficiency_ln>  (177) 
-0.737712

>  <r_i_glide_gscore>  (177) 
-3.14125

>  <r_i_glide_lipo>  (177) 
-0.172606

>  <r_i_glide_hbond>  (177) 
0

>  <r_i_glide_metal>  (177) 
-0

>  <r_i_glide_rewards>  (177) 
-1.00494

>  <r_i_glide_evdw>  (177) 
-22.8152

>  <r_i_glide_ecoul>  (177) 
-6.42415

>  <r_i_glide_erotb>  (177) 
0.146285

>  <r_i_glide_esite>  (177) 
-0.00559932

>  <r_i_glide_emodel>  (177) 
-34.7421

>  <r_i_glide_energy>  (177) 
-29.2394

>  <r_i_glide_einternal>  (177) 
2.38796

>  <r_i_glide_intrahb_reward>  (177) 
-0

>  <i_i_glide_confnum>  (177) 
1

>  <i_i_glide_posenum>  (177) 
33

>  <r_i_glide_eff_state_penalty>  (177) 
0

>  <ligand_id>  (177) 
105

>  <original_smiles>  (177) 
O=C1C=CC2(O1)OC(C1OC3OCC34OC(=O)C=C14)C1C(O)C3OC3C12

>  <smiles>  (177) 
[H]OC1([H])C2([H])OC2([H])C2([H])C3(OC(=O)C([H])=C3[H])OC([H])(C3([H])OC4([H])OC([H])([H])C45OC(=O)C([H])=C35)C12[H]

$$$$
