0:0
     RDKit          3D

 14 15  0  0  0  0  0  0  0  0999 V2000
   -1.2648    0.0058   -0.6234 C   0  0  0  0  0  0  0  0  0  0  0  0
   -2.1597   -0.0952    0.4663 C   0  0  0  0  0  0  0  0  0  0  0  0
   -1.7160    0.0784    1.7483 N   0  0  0  0  0  0  0  0  0  0  0  0
   -0.4031    0.3489    1.9536 C   0  0  0  0  0  0  0  0  0  0  0  0
    0.2601    0.5589    3.1392 C   0  0  0  0  0  0  0  0  0  0  0  0
    1.5782    0.7883    2.7238 C   0  0  0  0  0  0  0  0  0  0  0  0
    1.6735    0.7175    1.4046 O   0  0  0  0  0  0  0  0  0  0  0  0
    0.4861    0.4535    0.9327 C   0  0  0  0  0  0  0  0  0  0  0  0
    0.0937    0.2870   -0.3909 C   0  0  0  0  0  0  0  0  0  0  0  0
   -1.6301   -0.1353   -1.6513 H   0  0  0  0  0  0  0  0  0  0  0  0
   -3.2215   -0.3152    0.2816 H   0  0  0  0  0  0  0  0  0  0  0  0
   -0.1444    0.5493    4.1621 H   0  0  0  0  0  0  0  0  0  0  0  0
    2.4193    0.9986    3.4008 H   0  0  0  0  0  0  0  0  0  0  0  0
    0.8131    0.3715   -1.2187 H   0  0  0  0  0  0  0  0  0  0  0  0
  1  2  2  0
  2  3  1  0
  3  4  2  0
  4  5  1  0
  5  6  2  0
  6  7  1  0
  7  8  1  0
  8  9  2  0
  9  1  1  0
  8  4  1  0
  1 10  1  0
  2 11  1  0
  5 12  1  0
  6 13  1  0
  9 14  1  0
M  END
>  <ligand_id>  (1) 
0

>  <original_smiles>  (1) 
c1cnc2ccoc2c1

>  <smiles>  (1) 
c1cnc2ccoc2c1

$$$$
1:0
     RDKit          3D

 20 22  0  0  0  0  0  0  0  0999 V2000
   -2.2193    1.7633    2.2109 C   0  0  0  0  0  0  0  0  0  0  0  0
   -1.8948    2.5716    1.1037 C   0  0  0  0  0  0  0  0  0  0  0  0
   -0.8346    2.2020    0.2641 C   0  0  0  0  0  0  0  0  0  0  0  0
   -0.1604    1.0641    0.5630 N   0  0  0  0  0  0  0  0  0  0  0  0
   -0.4493    0.2686    1.6187 C   0  0  0  0  0  0  0  0  0  0  0  0
   -1.4928    0.5918    2.4826 C   0  0  0  0  0  0  0  0  0  0  0  0
    0.3563   -0.8213    1.7270 N   0  0  0  0  0  0  0  0  0  0  0  0
    1.1765   -0.6597    0.6645 C   0  0  0  0  0  0  0  0  0  0  0  0
    2.1888   -1.4838    0.2975 N   0  0  0  0  0  0  0  0  0  0  0  0
    2.9245   -1.1687   -0.8125 C   0  0  0  0  0  0  0  0  0  0  0  0
    2.6359   -0.0050   -1.5647 C   0  0  0  0  0  0  0  0  0  0  0  0
    1.5832    0.8434   -1.1751 C   0  0  0  0  0  0  0  0  0  0  0  0
    0.8727    0.4702   -0.0395 C   0  0  0  0  0  0  0  0  0  0  0  0
   -3.0510    2.0525    2.8702 H   0  0  0  0  0  0  0  0  0  0  0  0
   -2.4695    3.4870    0.8993 H   0  0  0  0  0  0  0  0  0  0  0  0
   -0.5591    2.8141   -0.6074 H   0  0  0  0  0  0  0  0  0  0  0  0
   -1.7387   -0.0458    3.3447 H   0  0  0  0  0  0  0  0  0  0  0  0
    3.7491   -1.8270   -1.1235 H   0  0  0  0  0  0  0  0  0  0  0  0
    3.2352    0.2364   -2.4549 H   0  0  0  0  0  0  0  0  0  0  0  0
    1.3353    1.7544   -1.7395 H   0  0  0  0  0  0  0  0  0  0  0  0
  1  2  1  0
  2  3  2  0
  3  4  1  0
  4  5  1  0
  5  6  1  0
  5  7  2  0
  7  8  1  0
  8  9  2  0
  9 10  1  0
 10 11  2  0
 11 12  1  0
 12 13  2  0
  6  1  2  0
 13  8  1  0
 13  4  1  0
  1 14  1  0
  2 15  1  0
  3 16  1  0
  6 17  1  0
 10 18  1  0
 11 19  1  0
 12 20  1  0
M  END
>  <ligand_id>  (2) 
1

>  <original_smiles>  (2) 
c1ccn2c(c1)nc1ncccc12

>  <smiles>  (2) 
c1ccn2c(c1)nc1ncccc12

$$$$
2:0
     RDKit          3D

 16 17  0  0  0  0  0  0  0  0999 V2000
   -1.5070    1.2541   -0.1159 C   0  0  0  0  0  0  0  0  0  0  0  0
   -1.9072    1.7464    1.1307 C   0  0  0  0  0  0  0  0  0  0  0  0
   -1.1131    1.5760    2.2230 N   0  0  0  0  0  0  0  0  0  0  0  0
    0.0796    0.9291    2.1359 C   0  0  0  0  0  0  0  0  0  0  0  0
    0.8832    0.7617    3.2639 C   0  0  0  0  0  0  0  0  0  0  0  0
    2.1045    0.0935    3.1489 C   0  0  0  0  0  0  0  0  0  0  0  0
    2.5046   -0.3989    1.9024 C   0  0  0  0  0  0  0  0  0  0  0  0
    1.7106   -0.2284    0.8100 N   0  0  0  0  0  0  0  0  0  0  0  0
    0.5178    0.4185    0.8972 C   0  0  0  0  0  0  0  0  0  0  0  0
   -0.2857    0.5859   -0.2309 C   0  0  0  0  0  0  0  0  0  0  0  0
   -2.1489    1.3920   -0.9985 H   0  0  0  0  0  0  0  0  0  0  0  0
   -2.8676    2.2736    1.2287 H   0  0  0  0  0  0  0  0  0  0  0  0
    0.5568    1.1537    4.2385 H   0  0  0  0  0  0  0  0  0  0  0  0
    2.7463   -0.0444    4.0315 H   0  0  0  0  0  0  0  0  0  0  0  0
    3.4651   -0.9261    1.8044 H   0  0  0  0  0  0  0  0  0  0  0  0
    0.0407    0.1939   -1.2055 H   0  0  0  0  0  0  0  0  0  0  0  0
  1  2  2  0
  2  3  1  0
  3  4  2  0
  4  5  1  0
  5  6  2  0
  6  7  1  0
  7  8  2  0
  8  9  1  0
  9 10  2  0
 10  1  1  0
  9  4  1  0
  1 11  1  0
  2 12  1  0
  5 13  1  0
  6 14  1  0
  7 15  1  0
 10 16  1  0
M  END
>  <ligand_id>  (3) 
2

>  <original_smiles>  (3) 
c1cnc2cccnc2c1

>  <smiles>  (3) 
c1cnc2cccnc2c1

$$$$
3:0
     RDKit          3D

 14 15  0  0  0  0  0  0  0  0999 V2000
   -1.1959    0.1057   -0.6625 C   0  0  0  0  0  0  0  0  0  0  0  0
   -2.1525    0.1300    0.3707 C   0  0  0  0  0  0  0  0  0  0  0  0
   -1.7456    0.2734    1.6644 N   0  0  0  0  0  0  0  0  0  0  0  0
   -0.4449    0.3879    1.9223 N   0  0  0  0  0  0  0  0  0  0  0  0
    0.1561    0.5354    3.1085 C   0  0  0  0  0  0  0  0  0  0  0  0
    1.5214    0.6070    2.8314 C   0  0  0  0  0  0  0  0  0  0  0  0
    1.7380    0.5036    1.4932 N   0  0  0  0  0  0  0  0  0  0  0  0
    0.5029    0.3714    0.9838 C   0  0  0  0  0  0  0  0  0  0  0  0
    0.1685    0.2289   -0.3575 C   0  0  0  0  0  0  0  0  0  0  0  0
   -1.5178   -0.0097   -1.7080 H   0  0  0  0  0  0  0  0  0  0  0  0
   -3.2227    0.0337    0.1353 H   0  0  0  0  0  0  0  0  0  0  0  0
   -0.3256    0.5891    4.0959 H   0  0  0  0  0  0  0  0  0  0  0  0
    2.3105    0.7296    3.5879 H   0  0  0  0  0  0  0  0  0  0  0  0
    0.9376    0.2133   -1.1438 H   0  0  0  0  0  0  0  0  0  0  0  0
  1  2  1  0
  2  3  2  0
  3  4  1  0
  4  5  1  0
  5  6  2  0
  6  7  1  0
  7  8  2  0
  8  9  1  0
  9  1  2  0
  8  4  1  0
  1 10  1  0
  2 11  1  0
  5 12  1  0
  6 13  1  0
  9 14  1  0
M  END
>  <ligand_id>  (4) 
3

>  <original_smiles>  (4) 
c1cnn2ccnc2c1

>  <smiles>  (4) 
c1cnn2ccnc2c1

$$$$
4:0
     RDKit          3D

 15 16  0  0  0  0  0  0  0  0999 V2000
   -1.3705    1.2357   -0.2557 C   0  0  0  0  0  0  0  0  0  0  0  0
   -2.0085    1.4039    0.9781 C   0  0  0  0  0  0  0  0  0  0  0  0
   -1.3348    1.1663    2.1370 N   0  0  0  0  0  0  0  0  0  0  0  0
   -0.0363    0.7630    2.1290 C   0  0  0  0  0  0  0  0  0  0  0  0
    0.6433    0.5228    3.3200 C   0  0  0  0  0  0  0  0  0  0  0  0
    1.9748    0.1103    3.2649 C   0  0  0  0  0  0  0  0  0  0  0  0
    2.5828   -0.0492    2.0580 N   0  0  0  0  0  0  0  0  0  0  0  0
    1.9349    0.1800    0.9129 N   0  0  0  0  0  0  0  0  0  0  0  0
    0.6382    0.5831    0.9090 C   0  0  0  0  0  0  0  0  0  0  0  0
   -0.0364    0.8219   -0.2882 C   0  0  0  0  0  0  0  0  0  0  0  0
   -1.9147    1.4277   -1.1922 H   0  0  0  0  0  0  0  0  0  0  0  0
   -3.0587    1.7295    1.0118 H   0  0  0  0  0  0  0  0  0  0  0  0
    0.1387    0.6559    4.2884 H   0  0  0  0  0  0  0  0  0  0  0  0
    2.5311   -0.0852    4.1935 H   0  0  0  0  0  0  0  0  0  0  0  0
    0.4781    0.6855   -1.2508 H   0  0  0  0  0  0  0  0  0  0  0  0
  1  2  2  0
  2  3  1  0
  3  4  2  0
  4  5  1  0
  5  6  2  0
  6  7  1  0
  7  8  2  0
  8  9  1  0
  9 10  2  0
 10  1  1  0
  9  4  1  0
  1 11  1  0
  2 12  1  0
  5 13  1  0
  6 14  1  0
 10 15  1  0
M  END
>  <ligand_id>  (5) 
4

>  <original_smiles>  (5) 
c1cnc2ccnnc2c1

>  <smiles>  (5) 
c1cnc2ccnnc2c1

$$$$
5:0
     RDKit          3D

 16 17  0  0  0  0  0  0  0  0999 V2000
   -1.5070    1.2541   -0.1159 C   0  0  0  0  0  0  0  0  0  0  0  0
   -1.9072    1.7464    1.1307 C   0  0  0  0  0  0  0  0  0  0  0  0
   -1.1131    1.5760    2.2230 N   0  0  0  0  0  0  0  0  0  0  0  0
    0.0796    0.9291    2.1359 C   0  0  0  0  0  0  0  0  0  0  0  0
    0.8832    0.7617    3.2639 C   0  0  0  0  0  0  0  0  0  0  0  0
    2.1045    0.0935    3.1489 C   0  0  0  0  0  0  0  0  0  0  0  0
    2.5046   -0.3989    1.9024 C   0  0  0  0  0  0  0  0  0  0  0  0
    1.7106   -0.2284    0.8100 N   0  0  0  0  0  0  0  0  0  0  0  0
    0.5178    0.4185    0.8972 C   0  0  0  0  0  0  0  0  0  0  0  0
   -0.2857    0.5859   -0.2309 C   0  0  0  0  0  0  0  0  0  0  0  0
   -2.1489    1.3920   -0.9985 H   0  0  0  0  0  0  0  0  0  0  0  0
   -2.8676    2.2736    1.2287 H   0  0  0  0  0  0  0  0  0  0  0  0
    0.5568    1.1537    4.2385 H   0  0  0  0  0  0  0  0  0  0  0  0
    2.7463   -0.0444    4.0315 H   0  0  0  0  0  0  0  0  0  0  0  0
    3.4651   -0.9261    1.8044 H   0  0  0  0  0  0  0  0  0  0  0  0
    0.0407    0.1939   -1.2055 H   0  0  0  0  0  0  0  0  0  0  0  0
  1  2  2  0
  2  3  1  0
  3  4  2  0
  4  5  1  0
  5  6  2  0
  6  7  1  0
  7  8  2  0
  8  9  1  0
  9 10  2  0
 10  1  1  0
  9  4  1  0
  1 11  1  0
  2 12  1  0
  5 13  1  0
  6 14  1  0
  7 15  1  0
 10 16  1  0
M  END
>  <ligand_id>  (6) 
5

>  <original_smiles>  (6) 
c1cnc2cccnc2c1

>  <smiles>  (6) 
c1cnc2cccnc2c1

$$$$
6:0
     RDKit          3D

 13 14  0  0  0  0  0  0  0  0999 V2000
   -1.6013    0.1997   -0.4649 C   0  0  0  0  0  0  0  0  0  0  0  0
   -2.3200    0.1992    0.6992 N   0  0  0  0  0  0  0  0  0  0  0  0
   -1.7053    0.2806    1.9147 C   0  0  0  0  0  0  0  0  0  0  0  0
   -0.3188    0.3651    1.9521 C   0  0  0  0  0  0  0  0  0  0  0  0
    0.4913    0.4552    3.0859 C   0  0  0  0  0  0  0  0  0  0  0  0
    1.8525    0.5250    2.7627 C   0  0  0  0  0  0  0  0  0  0  0  0
    2.0140    0.4727    1.0728 S   0  0  0  0  0  0  0  0  0  0  0  0
    0.3757    0.3633    0.7674 C   0  0  0  0  0  0  0  0  0  0  0  0
   -0.2401    0.2823   -0.4359 N   0  0  0  0  0  0  0  0  0  0  0  0
   -2.1244    0.1329   -1.4303 H   0  0  0  0  0  0  0  0  0  0  0  0
   -2.2940    0.2794    2.8439 H   0  0  0  0  0  0  0  0  0  0  0  0
    0.1045    0.4698    4.1156 H   0  0  0  0  0  0  0  0  0  0  0  0
    2.6797    0.6010    3.4839 H   0  0  0  0  0  0  0  0  0  0  0  0
  1  2  2  0
  2  3  1  0
  3  4  2  0
  4  5  1  0
  5  6  2  0
  6  7  1  0
  7  8  1  0
  8  9  2  0
  9  1  1  0
  8  4  1  0
  1 10  1  0
  3 11  1  0
  5 12  1  0
  6 13  1  0
M  END
>  <ligand_id>  (7) 
6

>  <original_smiles>  (7) 
c1ncc2ccsc2n1

>  <smiles>  (7) 
c1ncc2ccsc2n1

$$$$
7:0
     RDKit          3D

 14 15  0  0  0  0  0  0  0  0999 V2000
   -1.2648    0.0058   -0.6234 C   0  0  0  0  0  0  0  0  0  0  0  0
   -2.1597   -0.0952    0.4663 C   0  0  0  0  0  0  0  0  0  0  0  0
   -1.7160    0.0784    1.7483 N   0  0  0  0  0  0  0  0  0  0  0  0
   -0.4031    0.3489    1.9536 C   0  0  0  0  0  0  0  0  0  0  0  0
    0.2601    0.5589    3.1392 C   0  0  0  0  0  0  0  0  0  0  0  0
    1.5782    0.7883    2.7238 C   0  0  0  0  0  0  0  0  0  0  0  0
    1.6735    0.7175    1.4046 O   0  0  0  0  0  0  0  0  0  0  0  0
    0.4861    0.4535    0.9327 C   0  0  0  0  0  0  0  0  0  0  0  0
    0.0937    0.2870   -0.3909 C   0  0  0  0  0  0  0  0  0  0  0  0
   -1.6301   -0.1353   -1.6513 H   0  0  0  0  0  0  0  0  0  0  0  0
   -3.2215   -0.3152    0.2816 H   0  0  0  0  0  0  0  0  0  0  0  0
   -0.1444    0.5493    4.1621 H   0  0  0  0  0  0  0  0  0  0  0  0
    2.4193    0.9986    3.4008 H   0  0  0  0  0  0  0  0  0  0  0  0
    0.8131    0.3715   -1.2187 H   0  0  0  0  0  0  0  0  0  0  0  0
  1  2  2  0
  2  3  1  0
  3  4  2  0
  4  5  1  0
  5  6  2  0
  6  7  1  0
  7  8  1  0
  8  9  2  0
  9  1  1  0
  8  4  1  0
  1 10  1  0
  2 11  1  0
  5 12  1  0
  6 13  1  0
  9 14  1  0
M  END
>  <ligand_id>  (8) 
7

>  <original_smiles>  (8) 
c1cnc2ccoc2c1

>  <smiles>  (8) 
c1cnc2ccoc2c1

$$$$
8:0
     RDKit          3D

 21 22  0  0  0  0  0  0  0  0999 V2000
   -2.7269    0.9892   -0.9755 C   0  0  0  0  0  0  0  0  0  0  0  0
   -2.7657    0.3679    0.2741 C   0  0  0  0  0  0  0  0  0  0  0  0
   -1.6826   -0.4017    0.7020 C   0  0  0  0  0  0  0  0  0  0  0  0
   -0.5697   -0.5366   -0.1326 C   0  0  0  0  0  0  0  0  0  0  0  0
    0.8298   -1.5176    0.3943 S   0  0  0  0  0  0  0  0  0  0  0  0
    1.6530   -0.1125    1.1337 C   0  0  0  0  0  0  0  0  0  0  0  0
    1.4390    0.1939    2.4804 C   0  0  0  0  0  0  0  0  0  0  0  0
    2.0901    1.2943    3.0404 C   0  0  0  0  0  0  0  0  0  0  0  0
    2.9439    2.0711    2.2550 C   0  0  0  0  0  0  0  0  0  0  0  0
    3.1342    1.7310    0.9137 C   0  0  0  0  0  0  0  0  0  0  0  0
    2.4912    0.6549    0.3851 N   0  0  0  0  0  0  0  0  0  0  0  0
   -0.5518    0.0744   -1.3484 N   0  0  0  0  0  0  0  0  0  0  0  0
   -1.5979    0.8282   -1.7821 C   0  0  0  0  0  0  0  0  0  0  0  0
   -3.5753    1.5983   -1.3208 H   0  0  0  0  0  0  0  0  0  0  0  0
   -3.6482    0.4847    0.9204 H   0  0  0  0  0  0  0  0  0  0  0  0
   -1.7047   -0.8960    1.6844 H   0  0  0  0  0  0  0  0  0  0  0  0
    0.7656   -0.4248    3.0917 H   0  0  0  0  0  0  0  0  0  0  0  0
    1.9307    1.5491    4.0986 H   0  0  0  0  0  0  0  0  0  0  0  0
    3.4606    2.9406    2.6874 H   0  0  0  0  0  0  0  0  0  0  0  0
    3.8048    2.3340    0.2839 H   0  0  0  0  0  0  0  0  0  0  0  0
   -1.5547    1.3115   -2.7693 H   0  0  0  0  0  0  0  0  0  0  0  0
  1  2  2  0
  2  3  1  0
  3  4  2  0
  4  5  1  0
  5  6  1  0
  6  7  2  0
  7  8  1  0
  8  9  2  0
  9 10  1  0
 10 11  2  0
  4 12  1  0
 12 13  2  0
 13  1  1  0
 11  6  1  0
  1 14  1  0
  2 15  1  0
  3 16  1  0
  7 17  1  0
  8 18  1  0
  9 19  1  0
 10 20  1  0
 13 21  1  0
M  END
>  <ligand_id>  (9) 
8

>  <original_smiles>  (9) 
c1ccc(Sc2ccccn2)nc1

>  <smiles>  (9) 
c1ccc(Sc2ccccn2)nc1

$$$$
9:0
     RDKit          3D

 17 18  0  0  0  0  0  0  0  0999 V2000
   -1.9455    0.8409    0.3971 C   0  0  0  0  0  0  0  0  0  0  0  0
   -2.1975    0.5378    1.7399 C   0  0  0  0  0  0  0  0  0  0  0  0
   -1.1358    0.3783    2.6367 C   0  0  0  0  0  0  0  0  0  0  0  0
    0.1811    0.5219    2.1908 C   0  0  0  0  0  0  0  0  0  0  0  0
    1.2188    0.3684    3.0562 N   0  0  0  0  0  0  0  0  0  0  0  0
    2.5101    0.5030    2.6478 C   0  0  0  0  0  0  0  0  0  0  0  0
    2.7997    0.8054    1.3138 C   0  0  0  0  0  0  0  0  0  0  0  0
    1.7529    0.9683    0.4037 C   0  0  0  0  0  0  0  0  0  0  0  0
    0.4339    0.8278    0.8355 C   0  0  0  0  0  0  0  0  0  0  0  0
   -0.6302    0.9861   -0.0563 C   0  0  0  0  0  0  0  0  0  0  0  0
   -2.7840    0.9653   -0.3038 H   0  0  0  0  0  0  0  0  0  0  0  0
   -3.2337    0.4247    2.0913 H   0  0  0  0  0  0  0  0  0  0  0  0
   -1.3371    0.1401    3.6916 H   0  0  0  0  0  0  0  0  0  0  0  0
    3.3293    0.3732    3.3702 H   0  0  0  0  0  0  0  0  0  0  0  0
    3.8434    0.9141    0.9838 H   0  0  0  0  0  0  0  0  0  0  0  0
    1.9675    1.2064   -0.6485 H   0  0  0  0  0  0  0  0  0  0  0  0
   -0.4340    1.2243   -1.1121 H   0  0  0  0  0  0  0  0  0  0  0  0
  1  2  2  0
  2  3  1  0
  3  4  2  0
  4  5  1  0
  5  6  2  0
  6  7  1  0
  7  8  2  0
  8  9  1  0
  9 10  2  0
 10  1  1  0
  9  4  1  0
  1 11  1  0
  2 12  1  0
  3 13  1  0
  6 14  1  0
  7 15  1  0
  8 16  1  0
 10 17  1  0
M  END
>  <ligand_id>  (10) 
9

>  <original_smiles>  (10) 
c1ccc2ncccc2c1

>  <smiles>  (10) 
c1ccc2ncccc2c1

$$$$
10:0
     RDKit          3D

 14 15  0  0  0  0  0  0  0  0999 V2000
   -1.6416   -0.2451   -0.3815 C   0  0  0  0  0  0  0  0  0  0  0  0
   -2.2387    0.6950    0.4816 C   0  0  0  0  0  0  0  0  0  0  0  0
   -1.5449    1.2000    1.5445 N   0  0  0  0  0  0  0  0  0  0  0  0
   -0.2692    0.7956    1.7752 C   0  0  0  0  0  0  0  0  0  0  0  0
    0.5340    1.2422    2.8272 C   0  0  0  0  0  0  0  0  0  0  0  0
    1.8035    0.6534    2.8155 C   0  0  0  0  0  0  0  0  0  0  0  0
    1.8907   -0.4078    1.4946 S   0  0  0  0  0  0  0  0  0  0  0  0
    0.3383   -0.1232    0.9456 C   0  0  0  0  0  0  0  0  0  0  0  0
   -0.3241   -0.6668   -0.1486 C   0  0  0  0  0  0  0  0  0  0  0  0
   -2.2067   -0.6471   -1.2353 H   0  0  0  0  0  0  0  0  0  0  0  0
   -3.2719    1.0250    0.2980 H   0  0  0  0  0  0  0  0  0  0  0  0
    0.2057    1.9741    3.5798 H   0  0  0  0  0  0  0  0  0  0  0  0
    2.6085    0.8459    3.5401 H   0  0  0  0  0  0  0  0  0  0  0  0
    0.1659   -1.3994   -0.8068 H   0  0  0  0  0  0  0  0  0  0  0  0
  1  2  2  0
  2  3  1  0
  3  4  2  0
  4  5  1  0
  5  6  2  0
  6  7  1  0
  7  8  1  0
  8  9  2  0
  9  1  1  0
  8  4  1  0
  1 10  1  0
  2 11  1  0
  5 12  1  0
  6 13  1  0
  9 14  1  0
M  END
>  <ligand_id>  (11) 
10

>  <original_smiles>  (11) 
c1cnc2ccsc2c1

>  <smiles>  (11) 
c1cnc2ccsc2c1

$$$$
11:0
     RDKit          3D

 13 14  0  0  0  0  0  0  0  0999 V2000
   -1.2385    0.4392   -0.6585 C   0  0  0  0  0  0  0  0  0  0  0  0
   -2.1244    0.0216    0.3635 C   0  0  0  0  0  0  0  0  0  0  0  0
   -1.6861   -0.1111    1.6528 N   0  0  0  0  0  0  0  0  0  0  0  0
   -0.3874    0.1668    1.9237 C   0  0  0  0  0  0  0  0  0  0  0  0
    0.2189    0.1028    3.0749 O   0  0  0  0  0  0  0  0  0  0  0  0
    1.4733    0.4649    2.8409 C   0  0  0  0  0  0  0  0  0  0  0  0
    1.6958    0.7689    1.5308 N   0  0  0  0  0  0  0  0  0  0  0  0
    0.4905    0.5683    0.9764 C   0  0  0  0  0  0  0  0  0  0  0  0
    0.1061    0.7217   -0.3506 C   0  0  0  0  0  0  0  0  0  0  0  0
   -1.6002    0.5430   -1.6921 H   0  0  0  0  0  0  0  0  0  0  0  0
   -3.1741   -0.1981    0.1190 H   0  0  0  0  0  0  0  0  0  0  0  0
    2.2492    0.5144    3.6191 H   0  0  0  0  0  0  0  0  0  0  0  0
    0.8180    1.0481   -1.1230 H   0  0  0  0  0  0  0  0  0  0  0  0
  1  2  2  0
  2  3  1  0
  3  4  2  0
  4  5  1  0
  5  6  1  0
  6  7  2  0
  7  8  1  0
  8  9  2  0
  9  1  1  0
  8  4  1  0
  1 10  1  0
  2 11  1  0
  6 12  1  0
  9 13  1  0
M  END
>  <ligand_id>  (12) 
11

>  <original_smiles>  (12) 
c1cnc2ocnc2c1

>  <smiles>  (12) 
c1cnc2ocnc2c1

$$$$
12:0
     RDKit          3D

 16 17  0  0  0  0  0  0  0  0999 V2000
   -1.5070    1.2541   -0.1159 C   0  0  0  0  0  0  0  0  0  0  0  0
   -1.9072    1.7464    1.1307 C   0  0  0  0  0  0  0  0  0  0  0  0
   -1.1131    1.5760    2.2230 N   0  0  0  0  0  0  0  0  0  0  0  0
    0.0796    0.9291    2.1359 C   0  0  0  0  0  0  0  0  0  0  0  0
    0.8832    0.7617    3.2639 C   0  0  0  0  0  0  0  0  0  0  0  0
    2.1045    0.0935    3.1489 C   0  0  0  0  0  0  0  0  0  0  0  0
    2.5046   -0.3989    1.9024 C   0  0  0  0  0  0  0  0  0  0  0  0
    1.7106   -0.2284    0.8100 N   0  0  0  0  0  0  0  0  0  0  0  0
    0.5178    0.4185    0.8972 C   0  0  0  0  0  0  0  0  0  0  0  0
   -0.2857    0.5859   -0.2309 C   0  0  0  0  0  0  0  0  0  0  0  0
   -2.1489    1.3920   -0.9985 H   0  0  0  0  0  0  0  0  0  0  0  0
   -2.8676    2.2736    1.2287 H   0  0  0  0  0  0  0  0  0  0  0  0
    0.5568    1.1537    4.2385 H   0  0  0  0  0  0  0  0  0  0  0  0
    2.7463   -0.0444    4.0315 H   0  0  0  0  0  0  0  0  0  0  0  0
    3.4651   -0.9261    1.8044 H   0  0  0  0  0  0  0  0  0  0  0  0
    0.0407    0.1939   -1.2055 H   0  0  0  0  0  0  0  0  0  0  0  0
  1  2  2  0
  2  3  1  0
  3  4  2  0
  4  5  1  0
  5  6  2  0
  6  7  1  0
  7  8  2  0
  8  9  1  0
  9 10  2  0
 10  1  1  0
  9  4  1  0
  1 11  1  0
  2 12  1  0
  5 13  1  0
  6 14  1  0
  7 15  1  0
 10 16  1  0
M  END
>  <ligand_id>  (13) 
12

>  <original_smiles>  (13) 
c1cnc2cccnc2c1

>  <smiles>  (13) 
c1cnc2cccnc2c1

$$$$
13:0
     RDKit          3D

 17 18  0  0  0  0  0  0  0  0999 V2000
    2.1187    2.1832    0.6568 C   0  0  0  0  0  0  0  0  0  0  0  0
    2.5358    1.7508    1.9208 C   0  0  0  0  0  0  0  0  0  0  0  0
    1.7303    0.8865    2.6697 C   0  0  0  0  0  0  0  0  0  0  0  0
    0.5061    0.4547    2.1526 C   0  0  0  0  0  0  0  0  0  0  0  0
   -0.3130   -0.4076    2.8830 C   0  0  0  0  0  0  0  0  0  0  0  0
   -1.5020   -0.8178    2.3636 N   0  0  0  0  0  0  0  0  0  0  0  0
   -1.9268   -0.4094    1.1364 C   0  0  0  0  0  0  0  0  0  0  0  0
   -1.1396    0.4540    0.3694 C   0  0  0  0  0  0  0  0  0  0  0  0
    0.0842    0.8900    0.8781 C   0  0  0  0  0  0  0  0  0  0  0  0
    0.8938    1.7536    0.1349 C   0  0  0  0  0  0  0  0  0  0  0  0
    2.7558    2.8629    0.0719 H   0  0  0  0  0  0  0  0  0  0  0  0
    3.4998    2.0915    2.3265 H   0  0  0  0  0  0  0  0  0  0  0  0
    2.0597    0.5476    3.6630 H   0  0  0  0  0  0  0  0  0  0  0  0
    0.0024   -0.7554    3.8778 H   0  0  0  0  0  0  0  0  0  0  0  0
   -2.8937   -0.7604    0.7467 H   0  0  0  0  0  0  0  0  0  0  0  0
   -1.4805    0.7855   -0.6226 H   0  0  0  0  0  0  0  0  0  0  0  0
    0.5683    2.0950   -0.8588 H   0  0  0  0  0  0  0  0  0  0  0  0
  1  2  2  0
  2  3  1  0
  3  4  2  0
  4  5  1  0
  5  6  2  0
  6  7  1  0
  7  8  2  0
  8  9  1  0
  9 10  2  0
 10  1  1  0
  9  4  1  0
  1 11  1  0
  2 12  1  0
  3 13  1  0
  5 14  1  0
  7 15  1  0
  8 16  1  0
 10 17  1  0
M  END
>  <ligand_id>  (14) 
13

>  <original_smiles>  (14) 
c1ccc2cnccc2c1

>  <smiles>  (14) 
c1ccc2cnccc2c1

$$$$
14:0
     RDKit          3D

 15 16  0  0  0  0  0  0  0  0999 V2000
   -1.7657    2.5813   -0.1620 F   0  0  0  0  0  0  0  0  0  0  0  0
   -0.9947    1.8367    0.6661 C   0  0  0  0  0  0  0  0  0  0  0  0
   -1.2601    1.8263    2.0495 C   0  0  0  0  0  0  0  0  0  0  0  0
   -0.4699    1.0593    2.9223 C   0  0  0  0  0  0  0  0  0  0  0  0
    0.5800    0.3110    2.3892 C   0  0  0  0  0  0  0  0  0  0  0  0
    1.4552   -0.5003    3.1170 C   0  0  0  0  0  0  0  0  0  0  0  0
    2.4088   -1.1283    2.3091 C   0  0  0  0  0  0  0  0  0  0  0  0
    2.1391   -0.6575    0.7037 S   0  0  0  0  0  0  0  0  0  0  0  0
    0.8303    0.3296    1.0293 C   0  0  0  0  0  0  0  0  0  0  0  0
    0.0644    1.0797    0.1410 C   0  0  0  0  0  0  0  0  0  0  0  0
   -2.0927    2.4235    2.4497 H   0  0  0  0  0  0  0  0  0  0  0  0
   -0.6747    1.0492    4.0030 H   0  0  0  0  0  0  0  0  0  0  0  0
    1.4000   -0.6308    4.2078 H   0  0  0  0  0  0  0  0  0  0  0  0
    3.1985   -1.8108    2.6563 H   0  0  0  0  0  0  0  0  0  0  0  0
    0.2822    1.0792   -0.9372 H   0  0  0  0  0  0  0  0  0  0  0  0
  1  2  1  0
  2  3  2  0
  3  4  1  0
  4  5  2  0
  5  6  1  0
  6  7  2  0
  7  8  1  0
  8  9  1  0
  9 10  2  0
 10  2  1  0
  9  5  1  0
  3 11  1  0
  4 12  1  0
  6 13  1  0
  7 14  1  0
 10 15  1  0
M  END
>  <ligand_id>  (15) 
14

>  <original_smiles>  (15) 
Fc1ccc2ccsc2c1

>  <smiles>  (15) 
Fc1ccc2ccsc2c1

$$$$
15:0
     RDKit          3D

 16 17  0  0  0  0  0  0  0  0999 V2000
   -1.5070    1.2541   -0.1159 C   0  0  0  0  0  0  0  0  0  0  0  0
   -1.9072    1.7464    1.1307 C   0  0  0  0  0  0  0  0  0  0  0  0
   -1.1131    1.5760    2.2230 N   0  0  0  0  0  0  0  0  0  0  0  0
    0.0796    0.9291    2.1359 C   0  0  0  0  0  0  0  0  0  0  0  0
    0.8832    0.7617    3.2639 C   0  0  0  0  0  0  0  0  0  0  0  0
    2.1045    0.0935    3.1489 C   0  0  0  0  0  0  0  0  0  0  0  0
    2.5046   -0.3989    1.9024 C   0  0  0  0  0  0  0  0  0  0  0  0
    1.7106   -0.2284    0.8100 N   0  0  0  0  0  0  0  0  0  0  0  0
    0.5178    0.4185    0.8972 C   0  0  0  0  0  0  0  0  0  0  0  0
   -0.2857    0.5859   -0.2309 C   0  0  0  0  0  0  0  0  0  0  0  0
   -2.1489    1.3920   -0.9985 H   0  0  0  0  0  0  0  0  0  0  0  0
   -2.8676    2.2736    1.2287 H   0  0  0  0  0  0  0  0  0  0  0  0
    0.5568    1.1537    4.2385 H   0  0  0  0  0  0  0  0  0  0  0  0
    2.7463   -0.0444    4.0315 H   0  0  0  0  0  0  0  0  0  0  0  0
    3.4651   -0.9261    1.8044 H   0  0  0  0  0  0  0  0  0  0  0  0
    0.0407    0.1939   -1.2055 H   0  0  0  0  0  0  0  0  0  0  0  0
  1  2  2  0
  2  3  1  0
  3  4  2  0
  4  5  1  0
  5  6  2  0
  6  7  1  0
  7  8  2  0
  8  9  1  0
  9 10  2  0
 10  1  1  0
  9  4  1  0
  1 11  1  0
  2 12  1  0
  5 13  1  0
  6 14  1  0
  7 15  1  0
 10 16  1  0
M  END
>  <ligand_id>  (16) 
15

>  <original_smiles>  (16) 
c1cnc2cccnc2c1

>  <smiles>  (16) 
c1cnc2cccnc2c1

$$$$
16:0
     RDKit          3D

 14 15  0  0  0  0  0  0  0  0999 V2000
   -1.6416   -0.2451   -0.3815 C   0  0  0  0  0  0  0  0  0  0  0  0
   -2.2387    0.6950    0.4816 C   0  0  0  0  0  0  0  0  0  0  0  0
   -1.5449    1.2000    1.5445 N   0  0  0  0  0  0  0  0  0  0  0  0
   -0.2692    0.7956    1.7752 C   0  0  0  0  0  0  0  0  0  0  0  0
    0.5340    1.2422    2.8272 C   0  0  0  0  0  0  0  0  0  0  0  0
    1.8035    0.6534    2.8155 C   0  0  0  0  0  0  0  0  0  0  0  0
    1.8907   -0.4078    1.4946 S   0  0  0  0  0  0  0  0  0  0  0  0
    0.3383   -0.1232    0.9456 C   0  0  0  0  0  0  0  0  0  0  0  0
   -0.3241   -0.6668   -0.1486 C   0  0  0  0  0  0  0  0  0  0  0  0
   -2.2067   -0.6471   -1.2353 H   0  0  0  0  0  0  0  0  0  0  0  0
   -3.2719    1.0250    0.2980 H   0  0  0  0  0  0  0  0  0  0  0  0
    0.2057    1.9741    3.5798 H   0  0  0  0  0  0  0  0  0  0  0  0
    2.6085    0.8459    3.5401 H   0  0  0  0  0  0  0  0  0  0  0  0
    0.1659   -1.3994   -0.8068 H   0  0  0  0  0  0  0  0  0  0  0  0
  1  2  2  0
  2  3  1  0
  3  4  2  0
  4  5  1  0
  5  6  2  0
  6  7  1  0
  7  8  1  0
  8  9  2  0
  9  1  1  0
  8  4  1  0
  1 10  1  0
  2 11  1  0
  5 12  1  0
  6 13  1  0
  9 14  1  0
M  END
>  <ligand_id>  (17) 
16

>  <original_smiles>  (17) 
c1cnc2ccsc2c1

>  <smiles>  (17) 
c1cnc2ccsc2c1

$$$$
17:0
     RDKit          3D

 17 18  0  0  0  0  0  0  0  0999 V2000
   -1.9455    0.8409    0.3971 C   0  0  0  0  0  0  0  0  0  0  0  0
   -2.1975    0.5378    1.7399 C   0  0  0  0  0  0  0  0  0  0  0  0
   -1.1358    0.3783    2.6367 C   0  0  0  0  0  0  0  0  0  0  0  0
    0.1811    0.5219    2.1908 C   0  0  0  0  0  0  0  0  0  0  0  0
    1.2188    0.3684    3.0562 N   0  0  0  0  0  0  0  0  0  0  0  0
    2.5101    0.5030    2.6478 C   0  0  0  0  0  0  0  0  0  0  0  0
    2.7997    0.8054    1.3138 C   0  0  0  0  0  0  0  0  0  0  0  0
    1.7529    0.9683    0.4037 C   0  0  0  0  0  0  0  0  0  0  0  0
    0.4339    0.8278    0.8355 C   0  0  0  0  0  0  0  0  0  0  0  0
   -0.6302    0.9861   -0.0563 C   0  0  0  0  0  0  0  0  0  0  0  0
   -2.7840    0.9653   -0.3038 H   0  0  0  0  0  0  0  0  0  0  0  0
   -3.2337    0.4247    2.0913 H   0  0  0  0  0  0  0  0  0  0  0  0
   -1.3371    0.1401    3.6916 H   0  0  0  0  0  0  0  0  0  0  0  0
    3.3293    0.3732    3.3702 H   0  0  0  0  0  0  0  0  0  0  0  0
    3.8434    0.9141    0.9838 H   0  0  0  0  0  0  0  0  0  0  0  0
    1.9675    1.2064   -0.6485 H   0  0  0  0  0  0  0  0  0  0  0  0
   -0.4340    1.2243   -1.1121 H   0  0  0  0  0  0  0  0  0  0  0  0
  1  2  2  0
  2  3  1  0
  3  4  2  0
  4  5  1  0
  5  6  2  0
  6  7  1  0
  7  8  2  0
  8  9  1  0
  9 10  2  0
 10  1  1  0
  9  4  1  0
  1 11  1  0
  2 12  1  0
  3 13  1  0
  6 14  1  0
  7 15  1  0
  8 16  1  0
 10 17  1  0
M  END
>  <ligand_id>  (18) 
17

>  <original_smiles>  (18) 
c1ccc2ncccc2c1

>  <smiles>  (18) 
c1ccc2ncccc2c1

$$$$
18:0
     RDKit          3D

 14 15  0  0  0  0  0  0  0  0999 V2000
   -2.2757    1.5299    0.1870 Cl  0  0  0  0  0  0  0  0  0  0  0  0
   -1.1032    0.7785    1.2530 C   0  0  0  0  0  0  0  0  0  0  0  0
   -1.5265   -0.0657    2.2890 C   0  0  0  0  0  0  0  0  0  0  0  0
   -0.5730   -0.6618    3.1368 C   0  0  0  0  0  0  0  0  0  0  0  0
    0.7600   -0.4241    2.9578 N   0  0  0  0  0  0  0  0  0  0  0  0
    1.1770    0.3928    1.9560 C   0  0  0  0  0  0  0  0  0  0  0  0
    2.5118    0.7033    1.6844 C   0  0  0  0  0  0  0  0  0  0  0  0
    2.6488    1.5692    0.5942 C   0  0  0  0  0  0  0  0  0  0  0  0
    1.1018    1.9246   -0.0022 S   0  0  0  0  0  0  0  0  0  0  0  0
    0.2664    0.9913    1.1091 C   0  0  0  0  0  0  0  0  0  0  0  0
   -2.5985   -0.2617    2.4391 H   0  0  0  0  0  0  0  0  0  0  0  0
   -0.9046   -1.3243    3.9500 H   0  0  0  0  0  0  0  0  0  0  0  0
    3.3607    0.3107    2.2634 H   0  0  0  0  0  0  0  0  0  0  0  0
    3.5978    1.9537    0.1925 H   0  0  0  0  0  0  0  0  0  0  0  0
  1  2  1  0
  2  3  2  0
  3  4  1  0
  4  5  2  0
  5  6  1  0
  6  7  1  0
  7  8  2  0
  8  9  1  0
  9 10  1  0
 10  2  1  0
 10  6  2  0
  3 11  1  0
  4 12  1  0
  7 13  1  0
  8 14  1  0
M  END
>  <ligand_id>  (19) 
18

>  <original_smiles>  (19) 
Clc1ccnc2ccsc12

>  <smiles>  (19) 
Clc1ccnc2ccsc12

$$$$
19:0
     RDKit          3D

 16 17  0  0  0  0  0  0  0  0999 V2000
   -1.5070    1.2541   -0.1159 C   0  0  0  0  0  0  0  0  0  0  0  0
   -1.9072    1.7464    1.1307 C   0  0  0  0  0  0  0  0  0  0  0  0
   -1.1131    1.5760    2.2230 N   0  0  0  0  0  0  0  0  0  0  0  0
    0.0796    0.9291    2.1359 C   0  0  0  0  0  0  0  0  0  0  0  0
    0.8832    0.7617    3.2639 C   0  0  0  0  0  0  0  0  0  0  0  0
    2.1045    0.0935    3.1489 C   0  0  0  0  0  0  0  0  0  0  0  0
    2.5046   -0.3989    1.9024 C   0  0  0  0  0  0  0  0  0  0  0  0
    1.7106   -0.2284    0.8100 N   0  0  0  0  0  0  0  0  0  0  0  0
    0.5178    0.4185    0.8972 C   0  0  0  0  0  0  0  0  0  0  0  0
   -0.2857    0.5859   -0.2309 C   0  0  0  0  0  0  0  0  0  0  0  0
   -2.1489    1.3920   -0.9985 H   0  0  0  0  0  0  0  0  0  0  0  0
   -2.8676    2.2736    1.2287 H   0  0  0  0  0  0  0  0  0  0  0  0
    0.5568    1.1537    4.2385 H   0  0  0  0  0  0  0  0  0  0  0  0
    2.7463   -0.0444    4.0315 H   0  0  0  0  0  0  0  0  0  0  0  0
    3.4651   -0.9261    1.8044 H   0  0  0  0  0  0  0  0  0  0  0  0
    0.0407    0.1939   -1.2055 H   0  0  0  0  0  0  0  0  0  0  0  0
  1  2  2  0
  2  3  1  0
  3  4  2  0
  4  5  1  0
  5  6  2  0
  6  7  1  0
  7  8  2  0
  8  9  1  0
  9 10  2  0
 10  1  1  0
  9  4  1  0
  1 11  1  0
  2 12  1  0
  5 13  1  0
  6 14  1  0
  7 15  1  0
 10 16  1  0
M  END
>  <ligand_id>  (20) 
19

>  <original_smiles>  (20) 
c1cnc2cccnc2c1

>  <smiles>  (20) 
c1cnc2cccnc2c1

$$$$
20:0
     RDKit          3D

 16 17  0  0  0  0  0  0  0  0999 V2000
   -1.5070    1.2541   -0.1159 C   0  0  0  0  0  0  0  0  0  0  0  0
   -1.9072    1.7464    1.1307 C   0  0  0  0  0  0  0  0  0  0  0  0
   -1.1131    1.5760    2.2230 N   0  0  0  0  0  0  0  0  0  0  0  0
    0.0796    0.9291    2.1359 C   0  0  0  0  0  0  0  0  0  0  0  0
    0.8832    0.7617    3.2639 C   0  0  0  0  0  0  0  0  0  0  0  0
    2.1045    0.0935    3.1489 C   0  0  0  0  0  0  0  0  0  0  0  0
    2.5046   -0.3989    1.9024 C   0  0  0  0  0  0  0  0  0  0  0  0
    1.7106   -0.2284    0.8100 N   0  0  0  0  0  0  0  0  0  0  0  0
    0.5178    0.4185    0.8972 C   0  0  0  0  0  0  0  0  0  0  0  0
   -0.2857    0.5859   -0.2309 C   0  0  0  0  0  0  0  0  0  0  0  0
   -2.1489    1.3920   -0.9985 H   0  0  0  0  0  0  0  0  0  0  0  0
   -2.8676    2.2736    1.2287 H   0  0  0  0  0  0  0  0  0  0  0  0
    0.5568    1.1537    4.2385 H   0  0  0  0  0  0  0  0  0  0  0  0
    2.7463   -0.0444    4.0315 H   0  0  0  0  0  0  0  0  0  0  0  0
    3.4651   -0.9261    1.8044 H   0  0  0  0  0  0  0  0  0  0  0  0
    0.0407    0.1939   -1.2055 H   0  0  0  0  0  0  0  0  0  0  0  0
  1  2  2  0
  2  3  1  0
  3  4  2  0
  4  5  1  0
  5  6  2  0
  6  7  1  0
  7  8  2  0
  8  9  1  0
  9 10  2  0
 10  1  1  0
  9  4  1  0
  1 11  1  0
  2 12  1  0
  5 13  1  0
  6 14  1  0
  7 15  1  0
 10 16  1  0
M  END
>  <ligand_id>  (21) 
20

>  <original_smiles>  (21) 
c1cnc2cccnc2c1

>  <smiles>  (21) 
c1cnc2cccnc2c1

$$$$
21:0
     RDKit          3D

 17 18  0  0  0  0  0  0  0  0999 V2000
   -1.9455    0.8409    0.3971 C   0  0  0  0  0  0  0  0  0  0  0  0
   -2.1975    0.5378    1.7399 C   0  0  0  0  0  0  0  0  0  0  0  0
   -1.1358    0.3783    2.6367 C   0  0  0  0  0  0  0  0  0  0  0  0
    0.1811    0.5219    2.1908 C   0  0  0  0  0  0  0  0  0  0  0  0
    1.2188    0.3684    3.0562 N   0  0  0  0  0  0  0  0  0  0  0  0
    2.5101    0.5030    2.6478 C   0  0  0  0  0  0  0  0  0  0  0  0
    2.7997    0.8054    1.3138 C   0  0  0  0  0  0  0  0  0  0  0  0
    1.7529    0.9683    0.4037 C   0  0  0  0  0  0  0  0  0  0  0  0
    0.4339    0.8278    0.8355 C   0  0  0  0  0  0  0  0  0  0  0  0
   -0.6302    0.9861   -0.0563 C   0  0  0  0  0  0  0  0  0  0  0  0
   -2.7840    0.9653   -0.3038 H   0  0  0  0  0  0  0  0  0  0  0  0
   -3.2337    0.4247    2.0913 H   0  0  0  0  0  0  0  0  0  0  0  0
   -1.3371    0.1401    3.6916 H   0  0  0  0  0  0  0  0  0  0  0  0
    3.3293    0.3732    3.3702 H   0  0  0  0  0  0  0  0  0  0  0  0
    3.8434    0.9141    0.9838 H   0  0  0  0  0  0  0  0  0  0  0  0
    1.9675    1.2064   -0.6485 H   0  0  0  0  0  0  0  0  0  0  0  0
   -0.4340    1.2243   -1.1121 H   0  0  0  0  0  0  0  0  0  0  0  0
  1  2  2  0
  2  3  1  0
  3  4  2  0
  4  5  1  0
  5  6  2  0
  6  7  1  0
  7  8  2  0
  8  9  1  0
  9 10  2  0
 10  1  1  0
  9  4  1  0
  1 11  1  0
  2 12  1  0
  3 13  1  0
  6 14  1  0
  7 15  1  0
  8 16  1  0
 10 17  1  0
M  END
>  <ligand_id>  (22) 
21

>  <original_smiles>  (22) 
c1ccc2ncccc2c1

>  <smiles>  (22) 
c1ccc2ncccc2c1

$$$$
22:0
     RDKit          3D

 22 23  0  0  0  0  0  0  0  0999 V2000
   -3.2698   -2.0657    0.6426 C   0  0  0  0  0  0  0  0  0  0  0  0
   -2.3074   -0.9401    0.5096 C   0  0  0  0  0  0  0  0  0  0  0  0
   -1.3870   -0.6386    1.4437 N   0  0  0  0  0  0  0  0  0  0  0  0
   -0.7669    0.4264    0.9033 C   0  0  0  0  0  0  0  0  0  0  0  0
    0.3841    1.1282    1.5395 C   0  0  0  0  0  0  0  0  0  0  0  0
    1.6610    0.4166    1.2336 C   0  0  0  0  0  0  0  0  0  0  0  0
    2.0257   -0.5373    1.9707 O   0  0  0  0  0  0  0  0  0  0  0  0
    2.4773    0.7955    0.0721 C   0  0  0  0  0  0  0  0  0  0  0  0
    3.6224    0.1704   -0.2694 N   0  0  0  0  0  0  0  0  0  0  0  0
    4.1911    0.7080   -1.3831 C   0  0  0  0  0  0  0  0  0  0  0  0
    3.5027    1.7796   -1.9516 C   0  0  0  0  0  0  0  0  0  0  0  0
    2.1368    2.0387   -1.0017 S   0  0  0  0  0  0  0  0  0  0  0  0
   -1.3063    0.7341   -0.3286 C   0  0  0  0  0  0  0  0  0  0  0  0
   -2.2640   -0.1398   -0.5298 O   0  0  0  0  0  0  0  0  0  0  0  0
   -3.4468   -2.2727    1.7084 H   0  0  0  0  0  0  0  0  0  0  0  0
   -4.2199   -1.7949    0.1590 H   0  0  0  0  0  0  0  0  0  0  0  0
   -2.8546   -2.9622    0.1590 H   0  0  0  0  0  0  0  0  0  0  0  0
    0.4405    2.1564    1.1527 H   0  0  0  0  0  0  0  0  0  0  0  0
    0.2355    1.1420    2.6294 H   0  0  0  0  0  0  0  0  0  0  0  0
    5.1306    0.3231   -1.8064 H   0  0  0  0  0  0  0  0  0  0  0  0
    3.7957    2.3462   -2.8478 H   0  0  0  0  0  0  0  0  0  0  0  0
   -0.9968    1.5456   -1.0036 H   0  0  0  0  0  0  0  0  0  0  0  0
  1  2  1  0
  2  3  2  0
  3  4  1  0
  4  5  1  0
  5  6  1  0
  6  7  2  0
  6  8  1  0
  8  9  2  0
  9 10  1  0
 10 11  2  0
 11 12  1  0
  4 13  2  0
 13 14  1  0
 14  2  1  0
 12  8  1  0
  1 15  1  0
  1 16  1  0
  1 17  1  0
  5 18  1  0
  5 19  1  0
 10 20  1  0
 11 21  1  0
 13 22  1  0
M  END
>  <ligand_id>  (23) 
22

>  <original_smiles>  (23) 
Cc1nc(CC(=O)c2nccs2)co1

>  <smiles>  (23) 
Cc1nc(CC(=O)c2nccs2)co1

$$$$
23:0
     RDKit          3D

 17 18  0  0  0  0  0  0  0  0999 V2000
    2.1187    2.1832    0.6568 C   0  0  0  0  0  0  0  0  0  0  0  0
    2.5358    1.7508    1.9208 C   0  0  0  0  0  0  0  0  0  0  0  0
    1.7303    0.8865    2.6697 C   0  0  0  0  0  0  0  0  0  0  0  0
    0.5061    0.4547    2.1526 C   0  0  0  0  0  0  0  0  0  0  0  0
   -0.3130   -0.4076    2.8830 C   0  0  0  0  0  0  0  0  0  0  0  0
   -1.5020   -0.8178    2.3636 N   0  0  0  0  0  0  0  0  0  0  0  0
   -1.9268   -0.4094    1.1364 C   0  0  0  0  0  0  0  0  0  0  0  0
   -1.1396    0.4540    0.3694 C   0  0  0  0  0  0  0  0  0  0  0  0
    0.0842    0.8900    0.8781 C   0  0  0  0  0  0  0  0  0  0  0  0
    0.8938    1.7536    0.1349 C   0  0  0  0  0  0  0  0  0  0  0  0
    2.7558    2.8629    0.0719 H   0  0  0  0  0  0  0  0  0  0  0  0
    3.4998    2.0915    2.3265 H   0  0  0  0  0  0  0  0  0  0  0  0
    2.0597    0.5476    3.6630 H   0  0  0  0  0  0  0  0  0  0  0  0
    0.0024   -0.7554    3.8778 H   0  0  0  0  0  0  0  0  0  0  0  0
   -2.8937   -0.7604    0.7467 H   0  0  0  0  0  0  0  0  0  0  0  0
   -1.4805    0.7855   -0.6226 H   0  0  0  0  0  0  0  0  0  0  0  0
    0.5683    2.0950   -0.8588 H   0  0  0  0  0  0  0  0  0  0  0  0
  1  2  2  0
  2  3  1  0
  3  4  2  0
  4  5  1  0
  5  6  2  0
  6  7  1  0
  7  8  2  0
  8  9  1  0
  9 10  2  0
 10  1  1  0
  9  4  1  0
  1 11  1  0
  2 12  1  0
  3 13  1  0
  5 14  1  0
  7 15  1  0
  8 16  1  0
 10 17  1  0
M  END
>  <ligand_id>  (24) 
23

>  <original_smiles>  (24) 
c1ccc2cnccc2c1

>  <smiles>  (24) 
c1ccc2cnccc2c1

$$$$
24:0
     RDKit          3D

 16 17  0  0  0  0  0  0  0  0999 V2000
   -1.5070    1.2541   -0.1159 C   0  0  0  0  0  0  0  0  0  0  0  0
   -1.9072    1.7464    1.1307 C   0  0  0  0  0  0  0  0  0  0  0  0
   -1.1131    1.5760    2.2230 N   0  0  0  0  0  0  0  0  0  0  0  0
    0.0796    0.9291    2.1359 C   0  0  0  0  0  0  0  0  0  0  0  0
    0.8832    0.7617    3.2639 C   0  0  0  0  0  0  0  0  0  0  0  0
    2.1045    0.0935    3.1489 C   0  0  0  0  0  0  0  0  0  0  0  0
    2.5046   -0.3989    1.9024 C   0  0  0  0  0  0  0  0  0  0  0  0
    1.7106   -0.2284    0.8100 N   0  0  0  0  0  0  0  0  0  0  0  0
    0.5178    0.4185    0.8972 C   0  0  0  0  0  0  0  0  0  0  0  0
   -0.2857    0.5859   -0.2309 C   0  0  0  0  0  0  0  0  0  0  0  0
   -2.1489    1.3920   -0.9985 H   0  0  0  0  0  0  0  0  0  0  0  0
   -2.8676    2.2736    1.2287 H   0  0  0  0  0  0  0  0  0  0  0  0
    0.5568    1.1537    4.2385 H   0  0  0  0  0  0  0  0  0  0  0  0
    2.7463   -0.0444    4.0315 H   0  0  0  0  0  0  0  0  0  0  0  0
    3.4651   -0.9261    1.8044 H   0  0  0  0  0  0  0  0  0  0  0  0
    0.0407    0.1939   -1.2055 H   0  0  0  0  0  0  0  0  0  0  0  0
  1  2  2  0
  2  3  1  0
  3  4  2  0
  4  5  1  0
  5  6  2  0
  6  7  1  0
  7  8  2  0
  8  9  1  0
  9 10  2  0
 10  1  1  0
  9  4  1  0
  1 11  1  0
  2 12  1  0
  5 13  1  0
  6 14  1  0
  7 15  1  0
 10 16  1  0
M  END
>  <ligand_id>  (25) 
24

>  <original_smiles>  (25) 
c1cnc2cccnc2c1

>  <smiles>  (25) 
c1cnc2cccnc2c1

$$$$
25:0
     RDKit          3D

 16 17  0  0  0  0  0  0  0  0999 V2000
   -0.2553    1.8526   -0.6268 C   0  0  0  0  0  0  0  0  0  0  0  0
   -1.1221    2.3484    0.3526 C   0  0  0  0  0  0  0  0  0  0  0  0
   -1.0509    1.8849    1.6306 N   0  0  0  0  0  0  0  0  0  0  0  0
   -0.1454    0.9364    1.9909 C   0  0  0  0  0  0  0  0  0  0  0  0
   -0.0897    0.4755    3.3067 C   0  0  0  0  0  0  0  0  0  0  0  0
    0.8521   -0.5002    3.6463 C   0  0  0  0  0  0  0  0  0  0  0  0
    1.7023   -0.9920    2.7031 N   0  0  0  0  0  0  0  0  0  0  0  0
    1.6683   -0.5592    1.4132 C   0  0  0  0  0  0  0  0  0  0  0  0
    0.7439    0.4136    1.0313 C   0  0  0  0  0  0  0  0  0  0  0  0
    0.6840    0.8778   -0.2826 C   0  0  0  0  0  0  0  0  0  0  0  0
   -0.3129    2.2272   -1.6595 H   0  0  0  0  0  0  0  0  0  0  0  0
   -1.8644    3.1162    0.0890 H   0  0  0  0  0  0  0  0  0  0  0  0
   -0.7777    0.8745    4.0667 H   0  0  0  0  0  0  0  0  0  0  0  0
    0.9067   -0.8723    4.6800 H   0  0  0  0  0  0  0  0  0  0  0  0
    2.3681   -0.9753    0.6735 H   0  0  0  0  0  0  0  0  0  0  0  0
    1.3719    0.4789   -1.0426 H   0  0  0  0  0  0  0  0  0  0  0  0
  1  2  2  0
  2  3  1  0
  3  4  2  0
  4  5  1  0
  5  6  2  0
  6  7  1  0
  7  8  2  0
  8  9  1  0
  9 10  2  0
 10  1  1  0
  9  4  1  0
  1 11  1  0
  2 12  1  0
  5 13  1  0
  6 14  1  0
  8 15  1  0
 10 16  1  0
M  END
>  <ligand_id>  (26) 
25

>  <original_smiles>  (26) 
c1cnc2ccncc2c1

>  <smiles>  (26) 
c1cnc2ccncc2c1

$$$$
26:0
     RDKit          3D

 15 16  0  0  0  0  0  0  0  0999 V2000
   -1.4020    1.9256    0.0667 N   0  0  0  0  0  0  0  0  0  0  0  0
   -0.9130    1.1183    0.9494 C   0  0  0  0  0  0  0  0  0  0  0  0
   -1.7440    0.3341    1.6943 N   0  0  0  0  0  0  0  0  0  0  0  0
   -1.2543   -0.5292    2.6352 C   0  0  0  0  0  0  0  0  0  0  0  0
    0.0887   -0.6256    2.8513 N   0  0  0  0  0  0  0  0  0  0  0  0
    0.9206    0.1496    2.1159 C   0  0  0  0  0  0  0  0  0  0  0  0
    2.5878    0.2127    2.1937 S   0  0  0  0  0  0  0  0  0  0  0  0
    2.7570    1.3898    0.9828 C   0  0  0  0  0  0  0  0  0  0  0  0
    1.4835    1.7349    0.5138 C   0  0  0  0  0  0  0  0  0  0  0  0
    0.4631    1.0278    1.1621 C   0  0  0  0  0  0  0  0  0  0  0  0
   -0.7728    2.5171   -0.4948 H   0  0  0  0  0  0  0  0  0  0  0  0
   -1.9481   -1.1496    3.2214 H   0  0  0  0  0  0  0  0  0  0  0  0
    0.4623   -1.2743    3.5588 H   0  0  0  0  0  0  0  0  0  0  0  0
    3.7083    1.8113    0.6259 H   0  0  0  0  0  0  0  0  0  0  0  0
    1.3043    2.4789   -0.2763 H   0  0  0  0  0  0  0  0  0  0  0  0
  1  2  2  3
  2  3  1  0
  3  4  2  0
  4  5  1  0
  5  6  1  0
  6  7  1  0
  7  8  1  0
  8  9  2  0
  9 10  1  0
 10  2  1  0
 10  6  2  0
  1 11  1  0
  4 12  1  0
  5 13  1  0
  8 14  1  0
  9 15  1  0
M  END
>  <ligand_id>  (27) 
26

>  <original_smiles>  (27) 
N=c1nc[nH]c2sccc12

>  <smiles>  (27) 
N=c1nc[nH]c2sccc12

$$$$
27:0
     RDKit          3D

 31 33  0  0  0  0  0  0  0  0999 V2000
   -3.5073    1.6238    0.2585 C   0  0  0  0  0  0  0  0  0  0  0  0
   -2.2740    0.9698    0.7671 C   0  0  0  0  0  0  0  0  0  0  0  0
   -2.1793    0.6189    2.1339 C   0  0  0  0  0  0  0  0  0  0  0  0
   -1.0174   -0.0099    2.6157 C   0  0  0  0  0  0  0  0  0  0  0  0
   -0.9052   -0.4106    4.0450 C   0  0  0  0  0  0  0  0  0  0  0  0
    0.0032   -0.2525    1.7001 C   0  0  0  0  0  0  0  0  0  0  0  0
    1.2256   -0.8913    1.8028 C   0  0  0  0  0  0  0  0  0  0  0  0
    1.7864   -0.8819    0.5640 N   0  0  0  0  0  0  0  0  0  0  0  0
    0.9730   -0.2593   -0.2840 N   0  0  0  0  0  0  0  0  0  0  0  0
    1.2362   -0.1228   -1.6891 C   0  0  0  0  0  0  0  0  0  0  0  0
    1.7976   -1.2027   -2.3854 C   0  0  0  0  0  0  0  0  0  0  0  0
    2.0675   -1.1037   -3.7525 C   0  0  0  0  0  0  0  0  0  0  0  0
    1.7868    0.0812   -4.4352 C   0  0  0  0  0  0  0  0  0  0  0  0
    1.2480    1.1714   -3.7484 C   0  0  0  0  0  0  0  0  0  0  0  0
    0.9800    1.0806   -2.3788 C   0  0  0  0  0  0  0  0  0  0  0  0
    0.4941    2.1991   -1.7134 O   0  0  0  0  0  0  0  0  0  0  0  0
   -0.1197    0.1189    0.3976 C   0  0  0  0  0  0  0  0  0  0  0  0
   -1.2422    0.7053   -0.0909 N   0  0  0  0  0  0  0  0  0  0  0  0
   -4.1254    1.9516    1.1073 H   0  0  0  0  0  0  0  0  0  0  0  0
   -3.2341    2.4955   -0.3543 H   0  0  0  0  0  0  0  0  0  0  0  0
   -4.0756    0.9086   -0.3543 H   0  0  0  0  0  0  0  0  0  0  0  0
   -3.0123    0.8372    2.8182 H   0  0  0  0  0  0  0  0  0  0  0  0
   -1.1461    0.4496    4.6869 H   0  0  0  0  0  0  0  0  0  0  0  0
   -1.6080   -1.2310    4.2521 H   0  0  0  0  0  0  0  0  0  0  0  0
    0.1216   -0.7464    4.2521 H   0  0  0  0  0  0  0  0  0  0  0  0
    1.6619   -1.3251    2.7147 H   0  0  0  0  0  0  0  0  0  0  0  0
    2.0274   -2.1360   -1.8505 H   0  0  0  0  0  0  0  0  0  0  0  0
    2.5011   -1.9593   -4.2910 H   0  0  0  0  0  0  0  0  0  0  0  0
    1.9900    0.1562   -5.5137 H   0  0  0  0  0  0  0  0  0  0  0  0
    1.0333    2.1060   -4.2873 H   0  0  0  0  0  0  0  0  0  0  0  0
    0.2990    2.1524   -0.7439 H   0  0  0  0  0  0  0  0  0  0  0  0
  1  2  1  0
  2  3  2  0
  3  4  1  0
  4  5  1  0
  4  6  2  0
  6  7  1  0
  7  8  2  0
  8  9  1  0
  9 10  1  0
 10 11  2  0
 11 12  1  0
 12 13  2  0
 13 14  1  0
 14 15  2  0
 15 16  1  0
  9 17  1  0
 17 18  2  0
 18  2  1  0
 17  6  1  0
 15 10  1  0
  1 19  1  0
  1 20  1  0
  1 21  1  0
  3 22  1  0
  5 23  1  0
  5 24  1  0
  5 25  1  0
  7 26  1  0
 11 27  1  0
 12 28  1  0
 13 29  1  0
 14 30  1  0
 16 31  1  0
M  END
>  <ligand_id>  (28) 
27

>  <original_smiles>  (28) 
Cc1cc(C)c2cnn(-c3ccccc3O)c2n1

>  <smiles>  (28) 
Cc1cc(C)c2cnn(-c3ccccc3O)c2n1

$$$$
28:0
     RDKit          3D

 16 17  0  0  0  0  0  0  0  0999 V2000
   -1.9823    2.4781   -0.4964 C   0  0  0  0  0  0  0  0  0  0  0  0
   -0.9824    1.6939    0.2741 C   0  0  0  0  0  0  0  0  0  0  0  0
   -0.9878    1.6167    1.6284 N   0  0  0  0  0  0  0  0  0  0  0  0
    0.0328    0.8373    2.0641 C   0  0  0  0  0  0  0  0  0  0  0  0
    0.3085    0.5538    3.3992 C   0  0  0  0  0  0  0  0  0  0  0  0
    1.4062   -0.2737    3.6866 C   0  0  0  0  0  0  0  0  0  0  0  0
    2.1906   -0.7897    2.6355 C   0  0  0  0  0  0  0  0  0  0  0  0
    1.8924   -0.4918    1.3371 N   0  0  0  0  0  0  0  0  0  0  0  0
    0.8307    0.3079    1.0695 C   0  0  0  0  0  0  0  0  0  0  0  0
    0.2787    0.8054   -0.4328 S   0  0  0  0  0  0  0  0  0  0  0  0
   -2.6521    3.0035    0.2003 H   0  0  0  0  0  0  0  0  0  0  0  0
   -1.4631    3.2124   -1.1299 H   0  0  0  0  0  0  0  0  0  0  0  0
   -2.5717    1.7990   -1.1299 H   0  0  0  0  0  0  0  0  0  0  0  0
   -0.3156    0.9662    4.2057 H   0  0  0  0  0  0  0  0  0  0  0  0
    1.6533   -0.5186    4.7301 H   0  0  0  0  0  0  0  0  0  0  0  0
    3.0499   -1.4377    2.8631 H   0  0  0  0  0  0  0  0  0  0  0  0
  1  2  1  0
  2  3  2  0
  3  4  1  0
  4  5  2  0
  5  6  1  0
  6  7  2  0
  7  8  1  0
  8  9  2  0
  9 10  1  0
 10  2  1  0
  9  4  1  0
  1 11  1  0
  1 12  1  0
  1 13  1  0
  5 14  1  0
  6 15  1  0
  7 16  1  0
M  END
>  <ligand_id>  (29) 
28

>  <original_smiles>  (29) 
Cc1nc2cccnc2s1

>  <smiles>  (29) 
Cc1nc2cccnc2s1

$$$$
29:0
     RDKit          3D

 17 18  0  0  0  0  0  0  0  0999 V2000
   -2.2273   -1.3758    0.0360 C   0  0  0  0  0  0  0  0  0  0  0  0
   -2.3375   -0.5803    1.1771 C   0  0  0  0  0  0  0  0  0  0  0  0
   -1.2315    0.1393    1.6324 C   0  0  0  0  0  0  0  0  0  0  0  0
   -0.0201    0.0534    0.9352 C   0  0  0  0  0  0  0  0  0  0  0  0
    1.1569    0.8026    1.3973 C   0  0  0  0  0  0  0  0  0  0  0  0
    1.1634    1.6003    2.4855 N   0  0  0  0  0  0  0  0  0  0  0  0
    2.3782    2.1778    2.6942 C   0  0  0  0  0  0  0  0  0  0  0  0
    3.3675    1.8470    1.7684 C   0  0  0  0  0  0  0  0  0  0  0  0
    2.6635    0.7915    0.6611 S   0  0  0  0  0  0  0  0  0  0  0  0
    0.0624   -0.7302   -0.1763 N   0  0  0  0  0  0  0  0  0  0  0  0
   -1.0045   -1.4386   -0.6350 C   0  0  0  0  0  0  0  0  0  0  0  0
   -3.0933   -1.9465   -0.3305 H   0  0  0  0  0  0  0  0  0  0  0  0
   -3.2941   -0.5203    1.7168 H   0  0  0  0  0  0  0  0  0  0  0  0
   -1.3108    0.7685    2.5312 H   0  0  0  0  0  0  0  0  0  0  0  0
    2.5670    2.8595    3.5366 H   0  0  0  0  0  0  0  0  0  0  0  0
    4.4071    2.2063    1.7626 H   0  0  0  0  0  0  0  0  0  0  0  0
   -0.9037   -2.0618   -1.5359 H   0  0  0  0  0  0  0  0  0  0  0  0
  1  2  2  0
  2  3  1  0
  3  4  2  0
  4  5  1  0
  5  6  2  0
  6  7  1  0
  7  8  2  0
  8  9  1  0
  4 10  1  0
 10 11  2  0
 11  1  1  0
  9  5  1  0
  1 12  1  0
  2 13  1  0
  3 14  1  0
  7 15  1  0
  8 16  1  0
 11 17  1  0
M  END
>  <ligand_id>  (30) 
29

>  <original_smiles>  (30) 
c1ccc(-c2nccs2)nc1

>  <smiles>  (30) 
c1ccc(-c2nccs2)nc1

$$$$
30:0
     RDKit          3D

 20 21  0  0  0  0  0  0  0  0999 V2000
   -3.1584    0.8517   -0.5687 C   0  0  0  0  0  0  0  0  0  0  0  0
   -2.6726   -0.3411    0.2309 C   0  0  0  0  0  0  0  0  0  0  0  0
   -1.2435   -0.1558    0.6023 C   0  0  0  0  0  0  0  0  0  0  0  0
   -0.8007    0.4620    1.7724 C   0  0  0  0  0  0  0  0  0  0  0  0
    0.5942    0.5176    1.8089 C   0  0  0  0  0  0  0  0  0  0  0  0
    1.3223    1.0567    2.8204 N   0  0  0  0  0  0  0  0  0  0  0  0
    2.6864    1.0620    2.7522 C   0  0  0  0  0  0  0  0  0  0  0  0
    3.3496    0.5124    1.6375 C   0  0  0  0  0  0  0  0  0  0  0  0
    2.6051   -0.0452    0.5880 C   0  0  0  0  0  0  0  0  0  0  0  0
    1.2200   -0.0288    0.7024 C   0  0  0  0  0  0  0  0  0  0  0  0
    0.0686   -0.6047   -0.3704 S   0  0  0  0  0  0  0  0  0  0  0  0
   -3.4822    1.6468    0.1191 H   0  0  0  0  0  0  0  0  0  0  0  0
   -2.3409    1.2257   -1.2026 H   0  0  0  0  0  0  0  0  0  0  0  0
   -4.0045    0.5482   -1.2026 H   0  0  0  0  0  0  0  0  0  0  0  0
   -3.2771   -0.4378    1.1448 H   0  0  0  0  0  0  0  0  0  0  0  0
   -2.7724   -1.2505   -0.3799 H   0  0  0  0  0  0  0  0  0  0  0  0
   -1.4616    0.8528    2.5601 H   0  0  0  0  0  0  0  0  0  0  0  0
    3.2720    1.4990    3.5744 H   0  0  0  0  0  0  0  0  0  0  0  0
    4.4486    0.5206    1.5905 H   0  0  0  0  0  0  0  0  0  0  0  0
    3.0992   -0.4797   -0.2936 H   0  0  0  0  0  0  0  0  0  0  0  0
  1  2  1  0
  2  3  1  0
  3  4  2  0
  4  5  1  0
  5  6  2  0
  6  7  1  0
  7  8  2  0
  8  9  1  0
  9 10  2  0
 10 11  1  0
 11  3  1  0
 10  5  1  0
  1 12  1  0
  1 13  1  0
  1 14  1  0
  2 15  1  0
  2 16  1  0
  4 17  1  0
  7 18  1  0
  8 19  1  0
  9 20  1  0
M  END
>  <ligand_id>  (31) 
30

>  <original_smiles>  (31) 
CCc1cc2ncccc2s1

>  <smiles>  (31) 
CCc1cc2ncccc2s1

$$$$
31:0
     RDKit          3D

 14 15  0  0  0  0  0  0  0  0999 V2000
   -1.5978   -0.0066   -0.4594 C   0  0  0  0  0  0  0  0  0  0  0  0
   -2.1670   -0.5526    0.7081 C   0  0  0  0  0  0  0  0  0  0  0  0
   -1.5069   -0.4770    1.9004 N   0  0  0  0  0  0  0  0  0  0  0  0
   -0.2956    0.1304    1.9481 C   0  0  0  0  0  0  0  0  0  0  0  0
    0.6874    0.3398    3.2819 S   0  0  0  0  0  0  0  0  0  0  0  0
    1.9187    1.1519    2.4415 C   0  0  0  0  0  0  0  0  0  0  0  0
    1.5484    1.2579    1.0949 C   0  0  0  0  0  0  0  0  0  0  0  0
    0.3035    0.6797    0.8356 C   0  0  0  0  0  0  0  0  0  0  0  0
   -0.3426    0.6200   -0.3970 C   0  0  0  0  0  0  0  0  0  0  0  0
   -2.1352   -0.0710   -1.4171 H   0  0  0  0  0  0  0  0  0  0  0  0
   -3.1502   -1.0433    0.6584 H   0  0  0  0  0  0  0  0  0  0  0  0
    2.8526    1.5319    2.8815 H   0  0  0  0  0  0  0  0  0  0  0  0
    2.1689    1.7426    0.3268 H   0  0  0  0  0  0  0  0  0  0  0  0
    0.1181    1.0522   -1.2975 H   0  0  0  0  0  0  0  0  0  0  0  0
  1  2  2  0
  2  3  1  0
  3  4  2  0
  4  5  1  0
  5  6  1  0
  6  7  2  0
  7  8  1  0
  8  9  2  0
  9  1  1  0
  8  4  1  0
  1 10  1  0
  2 11  1  0
  6 12  1  0
  7 13  1  0
  9 14  1  0
M  END
>  <ligand_id>  (32) 
31

>  <original_smiles>  (32) 
c1cnc2sccc2c1

>  <smiles>  (32) 
c1cnc2sccc2c1

$$$$
32:0
     RDKit          3D

 17 18  0  0  0  0  0  0  0  0999 V2000
   -1.7404    1.1588   -0.2638 O   0  0  0  0  0  0  0  0  0  0  0  0
   -1.1290    0.5785    0.6751 C   0  0  0  0  0  0  0  0  0  0  0  0
   -1.8694   -0.0224    1.6921 C   0  0  0  0  0  0  0  0  0  0  0  0
   -1.1928   -0.6616    2.7262 C   0  0  0  0  0  0  0  0  0  0  0  0
    0.1632   -0.6921    2.7324 N   0  0  0  0  0  0  0  0  0  0  0  0
    0.8818   -0.1057    1.7401 C   0  0  0  0  0  0  0  0  0  0  0  0
    2.2771   -0.1583    1.7817 C   0  0  0  0  0  0  0  0  0  0  0  0
    3.0165    0.4426    0.7646 C   0  0  0  0  0  0  0  0  0  0  0  0
    2.3599    1.0884   -0.2811 C   0  0  0  0  0  0  0  0  0  0  0  0
    0.9644    1.1240   -0.2944 C   0  0  0  0  0  0  0  0  0  0  0  0
    0.2395    0.5346    0.7031 N   0  0  0  0  0  0  0  0  0  0  0  0
   -2.9688    0.0083    1.6772 H   0  0  0  0  0  0  0  0  0  0  0  0
   -1.7576   -1.1422    3.5386 H   0  0  0  0  0  0  0  0  0  0  0  0
    2.7882   -0.6700    2.6105 H   0  0  0  0  0  0  0  0  0  0  0  0
    4.1157    0.4073    0.7872 H   0  0  0  0  0  0  0  0  0  0  0  0
    2.9354    1.5655   -1.0881 H   0  0  0  0  0  0  0  0  0  0  0  0
    0.4417    1.6327   -1.1179 H   0  0  0  0  0  0  0  0  0  0  0  0
  1  2  2  0
  2  3  1  0
  3  4  2  0
  4  5  1  0
  5  6  2  0
  6  7  1  0
  7  8  2  0
  8  9  1  0
  9 10  2  0
 10 11  1  0
 11  2  1  0
 11  6  1  0
  3 12  1  0
  4 13  1  0
  7 14  1  0
  8 15  1  0
  9 16  1  0
 10 17  1  0
M  END
>  <ligand_id>  (33) 
32

>  <original_smiles>  (33) 
O=c1ccnc2ccccn12

>  <smiles>  (33) 
O=c1ccnc2ccccn12

$$$$
33:0
     RDKit          3D

 14 15  0  0  0  0  0  0  0  0999 V2000
   -1.6416   -0.2451   -0.3815 C   0  0  0  0  0  0  0  0  0  0  0  0
   -2.2387    0.6950    0.4816 C   0  0  0  0  0  0  0  0  0  0  0  0
   -1.5449    1.2000    1.5445 N   0  0  0  0  0  0  0  0  0  0  0  0
   -0.2692    0.7956    1.7752 C   0  0  0  0  0  0  0  0  0  0  0  0
    0.5340    1.2422    2.8272 C   0  0  0  0  0  0  0  0  0  0  0  0
    1.8035    0.6534    2.8155 C   0  0  0  0  0  0  0  0  0  0  0  0
    1.8907   -0.4078    1.4946 S   0  0  0  0  0  0  0  0  0  0  0  0
    0.3383   -0.1232    0.9456 C   0  0  0  0  0  0  0  0  0  0  0  0
   -0.3241   -0.6668   -0.1486 C   0  0  0  0  0  0  0  0  0  0  0  0
   -2.2067   -0.6471   -1.2353 H   0  0  0  0  0  0  0  0  0  0  0  0
   -3.2719    1.0250    0.2980 H   0  0  0  0  0  0  0  0  0  0  0  0
    0.2057    1.9741    3.5798 H   0  0  0  0  0  0  0  0  0  0  0  0
    2.6085    0.8459    3.5401 H   0  0  0  0  0  0  0  0  0  0  0  0
    0.1659   -1.3994   -0.8068 H   0  0  0  0  0  0  0  0  0  0  0  0
  1  2  2  0
  2  3  1  0
  3  4  2  0
  4  5  1  0
  5  6  2  0
  6  7  1  0
  7  8  1  0
  8  9  2  0
  9  1  1  0
  8  4  1  0
  1 10  1  0
  2 11  1  0
  5 12  1  0
  6 13  1  0
  9 14  1  0
M  END
>  <ligand_id>  (34) 
33

>  <original_smiles>  (34) 
c1cnc2ccsc2c1

>  <smiles>  (34) 
c1cnc2ccsc2c1

$$$$
34:0
     RDKit          3D

 24 26  0  0  0  0  0  0  0  0999 V2000
   -2.5647   -0.8279   -0.3316 O   0  0  0  0  0  0  0  0  0  0  0  0
   -1.6236   -0.4796    0.4323 C   0  0  0  0  0  0  0  0  0  0  0  0
   -1.8195   -0.5670    1.8131 C   0  0  0  0  0  0  0  0  0  0  0  0
   -0.7971   -0.2047    2.6835 C   0  0  0  0  0  0  0  0  0  0  0  0
    0.4115    0.2435    2.1658 C   0  0  0  0  0  0  0  0  0  0  0  0
    1.4532    0.6269    3.0065 C   0  0  0  0  0  0  0  0  0  0  0  0
    2.6184    1.0783    2.4747 N   0  0  0  0  0  0  0  0  0  0  0  0
    2.7838    1.1655    1.1287 C   0  0  0  0  0  0  0  0  0  0  0  0
    1.7794    0.7954    0.2909 N   0  0  0  0  0  0  0  0  0  0  0  0
    0.5927    0.3266    0.7712 C   0  0  0  0  0  0  0  0  0  0  0  0
   -0.4248   -0.0399   -0.0801 N   0  0  0  0  0  0  0  0  0  0  0  0
   -0.2489    0.0415   -1.5111 C   0  0  0  0  0  0  0  0  0  0  0  0
    0.8468   -0.5710   -2.1316 C   0  0  0  0  0  0  0  0  0  0  0  0
    0.9672   -0.4795   -3.5169 C   0  0  0  0  0  0  0  0  0  0  0  0
    0.0305    0.1896   -4.2374 N   0  0  0  0  0  0  0  0  0  0  0  0
   -1.0315    0.7743   -3.6246 C   0  0  0  0  0  0  0  0  0  0  0  0
   -1.1666    0.6965   -2.2748 N   0  0  0  0  0  0  0  0  0  0  0  0
   -2.7815   -0.9220    2.2112 H   0  0  0  0  0  0  0  0  0  0  0  0
   -0.9441   -0.2725    3.7715 H   0  0  0  0  0  0  0  0  0  0  0  0
    1.3328    0.5643    4.0980 H   0  0  0  0  0  0  0  0  0  0  0  0
    3.7334    1.5368    0.7158 H   0  0  0  0  0  0  0  0  0  0  0  0
    1.5971   -1.1134   -1.5376 H   0  0  0  0  0  0  0  0  0  0  0  0
    1.8211   -0.9494   -4.0269 H   0  0  0  0  0  0  0  0  0  0  0  0
   -1.7830    1.3115   -4.2218 H   0  0  0  0  0  0  0  0  0  0  0  0
  1  2  2  0
  2  3  1  0
  3  4  2  0
  4  5  1  0
  5  6  2  0
  6  7  1  0
  7  8  2  0
  8  9  1  0
  9 10  2  0
 10 11  1  0
 11 12  1  0
 12 13  2  0
 13 14  1  0
 14 15  2  0
 15 16  1  0
 16 17  2  0
 11  2  1  0
 17 12  1  0
 10  5  1  0
  3 18  1  0
  4 19  1  0
  6 20  1  0
  8 21  1  0
 13 22  1  0
 14 23  1  0
 16 24  1  0
M  END
>  <ligand_id>  (35) 
34

>  <original_smiles>  (35) 
O=c1ccc2cncnc2n1-c1ccncn1

>  <smiles>  (35) 
O=c1ccc2cncnc2n1-c1ccncn1

$$$$
35:0
     RDKit          3D

 21 22  0  0  0  0  0  0  0  0999 V2000
   -2.2794    1.5745    0.2309 C   0  0  0  0  0  0  0  0  0  0  0  0
   -1.4063    0.9422   -0.6913 O   0  0  0  0  0  0  0  0  0  0  0  0
   -0.1774    0.3923   -0.3144 C   0  0  0  0  0  0  0  0  0  0  0  0
    0.7248   -0.2378   -1.1525 C   0  0  0  0  0  0  0  0  0  0  0  0
    0.5546   -0.4482   -2.6153 C   0  0  0  0  0  0  0  0  0  0  0  0
    1.8118   -0.6495   -0.4513 N   0  0  0  0  0  0  0  0  0  0  0  0
    1.5324   -0.2512    0.8092 C   0  0  0  0  0  0  0  0  0  0  0  0
    2.3364   -0.4339    1.9278 C   0  0  0  0  0  0  0  0  0  0  0  0
    1.8527    0.0606    3.1486 C   0  0  0  0  0  0  0  0  0  0  0  0
    0.6035    0.7082    3.2015 C   0  0  0  0  0  0  0  0  0  0  0  0
   -0.1323    0.8520    2.0627 N   0  0  0  0  0  0  0  0  0  0  0  0
    0.3507    0.3733    0.9179 N   0  0  0  0  0  0  0  0  0  0  0  0
   -1.9591    1.3425    1.2574 H   0  0  0  0  0  0  0  0  0  0  0  0
   -2.2513    2.6631    0.0753 H   0  0  0  0  0  0  0  0  0  0  0  0
   -3.3049    1.2082    0.0753 H   0  0  0  0  0  0  0  0  0  0  0  0
   -0.1285   -1.2930   -2.7873 H   0  0  0  0  0  0  0  0  0  0  0  0
    0.1349    0.4612   -3.0702 H   0  0  0  0  0  0  0  0  0  0  0  0
    1.5317   -0.6683   -3.0702 H   0  0  0  0  0  0  0  0  0  0  0  0
    3.3088   -0.9435    1.8592 H   0  0  0  0  0  0  0  0  0  0  0  0
    2.4497   -0.0576    4.0649 H   0  0  0  0  0  0  0  0  0  0  0  0
    0.2227    1.0964    4.1577 H   0  0  0  0  0  0  0  0  0  0  0  0
  1  2  1  0
  2  3  1  0
  3  4  2  0
  4  5  1  0
  4  6  1  0
  6  7  2  0
  7  8  1  0
  8  9  2  0
  9 10  1  0
 10 11  2  0
 11 12  1  0
 12  3  1  0
 12  7  1  0
  1 13  1  0
  1 14  1  0
  1 15  1  0
  5 16  1  0
  5 17  1  0
  5 18  1  0
  8 19  1  0
  9 20  1  0
 10 21  1  0
M  END
>  <ligand_id>  (36) 
35

>  <original_smiles>  (36) 
COc1c(C)nc2cccnn12

>  <smiles>  (36) 
COc1c(C)nc2cccnn12

$$$$
36:0
     RDKit          3D

 15 16  0  0  0  0  0  0  0  0999 V2000
   -0.8669    2.8030    0.9375 C   0  0  0  0  0  0  0  0  0  0  0  0
    0.3714    3.1452    1.4915 C   0  0  0  0  0  0  0  0  0  0  0  0
    1.2311    2.1737    1.9045 N   0  0  0  0  0  0  0  0  0  0  0  0
    0.9147    0.8562    1.7918 C   0  0  0  0  0  0  0  0  0  0  0  0
    1.7836   -0.1012    2.2087 N   0  0  0  0  0  0  0  0  0  0  0  0
    1.4741   -1.4212    2.0992 C   0  0  0  0  0  0  0  0  0  0  0  0
    0.2450   -1.8007    1.5502 C   0  0  0  0  0  0  0  0  0  0  0  0
   -0.6285   -0.8459    1.1314 N   0  0  0  0  0  0  0  0  0  0  0  0
   -0.3224    0.4730    1.2393 C   0  0  0  0  0  0  0  0  0  0  0  0
   -1.2147    1.4557    0.8112 C   0  0  0  0  0  0  0  0  0  0  0  0
   -1.5611    3.5883    0.6039 H   0  0  0  0  0  0  0  0  0  0  0  0
    0.6517    4.2040    1.5938 H   0  0  0  0  0  0  0  0  0  0  0  0
    2.1869   -2.1863    2.4407 H   0  0  0  0  0  0  0  0  0  0  0  0
   -0.0139   -2.8658    1.4577 H   0  0  0  0  0  0  0  0  0  0  0  0
   -2.1850    1.1722    0.3775 H   0  0  0  0  0  0  0  0  0  0  0  0
  1  2  2  0
  2  3  1  0
  3  4  2  0
  4  5  1  0
  5  6  2  0
  6  7  1  0
  7  8  2  0
  8  9  1  0
  9 10  2  0
 10  1  1  0
  9  4  1  0
  1 11  1  0
  2 12  1  0
  6 13  1  0
  7 14  1  0
 10 15  1  0
M  END
>  <ligand_id>  (37) 
36

>  <original_smiles>  (37) 
c1cnc2nccnc2c1

>  <smiles>  (37) 
c1cnc2nccnc2c1

$$$$
37:0
     RDKit          3D

 25 26  0  0  0  0  0  0  0  0999 V2000
   -3.0071    1.3808    0.0755 C   0  0  0  0  0  0  0  0  0  0  0  0
   -2.6594    0.1557    0.9004 C   0  0  0  0  0  0  0  0  0  0  0  0
   -3.8629   -0.2411    1.7286 C   0  0  0  0  0  0  0  0  0  0  0  0
   -1.5669    0.4449    1.7658 O   0  0  0  0  0  0  0  0  0  0  0  0
   -0.2360    0.4803    1.3355 C   0  0  0  0  0  0  0  0  0  0  0  0
    0.7700    0.8245    2.2665 C   0  0  0  0  0  0  0  0  0  0  0  0
    2.1228    0.8717    1.8840 C   0  0  0  0  0  0  0  0  0  0  0  0
    2.4264    0.5666    0.5602 C   0  0  0  0  0  0  0  0  0  0  0  0
    3.6014    0.5475   -0.0077 O   0  0  0  0  0  0  0  0  0  0  0  0
    3.4362    0.2064   -1.2745 C   0  0  0  0  0  0  0  0  0  0  0  0
    2.0824   -0.0092   -1.5502 C   0  0  0  0  0  0  0  0  0  0  0  0
    1.4635    0.2324   -0.3446 C   0  0  0  0  0  0  0  0  0  0  0  0
    0.1163    0.1760    0.0006 C   0  0  0  0  0  0  0  0  0  0  0  0
   -3.2451    2.2192    0.7467 H   0  0  0  0  0  0  0  0  0  0  0  0
   -2.1502    1.6509   -0.5590 H   0  0  0  0  0  0  0  0  0  0  0  0
   -3.8782    1.1604   -0.5590 H   0  0  0  0  0  0  0  0  0  0  0  0
   -2.3771   -0.6676    0.2277 H   0  0  0  0  0  0  0  0  0  0  0  0
   -3.6156   -0.1595    2.7973 H   0  0  0  0  0  0  0  0  0  0  0  0
   -4.7051    0.4270    1.4951 H   0  0  0  0  0  0  0  0  0  0  0  0
   -4.1426   -1.2790    1.4951 H   0  0  0  0  0  0  0  0  0  0  0  0
    0.4912    1.0586    3.3045 H   0  0  0  0  0  0  0  0  0  0  0  0
    2.9106    1.1394    2.6035 H   0  0  0  0  0  0  0  0  0  0  0  0
    4.2495    0.1062   -2.0084 H   0  0  0  0  0  0  0  0  0  0  0  0
    1.6211   -0.3024   -2.5047 H   0  0  0  0  0  0  0  0  0  0  0  0
   -0.6492   -0.0964   -0.7409 H   0  0  0  0  0  0  0  0  0  0  0  0
  1  2  1  0
  2  3  1  0
  2  4  1  0
  4  5  1  0
  5  6  2  0
  6  7  1  0
  7  8  2  0
  8  9  1  0
  9 10  1  0
 10 11  2  0
 11 12  1  0
 12 13  2  0
 13  5  1  0
 12  8  1  0
  1 14  1  0
  1 15  1  0
  1 16  1  0
  2 17  1  0
  3 18  1  0
  3 19  1  0
  3 20  1  0
  6 21  1  0
  7 22  1  0
 10 23  1  0
 11 24  1  0
 13 25  1  0
M  END
>  <ligand_id>  (38) 
37

>  <original_smiles>  (38) 
CC(C)Oc1ccc2occc2c1

>  <smiles>  (38) 
CC(C)Oc1ccc2occc2c1

$$$$
38:0
     RDKit          3D

 13 14  0  0  0  0  0  0  0  0999 V2000
   -1.7319   -0.1242   -0.2849 C   0  0  0  0  0  0  0  0  0  0  0  0
   -1.9853   -0.9167    0.8531 C   0  0  0  0  0  0  0  0  0  0  0  0
   -1.1786   -0.8303    1.9512 N   0  0  0  0  0  0  0  0  0  0  0  0
   -0.1299    0.0286    1.9324 C   0  0  0  0  0  0  0  0  0  0  0  0
    0.9895    0.3107    3.1415 S   0  0  0  0  0  0  0  0  0  0  0  0
    1.8230    1.4649    2.2129 C   0  0  0  0  0  0  0  0  0  0  0  0
    1.2436    1.6250    0.9937 N   0  0  0  0  0  0  0  0  0  0  0  0
    0.1594    0.8236    0.8458 C   0  0  0  0  0  0  0  0  0  0  0  0
   -0.6419    0.7618   -0.2916 C   0  0  0  0  0  0  0  0  0  0  0  0
   -2.3864   -0.1995   -1.1658 H   0  0  0  0  0  0  0  0  0  0  0  0
   -2.8393   -1.6100    0.8564 H   0  0  0  0  0  0  0  0  0  0  0  0
    2.7149    2.0109    2.5540 H   0  0  0  0  0  0  0  0  0  0  0  0
   -0.4274    1.3887   -1.1697 H   0  0  0  0  0  0  0  0  0  0  0  0
  1  2  2  0
  2  3  1  0
  3  4  2  0
  4  5  1  0
  5  6  1  0
  6  7  2  0
  7  8  1  0
  8  9  2  0
  9  1  1  0
  8  4  1  0
  1 10  1  0
  2 11  1  0
  6 12  1  0
  9 13  1  0
M  END
>  <ligand_id>  (39) 
38

>  <original_smiles>  (39) 
c1cnc2scnc2c1

>  <smiles>  (39) 
c1cnc2scnc2c1

$$$$
39:0
     RDKit          3D

 14 15  0  0  0  0  0  0  0  0999 V2000
   -1.6416   -0.2451   -0.3815 C   0  0  0  0  0  0  0  0  0  0  0  0
   -2.2387    0.6950    0.4816 C   0  0  0  0  0  0  0  0  0  0  0  0
   -1.5449    1.2000    1.5445 N   0  0  0  0  0  0  0  0  0  0  0  0
   -0.2692    0.7956    1.7752 C   0  0  0  0  0  0  0  0  0  0  0  0
    0.5340    1.2422    2.8272 C   0  0  0  0  0  0  0  0  0  0  0  0
    1.8035    0.6534    2.8155 C   0  0  0  0  0  0  0  0  0  0  0  0
    1.8907   -0.4078    1.4946 S   0  0  0  0  0  0  0  0  0  0  0  0
    0.3383   -0.1232    0.9456 C   0  0  0  0  0  0  0  0  0  0  0  0
   -0.3241   -0.6668   -0.1486 C   0  0  0  0  0  0  0  0  0  0  0  0
   -2.2067   -0.6471   -1.2353 H   0  0  0  0  0  0  0  0  0  0  0  0
   -3.2719    1.0250    0.2980 H   0  0  0  0  0  0  0  0  0  0  0  0
    0.2057    1.9741    3.5798 H   0  0  0  0  0  0  0  0  0  0  0  0
    2.6085    0.8459    3.5401 H   0  0  0  0  0  0  0  0  0  0  0  0
    0.1659   -1.3994   -0.8068 H   0  0  0  0  0  0  0  0  0  0  0  0
  1  2  2  0
  2  3  1  0
  3  4  2  0
  4  5  1  0
  5  6  2  0
  6  7  1  0
  7  8  1  0
  8  9  2  0
  9  1  1  0
  8  4  1  0
  1 10  1  0
  2 11  1  0
  5 12  1  0
  6 13  1  0
  9 14  1  0
M  END
>  <ligand_id>  (40) 
39

>  <original_smiles>  (40) 
c1cnc2ccsc2c1

>  <smiles>  (40) 
c1cnc2ccsc2c1

$$$$
40:0
     RDKit          3D

 14 15  0  0  0  0  0  0  0  0999 V2000
   -1.6416   -0.2451   -0.3815 C   0  0  0  0  0  0  0  0  0  0  0  0
   -2.2387    0.6950    0.4816 C   0  0  0  0  0  0  0  0  0  0  0  0
   -1.5449    1.2000    1.5445 N   0  0  0  0  0  0  0  0  0  0  0  0
   -0.2692    0.7956    1.7752 C   0  0  0  0  0  0  0  0  0  0  0  0
    0.5340    1.2422    2.8272 C   0  0  0  0  0  0  0  0  0  0  0  0
    1.8035    0.6534    2.8155 C   0  0  0  0  0  0  0  0  0  0  0  0
    1.8907   -0.4078    1.4946 S   0  0  0  0  0  0  0  0  0  0  0  0
    0.3383   -0.1232    0.9456 C   0  0  0  0  0  0  0  0  0  0  0  0
   -0.3241   -0.6668   -0.1486 C   0  0  0  0  0  0  0  0  0  0  0  0
   -2.2067   -0.6471   -1.2353 H   0  0  0  0  0  0  0  0  0  0  0  0
   -3.2719    1.0250    0.2980 H   0  0  0  0  0  0  0  0  0  0  0  0
    0.2057    1.9741    3.5798 H   0  0  0  0  0  0  0  0  0  0  0  0
    2.6085    0.8459    3.5401 H   0  0  0  0  0  0  0  0  0  0  0  0
    0.1659   -1.3994   -0.8068 H   0  0  0  0  0  0  0  0  0  0  0  0
  1  2  2  0
  2  3  1  0
  3  4  2  0
  4  5  1  0
  5  6  2  0
  6  7  1  0
  7  8  1  0
  8  9  2  0
  9  1  1  0
  8  4  1  0
  1 10  1  0
  2 11  1  0
  5 12  1  0
  6 13  1  0
  9 14  1  0
M  END
>  <ligand_id>  (41) 
40

>  <original_smiles>  (41) 
c1cnc2ccsc2c1

>  <smiles>  (41) 
c1cnc2ccsc2c1

$$$$
41:0
     RDKit          3D

 23 25  0  0  0  0  0  0  0  0999 V2000
   -4.4243   -0.1014    0.8906 C   0  0  0  0  0  0  0  0  0  0  0  0
   -3.6305   -0.1582    2.0395 C   0  0  0  0  0  0  0  0  0  0  0  0
   -2.2411   -0.0432    1.9359 C   0  0  0  0  0  0  0  0  0  0  0  0
   -1.6360    0.1294    0.6821 C   0  0  0  0  0  0  0  0  0  0  0  0
   -0.2115    0.2474    0.5754 N   0  0  0  0  0  0  0  0  0  0  0  0
    0.6231    0.2061    1.6013 N   0  0  0  0  0  0  0  0  0  0  0  0
    1.8610    0.3445    1.1547 N   0  0  0  0  0  0  0  0  0  0  0  0
    1.7338    0.4704   -0.1815 C   0  0  0  0  0  0  0  0  0  0  0  0
    2.8589    0.6484   -1.1022 C   0  0  0  0  0  0  0  0  0  0  0  0
    4.1466    0.7052   -0.7077 N   0  0  0  0  0  0  0  0  0  0  0  0
    4.9969    0.8756   -1.7568 C   0  0  0  0  0  0  0  0  0  0  0  0
    4.3931    0.9574   -3.0118 C   0  0  0  0  0  0  0  0  0  0  0  0
    2.7336    0.8076   -2.7654 S   0  0  0  0  0  0  0  0  0  0  0  0
    0.4434    0.4119   -0.5622 N   0  0  0  0  0  0  0  0  0  0  0  0
   -2.4397    0.1854   -0.4662 C   0  0  0  0  0  0  0  0  0  0  0  0
   -3.8291    0.0703   -0.3621 C   0  0  0  0  0  0  0  0  0  0  0  0
   -5.5175   -0.1920    0.9724 H   0  0  0  0  0  0  0  0  0  0  0  0
   -4.0991   -0.2934    3.0255 H   0  0  0  0  0  0  0  0  0  0  0  0
   -1.6192   -0.0882    2.8421 H   0  0  0  0  0  0  0  0  0  0  0  0
    6.0867    0.9441   -1.6241 H   0  0  0  0  0  0  0  0  0  0  0  0
    4.9029    1.0936   -3.9769 H   0  0  0  0  0  0  0  0  0  0  0  0
   -1.9744    0.3205   -1.4538 H   0  0  0  0  0  0  0  0  0  0  0  0
   -4.4539    0.1150   -1.2663 H   0  0  0  0  0  0  0  0  0  0  0  0
  1  2  2  0
  2  3  1  0
  3  4  2  0
  4  5  1  0
  5  6  1  0
  6  7  2  0
  7  8  1  0
  8  9  1  0
  9 10  2  0
 10 11  1  0
 11 12  2  0
 12 13  1  0
  8 14  2  0
  4 15  1  0
 15 16  2  0
 16  1  1  0
 14  5  1  0
 13  9  1  0
  1 17  1  0
  2 18  1  0
  3 19  1  0
 11 20  1  0
 12 21  1  0
 15 22  1  0
 16 23  1  0
M  END
>  <ligand_id>  (42) 
41

>  <original_smiles>  (42) 
c1ccc(-n2nnc(-c3nccs3)n2)cc1

>  <smiles>  (42) 
c1ccc(-n2nnc(-c3nccs3)n2)cc1

$$$$
42:0
     RDKit          3D

 14 15  0  0  0  0  0  0  0  0999 V2000
   -1.1959    0.1057   -0.6625 C   0  0  0  0  0  0  0  0  0  0  0  0
   -2.1525    0.1300    0.3707 C   0  0  0  0  0  0  0  0  0  0  0  0
   -1.7456    0.2734    1.6644 N   0  0  0  0  0  0  0  0  0  0  0  0
   -0.4449    0.3879    1.9223 N   0  0  0  0  0  0  0  0  0  0  0  0
    0.1561    0.5354    3.1085 C   0  0  0  0  0  0  0  0  0  0  0  0
    1.5214    0.6070    2.8314 C   0  0  0  0  0  0  0  0  0  0  0  0
    1.7380    0.5036    1.4932 N   0  0  0  0  0  0  0  0  0  0  0  0
    0.5029    0.3714    0.9838 C   0  0  0  0  0  0  0  0  0  0  0  0
    0.1685    0.2289   -0.3575 C   0  0  0  0  0  0  0  0  0  0  0  0
   -1.5178   -0.0097   -1.7080 H   0  0  0  0  0  0  0  0  0  0  0  0
   -3.2227    0.0337    0.1353 H   0  0  0  0  0  0  0  0  0  0  0  0
   -0.3256    0.5891    4.0959 H   0  0  0  0  0  0  0  0  0  0  0  0
    2.3105    0.7296    3.5879 H   0  0  0  0  0  0  0  0  0  0  0  0
    0.9376    0.2133   -1.1438 H   0  0  0  0  0  0  0  0  0  0  0  0
  1  2  1  0
  2  3  2  0
  3  4  1  0
  4  5  1  0
  5  6  2  0
  6  7  1  0
  7  8  2  0
  8  9  1  0
  9  1  2  0
  8  4  1  0
  1 10  1  0
  2 11  1  0
  5 12  1  0
  6 13  1  0
  9 14  1  0
M  END
>  <ligand_id>  (43) 
42

>  <original_smiles>  (43) 
c1cnn2ccnc2c1

>  <smiles>  (43) 
c1cnn2ccnc2c1

$$$$
43:0
     RDKit          3D

 14 15  0  0  0  0  0  0  0  0999 V2000
   -1.5978   -0.0066   -0.4594 C   0  0  0  0  0  0  0  0  0  0  0  0
   -2.1670   -0.5526    0.7081 C   0  0  0  0  0  0  0  0  0  0  0  0
   -1.5069   -0.4770    1.9004 N   0  0  0  0  0  0  0  0  0  0  0  0
   -0.2956    0.1304    1.9481 C   0  0  0  0  0  0  0  0  0  0  0  0
    0.6874    0.3398    3.2819 S   0  0  0  0  0  0  0  0  0  0  0  0
    1.9187    1.1519    2.4415 C   0  0  0  0  0  0  0  0  0  0  0  0
    1.5484    1.2579    1.0949 C   0  0  0  0  0  0  0  0  0  0  0  0
    0.3035    0.6797    0.8356 C   0  0  0  0  0  0  0  0  0  0  0  0
   -0.3426    0.6200   -0.3970 C   0  0  0  0  0  0  0  0  0  0  0  0
   -2.1352   -0.0710   -1.4171 H   0  0  0  0  0  0  0  0  0  0  0  0
   -3.1502   -1.0433    0.6584 H   0  0  0  0  0  0  0  0  0  0  0  0
    2.8526    1.5319    2.8815 H   0  0  0  0  0  0  0  0  0  0  0  0
    2.1689    1.7426    0.3268 H   0  0  0  0  0  0  0  0  0  0  0  0
    0.1181    1.0522   -1.2975 H   0  0  0  0  0  0  0  0  0  0  0  0
  1  2  2  0
  2  3  1  0
  3  4  2  0
  4  5  1  0
  5  6  1  0
  6  7  2  0
  7  8  1  0
  8  9  2  0
  9  1  1  0
  8  4  1  0
  1 10  1  0
  2 11  1  0
  6 12  1  0
  7 13  1  0
  9 14  1  0
M  END
>  <ligand_id>  (44) 
43

>  <original_smiles>  (44) 
c1cnc2sccc2c1

>  <smiles>  (44) 
c1cnc2sccc2c1

$$$$
44:0
     RDKit          3D

 15 16  0  0  0  0  0  0  0  0999 V2000
   -2.4608    1.0012   -0.0901 F   0  0  0  0  0  0  0  0  0  0  0  0
   -1.3854    0.8141    0.7118 C   0  0  0  0  0  0  0  0  0  0  0  0
   -1.5681    0.3521    2.0341 C   0  0  0  0  0  0  0  0  0  0  0  0
   -0.4628    0.1521    2.8812 C   0  0  0  0  0  0  0  0  0  0  0  0
    0.8007    0.4266    2.3629 C   0  0  0  0  0  0  0  0  0  0  0  0
    1.9541    0.3139    2.9633 O   0  0  0  0  0  0  0  0  0  0  0  0
    2.8956    0.6770    2.1087 C   0  0  0  0  0  0  0  0  0  0  0  0
    2.3291    1.0469    0.8849 C   0  0  0  0  0  0  0  0  0  0  0  0
    0.9786    0.8727    1.0864 C   0  0  0  0  0  0  0  0  0  0  0  0
   -0.0935    1.0812    0.2221 C   0  0  0  0  0  0  0  0  0  0  0  0
   -2.5833    0.1470    2.4047 H   0  0  0  0  0  0  0  0  0  0  0  0
   -0.5913   -0.2073    3.9128 H   0  0  0  0  0  0  0  0  0  0  0  0
    3.9732    0.6868    2.3295 H   0  0  0  0  0  0  0  0  0  0  0  0
    2.8416    1.3949   -0.0241 H   0  0  0  0  0  0  0  0  0  0  0  0
    0.0639    1.4414   -0.8053 H   0  0  0  0  0  0  0  0  0  0  0  0
  1  2  1  0
  2  3  2  0
  3  4  1  0
  4  5  2  0
  5  6  1  0
  6  7  1  0
  7  8  2  0
  8  9  1  0
  9 10  2  0
 10  2  1  0
  9  5  1  0
  3 11  1  0
  4 12  1  0
  7 13  1  0
  8 14  1  0
 10 15  1  0
M  END
>  <ligand_id>  (45) 
44

>  <original_smiles>  (45) 
Fc1ccc2occc2c1

>  <smiles>  (45) 
Fc1ccc2occc2c1

$$$$
45:0
     RDKit          3D

 14 15  0  0  0  0  0  0  0  0999 V2000
   -1.1959    0.1057   -0.6625 C   0  0  0  0  0  0  0  0  0  0  0  0
   -2.1525    0.1300    0.3707 C   0  0  0  0  0  0  0  0  0  0  0  0
   -1.7456    0.2734    1.6644 N   0  0  0  0  0  0  0  0  0  0  0  0
   -0.4449    0.3879    1.9223 N   0  0  0  0  0  0  0  0  0  0  0  0
    0.1561    0.5354    3.1085 C   0  0  0  0  0  0  0  0  0  0  0  0
    1.5214    0.6070    2.8314 C   0  0  0  0  0  0  0  0  0  0  0  0
    1.7380    0.5036    1.4932 N   0  0  0  0  0  0  0  0  0  0  0  0
    0.5029    0.3714    0.9838 C   0  0  0  0  0  0  0  0  0  0  0  0
    0.1685    0.2289   -0.3575 C   0  0  0  0  0  0  0  0  0  0  0  0
   -1.5178   -0.0097   -1.7080 H   0  0  0  0  0  0  0  0  0  0  0  0
   -3.2227    0.0337    0.1353 H   0  0  0  0  0  0  0  0  0  0  0  0
   -0.3256    0.5891    4.0959 H   0  0  0  0  0  0  0  0  0  0  0  0
    2.3105    0.7296    3.5879 H   0  0  0  0  0  0  0  0  0  0  0  0
    0.9376    0.2133   -1.1438 H   0  0  0  0  0  0  0  0  0  0  0  0
  1  2  1  0
  2  3  2  0
  3  4  1  0
  4  5  1  0
  5  6  2  0
  6  7  1  0
  7  8  2  0
  8  9  1  0
  9  1  2  0
  8  4  1  0
  1 10  1  0
  2 11  1  0
  5 12  1  0
  6 13  1  0
  9 14  1  0
M  END
>  <ligand_id>  (46) 
45

>  <original_smiles>  (46) 
c1cnn2ccnc2c1

>  <smiles>  (46) 
c1cnn2ccnc2c1

$$$$
46:0
     RDKit          3D

 22 24  0  0  0  0  0  0  0  0999 V2000
   -2.3011   -0.1939   -0.4885 O   0  0  0  0  0  0  0  0  0  0  0  0
   -1.0773    0.0631   -0.3209 C   0  0  0  0  0  0  0  0  0  0  0  0
   -0.5257    0.2005    1.0435 C   0  0  0  0  0  0  0  0  0  0  0  0
   -1.3447    0.0492    2.1680 C   0  0  0  0  0  0  0  0  0  0  0  0
   -0.8068    0.1823    3.4483 C   0  0  0  0  0  0  0  0  0  0  0  0
    0.5520    0.4669    3.5914 C   0  0  0  0  0  0  0  0  0  0  0  0
    1.3392    0.6119    2.4921 N   0  0  0  0  0  0  0  0  0  0  0  0
    0.8406    0.4873    1.2306 C   0  0  0  0  0  0  0  0  0  0  0  0
    1.7286    0.6521    0.0635 C   0  0  0  0  0  0  0  0  0  0  0  0
    2.9513    0.9088    0.2309 O   0  0  0  0  0  0  0  0  0  0  0  0
    1.1813    0.5157   -1.3003 C   0  0  0  0  0  0  0  0  0  0  0  0
    1.9954    0.6666   -2.3819 N   0  0  0  0  0  0  0  0  0  0  0  0
    1.5273    0.5481   -3.6532 C   0  0  0  0  0  0  0  0  0  0  0  0
    0.1798    0.2645   -3.8808 C   0  0  0  0  0  0  0  0  0  0  0  0
   -0.6770    0.1048   -2.7916 C   0  0  0  0  0  0  0  0  0  0  0  0
   -0.1849    0.2289   -1.4875 C   0  0  0  0  0  0  0  0  0  0  0  0
   -2.4142   -0.1749    2.0423 H   0  0  0  0  0  0  0  0  0  0  0  0
   -1.4466    0.0643    4.3352 H   0  0  0  0  0  0  0  0  0  0  0  0
    0.9873    0.5740    4.5959 H   0  0  0  0  0  0  0  0  0  0  0  0
    2.2124    0.6761   -4.5043 H   0  0  0  0  0  0  0  0  0  0  0  0
   -0.2023    0.1680   -4.9077 H   0  0  0  0  0  0  0  0  0  0  0  0
   -1.7411   -0.1189   -2.9581 H   0  0  0  0  0  0  0  0  0  0  0  0
  1  2  2  0
  2  3  1  0
  3  4  2  0
  4  5  1  0
  5  6  2  0
  6  7  1  0
  7  8  2  0
  8  9  1  0
  9 10  2  0
  9 11  1  0
 11 12  2  0
 12 13  1  0
 13 14  2  0
 14 15  1  0
 15 16  2  0
 16  2  1  0
  8  3  1  0
 16 11  1  0
  4 17  1  0
  5 18  1  0
  6 19  1  0
 13 20  1  0
 14 21  1  0
 15 22  1  0
M  END
>  <ligand_id>  (47) 
46

>  <original_smiles>  (47) 
O=C1c2cccnc2C(=O)c2ncccc21

>  <smiles>  (47) 
O=C1c2cccnc2C(=O)c2ncccc21

$$$$
47:0
     RDKit          3D

 14 15  0  0  0  0  0  0  0  0999 V2000
   -1.1959    0.1057   -0.6625 C   0  0  0  0  0  0  0  0  0  0  0  0
   -2.1525    0.1300    0.3707 C   0  0  0  0  0  0  0  0  0  0  0  0
   -1.7456    0.2734    1.6644 N   0  0  0  0  0  0  0  0  0  0  0  0
   -0.4449    0.3879    1.9223 N   0  0  0  0  0  0  0  0  0  0  0  0
    0.1561    0.5354    3.1085 C   0  0  0  0  0  0  0  0  0  0  0  0
    1.5214    0.6070    2.8314 C   0  0  0  0  0  0  0  0  0  0  0  0
    1.7380    0.5036    1.4932 N   0  0  0  0  0  0  0  0  0  0  0  0
    0.5029    0.3714    0.9838 C   0  0  0  0  0  0  0  0  0  0  0  0
    0.1685    0.2289   -0.3575 C   0  0  0  0  0  0  0  0  0  0  0  0
   -1.5178   -0.0097   -1.7080 H   0  0  0  0  0  0  0  0  0  0  0  0
   -3.2227    0.0337    0.1353 H   0  0  0  0  0  0  0  0  0  0  0  0
   -0.3256    0.5891    4.0959 H   0  0  0  0  0  0  0  0  0  0  0  0
    2.3105    0.7296    3.5879 H   0  0  0  0  0  0  0  0  0  0  0  0
    0.9376    0.2133   -1.1438 H   0  0  0  0  0  0  0  0  0  0  0  0
  1  2  1  0
  2  3  2  0
  3  4  1  0
  4  5  1  0
  5  6  2  0
  6  7  1  0
  7  8  2  0
  8  9  1  0
  9  1  2  0
  8  4  1  0
  1 10  1  0
  2 11  1  0
  5 12  1  0
  6 13  1  0
  9 14  1  0
M  END
>  <ligand_id>  (48) 
47

>  <original_smiles>  (48) 
c1cnn2ccnc2c1

>  <smiles>  (48) 
c1cnn2ccnc2c1

$$$$
48:0
     RDKit          3D

 21 22  0  0  0  0  0  0  0  0999 V2000
   -0.4568    3.9082    1.7822 C   0  0  0  0  0  0  0  0  0  0  0  0
    0.1584    2.8176    2.4542 O   0  0  0  0  0  0  0  0  0  0  0  0
    0.4005    1.5886    1.8345 C   0  0  0  0  0  0  0  0  0  0  0  0
    1.0120    0.5678    2.5728 C   0  0  0  0  0  0  0  0  0  0  0  0
    1.2707   -0.6757    1.9875 C   0  0  0  0  0  0  0  0  0  0  0  0
    0.9173   -0.9045    0.6560 C   0  0  0  0  0  0  0  0  0  0  0  0
    1.1668   -2.1379    0.0539 C   0  0  0  0  0  0  0  0  0  0  0  0
    0.8043   -2.3428   -1.2792 C   0  0  0  0  0  0  0  0  0  0  0  0
    0.1951   -1.3062   -1.9927 C   0  0  0  0  0  0  0  0  0  0  0  0
   -0.0426   -0.1077   -1.3932 N   0  0  0  0  0  0  0  0  0  0  0  0
    0.3006    0.1176   -0.0967 C   0  0  0  0  0  0  0  0  0  0  0  0
    0.0452    1.3574    0.4945 C   0  0  0  0  0  0  0  0  0  0  0  0
   -0.8564    4.6168    2.5227 H   0  0  0  0  0  0  0  0  0  0  0  0
    0.2872    4.4173    1.1519 H   0  0  0  0  0  0  0  0  0  0  0  0
   -1.2774    3.5348    1.1519 H   0  0  0  0  0  0  0  0  0  0  0  0
    1.2913    0.7456    3.6218 H   0  0  0  0  0  0  0  0  0  0  0  0
    1.7514   -1.4719    2.5748 H   0  0  0  0  0  0  0  0  0  0  0  0
    1.6468   -2.9453    0.6264 H   0  0  0  0  0  0  0  0  0  0  0  0
    0.9964   -3.3115   -1.7636 H   0  0  0  0  0  0  0  0  0  0  0  0
   -0.0933   -1.4599   -3.0431 H   0  0  0  0  0  0  0  0  0  0  0  0
   -0.4355    2.1552   -0.0907 H   0  0  0  0  0  0  0  0  0  0  0  0
  1  2  1  0
  2  3  1  0
  3  4  2  0
  4  5  1  0
  5  6  2  0
  6  7  1  0
  7  8  2  0
  8  9  1  0
  9 10  2  0
 10 11  1  0
 11 12  2  0
 12  3  1  0
 11  6  1  0
  1 13  1  0
  1 14  1  0
  1 15  1  0
  4 16  1  0
  5 17  1  0
  7 18  1  0
  8 19  1  0
  9 20  1  0
 12 21  1  0
M  END
>  <ligand_id>  (49) 
48

>  <original_smiles>  (49) 
COc1ccc2cccnc2c1

>  <smiles>  (49) 
COc1ccc2cccnc2c1

$$$$
49:0
     RDKit          3D

 16 16  0  0  0  0  0  0  0  0999 V2000
   -3.1596    0.9887   -0.0867 C   0  0  0  0  0  0  0  0  0  0  0  0
   -1.9132    0.5993    0.6226 C   0  0  0  0  0  0  0  0  0  0  0  0
   -1.9611    0.2354    1.9721 C   0  0  0  0  0  0  0  0  0  0  0  0
   -0.7881   -0.1310    2.6396 C   0  0  0  0  0  0  0  0  0  0  0  0
    0.4327   -0.1336    1.9575 C   0  0  0  0  0  0  0  0  0  0  0  0
    1.5969   -0.4973    2.6199 O   0  0  0  0  0  0  0  0  0  0  0  0
    0.4808    0.2302    0.6080 C   0  0  0  0  0  0  0  0  0  0  0  0
   -0.6922    0.5967   -0.0595 C   0  0  0  0  0  0  0  0  0  0  0  0
   -3.9396    1.2323    0.6497 H   0  0  0  0  0  0  0  0  0  0  0  0
   -2.9631    1.8682   -0.7173 H   0  0  0  0  0  0  0  0  0  0  0  0
   -3.4987    0.1537   -0.7173 H   0  0  0  0  0  0  0  0  0  0  0  0
   -2.9215    0.2375    2.5085 H   0  0  0  0  0  0  0  0  0  0  0  0
   -0.8258   -0.4172    3.7010 H   0  0  0  0  0  0  0  0  0  0  0  0
    2.4612   -0.4992    2.1371 H   0  0  0  0  0  0  0  0  0  0  0  0
    1.4411    0.2281    0.0716 H   0  0  0  0  0  0  0  0  0  0  0  0
   -0.6546    0.8828   -1.1209 H   0  0  0  0  0  0  0  0  0  0  0  0
  1  2  1  0
  2  3  2  0
  3  4  1  0
  4  5  2  0
  5  6  1  0
  5  7  1  0
  7  8  2  0
  8  2  1  0
  1  9  1  0
  1 10  1  0
  1 11  1  0
  3 12  1  0
  4 13  1  0
  6 14  1  0
  7 15  1  0
  8 16  1  0
M  END
>  <ligand_id>  (50) 
49

>  <original_smiles>  (50) 
Cc1ccc(O)cc1

>  <smiles>  (50) 
Cc1ccc(O)cc1

$$$$
50:0
     RDKit          3D

 24 26  0  0  0  0  0  0  0  0999 V2000
   -1.7549   -0.4207   -1.3082 C   0  0  0  0  0  0  0  0  0  0  0  0
   -2.5951    0.4503   -0.6112 C   0  0  0  0  0  0  0  0  0  0  0  0
   -2.1325    1.1177    0.4801 N   0  0  0  0  0  0  0  0  0  0  0  0
   -0.8546    0.9640    0.9200 C   0  0  0  0  0  0  0  0  0  0  0  0
    0.0252    0.1100    0.2430 C   0  0  0  0  0  0  0  0  0  0  0  0
    1.4233   -0.0953    0.7355 C   0  0  0  0  0  0  0  0  0  0  0  0
    1.6889   -0.8740    2.0029 C   0  0  0  0  0  0  0  0  0  0  0  0
    2.5070   -0.0438    2.8762 N   0  0  0  0  0  0  0  0  0  0  0  0
    3.0987    0.9907    2.0355 C   0  0  0  0  0  0  0  0  0  0  0  0
    2.2355    1.1704    0.8036 C   0  0  0  0  0  0  0  0  0  0  0  0
    2.5698    0.1056   -0.2303 C   0  0  0  0  0  0  0  0  0  0  0  0
   -0.4398   -0.5926   -0.8733 C   0  0  0  0  0  0  0  0  0  0  0  0
   -2.1252   -0.9648   -2.1895 H   0  0  0  0  0  0  0  0  0  0  0  0
   -3.6328    0.5969   -0.9453 H   0  0  0  0  0  0  0  0  0  0  0  0
   -0.5111    1.5120    1.8098 H   0  0  0  0  0  0  0  0  0  0  0  0
    0.7375   -1.1147    2.4998 H   0  0  0  0  0  0  0  0  0  0  0  0
    2.2092   -1.8153    1.7719 H   0  0  0  0  0  0  0  0  0  0  0  0
    1.9228    0.3846    3.6084 H   0  0  0  0  0  0  0  0  0  0  0  0
    3.1483    1.9373    2.5936 H   0  0  0  0  0  0  0  0  0  0  0  0
    4.1163    0.6957    1.7396 H   0  0  0  0  0  0  0  0  0  0  0  0
    2.0719    2.2566    0.7457 H   0  0  0  0  0  0  0  0  0  0  0  0
    2.3674    0.2889   -1.2959 H   0  0  0  0  0  0  0  0  0  0  0  0
    3.4711   -0.4637   -0.5014 H   0  0  0  0  0  0  0  0  0  0  0  0
    0.2309   -1.2809   -1.4085 H   0  0  0  0  0  0  0  0  0  0  0  0
  1  2  2  0
  2  3  1  0
  3  4  2  0
  4  5  1  0
  5  6  1  0
  6  7  1  0
  7  8  1  0
  8  9  1  0
  9 10  1  0
 10 11  1  0
  5 12  2  0
 12  1  1  0
 10  6  1  0
 11  6  1  0
  1 13  1  0
  2 14  1  0
  4 15  1  0
  7 16  1  0
  7 17  1  0
  8 18  1  0
  9 19  1  0
  9 20  1  0
 10 21  1  0
 11 22  1  0
 11 23  1  0
 12 24  1  0
M  END
>  <ligand_id>  (51) 
50

>  <original_smiles>  (51) 
c1cncc(C23CNCC2C3)c1

>  <smiles>  (51) 
c1cncc(C23CNCC2C3)c1

$$$$
51:0
     RDKit          3D

 16 17  0  0  0  0  0  0  0  0999 V2000
   -1.8816    1.0874    0.3526 C   0  0  0  0  0  0  0  0  0  0  0  0
   -2.1738    0.7612    1.6809 C   0  0  0  0  0  0  0  0  0  0  0  0
   -1.1693    0.4834    2.5565 N   0  0  0  0  0  0  0  0  0  0  0  0
    0.1349    0.5138    2.1723 C   0  0  0  0  0  0  0  0  0  0  0  0
    1.1196    0.2321    3.0670 N   0  0  0  0  0  0  0  0  0  0  0  0
    2.4325    0.2555    2.7082 C   0  0  0  0  0  0  0  0  0  0  0  0
    2.7998    0.5735    1.3967 C   0  0  0  0  0  0  0  0  0  0  0  0
    1.8081    0.8669    0.4578 C   0  0  0  0  0  0  0  0  0  0  0  0
    0.4674    0.8386    0.8413 C   0  0  0  0  0  0  0  0  0  0  0  0
   -0.5502    1.1258   -0.0681 C   0  0  0  0  0  0  0  0  0  0  0  0
   -2.6934    1.3119   -0.3548 H   0  0  0  0  0  0  0  0  0  0  0  0
   -3.2199    0.7290    2.0194 H   0  0  0  0  0  0  0  0  0  0  0  0
    3.2080    0.0233    3.4530 H   0  0  0  0  0  0  0  0  0  0  0  0
    3.8607    0.5923    1.1069 H   0  0  0  0  0  0  0  0  0  0  0  0
    2.0826    1.1186   -0.5772 H   0  0  0  0  0  0  0  0  0  0  0  0
   -0.3060    1.3808   -1.1099 H   0  0  0  0  0  0  0  0  0  0  0  0
  1  2  2  0
  2  3  1  0
  3  4  2  0
  4  5  1  0
  5  6  2  0
  6  7  1  0
  7  8  2  0
  8  9  1  0
  9 10  2  0
 10  1  1  0
  9  4  1  0
  1 11  1  0
  2 12  1  0
  6 13  1  0
  7 14  1  0
  8 15  1  0
 10 16  1  0
M  END
>  <ligand_id>  (52) 
51

>  <original_smiles>  (52) 
c1cnc2ncccc2c1

>  <smiles>  (52) 
c1cnc2ncccc2c1

$$$$
52:0
     RDKit          3D

 14 15  0  0  0  0  0  0  0  0999 V2000
   -1.6416   -0.2451   -0.3815 C   0  0  0  0  0  0  0  0  0  0  0  0
   -2.2387    0.6950    0.4816 C   0  0  0  0  0  0  0  0  0  0  0  0
   -1.5449    1.2000    1.5445 N   0  0  0  0  0  0  0  0  0  0  0  0
   -0.2692    0.7956    1.7752 C   0  0  0  0  0  0  0  0  0  0  0  0
    0.5340    1.2422    2.8272 C   0  0  0  0  0  0  0  0  0  0  0  0
    1.8035    0.6534    2.8155 C   0  0  0  0  0  0  0  0  0  0  0  0
    1.8907   -0.4078    1.4946 S   0  0  0  0  0  0  0  0  0  0  0  0
    0.3383   -0.1232    0.9456 C   0  0  0  0  0  0  0  0  0  0  0  0
   -0.3241   -0.6668   -0.1486 C   0  0  0  0  0  0  0  0  0  0  0  0
   -2.2067   -0.6471   -1.2353 H   0  0  0  0  0  0  0  0  0  0  0  0
   -3.2719    1.0250    0.2980 H   0  0  0  0  0  0  0  0  0  0  0  0
    0.2057    1.9741    3.5798 H   0  0  0  0  0  0  0  0  0  0  0  0
    2.6085    0.8459    3.5401 H   0  0  0  0  0  0  0  0  0  0  0  0
    0.1659   -1.3994   -0.8068 H   0  0  0  0  0  0  0  0  0  0  0  0
  1  2  2  0
  2  3  1  0
  3  4  2  0
  4  5  1  0
  5  6  2  0
  6  7  1  0
  7  8  1  0
  8  9  2  0
  9  1  1  0
  8  4  1  0
  1 10  1  0
  2 11  1  0
  5 12  1  0
  6 13  1  0
  9 14  1  0
M  END
>  <ligand_id>  (53) 
52

>  <original_smiles>  (53) 
c1cnc2ccsc2c1

>  <smiles>  (53) 
c1cnc2ccsc2c1

$$$$
53:0
     RDKit          3D

 14 15  0  0  0  0  0  0  0  0999 V2000
   -1.2648    0.0058   -0.6234 C   0  0  0  0  0  0  0  0  0  0  0  0
   -2.1597   -0.0952    0.4663 C   0  0  0  0  0  0  0  0  0  0  0  0
   -1.7160    0.0784    1.7483 N   0  0  0  0  0  0  0  0  0  0  0  0
   -0.4031    0.3489    1.9536 C   0  0  0  0  0  0  0  0  0  0  0  0
    0.2601    0.5589    3.1392 C   0  0  0  0  0  0  0  0  0  0  0  0
    1.5782    0.7883    2.7238 C   0  0  0  0  0  0  0  0  0  0  0  0
    1.6735    0.7175    1.4046 O   0  0  0  0  0  0  0  0  0  0  0  0
    0.4861    0.4535    0.9327 C   0  0  0  0  0  0  0  0  0  0  0  0
    0.0937    0.2870   -0.3909 C   0  0  0  0  0  0  0  0  0  0  0  0
   -1.6301   -0.1353   -1.6513 H   0  0  0  0  0  0  0  0  0  0  0  0
   -3.2215   -0.3152    0.2816 H   0  0  0  0  0  0  0  0  0  0  0  0
   -0.1444    0.5493    4.1621 H   0  0  0  0  0  0  0  0  0  0  0  0
    2.4193    0.9986    3.4008 H   0  0  0  0  0  0  0  0  0  0  0  0
    0.8131    0.3715   -1.2187 H   0  0  0  0  0  0  0  0  0  0  0  0
  1  2  2  0
  2  3  1  0
  3  4  2  0
  4  5  1  0
  5  6  2  0
  6  7  1  0
  7  8  1  0
  8  9  2  0
  9  1  1  0
  8  4  1  0
  1 10  1  0
  2 11  1  0
  5 12  1  0
  6 13  1  0
  9 14  1  0
M  END
>  <ligand_id>  (54) 
53

>  <original_smiles>  (54) 
c1cnc2ccoc2c1

>  <smiles>  (54) 
c1cnc2ccoc2c1

$$$$
54:0
     RDKit          3D

 16 17  0  0  0  0  0  0  0  0999 V2000
   -1.5070    1.2541   -0.1159 C   0  0  0  0  0  0  0  0  0  0  0  0
   -1.9072    1.7464    1.1307 C   0  0  0  0  0  0  0  0  0  0  0  0
   -1.1131    1.5760    2.2230 N   0  0  0  0  0  0  0  0  0  0  0  0
    0.0796    0.9291    2.1359 C   0  0  0  0  0  0  0  0  0  0  0  0
    0.8832    0.7617    3.2639 C   0  0  0  0  0  0  0  0  0  0  0  0
    2.1045    0.0935    3.1489 C   0  0  0  0  0  0  0  0  0  0  0  0
    2.5046   -0.3989    1.9024 C   0  0  0  0  0  0  0  0  0  0  0  0
    1.7106   -0.2284    0.8100 N   0  0  0  0  0  0  0  0  0  0  0  0
    0.5178    0.4185    0.8972 C   0  0  0  0  0  0  0  0  0  0  0  0
   -0.2857    0.5859   -0.2309 C   0  0  0  0  0  0  0  0  0  0  0  0
   -2.1489    1.3920   -0.9985 H   0  0  0  0  0  0  0  0  0  0  0  0
   -2.8676    2.2736    1.2287 H   0  0  0  0  0  0  0  0  0  0  0  0
    0.5568    1.1537    4.2385 H   0  0  0  0  0  0  0  0  0  0  0  0
    2.7463   -0.0444    4.0315 H   0  0  0  0  0  0  0  0  0  0  0  0
    3.4651   -0.9261    1.8044 H   0  0  0  0  0  0  0  0  0  0  0  0
    0.0407    0.1939   -1.2055 H   0  0  0  0  0  0  0  0  0  0  0  0
  1  2  2  0
  2  3  1  0
  3  4  2  0
  4  5  1  0
  5  6  2  0
  6  7  1  0
  7  8  2  0
  8  9  1  0
  9 10  2  0
 10  1  1  0
  9  4  1  0
  1 11  1  0
  2 12  1  0
  5 13  1  0
  6 14  1  0
  7 15  1  0
 10 16  1  0
M  END
>  <ligand_id>  (55) 
54

>  <original_smiles>  (55) 
c1cnc2cccnc2c1

>  <smiles>  (55) 
c1cnc2cccnc2c1

$$$$
55:0
     RDKit          3D

 12 13  0  0  0  0  0  0  0  0999 V2000
   -1.3112   -0.0342   -0.6766 C   0  0  0  0  0  0  0  0  0  0  0  0
   -2.0014    0.8977    0.1283 C   0  0  0  0  0  0  0  0  0  0  0  0
   -1.4978    1.2802    1.3405 N   0  0  0  0  0  0  0  0  0  0  0  0
   -0.3221    0.7589    1.7752 C   0  0  0  0  0  0  0  0  0  0  0  0
    0.2607    1.0767    2.9665 N   0  0  0  0  0  0  0  0  0  0  0  0
    1.4138    0.4404    3.1811 N   0  0  0  0  0  0  0  0  0  0  0  0
    1.7320   -0.5443    1.8701 S   0  0  0  0  0  0  0  0  0  0  0  0
    0.3687   -0.1540    1.0032 C   0  0  0  0  0  0  0  0  0  0  0  0
   -0.0947   -0.5780   -0.2343 C   0  0  0  0  0  0  0  0  0  0  0  0
   -1.7264   -0.3343   -1.6501 H   0  0  0  0  0  0  0  0  0  0  0  0
   -2.9541    1.3205   -0.2233 H   0  0  0  0  0  0  0  0  0  0  0  0
    0.4648   -1.3060   -0.8402 H   0  0  0  0  0  0  0  0  0  0  0  0
  1  2  2  0
  2  3  1  0
  3  4  2  0
  4  5  1  0
  5  6  2  0
  6  7  1  0
  7  8  1  0
  8  9  2  0
  9  1  1  0
  8  4  1  0
  1 10  1  0
  2 11  1  0
  9 12  1  0
M  END
>  <ligand_id>  (56) 
55

>  <original_smiles>  (56) 
c1cnc2nnsc2c1

>  <smiles>  (56) 
c1cnc2nnsc2c1

$$$$
56:0
     RDKit          3D

 18 20  0  0  0  0  0  0  0  0999 V2000
   -1.8891    1.2314   -1.3613 C   0  0  0  0  0  0  0  0  0  0  0  0
   -2.7586    0.9160   -0.3118 C   0  0  0  0  0  0  0  0  0  0  0  0
   -2.2686    0.4740    0.8791 N   0  0  0  0  0  0  0  0  0  0  0  0
   -0.9329    0.3259    1.0863 C   0  0  0  0  0  0  0  0  0  0  0  0
   -0.4698   -0.1202    2.2932 N   0  0  0  0  0  0  0  0  0  0  0  0
    0.8635   -0.2826    2.5418 C   0  0  0  0  0  0  0  0  0  0  0  0
    1.7804    0.0154    1.5347 C   0  0  0  0  0  0  0  0  0  0  0  0
    3.1267   -0.1041    1.6574 N   0  0  0  0  0  0  0  0  0  0  0  0
    3.7725    0.2551    0.5185 C   0  0  0  0  0  0  0  0  0  0  0  0
    2.6661    0.7329   -0.6739 S   0  0  0  0  0  0  0  0  0  0  0  0
    1.3328    0.4671    0.3091 C   0  0  0  0  0  0  0  0  0  0  0  0
   -0.0246    0.6356    0.0471 C   0  0  0  0  0  0  0  0  0  0  0  0
   -0.5117    1.0900   -1.1801 C   0  0  0  0  0  0  0  0  0  0  0  0
   -2.2876    1.5883   -2.3225 H   0  0  0  0  0  0  0  0  0  0  0  0
   -3.8444    1.0256   -0.4495 H   0  0  0  0  0  0  0  0  0  0  0  0
    1.2087   -0.6431    3.5221 H   0  0  0  0  0  0  0  0  0  0  0  0
    4.8646    0.2384    0.3873 H   0  0  0  0  0  0  0  0  0  0  0  0
    0.1834    1.3344   -1.9968 H   0  0  0  0  0  0  0  0  0  0  0  0
  1  2  2  0
  2  3  1  0
  3  4  2  0
  4  5  1  0
  5  6  2  0
  6  7  1  0
  7  8  1  0
  8  9  2  0
  9 10  1  0
 10 11  1  0
 11 12  1  0
 12 13  2  0
 13  1  1  0
 12  4  1  0
 11  7  2  0
  1 14  1  0
  2 15  1  0
  6 16  1  0
  9 17  1  0
 13 18  1  0
M  END
>  <ligand_id>  (57) 
56

>  <original_smiles>  (57) 
c1cnc2ncc3ncsc3c2c1

>  <smiles>  (57) 
c1cnc2ncc3ncsc3c2c1

$$$$
57:0
     RDKit          3D

 15 16  0  0  0  0  0  0  0  0999 V2000
   -1.5075    0.2281   -0.6774 C   0  0  0  0  0  0  0  0  0  0  0  0
   -1.8239   -0.3528    0.5521 C   0  0  0  0  0  0  0  0  0  0  0  0
   -0.7658   -0.0256    1.3685 C   0  0  0  0  0  0  0  0  0  0  0  0
   -0.5714   -0.3548    2.7061 C   0  0  0  0  0  0  0  0  0  0  0  0
    0.5690    0.0878    3.3115 N   0  0  0  0  0  0  0  0  0  0  0  0
    1.4987    0.8313    2.6377 C   0  0  0  0  0  0  0  0  0  0  0  0
    1.2850    1.1532    1.2894 C   0  0  0  0  0  0  0  0  0  0  0  0
    0.1450    0.7015    0.7122 N   0  0  0  0  0  0  0  0  0  0  0  0
   -0.2810    0.8746   -0.5461 C   0  0  0  0  0  0  0  0  0  0  0  0
   -2.1199    0.1831   -1.5900 H   0  0  0  0  0  0  0  0  0  0  0  0
   -2.7178   -0.9398    0.8101 H   0  0  0  0  0  0  0  0  0  0  0  0
   -1.3123   -0.9521    3.2577 H   0  0  0  0  0  0  0  0  0  0  0  0
    2.4091    1.1749    3.1506 H   0  0  0  0  0  0  0  0  0  0  0  0
    2.0148    1.7494    0.7220 H   0  0  0  0  0  0  0  0  0  0  0  0
    0.2454    1.4296   -1.3366 H   0  0  0  0  0  0  0  0  0  0  0  0
  1  2  1  0
  2  3  2  0
  3  4  1  0
  4  5  2  0
  5  6  1  0
  6  7  2  0
  7  8  1  0
  8  9  1  0
  9  1  2  0
  8  3  1  0
  1 10  1  0
  2 11  1  0
  4 12  1  0
  6 13  1  0
  7 14  1  0
  9 15  1  0
M  END
>  <ligand_id>  (58) 
57

>  <original_smiles>  (58) 
c1cc2cnccn2c1

>  <smiles>  (58) 
c1cc2cnccn2c1

$$$$
58:0
     RDKit          3D

 16 17  0  0  0  0  0  0  0  0999 V2000
   -1.8816    1.0874    0.3526 C   0  0  0  0  0  0  0  0  0  0  0  0
   -2.1738    0.7612    1.6809 C   0  0  0  0  0  0  0  0  0  0  0  0
   -1.1693    0.4834    2.5565 N   0  0  0  0  0  0  0  0  0  0  0  0
    0.1349    0.5138    2.1723 C   0  0  0  0  0  0  0  0  0  0  0  0
    1.1196    0.2321    3.0670 N   0  0  0  0  0  0  0  0  0  0  0  0
    2.4325    0.2555    2.7082 C   0  0  0  0  0  0  0  0  0  0  0  0
    2.7998    0.5735    1.3967 C   0  0  0  0  0  0  0  0  0  0  0  0
    1.8081    0.8669    0.4578 C   0  0  0  0  0  0  0  0  0  0  0  0
    0.4674    0.8386    0.8413 C   0  0  0  0  0  0  0  0  0  0  0  0
   -0.5502    1.1258   -0.0681 C   0  0  0  0  0  0  0  0  0  0  0  0
   -2.6934    1.3119   -0.3548 H   0  0  0  0  0  0  0  0  0  0  0  0
   -3.2199    0.7290    2.0194 H   0  0  0  0  0  0  0  0  0  0  0  0
    3.2080    0.0233    3.4530 H   0  0  0  0  0  0  0  0  0  0  0  0
    3.8607    0.5923    1.1069 H   0  0  0  0  0  0  0  0  0  0  0  0
    2.0826    1.1186   -0.5772 H   0  0  0  0  0  0  0  0  0  0  0  0
   -0.3060    1.3808   -1.1099 H   0  0  0  0  0  0  0  0  0  0  0  0
  1  2  2  0
  2  3  1  0
  3  4  2  0
  4  5  1  0
  5  6  2  0
  6  7  1  0
  7  8  2  0
  8  9  1  0
  9 10  2  0
 10  1  1  0
  9  4  1  0
  1 11  1  0
  2 12  1  0
  6 13  1  0
  7 14  1  0
  8 15  1  0
 10 16  1  0
M  END
>  <ligand_id>  (59) 
58

>  <original_smiles>  (59) 
c1cnc2ncccc2c1

>  <smiles>  (59) 
c1cnc2ncccc2c1

$$$$
59:0
     RDKit          3D

 14 15  0  0  0  0  0  0  0  0999 V2000
   -0.6916    0.8663   -0.8133 C   0  0  0  0  0  0  0  0  0  0  0  0
    0.5530    0.8476   -0.1581 C   0  0  0  0  0  0  0  0  0  0  0  0
    0.5486    0.4676    1.1801 C   0  0  0  0  0  0  0  0  0  0  0  0
    1.5654    0.3737    1.9930 O   0  0  0  0  0  0  0  0  0  0  0  0
    1.1098   -0.0213    3.1704 C   0  0  0  0  0  0  0  0  0  0  0  0
   -0.2776   -0.1948    3.1258 C   0  0  0  0  0  0  0  0  0  0  0  0
   -0.5985    0.1301    1.8277 C   0  0  0  0  0  0  0  0  0  0  0  0
   -1.8235    0.1516    1.1718 C   0  0  0  0  0  0  0  0  0  0  0  0
   -1.8375    0.5226   -0.1434 N   0  0  0  0  0  0  0  0  0  0  0  0
   -0.7461    1.1592   -1.8722 H   0  0  0  0  0  0  0  0  0  0  0  0
    1.4834    1.1198   -0.6779 H   0  0  0  0  0  0  0  0  0  0  0  0
    1.7344   -0.1897    4.0600 H   0  0  0  0  0  0  0  0  0  0  0  0
   -0.9509   -0.5145    3.9348 H   0  0  0  0  0  0  0  0  0  0  0  0
   -2.7522   -0.1212    1.6945 H   0  0  0  0  0  0  0  0  0  0  0  0
  1  2  2  0
  2  3  1  0
  3  4  1  0
  4  5  1  0
  5  6  2  0
  6  7  1  0
  7  8  1  0
  8  9  2  0
  9  1  1  0
  7  3  2  0
  1 10  1  0
  2 11  1  0
  5 12  1  0
  6 13  1  0
  8 14  1  0
M  END
>  <ligand_id>  (60) 
59

>  <original_smiles>  (60) 
c1cc2occc2cn1

>  <smiles>  (60) 
c1cc2occc2cn1

$$$$
60:0
     RDKit          3D

 21 22  0  0  0  0  0  0  0  0999 V2000
   -3.2424   -0.3993   -0.3705 C   0  0  0  0  0  0  0  0  0  0  0  0
   -3.2809    0.8538    0.2372 C   0  0  0  0  0  0  0  0  0  0  0  0
   -2.1335    1.4269    0.6858 N   0  0  0  0  0  0  0  0  0  0  0  0
   -0.9345    0.7991    0.5540 C   0  0  0  0  0  0  0  0  0  0  0  0
    0.1386    1.3883    0.9995 N   0  0  0  0  0  0  0  0  0  0  0  0
    1.4985    0.9183    0.9685 C   0  0  0  0  0  0  0  0  0  0  0  0
    1.8618   -0.3193    0.4158 C   0  0  0  0  0  0  0  0  0  0  0  0
    3.2016   -0.7125    0.4195 C   0  0  0  0  0  0  0  0  0  0  0  0
    4.1488    0.1016    0.9567 N   0  0  0  0  0  0  0  0  0  0  0  0
    3.8250    1.3058    1.4988 C   0  0  0  0  0  0  0  0  0  0  0  0
    2.4952    1.7329    1.5132 C   0  0  0  0  0  0  0  0  0  0  0  0
   -0.8832   -0.4268   -0.0386 N   0  0  0  0  0  0  0  0  0  0  0  0
   -2.0083   -1.0324   -0.4998 C   0  0  0  0  0  0  0  0  0  0  0  0
   -4.1627   -0.8763   -0.7388 H   0  0  0  0  0  0  0  0  0  0  0  0
   -4.2402    1.3792    0.3540 H   0  0  0  0  0  0  0  0  0  0  0  0
    1.0943   -0.9769   -0.0184 H   0  0  0  0  0  0  0  0  0  0  0  0
    3.4910   -1.6818   -0.0126 H   0  0  0  0  0  0  0  0  0  0  0  0
    4.6116    1.9447    1.9267 H   0  0  0  0  0  0  0  0  0  0  0  0
    2.2333    2.7071    1.9517 H   0  0  0  0  0  0  0  0  0  0  0  0
    0.0248   -0.9027   -0.1387 H   0  0  0  0  0  0  0  0  0  0  0  0
   -1.9449   -2.0224   -0.9751 H   0  0  0  0  0  0  0  0  0  0  0  0
  1  2  1  0
  2  3  2  0
  3  4  1  0
  4  5  2  3
  5  6  1  0
  6  7  2  0
  7  8  1  0
  8  9  2  0
  9 10  1  0
 10 11  2  0
  4 12  1  0
 12 13  1  0
 13  1  2  0
 11  6  1  0
  1 14  1  0
  2 15  1  0
  7 16  1  0
  8 17  1  0
 10 18  1  0
 11 19  1  0
 12 20  1  0
 13 21  1  0
M  END
>  <ligand_id>  (61) 
60

>  <original_smiles>  (61) 
c1cnc(=Nc2ccncc2)[nH]c1

>  <smiles>  (61) 
c1cnc(=Nc2ccncc2)[nH]c1

$$$$
61:0
     RDKit          3D

 20 22  0  0  0  0  0  0  0  0999 V2000
   -0.7131    3.2436    1.4793 C   0  0  0  0  0  0  0  0  0  0  0  0
   -0.5046    2.7595    2.7910 C   0  0  0  0  0  0  0  0  0  0  0  0
   -0.0136    1.5003    3.0003 N   0  0  0  0  0  0  0  0  0  0  0  0
    0.2717    0.7193    1.9290 C   0  0  0  0  0  0  0  0  0  0  0  0
    0.7738   -0.5774    1.9209 C   0  0  0  0  0  0  0  0  0  0  0  0
    0.8545   -0.8425    0.5524 C   0  0  0  0  0  0  0  0  0  0  0  0
    1.2908   -1.9926   -0.0176 N   0  0  0  0  0  0  0  0  0  0  0  0
    1.3072   -2.0912   -1.3791 C   0  0  0  0  0  0  0  0  0  0  0  0
    0.8785   -1.0176   -2.1831 C   0  0  0  0  0  0  0  0  0  0  0  0
    0.4339    0.1561   -1.5621 C   0  0  0  0  0  0  0  0  0  0  0  0
    0.4415    0.1925   -0.2077 N   0  0  0  0  0  0  0  0  0  0  0  0
    0.0814    1.1575    0.6438 C   0  0  0  0  0  0  0  0  0  0  0  0
   -0.4153    2.4290    0.3729 C   0  0  0  0  0  0  0  0  0  0  0  0
   -1.1085    4.2583    1.3242 H   0  0  0  0  0  0  0  0  0  0  0  0
   -0.7397    3.4022    3.6522 H   0  0  0  0  0  0  0  0  0  0  0  0
    1.0381   -1.2247    2.7700 H   0  0  0  0  0  0  0  0  0  0  0  0
    1.6590   -3.0194   -1.8532 H   0  0  0  0  0  0  0  0  0  0  0  0
    0.8926   -1.0995   -3.2800 H   0  0  0  0  0  0  0  0  0  0  0  0
    0.0906    1.0181   -2.1529 H   0  0  0  0  0  0  0  0  0  0  0  0
   -0.5678    2.7800   -0.6584 H   0  0  0  0  0  0  0  0  0  0  0  0
  1  2  2  0
  2  3  1  0
  3  4  2  0
  4  5  1  0
  5  6  2  0
  6  7  1  0
  7  8  2  0
  8  9  1  0
  9 10  2  0
 10 11  1  0
 11 12  1  0
 12 13  2  0
 13  1  1  0
 12  4  1  0
 11  6  1  0
  1 14  1  0
  2 15  1  0
  5 16  1  0
  8 17  1  0
  9 18  1  0
 10 19  1  0
 13 20  1  0
M  END
>  <ligand_id>  (62) 
61

>  <original_smiles>  (62) 
c1cnc2cc3ncccn3c2c1

>  <smiles>  (62) 
c1cnc2cc3ncccn3c2c1

$$$$
62:0
     RDKit          3D

 15 16  0  0  0  0  0  0  0  0999 V2000
   -1.1717    0.4625   -0.6957 C   0  0  0  0  0  0  0  0  0  0  0  0
   -2.1507    0.2139    0.2857 C   0  0  0  0  0  0  0  0  0  0  0  0
   -1.7656    0.0964    1.6293 C   0  0  0  0  0  0  0  0  0  0  0  0
   -0.4496    0.2292    1.9269 N   0  0  0  0  0  0  0  0  0  0  0  0
    0.1618    0.1600    3.1168 C   0  0  0  0  0  0  0  0  0  0  0  0
    1.5173    0.3654    2.8721 C   0  0  0  0  0  0  0  0  0  0  0  0
    1.7276    0.5578    1.5453 N   0  0  0  0  0  0  0  0  0  0  0  0
    0.4986    0.4655    1.0119 C   0  0  0  0  0  0  0  0  0  0  0  0
    0.1803    0.5926   -0.3382 C   0  0  0  0  0  0  0  0  0  0  0  0
   -1.4683    0.5556   -1.7509 H   0  0  0  0  0  0  0  0  0  0  0  0
   -3.2084    0.1129    0.0010 H   0  0  0  0  0  0  0  0  0  0  0  0
   -2.5083   -0.0976    2.4171 H   0  0  0  0  0  0  0  0  0  0  0  0
   -0.3122   -0.0227    4.0925 H   0  0  0  0  0  0  0  0  0  0  0  0
    2.3030    0.3710    3.6420 H   0  0  0  0  0  0  0  0  0  0  0  0
    0.9561    0.7867   -1.0935 H   0  0  0  0  0  0  0  0  0  0  0  0
  1  2  1  0
  2  3  2  0
  3  4  1  0
  4  5  1  0
  5  6  2  0
  6  7  1  0
  7  8  2  0
  8  9  1  0
  9  1  2  0
  8  4  1  0
  1 10  1  0
  2 11  1  0
  3 12  1  0
  5 13  1  0
  6 14  1  0
  9 15  1  0
M  END
>  <ligand_id>  (63) 
62

>  <original_smiles>  (63) 
c1ccn2ccnc2c1

>  <smiles>  (63) 
c1ccn2ccnc2c1

$$$$
63:0
     RDKit          3D

 10 10  0  0  0  0  0  0  0  0999 V2000
   -2.7557    1.1547    0.1542 C   0  0  0  0  0  0  0  0  0  0  0  0
   -1.5105    0.9286    0.9334 C   0  0  0  0  0  0  0  0  0  0  0  0
   -0.6584    1.9780    1.2878 C   0  0  0  0  0  0  0  0  0  0  0  0
    0.5495    1.1852    2.1290 S   0  0  0  0  0  0  0  0  0  0  0  0
   -0.0064   -0.3695    2.0270 N   0  0  0  0  0  0  0  0  0  0  0  0
   -1.1414   -0.3235    1.3405 N   0  0  0  0  0  0  0  0  0  0  0  0
   -3.5979    1.3076    0.8450 H   0  0  0  0  0  0  0  0  0  0  0  0
   -2.6349    2.0456   -0.4796 H   0  0  0  0  0  0  0  0  0  0  0  0
   -2.9558    0.2782   -0.4796 H   0  0  0  0  0  0  0  0  0  0  0  0
   -0.7572    3.0515    1.0692 H   0  0  0  0  0  0  0  0  0  0  0  0
  1  2  1  0
  2  3  2  0
  3  4  1  0
  4  5  1  0
  5  6  2  0
  6  2  1  0
  1  7  1  0
  1  8  1  0
  1  9  1  0
  3 10  1  0
M  END
>  <ligand_id>  (64) 
63

>  <original_smiles>  (64) 
Cc1csnn1

>  <smiles>  (64) 
Cc1csnn1

$$$$
64:0
     RDKit          3D

 16 17  0  0  0  0  0  0  0  0999 V2000
   -1.8816    1.0874    0.3526 C   0  0  0  0  0  0  0  0  0  0  0  0
   -2.1738    0.7612    1.6809 C   0  0  0  0  0  0  0  0  0  0  0  0
   -1.1693    0.4834    2.5565 N   0  0  0  0  0  0  0  0  0  0  0  0
    0.1349    0.5138    2.1723 C   0  0  0  0  0  0  0  0  0  0  0  0
    1.1196    0.2321    3.0670 N   0  0  0  0  0  0  0  0  0  0  0  0
    2.4325    0.2555    2.7082 C   0  0  0  0  0  0  0  0  0  0  0  0
    2.7998    0.5735    1.3967 C   0  0  0  0  0  0  0  0  0  0  0  0
    1.8081    0.8669    0.4578 C   0  0  0  0  0  0  0  0  0  0  0  0
    0.4674    0.8386    0.8413 C   0  0  0  0  0  0  0  0  0  0  0  0
   -0.5502    1.1258   -0.0681 C   0  0  0  0  0  0  0  0  0  0  0  0
   -2.6934    1.3119   -0.3548 H   0  0  0  0  0  0  0  0  0  0  0  0
   -3.2199    0.7290    2.0194 H   0  0  0  0  0  0  0  0  0  0  0  0
    3.2080    0.0233    3.4530 H   0  0  0  0  0  0  0  0  0  0  0  0
    3.8607    0.5923    1.1069 H   0  0  0  0  0  0  0  0  0  0  0  0
    2.0826    1.1186   -0.5772 H   0  0  0  0  0  0  0  0  0  0  0  0
   -0.3060    1.3808   -1.1099 H   0  0  0  0  0  0  0  0  0  0  0  0
  1  2  2  0
  2  3  1  0
  3  4  2  0
  4  5  1  0
  5  6  2  0
  6  7  1  0
  7  8  2  0
  8  9  1  0
  9 10  2  0
 10  1  1  0
  9  4  1  0
  1 11  1  0
  2 12  1  0
  6 13  1  0
  7 14  1  0
  8 15  1  0
 10 16  1  0
M  END
>  <ligand_id>  (65) 
64

>  <original_smiles>  (65) 
c1cnc2ncccc2c1

>  <smiles>  (65) 
c1cnc2ncccc2c1

$$$$
65:0
     RDKit          3D

 14 15  0  0  0  0  0  0  0  0999 V2000
   -1.4521    0.5986   -0.5099 C   0  0  0  0  0  0  0  0  0  0  0  0
   -2.2092    0.0647    0.5517 C   0  0  0  0  0  0  0  0  0  0  0  0
   -1.6293   -0.1819    1.7632 N   0  0  0  0  0  0  0  0  0  0  0  0
   -0.3126    0.0977    1.9212 C   0  0  0  0  0  0  0  0  0  0  0  0
    0.4572   -0.0740    3.0488 C   0  0  0  0  0  0  0  0  0  0  0  0
    1.7123    0.3795    2.6218 C   0  0  0  0  0  0  0  0  0  0  0  0
    1.6580    0.7846    1.3284 N   0  0  0  0  0  0  0  0  0  0  0  0
    0.4173    0.6030    0.9269 N   0  0  0  0  0  0  0  0  0  0  0  0
   -0.0937    0.8712   -0.2980 C   0  0  0  0  0  0  0  0  0  0  0  0
   -1.9182    0.7976   -1.4862 H   0  0  0  0  0  0  0  0  0  0  0  0
   -3.2766   -0.1554    0.4033 H   0  0  0  0  0  0  0  0  0  0  0  0
    0.1627   -0.4667    4.0332 H   0  0  0  0  0  0  0  0  0  0  0  0
    2.6161    0.4037    3.2484 H   0  0  0  0  0  0  0  0  0  0  0  0
    0.5351    1.2883   -1.0985 H   0  0  0  0  0  0  0  0  0  0  0  0
  1  2  1  0
  2  3  2  0
  3  4  1  0
  4  5  2  0
  5  6  1  0
  6  7  2  0
  7  8  1  0
  8  9  1  0
  9  1  2  0
  8  4  1  0
  1 10  1  0
  2 11  1  0
  5 12  1  0
  6 13  1  0
  9 14  1  0
M  END
>  <ligand_id>  (66) 
65

>  <original_smiles>  (66) 
c1cnc2ccnn2c1

>  <smiles>  (66) 
c1cnc2ccnn2c1

$$$$
66:0
     RDKit          3D

 17 18  0  0  0  0  0  0  0  0999 V2000
   -2.1493    1.2278   -0.7871 C   0  0  0  0  0  0  0  0  0  0  0  0
   -1.0808    0.9837    0.2170 C   0  0  0  0  0  0  0  0  0  0  0  0
   -0.6714    1.9046    1.1753 C   0  0  0  0  0  0  0  0  0  0  0  0
    0.2962    1.2756    1.8540 N   0  0  0  0  0  0  0  0  0  0  0  0
    1.0121    1.7335    2.8782 N   0  0  0  0  0  0  0  0  0  0  0  0
    1.9602    0.9274    3.4359 C   0  0  0  0  0  0  0  0  0  0  0  0
    2.1646   -0.3676    2.9224 C   0  0  0  0  0  0  0  0  0  0  0  0
    1.3944   -0.8230    1.8416 C   0  0  0  0  0  0  0  0  0  0  0  0
    0.4486    0.0556    1.3272 C   0  0  0  0  0  0  0  0  0  0  0  0
   -0.3872   -0.1796    0.3008 N   0  0  0  0  0  0  0  0  0  0  0  0
   -3.0958    1.4441   -0.2701 H   0  0  0  0  0  0  0  0  0  0  0  0
   -1.8713    2.0856   -1.4172 H   0  0  0  0  0  0  0  0  0  0  0  0
   -2.2714    0.3345   -1.4172 H   0  0  0  0  0  0  0  0  0  0  0  0
   -1.0564    2.9219    1.3389 H   0  0  0  0  0  0  0  0  0  0  0  0
    2.5624    1.2872    4.2831 H   0  0  0  0  0  0  0  0  0  0  0  0
    2.9280   -1.0221    3.3684 H   0  0  0  0  0  0  0  0  0  0  0  0
    1.5330   -1.8298    1.4206 H   0  0  0  0  0  0  0  0  0  0  0  0
  1  2  1  0
  2  3  2  0
  3  4  1  0
  4  5  1  0
  5  6  2  0
  6  7  1  0
  7  8  2  0
  8  9  1  0
  9 10  2  0
 10  2  1  0
  9  4  1  0
  1 11  1  0
  1 12  1  0
  1 13  1  0
  3 14  1  0
  6 15  1  0
  7 16  1  0
  8 17  1  0
M  END
>  <ligand_id>  (67) 
66

>  <original_smiles>  (67) 
Cc1cn2ncccc2n1

>  <smiles>  (67) 
Cc1cn2ncccc2n1

$$$$
67:0
     RDKit          3D

 14 15  0  0  0  0  0  0  0  0999 V2000
   -1.6416   -0.2451   -0.3815 C   0  0  0  0  0  0  0  0  0  0  0  0
   -2.2387    0.6950    0.4816 C   0  0  0  0  0  0  0  0  0  0  0  0
   -1.5449    1.2000    1.5445 N   0  0  0  0  0  0  0  0  0  0  0  0
   -0.2692    0.7956    1.7752 C   0  0  0  0  0  0  0  0  0  0  0  0
    0.5340    1.2422    2.8272 C   0  0  0  0  0  0  0  0  0  0  0  0
    1.8035    0.6534    2.8155 C   0  0  0  0  0  0  0  0  0  0  0  0
    1.8907   -0.4078    1.4946 S   0  0  0  0  0  0  0  0  0  0  0  0
    0.3383   -0.1232    0.9456 C   0  0  0  0  0  0  0  0  0  0  0  0
   -0.3241   -0.6668   -0.1486 C   0  0  0  0  0  0  0  0  0  0  0  0
   -2.2067   -0.6471   -1.2353 H   0  0  0  0  0  0  0  0  0  0  0  0
   -3.2719    1.0250    0.2980 H   0  0  0  0  0  0  0  0  0  0  0  0
    0.2057    1.9741    3.5798 H   0  0  0  0  0  0  0  0  0  0  0  0
    2.6085    0.8459    3.5401 H   0  0  0  0  0  0  0  0  0  0  0  0
    0.1659   -1.3994   -0.8068 H   0  0  0  0  0  0  0  0  0  0  0  0
  1  2  2  0
  2  3  1  0
  3  4  2  0
  4  5  1  0
  5  6  2  0
  6  7  1  0
  7  8  1  0
  8  9  2  0
  9  1  1  0
  8  4  1  0
  1 10  1  0
  2 11  1  0
  5 12  1  0
  6 13  1  0
  9 14  1  0
M  END
>  <ligand_id>  (68) 
67

>  <original_smiles>  (68) 
c1cnc2ccsc2c1

>  <smiles>  (68) 
c1cnc2ccsc2c1

$$$$
68:0
     RDKit          3D

 18 20  0  0  0  0  0  0  0  0999 V2000
   -2.2482    1.5969    1.3943 C   0  0  0  0  0  0  0  0  0  0  0  0
   -2.4041    0.8651    0.1955 C   0  0  0  0  0  0  0  0  0  0  0  0
   -1.3424    0.1930   -0.3395 N   0  0  0  0  0  0  0  0  0  0  0  0
   -0.1553    0.2519    0.3086 C   0  0  0  0  0  0  0  0  0  0  0  0
    0.0089    0.9615    1.4772 C   0  0  0  0  0  0  0  0  0  0  0  0
   -1.0346    1.6344    2.0221 N   0  0  0  0  0  0  0  0  0  0  0  0
    1.4219    0.8720    2.0032 C   0  0  0  0  0  0  0  0  0  0  0  0
    2.0152   -0.0046    0.9335 C   0  0  0  0  0  0  0  0  0  0  0  0
    3.2880   -0.5294    0.7241 C   0  0  0  0  0  0  0  0  0  0  0  0
    3.3280   -1.3040   -0.4485 C   0  0  0  0  0  0  0  0  0  0  0  0
    1.7863   -1.3123   -1.1852 S   0  0  0  0  0  0  0  0  0  0  0  0
    1.1078   -0.3420   -0.0116 C   0  0  0  0  0  0  0  0  0  0  0  0
   -3.1050    2.1373    1.8230 H   0  0  0  0  0  0  0  0  0  0  0  0
   -3.3820    0.8368   -0.3074 H   0  0  0  0  0  0  0  0  0  0  0  0
    1.9093    1.8572    2.0466 H   0  0  0  0  0  0  0  0  0  0  0  0
    1.5211    0.4961    3.0322 H   0  0  0  0  0  0  0  0  0  0  0  0
    4.1484   -0.3603    1.3884 H   0  0  0  0  0  0  0  0  0  0  0  0
    4.2168   -1.8256   -0.8332 H   0  0  0  0  0  0  0  0  0  0  0  0
  1  2  2  0
  2  3  1  0
  3  4  2  0
  4  5  1  0
  5  6  2  0
  5  7  1  0
  7  8  1  0
  8  9  1  0
  9 10  2  0
 10 11  1  0
 11 12  1  0
  6  1  1  0
 12  8  2  0
 12  4  1  0
  1 13  1  0
  2 14  1  0
  7 15  1  0
  7 16  1  0
  9 17  1  0
 10 18  1  0
M  END
>  <ligand_id>  (69) 
68

>  <original_smiles>  (69) 
c1cnc2c(n1)Cc1ccsc1-2

>  <smiles>  (69) 
c1cnc2c(n1)Cc1ccsc1-2

$$$$
69:0
     RDKit          3D

 28 30  0  0  0  0  0  0  0  0999 V2000
   -4.3381    1.5496   -0.2977 C   0  0  0  0  0  0  0  0  0  0  0  0
   -3.9722    2.0522    0.9570 C   0  0  0  0  0  0  0  0  0  0  0  0
   -2.7719    1.6500    1.5535 C   0  0  0  0  0  0  0  0  0  0  0  0
   -1.9382    0.7442    0.8923 C   0  0  0  0  0  0  0  0  0  0  0  0
   -0.7703    0.3421    1.4518 N   0  0  0  0  0  0  0  0  0  0  0  0
    0.0346   -0.5362    0.7993 C   0  0  0  0  0  0  0  0  0  0  0  0
    1.5751   -1.0614    1.5401 S   0  0  0  0  0  0  0  0  0  0  0  0
    2.5086    0.3501    0.8652 C   0  0  0  0  0  0  0  0  0  0  0  0
    2.9098    0.0954   -0.5478 C   0  0  0  0  0  0  0  0  0  0  0  0
    3.9672   -0.7720   -0.8350 C   0  0  0  0  0  0  0  0  0  0  0  0
    4.3188   -1.0014   -2.1671 C   0  0  0  0  0  0  0  0  0  0  0  0
    3.6354   -0.3846   -3.1689 N   0  0  0  0  0  0  0  0  0  0  0  0
    2.6033    0.4631   -2.9100 C   0  0  0  0  0  0  0  0  0  0  0  0
    2.2213    0.7189   -1.5913 C   0  0  0  0  0  0  0  0  0  0  0  0
   -0.3367   -1.0194   -0.4169 N   0  0  0  0  0  0  0  0  0  0  0  0
   -1.4811   -0.6387   -0.9875 N   0  0  0  0  0  0  0  0  0  0  0  0
   -2.3071    0.2403   -0.3676 C   0  0  0  0  0  0  0  0  0  0  0  0
   -3.5056    0.6423   -0.9622 C   0  0  0  0  0  0  0  0  0  0  0  0
   -5.2826    1.8690   -0.7623 H   0  0  0  0  0  0  0  0  0  0  0  0
   -4.6302    2.7652    1.4753 H   0  0  0  0  0  0  0  0  0  0  0  0
   -2.4856    2.0455    2.5392 H   0  0  0  0  0  0  0  0  0  0  0  0
    1.8780    1.2505    0.9038 H   0  0  0  0  0  0  0  0  0  0  0  0
    3.4173    0.4914    1.4686 H   0  0  0  0  0  0  0  0  0  0  0  0
    4.5163   -1.2684   -0.0213 H   0  0  0  0  0  0  0  0  0  0  0  0
    5.1494   -1.6817   -2.4067 H   0  0  0  0  0  0  0  0  0  0  0  0
    2.0690    0.9476   -3.7405 H   0  0  0  0  0  0  0  0  0  0  0  0
    1.3876    1.4037   -1.3766 H   0  0  0  0  0  0  0  0  0  0  0  0
   -3.7933    0.2475   -1.9477 H   0  0  0  0  0  0  0  0  0  0  0  0
  1  2  2  0
  2  3  1  0
  3  4  2  0
  4  5  1  0
  5  6  2  0
  6  7  1  0
  7  8  1  0
  8  9  1  0
  9 10  2  0
 10 11  1  0
 11 12  2  0
 12 13  1  0
 13 14  2  0
  6 15  1  0
 15 16  2  0
 16 17  1  0
 17 18  2  0
 18  1  1  0
 17  4  1  0
 14  9  1  0
  1 19  1  0
  2 20  1  0
  3 21  1  0
  8 22  1  0
  8 23  1  0
 10 24  1  0
 11 25  1  0
 13 26  1  0
 14 27  1  0
 18 28  1  0
M  END
>  <ligand_id>  (70) 
69

>  <original_smiles>  (70) 
c1ccc2nc(SCc3ccncc3)nnc2c1

>  <smiles>  (70) 
c1ccc2nc(SCc3ccncc3)nnc2c1

$$$$
70:0
     RDKit          3D

 13 14  0  0  0  0  0  0  0  0999 V2000
   -0.4270   -0.1887   -0.8890 C   0  0  0  0  0  0  0  0  0  0  0  0
   -1.3655   -0.8947   -0.1867 N   0  0  0  0  0  0  0  0  0  0  0  0
   -1.4657   -0.7859    1.1687 C   0  0  0  0  0  0  0  0  0  0  0  0
   -0.5841    0.0656    1.8170 C   0  0  0  0  0  0  0  0  0  0  0  0
   -0.4353    0.4272    3.4411 S   0  0  0  0  0  0  0  0  0  0  0  0
    0.8570    1.5112    3.2502 C   0  0  0  0  0  0  0  0  0  0  0  0
    1.1750    1.5889    1.8890 C   0  0  0  0  0  0  0  0  0  0  0  0
    0.3562    0.7720    1.1061 C   0  0  0  0  0  0  0  0  0  0  0  0
    0.4373    0.6477   -0.2423 N   0  0  0  0  0  0  0  0  0  0  0  0
   -0.3684   -0.2956   -1.9822 H   0  0  0  0  0  0  0  0  0  0  0  0
   -2.2215   -1.3552    1.7297 H   0  0  0  0  0  0  0  0  0  0  0  0
    1.3600    2.0603    4.0599 H   0  0  0  0  0  0  0  0  0  0  0  0
    1.9782    2.2211    1.4825 H   0  0  0  0  0  0  0  0  0  0  0  0
  1  2  2  0
  2  3  1  0
  3  4  2  0
  4  5  1  0
  5  6  1  0
  6  7  2  0
  7  8  1  0
  8  9  2  0
  9  1  1  0
  8  4  1  0
  1 10  1  0
  3 11  1  0
  6 12  1  0
  7 13  1  0
M  END
>  <ligand_id>  (71) 
70

>  <original_smiles>  (71) 
c1ncc2sccc2n1

>  <smiles>  (71) 
c1ncc2sccc2n1

$$$$
71:0
     RDKit          3D

 24 26  0  0  0  0  0  0  0  0999 V2000
   -2.9468    1.1086    2.9601 C   0  0  0  0  0  0  0  0  0  0  0  0
   -1.7498    0.8193    2.1287 C   0  0  0  0  0  0  0  0  0  0  0  0
   -1.8093   -0.1756    1.1243 C   0  0  0  0  0  0  0  0  0  0  0  0
   -0.7140   -0.4517    0.3528 N   0  0  0  0  0  0  0  0  0  0  0  0
    0.4241    0.2531    0.5725 C   0  0  0  0  0  0  0  0  0  0  0  0
    0.5243    1.2092    1.5278 C   0  0  0  0  0  0  0  0  0  0  0  0
   -0.5544    1.5311    2.3436 C   0  0  0  0  0  0  0  0  0  0  0  0
    1.7691    1.7190    1.5455 N   0  0  0  0  0  0  0  0  0  0  0  0
    2.4087    1.0268    0.5604 C   0  0  0  0  0  0  0  0  0  0  0  0
    1.5960    0.1330   -0.0613 N   0  0  0  0  0  0  0  0  0  0  0  0
    1.9661   -0.8347   -1.0893 C   0  0  0  0  0  0  0  0  0  0  0  0
    2.6061   -0.1246   -2.2701 C   0  0  0  0  0  0  0  0  0  0  0  0
    1.1667   -0.5772   -2.3549 C   0  0  0  0  0  0  0  0  0  0  0  0
   -2.6781    1.0437    4.0248 H   0  0  0  0  0  0  0  0  0  0  0  0
   -3.3133    2.1212    2.7355 H   0  0  0  0  0  0  0  0  0  0  0  0
   -3.7352    0.3751    2.7355 H   0  0  0  0  0  0  0  0  0  0  0  0
   -2.7444   -0.7319    0.9625 H   0  0  0  0  0  0  0  0  0  0  0  0
   -0.4774    2.3059    3.1206 H   0  0  0  0  0  0  0  0  0  0  0  0
    3.4664    1.1756    0.2978 H   0  0  0  0  0  0  0  0  0  0  0  0
    2.2090   -1.7148   -0.4758 H   0  0  0  0  0  0  0  0  0  0  0  0
    2.8421    0.9478   -2.2044 H   0  0  0  0  0  0  0  0  0  0  0  0
    3.5085   -0.2865   -2.8779 H   0  0  0  0  0  0  0  0  0  0  0  0
    0.3558    0.1661   -2.3510 H   0  0  0  0  0  0  0  0  0  0  0  0
    0.5893   -1.2044   -3.0501 H   0  0  0  0  0  0  0  0  0  0  0  0
  1  2  1  0
  2  3  2  0
  3  4  1  0
  4  5  2  0
  5  6  1  0
  6  7  2  0
  6  8  1  0
  8  9  2  0
  9 10  1  0
 10 11  1  0
 11 12  1  0
 12 13  1  0
  7  2  1  0
 13 11  1  0
 10  5  1  0
  1 14  1  0
  1 15  1  0
  1 16  1  0
  3 17  1  0
  7 18  1  0
  9 19  1  0
 11 20  1  0
 12 21  1  0
 12 22  1  0
 13 23  1  0
 13 24  1  0
M  END
>  <ligand_id>  (72) 
71

>  <original_smiles>  (72) 
Cc1cnc2c(c1)ncn2C1CC1

>  <smiles>  (72) 
Cc1cnc2c(c1)ncn2C1CC1

$$$$
72:0
     RDKit          3D

 16 16  0  0  0  0  0  0  0  0999 V2000
   -3.2659    0.5698   -0.2645 C   0  0  0  0  0  0  0  0  0  0  0  0
   -1.9483    0.0402   -0.3177 O   0  0  0  0  0  0  0  0  0  0  0  0
   -1.0532    0.1340    0.7514 C   0  0  0  0  0  0  0  0  0  0  0  0
    0.2264   -0.4154    0.6140 C   0  0  0  0  0  0  0  0  0  0  0  0
    1.1449   -0.3379    1.6654 C   0  0  0  0  0  0  0  0  0  0  0  0
    0.7876    0.2907    2.8616 C   0  0  0  0  0  0  0  0  0  0  0  0
   -0.4883    0.8421    3.0071 C   0  0  0  0  0  0  0  0  0  0  0  0
   -1.4069    0.7648    1.9561 C   0  0  0  0  0  0  0  0  0  0  0  0
   -3.5698    0.6920    0.7857 H   0  0  0  0  0  0  0  0  0  0  0  0
   -3.2890    1.5471   -0.7689 H   0  0  0  0  0  0  0  0  0  0  0  0
   -3.9589   -0.1196   -0.7689 H   0  0  0  0  0  0  0  0  0  0  0  0
    0.5111   -0.9109   -0.3259 H   0  0  0  0  0  0  0  0  0  0  0  0
    2.1492   -0.7719    1.5511 H   0  0  0  0  0  0  0  0  0  0  0  0
    1.5106    0.3514    3.6884 H   0  0  0  0  0  0  0  0  0  0  0  0
   -0.7697    1.3369    3.9484 H   0  0  0  0  0  0  0  0  0  0  0  0
   -2.4106    1.1994    2.0728 H   0  0  0  0  0  0  0  0  0  0  0  0
  1  2  1  0
  2  3  1  0
  3  4  2  0
  4  5  1  0
  5  6  2  0
  6  7  1  0
  7  8  2  0
  8  3  1  0
  1  9  1  0
  1 10  1  0
  1 11  1  0
  4 12  1  0
  5 13  1  0
  6 14  1  0
  7 15  1  0
  8 16  1  0
M  END
>  <ligand_id>  (73) 
72

>  <original_smiles>  (73) 
COc1ccccc1

>  <smiles>  (73) 
COc1ccccc1

$$$$
73:0
     RDKit          3D

 26 28  0  0  0  0  0  0  0  0999 V2000
   -4.9265    1.6412    1.8967 C   0  0  0  0  0  0  0  0  0  0  0  0
   -3.7851    2.4007    1.5231 O   0  0  0  0  0  0  0  0  0  0  0  0
   -2.6083    1.8127    1.0515 C   0  0  0  0  0  0  0  0  0  0  0  0
   -1.5317    2.6352    0.7057 C   0  0  0  0  0  0  0  0  0  0  0  0
   -0.3411    2.0778    0.2309 C   0  0  0  0  0  0  0  0  0  0  0  0
   -0.2127    0.6888    0.0961 C   0  0  0  0  0  0  0  0  0  0  0  0
    1.0449    0.1075   -0.4049 C   0  0  0  0  0  0  0  0  0  0  0  0
    1.2828   -1.2652   -0.5791 C   0  0  0  0  0  0  0  0  0  0  0  0
    2.5343   -1.3191   -1.0447 N   0  0  0  0  0  0  0  0  0  0  0  0
    3.3946   -2.2889   -1.4234 C   0  0  0  0  0  0  0  0  0  0  0  0
    4.6243   -1.7477   -1.8435 C   0  0  0  0  0  0  0  0  0  0  0  0
    4.5572   -0.0362   -1.7109 S   0  0  0  0  0  0  0  0  0  0  0  0
    2.9916   -0.0937   -1.1364 C   0  0  0  0  0  0  0  0  0  0  0  0
    2.1280    0.8593   -0.7575 N   0  0  0  0  0  0  0  0  0  0  0  0
   -1.2919   -0.1364    0.4427 C   0  0  0  0  0  0  0  0  0  0  0  0
   -2.4824    0.4207    0.9174 C   0  0  0  0  0  0  0  0  0  0  0  0
   -4.9940    1.5963    2.9937 H   0  0  0  0  0  0  0  0  0  0  0  0
   -5.8321    2.1174    1.4928 H   0  0  0  0  0  0  0  0  0  0  0  0
   -4.8370    0.6219    1.4928 H   0  0  0  0  0  0  0  0  0  0  0  0
   -1.6222    3.7267    0.8079 H   0  0  0  0  0  0  0  0  0  0  0  0
    0.5002    2.7333   -0.0385 H   0  0  0  0  0  0  0  0  0  0  0  0
    0.5978   -2.1022   -0.3789 H   0  0  0  0  0  0  0  0  0  0  0  0
    3.1638   -3.3642   -1.4059 H   0  0  0  0  0  0  0  0  0  0  0  0
    5.4888   -2.3272   -2.1992 H   0  0  0  0  0  0  0  0  0  0  0  0
   -1.2012   -1.2278    0.3404 H   0  0  0  0  0  0  0  0  0  0  0  0
   -3.3242   -0.2339    1.1870 H   0  0  0  0  0  0  0  0  0  0  0  0
  1  2  1  0
  2  3  1  0
  3  4  2  0
  4  5  1  0
  5  6  2  0
  6  7  1  0
  7  8  2  0
  8  9  1  0
  9 10  1  0
 10 11  2  0
 11 12  1  0
 12 13  1  0
 13 14  2  0
  6 15  1  0
 15 16  2  0
 16  3  1  0
 14  7  1  0
 13  9  1  0
  1 17  1  0
  1 18  1  0
  1 19  1  0
  4 20  1  0
  5 21  1  0
  8 22  1  0
 10 23  1  0
 11 24  1  0
 15 25  1  0
 16 26  1  0
M  END
>  <ligand_id>  (74) 
73

>  <original_smiles>  (74) 
COc1ccc(-c2cn3ccsc3n2)cc1

>  <smiles>  (74) 
COc1ccc(-c2cn3ccsc3n2)cc1

$$$$
74:0
     RDKit          3D

 39 39  0  0  0  0  0  0  0  0999 V2000
   -3.0213    0.8594    0.4562 C   0  0  0  0  0  0  0  0  0  0  0  0
   -1.6331    0.3406    0.3036 C   0  0  0  0  0  0  0  0  0  0  0  0
   -1.1540   -0.4938    1.2365 C   0  0  0  0  0  0  0  0  0  0  0  0
    0.2265   -1.0867    1.2078 C   0  0  0  0  0  0  0  0  0  0  0  0
    1.2663   -0.0808    1.5941 C   0  0  0  0  0  0  0  0  0  0  0  0
    1.2770    0.4440    2.8936 C   0  0  0  0  0  0  0  0  0  0  0  0
    2.2472    1.3772    3.2686 C   0  0  0  0  0  0  0  0  0  0  0  0
    2.2489    1.9339    4.6462 C   0  0  0  0  0  0  0  0  0  0  0  0
    3.2155    1.7865    2.3483 C   0  0  0  0  0  0  0  0  0  0  0  0
    3.2164    1.2596    1.0539 C   0  0  0  0  0  0  0  0  0  0  0  0
    2.2482    0.3247    0.6742 C   0  0  0  0  0  0  0  0  0  0  0  0
    2.2729   -0.1974   -0.6137 O   0  0  0  0  0  0  0  0  0  0  0  0
   -0.8302    0.7523   -0.8959 C   0  0  0  0  0  0  0  0  0  0  0  0
   -0.8775   -0.2989   -1.9627 C   0  0  0  0  0  0  0  0  0  0  0  0
   -1.8622   -0.4124   -2.8585 C   0  0  0  0  0  0  0  0  0  0  0  0
   -3.0053    0.5527   -2.8771 C   0  0  0  0  0  0  0  0  0  0  0  0
   -1.8120   -1.4930   -3.8568 C   0  0  0  0  0  0  0  0  0  0  0  0
   -2.7276   -1.6088   -4.7140 O   0  0  0  0  0  0  0  0  0  0  0  0
   -0.7557   -2.3976   -3.8644 O   0  0  0  0  0  0  0  0  0  0  0  0
   -3.2634    0.9499    1.5254 H   0  0  0  0  0  0  0  0  0  0  0  0
   -3.0983    1.8470   -0.0220 H   0  0  0  0  0  0  0  0  0  0  0  0
   -3.7271    0.1643   -0.0220 H   0  0  0  0  0  0  0  0  0  0  0  0
   -1.8126   -0.7615    2.0758 H   0  0  0  0  0  0  0  0  0  0  0  0
    0.2673   -1.9307    1.9121 H   0  0  0  0  0  0  0  0  0  0  0  0
    0.4361   -1.4214    0.1812 H   0  0  0  0  0  0  0  0  0  0  0  0
    0.5186    0.1199    3.6214 H   0  0  0  0  0  0  0  0  0  0  0  0
    2.2463    1.1096    5.3747 H   0  0  0  0  0  0  0  0  0  0  0  0
    3.1491    2.5491    4.7919 H   0  0  0  0  0  0  0  0  0  0  0  0
    1.3528    2.5549    4.7919 H   0  0  0  0  0  0  0  0  0  0  0  0
    3.9772    2.5235    2.6426 H   0  0  0  0  0  0  0  0  0  0  0  0
    3.9811    1.5813    0.3315 H   0  0  0  0  0  0  0  0  0  0  0  0
    1.5920   -0.8598   -0.8925 H   0  0  0  0  0  0  0  0  0  0  0  0
   -1.2400    1.6908   -1.2978 H   0  0  0  0  0  0  0  0  0  0  0  0
    0.2163    0.8892   -0.5860 H   0  0  0  0  0  0  0  0  0  0  0  0
   -0.0501   -1.0221   -2.0112 H   0  0  0  0  0  0  0  0  0  0  0  0
   -3.2953    0.7976   -1.8447 H   0  0  0  0  0  0  0  0  0  0  0  0
   -2.7011    1.4714   -3.4002 H   0  0  0  0  0  0  0  0  0  0  0  0
   -3.8600    0.0989   -3.4002 H   0  0  0  0  0  0  0  0  0  0  0  0
   -0.7290   -3.1217   -4.5390 H   0  0  0  0  0  0  0  0  0  0  0  0
  1  2  1  0
  2  3  2  3
  3  4  1  0
  4  5  1  0
  5  6  2  0
  6  7  1  0
  7  8  1  0
  7  9  2  0
  9 10  1  0
 10 11  2  0
 11 12  1  0
  2 13  1  0
 13 14  1  0
 14 15  2  3
 15 16  1  0
 15 17  1  0
 17 18  2  0
 17 19  1  0
 11  5  1  0
  1 20  1  0
  1 21  1  0
  1 22  1  0
  3 23  1  0
  4 24  1  0
  4 25  1  0
  6 26  1  0
  8 27  1  0
  8 28  1  0
  8 29  1  0
  9 30  1  0
 10 31  1  0
 12 32  1  0
 13 33  1  0
 13 34  1  0
 14 35  1  0
 16 36  1  0
 16 37  1  0
 16 38  1  0
 19 39  1  0
M  END
>  <ligand_id>  (75) 
74

>  <original_smiles>  (75) 
CC(=CCc1cc(C)ccc1O)CC=C(C)C(=O)O

>  <smiles>  (75) 
CC(=CCc1cc(C)ccc1O)CC=C(C)C(=O)O

$$$$
75:0
     RDKit          3D

 16 17  0  0  0  0  0  0  0  0999 V2000
   -2.2751   -0.0769   -1.1586 F   0  0  0  0  0  0  0  0  0  0  0  0
   -1.3915    0.0231   -0.1371 C   0  0  0  0  0  0  0  0  0  0  0  0
   -1.8165   -0.1994    1.1780 C   0  0  0  0  0  0  0  0  0  0  0  0
   -0.9093   -0.0978    2.2382 C   0  0  0  0  0  0  0  0  0  0  0  0
    0.4251    0.2271    1.9813 C   0  0  0  0  0  0  0  0  0  0  0  0
    1.3203    0.3302    2.9979 N   0  0  0  0  0  0  0  0  0  0  0  0
    2.6208    0.6460    2.7558 C   0  0  0  0  0  0  0  0  0  0  0  0
    3.0456    0.8683    1.4425 C   0  0  0  0  0  0  0  0  0  0  0  0
    2.1540    0.7665    0.4206 N   0  0  0  0  0  0  0  0  0  0  0  0
    0.8538    0.4514    0.6563 C   0  0  0  0  0  0  0  0  0  0  0  0
   -0.0562    0.3486   -0.3990 C   0  0  0  0  0  0  0  0  0  0  0  0
   -2.8675   -0.4551    1.3785 H   0  0  0  0  0  0  0  0  0  0  0  0
   -1.2455   -0.2731    3.2707 H   0  0  0  0  0  0  0  0  0  0  0  0
    3.3346    0.7260    3.5889 H   0  0  0  0  0  0  0  0  0  0  0  0
    4.0955    1.1242    1.2368 H   0  0  0  0  0  0  0  0  0  0  0  0
    0.2762    0.5232   -1.4329 H   0  0  0  0  0  0  0  0  0  0  0  0
  1  2  1  0
  2  3  2  0
  3  4  1  0
  4  5  2  0
  5  6  1  0
  6  7  2  0
  7  8  1  0
  8  9  2  0
  9 10  1  0
 10 11  2  0
 11  2  1  0
 10  5  1  0
  3 12  1  0
  4 13  1  0
  7 14  1  0
  8 15  1  0
 11 16  1  0
M  END
>  <ligand_id>  (76) 
75

>  <original_smiles>  (76) 
Fc1ccc2nccnc2c1

>  <smiles>  (76) 
Fc1ccc2nccnc2c1

$$$$
76:0
     RDKit          3D

 14 15  0  0  0  0  0  0  0  0999 V2000
   -1.6416   -0.2451   -0.3815 C   0  0  0  0  0  0  0  0  0  0  0  0
   -2.2387    0.6950    0.4816 C   0  0  0  0  0  0  0  0  0  0  0  0
   -1.5449    1.2000    1.5445 N   0  0  0  0  0  0  0  0  0  0  0  0
   -0.2692    0.7956    1.7752 C   0  0  0  0  0  0  0  0  0  0  0  0
    0.5340    1.2422    2.8272 C   0  0  0  0  0  0  0  0  0  0  0  0
    1.8035    0.6534    2.8155 C   0  0  0  0  0  0  0  0  0  0  0  0
    1.8907   -0.4078    1.4946 S   0  0  0  0  0  0  0  0  0  0  0  0
    0.3383   -0.1232    0.9456 C   0  0  0  0  0  0  0  0  0  0  0  0
   -0.3241   -0.6668   -0.1486 C   0  0  0  0  0  0  0  0  0  0  0  0
   -2.2067   -0.6471   -1.2353 H   0  0  0  0  0  0  0  0  0  0  0  0
   -3.2719    1.0250    0.2980 H   0  0  0  0  0  0  0  0  0  0  0  0
    0.2057    1.9741    3.5798 H   0  0  0  0  0  0  0  0  0  0  0  0
    2.6085    0.8459    3.5401 H   0  0  0  0  0  0  0  0  0  0  0  0
    0.1659   -1.3994   -0.8068 H   0  0  0  0  0  0  0  0  0  0  0  0
  1  2  2  0
  2  3  1  0
  3  4  2  0
  4  5  1  0
  5  6  2  0
  6  7  1  0
  7  8  1  0
  8  9  2  0
  9  1  1  0
  8  4  1  0
  1 10  1  0
  2 11  1  0
  5 12  1  0
  6 13  1  0
  9 14  1  0
M  END
>  <ligand_id>  (77) 
76

>  <original_smiles>  (77) 
c1cnc2ccsc2c1

>  <smiles>  (77) 
c1cnc2ccsc2c1

$$$$
77:0
     RDKit          3D

 13 14  0  0  0  0  0  0  0  0999 V2000
   -1.7319   -0.1242   -0.2849 C   0  0  0  0  0  0  0  0  0  0  0  0
   -1.9853   -0.9167    0.8531 C   0  0  0  0  0  0  0  0  0  0  0  0
   -1.1786   -0.8303    1.9512 N   0  0  0  0  0  0  0  0  0  0  0  0
   -0.1299    0.0286    1.9324 C   0  0  0  0  0  0  0  0  0  0  0  0
    0.9895    0.3107    3.1415 S   0  0  0  0  0  0  0  0  0  0  0  0
    1.8230    1.4649    2.2129 C   0  0  0  0  0  0  0  0  0  0  0  0
    1.2436    1.6250    0.9937 N   0  0  0  0  0  0  0  0  0  0  0  0
    0.1594    0.8236    0.8458 C   0  0  0  0  0  0  0  0  0  0  0  0
   -0.6419    0.7618   -0.2916 C   0  0  0  0  0  0  0  0  0  0  0  0
   -2.3864   -0.1995   -1.1658 H   0  0  0  0  0  0  0  0  0  0  0  0
   -2.8393   -1.6100    0.8564 H   0  0  0  0  0  0  0  0  0  0  0  0
    2.7149    2.0109    2.5540 H   0  0  0  0  0  0  0  0  0  0  0  0
   -0.4274    1.3887   -1.1697 H   0  0  0  0  0  0  0  0  0  0  0  0
  1  2  2  0
  2  3  1  0
  3  4  2  0
  4  5  1  0
  5  6  1  0
  6  7  2  0
  7  8  1  0
  8  9  2  0
  9  1  1  0
  8  4  1  0
  1 10  1  0
  2 11  1  0
  6 12  1  0
  9 13  1  0
M  END
>  <ligand_id>  (78) 
77

>  <original_smiles>  (78) 
c1cnc2scnc2c1

>  <smiles>  (78) 
c1cnc2scnc2c1

$$$$
78:0
     RDKit          3D

 16 16  0  0  0  0  0  0  0  0999 V2000
   -3.2659    0.5698   -0.2645 C   0  0  0  0  0  0  0  0  0  0  0  0
   -1.9483    0.0402   -0.3177 O   0  0  0  0  0  0  0  0  0  0  0  0
   -1.0532    0.1340    0.7514 C   0  0  0  0  0  0  0  0  0  0  0  0
    0.2264   -0.4154    0.6140 C   0  0  0  0  0  0  0  0  0  0  0  0
    1.1449   -0.3379    1.6654 C   0  0  0  0  0  0  0  0  0  0  0  0
    0.7876    0.2907    2.8616 C   0  0  0  0  0  0  0  0  0  0  0  0
   -0.4883    0.8421    3.0071 C   0  0  0  0  0  0  0  0  0  0  0  0
   -1.4069    0.7648    1.9561 C   0  0  0  0  0  0  0  0  0  0  0  0
   -3.5698    0.6920    0.7857 H   0  0  0  0  0  0  0  0  0  0  0  0
   -3.2890    1.5471   -0.7689 H   0  0  0  0  0  0  0  0  0  0  0  0
   -3.9589   -0.1196   -0.7689 H   0  0  0  0  0  0  0  0  0  0  0  0
    0.5111   -0.9109   -0.3259 H   0  0  0  0  0  0  0  0  0  0  0  0
    2.1492   -0.7719    1.5511 H   0  0  0  0  0  0  0  0  0  0  0  0
    1.5106    0.3514    3.6884 H   0  0  0  0  0  0  0  0  0  0  0  0
   -0.7697    1.3369    3.9484 H   0  0  0  0  0  0  0  0  0  0  0  0
   -2.4106    1.1994    2.0728 H   0  0  0  0  0  0  0  0  0  0  0  0
  1  2  1  0
  2  3  1  0
  3  4  2  0
  4  5  1  0
  5  6  2  0
  6  7  1  0
  7  8  2  0
  8  3  1  0
  1  9  1  0
  1 10  1  0
  1 11  1  0
  4 12  1  0
  5 13  1  0
  6 14  1  0
  7 15  1  0
  8 16  1  0
M  END
>  <ligand_id>  (79) 
78

>  <original_smiles>  (79) 
COc1ccccc1

>  <smiles>  (79) 
COc1ccccc1

$$$$
79:0
     RDKit          3D

 17 18  0  0  0  0  0  0  0  0999 V2000
   -2.2974   -0.0154   -1.1567 F   0  0  0  0  0  0  0  0  0  0  0  0
   -1.4088    0.0682   -0.1379 C   0  0  0  0  0  0  0  0  0  0  0  0
   -1.8392   -0.1169    1.1808 C   0  0  0  0  0  0  0  0  0  0  0  0
   -0.9269   -0.0319    2.2378 C   0  0  0  0  0  0  0  0  0  0  0  0
    0.4192    0.2388    1.9767 C   0  0  0  0  0  0  0  0  0  0  0  0
    1.3126    0.3231    2.9985 N   0  0  0  0  0  0  0  0  0  0  0  0
    2.6287    0.5854    2.7714 C   0  0  0  0  0  0  0  0  0  0  0  0
    3.0948    0.7760    1.4671 C   0  0  0  0  0  0  0  0  0  0  0  0
    2.1987    0.6949    0.3990 C   0  0  0  0  0  0  0  0  0  0  0  0
    0.8524    0.4253    0.6456 C   0  0  0  0  0  0  0  0  0  0  0  0
   -0.0631    0.3394   -0.4065 C   0  0  0  0  0  0  0  0  0  0  0  0
   -2.8985   -0.3299    1.3869 H   0  0  0  0  0  0  0  0  0  0  0  0
   -1.2684   -0.1778    3.2732 H   0  0  0  0  0  0  0  0  0  0  0  0
    3.3286    0.6478    3.6177 H   0  0  0  0  0  0  0  0  0  0  0  0
    4.1584    0.9880    1.2837 H   0  0  0  0  0  0  0  0  0  0  0  0
    2.5528    0.8428   -0.6319 H   0  0  0  0  0  0  0  0  0  0  0  0
    0.2737    0.4846   -1.4435 H   0  0  0  0  0  0  0  0  0  0  0  0
  1  2  1  0
  2  3  2  0
  3  4  1  0
  4  5  2  0
  5  6  1  0
  6  7  2  0
  7  8  1  0
  8  9  2  0
  9 10  1  0
 10 11  2  0
 11  2  1  0
 10  5  1  0
  3 12  1  0
  4 13  1  0
  7 14  1  0
  8 15  1  0
  9 16  1  0
 11 17  1  0
M  END
>  <ligand_id>  (80) 
79

>  <original_smiles>  (80) 
Fc1ccc2ncccc2c1

>  <smiles>  (80) 
Fc1ccc2ncccc2c1

$$$$
80:0
     RDKit          3D

 11 11  0  0  0  0  0  0  0  0999 V2000
   -1.7382    1.8394    0.9935 C   0  0  0  0  0  0  0  0  0  0  0  0
   -2.2737    0.5515    1.0556 C   0  0  0  0  0  0  0  0  0  0  0  0
   -1.4367   -0.5199    1.3769 C   0  0  0  0  0  0  0  0  0  0  0  0
   -0.1165   -0.3035    1.6251 N   0  0  0  0  0  0  0  0  0  0  0  0
    0.4231    0.9443    1.5694 C   0  0  0  0  0  0  0  0  0  0  0  0
   -0.3809    2.0415    1.2515 C   0  0  0  0  0  0  0  0  0  0  0  0
   -2.3843    2.6933    0.7418 H   0  0  0  0  0  0  0  0  0  0  0  0
   -3.3418    0.3824    0.8539 H   0  0  0  0  0  0  0  0  0  0  0  0
   -1.8455   -1.5397    1.4292 H   0  0  0  0  0  0  0  0  0  0  0  0
    1.4940    1.0893    1.7749 H   0  0  0  0  0  0  0  0  0  0  0  0
    0.0500    3.0526    1.2050 H   0  0  0  0  0  0  0  0  0  0  0  0
  1  2  2  0
  2  3  1  0
  3  4  2  0
  4  5  1  0
  5  6  2  0
  6  1  1  0
  1  7  1  0
  2  8  1  0
  3  9  1  0
  5 10  1  0
  6 11  1  0
M  END
>  <ligand_id>  (81) 
80

>  <original_smiles>  (81) 
c1ccncc1

>  <smiles>  (81) 
c1ccncc1

$$$$
81:0
     RDKit          3D

 14 15  0  0  0  0  0  0  0  0999 V2000
   -1.6416   -0.2451   -0.3815 C   0  0  0  0  0  0  0  0  0  0  0  0
   -2.2387    0.6950    0.4816 C   0  0  0  0  0  0  0  0  0  0  0  0
   -1.5449    1.2000    1.5445 N   0  0  0  0  0  0  0  0  0  0  0  0
   -0.2692    0.7956    1.7752 C   0  0  0  0  0  0  0  0  0  0  0  0
    0.5340    1.2422    2.8272 C   0  0  0  0  0  0  0  0  0  0  0  0
    1.8035    0.6534    2.8155 C   0  0  0  0  0  0  0  0  0  0  0  0
    1.8907   -0.4078    1.4946 S   0  0  0  0  0  0  0  0  0  0  0  0
    0.3383   -0.1232    0.9456 C   0  0  0  0  0  0  0  0  0  0  0  0
   -0.3241   -0.6668   -0.1486 C   0  0  0  0  0  0  0  0  0  0  0  0
   -2.2067   -0.6471   -1.2353 H   0  0  0  0  0  0  0  0  0  0  0  0
   -3.2719    1.0250    0.2980 H   0  0  0  0  0  0  0  0  0  0  0  0
    0.2057    1.9741    3.5798 H   0  0  0  0  0  0  0  0  0  0  0  0
    2.6085    0.8459    3.5401 H   0  0  0  0  0  0  0  0  0  0  0  0
    0.1659   -1.3994   -0.8068 H   0  0  0  0  0  0  0  0  0  0  0  0
  1  2  2  0
  2  3  1  0
  3  4  2  0
  4  5  1  0
  5  6  2  0
  6  7  1  0
  7  8  1  0
  8  9  2  0
  9  1  1  0
  8  4  1  0
  1 10  1  0
  2 11  1  0
  5 12  1  0
  6 13  1  0
  9 14  1  0
M  END
>  <ligand_id>  (82) 
81

>  <original_smiles>  (82) 
c1cnc2ccsc2c1

>  <smiles>  (82) 
c1cnc2ccsc2c1

$$$$
82:0
     RDKit          3D

 15 16  0  0  0  0  0  0  0  0999 V2000
   -0.7285    0.4625   -0.8887 C   0  0  0  0  0  0  0  0  0  0  0  0
   -1.8963    0.2670   -0.1188 C   0  0  0  0  0  0  0  0  0  0  0  0
   -1.8190    0.1602    1.2820 C   0  0  0  0  0  0  0  0  0  0  0  0
   -0.5569    0.2548    1.8642 C   0  0  0  0  0  0  0  0  0  0  0  0
   -0.2525    0.1847    3.1315 O   0  0  0  0  0  0  0  0  0  0  0  0
    1.0576    0.3235    3.2443 C   0  0  0  0  0  0  0  0  0  0  0  0
    1.6418    0.4934    1.9852 C   0  0  0  0  0  0  0  0  0  0  0  0
    0.5713    0.4437    1.1211 C   0  0  0  0  0  0  0  0  0  0  0  0
    0.5305    0.5535   -0.2667 C   0  0  0  0  0  0  0  0  0  0  0  0
   -0.8037    0.5442   -1.9831 H   0  0  0  0  0  0  0  0  0  0  0  0
   -2.8740    0.1976   -0.6182 H   0  0  0  0  0  0  0  0  0  0  0  0
   -2.7203    0.0078    1.8939 H   0  0  0  0  0  0  0  0  0  0  0  0
    1.6105    0.3076    4.1952 H   0  0  0  0  0  0  0  0  0  0  0  0
    2.7055    0.6337    1.7425 H   0  0  0  0  0  0  0  0  0  0  0  0
    1.4478    0.7057   -0.8545 H   0  0  0  0  0  0  0  0  0  0  0  0
  1  2  2  0
  2  3  1  0
  3  4  2  0
  4  5  1  0
  5  6  1  0
  6  7  2  0
  7  8  1  0
  8  9  2  0
  9  1  1  0
  8  4  1  0
  1 10  1  0
  2 11  1  0
  3 12  1  0
  6 13  1  0
  7 14  1  0
  9 15  1  0
M  END
>  <ligand_id>  (83) 
82

>  <original_smiles>  (83) 
c1ccc2occc2c1

>  <smiles>  (83) 
c1ccc2occc2c1

$$$$
83:0
     RDKit          3D

 16 17  0  0  0  0  0  0  0  0999 V2000
   -1.4338    1.5971   -0.0364 C   0  0  0  0  0  0  0  0  0  0  0  0
   -2.0990    1.2965    1.1581 C   0  0  0  0  0  0  0  0  0  0  0  0
   -1.3946    0.7565    2.2395 C   0  0  0  0  0  0  0  0  0  0  0  0
   -0.0227    0.5172    2.1247 C   0  0  0  0  0  0  0  0  0  0  0  0
    0.6778   -0.0067    3.1642 N   0  0  0  0  0  0  0  0  0  0  0  0
    2.0131   -0.2424    3.0601 C   0  0  0  0  0  0  0  0  0  0  0  0
    2.6775    0.0578    1.8671 C   0  0  0  0  0  0  0  0  0  0  0  0
    1.9817    0.5824    0.8231 N   0  0  0  0  0  0  0  0  0  0  0  0
    0.6477    0.8201    0.9211 C   0  0  0  0  0  0  0  0  0  0  0  0
   -0.0603    1.3593   -0.1562 C   0  0  0  0  0  0  0  0  0  0  0  0
   -1.9927    2.0215   -0.8834 H   0  0  0  0  0  0  0  0  0  0  0  0
   -3.1790    1.4855    1.2467 H   0  0  0  0  0  0  0  0  0  0  0  0
   -1.9191    0.5210    3.1772 H   0  0  0  0  0  0  0  0  0  0  0  0
    2.5675   -0.6670    3.9100 H   0  0  0  0  0  0  0  0  0  0  0  0
    3.7574   -0.1293    1.7735 H   0  0  0  0  0  0  0  0  0  0  0  0
    0.4607    1.5962   -1.0956 H   0  0  0  0  0  0  0  0  0  0  0  0
  1  2  2  0
  2  3  1  0
  3  4  2  0
  4  5  1  0
  5  6  2  0
  6  7  1  0
  7  8  2  0
  8  9  1  0
  9 10  2  0
 10  1  1  0
  9  4  1  0
  1 11  1  0
  2 12  1  0
  3 13  1  0
  6 14  1  0
  7 15  1  0
 10 16  1  0
M  END
>  <ligand_id>  (84) 
83

>  <original_smiles>  (84) 
c1ccc2nccnc2c1

>  <smiles>  (84) 
c1ccc2nccnc2c1

$$$$
84:0
     RDKit          3D

 13 14  0  0  0  0  0  0  0  0999 V2000
   -1.1658    0.1584   -0.6927 C   0  0  0  0  0  0  0  0  0  0  0  0
   -2.0426   -0.2554    0.3384 C   0  0  0  0  0  0  0  0  0  0  0  0
   -1.6413   -0.2269    1.6463 N   0  0  0  0  0  0  0  0  0  0  0  0
   -0.3881    0.2058    1.9305 C   0  0  0  0  0  0  0  0  0  0  0  0
    0.1735    0.3016    3.1442 N   0  0  0  0  0  0  0  0  0  0  0  0
    1.4132    0.7819    2.8468 C   0  0  0  0  0  0  0  0  0  0  0  0
    1.5918    0.9649    1.5448 O   0  0  0  0  0  0  0  0  0  0  0  0
    0.4764    0.6088    0.9709 C   0  0  0  0  0  0  0  0  0  0  0  0
    0.1310    0.6041   -0.3751 C   0  0  0  0  0  0  0  0  0  0  0  0
   -1.4975    0.1319   -1.7412 H   0  0  0  0  0  0  0  0  0  0  0  0
   -3.0553   -0.6031    0.0862 H   0  0  0  0  0  0  0  0  0  0  0  0
    2.1824    0.9949    3.6038 H   0  0  0  0  0  0  0  0  0  0  0  0
    0.8358    0.9322   -1.1534 H   0  0  0  0  0  0  0  0  0  0  0  0
  1  2  2  0
  2  3  1  0
  3  4  2  0
  4  5  1  0
  5  6  2  0
  6  7  1  0
  7  8  1  0
  8  9  2  0
  9  1  1  0
  8  4  1  0
  1 10  1  0
  2 11  1  0
  6 12  1  0
  9 13  1  0
M  END
>  <ligand_id>  (85) 
84

>  <original_smiles>  (85) 
c1cnc2ncoc2c1

>  <smiles>  (85) 
c1cnc2ncoc2c1

$$$$
85:0
     RDKit          3D

 15 16  0  0  0  0  0  0  0  0999 V2000
   -1.0339    0.5957   -0.7601 C   0  0  0  0  0  0  0  0  0  0  0  0
   -2.0701    0.2593    0.1402 C   0  0  0  0  0  0  0  0  0  0  0  0
   -1.7910    0.0440    1.5029 C   0  0  0  0  0  0  0  0  0  0  0  0
   -0.4665    0.1767    1.9124 C   0  0  0  0  0  0  0  0  0  0  0  0
    0.0297    0.0204    3.1468 N   0  0  0  0  0  0  0  0  0  0  0  0
    1.3568    0.2638    2.9771 C   0  0  0  0  0  0  0  0  0  0  0  0
    1.7000    0.5626    1.6957 N   0  0  0  0  0  0  0  0  0  0  0  0
    0.5298    0.5001    1.0469 C   0  0  0  0  0  0  0  0  0  0  0  0
    0.2932    0.7206   -0.3078 C   0  0  0  0  0  0  0  0  0  0  0  0
   -1.2663    0.7612   -1.8224 H   0  0  0  0  0  0  0  0  0  0  0  0
   -3.1028    0.1651   -0.2270 H   0  0  0  0  0  0  0  0  0  0  0  0
   -2.5868   -0.2184    2.2156 H   0  0  0  0  0  0  0  0  0  0  0  0
   -0.4714   -0.2244    4.0127 H   0  0  0  0  0  0  0  0  0  0  0  0
    2.0853    0.2228    3.8003 H   0  0  0  0  0  0  0  0  0  0  0  0
    1.1103    0.9818   -0.9963 H   0  0  0  0  0  0  0  0  0  0  0  0
  1  2  2  0
  2  3  1  0
  3  4  2  0
  4  5  1  0
  5  6  1  0
  6  7  2  0
  7  8  1  0
  8  9  2  0
  9  1  1  0
  8  4  1  0
  1 10  1  0
  2 11  1  0
  3 12  1  0
  5 13  1  0
  6 14  1  0
  9 15  1  0
M  END
>  <ligand_id>  (86) 
85

>  <original_smiles>  (86) 
c1ccc2[nH]cnc2c1

>  <smiles>  (86) 
c1ccc2[nH]cnc2c1

$$$$
86:0
     RDKit          3D

 14 15  0  0  0  0  0  0  0  0999 V2000
   -1.3256    0.4649   -0.6190 C   0  0  0  0  0  0  0  0  0  0  0  0
   -2.1283   -0.1202    0.3893 C   0  0  0  0  0  0  0  0  0  0  0  0
   -1.6355   -0.3039    1.6525 N   0  0  0  0  0  0  0  0  0  0  0  0
   -0.3641    0.0872    1.9123 C   0  0  0  0  0  0  0  0  0  0  0  0
    0.3626    0.0184    3.0746 C   0  0  0  0  0  0  0  0  0  0  0  0
    1.5804    0.5483    2.7850 N   0  0  0  0  0  0  0  0  0  0  0  0
    1.6302    0.9341    1.5108 N   0  0  0  0  0  0  0  0  0  0  0  0
    0.4359    0.6511    0.9743 C   0  0  0  0  0  0  0  0  0  0  0  0
   -0.0075    0.8635   -0.3257 C   0  0  0  0  0  0  0  0  0  0  0  0
   -1.7314    0.6082   -1.6314 H   0  0  0  0  0  0  0  0  0  0  0  0
   -3.1575   -0.4300    0.1554 H   0  0  0  0  0  0  0  0  0  0  0  0
    0.0280   -0.3834    4.0424 H   0  0  0  0  0  0  0  0  0  0  0  0
    2.3560    0.6389    3.4567 H   0  0  0  0  0  0  0  0  0  0  0  0
    0.6399    1.3208   -1.0884 H   0  0  0  0  0  0  0  0  0  0  0  0
  1  2  1  0
  2  3  2  0
  3  4  1  0
  4  5  2  0
  5  6  1  0
  6  7  1  0
  7  8  2  0
  8  9  1  0
  9  1  2  0
  8  4  1  0
  1 10  1  0
  2 11  1  0
  5 12  1  0
  6 13  1  0
  9 14  1  0
M  END
>  <ligand_id>  (87) 
86

>  <original_smiles>  (87) 
c1cnc2c[nH]nc2c1

>  <smiles>  (87) 
c1cnc2c[nH]nc2c1

$$$$
87:0
     RDKit          3D

 10 10  0  0  0  0  0  0  0  0999 V2000
   -1.7346    0.0742   -0.3343 F   0  0  0  0  0  0  0  0  0  0  0  0
   -1.3830   -0.0819    0.9947 C   0  0  0  0  0  0  0  0  0  0  0  0
   -2.2818    0.6174    1.7800 F   0  0  0  0  0  0  0  0  0  0  0  0
   -1.4390   -1.4233    1.3233 F   0  0  0  0  0  0  0  0  0  0  0  0
    0.0051    0.4284    1.2259 C   0  0  0  0  0  0  0  0  0  0  0  0
    0.4798    0.7543    2.5261 C   0  0  0  0  0  0  0  0  0  0  0  0
    1.7717    1.1634    2.6059 N   0  0  0  0  0  0  0  0  0  0  0  0
    2.2308    1.0707    1.0242 S   0  0  0  0  0  0  0  0  0  0  0  0
    0.8991    0.5403    0.2084 N   0  0  0  0  0  0  0  0  0  0  0  0
   -0.1627    0.6792    3.4158 H   0  0  0  0  0  0  0  0  0  0  0  0
  1  2  1  0
  2  3  1  0
  2  4  1  0
  2  5  1  0
  5  6  1  0
  6  7  2  0
  7  8  1  0
  8  9  1  0
  9  5  2  0
  6 10  1  0
M  END
>  <ligand_id>  (88) 
87

>  <original_smiles>  (88) 
FC(F)(F)c1cnsn1

>  <smiles>  (88) 
FC(F)(F)c1cnsn1

$$$$
88:0
     RDKit          3D

 16 17  0  0  0  0  0  0  0  0999 V2000
   -1.8816    1.0874    0.3526 C   0  0  0  0  0  0  0  0  0  0  0  0
   -2.1738    0.7612    1.6809 C   0  0  0  0  0  0  0  0  0  0  0  0
   -1.1693    0.4834    2.5565 N   0  0  0  0  0  0  0  0  0  0  0  0
    0.1349    0.5138    2.1723 C   0  0  0  0  0  0  0  0  0  0  0  0
    1.1196    0.2321    3.0670 N   0  0  0  0  0  0  0  0  0  0  0  0
    2.4325    0.2555    2.7082 C   0  0  0  0  0  0  0  0  0  0  0  0
    2.7998    0.5735    1.3967 C   0  0  0  0  0  0  0  0  0  0  0  0
    1.8081    0.8669    0.4578 C   0  0  0  0  0  0  0  0  0  0  0  0
    0.4674    0.8386    0.8413 C   0  0  0  0  0  0  0  0  0  0  0  0
   -0.5502    1.1258   -0.0681 C   0  0  0  0  0  0  0  0  0  0  0  0
   -2.6934    1.3119   -0.3548 H   0  0  0  0  0  0  0  0  0  0  0  0
   -3.2199    0.7290    2.0194 H   0  0  0  0  0  0  0  0  0  0  0  0
    3.2080    0.0233    3.4530 H   0  0  0  0  0  0  0  0  0  0  0  0
    3.8607    0.5923    1.1069 H   0  0  0  0  0  0  0  0  0  0  0  0
    2.0826    1.1186   -0.5772 H   0  0  0  0  0  0  0  0  0  0  0  0
   -0.3060    1.3808   -1.1099 H   0  0  0  0  0  0  0  0  0  0  0  0
  1  2  2  0
  2  3  1  0
  3  4  2  0
  4  5  1  0
  5  6  2  0
  6  7  1  0
  7  8  2  0
  8  9  1  0
  9 10  2  0
 10  1  1  0
  9  4  1  0
  1 11  1  0
  2 12  1  0
  6 13  1  0
  7 14  1  0
  8 15  1  0
 10 16  1  0
M  END
>  <ligand_id>  (89) 
88

>  <original_smiles>  (89) 
c1cnc2ncccc2c1

>  <smiles>  (89) 
c1cnc2ncccc2c1

$$$$
89:0
     RDKit          3D

 14 15  0  0  0  0  0  0  0  0999 V2000
   -1.2648    0.0058   -0.6234 C   0  0  0  0  0  0  0  0  0  0  0  0
   -2.1597   -0.0952    0.4663 C   0  0  0  0  0  0  0  0  0  0  0  0
   -1.7160    0.0784    1.7483 N   0  0  0  0  0  0  0  0  0  0  0  0
   -0.4031    0.3489    1.9536 C   0  0  0  0  0  0  0  0  0  0  0  0
    0.2601    0.5589    3.1392 C   0  0  0  0  0  0  0  0  0  0  0  0
    1.5782    0.7883    2.7238 C   0  0  0  0  0  0  0  0  0  0  0  0
    1.6735    0.7175    1.4046 O   0  0  0  0  0  0  0  0  0  0  0  0
    0.4861    0.4535    0.9327 C   0  0  0  0  0  0  0  0  0  0  0  0
    0.0937    0.2870   -0.3909 C   0  0  0  0  0  0  0  0  0  0  0  0
   -1.6301   -0.1353   -1.6513 H   0  0  0  0  0  0  0  0  0  0  0  0
   -3.2215   -0.3152    0.2816 H   0  0  0  0  0  0  0  0  0  0  0  0
   -0.1444    0.5493    4.1621 H   0  0  0  0  0  0  0  0  0  0  0  0
    2.4193    0.9986    3.4008 H   0  0  0  0  0  0  0  0  0  0  0  0
    0.8131    0.3715   -1.2187 H   0  0  0  0  0  0  0  0  0  0  0  0
  1  2  2  0
  2  3  1  0
  3  4  2  0
  4  5  1  0
  5  6  2  0
  6  7  1  0
  7  8  1  0
  8  9  2  0
  9  1  1  0
  8  4  1  0
  1 10  1  0
  2 11  1  0
  5 12  1  0
  6 13  1  0
  9 14  1  0
M  END
>  <ligand_id>  (90) 
89

>  <original_smiles>  (90) 
c1cnc2ccoc2c1

>  <smiles>  (90) 
c1cnc2ccoc2c1

$$$$
90:0
     RDKit          3D

 14 15  0  0  0  0  0  0  0  0999 V2000
   -1.1959    0.1057   -0.6625 C   0  0  0  0  0  0  0  0  0  0  0  0
   -2.1525    0.1300    0.3707 C   0  0  0  0  0  0  0  0  0  0  0  0
   -1.7456    0.2734    1.6644 N   0  0  0  0  0  0  0  0  0  0  0  0
   -0.4449    0.3879    1.9223 N   0  0  0  0  0  0  0  0  0  0  0  0
    0.1561    0.5354    3.1085 C   0  0  0  0  0  0  0  0  0  0  0  0
    1.5214    0.6070    2.8314 C   0  0  0  0  0  0  0  0  0  0  0  0
    1.7380    0.5036    1.4932 N   0  0  0  0  0  0  0  0  0  0  0  0
    0.5029    0.3714    0.9838 C   0  0  0  0  0  0  0  0  0  0  0  0
    0.1685    0.2289   -0.3575 C   0  0  0  0  0  0  0  0  0  0  0  0
   -1.5178   -0.0097   -1.7080 H   0  0  0  0  0  0  0  0  0  0  0  0
   -3.2227    0.0337    0.1353 H   0  0  0  0  0  0  0  0  0  0  0  0
   -0.3256    0.5891    4.0959 H   0  0  0  0  0  0  0  0  0  0  0  0
    2.3105    0.7296    3.5879 H   0  0  0  0  0  0  0  0  0  0  0  0
    0.9376    0.2133   -1.1438 H   0  0  0  0  0  0  0  0  0  0  0  0
  1  2  1  0
  2  3  2  0
  3  4  1  0
  4  5  1  0
  5  6  2  0
  6  7  1  0
  7  8  2  0
  8  9  1  0
  9  1  2  0
  8  4  1  0
  1 10  1  0
  2 11  1  0
  5 12  1  0
  6 13  1  0
  9 14  1  0
M  END
>  <ligand_id>  (91) 
90

>  <original_smiles>  (91) 
c1cnn2ccnc2c1

>  <smiles>  (91) 
c1cnn2ccnc2c1

$$$$
91:0
     RDKit          3D

 23 25  0  0  0  0  0  0  0  0999 V2000
   -2.8407    0.3142   -0.4231 C   0  0  0  0  0  0  0  0  0  0  0  0
   -3.4592    0.2300    0.8251 C   0  0  0  0  0  0  0  0  0  0  0  0
   -2.7077    0.0954    1.9503 N   0  0  0  0  0  0  0  0  0  0  0  0
   -1.3496    0.0392    1.8973 C   0  0  0  0  0  0  0  0  0  0  0  0
   -0.6838    0.1196    0.6669 C   0  0  0  0  0  0  0  0  0  0  0  0
    0.7918    0.0582    0.6135 C   0  0  0  0  0  0  0  0  0  0  0  0
    1.6509   -0.0779    1.7016 C   0  0  0  0  0  0  0  0  0  0  0  0
    2.9353   -0.0956    1.2563 N   0  0  0  0  0  0  0  0  0  0  0  0
    2.8226    0.0293   -0.0797 C   0  0  0  0  0  0  0  0  0  0  0  0
    3.8658    0.0648   -0.9970 C   0  0  0  0  0  0  0  0  0  0  0  0
    3.5201    0.2016   -2.3499 C   0  0  0  0  0  0  0  0  0  0  0  0
    2.1661    0.2958   -2.7238 C   0  0  0  0  0  0  0  0  0  0  0  0
    1.1966    0.2535   -1.7661 N   0  0  0  0  0  0  0  0  0  0  0  0
    1.5539    0.1230   -0.4894 N   0  0  0  0  0  0  0  0  0  0  0  0
   -1.4483    0.2584   -0.4976 C   0  0  0  0  0  0  0  0  0  0  0  0
   -3.4432    0.4231   -1.3369 H   0  0  0  0  0  0  0  0  0  0  0  0
   -4.5559    0.2726    0.8988 H   0  0  0  0  0  0  0  0  0  0  0  0
   -0.7705   -0.0701    2.8261 H   0  0  0  0  0  0  0  0  0  0  0  0
    1.3395   -0.1582    2.7535 H   0  0  0  0  0  0  0  0  0  0  0  0
    4.9155   -0.0110   -0.6769 H   0  0  0  0  0  0  0  0  0  0  0  0
    4.3067    0.2352   -3.1182 H   0  0  0  0  0  0  0  0  0  0  0  0
    1.8917    0.4032   -3.7836 H   0  0  0  0  0  0  0  0  0  0  0  0
   -0.9492    0.3237   -1.4757 H   0  0  0  0  0  0  0  0  0  0  0  0
  1  2  2  0
  2  3  1  0
  3  4  2  0
  4  5  1  0
  5  6  1  0
  6  7  2  0
  7  8  1  0
  8  9  2  0
  9 10  1  0
 10 11  2  0
 11 12  1  0
 12 13  2  0
 13 14  1  0
  5 15  2  0
 15  1  1  0
 14  6  1  0
 14  9  1  0
  1 16  1  0
  2 17  1  0
  4 18  1  0
  7 19  1  0
 10 20  1  0
 11 21  1  0
 12 22  1  0
 15 23  1  0
M  END
>  <ligand_id>  (92) 
91

>  <original_smiles>  (92) 
c1cncc(-c2cnc3cccnn23)c1

>  <smiles>  (92) 
c1cncc(-c2cnc3cccnn23)c1

$$$$
92:0
     RDKit          3D

 16 17  0  0  0  0  0  0  0  0999 V2000
   -0.2553    1.8526   -0.6268 C   0  0  0  0  0  0  0  0  0  0  0  0
   -1.1221    2.3484    0.3526 C   0  0  0  0  0  0  0  0  0  0  0  0
   -1.0509    1.8849    1.6306 N   0  0  0  0  0  0  0  0  0  0  0  0
   -0.1454    0.9364    1.9909 C   0  0  0  0  0  0  0  0  0  0  0  0
   -0.0897    0.4755    3.3067 C   0  0  0  0  0  0  0  0  0  0  0  0
    0.8521   -0.5002    3.6463 C   0  0  0  0  0  0  0  0  0  0  0  0
    1.7023   -0.9920    2.7031 N   0  0  0  0  0  0  0  0  0  0  0  0
    1.6683   -0.5592    1.4132 C   0  0  0  0  0  0  0  0  0  0  0  0
    0.7439    0.4136    1.0313 C   0  0  0  0  0  0  0  0  0  0  0  0
    0.6840    0.8778   -0.2826 C   0  0  0  0  0  0  0  0  0  0  0  0
   -0.3129    2.2272   -1.6595 H   0  0  0  0  0  0  0  0  0  0  0  0
   -1.8644    3.1162    0.0890 H   0  0  0  0  0  0  0  0  0  0  0  0
   -0.7777    0.8745    4.0667 H   0  0  0  0  0  0  0  0  0  0  0  0
    0.9067   -0.8723    4.6800 H   0  0  0  0  0  0  0  0  0  0  0  0
    2.3681   -0.9753    0.6735 H   0  0  0  0  0  0  0  0  0  0  0  0
    1.3719    0.4789   -1.0426 H   0  0  0  0  0  0  0  0  0  0  0  0
  1  2  2  0
  2  3  1  0
  3  4  2  0
  4  5  1  0
  5  6  2  0
  6  7  1  0
  7  8  2  0
  8  9  1  0
  9 10  2  0
 10  1  1  0
  9  4  1  0
  1 11  1  0
  2 12  1  0
  5 13  1  0
  6 14  1  0
  8 15  1  0
 10 16  1  0
M  END
>  <ligand_id>  (93) 
92

>  <original_smiles>  (93) 
c1cnc2ccncc2c1

>  <smiles>  (93) 
c1cnc2ccncc2c1

$$$$
93:0
     RDKit          3D

 13 14  0  0  0  0  0  0  0  0999 V2000
   -1.1905    0.0748   -0.6622 C   0  0  0  0  0  0  0  0  0  0  0  0
   -2.1561    0.1874    0.3602 C   0  0  0  0  0  0  0  0  0  0  0  0
   -1.7554    0.3654    1.6525 N   0  0  0  0  0  0  0  0  0  0  0  0
   -0.4524    0.4280    1.9116 N   0  0  0  0  0  0  0  0  0  0  0  0
    0.1828    0.5946    3.0783 C   0  0  0  0  0  0  0  0  0  0  0  0
    1.5191    0.5930    2.8414 N   0  0  0  0  0  0  0  0  0  0  0  0
    1.7220    0.4264    1.5345 N   0  0  0  0  0  0  0  0  0  0  0  0
    0.5007    0.3280    0.9879 C   0  0  0  0  0  0  0  0  0  0  0  0
    0.1778    0.1457   -0.3503 C   0  0  0  0  0  0  0  0  0  0  0  0
   -1.5092   -0.0687   -1.7051 H   0  0  0  0  0  0  0  0  0  0  0  0
   -3.2274    0.1320    0.1167 H   0  0  0  0  0  0  0  0  0  0  0  0
   -0.2967    0.7128    4.0612 H   0  0  0  0  0  0  0  0  0  0  0  0
    0.9531    0.0612   -1.1260 H   0  0  0  0  0  0  0  0  0  0  0  0
  1  2  1  0
  2  3  2  0
  3  4  1  0
  4  5  1  0
  5  6  2  0
  6  7  1  0
  7  8  2  0
  8  9  1  0
  9  1  2  0
  8  4  1  0
  1 10  1  0
  2 11  1  0
  5 12  1  0
  9 13  1  0
M  END
>  <ligand_id>  (94) 
93

>  <original_smiles>  (94) 
c1cnn2cnnc2c1

>  <smiles>  (94) 
c1cnn2cnnc2c1

$$$$
94:0
     RDKit          3D

 13 14  0  0  0  0  0  0  0  0999 V2000
   -1.0160   -0.4249   -0.6249 C   0  0  0  0  0  0  0  0  0  0  0  0
   -2.0099    0.3021    0.0734 C   0  0  0  0  0  0  0  0  0  0  0  0
   -1.7281    0.8856    1.2787 N   0  0  0  0  0  0  0  0  0  0  0  0
   -0.4779    0.7496    1.7838 C   0  0  0  0  0  0  0  0  0  0  0  0
    0.0634    1.2249    2.9520 C   0  0  0  0  0  0  0  0  0  0  0  0
    1.3207    0.7983    2.9451 O   0  0  0  0  0  0  0  0  0  0  0  0
    1.6204    0.0975    1.8787 N   0  0  0  0  0  0  0  0  0  0  0  0
    0.4996    0.0625    1.1468 C   0  0  0  0  0  0  0  0  0  0  0  0
    0.2759   -0.5522   -0.0793 C   0  0  0  0  0  0  0  0  0  0  0  0
   -1.2527   -0.8902   -1.5932 H   0  0  0  0  0  0  0  0  0  0  0  0
   -3.0177    0.3989   -0.3568 H   0  0  0  0  0  0  0  0  0  0  0  0
   -0.4354    1.8276    3.7252 H   0  0  0  0  0  0  0  0  0  0  0  0
    1.0689   -1.1107   -0.5981 H   0  0  0  0  0  0  0  0  0  0  0  0
  1  2  1  0
  2  3  2  0
  3  4  1  0
  4  5  2  0
  5  6  1  0
  6  7  1  0
  7  8  2  0
  8  9  1  0
  9  1  2  0
  8  4  1  0
  1 10  1  0
  2 11  1  0
  5 12  1  0
  9 13  1  0
M  END
>  <ligand_id>  (95) 
94

>  <original_smiles>  (95) 
c1cnc2conc2c1

>  <smiles>  (95) 
c1cnc2conc2c1

$$$$
95:0
     RDKit          3D

 14 15  0  0  0  0  0  0  0  0999 V2000
   -1.5978   -0.0066   -0.4594 C   0  0  0  0  0  0  0  0  0  0  0  0
   -2.1670   -0.5526    0.7081 C   0  0  0  0  0  0  0  0  0  0  0  0
   -1.5069   -0.4770    1.9004 N   0  0  0  0  0  0  0  0  0  0  0  0
   -0.2956    0.1304    1.9481 C   0  0  0  0  0  0  0  0  0  0  0  0
    0.6874    0.3398    3.2819 S   0  0  0  0  0  0  0  0  0  0  0  0
    1.9187    1.1519    2.4415 C   0  0  0  0  0  0  0  0  0  0  0  0
    1.5484    1.2579    1.0949 C   0  0  0  0  0  0  0  0  0  0  0  0
    0.3035    0.6797    0.8356 C   0  0  0  0  0  0  0  0  0  0  0  0
   -0.3426    0.6200   -0.3970 C   0  0  0  0  0  0  0  0  0  0  0  0
   -2.1352   -0.0710   -1.4171 H   0  0  0  0  0  0  0  0  0  0  0  0
   -3.1502   -1.0433    0.6584 H   0  0  0  0  0  0  0  0  0  0  0  0
    2.8526    1.5319    2.8815 H   0  0  0  0  0  0  0  0  0  0  0  0
    2.1689    1.7426    0.3268 H   0  0  0  0  0  0  0  0  0  0  0  0
    0.1181    1.0522   -1.2975 H   0  0  0  0  0  0  0  0  0  0  0  0
  1  2  2  0
  2  3  1  0
  3  4  2  0
  4  5  1  0
  5  6  1  0
  6  7  2  0
  7  8  1  0
  8  9  2  0
  9  1  1  0
  8  4  1  0
  1 10  1  0
  2 11  1  0
  6 12  1  0
  7 13  1  0
  9 14  1  0
M  END
>  <ligand_id>  (96) 
95

>  <original_smiles>  (96) 
c1cnc2sccc2c1

>  <smiles>  (96) 
c1cnc2sccc2c1

$$$$
