0:0:0
     RDKit          3D

  9 10  0  0  0  0  0  0  0  0999 V2000
   11.3200  351.6020   27.0760 C   0  0  0  0  0  3  0  0  0  0  0  0
   10.5750  351.5240   25.8830 C   0  0  0  0  0  3  0  0  0  0  0  0
   10.8690  352.3580   24.8460 N   0  0  0  0  0  0  0  0  0  0  0  0
   11.8610  353.2340   24.9850 N   0  0  0  0  0  0  0  0  0  0  0  0
   12.3050  354.1330   24.0990 C   0  0  0  0  0  3  0  0  0  0  0  0
   13.3540  354.7990   24.7340 C   0  0  0  0  0  3  0  0  0  0  0  0
   13.5370  354.3070   25.9870 N   0  0  0  0  0  0  0  0  0  0  0  0
   12.5980  353.3530   26.0910 C   0  0  0  0  0  0  0  0  0  0  0  0
   12.3600  352.5370   27.1910 C   0  0  0  0  0  3  0  0  0  0  0  0
  1  9  2  0
  2  1  1  0
  3  4  1  0
  3  2  2  0
  4  8  1  0
  5  6  2  0
  5  4  1  0
  6  7  1  0
  7  8  2  0
  8  9  1  0
M  RAD  5   1   2   2   2   5   2   6   2   9   2
M  END
>  <MODEL>  (1) 
1

>  <TORSDO>  (1) 
F 0

>  <SCORE>  (1) 
-5.1

>  <ligand_id>  (1) 
0

>  <original_smiles>  (1) 
c1cnn2ccnc2c1

>  <smiles>  (1) 
c1cnn2ccnc2c1

$$$$
0:0:1
     RDKit          3D

  9 10  0  0  0  0  0  0  0  0999 V2000
   -7.7350  353.5330   19.0000 C   0  0  0  0  0  3  0  0  0  0  0  0
   -7.2910  354.7120   19.6310 C   0  0  0  0  0  3  0  0  0  0  0  0
   -6.6420  354.6340   20.8270 N   0  0  0  0  0  0  0  0  0  0  0  0
   -6.4410  353.4380   21.3750 N   0  0  0  0  0  0  0  0  0  0  0  0
   -5.8330  353.1460   22.5310 C   0  0  0  0  0  3  0  0  0  0  0  0
   -5.8870  351.7570   22.6430 C   0  0  0  0  0  3  0  0  0  0  0  0
   -6.5210  351.2200   21.5670 N   0  0  0  0  0  0  0  0  0  0  0  0
   -6.8400  352.2910   20.8240 C   0  0  0  0  0  0  0  0  0  0  0  0
   -7.5080  352.2870   19.6040 C   0  0  0  0  0  3  0  0  0  0  0  0
  1  9  2  0
  1  2  1  0
  2  3  2  0
  3  4  1  0
  4  5  1  0
  5  6  2  0
  7  6  1  0
  8  4  1  0
  8  7  2  0
  9  8  1  0
M  RAD  5   1   2   2   2   5   2   6   2   9   2
M  END
>  <MODEL>  (2) 
2

>  <TORSDO>  (2) 
F 0

>  <SCORE>  (2) 
-4.9

>  <ligand_id>  (2) 
0

>  <original_smiles>  (2) 
c1cnn2ccnc2c1

>  <smiles>  (2) 
c1cnn2ccnc2c1

$$$$
1:0:0
     RDKit          3D

 10 11  0  0  0  0  0  0  0  0999 V2000
    7.6260  335.5300    7.2540 C   0  0  0  0  0  3  0  0  0  0  0  0
    7.1700  334.2180    7.4180 C   0  0  0  0  0  3  0  0  0  0  0  0
    6.8040  333.7670    8.6480 N   0  0  0  0  0  0  0  0  0  0  0  0
    6.8720  334.5690    9.7450 C   0  0  0  0  0  0  0  0  0  0  0  0
    6.4940  334.0920   11.0000 C   0  0  0  0  0  3  0  0  0  0  0  0
    6.5730  334.9360   12.1110 C   0  0  0  0  0  3  0  0  0  0  0  0
    7.0300  336.2480   11.9480 C   0  0  0  0  0  3  0  0  0  0  0  0
    7.3940  336.6990   10.7170 N   0  0  0  0  0  0  0  0  0  0  0  0
    7.3270  335.8970    9.6200 C   0  0  0  0  0  0  0  0  0  0  0  0
    7.7050  336.3730    8.3650 C   0  0  0  0  0  3  0  0  0  0  0  0
  1  2  2  0
  1 10  1  0
  2  3  1  0
  3  4  2  0
  4  5  1  0
  5  6  2  0
  7  6  1  0
  8  7  2  0
  9  4  1  0
  9  8  1  0
 10  9  2  0
M  RAD  6   1   2   2   2   5   2   6   2   7   2  10   2
M  END
>  <MODEL>  (3) 
1

>  <TORSDO>  (3) 
F 0

>  <SCORE>  (3) 
-5.3

>  <ligand_id>  (3) 
1

>  <original_smiles>  (3) 
c1cnc2cccnc2c1

>  <smiles>  (3) 
c1cnc2cccnc2c1

$$$$
1:0:1
     RDKit          3D

 10 11  0  0  0  0  0  0  0  0999 V2000
    7.1810  334.2590    7.3800 C   0  0  0  0  0  3  0  0  0  0  0  0
    7.6410  335.5780    7.3070 C   0  0  0  0  0  3  0  0  0  0  0  0
    7.6970  336.3490    8.4270 N   0  0  0  0  0  0  0  0  0  0  0  0
    7.3110  335.8650    9.6380 C   0  0  0  0  0  0  0  0  0  0  0  0
    7.3740  336.6670   10.7780 C   0  0  0  0  0  3  0  0  0  0  0  0
    6.9710  336.1470   12.0110 C   0  0  0  0  0  3  0  0  0  0  0  0
    6.5110  334.8270   12.0840 C   0  0  0  0  0  3  0  0  0  0  0  0
    6.4560  334.0570   10.9640 N   0  0  0  0  0  0  0  0  0  0  0  0
    6.8420  334.5410    9.7530 C   0  0  0  0  0  0  0  0  0  0  0  0
    6.7790  333.7390    8.6120 C   0  0  0  0  0  3  0  0  0  0  0  0
  1 10  2  0
  2  1  1  0
  2  3  2  0
  3  4  1  0
  4  9  2  0
  4  5  1  0
  5  6  2  0
  6  7  1  0
  8  7  2  0
  9  8  1  0
 10  9  1  0
M  RAD  6   1   2   2   2   5   2   6   2   7   2  10   2
M  END
>  <MODEL>  (4) 
2

>  <TORSDO>  (4) 
F 0

>  <SCORE>  (4) 
-5.3

>  <ligand_id>  (4) 
1

>  <original_smiles>  (4) 
c1cnc2cccnc2c1

>  <smiles>  (4) 
c1cnc2cccnc2c1

$$$$
2:0:0
     RDKit          3D

 10 11  0  0  0  0  0  0  0  0999 V2000
    7.2070  334.3380    7.3190 C   0  0  0  0  0  3  0  0  0  0  0  0
    7.6550  335.6610    7.2660 C   0  0  0  0  0  3  0  0  0  0  0  0
    7.7050  336.4140    8.3990 N   0  0  0  0  0  0  0  0  0  0  0  0
    7.3260  335.9100    9.6040 C   0  0  0  0  0  0  0  0  0  0  0  0
    7.3860  336.6840   10.7210 N   0  0  0  0  0  0  0  0  0  0  0  0
    7.0120  336.2040   11.9370 C   0  0  0  0  0  3  0  0  0  0  0  0
    6.5530  334.8890   12.0670 C   0  0  0  0  0  2  0  0  0  0  0  0
    6.4820  334.0720   10.9350 C   0  0  0  0  0  3  0  0  0  0  0  0
    6.8690  334.5790    9.6950 C   0  0  0  0  0  0  0  0  0  0  0  0
    6.8120  333.7950    8.5440 C   0  0  0  0  0  2  0  0  0  0  0  0
  1 10  1  0
  2  1  2  0
  2  3  1  0
  3  4  2  0
  4  9  1  0
  4  5  1  0
  5  6  2  0
  6  7  1  0
  8  7  1  0
  9  8  2  0
 10  9  1  0
M  RAD  6   1   2   2   2   6   2   7   3   8   2  10   3
M  END
>  <MODEL>  (5) 
1

>  <TORSDO>  (5) 
F 0

>  <SCORE>  (5) 
-5.6

>  <ligand_id>  (5) 
2

>  <original_smiles>  (5) 
c1cnc2ncccc2c1

>  <smiles>  (5) 
c1cnc2ncccc2c1

$$$$
2:0:1
     RDKit          3D

 10 11  0  0  0  0  0  0  0  0999 V2000
    6.5230  334.7120   12.0220 C   0  0  0  0  0  3  0  0  0  0  0  0
    6.9390  336.0470   12.0040 C   0  0  0  0  0  3  0  0  0  0  0  0
    7.3270  336.6290   10.8350 N   0  0  0  0  0  0  0  0  0  0  0  0
    7.3210  335.9390    9.6630 C   0  0  0  0  0  0  0  0  0  0  0  0
    7.7130  336.5450    8.5100 N   0  0  0  0  0  0  0  0  0  0  0  0
    7.7170  335.8770    7.3250 C   0  0  0  0  0  3  0  0  0  0  0  0
    7.3130  334.5400    7.2660 C   0  0  0  0  0  3  0  0  0  0  0  0
    6.9050  333.8940    8.4360 C   0  0  0  0  0  3  0  0  0  0  0  0
    6.9070  334.5920    9.6440 C   0  0  0  0  0  0  0  0  0  0  0  0
    6.5070  333.9810   10.8310 C   0  0  0  0  0  3  0  0  0  0  0  0
  2  1  2  0
  3  2  1  0
  4  3  2  0
  5  4  1  0
  6  5  2  0
  7  6  1  0
  7  8  2  0
  8  9  1  0
  9  4  1  0
  9 10  2  0
 10  1  1  0
M  RAD  6   1   2   2   2   6   2   7   2   8   2  10   2
M  END
>  <MODEL>  (6) 
2

>  <TORSDO>  (6) 
F 0

>  <SCORE>  (6) 
-5.6

>  <ligand_id>  (6) 
2

>  <original_smiles>  (6) 
c1cnc2ncccc2c1

>  <smiles>  (6) 
c1cnc2ncccc2c1

$$$$
3:0:0
     RDKit          3D

 10 11  0  0  0  0  0  0  0  0999 V2000
   11.3520  322.9330   13.3170 C   0  0  0  0  0  1  0  0  0  0  0  0
   10.9660  323.6190   12.0950 N   0  0  0  0  0  0  0  0  0  0  0  0
   10.2240  324.7210   12.0600 N   0  0  0  0  0  0  0  0  0  0  0  0
   10.0500  325.1010   10.7650 C   0  0  0  0  0  3  0  0  0  0  0  0
   10.7230  324.1760    9.9940 C   0  0  0  0  0  0  0  0  0  0  0  0
   10.8630  324.0970    8.6480 N   0  0  0  0  0  0  0  0  0  0  0  0
   11.5940  323.0640    8.1280 C   0  0  0  0  0  3  0  0  0  0  0  0
   12.1900  322.1020    8.9770 C   0  0  0  0  0  3  0  0  0  0  0  0
   12.0350  322.2010   10.3720 C   0  0  0  0  0  3  0  0  0  0  0  0
   11.2810  323.2720   10.8410 C   0  0  0  0  0  0  0  0  0  0  0  0
  2  1  1  0
  3  2  1  0
  4  3  2  0
  5  4  1  0
  5 10  2  0
  6  5  1  0
  7  6  2  0
  7  8  1  0
  8  9  2  0
  9 10  1  0
 10  2  1  0
M  RAD  5   1   2   4   2   7   2   8   2   9   2
M  END
>  <MODEL>  (7) 
1

>  <TORSDO>  (7) 
F 0

>  <SCORE>  (7) 
-5.0

>  <ligand_id>  (7) 
3

>  <original_smiles>  (7) 
Cn1ncc2ncccc21

>  <smiles>  (7) 
Cn1ncc2ncccc21

$$$$
3:0:1
     RDKit          3D

 10 11  0  0  0  0  0  0  0  0999 V2000
    6.9790  336.1960   12.1220 C   0  0  0  0  0  1  0  0  0  0  0  0
    7.0110  337.5880   11.7060 N   0  0  0  0  0  0  0  0  0  0  0  0
    6.4440  338.5840   12.3790 N   0  0  0  0  0  0  0  0  0  0  0  0
    6.6610  339.7520   11.7160 C   0  0  0  0  0  3  0  0  0  0  0  0
    7.3940  339.4310   10.5930 C   0  0  0  0  0  0  0  0  0  0  0  0
    7.8690  340.2280    9.6040 N   0  0  0  0  0  0  0  0  0  0  0  0
    8.5780  339.6500    8.5860 C   0  0  0  0  0  3  0  0  0  0  0  0
    8.8110  338.2550    8.5680 C   0  0  0  0  0  3  0  0  0  0  0  0
    8.3100  337.4440    9.6050 C   0  0  0  0  0  3  0  0  0  0  0  0
    7.5960  338.0880   10.6110 C   0  0  0  0  0  0  0  0  0  0  0  0
  2  1  1  0
  2  3  1  0
  4  3  2  0
  5 10  2  0
  5  4  1  0
  6  5  1  0
  7  6  2  0
  8  7  1  0
  8  9  2  0
  9 10  1  0
 10  2  1  0
M  RAD  5   1   2   4   2   7   2   8   2   9   2
M  END
>  <MODEL>  (8) 
2

>  <TORSDO>  (8) 
F 0

>  <SCORE>  (8) 
-4.9

>  <ligand_id>  (8) 
3

>  <original_smiles>  (8) 
Cn1ncc2ncccc21

>  <smiles>  (8) 
Cn1ncc2ncccc21

$$$$
4:0:0
     RDKit          3D

 10 11  0  0  0  0  0  0  0  0999 V2000
    7.6260  335.5300    7.2540 C   0  0  0  0  0  3  0  0  0  0  0  0
    7.1700  334.2180    7.4180 C   0  0  0  0  0  3  0  0  0  0  0  0
    6.8040  333.7670    8.6480 N   0  0  0  0  0  0  0  0  0  0  0  0
    6.8720  334.5690    9.7450 C   0  0  0  0  0  0  0  0  0  0  0  0
    6.4940  334.0920   11.0000 C   0  0  0  0  0  3  0  0  0  0  0  0
    6.5730  334.9360   12.1110 C   0  0  0  0  0  3  0  0  0  0  0  0
    7.0300  336.2480   11.9480 C   0  0  0  0  0  3  0  0  0  0  0  0
    7.3940  336.6990   10.7170 N   0  0  0  0  0  0  0  0  0  0  0  0
    7.3270  335.8970    9.6200 C   0  0  0  0  0  0  0  0  0  0  0  0
    7.7050  336.3730    8.3650 C   0  0  0  0  0  3  0  0  0  0  0  0
  1  2  2  0
  1 10  1  0
  2  3  1  0
  3  4  2  0
  4  5  1  0
  5  6  2  0
  7  6  1  0
  8  7  2  0
  9  4  1  0
  9  8  1  0
 10  9  2  0
M  RAD  6   1   2   2   2   5   2   6   2   7   2  10   2
M  END
>  <MODEL>  (9) 
1

>  <TORSDO>  (9) 
F 0

>  <SCORE>  (9) 
-5.3

>  <ligand_id>  (9) 
4

>  <original_smiles>  (9) 
c1cnc2cccnc2c1

>  <smiles>  (9) 
c1cnc2cccnc2c1

$$$$
4:0:1
     RDKit          3D

 10 11  0  0  0  0  0  0  0  0999 V2000
    7.1810  334.2590    7.3800 C   0  0  0  0  0  3  0  0  0  0  0  0
    7.6410  335.5780    7.3070 C   0  0  0  0  0  3  0  0  0  0  0  0
    7.6970  336.3490    8.4270 N   0  0  0  0  0  0  0  0  0  0  0  0
    7.3110  335.8650    9.6380 C   0  0  0  0  0  0  0  0  0  0  0  0
    7.3740  336.6670   10.7780 C   0  0  0  0  0  3  0  0  0  0  0  0
    6.9710  336.1470   12.0110 C   0  0  0  0  0  3  0  0  0  0  0  0
    6.5110  334.8270   12.0840 C   0  0  0  0  0  3  0  0  0  0  0  0
    6.4560  334.0570   10.9640 N   0  0  0  0  0  0  0  0  0  0  0  0
    6.8420  334.5410    9.7530 C   0  0  0  0  0  0  0  0  0  0  0  0
    6.7790  333.7390    8.6120 C   0  0  0  0  0  3  0  0  0  0  0  0
  1 10  2  0
  2  1  1  0
  2  3  2  0
  3  4  1  0
  4  9  2  0
  4  5  1  0
  5  6  2  0
  6  7  1  0
  8  7  2  0
  9  8  1  0
 10  9  1  0
M  RAD  6   1   2   2   2   5   2   6   2   7   2  10   2
M  END
>  <MODEL>  (10) 
2

>  <TORSDO>  (10) 
F 0

>  <SCORE>  (10) 
-5.3

>  <ligand_id>  (10) 
4

>  <original_smiles>  (10) 
c1cnc2cccnc2c1

>  <smiles>  (10) 
c1cnc2cccnc2c1

$$$$
5:0:0
     RDKit          3D

 10 11  0  0  0  0  0  0  0  0999 V2000
   12.6540  322.8020    9.9020 C   0  0  0  0  0  3  0  0  0  0  0  0
   11.9210  323.5330   10.8420 C   0  0  0  0  0  3  0  0  0  0  0  0
   10.8190  324.2320   10.4580 N   0  0  0  0  0  0  0  0  0  0  0  0
   10.4010  324.2410    9.1640 C   0  0  0  0  0  0  0  0  0  0  0  0
    9.2680  324.9630    8.7850 C   0  0  0  0  0  3  0  0  0  0  0  0
    8.8650  324.9600    7.4860 N   0  0  0  0  0  0  0  0  0  0  0  0
    9.5400  324.2670    6.5270 C   0  0  0  0  0  3  0  0  0  0  0  0
   10.6800  323.5300    6.8620 C   0  0  0  0  0  3  0  0  0  0  0  0
   11.1120  323.5170    8.1880 C   0  0  0  0  0  0  0  0  0  0  0  0
   12.2460  322.7950    8.5660 C   0  0  0  0  0  3  0  0  0  0  0  0
  1  2  2  0
  3  2  1  0
  4  3  2  0
  5  4  1  0
  6  5  2  0
  7  8  2  0
  7  6  1  0
  8  9  1  0
  9 10  2  0
  9  4  1  0
 10  1  1  0
M  RAD  6   1   2   2   2   5   2   7   2   8   2  10   2
M  END
>  <MODEL>  (11) 
1

>  <TORSDO>  (11) 
F 0

>  <SCORE>  (11) 
-5.2

>  <ligand_id>  (11) 
5

>  <original_smiles>  (11) 
c1cnc2cnccc2c1

>  <smiles>  (11) 
c1cnc2cnccc2c1

$$$$
5:0:1
     RDKit          3D

 10 11  0  0  0  0  0  0  0  0999 V2000
    8.8590  324.9020    7.4430 C   0  0  0  0  0  3  0  0  0  0  0  0
    9.6060  324.1630    6.5210 C   0  0  0  0  0  3  0  0  0  0  0  0
   10.7240  323.4980    6.9210 N   0  0  0  0  0  0  0  0  0  0  0  0
   11.1430  323.5320    8.2140 C   0  0  0  0  0  0  0  0  0  0  0  0
   12.2910  322.8450    8.6100 C   0  0  0  0  0  3  0  0  0  0  0  0
   12.6950  322.8900    9.9090 N   0  0  0  0  0  0  0  0  0  0  0  0
   12.0070  323.5950   10.8500 C   0  0  0  0  0  3  0  0  0  0  0  0
   10.8510  324.2980   10.4980 C   0  0  0  0  0  3  0  0  0  0  0  0
   10.4160  324.2650    9.1730 C   0  0  0  0  0  0  0  0  0  0  0  0
    9.2680  324.9530    8.7780 C   0  0  0  0  0  3  0  0  0  0  0  0
  1 10  2  0
  2  3  2  0
  2  1  1  0
  3  4  1  0
  4  5  1  0
  4  9  2  0
  5  6  2  0
  6  7  1  0
  8  7  2  0
  9  8  1  0
 10  9  1  0
M  RAD  6   1   2   2   2   5   2   7   2   8   2  10   2
M  END
>  <MODEL>  (12) 
2

>  <TORSDO>  (12) 
F 0

>  <SCORE>  (12) 
-5.2

>  <ligand_id>  (12) 
5

>  <original_smiles>  (12) 
c1cnc2cnccc2c1

>  <smiles>  (12) 
c1cnc2cnccc2c1

$$$$
6:0:0
     RDKit          3D

 14 16  0  0  0  0  0  0  0  0999 V2000
   12.4030  322.3960   10.0190 C   0  0  0  0  0  3  0  0  0  0  0  0
   11.6770  323.1420   10.9680 C   0  0  0  0  0  3  0  0  0  0  0  0
   10.6930  323.9900   10.5510 N   0  0  0  0  0  0  0  0  0  0  0  0
   10.4390  324.0930    9.2480 N   0  0  0  0  0  0  0  0  0  0  0  0
    9.5250  324.8610    8.6430 C   0  0  0  0  0  3  0  0  0  0  0  0
    9.6800  324.5900    7.2860 C   0  0  0  0  0  0  0  0  0  0  0  0
   10.6640  323.6810    7.0640 N   0  0  0  0  0  0  0  0  0  0  0  0
   11.0980  323.4090    8.3060 C   0  0  0  0  0  0  0  0  0  0  0  0
   12.1130  322.5260    8.6530 C   0  0  0  0  0  3  0  0  0  0  0  0
    8.8880  325.2030    6.2160 C   0  0  0  0  0  0  0  0  0  0  0  0
    7.7870  325.9430    6.4360 N   0  0  0  0  0  0  0  0  0  0  0  0
    7.3870  326.2980    5.1980 C   0  0  0  0  0  3  0  0  0  0  0  0
    8.2630  325.7590    4.2730 C   0  0  0  0  0  3  0  0  0  0  0  0
    9.1720  325.0920    4.9420 O   0  0  0  0  0  0  0  0  0  0  0  0
  1  2  1  0
  3  2  2  0
  4  3  1  0
  5  4  1  0
  6  5  2  0
  7  6  1  0
  7  8  2  0
  8  9  1  0
  8  4  1  0
  9  1  2  0
 10 11  2  0
 10  6  1  0
 12 11  1  0
 13 14  1  0
 13 12  2  0
 14 10  1  0
M  RAD  6   1   2   2   2   5   2   9   2  12   2  13   2
M  END
>  <MODEL>  (13) 
1

>  <TORSDO>  (13) 
F 1

>  <SCORE>  (13) 
-6.3

>  <ligand_id>  (13) 
6

>  <original_smiles>  (13) 
c1cnn2cc(-c3ncco3)nc2c1

>  <smiles>  (13) 
c1cnn2cc(-c3ncco3)nc2c1

$$$$
6:0:1
     RDKit          3D

 14 16  0  0  0  0  0  0  0  0999 V2000
   11.6920  322.7690    8.2890 C   0  0  0  0  0  3  0  0  0  0  0  0
   10.8180  323.8710    8.2310 C   0  0  0  0  0  3  0  0  0  0  0  0
   10.4260  324.4840    9.3850 N   0  0  0  0  0  0  0  0  0  0  0  0
   10.8820  324.0230   10.5480 N   0  0  0  0  0  0  0  0  0  0  0  0
   10.6180  324.4800   11.7780 C   0  0  0  0  0  3  0  0  0  0  0  0
   11.3430  323.6460   12.6260 C   0  0  0  0  0  0  0  0  0  0  0  0
   12.0330  322.7030   11.9350 N   0  0  0  0  0  0  0  0  0  0  0  0
   11.7120  322.9810   10.6600 C   0  0  0  0  0  0  0  0  0  0  0  0
   12.1550  322.3050    9.5290 C   0  0  0  0  0  3  0  0  0  0  0  0
   11.3690  323.7590   14.0860 C   0  0  0  0  0  0  0  0  0  0  0  0
   11.8160  324.8460   14.7410 N   0  0  0  0  0  0  0  0  0  0  0  0
   11.6610  324.5240   16.0410 C   0  0  0  0  0  3  0  0  0  0  0  0
   11.1250  323.2520   16.1250 C   0  0  0  0  0  3  0  0  0  0  0  0
   10.9610  322.8180   14.8990 O   0  0  0  0  0  0  0  0  0  0  0  0
  1  9  2  0
  2  1  1  0
  2  3  2  0
  3  4  1  0
  4  8  1  0
  4  5  1  0
  5  6  2  0
  6 10  1  0
  7  6  1  0
  8  7  2  0
  9  8  1  0
 10 11  2  0
 10 14  1  0
 11 12  1  0
 12 13  2  0
 14 13  1  0
M  RAD  6   1   2   2   2   5   2   9   2  12   2  13   2
M  END
>  <MODEL>  (14) 
2

>  <TORSDO>  (14) 
F 1

>  <SCORE>  (14) 
-6.1

>  <ligand_id>  (14) 
6

>  <original_smiles>  (14) 
c1cnn2cc(-c3ncco3)nc2c1

>  <smiles>  (14) 
c1cnn2cc(-c3ncco3)nc2c1

$$$$
7:0:0
     RDKit          3D

 10 11  0  0  0  0  0  0  0  0999 V2000
    7.6260  335.5300    7.2540 C   0  0  0  0  0  3  0  0  0  0  0  0
    7.1700  334.2180    7.4180 C   0  0  0  0  0  3  0  0  0  0  0  0
    6.8040  333.7670    8.6480 N   0  0  0  0  0  0  0  0  0  0  0  0
    6.8720  334.5690    9.7450 C   0  0  0  0  0  0  0  0  0  0  0  0
    6.4940  334.0920   11.0000 C   0  0  0  0  0  3  0  0  0  0  0  0
    6.5730  334.9360   12.1110 C   0  0  0  0  0  3  0  0  0  0  0  0
    7.0300  336.2480   11.9480 C   0  0  0  0  0  3  0  0  0  0  0  0
    7.3940  336.6990   10.7170 N   0  0  0  0  0  0  0  0  0  0  0  0
    7.3270  335.8970    9.6200 C   0  0  0  0  0  0  0  0  0  0  0  0
    7.7050  336.3730    8.3650 C   0  0  0  0  0  3  0  0  0  0  0  0
  1  2  2  0
  1 10  1  0
  2  3  1  0
  3  4  2  0
  4  5  1  0
  5  6  2  0
  7  6  1  0
  8  7  2  0
  9  4  1  0
  9  8  1  0
 10  9  2  0
M  RAD  6   1   2   2   2   5   2   6   2   7   2  10   2
M  END
>  <MODEL>  (15) 
1

>  <TORSDO>  (15) 
F 0

>  <SCORE>  (15) 
-5.3

>  <ligand_id>  (15) 
7

>  <original_smiles>  (15) 
c1cnc2cccnc2c1

>  <smiles>  (15) 
c1cnc2cccnc2c1

$$$$
7:0:1
     RDKit          3D

 10 11  0  0  0  0  0  0  0  0999 V2000
    7.1810  334.2590    7.3800 C   0  0  0  0  0  3  0  0  0  0  0  0
    7.6410  335.5780    7.3070 C   0  0  0  0  0  3  0  0  0  0  0  0
    7.6970  336.3490    8.4270 N   0  0  0  0  0  0  0  0  0  0  0  0
    7.3110  335.8650    9.6380 C   0  0  0  0  0  0  0  0  0  0  0  0
    7.3740  336.6670   10.7780 C   0  0  0  0  0  3  0  0  0  0  0  0
    6.9710  336.1470   12.0110 C   0  0  0  0  0  3  0  0  0  0  0  0
    6.5110  334.8270   12.0840 C   0  0  0  0  0  3  0  0  0  0  0  0
    6.4560  334.0570   10.9640 N   0  0  0  0  0  0  0  0  0  0  0  0
    6.8420  334.5410    9.7530 C   0  0  0  0  0  0  0  0  0  0  0  0
    6.7790  333.7390    8.6120 C   0  0  0  0  0  3  0  0  0  0  0  0
  1 10  2  0
  2  1  1  0
  2  3  2  0
  3  4  1  0
  4  9  2  0
  4  5  1  0
  5  6  2  0
  6  7  1  0
  8  7  2  0
  9  8  1  0
 10  9  1  0
M  RAD  6   1   2   2   2   5   2   6   2   7   2  10   2
M  END
>  <MODEL>  (16) 
2

>  <TORSDO>  (16) 
F 0

>  <SCORE>  (16) 
-5.3

>  <ligand_id>  (16) 
7

>  <original_smiles>  (16) 
c1cnc2cccnc2c1

>  <smiles>  (16) 
c1cnc2cccnc2c1

$$$$
8:0:0
     RDKit          3D

  9 10  0  0  0  0  0  0  0  0999 V2000
    8.9250  324.9050    7.6050 C   0  0  0  0  0  3  0  0  0  0  0  0
    9.6180  324.1810    6.6150 C   0  0  0  0  0  3  0  0  0  0  0  0
   10.7400  323.4690    6.9320 N   0  0  0  0  0  0  0  0  0  0  0  0
   11.1950  323.4560    8.2120 C   0  0  0  0  0  0  0  0  0  0  0  0
   12.3270  322.7660    8.6510 C   0  0  0  0  0  3  0  0  0  0  0  0
   12.5570  322.9350   10.0220 C   0  0  0  0  0  3  0  0  0  0  0  0
   11.3410  323.9390   10.6490 S   0  0  0  0  0  0  0  0  0  0  0  0
   10.5370  324.1560    9.1990 C   0  0  0  0  0  0  0  0  0  0  0  0
    9.3910  324.8960    8.9290 C   0  0  0  0  0  3  0  0  0  0  0  0
  1  9  2  0
  2  3  2  0
  2  1  1  0
  3  4  1  0
  4  5  1  0
  4  8  2  0
  5  6  2  0
  6  7  1  0
  8  7  1  0
  9  8  1  0
M  RAD  5   1   2   2   2   5   2   6   2   9   2
M  END
>  <MODEL>  (17) 
1

>  <TORSDO>  (17) 
F 0

>  <SCORE>  (17) 
-4.8

>  <ligand_id>  (17) 
8

>  <original_smiles>  (17) 
c1cnc2ccsc2c1

>  <smiles>  (17) 
c1cnc2ccsc2c1

$$$$
8:0:1
     RDKit          3D

  9 10  0  0  0  0  0  0  0  0999 V2000
   12.2010  322.1550    8.8750 C   0  0  0  0  0  3  0  0  0  0  0  0
   11.5480  323.1400    8.1070 C   0  0  0  0  0  3  0  0  0  0  0  0
   10.8170  324.1220    8.7130 N   0  0  0  0  0  0  0  0  0  0  0  0
   10.7140  324.1530   10.0670 C   0  0  0  0  0  0  0  0  0  0  0  0
    9.9960  325.1050   10.7930 C   0  0  0  0  0  3  0  0  0  0  0  0
   10.0670  324.8880   12.1740 C   0  0  0  0  0  3  0  0  0  0  0  0
   11.0230  323.5140   12.4520 S   0  0  0  0  0  0  0  0  0  0  0  0
   11.3420  323.2010   10.8410 C   0  0  0  0  0  0  0  0  0  0  0  0
   12.0980  322.1810   10.2740 C   0  0  0  0  0  3  0  0  0  0  0  0
  1  9  2  0
  2  3  2  0
  2  1  1  0
  3  4  1  0
  4  5  1  0
  4  8  2  0
  5  6  2  0
  6  7  1  0
  8  7  1  0
  9  8  1  0
M  RAD  5   1   2   2   2   5   2   6   2   9   2
M  END
>  <MODEL>  (18) 
2

>  <TORSDO>  (18) 
F 0

>  <SCORE>  (18) 
-4.8

>  <ligand_id>  (18) 
8

>  <original_smiles>  (18) 
c1cnc2ccsc2c1

>  <smiles>  (18) 
c1cnc2ccsc2c1

$$$$
9:0:0
     RDKit          3D

  9 10  0  0  0  0  0  0  0  0999 V2000
    8.9250  324.9050    7.6050 C   0  0  0  0  0  3  0  0  0  0  0  0
    9.6180  324.1810    6.6150 C   0  0  0  0  0  3  0  0  0  0  0  0
   10.7400  323.4690    6.9320 N   0  0  0  0  0  0  0  0  0  0  0  0
   11.1950  323.4560    8.2120 C   0  0  0  0  0  0  0  0  0  0  0  0
   12.3270  322.7660    8.6510 C   0  0  0  0  0  3  0  0  0  0  0  0
   12.5570  322.9350   10.0220 C   0  0  0  0  0  3  0  0  0  0  0  0
   11.3410  323.9390   10.6490 S   0  0  0  0  0  0  0  0  0  0  0  0
   10.5370  324.1560    9.1990 C   0  0  0  0  0  0  0  0  0  0  0  0
    9.3910  324.8960    8.9290 C   0  0  0  0  0  3  0  0  0  0  0  0
  1  9  2  0
  2  3  2  0
  2  1  1  0
  3  4  1  0
  4  5  1  0
  4  8  2  0
  5  6  2  0
  6  7  1  0
  8  7  1  0
  9  8  1  0
M  RAD  5   1   2   2   2   5   2   6   2   9   2
M  END
>  <MODEL>  (19) 
1

>  <TORSDO>  (19) 
F 0

>  <SCORE>  (19) 
-4.8

>  <ligand_id>  (19) 
9

>  <original_smiles>  (19) 
c1cnc2ccsc2c1

>  <smiles>  (19) 
c1cnc2ccsc2c1

$$$$
9:0:1
     RDKit          3D

  9 10  0  0  0  0  0  0  0  0999 V2000
   12.2010  322.1550    8.8750 C   0  0  0  0  0  3  0  0  0  0  0  0
   11.5480  323.1400    8.1070 C   0  0  0  0  0  3  0  0  0  0  0  0
   10.8170  324.1220    8.7130 N   0  0  0  0  0  0  0  0  0  0  0  0
   10.7140  324.1530   10.0670 C   0  0  0  0  0  0  0  0  0  0  0  0
    9.9960  325.1050   10.7930 C   0  0  0  0  0  3  0  0  0  0  0  0
   10.0670  324.8880   12.1740 C   0  0  0  0  0  3  0  0  0  0  0  0
   11.0230  323.5140   12.4520 S   0  0  0  0  0  0  0  0  0  0  0  0
   11.3420  323.2010   10.8410 C   0  0  0  0  0  0  0  0  0  0  0  0
   12.0980  322.1810   10.2740 C   0  0  0  0  0  3  0  0  0  0  0  0
  1  9  2  0
  2  3  2  0
  2  1  1  0
  3  4  1  0
  4  5  1  0
  4  8  2  0
  5  6  2  0
  6  7  1  0
  8  7  1  0
  9  8  1  0
M  RAD  5   1   2   2   2   5   2   6   2   9   2
M  END
>  <MODEL>  (20) 
2

>  <TORSDO>  (20) 
F 0

>  <SCORE>  (20) 
-4.8

>  <ligand_id>  (20) 
9

>  <original_smiles>  (20) 
c1cnc2ccsc2c1

>  <smiles>  (20) 
c1cnc2ccsc2c1

$$$$
10:0:0
     RDKit          3D

 20 22  0  0  1  0  0  0  0  0999 V2000
    5.9460  334.1080    4.8530 C   0  0  0  0  0  3  0  0  0  0  0  0
    5.7670  332.6280    5.2100 C   0  0  0  0  0  2  0  0  0  0  0  0
    6.9960  331.9130    5.0860 O   0  0  0  0  0  0  0  0  0  0  0  0
    7.9200  332.1960    4.0760 C   0  0  0  0  0  0  0  0  0  0  0  0
    8.9780  331.3630    3.8770 N   0  0  0  0  0  0  0  0  0  0  0  0
    9.9130  331.6130    2.9220 C   0  0  0  0  0  3  0  0  0  0  0  0
    9.8070  332.7490    2.1160 C   0  0  0  0  0  3  0  0  0  0  0  0
    8.7350  333.6220    2.3040 C   0  0  0  0  0  3  0  0  0  0  0  0
    7.7830  333.3540    3.2900 C   0  0  0  0  0  0  0  0  0  0  0  0
    6.6210  334.2880    3.4870 C   0  0  0  0  0  3  0  0  0  0  0  0
    6.8480  336.2720    5.7730 C   0  0  0  0  0  0  0  0  0  0  0  0
    7.4780  337.0020    6.7950 C   0  0  0  0  0  3  0  0  0  0  0  0
    7.8730  336.3700    7.9760 C   0  0  0  0  0  3  0  0  0  0  0  0
    7.6450  335.0040    8.1470 C   0  0  0  0  0  3  0  0  0  0  0  0
    7.0190  334.2710    7.1370 C   0  0  0  0  0  3  0  0  0  0  0  0
    6.6170  334.8950    5.9460 C   0  0  0  0  0  0  0  0  0  0  0  0
    5.3000  337.7310    4.5020 C   0  0  0  0  0  1  0  0  0  0  0  0
    6.4470  336.8950    4.5840 O   0  0  0  0  0  0  0  0  0  0  0  0
    5.6830  334.0890    2.4740 O   0  0  0  0  0  0  0  0  0  0  0  0
    6.0430  333.4460    1.8130 H   0  0  0  0  0  0  0  0  0  0  0  0
  1  2  1  0
  1 16  1  0
  3  2  1  0
  4  3  1  0
  5  4  2  0
  6  5  1  0
  7  8  1  0
  7  6  2  0
  8  9  2  0
  9 10  1  0
  9  4  1  0
 10 19  1  0
 10  1  1  0
 11 16  2  0
 11 12  1  0
 12 13  2  0
 13 14  1  0
 15 14  2  0
 16 15  1  0
 17 18  1  0
 18 11  1  0
 20 19  1  0
M  RAD  8   1   2   2   3   6   2   7   2   8   2  10   2  12   2  13   2
M  RAD  3  14   2  15   2  17   2
M  END
>  <MODEL>  (21) 
1

>  <TORSDO>  (21) 
F 3

>  <SCORE>  (21) 
-7.5

>  <ligand_id>  (21) 
10

>  <original_smiles>  (21) 
COc1ccccc1C1COc2ncccc2C1O

>  <smiles>  (21) 
COc1ccccc1C1COc2ncccc2C1O

$$$$
10:0:1
     RDKit          3D

 20 22  0  0  1  0  0  0  0  0999 V2000
    6.0670  333.7290    5.3930 C   0  0  0  0  0  3  0  0  0  0  0  0
    6.5580  332.2930    5.6170 C   0  0  0  0  0  2  0  0  0  0  0  0
    7.8330  332.0810    5.0110 O   0  0  0  0  0  0  0  0  0  0  0  0
    8.1820  332.6690    3.7920 C   0  0  0  0  0  0  0  0  0  0  0  0
    9.3240  332.2840    3.1590 N   0  0  0  0  0  0  0  0  0  0  0  0
    9.7140  332.8460    1.9840 C   0  0  0  0  0  3  0  0  0  0  0  0
    8.9400  333.8480    1.3950 C   0  0  0  0  0  3  0  0  0  0  0  0
    7.7670  334.2650    2.0260 C   0  0  0  0  0  3  0  0  0  0  0  0
    7.3810  333.6810    3.2350 C   0  0  0  0  0  0  0  0  0  0  0  0
    6.1120  334.1220    3.9100 C   0  0  0  0  0  3  0  0  0  0  0  0
    6.8830  334.4610    7.6600 C   0  0  0  0  0  0  0  0  0  0  0  0
    7.5230  335.3980    8.4890 C   0  0  0  0  0  3  0  0  0  0  0  0
    8.0300  336.5850    7.9560 C   0  0  0  0  0  3  0  0  0  0  0  0
    7.9020  336.8480    6.5920 C   0  0  0  0  0  3  0  0  0  0  0  0
    7.2680  335.9240    5.7600 C   0  0  0  0  0  3  0  0  0  0  0  0
    6.7550  334.7260    6.2840 C   0  0  0  0  0  0  0  0  0  0  0  0
    6.4370  332.9410    9.5650 C   0  0  0  0  0  1  0  0  0  0  0  0
    6.3700  333.2670    8.1830 O   0  0  0  0  0  0  0  0  0  0  0  0
    5.0130  333.5730    3.2490 O   0  0  0  0  0  0  0  0  0  0  0  0
    4.5760  332.9050    3.8340 H   0  0  0  0  0  0  0  0  0  0  0  0
  1  2  1  0
  1 16  1  0
  3  2  1  0
  4  3  1  0
  5  4  2  0
  6  5  1  0
  7  6  2  0
  7  8  1  0
  8  9  2  0
  9  4  1  0
  9 10  1  0
 10 19  1  0
 10  1  1  0
 11 18  1  0
 11 12  2  0
 13 12  1  0
 14 13  2  0
 15 16  2  0
 15 14  1  0
 16 11  1  0
 18 17  1  0
 19 20  1  0
M  RAD  8   1   2   2   3   6   2   7   2   8   2  10   2  12   2  13   2
M  RAD  3  14   2  15   2  17   2
M  END
>  <MODEL>  (22) 
2

>  <TORSDO>  (22) 
F 3

>  <SCORE>  (22) 
-7.5

>  <ligand_id>  (22) 
10

>  <original_smiles>  (22) 
COc1ccccc1C1COc2ncccc2C1O

>  <smiles>  (22) 
COc1ccccc1C1COc2ncccc2C1O

$$$$
11:0:0
     RDKit          3D

  9 10  0  0  0  0  0  0  0  0999 V2000
   -7.7320  354.5550   19.5330 C   0  0  0  0  0  3  0  0  0  0  0  0
   -8.1240  353.2830   19.0840 C   0  0  0  0  0  3  0  0  0  0  0  0
   -7.7260  352.1600   19.7450 N   0  0  0  0  0  0  0  0  0  0  0  0
   -6.9440  352.2520   20.8510 C   0  0  0  0  0  0  0  0  0  0  0  0
   -6.5260  351.1620   21.5380 N   0  0  0  0  0  2  0  0  0  0  0  0
   -5.6450  351.9020   22.7290 S   0  0  0  0  0  0  0  0  0  0  0  0
   -5.7480  353.5310   22.4440 N   0  0  0  0  0  0  0  0  0  0  0  0
   -6.5270  353.5200   21.3350 C   0  0  0  0  0  0  0  0  0  0  0  0
   -6.9250  354.6770   20.6700 C   0  0  0  0  0  2  0  0  0  0  0  0
  1  9  1  0
  2  1  2  0
  2  3  1  0
  3  4  2  0
  4  8  1  0
  4  5  1  0
  5  6  1  0
  7  6  1  0
  8  7  2  0
  9  8  1  0
M  RAD  4   1   2   2   2   5   2   9   3
M  END
>  <MODEL>  (23) 
1

>  <TORSDO>  (23) 
F 0

>  <SCORE>  (23) 
-4.9

>  <ligand_id>  (23) 
11

>  <original_smiles>  (23) 
c1cnc2nsnc2c1

>  <smiles>  (23) 
c1cnc2nsnc2c1

$$$$
11:0:1
     RDKit          3D

  9 10  0  0  0  0  0  0  0  0999 V2000
    8.9590  324.8210    7.7420 C   0  0  0  0  0  3  0  0  0  0  0  0
    9.6570  324.1010    6.7580 C   0  0  0  0  0  3  0  0  0  0  0  0
   10.8200  323.4580    7.0620 N   0  0  0  0  0  0  0  0  0  0  0  0
   11.3230  323.5030    8.3220 C   0  0  0  0  0  0  0  0  0  0  0  0
   12.4750  322.8790    8.6670 N   0  0  0  0  0  2  0  0  0  0  0  0
   12.5470  323.2910   10.2690 S   0  0  0  0  0  0  0  0  0  0  0  0
   11.2090  324.2190   10.5760 N   0  0  0  0  0  0  0  0  0  0  0  0
   10.6460  324.2210    9.3430 C   0  0  0  0  0  0  0  0  0  0  0  0
    9.4560  324.8820    9.0490 C   0  0  0  0  0  2  0  0  0  0  0  0
  1  9  1  0
  2  3  1  0
  2  1  2  0
  3  4  2  0
  4  5  1  0
  4  8  1  0
  5  6  1  0
  6  7  1  0
  8  7  2  0
  9  8  1  0
M  RAD  4   1   2   2   2   5   2   9   3
M  END
>  <MODEL>  (24) 
2

>  <TORSDO>  (24) 
F 0

>  <SCORE>  (24) 
-4.7

>  <ligand_id>  (24) 
11

>  <original_smiles>  (24) 
c1cnc2nsnc2c1

>  <smiles>  (24) 
c1cnc2nsnc2c1

$$$$
12:0:0
     RDKit          3D

  9 10  0  0  0  0  0  0  0  0999 V2000
   11.3200  351.6020   27.0760 C   0  0  0  0  0  3  0  0  0  0  0  0
   10.5750  351.5240   25.8830 C   0  0  0  0  0  3  0  0  0  0  0  0
   10.8690  352.3580   24.8460 N   0  0  0  0  0  0  0  0  0  0  0  0
   11.8610  353.2340   24.9850 N   0  0  0  0  0  0  0  0  0  0  0  0
   12.3050  354.1330   24.0990 C   0  0  0  0  0  3  0  0  0  0  0  0
   13.3540  354.7990   24.7340 C   0  0  0  0  0  3  0  0  0  0  0  0
   13.5370  354.3070   25.9870 N   0  0  0  0  0  0  0  0  0  0  0  0
   12.5980  353.3530   26.0910 C   0  0  0  0  0  0  0  0  0  0  0  0
   12.3600  352.5370   27.1910 C   0  0  0  0  0  3  0  0  0  0  0  0
  1  9  2  0
  2  1  1  0
  3  4  1  0
  3  2  2  0
  4  8  1  0
  5  6  2  0
  5  4  1  0
  6  7  1  0
  7  8  2  0
  8  9  1  0
M  RAD  5   1   2   2   2   5   2   6   2   9   2
M  END
>  <MODEL>  (25) 
1

>  <TORSDO>  (25) 
F 0

>  <SCORE>  (25) 
-5.1

>  <ligand_id>  (25) 
12

>  <original_smiles>  (25) 
c1cnn2ccnc2c1

>  <smiles>  (25) 
c1cnn2ccnc2c1

$$$$
12:0:1
     RDKit          3D

  9 10  0  0  0  0  0  0  0  0999 V2000
   -7.7350  353.5330   19.0000 C   0  0  0  0  0  3  0  0  0  0  0  0
   -7.2910  354.7120   19.6310 C   0  0  0  0  0  3  0  0  0  0  0  0
   -6.6420  354.6340   20.8270 N   0  0  0  0  0  0  0  0  0  0  0  0
   -6.4410  353.4380   21.3750 N   0  0  0  0  0  0  0  0  0  0  0  0
   -5.8330  353.1460   22.5310 C   0  0  0  0  0  3  0  0  0  0  0  0
   -5.8870  351.7570   22.6430 C   0  0  0  0  0  3  0  0  0  0  0  0
   -6.5210  351.2200   21.5670 N   0  0  0  0  0  0  0  0  0  0  0  0
   -6.8400  352.2910   20.8240 C   0  0  0  0  0  0  0  0  0  0  0  0
   -7.5080  352.2870   19.6040 C   0  0  0  0  0  3  0  0  0  0  0  0
  1  9  2  0
  1  2  1  0
  2  3  2  0
  3  4  1  0
  4  5  1  0
  5  6  2  0
  7  6  1  0
  8  4  1  0
  8  7  2  0
  9  8  1  0
M  RAD  5   1   2   2   2   5   2   6   2   9   2
M  END
>  <MODEL>  (26) 
2

>  <TORSDO>  (26) 
F 0

>  <SCORE>  (26) 
-4.9

>  <ligand_id>  (26) 
12

>  <original_smiles>  (26) 
c1cnn2ccnc2c1

>  <smiles>  (26) 
c1cnn2ccnc2c1

$$$$
13:0:0
     RDKit          3D

  9 10  0  0  0  0  0  0  0  0999 V2000
    8.9250  324.9050    7.6050 C   0  0  0  0  0  3  0  0  0  0  0  0
    9.6180  324.1810    6.6150 C   0  0  0  0  0  3  0  0  0  0  0  0
   10.7400  323.4690    6.9320 N   0  0  0  0  0  0  0  0  0  0  0  0
   11.1950  323.4560    8.2120 C   0  0  0  0  0  0  0  0  0  0  0  0
   12.3270  322.7660    8.6510 C   0  0  0  0  0  3  0  0  0  0  0  0
   12.5570  322.9350   10.0220 C   0  0  0  0  0  3  0  0  0  0  0  0
   11.3410  323.9390   10.6490 S   0  0  0  0  0  0  0  0  0  0  0  0
   10.5370  324.1560    9.1990 C   0  0  0  0  0  0  0  0  0  0  0  0
    9.3910  324.8960    8.9290 C   0  0  0  0  0  3  0  0  0  0  0  0
  1  9  2  0
  2  3  2  0
  2  1  1  0
  3  4  1  0
  4  5  1  0
  4  8  2  0
  5  6  2  0
  6  7  1  0
  8  7  1  0
  9  8  1  0
M  RAD  5   1   2   2   2   5   2   6   2   9   2
M  END
>  <MODEL>  (27) 
1

>  <TORSDO>  (27) 
F 0

>  <SCORE>  (27) 
-4.8

>  <ligand_id>  (27) 
13

>  <original_smiles>  (27) 
c1cnc2ccsc2c1

>  <smiles>  (27) 
c1cnc2ccsc2c1

$$$$
13:0:1
     RDKit          3D

  9 10  0  0  0  0  0  0  0  0999 V2000
   12.2010  322.1550    8.8750 C   0  0  0  0  0  3  0  0  0  0  0  0
   11.5480  323.1400    8.1070 C   0  0  0  0  0  3  0  0  0  0  0  0
   10.8170  324.1220    8.7130 N   0  0  0  0  0  0  0  0  0  0  0  0
   10.7140  324.1530   10.0670 C   0  0  0  0  0  0  0  0  0  0  0  0
    9.9960  325.1050   10.7930 C   0  0  0  0  0  3  0  0  0  0  0  0
   10.0670  324.8880   12.1740 C   0  0  0  0  0  3  0  0  0  0  0  0
   11.0230  323.5140   12.4520 S   0  0  0  0  0  0  0  0  0  0  0  0
   11.3420  323.2010   10.8410 C   0  0  0  0  0  0  0  0  0  0  0  0
   12.0980  322.1810   10.2740 C   0  0  0  0  0  3  0  0  0  0  0  0
  1  9  2  0
  2  3  2  0
  2  1  1  0
  3  4  1  0
  4  5  1  0
  4  8  2  0
  5  6  2  0
  6  7  1  0
  8  7  1  0
  9  8  1  0
M  RAD  5   1   2   2   2   5   2   6   2   9   2
M  END
>  <MODEL>  (28) 
2

>  <TORSDO>  (28) 
F 0

>  <SCORE>  (28) 
-4.8

>  <ligand_id>  (28) 
13

>  <original_smiles>  (28) 
c1cnc2ccsc2c1

>  <smiles>  (28) 
c1cnc2ccsc2c1

$$$$
14:0:0
     RDKit          3D

 15 17  0  0  0  0  0  0  0  0999 V2000
   10.8000  324.6500    7.7140 C   0  0  0  0  0  0  0  0  0  0  0  0
    9.4630  324.7960    7.3130 C   0  0  0  0  0  3  0  0  0  0  0  0
    9.1390  325.7070    6.3580 N   0  0  0  0  0  0  0  0  0  0  0  0
   10.0930  326.4850    5.7830 C   0  0  0  0  0  0  0  0  0  0  0  0
    9.7610  327.3950    4.8290 N   0  0  0  0  0  0  0  0  0  0  0  0
   10.7040  328.1810    4.2430 C   0  0  0  0  0  3  0  0  0  0  0  0
   12.0480  328.0680    4.6150 C   0  0  0  0  0  3  0  0  0  0  0  0
   12.4140  327.1400    5.5930 C   0  0  0  0  0  3  0  0  0  0  0  0
   11.4350  326.3420    6.1840 C   0  0  0  0  0  0  0  0  0  0  0  0
   11.7560  325.4310    7.1370 N   0  0  0  0  0  0  0  0  0  0  0  0
   12.0330  321.9480    9.7900 C   0  0  0  0  0  3  0  0  0  0  0  0
   11.3080  322.7450   10.6600 C   0  0  0  0  0  3  0  0  0  0  0  0
   10.8140  323.7630    9.9970 O   0  0  0  0  0  0  0  0  0  0  0  0
   11.1790  323.6730    8.7430 C   0  0  0  0  0  0  0  0  0  0  0  0
   11.9520  322.5460    8.5460 C   0  0  0  0  0  3  0  0  0  0  0  0
  1 14  1  0
  2  1  2  0
  3  2  1  0
  4  9  1  0
  4  3  2  0
  5  4  1  0
  6  7  1  0
  6  5  2  0
  7  8  2  0
  8  9  1  0
  9 10  2  0
 10  1  1  0
 11 12  2  0
 13 12  1  0
 14 13  1  0
 15 14  2  0
 15 11  1  0
M  RAD  7   2   2   6   2   7   2   8   2  11   2  12   2  15   2
M  END
>  <MODEL>  (29) 
1

>  <TORSDO>  (29) 
F 1

>  <SCORE>  (29) 
-6.8

>  <ligand_id>  (29) 
14

>  <original_smiles>  (29) 
c1coc(-c2cnc3ncccc3n2)c1

>  <smiles>  (29) 
c1coc(-c2cnc3ncccc3n2)c1

$$$$
14:0:1
     RDKit          3D

 15 17  0  0  0  0  0  0  0  0999 V2000
   10.7490  324.5320   12.7980 C   0  0  0  0  0  0  0  0  0  0  0  0
    9.9880  325.3600   11.9600 C   0  0  0  0  0  3  0  0  0  0  0  0
    9.9960  325.1530   10.6160 N   0  0  0  0  0  0  0  0  0  0  0  0
   10.7340  324.1530   10.0690 C   0  0  0  0  0  0  0  0  0  0  0  0
   10.7380  323.9520    8.7240 N   0  0  0  0  0  0  0  0  0  0  0  0
   11.4720  322.9550    8.1590 C   0  0  0  0  0  3  0  0  0  0  0  0
   12.2450  322.1070    8.9600 C   0  0  0  0  0  3  0  0  0  0  0  0
   12.2580  322.2930   10.3450 C   0  0  0  0  0  3  0  0  0  0  0  0
   11.5000  323.3210   10.9070 C   0  0  0  0  0  0  0  0  0  0  0  0
   11.4890  323.5290   12.2480 N   0  0  0  0  0  0  0  0  0  0  0  0
   10.2620  324.6680   16.3870 C   0  0  0  0  0  3  0  0  0  0  0  0
   11.3930  325.4350   16.1650 C   0  0  0  0  0  3  0  0  0  0  0  0
   11.6560  325.4490   14.8800 O   0  0  0  0  0  0  0  0  0  0  0  0
   10.7580  324.7320   14.2540 C   0  0  0  0  0  0  0  0  0  0  0  0
    9.8470  324.2090   15.1500 C   0  0  0  0  0  3  0  0  0  0  0  0
  1 14  1  0
  2  1  2  0
  3  2  1  0
  4  3  2  0
  4  9  1  0
  5  4  1  0
  6  5  2  0
  6  7  1  0
  7  8  2  0
  8  9  1  0
  9 10  2  0
 10  1  1  0
 12 11  2  0
 13 12  1  0
 14 13  1  0
 14 15  2  0
 15 11  1  0
M  RAD  7   2   2   6   2   7   2   8   2  11   2  12   2  15   2
M  END
>  <MODEL>  (30) 
2

>  <TORSDO>  (30) 
F 1

>  <SCORE>  (30) 
-6.7

>  <ligand_id>  (30) 
14

>  <original_smiles>  (30) 
c1coc(-c2cnc3ncccc3n2)c1

>  <smiles>  (30) 
c1coc(-c2cnc3ncccc3n2)c1

$$$$
15:0:0
     RDKit          3D

 10 11  0  0  0  0  0  0  0  0999 V2000
    6.5160  334.7490   12.0950 C   0  0  0  0  0  3  0  0  0  0  0  0
    6.9340  336.0850   12.0880 C   0  0  0  0  0  3  0  0  0  0  0  0
    7.3370  336.6900   10.8920 C   0  0  0  0  0  3  0  0  0  0  0  0
    7.3210  335.9580    9.7010 C   0  0  0  0  0  0  0  0  0  0  0  0
    7.7110  336.5370    8.5340 N   0  0  0  0  0  0  0  0  0  0  0  0
    7.7050  335.8480    7.3610 C   0  0  0  0  0  3  0  0  0  0  0  0
    7.2940  334.5120    7.3310 C   0  0  0  0  0  3  0  0  0  0  0  0
    6.8890  333.8910    8.5150 C   0  0  0  0  0  3  0  0  0  0  0  0
    6.8990  334.6100    9.7100 C   0  0  0  0  0  0  0  0  0  0  0  0
    6.4980  334.0110   10.9070 C   0  0  0  0  0  3  0  0  0  0  0  0
  2  1  2  0
  3  2  1  0
  4  9  1  0
  4  3  2  0
  5  4  1  0
  6  5  2  0
  7  6  1  0
  7  8  2  0
  8  9  1  0
  9 10  2  0
 10  1  1  0
M  RAD  7   1   2   2   2   3   2   6   2   7   2   8   2  10   2
M  END
>  <MODEL>  (31) 
1

>  <TORSDO>  (31) 
F 0

>  <SCORE>  (31) 
-6.3

>  <ligand_id>  (31) 
15

>  <original_smiles>  (31) 
c1ccc2ncccc2c1

>  <smiles>  (31) 
c1ccc2ncccc2c1

$$$$
15:0:1
     RDKit          3D

 10 11  0  0  0  0  0  0  0  0999 V2000
    7.1500  334.0290    7.4090 C   0  0  0  0  0  3  0  0  0  0  0  0
    7.6070  335.3350    7.1960 C   0  0  0  0  0  3  0  0  0  0  0  0
    7.6950  336.2330    8.2660 C   0  0  0  0  0  3  0  0  0  0  0  0
    7.3250  335.8250    9.5510 C   0  0  0  0  0  0  0  0  0  0  0  0
    7.4070  336.6910   10.5960 N   0  0  0  0  0  0  0  0  0  0  0  0
    7.0550  336.3200   11.8560 C   0  0  0  0  0  3  0  0  0  0  0  0
    6.5930  335.0240   12.1060 C   0  0  0  0  0  3  0  0  0  0  0  0
    6.4990  334.1140   11.0510 C   0  0  0  0  0  3  0  0  0  0  0  0
    6.8640  334.5070    9.7640 C   0  0  0  0  0  0  0  0  0  0  0  0
    6.7780  333.6150    8.6920 C   0  0  0  0  0  3  0  0  0  0  0  0
  1 10  2  0
  2  1  1  0
  2  3  2  0
  3  4  1  0
  4  9  2  0
  4  5  1  0
  5  6  2  0
  6  7  1  0
  8  7  2  0
  9  8  1  0
 10  9  1  0
M  RAD  7   1   2   2   2   3   2   6   2   7   2   8   2  10   2
M  END
>  <MODEL>  (32) 
2

>  <TORSDO>  (32) 
F 0

>  <SCORE>  (32) 
-6.2

>  <ligand_id>  (32) 
15

>  <original_smiles>  (32) 
c1ccc2ncccc2c1

>  <smiles>  (32) 
c1ccc2ncccc2c1

$$$$
16:0:0
     RDKit          3D

 10 11  0  0  0  0  0  0  0  0999 V2000
   13.0470  323.0090   12.0920 Cl  0  0  0  0  0  0  0  0  0  0  0  0
   12.1110  323.3700   10.6580 C   0  0  0  0  0  0  0  0  0  0  0  0
   10.9500  324.1420   10.6390 C   0  0  0  0  0  3  0  0  0  0  0  0
   10.4420  324.2430    9.3420 C   0  0  0  0  0  0  0  0  0  0  0  0
    9.3210  324.9290    9.0000 N   0  0  0  0  0  0  0  0  0  0  0  0
    8.9110  324.9620    7.6980 C   0  0  0  0  0  3  0  0  0  0  0  0
    9.6430  324.2890    6.6990 C   0  0  0  0  0  3  0  0  0  0  0  0
   10.8010  323.5780    7.0440 C   0  0  0  0  0  3  0  0  0  0  0  0
   11.1790  323.5720    8.3830 C   0  0  0  0  0  0  0  0  0  0  0  0
   12.4940  322.8260    9.1020 S   0  0  0  0  0  0  0  0  0  0  0  0
  2  1  1  0
  3  2  2  0
  4  3  1  0
  5  4  2  0
  6  5  1  0
  7  8  1  0
  7  6  2  0
  8  9  2  0
  9 10  1  0
  9  4  1  0
 10  2  1  0
M  RAD  4   3   2   6   2   7   2   8   2
M  END
>  <MODEL>  (33) 
1

>  <TORSDO>  (33) 
F 0

>  <SCORE>  (33) 
-5.2

>  <ligand_id>  (33) 
16

>  <original_smiles>  (33) 
Clc1cc2ncccc2s1

>  <smiles>  (33) 
Clc1cc2ncccc2s1

$$$$
16:0:1
     RDKit          3D

 10 11  0  0  0  0  0  0  0  0999 V2000
   12.9250  322.9860   12.2970 Cl  0  0  0  0  0  0  0  0  0  0  0  0
   11.9450  323.4160   10.9130 C   0  0  0  0  0  0  0  0  0  0  0  0
   12.1880  322.9980    9.6040 C   0  0  0  0  0  3  0  0  0  0  0  0
   11.2270  323.5120    8.7320 C   0  0  0  0  0  0  0  0  0  0  0  0
   11.1940  323.2830    7.3940 N   0  0  0  0  0  0  0  0  0  0  0  0
   10.2060  323.8370    6.6310 C   0  0  0  0  0  3  0  0  0  0  0  0
    9.2150  324.6480    7.2200 C   0  0  0  0  0  3  0  0  0  0  0  0
    9.2430  324.8890    8.6010 C   0  0  0  0  0  3  0  0  0  0  0  0
   10.2680  324.3040    9.3360 C   0  0  0  0  0  0  0  0  0  0  0  0
   10.5700  324.4010   10.9810 S   0  0  0  0  0  0  0  0  0  0  0  0
  2 10  1  0
  2  1  1  0
  3  2  2  0
  4  9  2  0
  4  3  1  0
  5  4  1  0
  6  7  1  0
  6  5  2  0
  7  8  2  0
  8  9  1  0
  9 10  1  0
M  RAD  4   3   2   6   2   7   2   8   2
M  END
>  <MODEL>  (34) 
2

>  <TORSDO>  (34) 
F 0

>  <SCORE>  (34) 
-5.2

>  <ligand_id>  (34) 
16

>  <original_smiles>  (34) 
Clc1cc2ncccc2s1

>  <smiles>  (34) 
Clc1cc2ncccc2s1

$$$$
17:0:0
     RDKit          3D

 10 11  0  0  0  0  0  0  0  0999 V2000
    6.5160  334.7490   12.0950 C   0  0  0  0  0  3  0  0  0  0  0  0
    6.9340  336.0850   12.0880 C   0  0  0  0  0  3  0  0  0  0  0  0
    7.3370  336.6900   10.8920 C   0  0  0  0  0  3  0  0  0  0  0  0
    7.3210  335.9580    9.7010 C   0  0  0  0  0  0  0  0  0  0  0  0
    7.7110  336.5370    8.5340 N   0  0  0  0  0  0  0  0  0  0  0  0
    7.7050  335.8480    7.3610 C   0  0  0  0  0  3  0  0  0  0  0  0
    7.2940  334.5120    7.3310 C   0  0  0  0  0  3  0  0  0  0  0  0
    6.8890  333.8910    8.5150 C   0  0  0  0  0  3  0  0  0  0  0  0
    6.8990  334.6100    9.7100 C   0  0  0  0  0  0  0  0  0  0  0  0
    6.4980  334.0110   10.9070 C   0  0  0  0  0  3  0  0  0  0  0  0
  2  1  2  0
  3  2  1  0
  4  9  1  0
  4  3  2  0
  5  4  1  0
  6  5  2  0
  7  6  1  0
  7  8  2  0
  8  9  1  0
  9 10  2  0
 10  1  1  0
M  RAD  7   1   2   2   2   3   2   6   2   7   2   8   2  10   2
M  END
>  <MODEL>  (35) 
1

>  <TORSDO>  (35) 
F 0

>  <SCORE>  (35) 
-6.3

>  <ligand_id>  (35) 
17

>  <original_smiles>  (35) 
c1ccc2ncccc2c1

>  <smiles>  (35) 
c1ccc2ncccc2c1

$$$$
17:0:1
     RDKit          3D

 10 11  0  0  0  0  0  0  0  0999 V2000
    7.1500  334.0290    7.4090 C   0  0  0  0  0  3  0  0  0  0  0  0
    7.6070  335.3350    7.1960 C   0  0  0  0  0  3  0  0  0  0  0  0
    7.6950  336.2330    8.2660 C   0  0  0  0  0  3  0  0  0  0  0  0
    7.3250  335.8250    9.5510 C   0  0  0  0  0  0  0  0  0  0  0  0
    7.4070  336.6910   10.5960 N   0  0  0  0  0  0  0  0  0  0  0  0
    7.0550  336.3200   11.8560 C   0  0  0  0  0  3  0  0  0  0  0  0
    6.5930  335.0240   12.1060 C   0  0  0  0  0  3  0  0  0  0  0  0
    6.4990  334.1140   11.0510 C   0  0  0  0  0  3  0  0  0  0  0  0
    6.8640  334.5070    9.7640 C   0  0  0  0  0  0  0  0  0  0  0  0
    6.7780  333.6150    8.6920 C   0  0  0  0  0  3  0  0  0  0  0  0
  1 10  2  0
  2  1  1  0
  2  3  2  0
  3  4  1  0
  4  9  2  0
  4  5  1  0
  5  6  2  0
  6  7  1  0
  8  7  2  0
  9  8  1  0
 10  9  1  0
M  RAD  7   1   2   2   2   3   2   6   2   7   2   8   2  10   2
M  END
>  <MODEL>  (36) 
2

>  <TORSDO>  (36) 
F 0

>  <SCORE>  (36) 
-6.2

>  <ligand_id>  (36) 
17

>  <original_smiles>  (36) 
c1ccc2ncccc2c1

>  <smiles>  (36) 
c1ccc2ncccc2c1

$$$$
18:0:0
     RDKit          3D

 10 11  0  0  0  0  0  0  0  0999 V2000
    7.6260  335.5300    7.2540 C   0  0  0  0  0  3  0  0  0  0  0  0
    7.1700  334.2180    7.4180 C   0  0  0  0  0  3  0  0  0  0  0  0
    6.8040  333.7670    8.6480 N   0  0  0  0  0  0  0  0  0  0  0  0
    6.8720  334.5690    9.7450 C   0  0  0  0  0  0  0  0  0  0  0  0
    6.4940  334.0920   11.0000 C   0  0  0  0  0  3  0  0  0  0  0  0
    6.5730  334.9360   12.1110 C   0  0  0  0  0  3  0  0  0  0  0  0
    7.0300  336.2480   11.9480 C   0  0  0  0  0  3  0  0  0  0  0  0
    7.3940  336.6990   10.7170 N   0  0  0  0  0  0  0  0  0  0  0  0
    7.3270  335.8970    9.6200 C   0  0  0  0  0  0  0  0  0  0  0  0
    7.7050  336.3730    8.3650 C   0  0  0  0  0  3  0  0  0  0  0  0
  1  2  2  0
  1 10  1  0
  2  3  1  0
  3  4  2  0
  4  5  1  0
  5  6  2  0
  7  6  1  0
  8  7  2  0
  9  4  1  0
  9  8  1  0
 10  9  2  0
M  RAD  6   1   2   2   2   5   2   6   2   7   2  10   2
M  END
>  <MODEL>  (37) 
1

>  <TORSDO>  (37) 
F 0

>  <SCORE>  (37) 
-5.3

>  <ligand_id>  (37) 
18

>  <original_smiles>  (37) 
c1cnc2cccnc2c1

>  <smiles>  (37) 
c1cnc2cccnc2c1

$$$$
18:0:1
     RDKit          3D

 10 11  0  0  0  0  0  0  0  0999 V2000
    7.1810  334.2590    7.3800 C   0  0  0  0  0  3  0  0  0  0  0  0
    7.6410  335.5780    7.3070 C   0  0  0  0  0  3  0  0  0  0  0  0
    7.6970  336.3490    8.4270 N   0  0  0  0  0  0  0  0  0  0  0  0
    7.3110  335.8650    9.6380 C   0  0  0  0  0  0  0  0  0  0  0  0
    7.3740  336.6670   10.7780 C   0  0  0  0  0  3  0  0  0  0  0  0
    6.9710  336.1470   12.0110 C   0  0  0  0  0  3  0  0  0  0  0  0
    6.5110  334.8270   12.0840 C   0  0  0  0  0  3  0  0  0  0  0  0
    6.4560  334.0570   10.9640 N   0  0  0  0  0  0  0  0  0  0  0  0
    6.8420  334.5410    9.7530 C   0  0  0  0  0  0  0  0  0  0  0  0
    6.7790  333.7390    8.6120 C   0  0  0  0  0  3  0  0  0  0  0  0
  1 10  2  0
  2  1  1  0
  2  3  2  0
  3  4  1  0
  4  9  2  0
  4  5  1  0
  5  6  2  0
  6  7  1  0
  8  7  2  0
  9  8  1  0
 10  9  1  0
M  RAD  6   1   2   2   2   5   2   6   2   7   2  10   2
M  END
>  <MODEL>  (38) 
2

>  <TORSDO>  (38) 
F 0

>  <SCORE>  (38) 
-5.3

>  <ligand_id>  (38) 
18

>  <original_smiles>  (38) 
c1cnc2cccnc2c1

>  <smiles>  (38) 
c1cnc2cccnc2c1

$$$$
19:0:0
     RDKit          3D

  9 10  0  0  0  0  0  0  0  0999 V2000
   11.3200  351.6020   27.0760 C   0  0  0  0  0  3  0  0  0  0  0  0
   10.5750  351.5240   25.8830 C   0  0  0  0  0  3  0  0  0  0  0  0
   10.8690  352.3580   24.8460 N   0  0  0  0  0  0  0  0  0  0  0  0
   11.8610  353.2340   24.9850 N   0  0  0  0  0  0  0  0  0  0  0  0
   12.3050  354.1330   24.0990 C   0  0  0  0  0  3  0  0  0  0  0  0
   13.3540  354.7990   24.7340 C   0  0  0  0  0  3  0  0  0  0  0  0
   13.5370  354.3070   25.9870 N   0  0  0  0  0  0  0  0  0  0  0  0
   12.5980  353.3530   26.0910 C   0  0  0  0  0  0  0  0  0  0  0  0
   12.3600  352.5370   27.1910 C   0  0  0  0  0  3  0  0  0  0  0  0
  1  9  2  0
  2  1  1  0
  3  4  1  0
  3  2  2  0
  4  8  1  0
  5  6  2  0
  5  4  1  0
  6  7  1  0
  7  8  2  0
  8  9  1  0
M  RAD  5   1   2   2   2   5   2   6   2   9   2
M  END
>  <MODEL>  (39) 
1

>  <TORSDO>  (39) 
F 0

>  <SCORE>  (39) 
-5.1

>  <ligand_id>  (39) 
19

>  <original_smiles>  (39) 
c1cnn2ccnc2c1

>  <smiles>  (39) 
c1cnn2ccnc2c1

$$$$
19:0:1
     RDKit          3D

  9 10  0  0  0  0  0  0  0  0999 V2000
   -7.7350  353.5330   19.0000 C   0  0  0  0  0  3  0  0  0  0  0  0
   -7.2910  354.7120   19.6310 C   0  0  0  0  0  3  0  0  0  0  0  0
   -6.6420  354.6340   20.8270 N   0  0  0  0  0  0  0  0  0  0  0  0
   -6.4410  353.4380   21.3750 N   0  0  0  0  0  0  0  0  0  0  0  0
   -5.8330  353.1460   22.5310 C   0  0  0  0  0  3  0  0  0  0  0  0
   -5.8870  351.7570   22.6430 C   0  0  0  0  0  3  0  0  0  0  0  0
   -6.5210  351.2200   21.5670 N   0  0  0  0  0  0  0  0  0  0  0  0
   -6.8400  352.2910   20.8240 C   0  0  0  0  0  0  0  0  0  0  0  0
   -7.5080  352.2870   19.6040 C   0  0  0  0  0  3  0  0  0  0  0  0
  1  9  2  0
  1  2  1  0
  2  3  2  0
  3  4  1  0
  4  5  1  0
  5  6  2  0
  7  6  1  0
  8  4  1  0
  8  7  2  0
  9  8  1  0
M  RAD  5   1   2   2   2   5   2   6   2   9   2
M  END
>  <MODEL>  (40) 
2

>  <TORSDO>  (40) 
F 0

>  <SCORE>  (40) 
-4.9

>  <ligand_id>  (40) 
19

>  <original_smiles>  (40) 
c1cnn2ccnc2c1

>  <smiles>  (40) 
c1cnn2ccnc2c1

$$$$
20:0:0
     RDKit          3D

  9 10  0  0  0  0  0  0  0  0999 V2000
    8.9430  324.8860    7.8600 C   0  0  0  0  0  3  0  0  0  0  0  0
    9.5630  324.1790    6.8100 C   0  0  0  0  0  3  0  0  0  0  0  0
   10.7540  323.4700    7.0340 C   0  0  0  0  0  3  0  0  0  0  0  0
   11.2900  323.4960    8.3190 C   0  0  0  0  0  0  0  0  0  0  0  0
   12.6790  322.7610    8.8950 S   0  0  0  0  0  0  0  0  0  0  0  0
   12.4650  323.3560   10.4670 C   0  0  0  0  0  3  0  0  0  0  0  0
   11.3390  324.1100   10.5490 N   0  0  0  0  0  0  0  0  0  0  0  0
   10.6920  324.1850    9.3580 C   0  0  0  0  0  0  0  0  0  0  0  0
    9.5080  324.8920    9.1480 C   0  0  0  0  0  3  0  0  0  0  0  0
  1  9  2  0
  2  3  2  0
  2  1  1  0
  3  4  1  0
  4  5  1  0
  4  8  2  0
  5  6  1  0
  6  7  2  0
  8  7  1  0
  9  8  1  0
M  RAD  5   1   2   2   2   3   2   6   2   9   2
M  END
>  <MODEL>  (41) 
1

>  <TORSDO>  (41) 
F 0

>  <SCORE>  (41) 
-4.9

>  <ligand_id>  (41) 
20

>  <original_smiles>  (41) 
c1ccc2scnc2c1

>  <smiles>  (41) 
c1ccc2scnc2c1

$$$$
20:0:1
     RDKit          3D

  9 10  0  0  0  0  0  0  0  0999 V2000
   11.6360  323.3810    8.1300 C   0  0  0  0  0  3  0  0  0  0  0  0
   12.0900  322.2570    8.8500 C   0  0  0  0  0  3  0  0  0  0  0  0
   11.8510  322.1500   10.2290 C   0  0  0  0  0  3  0  0  0  0  0  0
   11.1570  323.1870   10.8480 C   0  0  0  0  0  0  0  0  0  0  0  0
   10.7220  323.3500   12.4550 S   0  0  0  0  0  0  0  0  0  0  0  0
    9.9650  324.8460   12.2050 C   0  0  0  0  0  3  0  0  0  0  0  0
   10.0460  325.2160   10.9010 N   0  0  0  0  0  0  0  0  0  0  0  0
   10.7060  324.2940   10.1530 C   0  0  0  0  0  0  0  0  0  0  0  0
   10.9370  324.4120    8.7830 C   0  0  0  0  0  3  0  0  0  0  0  0
  1  9  2  0
  1  2  1  0
  2  3  2  0
  3  4  1  0
  4  5  1  0
  6  5  1  0
  7  6  2  0
  8  4  2  0
  8  7  1  0
  9  8  1  0
M  RAD  5   1   2   2   2   3   2   6   2   9   2
M  END
>  <MODEL>  (42) 
2

>  <TORSDO>  (42) 
F 0

>  <SCORE>  (42) 
-4.9

>  <ligand_id>  (42) 
20

>  <original_smiles>  (42) 
c1ccc2scnc2c1

>  <smiles>  (42) 
c1ccc2scnc2c1

$$$$
21:0:0
     RDKit          3D

  6  6  0  0  0  0  0  0  0  0999 V2000
   -8.0030  326.9500    4.5190 C   0  0  0  0  0  3  0  0  0  0  0  0
   -7.0030  326.0750    4.0870 C   0  0  0  0  0  3  0  0  0  0  0  0
   -7.3250  324.7370    3.8510 C   0  0  0  0  0  3  0  0  0  0  0  0
   -8.5990  324.2990    4.0410 N   0  0  0  0  0  0  0  0  0  0  0  0
   -9.5860  325.1350    4.4600 C   0  0  0  0  0  3  0  0  0  0  0  0
   -9.3040  326.4820    4.7080 C   0  0  0  0  0  3  0  0  0  0  0  0
  1  6  2  0
  2  1  1  0
  3  4  1  0
  3  2  2  0
  4  5  2  0
  5  6  1  0
M  RAD  5   1   2   2   2   3   2   5   2   6   2
M  END
>  <MODEL>  (43) 
1

>  <TORSDO>  (43) 
F 0

>  <SCORE>  (43) 
-4.4

>  <ligand_id>  (43) 
21

>  <original_smiles>  (43) 
c1ccncc1

>  <smiles>  (43) 
c1ccncc1

$$$$
21:0:1
     RDKit          3D

  6  6  0  0  0  0  0  0  0  0999 V2000
   19.7270  333.9650   17.2040 C   0  0  0  0  0  3  0  0  0  0  0  0
   20.2380  334.2250   18.4770 C   0  0  0  0  0  3  0  0  0  0  0  0
   20.5560  333.1530   19.3150 C   0  0  0  0  0  3  0  0  0  0  0  0
   20.3670  331.8750   18.8880 N   0  0  0  0  0  0  0  0  0  0  0  0
   19.8710  331.6030   17.6520 C   0  0  0  0  0  3  0  0  0  0  0  0
   19.5400  332.6470   16.7840 C   0  0  0  0  0  3  0  0  0  0  0  0
  1  2  2  0
  2  3  1  0
  4  3  2  0
  5  4  1  0
  6  1  1  0
  6  5  2  0
M  RAD  5   1   2   2   2   3   2   5   2   6   2
M  END
>  <MODEL>  (44) 
2

>  <TORSDO>  (44) 
F 0

>  <SCORE>  (44) 
-3.8

>  <ligand_id>  (44) 
21

>  <original_smiles>  (44) 
c1ccncc1

>  <smiles>  (44) 
c1ccncc1

$$$$
22:0:0
     RDKit          3D

  9 10  0  0  0  0  0  0  0  0999 V2000
    8.9250  324.9050    7.6050 C   0  0  0  0  0  3  0  0  0  0  0  0
    9.6180  324.1810    6.6150 C   0  0  0  0  0  3  0  0  0  0  0  0
   10.7400  323.4690    6.9320 N   0  0  0  0  0  0  0  0  0  0  0  0
   11.1950  323.4560    8.2120 C   0  0  0  0  0  0  0  0  0  0  0  0
   12.3270  322.7660    8.6510 C   0  0  0  0  0  3  0  0  0  0  0  0
   12.5570  322.9350   10.0220 C   0  0  0  0  0  3  0  0  0  0  0  0
   11.3410  323.9390   10.6490 S   0  0  0  0  0  0  0  0  0  0  0  0
   10.5370  324.1560    9.1990 C   0  0  0  0  0  0  0  0  0  0  0  0
    9.3910  324.8960    8.9290 C   0  0  0  0  0  3  0  0  0  0  0  0
  1  9  2  0
  2  3  2  0
  2  1  1  0
  3  4  1  0
  4  5  1  0
  4  8  2  0
  5  6  2  0
  6  7  1  0
  8  7  1  0
  9  8  1  0
M  RAD  5   1   2   2   2   5   2   6   2   9   2
M  END
>  <MODEL>  (45) 
1

>  <TORSDO>  (45) 
F 0

>  <SCORE>  (45) 
-4.8

>  <ligand_id>  (45) 
22

>  <original_smiles>  (45) 
c1cnc2ccsc2c1

>  <smiles>  (45) 
c1cnc2ccsc2c1

$$$$
22:0:1
     RDKit          3D

  9 10  0  0  0  0  0  0  0  0999 V2000
   12.2010  322.1550    8.8750 C   0  0  0  0  0  3  0  0  0  0  0  0
   11.5480  323.1400    8.1070 C   0  0  0  0  0  3  0  0  0  0  0  0
   10.8170  324.1220    8.7130 N   0  0  0  0  0  0  0  0  0  0  0  0
   10.7140  324.1530   10.0670 C   0  0  0  0  0  0  0  0  0  0  0  0
    9.9960  325.1050   10.7930 C   0  0  0  0  0  3  0  0  0  0  0  0
   10.0670  324.8880   12.1740 C   0  0  0  0  0  3  0  0  0  0  0  0
   11.0230  323.5140   12.4520 S   0  0  0  0  0  0  0  0  0  0  0  0
   11.3420  323.2010   10.8410 C   0  0  0  0  0  0  0  0  0  0  0  0
   12.0980  322.1810   10.2740 C   0  0  0  0  0  3  0  0  0  0  0  0
  1  9  2  0
  2  3  2  0
  2  1  1  0
  3  4  1  0
  4  5  1  0
  4  8  2  0
  5  6  2  0
  6  7  1  0
  8  7  1  0
  9  8  1  0
M  RAD  5   1   2   2   2   5   2   6   2   9   2
M  END
>  <MODEL>  (46) 
2

>  <TORSDO>  (46) 
F 0

>  <SCORE>  (46) 
-4.8

>  <ligand_id>  (46) 
22

>  <original_smiles>  (46) 
c1cnc2ccsc2c1

>  <smiles>  (46) 
c1cnc2ccsc2c1

$$$$
23:0:0
     RDKit          3D

 10 11  0  0  0  0  0  0  0  0999 V2000
    7.6260  335.5300    7.2540 C   0  0  0  0  0  3  0  0  0  0  0  0
    7.1700  334.2180    7.4180 C   0  0  0  0  0  3  0  0  0  0  0  0
    6.8040  333.7670    8.6480 N   0  0  0  0  0  0  0  0  0  0  0  0
    6.8720  334.5690    9.7450 C   0  0  0  0  0  0  0  0  0  0  0  0
    6.4940  334.0920   11.0000 C   0  0  0  0  0  3  0  0  0  0  0  0
    6.5730  334.9360   12.1110 C   0  0  0  0  0  3  0  0  0  0  0  0
    7.0300  336.2480   11.9480 C   0  0  0  0  0  3  0  0  0  0  0  0
    7.3940  336.6990   10.7170 N   0  0  0  0  0  0  0  0  0  0  0  0
    7.3270  335.8970    9.6200 C   0  0  0  0  0  0  0  0  0  0  0  0
    7.7050  336.3730    8.3650 C   0  0  0  0  0  3  0  0  0  0  0  0
  1  2  2  0
  1 10  1  0
  2  3  1  0
  3  4  2  0
  4  5  1  0
  5  6  2  0
  7  6  1  0
  8  7  2  0
  9  4  1  0
  9  8  1  0
 10  9  2  0
M  RAD  6   1   2   2   2   5   2   6   2   7   2  10   2
M  END
>  <MODEL>  (47) 
1

>  <TORSDO>  (47) 
F 0

>  <SCORE>  (47) 
-5.3

>  <ligand_id>  (47) 
23

>  <original_smiles>  (47) 
c1cnc2cccnc2c1

>  <smiles>  (47) 
c1cnc2cccnc2c1

$$$$
23:0:1
     RDKit          3D

 10 11  0  0  0  0  0  0  0  0999 V2000
    7.1810  334.2590    7.3800 C   0  0  0  0  0  3  0  0  0  0  0  0
    7.6410  335.5780    7.3070 C   0  0  0  0  0  3  0  0  0  0  0  0
    7.6970  336.3490    8.4270 N   0  0  0  0  0  0  0  0  0  0  0  0
    7.3110  335.8650    9.6380 C   0  0  0  0  0  0  0  0  0  0  0  0
    7.3740  336.6670   10.7780 C   0  0  0  0  0  3  0  0  0  0  0  0
    6.9710  336.1470   12.0110 C   0  0  0  0  0  3  0  0  0  0  0  0
    6.5110  334.8270   12.0840 C   0  0  0  0  0  3  0  0  0  0  0  0
    6.4560  334.0570   10.9640 N   0  0  0  0  0  0  0  0  0  0  0  0
    6.8420  334.5410    9.7530 C   0  0  0  0  0  0  0  0  0  0  0  0
    6.7790  333.7390    8.6120 C   0  0  0  0  0  3  0  0  0  0  0  0
  1 10  2  0
  2  1  1  0
  2  3  2  0
  3  4  1  0
  4  9  2  0
  4  5  1  0
  5  6  2  0
  6  7  1  0
  8  7  2  0
  9  8  1  0
 10  9  1  0
M  RAD  6   1   2   2   2   5   2   6   2   7   2  10   2
M  END
>  <MODEL>  (48) 
2

>  <TORSDO>  (48) 
F 0

>  <SCORE>  (48) 
-5.3

>  <ligand_id>  (48) 
23

>  <original_smiles>  (48) 
c1cnc2cccnc2c1

>  <smiles>  (48) 
c1cnc2cccnc2c1

$$$$
24:0:0
     RDKit          3D

  9 10  0  0  0  0  0  0  0  0999 V2000
   13.0660  354.8900   25.5720 C   0  0  0  0  0  3  0  0  0  0  0  0
   13.4810  354.5060   26.8630 C   0  0  0  0  0  3  0  0  0  0  0  0
   12.9730  353.3830   27.4510 N   0  0  0  0  0  0  0  0  0  0  0  0
   12.0620  352.6490   26.7680 C   0  0  0  0  0  0  0  0  0  0  0  0
   11.4320  351.4950   27.1750 C   0  0  0  0  0  3  0  0  0  0  0  0
   10.6180  351.1980   26.0730 C   0  0  0  0  0  3  0  0  0  0  0  0
   10.7760  352.1300   25.0990 N   0  0  0  0  0  0  0  0  0  0  0  0
   11.6580  352.9990   25.5470 N   0  0  0  0  0  0  0  0  0  0  0  0
   12.1210  354.0980   24.9060 C   0  0  0  0  0  3  0  0  0  0  0  0
  1  2  1  0
  2  3  2  0
  4  5  2  0
  4  3  1  0
  6  5  1  0
  7  8  1  0
  7  6  2  0
  8  4  1  0
  9  8  1  0
  9  1  2  0
M  RAD  5   1   2   2   2   5   2   6   2   9   2
M  END
>  <MODEL>  (49) 
1

>  <TORSDO>  (49) 
F 0

>  <SCORE>  (49) 
-5.1

>  <ligand_id>  (49) 
24

>  <original_smiles>  (49) 
c1cnc2ccnn2c1

>  <smiles>  (49) 
c1cnc2ccnn2c1

$$$$
24:0:1
     RDKit          3D

  9 10  0  0  0  0  0  0  0  0999 V2000
    9.0280  324.8380    8.0140 C   0  0  0  0  0  3  0  0  0  0  0  0
    9.6320  324.1340    6.9530 C   0  0  0  0  0  3  0  0  0  0  0  0
   10.8080  323.4660    7.1430 N   0  0  0  0  0  0  0  0  0  0  0  0
   11.3790  323.4940    8.3710 C   0  0  0  0  0  0  0  0  0  0  0  0
   12.5510  322.8940    8.7710 C   0  0  0  0  0  3  0  0  0  0  0  0
   12.6270  323.2650   10.1200 C   0  0  0  0  0  3  0  0  0  0  0  0
   11.5620  324.0320   10.4660 N   0  0  0  0  0  0  0  0  0  0  0  0
   10.8200  324.1550    9.3850 N   0  0  0  0  0  0  0  0  0  0  0  0
    9.6570  324.8380    9.2660 C   0  0  0  0  0  3  0  0  0  0  0  0
  1  9  2  0
  2  3  2  0
  2  1  1  0
  3  4  1  0
  4  5  2  0
  4  8  1  0
  5  6  1  0
  6  7  2  0
  8  7  1  0
  9  8  1  0
M  RAD  5   1   2   2   2   5   2   6   2   9   2
M  END
>  <MODEL>  (50) 
2

>  <TORSDO>  (50) 
F 0

>  <SCORE>  (50) 
-4.7

>  <ligand_id>  (50) 
24

>  <original_smiles>  (50) 
c1cnc2ccnn2c1

>  <smiles>  (50) 
c1cnc2ccnn2c1

$$$$
25:0:0
     RDKit          3D

 20 23  0  0  1  0  0  0  0  0999 V2000
    6.0110  332.2140    9.5900 O   0  0  0  0  0  0  0  0  0  0  0  0
    6.4510  333.3150    9.1560 C   0  0  0  0  0  0  0  0  0  0  0  0
    6.7400  334.4160   10.0830 C   0  0  0  0  0  0  0  0  0  0  0  0
    6.5670  334.2810   11.4660 C   0  0  0  0  0  3  0  0  0  0  0  0
    6.8040  335.3710   12.3090 C   0  0  0  0  0  3  0  0  0  0  0  0
    7.2040  336.5980   11.7720 C   0  0  0  0  0  3  0  0  0  0  0  0
    7.3750  336.7360   10.3900 C   0  0  0  0  0  3  0  0  0  0  0  0
    7.1520  335.6430    9.5460 C   0  0  0  0  0  0  0  0  0  0  0  0
    7.3210  335.7840    8.1660 O   0  0  0  0  0  0  0  0  0  0  0  0
    7.4630  334.6570    7.2920 C   0  0  0  0  0  3  0  0  0  0  0  0
    7.1250  335.0540    5.8780 C   0  0  0  0  0  0  0  0  0  0  0  0
    7.6070  336.2550    5.3450 C   0  0  0  0  0  3  0  0  0  0  0  0
    7.2950  336.6130    4.0330 C   0  0  0  0  0  3  0  0  0  0  0  0
    6.5050  335.7600    3.2610 C   0  0  0  0  0  3  0  0  0  0  0  0
    6.0570  334.5860    3.7830 N   0  0  0  0  0  0  0  0  0  0  0  0
    6.3580  334.2090    5.0550 C   0  0  0  0  0  0  0  0  0  0  0  0
    5.8780  332.9610    5.5580 N   0  0  0  0  0  0  0  0  0  0  0  0
    6.3720  332.4260    6.8190 C   0  0  0  0  0  2  0  0  0  0  0  0
    6.6490  333.5170    7.7490 N   0  0  0  0  0  0  0  0  0  0  0  0
    5.1740  332.4350    5.0220 H   0  0  0  0  0  0  0  0  0  0  0  0
  2  1  2  0
  2  3  1  0
  3  4  1  0
  4  5  2  0
  6  5  1  0
  7  6  2  0
  8  3  2  0
  8  7  1  0
  9  8  1  0
 10 11  1  0
 10 19  1  0
 10  9  1  0
 12 11  2  0
 13 12  1  0
 14 15  1  0
 14 13  2  0
 15 16  2  0
 16 17  1  0
 16 11  1  0
 17 18  1  0
 18 19  1  0
 19  2  1  0
 20 17  1  0
M  RAD  8   4   2   5   2   6   2   7   2  10   2  12   2  13   2  14   2
M  RAD  1  18   3
M  END
>  <MODEL>  (51) 
1

>  <TORSDO>  (51) 
F 0

>  <SCORE>  (51) 
-9.1

>  <ligand_id>  (51) 
25

>  <original_smiles>  (51) 
O=C1c2ccccc2OC2c3cccnc3NCN12

>  <smiles>  (51) 
O=C1c2ccccc2OC2c3cccnc3NCN12

$$$$
25:0:1
     RDKit          3D

 20 23  0  0  1  0  0  0  0  0999 V2000
   12.7380  322.2210    9.1190 O   0  0  0  0  0  0  0  0  0  0  0  0
   11.7920  322.9340    9.5560 C   0  0  0  0  0  0  0  0  0  0  0  0
   10.8640  323.5870    8.6260 C   0  0  0  0  0  0  0  0  0  0  0  0
   10.9730  323.4250    7.2390 C   0  0  0  0  0  3  0  0  0  0  0  0
   10.1000  324.1060    6.3860 C   0  0  0  0  0  3  0  0  0  0  0  0
    9.1240  324.9570    6.9150 C   0  0  0  0  0  3  0  0  0  0  0  0
    9.0150  325.1220    8.3000 C   0  0  0  0  0  3  0  0  0  0  0  0
    9.8780  324.4310    9.1570 C   0  0  0  0  0  0  0  0  0  0  0  0
    9.7690  324.5990   10.5390 O   0  0  0  0  0  0  0  0  0  0  0  0
   10.3520  323.6810   11.4720 C   0  0  0  0  0  3  0  0  0  0  0  0
   10.5200  324.3450   12.8150 C   0  0  0  0  0  0  0  0  0  0  0  0
    9.4920  325.1280   13.3510 C   0  0  0  0  0  3  0  0  0  0  0  0
    9.6510  325.7350   14.5970 C   0  0  0  0  0  3  0  0  0  0  0  0
   10.8420  325.5470   15.3010 C   0  0  0  0  0  3  0  0  0  0  0  0
   11.8280  324.7690   14.7780 N   0  0  0  0  0  0  0  0  0  0  0  0
   11.6910  324.1570   13.5710 C   0  0  0  0  0  0  0  0  0  0  0  0
   12.7460  323.3370   13.0670 N   0  0  0  0  0  0  0  0  0  0  0  0
   12.5410  322.4890   11.9020 C   0  0  0  0  0  2  0  0  0  0  0  0
   11.6260  323.1400   10.9680 N   0  0  0  0  0  0  0  0  0  0  0  0
   13.6640  323.3470   13.5340 H   0  0  0  0  0  0  0  0  0  0  0  0
  1  2  2  0
  2 19  1  0
  3  8  2  0
  3  2  1  0
  4  3  1  0
  5  6  1  0
  5  4  2  0
  6  7  2  0
  7  8  1  0
  8  9  1  0
 10  9  1  0
 10 11  1  0
 11 12  2  0
 11 16  1  0
 12 13  1  0
 13 14  2  0
 15 14  1  0
 16 15  2  0
 17 20  1  0
 17 16  1  0
 18 17  1  0
 19 10  1  0
 19 18  1  0
M  RAD  8   4   2   5   2   6   2   7   2  10   2  12   2  13   2  14   2
M  RAD  1  18   3
M  END
>  <MODEL>  (52) 
2

>  <TORSDO>  (52) 
F 0

>  <SCORE>  (52) 
-9.0

>  <ligand_id>  (52) 
25

>  <original_smiles>  (52) 
O=C1c2ccccc2OC2c3cccnc3NCN12

>  <smiles>  (52) 
O=C1c2ccccc2OC2c3cccnc3NCN12

$$$$
26:0:0
     RDKit          3D

 10 11  0  0  0  0  0  0  0  0999 V2000
    6.5160  334.7490   12.0950 C   0  0  0  0  0  3  0  0  0  0  0  0
    6.9340  336.0850   12.0880 C   0  0  0  0  0  3  0  0  0  0  0  0
    7.3370  336.6900   10.8920 C   0  0  0  0  0  3  0  0  0  0  0  0
    7.3210  335.9580    9.7010 C   0  0  0  0  0  0  0  0  0  0  0  0
    7.7110  336.5370    8.5340 N   0  0  0  0  0  0  0  0  0  0  0  0
    7.7050  335.8480    7.3610 C   0  0  0  0  0  3  0  0  0  0  0  0
    7.2940  334.5120    7.3310 C   0  0  0  0  0  3  0  0  0  0  0  0
    6.8890  333.8910    8.5150 C   0  0  0  0  0  3  0  0  0  0  0  0
    6.8990  334.6100    9.7100 C   0  0  0  0  0  0  0  0  0  0  0  0
    6.4980  334.0110   10.9070 C   0  0  0  0  0  3  0  0  0  0  0  0
  2  1  2  0
  3  2  1  0
  4  9  1  0
  4  3  2  0
  5  4  1  0
  6  5  2  0
  7  6  1  0
  7  8  2  0
  8  9  1  0
  9 10  2  0
 10  1  1  0
M  RAD  7   1   2   2   2   3   2   6   2   7   2   8   2  10   2
M  END
>  <MODEL>  (53) 
1

>  <TORSDO>  (53) 
F 0

>  <SCORE>  (53) 
-6.3

>  <ligand_id>  (53) 
26

>  <original_smiles>  (53) 
c1ccc2ncccc2c1

>  <smiles>  (53) 
c1ccc2ncccc2c1

$$$$
26:0:1
     RDKit          3D

 10 11  0  0  0  0  0  0  0  0999 V2000
    7.1500  334.0290    7.4090 C   0  0  0  0  0  3  0  0  0  0  0  0
    7.6070  335.3350    7.1960 C   0  0  0  0  0  3  0  0  0  0  0  0
    7.6950  336.2330    8.2660 C   0  0  0  0  0  3  0  0  0  0  0  0
    7.3250  335.8250    9.5510 C   0  0  0  0  0  0  0  0  0  0  0  0
    7.4070  336.6910   10.5960 N   0  0  0  0  0  0  0  0  0  0  0  0
    7.0550  336.3200   11.8560 C   0  0  0  0  0  3  0  0  0  0  0  0
    6.5930  335.0240   12.1060 C   0  0  0  0  0  3  0  0  0  0  0  0
    6.4990  334.1140   11.0510 C   0  0  0  0  0  3  0  0  0  0  0  0
    6.8640  334.5070    9.7640 C   0  0  0  0  0  0  0  0  0  0  0  0
    6.7780  333.6150    8.6920 C   0  0  0  0  0  3  0  0  0  0  0  0
  1 10  2  0
  2  1  1  0
  2  3  2  0
  3  4  1  0
  4  9  2  0
  4  5  1  0
  5  6  2  0
  6  7  1  0
  8  7  2  0
  9  8  1  0
 10  9  1  0
M  RAD  7   1   2   2   2   3   2   6   2   7   2   8   2  10   2
M  END
>  <MODEL>  (54) 
2

>  <TORSDO>  (54) 
F 0

>  <SCORE>  (54) 
-6.2

>  <ligand_id>  (54) 
26

>  <original_smiles>  (54) 
c1ccc2ncccc2c1

>  <smiles>  (54) 
c1ccc2ncccc2c1

$$$$
27:0:0
     RDKit          3D

 12 13  0  0  0  0  0  0  0  0999 V2000
    6.0640  331.9150    8.9980 F   0  0  0  0  0  0  0  0  0  0  0  0
    6.4990  333.1830    9.1870 C   0  0  0  0  0  0  0  0  0  0  0  0
    7.0450  333.9000    8.1170 C   0  0  0  0  0  3  0  0  0  0  0  0
    7.4990  335.2110    8.3030 C   0  0  0  0  0  0  0  0  0  0  0  0
    8.0250  335.8930    7.2550 F   0  0  0  0  0  0  0  0  0  0  0  0
    7.4050  335.8080    9.5670 C   0  0  0  0  0  0  0  0  0  0  0  0
    7.8410  337.0820    9.7650 N   0  0  0  0  0  0  0  0  0  0  0  0
    7.7600  337.6810   10.9840 C   0  0  0  0  0  3  0  0  0  0  0  0
    7.2200  336.9910   12.0730 C   0  0  0  0  0  3  0  0  0  0  0  0
    6.7650  335.6840   11.9000 C   0  0  0  0  0  3  0  0  0  0  0  0
    6.8530  335.0810   10.6460 C   0  0  0  0  0  0  0  0  0  0  0  0
    6.4040  333.7720   10.4510 C   0  0  0  0  0  3  0  0  0  0  0  0
  1  2  1  0
  2 12  2  0
  3  4  2  0
  3  2  1  0
  4  6  1  0
  5  4  1  0
  6  7  1  0
  6 11  2  0
  7  8  2  0
  8  9  1  0
 10  9  2  0
 11 10  1  0
 12 11  1  0
M  RAD  5   3   2   8   2   9   2  10   2  12   2
M  END
>  <MODEL>  (55) 
1

>  <TORSDO>  (55) 
F 0

>  <SCORE>  (55) 
-6.9

>  <ligand_id>  (55) 
27

>  <original_smiles>  (55) 
Fc1cc(F)c2ncccc2c1

>  <smiles>  (55) 
Fc1cc(F)c2ncccc2c1

$$$$
27:0:1
     RDKit          3D

 12 13  0  0  0  0  0  0  0  0999 V2000
    8.1380  336.4730    6.1290 F   0  0  0  0  0  0  0  0  0  0  0  0
    7.7360  335.9060    7.2910 C   0  0  0  0  0  0  0  0  0  0  0  0
    7.2650  334.5890    7.2970 C   0  0  0  0  0  3  0  0  0  0  0  0
    6.8470  333.9940    8.4940 C   0  0  0  0  0  0  0  0  0  0  0  0
    6.3940  332.7160    8.4830 F   0  0  0  0  0  0  0  0  0  0  0  0
    6.9010  334.7210    9.6900 C   0  0  0  0  0  0  0  0  0  0  0  0
    6.4980  334.1580   10.8620 N   0  0  0  0  0  0  0  0  0  0  0  0
    6.5420  334.8460   12.0350 C   0  0  0  0  0  3  0  0  0  0  0  0
    7.0070  336.1640   12.0610 C   0  0  0  0  0  3  0  0  0  0  0  0
    7.4260  336.7680   10.8750 C   0  0  0  0  0  3  0  0  0  0  0  0
    7.3770  336.0520    9.6790 C   0  0  0  0  0  0  0  0  0  0  0  0
    7.7910  336.6380    8.4810 C   0  0  0  0  0  3  0  0  0  0  0  0
  1  2  1  0
  2  3  2  0
  2 12  1  0
  3  4  1  0
  4  6  2  0
  5  4  1  0
  6  7  1  0
  7  8  2  0
  8  9  1  0
 10  9  2  0
 11  6  1  0
 11 10  1  0
 12 11  2  0
M  RAD  5   3   2   8   2   9   2  10   2  12   2
M  END
>  <MODEL>  (56) 
2

>  <TORSDO>  (56) 
F 0

>  <SCORE>  (56) 
-6.8

>  <ligand_id>  (56) 
27

>  <original_smiles>  (56) 
Fc1cc(F)c2ncccc2c1

>  <smiles>  (56) 
Fc1cc(F)c2ncccc2c1

$$$$
28:0:0
     RDKit          3D

 10 11  0  0  0  0  0  0  0  0999 V2000
    8.1650  337.8920    7.8330 Cl  0  0  0  0  0  0  0  0  0  0  0  0
    7.7750  336.2730    7.2930 C   0  0  0  0  0  0  0  0  0  0  0  0
    7.5450  335.2550    8.2390 C   0  0  0  0  0  3  0  0  0  0  0  0
    7.2310  333.9500    7.8230 C   0  0  0  0  0  3  0  0  0  0  0  0
    7.1520  333.6880    6.4550 C   0  0  0  0  0  0  0  0  0  0  0  0
    6.8580  332.4750    5.9220 N   0  0  0  0  0  0  0  0  0  0  0  0
    6.8500  332.5070    4.5640 C   0  0  0  0  0  3  0  0  0  0  0  0
    7.2120  334.0630    3.9960 S   0  0  0  0  0  0  0  0  0  0  0  0
    7.3800  334.6960    5.5360 C   0  0  0  0  0  0  0  0  0  0  0  0
    7.6930  335.9970    5.9180 C   0  0  0  0  0  3  0  0  0  0  0  0
  2  1  1  0
  2  3  2  0
  4  3  1  0
  5  4  2  0
  6  5  1  0
  7  6  2  0
  8  7  1  0
  8  9  1  0
  9 10  2  0
  9  5  1  0
 10  2  1  0
M  RAD  4   3   2   4   2   7   2  10   2
M  END
>  <MODEL>  (57) 
1

>  <TORSDO>  (57) 
F 0

>  <SCORE>  (57) 
-5.2

>  <ligand_id>  (57) 
28

>  <original_smiles>  (57) 
Clc1ccc2ncsc2c1

>  <smiles>  (57) 
Clc1ccc2ncsc2c1

$$$$
28:0:1
     RDKit          3D

 10 11  0  0  0  0  0  0  0  0999 V2000
    6.1940  332.2140    9.0110 Cl  0  0  0  0  0  0  0  0  0  0  0  0
    6.7730  333.8580    9.1670 C   0  0  0  0  0  0  0  0  0  0  0  0
    7.3580  334.5020    8.0590 C   0  0  0  0  0  3  0  0  0  0  0  0
    7.8280  335.8230    8.1650 C   0  0  0  0  0  3  0  0  0  0  0  0
    7.7020  336.4770    9.3910 C   0  0  0  0  0  0  0  0  0  0  0  0
    8.1140  337.7480    9.6270 N   0  0  0  0  0  0  0  0  0  0  0  0
    7.8680  338.1310   10.9070 C   0  0  0  0  0  3  0  0  0  0  0  0
    7.1240  336.8790   11.7770 S   0  0  0  0  0  0  0  0  0  0  0  0
    7.1260  335.8330   10.4720 C   0  0  0  0  0  0  0  0  0  0  0  0
    6.6520  334.5280   10.3950 C   0  0  0  0  0  3  0  0  0  0  0  0
  1  2  1  0
  2 10  2  0
  3  4  2  0
  3  2  1  0
  4  5  1  0
  5  6  1  0
  5  9  2  0
  6  7  2  0
  7  8  1  0
  9  8  1  0
 10  9  1  0
M  RAD  4   3   2   4   2   7   2  10   2
M  END
>  <MODEL>  (58) 
2

>  <TORSDO>  (58) 
F 0

>  <SCORE>  (58) 
-5.1

>  <ligand_id>  (58) 
28

>  <original_smiles>  (58) 
Clc1ccc2ncsc2c1

>  <smiles>  (58) 
Clc1ccc2ncsc2c1

$$$$
29:0:0
     RDKit          3D

 10 11  0  0  0  0  0  0  0  0999 V2000
    7.6260  335.5300    7.2540 C   0  0  0  0  0  3  0  0  0  0  0  0
    7.1700  334.2180    7.4180 C   0  0  0  0  0  3  0  0  0  0  0  0
    6.8040  333.7670    8.6480 N   0  0  0  0  0  0  0  0  0  0  0  0
    6.8720  334.5690    9.7450 C   0  0  0  0  0  0  0  0  0  0  0  0
    6.4940  334.0920   11.0000 C   0  0  0  0  0  3  0  0  0  0  0  0
    6.5730  334.9360   12.1110 C   0  0  0  0  0  3  0  0  0  0  0  0
    7.0300  336.2480   11.9480 C   0  0  0  0  0  3  0  0  0  0  0  0
    7.3940  336.6990   10.7170 N   0  0  0  0  0  0  0  0  0  0  0  0
    7.3270  335.8970    9.6200 C   0  0  0  0  0  0  0  0  0  0  0  0
    7.7050  336.3730    8.3650 C   0  0  0  0  0  3  0  0  0  0  0  0
  1  2  2  0
  1 10  1  0
  2  3  1  0
  3  4  2  0
  4  5  1  0
  5  6  2  0
  7  6  1  0
  8  7  2  0
  9  4  1  0
  9  8  1  0
 10  9  2  0
M  RAD  6   1   2   2   2   5   2   6   2   7   2  10   2
M  END
>  <MODEL>  (59) 
1

>  <TORSDO>  (59) 
F 0

>  <SCORE>  (59) 
-5.3

>  <ligand_id>  (59) 
29

>  <original_smiles>  (59) 
c1cnc2cccnc2c1

>  <smiles>  (59) 
c1cnc2cccnc2c1

$$$$
29:0:1
     RDKit          3D

 10 11  0  0  0  0  0  0  0  0999 V2000
    7.1810  334.2590    7.3800 C   0  0  0  0  0  3  0  0  0  0  0  0
    7.6410  335.5780    7.3070 C   0  0  0  0  0  3  0  0  0  0  0  0
    7.6970  336.3490    8.4270 N   0  0  0  0  0  0  0  0  0  0  0  0
    7.3110  335.8650    9.6380 C   0  0  0  0  0  0  0  0  0  0  0  0
    7.3740  336.6670   10.7780 C   0  0  0  0  0  3  0  0  0  0  0  0
    6.9710  336.1470   12.0110 C   0  0  0  0  0  3  0  0  0  0  0  0
    6.5110  334.8270   12.0840 C   0  0  0  0  0  3  0  0  0  0  0  0
    6.4560  334.0570   10.9640 N   0  0  0  0  0  0  0  0  0  0  0  0
    6.8420  334.5410    9.7530 C   0  0  0  0  0  0  0  0  0  0  0  0
    6.7790  333.7390    8.6120 C   0  0  0  0  0  3  0  0  0  0  0  0
  1 10  2  0
  2  1  1  0
  2  3  2  0
  3  4  1  0
  4  9  2  0
  4  5  1  0
  5  6  2  0
  6  7  1  0
  8  7  2  0
  9  8  1  0
 10  9  1  0
M  RAD  6   1   2   2   2   5   2   6   2   7   2  10   2
M  END
>  <MODEL>  (60) 
2

>  <TORSDO>  (60) 
F 0

>  <SCORE>  (60) 
-5.3

>  <ligand_id>  (60) 
29

>  <original_smiles>  (60) 
c1cnc2cccnc2c1

>  <smiles>  (60) 
c1cnc2cccnc2c1

$$$$
30:0:0
     RDKit          3D

 20 22  0  0  1  0  0  0  0  0999 V2000
    6.4940  332.9920    3.8550 C   0  0  0  0  0  0  0  0  0  0  0  0
    5.9810  333.4890    2.5160 C   0  0  0  0  0  3  0  0  0  0  0  0
    4.8820  333.1100    1.9500 N   0  0  0  0  0  2  0  0  0  0  0  0
    6.6810  334.7020    2.1920 C   0  0  0  0  0  0  0  0  0  0  0  0
    6.7050  335.6660    1.2180 C   0  0  0  0  0  3  0  0  0  0  0  0
    7.6570  336.5160    1.5830 O   0  0  0  0  0  0  0  0  0  0  0  0
    8.2270  336.1460    2.7250 C   0  0  0  0  0  3  0  0  0  0  0  0
    7.5910  334.9910    3.1080 C   0  0  0  0  0  0  0  0  0  0  0  0
    7.6520  334.0000    4.2220 C   0  0  0  0  0  3  0  0  0  0  0  0
    4.6130  333.5020    1.0360 H   0  0  0  0  0  0  0  0  0  0  0  0
    7.5770  334.6430    5.5850 C   0  0  0  0  0  0  0  0  0  0  0  0
    7.5360  333.8760    6.7610 C   0  0  0  0  0  3  0  0  0  0  0  0
    7.4940  334.5050    8.0090 C   0  0  0  0  0  3  0  0  0  0  0  0
    7.4990  335.9000    8.0890 C   0  0  0  0  0  3  0  0  0  0  0  0
    7.5490  336.6670    6.9210 C   0  0  0  0  0  3  0  0  0  0  0  0
    7.5900  336.0390    5.6720 C   0  0  0  0  0  3  0  0  0  0  0  0
    7.4990  330.5840    3.5820 N   0  0  0  0  0  0  0  0  0  0  0  0
    7.0560  331.6470    3.7020 C   0  0  0  0  0  0  0  0  0  0  0  0
    5.3950  332.9490    4.8410 C   0  0  0  0  0  0  0  0  0  0  0  0
    4.5350  332.9140    5.6150 N   0  0  0  0  0  0  0  0  0  0  0  0
  1  9  1  0
  1 19  1  0
  2  3  1  0
  2  1  1  0
  4  2  1  0
  4  8  1  0
  5  6  1  0
  5  4  2  0
  6  7  1  0
  7  8  2  0
  8  9  1  0
  9 11  1  0
 10  3  1  0
 11 16  1  0
 11 12  2  0
 12 13  1  0
 13 14  2  0
 15 14  1  0
 16 15  2  0
 17 18  3  0
 18  1  1  0
 19 20  3  0
M  RAD  8   2   2   3   2   5   2   7   2   9   2  12   2  13   2  14   2
M  RAD  2  15   2  16   2
M  END
>  <MODEL>  (61) 
1

>  <TORSDO>  (61) 
F 3

>  <SCORE>  (61) 
-7.7

>  <ligand_id>  (61) 
30

>  <original_smiles>  (61) 
N#CC1(C#N)C(=N)c2cocc2C1c1ccccc1

>  <smiles>  (61) 
N#CC1(C#N)C(=N)c2cocc2C1c1ccccc1

$$$$
30:0:1
     RDKit          3D

 20 22  0  0  1  0  0  0  0  0999 V2000
    8.8830  326.5140    4.4010 C   0  0  0  0  0  0  0  0  0  0  0  0
    8.9870  327.9500    3.9260 C   0  0  0  0  0  3  0  0  0  0  0  0
    8.0020  328.7860    3.8540 N   0  0  0  0  0  2  0  0  0  0  0  0
   10.3720  328.3340    3.9580 C   0  0  0  0  0  0  0  0  0  0  0  0
   11.1580  329.4310    3.7200 C   0  0  0  0  0  3  0  0  0  0  0  0
   12.4040  329.0310    3.9510 O   0  0  0  0  0  0  0  0  0  0  0  0
   12.4440  327.7550    4.3200 C   0  0  0  0  0  3  0  0  0  0  0  0
   11.1410  327.3220    4.3280 C   0  0  0  0  0  0  0  0  0  0  0  0
   10.3830  326.0690    4.6120 C   0  0  0  0  0  3  0  0  0  0  0  0
    8.1660  329.7460    3.5180 H   0  0  0  0  0  0  0  0  0  0  0  0
   10.7240  325.4670    5.9530 C   0  0  0  0  0  0  0  0  0  0  0  0
   11.1780  326.2570    7.0220 C   0  0  0  0  0  3  0  0  0  0  0  0
   11.4600  325.6700    8.2590 C   0  0  0  0  0  3  0  0  0  0  0  0
   11.2850  324.2950    8.4360 C   0  0  0  0  0  3  0  0  0  0  0  0
   10.8250  323.5070    7.3770 C   0  0  0  0  0  3  0  0  0  0  0  0
   10.5440  324.0920    6.1390 C   0  0  0  0  0  3  0  0  0  0  0  0
    7.7990  325.0350    2.5240 N   0  0  0  0  0  0  0  0  0  0  0  0
    8.2780  325.6870    3.3520 C   0  0  0  0  0  0  0  0  0  0  0  0
    8.0530  326.4350    5.6200 C   0  0  0  0  0  0  0  0  0  0  0  0
    7.4030  326.3730    6.5760 N   0  0  0  0  0  0  0  0  0  0  0  0
  1  9  1  0
  1 19  1  0
  2  3  1  0
  2  4  1  0
  2  1  1  0
  4  8  1  0
  5  6  1  0
  5  4  2  0
  6  7  1  0
  7  8  2  0
  8  9  1  0
  9 11  1  0
 10  3  1  0
 11 16  1  0
 11 12  2  0
 12 13  1  0
 13 14  2  0
 15 14  1  0
 16 15  2  0
 17 18  3  0
 18  1  1  0
 19 20  3  0
M  RAD  8   2   2   3   2   5   2   7   2   9   2  12   2  13   2  14   2
M  RAD  2  15   2  16   2
M  END
>  <MODEL>  (62) 
2

>  <TORSDO>  (62) 
F 3

>  <SCORE>  (62) 
-7.3

>  <ligand_id>  (62) 
30

>  <original_smiles>  (62) 
N#CC1(C#N)C(=N)c2cocc2C1c1ccccc1

>  <smiles>  (62) 
N#CC1(C#N)C(=N)c2cocc2C1c1ccccc1

$$$$
31:0:0
     RDKit          3D

  9 10  0  0  0  0  0  0  0  0999 V2000
   12.5760  354.4440   23.7960 C   0  0  0  0  0  3  0  0  0  0  0  0
   13.2880  355.0280   24.8560 C   0  0  0  0  0  3  0  0  0  0  0  0
   13.1950  354.5030   26.1520 C   0  0  0  0  0  3  0  0  0  0  0  0
   12.3840  353.3900   26.3770 C   0  0  0  0  0  0  0  0  0  0  0  0
   12.2400  352.8220   27.5990 N   0  0  0  0  0  0  0  0  0  0  0  0
   11.1940  351.5950   27.2210 S   0  0  0  0  0  0  0  0  0  0  0  0
   10.8970  351.7210   25.5970 N   0  0  0  0  0  0  0  0  0  0  0  0
   11.6630  352.7990   25.3020 C   0  0  0  0  0  0  0  0  0  0  0  0
   11.7600  353.3260   24.0140 C   0  0  0  0  0  3  0  0  0  0  0  0
  1  9  2  0
  1  2  1  0
  2  3  2  0
  3  4  1  0
  4  5  2  0
  6  5  1  0
  7  6  1  0
  8  7  2  0
  8  4  1  0
  9  8  1  0
M  RAD  4   1   2   2   2   3   2   9   2
M  END
>  <MODEL>  (63) 
1

>  <TORSDO>  (63) 
F 0

>  <SCORE>  (63) 
-5.3

>  <ligand_id>  (63) 
31

>  <original_smiles>  (63) 
c1ccc2nsnc2c1

>  <smiles>  (63) 
c1ccc2nsnc2c1

$$$$
31:0:1
     RDKit          3D

  9 10  0  0  0  0  0  0  0  0999 V2000
   -7.3730  354.7990   19.4940 C   0  0  0  0  0  3  0  0  0  0  0  0
   -7.8050  353.6060   18.8940 C   0  0  0  0  0  3  0  0  0  0  0  0
   -7.5520  352.3690   19.5020 C   0  0  0  0  0  3  0  0  0  0  0  0
   -6.8640  352.3370   20.7150 C   0  0  0  0  0  0  0  0  0  0  0  0
   -6.5800  351.1840   21.3690 N   0  0  0  0  0  0  0  0  0  0  0  0
   -5.7840  351.7920   22.6860 S   0  0  0  0  0  0  0  0  0  0  0  0
   -5.7660  353.4370   22.5010 N   0  0  0  0  0  0  0  0  0  0  0  0
   -6.4260  353.5470   21.3230 C   0  0  0  0  0  0  0  0  0  0  0  0
   -6.6820  354.7750   20.7120 C   0  0  0  0  0  3  0  0  0  0  0  0
  1  9  2  0
  2  1  1  0
  2  3  2  0
  3  4  1  0
  4  8  1  0
  4  5  2  0
  5  6  1  0
  7  6  1  0
  8  7  2  0
  9  8  1  0
M  RAD  4   1   2   2   2   3   2   9   2
M  END
>  <MODEL>  (64) 
2

>  <TORSDO>  (64) 
F 0

>  <SCORE>  (64) 
-5.1

>  <ligand_id>  (64) 
31

>  <original_smiles>  (64) 
c1ccc2nsnc2c1

>  <smiles>  (64) 
c1ccc2nsnc2c1

$$$$
32:0:0
     RDKit          3D

 12 14  0  0  0  0  0  0  0  0999 V2000
   10.8160  324.1550    8.0830 C   0  0  0  0  0  3  0  0  0  0  0  0
    9.4930  324.3960    7.8500 C   0  0  0  0  0  3  0  0  0  0  0  0
    9.1250  325.3720    6.7910 C   0  0  0  0  0  0  0  0  0  0  0  0
    7.8620  325.7380    6.4190 N   0  0  0  0  0  0  0  0  0  0  0  0
    7.6870  326.6660    5.4110 C   0  0  0  0  0  3  0  0  0  0  0  0
    8.7790  327.2220    4.7800 N   0  0  0  0  0  2  0  0  0  0  0  0
    9.9900  326.8340    5.1760 N   0  0  0  0  0  0  0  0  0  0  0  0
   11.2390  327.1730    4.7780 C   0  0  0  0  0  2  0  0  0  0  0  0
   12.1860  326.4860    5.5070 N   0  0  0  0  0  0  0  0  0  0  0  0
   11.4420  325.7290    6.3500 C   0  0  0  0  0  0  0  0  0  0  0  0
   10.1550  325.9550    6.1310 C   0  0  0  0  0  0  0  0  0  0  0  0
   11.8360  324.8180    7.3380 O   0  0  0  0  0  0  0  0  0  0  0  0
  2  1  2  0
  3  2  1  0
  4  3  1  0
  5  4  2  0
  6  7  1  0
  6  5  1  0
  7 11  1  0
  8  7  1  0
  8  9  1  0
  9 10  2  0
 10 12  1  0
 11 10  1  0
 11  3  2  0
 12  1  1  0
M  RAD  5   1   2   2   2   5   2   6   2   8   3
M  END
>  <MODEL>  (65) 
1

>  <TORSDO>  (65) 
F 0

>  <SCORE>  (65) 
-5.7

>  <ligand_id>  (65) 
32

>  <original_smiles>  (65) 
C1=Cc2ncnn3cnc(c23)O1

>  <smiles>  (65) 
C1=Cc2ncnn3cnc(c23)O1

$$$$
32:0:1
     RDKit          3D

 12 14  0  0  0  0  0  0  0  0999 V2000
   12.3210  327.2810    5.2140 C   0  0  0  0  0  3  0  0  0  0  0  0
   11.1310  327.7900    4.7790 C   0  0  0  0  0  3  0  0  0  0  0  0
    9.8800  327.0660    5.1240 C   0  0  0  0  0  0  0  0  0  0  0  0
    8.6070  327.4220    4.7800 N   0  0  0  0  0  0  0  0  0  0  0  0
    7.5440  326.6370    5.1800 C   0  0  0  0  0  3  0  0  0  0  0  0
    7.7630  325.4980    5.9260 N   0  0  0  0  0  2  0  0  0  0  0  0
    9.0210  325.1920    6.2380 N   0  0  0  0  0  0  0  0  0  0  0  0
    9.5710  324.1710    6.9390 C   0  0  0  0  0  2  0  0  0  0  0  0
   10.9420  324.2980    6.9860 N   0  0  0  0  0  0  0  0  0  0  0  0
   11.1760  325.4330    6.2850 C   0  0  0  0  0  0  0  0  0  0  0  0
   10.0270  325.9360    5.8580 C   0  0  0  0  0  0  0  0  0  0  0  0
   12.3800  326.0810    5.9830 O   0  0  0  0  0  0  0  0  0  0  0  0
  1 12  1  0
  2  3  1  0
  2  1  2  0
  3 11  2  0
  4  3  1  0
  4  5  2  0
  5  6  1  0
  6  7  1  0
  7  8  1  0
  8  9  1  0
 10  9  2  0
 11  7  1  0
 11 10  1  0
 12 10  1  0
M  RAD  5   1   2   2   2   5   2   6   2   8   3
M  END
>  <MODEL>  (66) 
2

>  <TORSDO>  (66) 
F 0

>  <SCORE>  (66) 
-5.5

>  <ligand_id>  (66) 
32

>  <original_smiles>  (66) 
C1=Cc2ncnn3cnc(c23)O1

>  <smiles>  (66) 
C1=Cc2ncnn3cnc(c23)O1

$$$$
33:0:0
     RDKit          3D

  9 10  0  0  0  0  0  0  0  0999 V2000
   11.7930  353.5970   23.2150 C   0  0  0  0  0  3  0  0  0  0  0  0
   10.8040  352.7500   23.7690 C   0  0  0  0  0  3  0  0  0  0  0  0
   10.8580  352.3870   25.0880 N   0  0  0  0  0  0  0  0  0  0  0  0
   11.8770  352.8590   25.8460 C   0  0  0  0  0  0  0  0  0  0  0  0
   12.1650  352.6550   27.1710 C   0  0  0  0  0  3  0  0  0  0  0  0
   13.2750  353.3510   27.3920 O   0  0  0  0  0  0  0  0  0  0  0  0
   13.7110  353.9740   26.3250 N   0  0  0  0  0  0  0  0  0  0  0  0
   12.8430  353.6710   25.3520 C   0  0  0  0  0  0  0  0  0  0  0  0
   12.8430  354.0750   24.0230 C   0  0  0  0  0  3  0  0  0  0  0  0
  1  2  1  0
  1  9  2  0
  2  3  2  0
  3  4  1  0
  4  5  2  0
  5  6  1  0
  7  6  1  0
  8  4  1  0
  8  7  2  0
  9  8  1  0
M  RAD  4   1   2   2   2   5   2   9   2
M  END
>  <MODEL>  (67) 
1

>  <TORSDO>  (67) 
F 0

>  <SCORE>  (67) 
-5.6

>  <ligand_id>  (67) 
33

>  <original_smiles>  (67) 
c1cnc2conc2c1

>  <smiles>  (67) 
c1cnc2conc2c1

$$$$
33:0:1
     RDKit          3D

  9 10  0  0  0  0  0  0  0  0999 V2000
   -7.3880  354.0670   19.0960 C   0  0  0  0  0  3  0  0  0  0  0  0
   -6.8180  355.0090   19.9860 C   0  0  0  0  0  3  0  0  0  0  0  0
   -6.2700  354.6020   21.1730 N   0  0  0  0  0  0  0  0  0  0  0  0
   -6.2870  353.2810   21.4710 C   0  0  0  0  0  0  0  0  0  0  0  0
   -5.8150  352.6140   22.5740 C   0  0  0  0  0  3  0  0  0  0  0  0
   -6.0940  351.3350   22.3460 O   0  0  0  0  0  0  0  0  0  0  0  0
   -6.6980  351.1370   21.2000 N   0  0  0  0  0  0  0  0  0  0  0  0
   -6.8240  352.3490   20.6460 C   0  0  0  0  0  0  0  0  0  0  0  0
   -7.3940  352.6990   19.4290 C   0  0  0  0  0  3  0  0  0  0  0  0
  1  9  2  0
  1  2  1  0
  2  3  2  0
  3  4  1  0
  4  5  2  0
  6  5  1  0
  7  6  1  0
  8  7  2  0
  8  4  1  0
  9  8  1  0
M  RAD  4   1   2   2   2   5   2   9   2
M  END
>  <MODEL>  (68) 
2

>  <TORSDO>  (68) 
F 0

>  <SCORE>  (68) 
-5.3

>  <ligand_id>  (68) 
33

>  <original_smiles>  (68) 
c1cnc2conc2c1

>  <smiles>  (68) 
c1cnc2conc2c1

$$$$
34:0:0
     RDKit          3D

  9 10  0  0  0  0  0  0  0  0999 V2000
   12.0550  353.7390   22.9430 C   0  0  0  0  0  3  0  0  0  0  0  0
   10.9110  352.9680   23.2350 C   0  0  0  0  0  3  0  0  0  0  0  0
   10.6920  352.5070   24.5010 N   0  0  0  0  0  0  0  0  0  0  0  0
   11.5910  352.7980   25.4730 C   0  0  0  0  0  0  0  0  0  0  0  0
   11.5440  352.3500   27.0840 S   0  0  0  0  0  0  0  0  0  0  0  0
   13.0050  353.1460   27.4310 C   0  0  0  0  0  3  0  0  0  0  0  0
   13.5150  353.7440   26.3220 N   0  0  0  0  0  0  0  0  0  0  0  0
   12.7220  353.5460   25.2390 C   0  0  0  0  0  0  0  0  0  0  0  0
   12.9790  354.0340   23.9590 C   0  0  0  0  0  3  0  0  0  0  0  0
  1  2  2  0
  1  9  1  0
  2  3  1  0
  3  4  2  0
  4  5  1  0
  5  6  1  0
  7  6  2  0
  8  4  1  0
  8  7  1  0
  9  8  2  0
M  RAD  4   1   2   2   2   6   2   9   2
M  END
>  <MODEL>  (69) 
1

>  <TORSDO>  (69) 
F 0

>  <SCORE>  (69) 
-5.3

>  <ligand_id>  (69) 
34

>  <original_smiles>  (69) 
c1cnc2scnc2c1

>  <smiles>  (69) 
c1cnc2scnc2c1

$$$$
34:0:1
     RDKit          3D

  9 10  0  0  0  0  0  0  0  0999 V2000
    8.9770  324.8550    7.8260 C   0  0  0  0  0  3  0  0  0  0  0  0
    9.6220  324.1170    6.8110 C   0  0  0  0  0  3  0  0  0  0  0  0
   10.7730  323.4350    7.0770 N   0  0  0  0  0  0  0  0  0  0  0  0
   11.2900  323.4760    8.3290 C   0  0  0  0  0  0  0  0  0  0  0  0
   12.6770  322.7310    8.8950 S   0  0  0  0  0  0  0  0  0  0  0  0
   12.4680  323.3510   10.4630 C   0  0  0  0  0  3  0  0  0  0  0  0
   11.3480  324.1170   10.5430 N   0  0  0  0  0  0  0  0  0  0  0  0
   10.6990  324.1820    9.3530 C   0  0  0  0  0  0  0  0  0  0  0  0
    9.5230  324.8900    9.1190 C   0  0  0  0  0  3  0  0  0  0  0  0
  1  9  2  0
  2  3  2  0
  2  1  1  0
  3  4  1  0
  4  5  1  0
  4  8  2  0
  5  6  1  0
  6  7  2  0
  8  7  1  0
  9  8  1  0
M  RAD  4   1   2   2   2   6   2   9   2
M  END
>  <MODEL>  (70) 
2

>  <TORSDO>  (70) 
F 0

>  <SCORE>  (70) 
-4.7

>  <ligand_id>  (70) 
34

>  <original_smiles>  (70) 
c1cnc2scnc2c1

>  <smiles>  (70) 
c1cnc2scnc2c1

$$$$
35:0:0
     RDKit          3D

 13 14  0  0  0  0  0  0  0  0999 V2000
    7.1590  335.0040    6.8210 C   0  0  0  0  0  0  0  0  0  0  0  0
    7.5150  336.2330    6.2580 C   0  0  0  0  0  3  0  0  0  0  0  0
    8.0060  337.2630    7.0650 C   0  0  0  0  0  3  0  0  0  0  0  0
    8.1470  337.0760    8.4480 C   0  0  0  0  0  0  0  0  0  0  0  0
    7.7900  335.8430    9.0110 C   0  0  0  0  0  3  0  0  0  0  0  0
    7.2990  334.8130    8.2050 C   0  0  0  0  0  3  0  0  0  0  0  0
    8.6650  338.1630    9.2970 C   0  0  0  0  0  0  0  0  0  0  0  0
    9.4740  338.0070   10.4140 C   0  0  0  0  0  3  0  0  0  0  0  0
    9.8090  339.2250   11.0230 C   0  0  0  0  0  3  0  0  0  0  0  0
    9.2730  340.3490   10.3980 C   0  0  0  0  0  3  0  0  0  0  0  0
    8.3790  339.8040    9.0820 S   0  0  0  0  0  0  0  0  0  0  0  0
    5.3150  333.9360    5.5650 C   0  0  0  0  0  1  0  0  0  0  0  0
    6.6710  333.9930    5.9860 O   0  0  0  0  0  0  0  0  0  0  0  0
  1  6  2  0
  2  1  1  0
  2  3  2  0
  3  4  1  0
  4  5  2  0
  4  7  1  0
  6  5  1  0
  7  8  2  0
  8  9  1  0
 10  9  2  0
 11  7  1  0
 11 10  1  0
 12 13  1  0
 13  1  1  0
M  RAD  8   2   2   3   2   5   2   6   2   8   2   9   2  10   2  12   2
M  END
>  <MODEL>  (71) 
1

>  <TORSDO>  (71) 
F 2

>  <SCORE>  (71) 
-6.5

>  <ligand_id>  (71) 
35

>  <original_smiles>  (71) 
COc1ccc(-c2cccs2)cc1

>  <smiles>  (71) 
COc1ccc(-c2cccs2)cc1

$$$$
35:0:1
     RDKit          3D

 13 14  0  0  0  0  0  0  0  0999 V2000
    7.1620  334.9960    6.7970 C   0  0  0  0  0  0  0  0  0  0  0  0
    7.2630  334.8230    8.1810 C   0  0  0  0  0  3  0  0  0  0  0  0
    7.7520  335.8550    8.9860 C   0  0  0  0  0  3  0  0  0  0  0  0
    8.1490  337.0740    8.4180 C   0  0  0  0  0  0  0  0  0  0  0  0
    8.0480  337.2460    7.0300 C   0  0  0  0  0  3  0  0  0  0  0  0
    7.5590  336.2150    6.2240 C   0  0  0  0  0  3  0  0  0  0  0  0
    8.6650  338.1600    9.2690 C   0  0  0  0  0  0  0  0  0  0  0  0
    9.4820  338.0030   10.3800 C   0  0  0  0  0  3  0  0  0  0  0  0
    9.8140  339.2210   10.9920 C   0  0  0  0  0  3  0  0  0  0  0  0
    9.2690  340.3450   10.3750 C   0  0  0  0  0  3  0  0  0  0  0  0
    8.3700  339.8000    9.0620 S   0  0  0  0  0  0  0  0  0  0  0  0
    5.3110  333.8700    5.6030 C   0  0  0  0  0  1  0  0  0  0  0  0
    6.6690  333.9450    6.0180 O   0  0  0  0  0  0  0  0  0  0  0  0
  1  2  2  0
  2  3  1  0
  4  3  2  0
  4  7  1  0
  5  4  1  0
  6  1  1  0
  6  5  2  0
  7  8  2  0
  8  9  1  0
 10  9  2  0
 11  7  1  0
 11 10  1  0
 12 13  1  0
 13  1  1  0
M  RAD  8   2   2   3   2   5   2   6   2   8   2   9   2  10   2  12   2
M  END
>  <MODEL>  (72) 
2

>  <TORSDO>  (72) 
F 2

>  <SCORE>  (72) 
-6.5

>  <ligand_id>  (72) 
35

>  <original_smiles>  (72) 
COc1ccc(-c2cccs2)cc1

>  <smiles>  (72) 
COc1ccc(-c2cccs2)cc1

$$$$
36:0:0
     RDKit          3D

  9 10  0  0  0  0  0  0  0  0999 V2000
    7.0720  336.4350   12.2470 C   0  0  0  0  0  3  0  0  0  0  0  0
    7.5750  337.3040   11.2590 C   0  0  0  0  0  3  0  0  0  0  0  0
    7.6570  336.8980    9.9590 N   0  0  0  0  0  0  0  0  0  0  0  0
    7.2490  335.6490    9.6280 C   0  0  0  0  0  0  0  0  0  0  0  0
    7.2550  334.9410    8.1160 S   0  0  0  0  0  0  0  0  0  0  0  0
    6.6070  333.4590    8.6340 C   0  0  0  0  0  3  0  0  0  0  0  0
    6.3840  333.5270   10.0150 C   0  0  0  0  0  3  0  0  0  0  0  0
    6.7490  334.7610   10.5560 C   0  0  0  0  0  0  0  0  0  0  0  0
    6.6510  335.1430   11.8930 C   0  0  0  0  0  3  0  0  0  0  0  0
  2  1  2  0
  3  2  1  0
  4  3  2  0
  4  8  1  0
  5  6  1  0
  5  4  1  0
  6  7  2  0
  7  8  1  0
  8  9  2  0
  9  1  1  0
M  RAD  5   1   2   2   2   6   2   7   2   9   2
M  END
>  <MODEL>  (73) 
1

>  <TORSDO>  (73) 
F 0

>  <SCORE>  (73) 
-5.0

>  <ligand_id>  (73) 
36

>  <original_smiles>  (73) 
c1cnc2sccc2c1

>  <smiles>  (73) 
c1cnc2sccc2c1

$$$$
36:0:1
     RDKit          3D

  9 10  0  0  0  0  0  0  0  0999 V2000
   11.6260  353.4730   23.1830 C   0  0  0  0  0  3  0  0  0  0  0  0
   12.7750  354.1520   23.6330 C   0  0  0  0  0  3  0  0  0  0  0  0
   13.1850  354.0330   24.9290 N   0  0  0  0  0  0  0  0  0  0  0  0
   12.4730  353.2540   25.7800 C   0  0  0  0  0  0  0  0  0  0  0  0
   12.7820  352.9610   27.3950 S   0  0  0  0  0  0  0  0  0  0  0  0
   11.4490  351.9350   27.6250 C   0  0  0  0  0  3  0  0  0  0  0  0
   10.7540  351.8240   26.4130 C   0  0  0  0  0  3  0  0  0  0  0  0
   11.3420  352.5690   25.3900 C   0  0  0  0  0  0  0  0  0  0  0  0
   10.8960  352.6690   24.0730 C   0  0  0  0  0  3  0  0  0  0  0  0
  1  2  2  0
  1  9  1  0
  2  3  1  0
  3  4  2  0
  4  5  1  0
  5  6  1  0
  7  6  2  0
  8  4  1  0
  8  7  1  0
  9  8  2  0
M  RAD  5   1   2   2   2   6   2   7   2   9   2
M  END
>  <MODEL>  (74) 
2

>  <TORSDO>  (74) 
F 0

>  <SCORE>  (74) 
-4.9

>  <ligand_id>  (74) 
36

>  <original_smiles>  (74) 
c1cnc2sccc2c1

>  <smiles>  (74) 
c1cnc2sccc2c1

$$$$
37:0:0
     RDKit          3D

  9 10  0  0  0  0  0  0  0  0999 V2000
    9.5150  324.2650    6.6420 C   0  0  0  0  0  3  0  0  0  0  0  0
   10.6800  323.5190    6.8880 C   0  0  0  0  0  3  0  0  0  0  0  0
   11.1700  323.4880    8.1920 C   0  0  0  0  0  0  0  0  0  0  0  0
   12.3100  322.8030    8.6240 C   0  0  0  0  0  3  0  0  0  0  0  0
   12.5470  322.9620    9.9930 C   0  0  0  0  0  3  0  0  0  0  0  0
   11.3290  323.9510   10.6360 S   0  0  0  0  0  0  0  0  0  0  0  0
   10.5160  324.1730    9.1940 C   0  0  0  0  0  0  0  0  0  0  0  0
    9.3640  324.9070    8.9370 C   0  0  0  0  0  3  0  0  0  0  0  0
    8.8890  324.9340    7.6590 N   0  0  0  0  0  0  0  0  0  0  0  0
  1  2  2  0
  1  9  1  0
  2  3  1  0
  3  4  1  0
  3  7  2  0
  4  5  2  0
  5  6  1  0
  7  6  1  0
  8  7  1  0
  9  8  2  0
M  RAD  5   1   2   2   2   4   2   5   2   8   2
M  END
>  <MODEL>  (75) 
1

>  <TORSDO>  (75) 
F 0

>  <SCORE>  (75) 
-4.7

>  <ligand_id>  (75) 
37

>  <original_smiles>  (75) 
c1cc2ccsc2cn1

>  <smiles>  (75) 
c1cc2ccsc2cn1

$$$$
37:0:1
     RDKit          3D

  9 10  0  0  0  0  0  0  0  0999 V2000
    8.9190  324.8840    7.7580 C   0  0  0  0  0  3  0  0  0  0  0  0
    9.4290  324.8900    9.0670 C   0  0  0  0  0  3  0  0  0  0  0  0
   10.6070  324.1860    9.3110 C   0  0  0  0  0  0  0  0  0  0  0  0
   11.2590  324.0790   10.5430 C   0  0  0  0  0  3  0  0  0  0  0  0
   12.4220  323.3050   10.4720 C   0  0  0  0  0  3  0  0  0  0  0  0
   12.6110  322.7700    8.8740 S   0  0  0  0  0  0  0  0  0  0  0  0
   11.2360  323.5130    8.2850 C   0  0  0  0  0  0  0  0  0  0  0  0
   10.7210  323.5150    6.9940 C   0  0  0  0  0  3  0  0  0  0  0  0
    9.5680  324.2050    6.7620 N   0  0  0  0  0  0  0  0  0  0  0  0
  1  2  2  0
  2  3  1  0
  3  4  1  0
  5  4  2  0
  6  5  1  0
  7  6  1  0
  7  3  2  0
  8  7  1  0
  9  8  2  0
  9  1  1  0
M  RAD  5   1   2   2   2   4   2   5   2   8   2
M  END
>  <MODEL>  (76) 
2

>  <TORSDO>  (76) 
F 0

>  <SCORE>  (76) 
-4.7

>  <ligand_id>  (76) 
37

>  <original_smiles>  (76) 
c1cc2ccsc2cn1

>  <smiles>  (76) 
c1cc2ccsc2cn1

$$$$
38:0:0
     RDKit          3D

  8  9  0  0  0  0  0  0  0  0999 V2000
   -5.7880  351.7520   22.6820 C   0  0  0  0  0  3  0  0  0  0  0  0
   -5.7180  353.1490   22.5700 C   0  0  0  0  0  3  0  0  0  0  0  0
   -6.3500  353.4300   21.4270 N   0  0  0  0  0  0  0  0  0  0  0  0
   -6.6520  354.5410   20.7210 C   0  0  0  0  0  3  0  0  0  0  0  0
   -7.3600  354.2230   19.5460 C   0  0  0  0  0  3  0  0  0  0  0  0
   -7.5710  352.5200   19.4620 S   0  0  0  0  0  0  0  0  0  0  0  0
   -6.7590  352.3020   20.9050 C   0  0  0  0  0  0  0  0  0  0  0  0
   -6.4520  351.2120   21.6200 N   0  0  0  0  0  0  0  0  0  0  0  0
  2  1  2  0
  3  2  1  0
  4  3  1  0
  5  4  2  0
  6  5  1  0
  6  7  1  0
  7  3  1  0
  7  8  2  0
  8  1  1  0
M  RAD  4   1   2   2   2   4   2   5   2
M  END
>  <MODEL>  (77) 
1

>  <TORSDO>  (77) 
F 0

>  <SCORE>  (77) 
-4.5

>  <ligand_id>  (77) 
38

>  <original_smiles>  (77) 
c1cn2ccsc2n1

>  <smiles>  (77) 
c1cn2ccsc2n1

$$$$
38:0:1
     RDKit          3D

  8  9  0  0  0  0  0  0  0  0999 V2000
   11.6250  327.0390    5.1670 C   0  0  0  0  0  3  0  0  0  0  0  0
   12.1120  326.7810    6.4570 C   0  0  0  0  0  3  0  0  0  0  0  0
   11.5980  325.5910    6.7820 N   0  0  0  0  0  0  0  0  0  0  0  0
   11.6490  324.7570    7.8440 C   0  0  0  0  0  3  0  0  0  0  0  0
   10.8830  323.5970    7.6200 C   0  0  0  0  0  3  0  0  0  0  0  0
   10.1690  323.6900    6.0610 S   0  0  0  0  0  0  0  0  0  0  0  0
   10.8710  325.1780    5.7760 C   0  0  0  0  0  0  0  0  0  0  0  0
   10.8330  326.0160    4.7320 N   0  0  0  0  0  0  0  0  0  0  0  0
  1  2  2  0
  2  3  1  0
  3  4  1  0
  5  4  2  0
  6  5  1  0
  7  6  1  0
  7  3  1  0
  8  1  1  0
  8  7  2  0
M  RAD  4   1   2   2   2   4   2   5   2
M  END
>  <MODEL>  (78) 
2

>  <TORSDO>  (78) 
F 0

>  <SCORE>  (78) 
-3.9

>  <ligand_id>  (78) 
38

>  <original_smiles>  (78) 
c1cn2ccsc2n1

>  <smiles>  (78) 
c1cn2ccsc2n1

$$$$
39:0:0
     RDKit          3D

  5  5  0  0  0  0  0  0  0  0999 V2000
   -7.9910  326.9330    4.4430 C   0  0  0  0  0  3  0  0  0  0  0  0
   -9.2580  326.4600    4.7320 C   0  0  0  0  0  3  0  0  0  0  0  0
   -9.2280  325.1050    4.4700 C   0  0  0  0  0  3  0  0  0  0  0  0
   -8.0290  324.7790    4.0520 O   0  0  0  0  0  0  0  0  0  0  0  0
   -7.2620  325.8400    4.0220 C   0  0  0  0  0  3  0  0  0  0  0  0
  1  2  1  0
  3  2  2  0
  4  3  1  0
  5  4  1  0
  5  1  2  0
M  RAD  4   1   2   2   2   3   2   5   2
M  END
>  <MODEL>  (79) 
1

>  <TORSDO>  (79) 
F 0

>  <SCORE>  (79) 
-3.8

>  <ligand_id>  (79) 
39

>  <original_smiles>  (79) 
c1ccoc1

>  <smiles>  (79) 
c1ccoc1

$$$$
39:0:1
     RDKit          3D

  5  5  0  0  0  0  0  0  0  0999 V2000
   -5.7090  353.0280   22.6060 C   0  0  0  0  0  3  0  0  0  0  0  0
   -6.3760  353.4350   21.4650 C   0  0  0  0  0  3  0  0  0  0  0  0
   -6.8410  352.2830   20.8640 C   0  0  0  0  0  3  0  0  0  0  0  0
   -6.4810  351.2510   21.5870 O   0  0  0  0  0  0  0  0  0  0  0  0
   -5.8050  351.6520   22.6340 C   0  0  0  0  0  3  0  0  0  0  0  0
  1  5  2  0
  2  1  1  0
  3  2  2  0
  3  4  1  0
  4  5  1  0
M  RAD  4   1   2   2   2   3   2   5   2
M  END
>  <MODEL>  (80) 
2

>  <TORSDO>  (80) 
F 0

>  <SCORE>  (80) 
-3.5

>  <ligand_id>  (80) 
39

>  <original_smiles>  (80) 
c1ccoc1

>  <smiles>  (80) 
c1ccoc1

$$$$
40:0:0
     RDKit          3D

 10 11  0  0  0  0  0  0  0  0999 V2000
    7.6260  335.5300    7.2540 C   0  0  0  0  0  3  0  0  0  0  0  0
    7.1700  334.2180    7.4180 C   0  0  0  0  0  3  0  0  0  0  0  0
    6.8040  333.7670    8.6480 N   0  0  0  0  0  0  0  0  0  0  0  0
    6.8720  334.5690    9.7450 C   0  0  0  0  0  0  0  0  0  0  0  0
    6.4940  334.0920   11.0000 C   0  0  0  0  0  3  0  0  0  0  0  0
    6.5730  334.9360   12.1110 C   0  0  0  0  0  3  0  0  0  0  0  0
    7.0300  336.2480   11.9480 C   0  0  0  0  0  3  0  0  0  0  0  0
    7.3940  336.6990   10.7170 N   0  0  0  0  0  0  0  0  0  0  0  0
    7.3270  335.8970    9.6200 C   0  0  0  0  0  0  0  0  0  0  0  0
    7.7050  336.3730    8.3650 C   0  0  0  0  0  3  0  0  0  0  0  0
  1  2  2  0
  1 10  1  0
  2  3  1  0
  3  4  2  0
  4  5  1  0
  5  6  2  0
  7  6  1  0
  8  7  2  0
  9  4  1  0
  9  8  1  0
 10  9  2  0
M  RAD  6   1   2   2   2   5   2   6   2   7   2  10   2
M  END
>  <MODEL>  (81) 
1

>  <TORSDO>  (81) 
F 0

>  <SCORE>  (81) 
-5.3

>  <ligand_id>  (81) 
40

>  <original_smiles>  (81) 
c1cnc2cccnc2c1

>  <smiles>  (81) 
c1cnc2cccnc2c1

$$$$
40:0:1
     RDKit          3D

 10 11  0  0  0  0  0  0  0  0999 V2000
    7.1810  334.2590    7.3800 C   0  0  0  0  0  3  0  0  0  0  0  0
    7.6410  335.5780    7.3070 C   0  0  0  0  0  3  0  0  0  0  0  0
    7.6970  336.3490    8.4270 N   0  0  0  0  0  0  0  0  0  0  0  0
    7.3110  335.8650    9.6380 C   0  0  0  0  0  0  0  0  0  0  0  0
    7.3740  336.6670   10.7780 C   0  0  0  0  0  3  0  0  0  0  0  0
    6.9710  336.1470   12.0110 C   0  0  0  0  0  3  0  0  0  0  0  0
    6.5110  334.8270   12.0840 C   0  0  0  0  0  3  0  0  0  0  0  0
    6.4560  334.0570   10.9640 N   0  0  0  0  0  0  0  0  0  0  0  0
    6.8420  334.5410    9.7530 C   0  0  0  0  0  0  0  0  0  0  0  0
    6.7790  333.7390    8.6120 C   0  0  0  0  0  3  0  0  0  0  0  0
  1 10  2  0
  2  1  1  0
  2  3  2  0
  3  4  1  0
  4  9  2  0
  4  5  1  0
  5  6  2  0
  6  7  1  0
  8  7  2  0
  9  8  1  0
 10  9  1  0
M  RAD  6   1   2   2   2   5   2   6   2   7   2  10   2
M  END
>  <MODEL>  (82) 
2

>  <TORSDO>  (82) 
F 0

>  <SCORE>  (82) 
-5.3

>  <ligand_id>  (82) 
40

>  <original_smiles>  (82) 
c1cnc2cccnc2c1

>  <smiles>  (82) 
c1cnc2cccnc2c1

$$$$
41:0:0
     RDKit          3D

  9 10  0  0  0  0  0  0  0  0999 V2000
   12.0550  353.7390   22.9430 C   0  0  0  0  0  3  0  0  0  0  0  0
   10.9110  352.9680   23.2350 C   0  0  0  0  0  3  0  0  0  0  0  0
   10.6920  352.5070   24.5010 N   0  0  0  0  0  0  0  0  0  0  0  0
   11.5910  352.7980   25.4730 C   0  0  0  0  0  0  0  0  0  0  0  0
   11.5440  352.3500   27.0840 S   0  0  0  0  0  0  0  0  0  0  0  0
   13.0050  353.1460   27.4310 C   0  0  0  0  0  3  0  0  0  0  0  0
   13.5150  353.7440   26.3220 N   0  0  0  0  0  0  0  0  0  0  0  0
   12.7220  353.5460   25.2390 C   0  0  0  0  0  0  0  0  0  0  0  0
   12.9790  354.0340   23.9590 C   0  0  0  0  0  3  0  0  0  0  0  0
  1  2  2  0
  1  9  1  0
  2  3  1  0
  3  4  2  0
  4  5  1  0
  5  6  1  0
  7  6  2  0
  8  4  1  0
  8  7  1  0
  9  8  2  0
M  RAD  4   1   2   2   2   6   2   9   2
M  END
>  <MODEL>  (83) 
1

>  <TORSDO>  (83) 
F 0

>  <SCORE>  (83) 
-5.3

>  <ligand_id>  (83) 
41

>  <original_smiles>  (83) 
c1cnc2scnc2c1

>  <smiles>  (83) 
c1cnc2scnc2c1

$$$$
41:0:1
     RDKit          3D

  9 10  0  0  0  0  0  0  0  0999 V2000
    8.9770  324.8550    7.8260 C   0  0  0  0  0  3  0  0  0  0  0  0
    9.6220  324.1170    6.8110 C   0  0  0  0  0  3  0  0  0  0  0  0
   10.7730  323.4350    7.0770 N   0  0  0  0  0  0  0  0  0  0  0  0
   11.2900  323.4760    8.3290 C   0  0  0  0  0  0  0  0  0  0  0  0
   12.6770  322.7310    8.8950 S   0  0  0  0  0  0  0  0  0  0  0  0
   12.4680  323.3510   10.4630 C   0  0  0  0  0  3  0  0  0  0  0  0
   11.3480  324.1170   10.5430 N   0  0  0  0  0  0  0  0  0  0  0  0
   10.6990  324.1820    9.3530 C   0  0  0  0  0  0  0  0  0  0  0  0
    9.5230  324.8900    9.1190 C   0  0  0  0  0  3  0  0  0  0  0  0
  1  9  2  0
  2  3  2  0
  2  1  1  0
  3  4  1  0
  4  5  1  0
  4  8  2  0
  5  6  1  0
  6  7  2  0
  8  7  1  0
  9  8  1  0
M  RAD  4   1   2   2   2   6   2   9   2
M  END
>  <MODEL>  (84) 
2

>  <TORSDO>  (84) 
F 0

>  <SCORE>  (84) 
-4.7

>  <ligand_id>  (84) 
41

>  <original_smiles>  (84) 
c1cnc2scnc2c1

>  <smiles>  (84) 
c1cnc2scnc2c1

$$$$
42:0:0
     RDKit          3D

 10 11  0  0  0  0  0  0  0  0999 V2000
    7.7220  335.9000    7.0690 C   0  0  0  0  0  1  0  0  0  0  0  0
    7.2820  335.1260    8.2630 C   0  0  0  0  0  0  0  0  0  0  0  0
    6.8710  333.7930    8.1880 C   0  0  0  0  0  3  0  0  0  0  0  0
    6.4580  333.2960    9.7580 S   0  0  0  0  0  0  0  0  0  0  0  0
    6.8000  334.7540   10.5070 C   0  0  0  0  0  0  0  0  0  0  0  0
    6.6930  335.1030   11.8470 C   0  0  0  0  0  3  0  0  0  0  0  0
    7.0500  336.4120   12.2050 C   0  0  0  0  0  3  0  0  0  0  0  0
    7.4950  337.3110   11.2160 C   0  0  0  0  0  3  0  0  0  0  0  0
    7.5840  336.9200    9.9110 N   0  0  0  0  0  0  0  0  0  0  0  0
    7.2390  335.6530    9.5580 C   0  0  0  0  0  0  0  0  0  0  0  0
  1  2  1  0
  2 10  1  0
  3  2  2  0
  3  4  1  0
  4  5  1  0
  5  6  2  0
  6  7  1  0
  8  7  2  0
  9  8  1  0
 10  9  2  0
 10  5  1  0
M  RAD  5   1   2   3   2   6   2   7   2   8   2
M  END
>  <MODEL>  (85) 
1

>  <TORSDO>  (85) 
F 0

>  <SCORE>  (85) 
-5.4

>  <ligand_id>  (85) 
42

>  <original_smiles>  (85) 
Cc1csc2cccnc12

>  <smiles>  (85) 
Cc1csc2cccnc12

$$$$
42:0:1
     RDKit          3D

 10 11  0  0  0  0  0  0  0  0999 V2000
    6.5200  333.1900    9.8030 C   0  0  0  0  0  1  0  0  0  0  0  0
    6.7610  333.8110    8.4710 C   0  0  0  0  0  0  0  0  0  0  0  0
    6.5010  333.1440    7.2700 C   0  0  0  0  0  3  0  0  0  0  0  0
    6.9090  334.1970    6.0030 S   0  0  0  0  0  0  0  0  0  0  0  0
    7.4020  335.4690    6.9730 C   0  0  0  0  0  0  0  0  0  0  0  0
    7.8860  336.7190    6.6090 C   0  0  0  0  0  3  0  0  0  0  0  0
    8.2300  337.6050    7.6410 C   0  0  0  0  0  3  0  0  0  0  0  0
    8.0780  337.2080    8.9840 C   0  0  0  0  0  3  0  0  0  0  0  0
    7.5970  335.9670    9.2920 N   0  0  0  0  0  0  0  0  0  0  0  0
    7.2620  335.1040    8.2960 C   0  0  0  0  0  0  0  0  0  0  0  0
  2  1  1  0
  3  2  2  0
  4  5  1  0
  4  3  1  0
  5 10  2  0
  6  5  1  0
  6  7  2  0
  7  8  1  0
  8  9  2  0
 10  2  1  0
 10  9  1  0
M  RAD  5   1   2   3   2   6   2   7   2   8   2
M  END
>  <MODEL>  (86) 
2

>  <TORSDO>  (86) 
F 0

>  <SCORE>  (86) 
-5.4

>  <ligand_id>  (86) 
42

>  <original_smiles>  (86) 
Cc1csc2cccnc12

>  <smiles>  (86) 
Cc1csc2cccnc12

$$$$
43:0:0
     RDKit          3D

  9 10  0  0  0  0  0  0  0  0999 V2000
   13.0660  354.8900   25.5720 C   0  0  0  0  0  3  0  0  0  0  0  0
   13.4810  354.5060   26.8630 C   0  0  0  0  0  3  0  0  0  0  0  0
   12.9730  353.3830   27.4510 N   0  0  0  0  0  0  0  0  0  0  0  0
   12.0620  352.6490   26.7680 C   0  0  0  0  0  0  0  0  0  0  0  0
   11.4320  351.4950   27.1750 C   0  0  0  0  0  3  0  0  0  0  0  0
   10.6180  351.1980   26.0730 C   0  0  0  0  0  3  0  0  0  0  0  0
   10.7760  352.1300   25.0990 N   0  0  0  0  0  0  0  0  0  0  0  0
   11.6580  352.9990   25.5470 N   0  0  0  0  0  0  0  0  0  0  0  0
   12.1210  354.0980   24.9060 C   0  0  0  0  0  3  0  0  0  0  0  0
  1  2  1  0
  2  3  2  0
  4  5  2  0
  4  3  1  0
  6  5  1  0
  7  8  1  0
  7  6  2  0
  8  4  1  0
  9  8  1  0
  9  1  2  0
M  RAD  5   1   2   2   2   5   2   6   2   9   2
M  END
>  <MODEL>  (87) 
1

>  <TORSDO>  (87) 
F 0

>  <SCORE>  (87) 
-5.1

>  <ligand_id>  (87) 
43

>  <original_smiles>  (87) 
c1cnc2ccnn2c1

>  <smiles>  (87) 
c1cnc2ccnn2c1

$$$$
43:0:1
     RDKit          3D

  9 10  0  0  0  0  0  0  0  0999 V2000
    9.0280  324.8380    8.0140 C   0  0  0  0  0  3  0  0  0  0  0  0
    9.6320  324.1340    6.9530 C   0  0  0  0  0  3  0  0  0  0  0  0
   10.8080  323.4660    7.1430 N   0  0  0  0  0  0  0  0  0  0  0  0
   11.3790  323.4940    8.3710 C   0  0  0  0  0  0  0  0  0  0  0  0
   12.5510  322.8940    8.7710 C   0  0  0  0  0  3  0  0  0  0  0  0
   12.6270  323.2650   10.1200 C   0  0  0  0  0  3  0  0  0  0  0  0
   11.5620  324.0320   10.4660 N   0  0  0  0  0  0  0  0  0  0  0  0
   10.8200  324.1550    9.3850 N   0  0  0  0  0  0  0  0  0  0  0  0
    9.6570  324.8380    9.2660 C   0  0  0  0  0  3  0  0  0  0  0  0
  1  9  2  0
  2  3  2  0
  2  1  1  0
  3  4  1  0
  4  5  2  0
  4  8  1  0
  5  6  1  0
  6  7  2  0
  8  7  1  0
  9  8  1  0
M  RAD  5   1   2   2   2   5   2   6   2   9   2
M  END
>  <MODEL>  (88) 
2

>  <TORSDO>  (88) 
F 0

>  <SCORE>  (88) 
-4.7

>  <ligand_id>  (88) 
43

>  <original_smiles>  (88) 
c1cnc2ccnn2c1

>  <smiles>  (88) 
c1cnc2ccnn2c1

$$$$
44:0:0
     RDKit          3D

 11 12  0  0  0  0  0  0  0  0999 V2000
    8.9840  324.9550    7.4340 C   0  0  0  0  0  0  0  0  0  0  0  0
    9.6810  324.1970    6.4720 C   0  0  0  0  0  3  0  0  0  0  0  0
   10.7970  323.4230    6.8340 C   0  0  0  0  0  3  0  0  0  0  0  0
   11.2040  323.4200    8.1670 C   0  0  0  0  0  0  0  0  0  0  0  0
   12.2880  322.7070    8.6880 C   0  0  0  0  0  3  0  0  0  0  0  0
   12.4520  322.9010   10.0640 C   0  0  0  0  0  3  0  0  0  0  0  0
   11.2390  323.9570   10.6000 S   0  0  0  0  0  0  0  0  0  0  0  0
   10.5170  324.1650    9.1070 C   0  0  0  0  0  0  0  0  0  0  0  0
    9.4100  324.9410    8.7780 C   0  0  0  0  0  3  0  0  0  0  0  0
    7.7670  326.2590    5.7210 C   0  0  0  0  0  1  0  0  0  0  0  0
    7.8810  325.7090    7.0260 O   0  0  0  0  0  0  0  0  0  0  0  0
  1  9  2  0
  2  3  2  0
  2  1  1  0
  3  4  1  0
  4  5  1  0
  4  8  2  0
  5  6  2  0
  6  7  1  0
  8  7  1  0
  9  8  1  0
 10 11  1  0
 11  1  1  0
M  RAD  6   2   2   3   2   5   2   6   2   9   2  10   2
M  END
>  <MODEL>  (89) 
1

>  <TORSDO>  (89) 
F 1

>  <SCORE>  (89) 
-5.7

>  <ligand_id>  (89) 
44

>  <original_smiles>  (89) 
COc1ccc2ccsc2c1

>  <smiles>  (89) 
COc1ccc2ccsc2c1

$$$$
44:0:1
     RDKit          3D

 11 12  0  0  0  0  0  0  0  0999 V2000
    7.8770  337.6230   10.9530 C   0  0  0  0  0  0  0  0  0  0  0  0
    7.2850  336.8990   12.0080 C   0  0  0  0  0  3  0  0  0  0  0  0
    6.7590  335.6130   11.7940 C   0  0  0  0  0  3  0  0  0  0  0  0
    6.8340  335.0650   10.5140 C   0  0  0  0  0  0  0  0  0  0  0  0
    6.3600  333.8050   10.1380 C   0  0  0  0  0  3  0  0  0  0  0  0
    6.5760  333.5290    8.7830 C   0  0  0  0  0  3  0  0  0  0  0  0
    7.3540  334.8640    8.0860 S   0  0  0  0  0  0  0  0  0  0  0  0
    7.4150  335.7790    9.4830 C   0  0  0  0  0  0  0  0  0  0  0  0
    7.9440  337.0530    9.6650 C   0  0  0  0  0  3  0  0  0  0  0  0
    9.7780  339.1780   11.2410 C   0  0  0  0  0  1  0  0  0  0  0  0
    8.3860  338.8980   11.2150 O   0  0  0  0  0  0  0  0  0  0  0  0
  1 11  1  0
  1  2  2  0
  3  2  1  0
  4  3  2  0
  5  4  1  0
  6  5  2  0
  7  6  1  0
  7  8  1  0
  8  9  2  0
  8  4  1  0
  9  1  1  0
 11 10  1  0
M  RAD  6   2   2   3   2   5   2   6   2   9   2  10   2
M  END
>  <MODEL>  (90) 
2

>  <TORSDO>  (90) 
F 1

>  <SCORE>  (90) 
-5.6

>  <ligand_id>  (90) 
44

>  <original_smiles>  (90) 
COc1ccc2ccsc2c1

>  <smiles>  (90) 
COc1ccc2ccsc2c1

$$$$
45:0:0
     RDKit          3D

  7  7  0  0  0  0  0  0  0  0999 V2000
   20.2750  333.2780   20.9200 C   0  0  0  0  0  1  0  0  0  0  0  0
   20.0460  333.2010   19.4530 C   0  0  0  0  0  0  0  0  0  0  0  0
   20.0170  334.3710   18.6880 C   0  0  0  0  0  3  0  0  0  0  0  0
   19.8010  334.2990   17.3080 C   0  0  0  0  0  3  0  0  0  0  0  0
   19.6140  333.0570   16.6940 C   0  0  0  0  0  3  0  0  0  0  0  0
   19.6430  331.8870   17.4590 C   0  0  0  0  0  3  0  0  0  0  0  0
   19.8590  331.9590   18.8390 C   0  0  0  0  0  3  0  0  0  0  0  0
  2  1  1  0
  3  2  2  0
  4  3  1  0
  5  4  2  0
  5  6  1  0
  6  7  2  0
  7  2  1  0
M  RAD  6   1   2   3   2   4   2   5   2   6   2   7   2
M  END
>  <MODEL>  (91) 
1

>  <TORSDO>  (91) 
F 0

>  <SCORE>  (91) 
-5.1

>  <ligand_id>  (91) 
45

>  <original_smiles>  (91) 
Cc1ccccc1

>  <smiles>  (91) 
Cc1ccccc1

$$$$
45:0:1
     RDKit          3D

  7  7  0  0  0  0  0  0  0  0999 V2000
   19.9150  331.6750   16.8870 C   0  0  0  0  0  1  0  0  0  0  0  0
   19.8930  332.6110   18.0410 C   0  0  0  0  0  0  0  0  0  0  0  0
   19.7590  332.1150   19.3420 C   0  0  0  0  0  3  0  0  0  0  0  0
   19.7380  332.9950   20.4280 C   0  0  0  0  0  3  0  0  0  0  0  0
   19.8500  334.3730   20.2130 C   0  0  0  0  0  3  0  0  0  0  0  0
   19.9830  334.8690   18.9120 C   0  0  0  0  0  3  0  0  0  0  0  0
   20.0040  333.9890   17.8260 C   0  0  0  0  0  3  0  0  0  0  0  0
  1  2  1  0
  2  3  2  0
  3  4  1  0
  5  4  2  0
  6  5  1  0
  7  2  1  0
  7  6  2  0
M  RAD  6   1   2   3   2   4   2   5   2   6   2   7   2
M  END
>  <MODEL>  (92) 
2

>  <TORSDO>  (92) 
F 0

>  <SCORE>  (92) 
-5.1

>  <ligand_id>  (92) 
45

>  <original_smiles>  (92) 
Cc1ccccc1

>  <smiles>  (92) 
Cc1ccccc1

$$$$
46:0:0
     RDKit          3D

  9 10  0  0  0  0  0  0  0  0999 V2000
   11.3200  351.6020   27.0760 C   0  0  0  0  0  3  0  0  0  0  0  0
   10.5750  351.5240   25.8830 C   0  0  0  0  0  3  0  0  0  0  0  0
   10.8690  352.3580   24.8460 N   0  0  0  0  0  0  0  0  0  0  0  0
   11.8610  353.2340   24.9850 N   0  0  0  0  0  0  0  0  0  0  0  0
   12.3050  354.1330   24.0990 C   0  0  0  0  0  3  0  0  0  0  0  0
   13.3540  354.7990   24.7340 C   0  0  0  0  0  3  0  0  0  0  0  0
   13.5370  354.3070   25.9870 N   0  0  0  0  0  0  0  0  0  0  0  0
   12.5980  353.3530   26.0910 C   0  0  0  0  0  0  0  0  0  0  0  0
   12.3600  352.5370   27.1910 C   0  0  0  0  0  3  0  0  0  0  0  0
  1  9  2  0
  2  1  1  0
  3  4  1  0
  3  2  2  0
  4  8  1  0
  5  6  2  0
  5  4  1  0
  6  7  1  0
  7  8  2  0
  8  9  1  0
M  RAD  5   1   2   2   2   5   2   6   2   9   2
M  END
>  <MODEL>  (93) 
1

>  <TORSDO>  (93) 
F 0

>  <SCORE>  (93) 
-5.1

>  <ligand_id>  (93) 
46

>  <original_smiles>  (93) 
c1cnn2ccnc2c1

>  <smiles>  (93) 
c1cnn2ccnc2c1

$$$$
46:0:1
     RDKit          3D

  9 10  0  0  0  0  0  0  0  0999 V2000
   -7.7350  353.5330   19.0000 C   0  0  0  0  0  3  0  0  0  0  0  0
   -7.2910  354.7120   19.6310 C   0  0  0  0  0  3  0  0  0  0  0  0
   -6.6420  354.6340   20.8270 N   0  0  0  0  0  0  0  0  0  0  0  0
   -6.4410  353.4380   21.3750 N   0  0  0  0  0  0  0  0  0  0  0  0
   -5.8330  353.1460   22.5310 C   0  0  0  0  0  3  0  0  0  0  0  0
   -5.8870  351.7570   22.6430 C   0  0  0  0  0  3  0  0  0  0  0  0
   -6.5210  351.2200   21.5670 N   0  0  0  0  0  0  0  0  0  0  0  0
   -6.8400  352.2910   20.8240 C   0  0  0  0  0  0  0  0  0  0  0  0
   -7.5080  352.2870   19.6040 C   0  0  0  0  0  3  0  0  0  0  0  0
  1  9  2  0
  1  2  1  0
  2  3  2  0
  3  4  1  0
  4  5  1  0
  5  6  2  0
  7  6  1  0
  8  4  1  0
  8  7  2  0
  9  8  1  0
M  RAD  5   1   2   2   2   5   2   6   2   9   2
M  END
>  <MODEL>  (94) 
2

>  <TORSDO>  (94) 
F 0

>  <SCORE>  (94) 
-4.9

>  <ligand_id>  (94) 
46

>  <original_smiles>  (94) 
c1cnn2ccnc2c1

>  <smiles>  (94) 
c1cnn2ccnc2c1

$$$$
47:0:0
     RDKit          3D

 10 11  0  0  0  0  0  0  0  0999 V2000
    6.5160  334.7490   12.0950 C   0  0  0  0  0  3  0  0  0  0  0  0
    6.9340  336.0850   12.0880 C   0  0  0  0  0  3  0  0  0  0  0  0
    7.3370  336.6900   10.8920 C   0  0  0  0  0  3  0  0  0  0  0  0
    7.3210  335.9580    9.7010 C   0  0  0  0  0  0  0  0  0  0  0  0
    7.7110  336.5370    8.5340 N   0  0  0  0  0  0  0  0  0  0  0  0
    7.7050  335.8480    7.3610 C   0  0  0  0  0  3  0  0  0  0  0  0
    7.2940  334.5120    7.3310 C   0  0  0  0  0  3  0  0  0  0  0  0
    6.8890  333.8910    8.5150 C   0  0  0  0  0  3  0  0  0  0  0  0
    6.8990  334.6100    9.7100 C   0  0  0  0  0  0  0  0  0  0  0  0
    6.4980  334.0110   10.9070 C   0  0  0  0  0  3  0  0  0  0  0  0
  2  1  2  0
  3  2  1  0
  4  9  1  0
  4  3  2  0
  5  4  1  0
  6  5  2  0
  7  6  1  0
  7  8  2  0
  8  9  1  0
  9 10  2  0
 10  1  1  0
M  RAD  7   1   2   2   2   3   2   6   2   7   2   8   2  10   2
M  END
>  <MODEL>  (95) 
1

>  <TORSDO>  (95) 
F 0

>  <SCORE>  (95) 
-6.3

>  <ligand_id>  (95) 
47

>  <original_smiles>  (95) 
c1ccc2ncccc2c1

>  <smiles>  (95) 
c1ccc2ncccc2c1

$$$$
47:0:1
     RDKit          3D

 10 11  0  0  0  0  0  0  0  0999 V2000
    7.1500  334.0290    7.4090 C   0  0  0  0  0  3  0  0  0  0  0  0
    7.6070  335.3350    7.1960 C   0  0  0  0  0  3  0  0  0  0  0  0
    7.6950  336.2330    8.2660 C   0  0  0  0  0  3  0  0  0  0  0  0
    7.3250  335.8250    9.5510 C   0  0  0  0  0  0  0  0  0  0  0  0
    7.4070  336.6910   10.5960 N   0  0  0  0  0  0  0  0  0  0  0  0
    7.0550  336.3200   11.8560 C   0  0  0  0  0  3  0  0  0  0  0  0
    6.5930  335.0240   12.1060 C   0  0  0  0  0  3  0  0  0  0  0  0
    6.4990  334.1140   11.0510 C   0  0  0  0  0  3  0  0  0  0  0  0
    6.8640  334.5070    9.7640 C   0  0  0  0  0  0  0  0  0  0  0  0
    6.7780  333.6150    8.6920 C   0  0  0  0  0  3  0  0  0  0  0  0
  1 10  2  0
  2  1  1  0
  2  3  2  0
  3  4  1  0
  4  9  2  0
  4  5  1  0
  5  6  2  0
  6  7  1  0
  8  7  2  0
  9  8  1  0
 10  9  1  0
M  RAD  7   1   2   2   2   3   2   6   2   7   2   8   2  10   2
M  END
>  <MODEL>  (96) 
2

>  <TORSDO>  (96) 
F 0

>  <SCORE>  (96) 
-6.2

>  <ligand_id>  (96) 
47

>  <original_smiles>  (96) 
c1ccc2ncccc2c1

>  <smiles>  (96) 
c1ccc2ncccc2c1

$$$$
48:0:0
     RDKit          3D

 15 17  0  0  0  0  0  0  0  0999 V2000
    7.2970  336.6900   11.2370 C   0  0  0  0  0  0  0  0  0  0  0  0
    6.8400  336.1610   12.3970 N   0  0  0  0  0  0  0  0  0  0  0  0
    6.4330  334.9200   12.1410 N   0  0  0  0  0  0  0  0  0  0  0  0
    6.6510  334.7180   10.8300 C   0  0  0  0  0  0  0  0  0  0  0  0
    6.3790  333.5580   10.1110 C   0  0  0  0  0  3  0  0  0  0  0  0
    6.6880  333.5660    8.7400 C   0  0  0  0  0  3  0  0  0  0  0  0
    7.2500  334.7100    8.1380 C   0  0  0  0  0  3  0  0  0  0  0  0
    7.5000  335.8490    8.9190 C   0  0  0  0  0  3  0  0  0  0  0  0
    7.1850  335.7950   10.2380 N   0  0  0  0  0  0  0  0  0  0  0  0
    8.8340  340.6420   10.8760 C   0  0  0  0  0  3  0  0  0  0  0  0
    9.7180  339.5660   10.9770 C   0  0  0  0  0  3  0  0  0  0  0  0
    9.2190  338.2680   11.0960 C   0  0  0  0  0  3  0  0  0  0  0  0
    7.8340  338.0580   11.1130 C   0  0  0  0  0  0  0  0  0  0  0  0
    6.9940  339.1260   11.0120 N   0  0  0  0  0  0  0  0  0  0  0  0
    7.4610  340.3990   10.8970 C   0  0  0  0  0  3  0  0  0  0  0  0
  1  2  2  0
  3  2  1  0
  4  3  2  0
  5  4  1  0
  6  5  2  0
  7  6  1  0
  7  8  2  0
  8  9  1  0
  9  4  1  0
  9  1  1  0
 10 15  2  0
 10 11  1  0
 11 12  2  0
 12 13  1  0
 13  1  1  0
 14 13  2  0
 15 14  1  0
M  RAD  8   5   2   6   2   7   2   8   2  10   2  11   2  12   2  15   2
M  END
>  <MODEL>  (97) 
1

>  <TORSDO>  (97) 
F 1

>  <SCORE>  (97) 
-7.2

>  <ligand_id>  (97) 
48

>  <original_smiles>  (97) 
c1ccc(-c2nnc3ccccn23)nc1

>  <smiles>  (97) 
c1ccc(-c2nnc3ccccn23)nc1

$$$$
48:0:1
     RDKit          3D

 15 17  0  0  0  0  0  0  0  0999 V2000
   10.2450  324.7760    7.5580 C   0  0  0  0  0  0  0  0  0  0  0  0
    8.9220  324.6750    7.2870 N   0  0  0  0  0  0  0  0  0  0  0  0
    8.6480  325.5170    6.2940 N   0  0  0  0  0  0  0  0  0  0  0  0
    9.8110  326.1140    5.9790 C   0  0  0  0  0  0  0  0  0  0  0  0
   10.0120  327.0740    4.9920 C   0  0  0  0  0  3  0  0  0  0  0  0
   11.3190  327.5670    4.8340 C   0  0  0  0  0  3  0  0  0  0  0  0
   12.3670  327.0940    5.6490 C   0  0  0  0  0  3  0  0  0  0  0  0
   12.0990  326.1240    6.6270 C   0  0  0  0  0  3  0  0  0  0  0  0
   10.8220  325.6780    6.7430 N   0  0  0  0  0  0  0  0  0  0  0  0
   12.2240  322.5360   10.5880 C   0  0  0  0  0  3  0  0  0  0  0  0
   12.2590  322.0880    9.2670 C   0  0  0  0  0  3  0  0  0  0  0  0
   11.6110  322.8180    8.2690 C   0  0  0  0  0  3  0  0  0  0  0  0
   10.9320  323.9960    8.6050 C   0  0  0  0  0  0  0  0  0  0  0  0
   10.9150  324.4110    9.9020 N   0  0  0  0  0  0  0  0  0  0  0  0
   11.5390  323.7130   10.8890 C   0  0  0  0  0  3  0  0  0  0  0  0
  1 13  1  0
  2  1  2  0
  3  2  1  0
  4  3  2  0
  4  9  1  0
  5  4  1  0
  6  5  2  0
  6  7  1  0
  7  8  2  0
  8  9  1  0
  9  1  1  0
 10 15  2  0
 11 10  1  0
 12 13  1  0
 12 11  2  0
 13 14  2  0
 14 15  1  0
M  RAD  8   5   2   6   2   7   2   8   2  10   2  11   2  12   2  15   2
M  END
>  <MODEL>  (98) 
2

>  <TORSDO>  (98) 
F 1

>  <SCORE>  (98) 
-7.0

>  <ligand_id>  (98) 
48

>  <original_smiles>  (98) 
c1ccc(-c2nnc3ccccn23)nc1

>  <smiles>  (98) 
c1ccc(-c2nnc3ccccn23)nc1

$$$$
49:0:0
     RDKit          3D

 10 11  0  0  0  0  0  0  0  0999 V2000
    6.5160  334.7490   12.0950 C   0  0  0  0  0  3  0  0  0  0  0  0
    6.9340  336.0850   12.0880 C   0  0  0  0  0  3  0  0  0  0  0  0
    7.3370  336.6900   10.8920 C   0  0  0  0  0  3  0  0  0  0  0  0
    7.3210  335.9580    9.7010 C   0  0  0  0  0  0  0  0  0  0  0  0
    7.7110  336.5370    8.5340 N   0  0  0  0  0  0  0  0  0  0  0  0
    7.7050  335.8480    7.3610 C   0  0  0  0  0  3  0  0  0  0  0  0
    7.2940  334.5120    7.3310 C   0  0  0  0  0  3  0  0  0  0  0  0
    6.8890  333.8910    8.5150 C   0  0  0  0  0  3  0  0  0  0  0  0
    6.8990  334.6100    9.7100 C   0  0  0  0  0  0  0  0  0  0  0  0
    6.4980  334.0110   10.9070 C   0  0  0  0  0  3  0  0  0  0  0  0
  2  1  2  0
  3  2  1  0
  4  9  1  0
  4  3  2  0
  5  4  1  0
  6  5  2  0
  7  6  1  0
  7  8  2  0
  8  9  1  0
  9 10  2  0
 10  1  1  0
M  RAD  7   1   2   2   2   3   2   6   2   7   2   8   2  10   2
M  END
>  <MODEL>  (99) 
1

>  <TORSDO>  (99) 
F 0

>  <SCORE>  (99) 
-6.3

>  <ligand_id>  (99) 
49

>  <original_smiles>  (99) 
c1ccc2ncccc2c1

>  <smiles>  (99) 
c1ccc2ncccc2c1

$$$$
49:0:1
     RDKit          3D

 10 11  0  0  0  0  0  0  0  0999 V2000
    7.1500  334.0290    7.4090 C   0  0  0  0  0  3  0  0  0  0  0  0
    7.6070  335.3350    7.1960 C   0  0  0  0  0  3  0  0  0  0  0  0
    7.6950  336.2330    8.2660 C   0  0  0  0  0  3  0  0  0  0  0  0
    7.3250  335.8250    9.5510 C   0  0  0  0  0  0  0  0  0  0  0  0
    7.4070  336.6910   10.5960 N   0  0  0  0  0  0  0  0  0  0  0  0
    7.0550  336.3200   11.8560 C   0  0  0  0  0  3  0  0  0  0  0  0
    6.5930  335.0240   12.1060 C   0  0  0  0  0  3  0  0  0  0  0  0
    6.4990  334.1140   11.0510 C   0  0  0  0  0  3  0  0  0  0  0  0
    6.8640  334.5070    9.7640 C   0  0  0  0  0  0  0  0  0  0  0  0
    6.7780  333.6150    8.6920 C   0  0  0  0  0  3  0  0  0  0  0  0
  1 10  2  0
  2  1  1  0
  2  3  2  0
  3  4  1  0
  4  9  2  0
  4  5  1  0
  5  6  2  0
  6  7  1  0
  8  7  2  0
  9  8  1  0
 10  9  1  0
M  RAD  7   1   2   2   2   3   2   6   2   7   2   8   2  10   2
M  END
>  <MODEL>  (100) 
2

>  <TORSDO>  (100) 
F 0

>  <SCORE>  (100) 
-6.2

>  <ligand_id>  (100) 
49

>  <original_smiles>  (100) 
c1ccc2ncccc2c1

>  <smiles>  (100) 
c1ccc2ncccc2c1

$$$$
50:0:0
     RDKit          3D

 14 15  0  0  0  0  0  0  0  0999 V2000
    9.9830  324.4420    6.2360 S   0  0  0  0  0  0  0  0  0  0  0  0
    9.1580  326.9980    4.3380 C   0  0  0  0  0  1  0  0  0  0  0  0
   10.5040  326.8040    4.8480 N   0  0  0  0  0  0  0  0  0  0  0  0
   11.5650  327.6050    4.6560 C   0  0  0  0  0  3  0  0  0  0  0  0
   12.6370  327.1090    5.3090 N   0  0  0  0  0  0  0  0  0  0  0  0
   12.2640  325.9930    5.9210 N   0  0  0  0  0  0  0  0  0  0  0  0
   10.9640  325.8160    5.6310 C   0  0  0  0  0  0  0  0  0  0  0  0
   10.0690  324.9950    7.9700 C   0  0  0  0  0  2  0  0  0  0  0  0
   10.8190  324.0140    8.8050 C   0  0  0  0  0  0  0  0  0  0  0  0
   11.5570  322.9930    8.1980 C   0  0  0  0  0  3  0  0  0  0  0  0
   12.2640  322.0950    8.9990 C   0  0  0  0  0  3  0  0  0  0  0  0
   12.2310  322.2270   10.3880 C   0  0  0  0  0  3  0  0  0  0  0  0
   11.4830  323.2600   10.9580 C   0  0  0  0  0  3  0  0  0  0  0  0
   10.8000  324.1250   10.1610 N   0  0  0  0  0  0  0  0  0  0  0  0
  1  8  1  0
  2  3  1  0
  3  7  1  0
  4  3  1  0
  4  5  2  0
  5  6  1  0
  7  6  2  0
  7  1  1  0
  8  9  1  0
  9 14  1  0
 10  9  2  0
 10 11  1  0
 11 12  2  0
 12 13  1  0
 14 13  2  0
M  RAD  7   2   2   4   2   8   3  10   2  11   2  12   2  13   2
M  END
>  <MODEL>  (101) 
1

>  <TORSDO>  (101) 
F 3

>  <SCORE>  (101) 
-6.1

>  <ligand_id>  (101) 
50

>  <original_smiles>  (101) 
Cn1cnnc1SCc1ccccn1

>  <smiles>  (101) 
Cn1cnnc1SCc1ccccn1

$$$$
50:0:1
     RDKit          3D

 14 15  0  0  0  0  0  0  0  0999 V2000
    9.8590  323.4630   12.9640 S   0  0  0  0  0  0  0  0  0  0  0  0
    8.3980  325.3770   15.2040 C   0  0  0  0  0  1  0  0  0  0  0  0
    9.8400  325.2140   15.1340 N   0  0  0  0  0  0  0  0  0  0  0  0
   10.7560  325.7690   15.9440 C   0  0  0  0  0  3  0  0  0  0  0  0
   11.9920  325.3620   15.5840 N   0  0  0  0  0  0  0  0  0  0  0  0
   11.8670  324.5440   14.5470 N   0  0  0  0  0  0  0  0  0  0  0  0
   10.5530  324.4640   14.2800 C   0  0  0  0  0  0  0  0  0  0  0  0
   11.4910  322.9740   12.3190 C   0  0  0  0  0  2  0  0  0  0  0  0
   11.5720  323.2010   10.8480 C   0  0  0  0  0  0  0  0  0  0  0  0
   11.9120  322.1490    9.9910 C   0  0  0  0  0  3  0  0  0  0  0  0
   11.9660  322.3810    8.6160 C   0  0  0  0  0  3  0  0  0  0  0  0
   11.6810  323.6520    8.1130 C   0  0  0  0  0  3  0  0  0  0  0  0
   11.3450  324.6770    9.0000 C   0  0  0  0  0  3  0  0  0  0  0  0
   11.2970  324.4330   10.3370 N   0  0  0  0  0  0  0  0  0  0  0  0
  1  7  1  0
  3  2  1  0
  3  4  1  0
  5  4  2  0
  6  5  1  0
  7  6  2  0
  7  3  1  0
  8  1  1  0
  9  8  1  0
 10  9  2  0
 11 10  1  0
 12 11  2  0
 12 13  1  0
 13 14  2  0
 14  9  1  0
M  RAD  7   2   2   4   2   8   3  10   2  11   2  12   2  13   2
M  END
>  <MODEL>  (102) 
2

>  <TORSDO>  (102) 
F 3

>  <SCORE>  (102) 
-5.8

>  <ligand_id>  (102) 
50

>  <original_smiles>  (102) 
Cn1cnnc1SCc1ccccn1

>  <smiles>  (102) 
Cn1cnnc1SCc1ccccn1

$$$$
51:0:0
     RDKit          3D

  9 10  0  0  0  0  0  0  0  0999 V2000
   12.9250  353.2400   27.6880 C   0  0  0  0  0  3  0  0  0  0  0  0
   13.2270  353.8230   26.4480 C   0  0  0  0  0  3  0  0  0  0  0  0
   12.4040  353.4920   25.3790 C   0  0  0  0  0  0  0  0  0  0  0  0
   12.4800  353.9990   23.7860 S   0  0  0  0  0  0  0  0  0  0  0  0
   11.1260  353.0890   23.3250 C   0  0  0  0  0  3  0  0  0  0  0  0
   10.6210  352.4040   24.3830 N   0  0  0  0  0  0  0  0  0  0  0  0
   11.3350  352.6320   25.5150 C   0  0  0  0  0  0  0  0  0  0  0  0
   11.0570  352.0700   26.7580 C   0  0  0  0  0  3  0  0  0  0  0  0
   11.8610  352.3880   27.8150 N   0  0  0  0  0  0  0  0  0  0  0  0
  1  9  2  0
  2  1  1  0
  3  7  1  0
  3  2  2  0
  4  3  1  0
  5  4  1  0
  5  6  2  0
  6  7  1  0
  7  8  2  0
  8  9  1  0
M  RAD  4   1   2   2   2   5   2   8   2
M  END
>  <MODEL>  (103) 
1

>  <TORSDO>  (103) 
F 0

>  <SCORE>  (103) 
-4.8

>  <ligand_id>  (103) 
51

>  <original_smiles>  (103) 
c1cc2scnc2cn1

>  <smiles>  (103) 
c1cc2scnc2cn1

$$$$
51:0:1
     RDKit          3D

  9 10  0  0  0  0  0  0  0  0999 V2000
    9.5170  324.2070    6.8190 C   0  0  0  0  0  3  0  0  0  0  0  0
   10.7030  323.4820    7.0140 C   0  0  0  0  0  3  0  0  0  0  0  0
   11.2550  323.5080    8.2890 C   0  0  0  0  0  0  0  0  0  0  0  0
   12.6420  322.7650    8.8580 S   0  0  0  0  0  0  0  0  0  0  0  0
   12.4460  323.3760   10.4290 C   0  0  0  0  0  3  0  0  0  0  0  0
   11.3280  324.1410   10.5130 N   0  0  0  0  0  0  0  0  0  0  0  0
   10.6750  324.2090    9.3250 C   0  0  0  0  0  0  0  0  0  0  0  0
    9.4980  324.9190    9.1030 C   0  0  0  0  0  3  0  0  0  0  0  0
    8.9480  324.9010    7.8530 N   0  0  0  0  0  0  0  0  0  0  0  0
  1  2  2  0
  1  9  1  0
  2  3  1  0
  3  4  1  0
  3  7  2  0
  4  5  1  0
  5  6  2  0
  7  6  1  0
  8  7  1  0
  9  8  2  0
M  RAD  4   1   2   2   2   5   2   8   2
M  END
>  <MODEL>  (104) 
2

>  <TORSDO>  (104) 
F 0

>  <SCORE>  (104) 
-4.5

>  <ligand_id>  (104) 
51

>  <original_smiles>  (104) 
c1cc2scnc2cn1

>  <smiles>  (104) 
c1cc2scnc2cn1

$$$$
52:0:0
     RDKit          3D

 10 11  0  0  0  0  0  0  0  0999 V2000
   12.6300  322.3720    8.9930 Br  0  0  0  0  0  0  0  0  0  0  0  0
   11.1370  323.5620    9.0250 C   0  0  0  0  0  0  0  0  0  0  0  0
   10.6010  324.1820   10.1470 C   0  0  0  0  0  3  0  0  0  0  0  0
    9.5480  324.9510    9.7650 N   0  0  0  0  0  0  0  0  0  0  0  0
    9.4840  324.7700    8.4330 C   0  0  0  0  0  0  0  0  0  0  0  0
    8.5760  325.3470    7.6080 N   0  0  0  0  0  0  0  0  0  0  0  0
    8.6320  325.0700    6.2720 C   0  0  0  0  0  3  0  0  0  0  0  0
    9.6160  324.2010    5.7600 C   0  0  0  0  0  3  0  0  0  0  0  0
   10.5350  323.6250    6.6480 C   0  0  0  0  0  3  0  0  0  0  0  0
   10.4220  323.9440    7.9590 N   0  0  0  0  0  0  0  0  0  0  0  0
  1  2  1  0
  2  3  2  0
  4  3  1  0
  5  4  2  0
  6  5  1  0
  7  6  2  0
  8  7  1  0
  8  9  2  0
  9 10  1  0
 10  5  1  0
 10  2  1  0
M  RAD  4   3   2   7   2   8   2   9   2
M  END
>  <MODEL>  (105) 
1

>  <TORSDO>  (105) 
F 0

>  <SCORE>  (105) 
-5.0

>  <ligand_id>  (105) 
52

>  <original_smiles>  (105) 
Brc1cnc2ncccn12

>  <smiles>  (105) 
Brc1cnc2ncccn12

$$$$
52:0:1
     RDKit          3D

 10 11  0  0  0  0  0  0  0  0999 V2000
    7.9070  337.0570    7.2540 Br  0  0  0  0  0  0  0  0  0  0  0  0
    7.3390  335.5710    8.3100 C   0  0  0  0  0  0  0  0  0  0  0  0
    7.0540  334.2930    7.8470 C   0  0  0  0  0  3  0  0  0  0  0  0
    6.6820  333.5160    8.8990 N   0  0  0  0  0  0  0  0  0  0  0  0
    6.7560  334.3480    9.9550 C   0  0  0  0  0  0  0  0  0  0  0  0
    6.4730  334.0100   11.2370 N   0  0  0  0  0  0  0  0  0  0  0  0
    6.5910  334.9620   12.2080 C   0  0  0  0  0  3  0  0  0  0  0  0
    7.0010  336.2710   11.8850 C   0  0  0  0  0  3  0  0  0  0  0  0
    7.2840  336.5770   10.5470 C   0  0  0  0  0  3  0  0  0  0  0  0
    7.1460  335.5850    9.6350 N   0  0  0  0  0  0  0  0  0  0  0  0
  1  2  1  0
  2 10  1  0
  3  2  2  0
  3  4  1  0
  4  5  2  0
  5  6  1  0
  6  7  2  0
  8  7  1  0
  9  8  2  0
 10  5  1  0
 10  9  1  0
M  RAD  4   3   2   7   2   8   2   9   2
M  END
>  <MODEL>  (106) 
2

>  <TORSDO>  (106) 
F 0

>  <SCORE>  (106) 
-4.9

>  <ligand_id>  (106) 
52

>  <original_smiles>  (106) 
Brc1cnc2ncccn12

>  <smiles>  (106) 
Brc1cnc2ncccn12

$$$$
53:0:0
     RDKit          3D

 10 11  0  0  0  0  0  0  0  0999 V2000
    7.6260  335.5300    7.2540 C   0  0  0  0  0  3  0  0  0  0  0  0
    7.1700  334.2180    7.4180 C   0  0  0  0  0  3  0  0  0  0  0  0
    6.8040  333.7670    8.6480 N   0  0  0  0  0  0  0  0  0  0  0  0
    6.8720  334.5690    9.7450 C   0  0  0  0  0  0  0  0  0  0  0  0
    6.4940  334.0920   11.0000 C   0  0  0  0  0  3  0  0  0  0  0  0
    6.5730  334.9360   12.1110 C   0  0  0  0  0  3  0  0  0  0  0  0
    7.0300  336.2480   11.9480 C   0  0  0  0  0  3  0  0  0  0  0  0
    7.3940  336.6990   10.7170 N   0  0  0  0  0  0  0  0  0  0  0  0
    7.3270  335.8970    9.6200 C   0  0  0  0  0  0  0  0  0  0  0  0
    7.7050  336.3730    8.3650 C   0  0  0  0  0  3  0  0  0  0  0  0
  1  2  2  0
  1 10  1  0
  2  3  1  0
  3  4  2  0
  4  5  1  0
  5  6  2  0
  7  6  1  0
  8  7  2  0
  9  4  1  0
  9  8  1  0
 10  9  2  0
M  RAD  6   1   2   2   2   5   2   6   2   7   2  10   2
M  END
>  <MODEL>  (107) 
1

>  <TORSDO>  (107) 
F 0

>  <SCORE>  (107) 
-5.3

>  <ligand_id>  (107) 
53

>  <original_smiles>  (107) 
c1cnc2cccnc2c1

>  <smiles>  (107) 
c1cnc2cccnc2c1

$$$$
53:0:1
     RDKit          3D

 10 11  0  0  0  0  0  0  0  0999 V2000
    7.1810  334.2590    7.3800 C   0  0  0  0  0  3  0  0  0  0  0  0
    7.6410  335.5780    7.3070 C   0  0  0  0  0  3  0  0  0  0  0  0
    7.6970  336.3490    8.4270 N   0  0  0  0  0  0  0  0  0  0  0  0
    7.3110  335.8650    9.6380 C   0  0  0  0  0  0  0  0  0  0  0  0
    7.3740  336.6670   10.7780 C   0  0  0  0  0  3  0  0  0  0  0  0
    6.9710  336.1470   12.0110 C   0  0  0  0  0  3  0  0  0  0  0  0
    6.5110  334.8270   12.0840 C   0  0  0  0  0  3  0  0  0  0  0  0
    6.4560  334.0570   10.9640 N   0  0  0  0  0  0  0  0  0  0  0  0
    6.8420  334.5410    9.7530 C   0  0  0  0  0  0  0  0  0  0  0  0
    6.7790  333.7390    8.6120 C   0  0  0  0  0  3  0  0  0  0  0  0
  1 10  2  0
  2  1  1  0
  2  3  2  0
  3  4  1  0
  4  9  2  0
  4  5  1  0
  5  6  2  0
  6  7  1  0
  8  7  2  0
  9  8  1  0
 10  9  1  0
M  RAD  6   1   2   2   2   5   2   6   2   7   2  10   2
M  END
>  <MODEL>  (108) 
2

>  <TORSDO>  (108) 
F 0

>  <SCORE>  (108) 
-5.3

>  <ligand_id>  (108) 
53

>  <original_smiles>  (108) 
c1cnc2cccnc2c1

>  <smiles>  (108) 
c1cnc2cccnc2c1

$$$$
54:0:0
     RDKit          3D

  9 10  0  0  0  0  0  0  0  0999 V2000
    7.0720  336.4350   12.2470 C   0  0  0  0  0  3  0  0  0  0  0  0
    7.5750  337.3040   11.2590 C   0  0  0  0  0  3  0  0  0  0  0  0
    7.6570  336.8980    9.9590 N   0  0  0  0  0  0  0  0  0  0  0  0
    7.2490  335.6490    9.6280 C   0  0  0  0  0  0  0  0  0  0  0  0
    7.2550  334.9410    8.1160 S   0  0  0  0  0  0  0  0  0  0  0  0
    6.6070  333.4590    8.6340 C   0  0  0  0  0  3  0  0  0  0  0  0
    6.3840  333.5270   10.0150 C   0  0  0  0  0  3  0  0  0  0  0  0
    6.7490  334.7610   10.5560 C   0  0  0  0  0  0  0  0  0  0  0  0
    6.6510  335.1430   11.8930 C   0  0  0  0  0  3  0  0  0  0  0  0
  2  1  2  0
  3  2  1  0
  4  3  2  0
  4  8  1  0
  5  6  1  0
  5  4  1  0
  6  7  2  0
  7  8  1  0
  8  9  2  0
  9  1  1  0
M  RAD  5   1   2   2   2   6   2   7   2   9   2
M  END
>  <MODEL>  (109) 
1

>  <TORSDO>  (109) 
F 0

>  <SCORE>  (109) 
-5.0

>  <ligand_id>  (109) 
54

>  <original_smiles>  (109) 
c1cnc2sccc2c1

>  <smiles>  (109) 
c1cnc2sccc2c1

$$$$
54:0:1
     RDKit          3D

  9 10  0  0  0  0  0  0  0  0999 V2000
   11.6260  353.4730   23.1830 C   0  0  0  0  0  3  0  0  0  0  0  0
   12.7750  354.1520   23.6330 C   0  0  0  0  0  3  0  0  0  0  0  0
   13.1850  354.0330   24.9290 N   0  0  0  0  0  0  0  0  0  0  0  0
   12.4730  353.2540   25.7800 C   0  0  0  0  0  0  0  0  0  0  0  0
   12.7820  352.9610   27.3950 S   0  0  0  0  0  0  0  0  0  0  0  0
   11.4490  351.9350   27.6250 C   0  0  0  0  0  3  0  0  0  0  0  0
   10.7540  351.8240   26.4130 C   0  0  0  0  0  3  0  0  0  0  0  0
   11.3420  352.5690   25.3900 C   0  0  0  0  0  0  0  0  0  0  0  0
   10.8960  352.6690   24.0730 C   0  0  0  0  0  3  0  0  0  0  0  0
  1  2  2  0
  1  9  1  0
  2  3  1  0
  3  4  2  0
  4  5  1  0
  5  6  1  0
  7  6  2  0
  8  4  1  0
  8  7  1  0
  9  8  2  0
M  RAD  5   1   2   2   2   6   2   7   2   9   2
M  END
>  <MODEL>  (110) 
2

>  <TORSDO>  (110) 
F 0

>  <SCORE>  (110) 
-4.9

>  <ligand_id>  (110) 
54

>  <original_smiles>  (110) 
c1cnc2sccc2c1

>  <smiles>  (110) 
c1cnc2sccc2c1

$$$$
55:0:0
     RDKit          3D

  9 10  0  0  0  0  0  0  0  0999 V2000
    8.9250  324.9050    7.6050 C   0  0  0  0  0  3  0  0  0  0  0  0
    9.6180  324.1810    6.6150 C   0  0  0  0  0  3  0  0  0  0  0  0
   10.7400  323.4690    6.9320 N   0  0  0  0  0  0  0  0  0  0  0  0
   11.1950  323.4560    8.2120 C   0  0  0  0  0  0  0  0  0  0  0  0
   12.3270  322.7660    8.6510 C   0  0  0  0  0  3  0  0  0  0  0  0
   12.5570  322.9350   10.0220 C   0  0  0  0  0  3  0  0  0  0  0  0
   11.3410  323.9390   10.6490 S   0  0  0  0  0  0  0  0  0  0  0  0
   10.5370  324.1560    9.1990 C   0  0  0  0  0  0  0  0  0  0  0  0
    9.3910  324.8960    8.9290 C   0  0  0  0  0  3  0  0  0  0  0  0
  1  9  2  0
  2  3  2  0
  2  1  1  0
  3  4  1  0
  4  5  1  0
  4  8  2  0
  5  6  2  0
  6  7  1  0
  8  7  1  0
  9  8  1  0
M  RAD  5   1   2   2   2   5   2   6   2   9   2
M  END
>  <MODEL>  (111) 
1

>  <TORSDO>  (111) 
F 0

>  <SCORE>  (111) 
-4.8

>  <ligand_id>  (111) 
55

>  <original_smiles>  (111) 
c1cnc2ccsc2c1

>  <smiles>  (111) 
c1cnc2ccsc2c1

$$$$
55:0:1
     RDKit          3D

  9 10  0  0  0  0  0  0  0  0999 V2000
   12.2010  322.1550    8.8750 C   0  0  0  0  0  3  0  0  0  0  0  0
   11.5480  323.1400    8.1070 C   0  0  0  0  0  3  0  0  0  0  0  0
   10.8170  324.1220    8.7130 N   0  0  0  0  0  0  0  0  0  0  0  0
   10.7140  324.1530   10.0670 C   0  0  0  0  0  0  0  0  0  0  0  0
    9.9960  325.1050   10.7930 C   0  0  0  0  0  3  0  0  0  0  0  0
   10.0670  324.8880   12.1740 C   0  0  0  0  0  3  0  0  0  0  0  0
   11.0230  323.5140   12.4520 S   0  0  0  0  0  0  0  0  0  0  0  0
   11.3420  323.2010   10.8410 C   0  0  0  0  0  0  0  0  0  0  0  0
   12.0980  322.1810   10.2740 C   0  0  0  0  0  3  0  0  0  0  0  0
  1  9  2  0
  2  3  2  0
  2  1  1  0
  3  4  1  0
  4  5  1  0
  4  8  2  0
  5  6  2  0
  6  7  1  0
  8  7  1  0
  9  8  1  0
M  RAD  5   1   2   2   2   5   2   6   2   9   2
M  END
>  <MODEL>  (112) 
2

>  <TORSDO>  (112) 
F 0

>  <SCORE>  (112) 
-4.8

>  <ligand_id>  (112) 
55

>  <original_smiles>  (112) 
c1cnc2ccsc2c1

>  <smiles>  (112) 
c1cnc2ccsc2c1

$$$$
56:0:0
     RDKit          3D

  9 10  0  0  0  0  0  0  0  0999 V2000
   13.0660  354.8900   25.5720 C   0  0  0  0  0  3  0  0  0  0  0  0
   13.4810  354.5060   26.8630 C   0  0  0  0  0  3  0  0  0  0  0  0
   12.9730  353.3830   27.4510 N   0  0  0  0  0  0  0  0  0  0  0  0
   12.0620  352.6490   26.7680 C   0  0  0  0  0  0  0  0  0  0  0  0
   11.4320  351.4950   27.1750 C   0  0  0  0  0  3  0  0  0  0  0  0
   10.6180  351.1980   26.0730 C   0  0  0  0  0  3  0  0  0  0  0  0
   10.7760  352.1300   25.0990 N   0  0  0  0  0  0  0  0  0  0  0  0
   11.6580  352.9990   25.5470 N   0  0  0  0  0  0  0  0  0  0  0  0
   12.1210  354.0980   24.9060 C   0  0  0  0  0  3  0  0  0  0  0  0
  1  2  1  0
  2  3  2  0
  4  5  2  0
  4  3  1  0
  6  5  1  0
  7  8  1  0
  7  6  2  0
  8  4  1  0
  9  8  1  0
  9  1  2  0
M  RAD  5   1   2   2   2   5   2   6   2   9   2
M  END
>  <MODEL>  (113) 
1

>  <TORSDO>  (113) 
F 0

>  <SCORE>  (113) 
-5.1

>  <ligand_id>  (113) 
56

>  <original_smiles>  (113) 
c1cnc2ccnn2c1

>  <smiles>  (113) 
c1cnc2ccnn2c1

$$$$
56:0:1
     RDKit          3D

  9 10  0  0  0  0  0  0  0  0999 V2000
    9.0280  324.8380    8.0140 C   0  0  0  0  0  3  0  0  0  0  0  0
    9.6320  324.1340    6.9530 C   0  0  0  0  0  3  0  0  0  0  0  0
   10.8080  323.4660    7.1430 N   0  0  0  0  0  0  0  0  0  0  0  0
   11.3790  323.4940    8.3710 C   0  0  0  0  0  0  0  0  0  0  0  0
   12.5510  322.8940    8.7710 C   0  0  0  0  0  3  0  0  0  0  0  0
   12.6270  323.2650   10.1200 C   0  0  0  0  0  3  0  0  0  0  0  0
   11.5620  324.0320   10.4660 N   0  0  0  0  0  0  0  0  0  0  0  0
   10.8200  324.1550    9.3850 N   0  0  0  0  0  0  0  0  0  0  0  0
    9.6570  324.8380    9.2660 C   0  0  0  0  0  3  0  0  0  0  0  0
  1  9  2  0
  2  3  2  0
  2  1  1  0
  3  4  1  0
  4  5  2  0
  4  8  1  0
  5  6  1  0
  6  7  2  0
  8  7  1  0
  9  8  1  0
M  RAD  5   1   2   2   2   5   2   6   2   9   2
M  END
>  <MODEL>  (114) 
2

>  <TORSDO>  (114) 
F 0

>  <SCORE>  (114) 
-4.7

>  <ligand_id>  (114) 
56

>  <original_smiles>  (114) 
c1cnc2ccnn2c1

>  <smiles>  (114) 
c1cnc2ccnn2c1

$$$$
57:0:0
     RDKit          3D

 11 12  0  0  0  0  0  0  0  0999 V2000
   11.5220  353.5870   21.1280 C   0  0  0  0  0  1  0  0  0  0  0  0
   11.4940  353.3690   22.5980 C   0  0  0  0  0  0  0  0  0  0  0  0
   12.4080  353.8870   23.4960 C   0  0  0  0  0  3  0  0  0  0  0  0
   11.9300  353.3920   24.6970 C   0  0  0  0  0  0  0  0  0  0  0  0
   10.8550  352.6690   24.4890 O   0  0  0  0  0  0  0  0  0  0  0  0
   10.5600  352.6320   23.2250 N   0  0  0  0  0  0  0  0  0  0  0  0
   12.5210  353.6260   26.0180 C   0  0  0  0  0  0  0  0  0  0  0  0
   12.3520  352.8370   27.1370 C   0  0  0  0  0  3  0  0  0  0  0  0
   13.0980  353.4660   28.1170 C   0  0  0  0  0  3  0  0  0  0  0  0
   13.6630  354.5430   27.6160 O   0  0  0  0  0  0  0  0  0  0  0  0
   13.3430  354.6790   26.3530 C   0  0  0  0  0  3  0  0  0  0  0  0
  1  2  1  0
  2  6  2  0
  2  3  1  0
  3  4  2  0
  4  7  1  0
  5  4  1  0
  6  5  1  0
  7 11  2  0
  7  8  1  0
  8  9  2  0
 10  9  1  0
 11 10  1  0
M  RAD  5   1   2   3   2   8   2   9   2  11   2
M  END
>  <MODEL>  (115) 
1

>  <TORSDO>  (115) 
F 1

>  <SCORE>  (115) 
-6.1

>  <ligand_id>  (115) 
57

>  <original_smiles>  (115) 
Cc1cc(-c2ccoc2)on1

>  <smiles>  (115) 
Cc1cc(-c2ccoc2)on1

$$$$
57:0:1
     RDKit          3D

 11 12  0  0  0  0  0  0  0  0999 V2000
    9.8320  339.1680   11.4190 C   0  0  0  0  0  1  0  0  0  0  0  0
    9.0060  338.1770   10.6830 C   0  0  0  0  0  0  0  0  0  0  0  0
    9.1500  337.8580    9.3460 C   0  0  0  0  0  3  0  0  0  0  0  0
    8.1590  336.9070    9.1770 C   0  0  0  0  0  0  0  0  0  0  0  0
    7.5240  336.7140   10.3100 O   0  0  0  0  0  0  0  0  0  0  0  0
    8.0110  337.4690   11.2470 N   0  0  0  0  0  0  0  0  0  0  0  0
    7.8450  336.2060    7.9280 C   0  0  0  0  0  0  0  0  0  0  0  0
    7.8720  336.7490    6.6610 C   0  0  0  0  0  3  0  0  0  0  0  0
    7.5040  335.7050    5.8320 C   0  0  0  0  0  3  0  0  0  0  0  0
    7.2780  334.6290    6.5530 O   0  0  0  0  0  0  0  0  0  0  0  0
    7.4720  334.8850    7.8240 C   0  0  0  0  0  3  0  0  0  0  0  0
  2  6  2  0
  2  1  1  0
  3  2  1  0
  4  3  2  0
  4  5  1  0
  5  6  1  0
  7  4  1  0
  8  7  1  0
  9 10  1  0
  9  8  2  0
 10 11  1  0
 11  7  2  0
M  RAD  5   1   2   3   2   8   2   9   2  11   2
M  END
>  <MODEL>  (116) 
2

>  <TORSDO>  (116) 
F 1

>  <SCORE>  (116) 
-5.5

>  <ligand_id>  (116) 
57

>  <original_smiles>  (116) 
Cc1cc(-c2ccoc2)on1

>  <smiles>  (116) 
Cc1cc(-c2ccoc2)on1

$$$$
58:0:0
     RDKit          3D

  9 10  0  0  0  0  0  0  0  0999 V2000
   12.0110  353.6710   23.0110 C   0  0  0  0  0  3  0  0  0  0  0  0
   10.8780  352.9260   23.4090 C   0  0  0  0  0  3  0  0  0  0  0  0
   10.7330  352.5230   24.7080 N   0  0  0  0  0  0  0  0  0  0  0  0
   11.6950  352.8530   25.6060 C   0  0  0  0  0  0  0  0  0  0  0  0
   11.7610  352.5610   26.9470 C   0  0  0  0  0  3  0  0  0  0  0  0
   12.9690  353.1550   27.3370 C   0  0  0  0  0  3  0  0  0  0  0  0
   13.5570  353.7440   26.3070 O   0  0  0  0  0  0  0  0  0  0  0  0
   12.7970  353.5660   25.2600 C   0  0  0  0  0  0  0  0  0  0  0  0
   13.0000  354.0030   23.9550 C   0  0  0  0  0  3  0  0  0  0  0  0
  1  2  2  0
  1  9  1  0
  2  3  1  0
  3  4  2  0
  4  5  1  0
  5  6  2  0
  7  6  1  0
  8  4  1  0
  8  7  1  0
  9  8  2  0
M  RAD  5   1   2   2   2   5   2   6   2   9   2
M  END
>  <MODEL>  (117) 
1

>  <TORSDO>  (117) 
F 0

>  <SCORE>  (117) 
-5.4

>  <ligand_id>  (117) 
58

>  <original_smiles>  (117) 
c1cnc2ccoc2c1

>  <smiles>  (117) 
c1cnc2ccoc2c1

$$$$
58:0:1
     RDKit          3D

  9 10  0  0  0  0  0  0  0  0999 V2000
    9.0340  324.8120    7.9370 C   0  0  0  0  0  3  0  0  0  0  0  0
    9.6560  324.0860    6.8960 C   0  0  0  0  0  3  0  0  0  0  0  0
   10.8330  323.4260    7.1170 N   0  0  0  0  0  0  0  0  0  0  0  0
   11.3900  323.4790    8.3520 C   0  0  0  0  0  0  0  0  0  0  0  0
   12.5530  322.9000    8.8010 C   0  0  0  0  0  3  0  0  0  0  0  0
   12.6060  323.3020   10.1410 C   0  0  0  0  0  3  0  0  0  0  0  0
   11.5590  324.0530   10.4480 O   0  0  0  0  0  0  0  0  0  0  0  0
   10.8220  324.1660    9.3760 C   0  0  0  0  0  0  0  0  0  0  0  0
    9.6270  324.8570    9.2120 C   0  0  0  0  0  3  0  0  0  0  0  0
  1  9  2  0
  2  3  2  0
  2  1  1  0
  3  4  1  0
  4  5  1  0
  4  8  2  0
  5  6  2  0
  6  7  1  0
  8  7  1  0
  9  8  1  0
M  RAD  5   1   2   2   2   5   2   6   2   9   2
M  END
>  <MODEL>  (118) 
2

>  <TORSDO>  (118) 
F 0

>  <SCORE>  (118) 
-4.9

>  <ligand_id>  (118) 
58

>  <original_smiles>  (118) 
c1cnc2ccoc2c1

>  <smiles>  (118) 
c1cnc2ccoc2c1

$$$$
59:0:0
     RDKit          3D

 10 11  0  0  0  0  0  0  0  0999 V2000
    8.1630  337.5510    7.9460 C   0  0  0  0  0  1  0  0  0  0  0  0
    7.6830  336.2620    8.4130 N   0  0  0  0  0  0  0  0  0  0  0  0
    7.5010  335.1620    7.6480 C   0  0  0  0  0  3  0  0  0  0  0  0
    7.0290  334.1020    8.4300 C   0  0  0  0  0  3  0  0  0  0  0  0
    6.9390  334.6250    9.7060 C   0  0  0  0  0  0  0  0  0  0  0  0
    6.5260  334.0200   10.8900 C   0  0  0  0  0  3  0  0  0  0  0  0
    6.5340  334.8030   12.0600 C   0  0  0  0  0  3  0  0  0  0  0  0
    6.9490  336.1520   12.0170 C   0  0  0  0  0  3  0  0  0  0  0  0
    7.3610  336.7340   10.8050 C   0  0  0  0  0  3  0  0  0  0  0  0
    7.3400  335.9310    9.6650 C   0  0  0  0  0  0  0  0  0  0  0  0
  1  2  1  0
  2 10  1  0
  3  2  1  0
  3  4  2  0
  4  5  1  0
  5  6  1  0
  6  7  2  0
  8  7  1  0
  9  8  2  0
 10  5  2  0
 10  9  1  0
M  RAD  7   1   2   3   2   4   2   6   2   7   2   8   2   9   2
M  END
>  <MODEL>  (119) 
1

>  <TORSDO>  (119) 
F 0

>  <SCORE>  (119) 
-6.0

>  <ligand_id>  (119) 
59

>  <original_smiles>  (119) 
Cn1ccc2ccccc21

>  <smiles>  (119) 
Cn1ccc2ccccc21

$$$$
59:0:1
     RDKit          3D

 10 11  0  0  0  0  0  0  0  0999 V2000
    7.1350  336.6070   11.9070 C   0  0  0  0  0  1  0  0  0  0  0  0
    7.5050  336.7700   10.5110 N   0  0  0  0  0  0  0  0  0  0  0  0
    8.1170  337.8510    9.9770 C   0  0  0  0  0  3  0  0  0  0  0  0
    8.3200  337.6640    8.6060 C   0  0  0  0  0  3  0  0  0  0  0  0
    7.7980  336.4110    8.3460 C   0  0  0  0  0  0  0  0  0  0  0  0
    7.7270  335.7060    7.1470 C   0  0  0  0  0  3  0  0  0  0  0  0
    7.1330  334.4300    7.1750 C   0  0  0  0  0  3  0  0  0  0  0  0
    6.6320  333.8990    8.3830 C   0  0  0  0  0  3  0  0  0  0  0  0
    6.7190  334.6350    9.5780 C   0  0  0  0  0  3  0  0  0  0  0  0
    7.3130  335.8960    9.5150 C   0  0  0  0  0  0  0  0  0  0  0  0
  2  1  1  0
  3  2  1  0
  4  3  2  0
  5  4  1  0
  5 10  2  0
  6  7  2  0
  6  5  1  0
  7  8  1  0
  8  9  2  0
 10  9  1  0
 10  2  1  0
M  RAD  7   1   2   3   2   4   2   6   2   7   2   8   2   9   2
M  END
>  <MODEL>  (120) 
2

>  <TORSDO>  (120) 
F 0

>  <SCORE>  (120) 
-5.8

>  <ligand_id>  (120) 
59

>  <original_smiles>  (120) 
Cn1ccc2ccccc21

>  <smiles>  (120) 
Cn1ccc2ccccc21

$$$$
60:0:0
     RDKit          3D

  9 10  0  0  0  0  0  0  0  0999 V2000
   -7.2730  354.8350   19.6200 C   0  0  0  0  0  3  0  0  0  0  0  0
   -7.7270  353.6530   19.0010 C   0  0  0  0  0  2  0  0  0  0  0  0
   -7.4980  352.4360   19.5750 N   0  0  0  0  0  0  0  0  0  0  0  0
   -6.8260  352.3880   20.7520 C   0  0  0  0  0  0  0  0  0  0  0  0
   -6.5320  351.2670   21.4300 N   0  0  0  0  0  2  0  0  0  0  0  0
   -5.8670  351.7290   22.5210 C   0  0  0  0  0  3  0  0  0  0  0  0
   -5.7750  353.1200   22.4780 C   0  0  0  0  0  3  0  0  0  0  0  0
   -6.3910  353.4990   21.3490 N   0  0  0  0  0  0  0  0  0  0  0  0
   -6.5840  354.7360   20.8360 C   0  0  0  0  0  3  0  0  0  0  0  0
  1  9  2  0
  2  3  1  0
  2  1  1  0
  3  4  2  0
  4  8  1  0
  4  5  1  0
  5  6  1  0
  7  6  2  0
  8  7  1  0
  9  8  1  0
M  RAD  6   1   2   2   3   5   2   6   2   7   2   9   2
M  END
>  <MODEL>  (121) 
1

>  <TORSDO>  (121) 
F 0

>  <SCORE>  (121) 
-4.7

>  <ligand_id>  (121) 
60

>  <original_smiles>  (121) 
c1cnc2nccn2c1

>  <smiles>  (121) 
c1cnc2nccn2c1

$$$$
60:0:1
     RDKit          3D

  9 10  0  0  0  0  0  0  0  0999 V2000
    8.9840  324.8200    7.9020 C   0  0  0  0  0  3  0  0  0  0  0  0
    9.6210  324.1370    6.8460 C   0  0  0  0  0  2  0  0  0  0  0  0
   10.7990  323.4810    7.0530 N   0  0  0  0  0  0  0  0  0  0  0  0
   11.3450  323.4990    8.2950 C   0  0  0  0  0  0  0  0  0  0  0  0
   12.4940  322.9000    8.6440 N   0  0  0  0  0  2  0  0  0  0  0  0
   12.6120  323.1990    9.9640 C   0  0  0  0  0  3  0  0  0  0  0  0
   11.5300  323.9740   10.3820 C   0  0  0  0  0  3  0  0  0  0  0  0
   10.7530  324.1420    9.3030 N   0  0  0  0  0  0  0  0  0  0  0  0
    9.5840  324.8110    9.1670 C   0  0  0  0  0  3  0  0  0  0  0  0
  1  9  2  0
  2  3  1  0
  2  1  1  0
  3  4  2  0
  4  5  1  0
  4  8  1  0
  5  6  1  0
  6  7  2  0
  8  7  1  0
  9  8  1  0
M  RAD  6   1   2   2   3   5   2   6   2   7   2   9   2
M  END
>  <MODEL>  (122) 
2

>  <TORSDO>  (122) 
F 0

>  <SCORE>  (122) 
-4.5

>  <ligand_id>  (122) 
60

>  <original_smiles>  (122) 
c1cnc2nccn2c1

>  <smiles>  (122) 
c1cnc2nccn2c1

$$$$
61:0:0
     RDKit          3D

  9 10  0  0  0  0  0  0  0  0999 V2000
    8.9250  324.9050    7.6050 C   0  0  0  0  0  3  0  0  0  0  0  0
    9.6180  324.1810    6.6150 C   0  0  0  0  0  3  0  0  0  0  0  0
   10.7400  323.4690    6.9320 N   0  0  0  0  0  0  0  0  0  0  0  0
   11.1950  323.4560    8.2120 C   0  0  0  0  0  0  0  0  0  0  0  0
   12.3270  322.7660    8.6510 C   0  0  0  0  0  3  0  0  0  0  0  0
   12.5570  322.9350   10.0220 C   0  0  0  0  0  3  0  0  0  0  0  0
   11.3410  323.9390   10.6490 S   0  0  0  0  0  0  0  0  0  0  0  0
   10.5370  324.1560    9.1990 C   0  0  0  0  0  0  0  0  0  0  0  0
    9.3910  324.8960    8.9290 C   0  0  0  0  0  3  0  0  0  0  0  0
  1  9  2  0
  2  3  2  0
  2  1  1  0
  3  4  1  0
  4  5  1  0
  4  8  2  0
  5  6  2  0
  6  7  1  0
  8  7  1  0
  9  8  1  0
M  RAD  5   1   2   2   2   5   2   6   2   9   2
M  END
>  <MODEL>  (123) 
1

>  <TORSDO>  (123) 
F 0

>  <SCORE>  (123) 
-4.8

>  <ligand_id>  (123) 
61

>  <original_smiles>  (123) 
c1cnc2ccsc2c1

>  <smiles>  (123) 
c1cnc2ccsc2c1

$$$$
61:0:1
     RDKit          3D

  9 10  0  0  0  0  0  0  0  0999 V2000
   12.2010  322.1550    8.8750 C   0  0  0  0  0  3  0  0  0  0  0  0
   11.5480  323.1400    8.1070 C   0  0  0  0  0  3  0  0  0  0  0  0
   10.8170  324.1220    8.7130 N   0  0  0  0  0  0  0  0  0  0  0  0
   10.7140  324.1530   10.0670 C   0  0  0  0  0  0  0  0  0  0  0  0
    9.9960  325.1050   10.7930 C   0  0  0  0  0  3  0  0  0  0  0  0
   10.0670  324.8880   12.1740 C   0  0  0  0  0  3  0  0  0  0  0  0
   11.0230  323.5140   12.4520 S   0  0  0  0  0  0  0  0  0  0  0  0
   11.3420  323.2010   10.8410 C   0  0  0  0  0  0  0  0  0  0  0  0
   12.0980  322.1810   10.2740 C   0  0  0  0  0  3  0  0  0  0  0  0
  1  9  2  0
  2  3  2  0
  2  1  1  0
  3  4  1  0
  4  5  1  0
  4  8  2  0
  5  6  2  0
  6  7  1  0
  8  7  1  0
  9  8  1  0
M  RAD  5   1   2   2   2   5   2   6   2   9   2
M  END
>  <MODEL>  (124) 
2

>  <TORSDO>  (124) 
F 0

>  <SCORE>  (124) 
-4.8

>  <ligand_id>  (124) 
61

>  <original_smiles>  (124) 
c1cnc2ccsc2c1

>  <smiles>  (124) 
c1cnc2ccsc2c1

$$$$
62:0:0
     RDKit          3D

  9 10  0  0  0  0  0  0  0  0999 V2000
    6.5230  334.7000   12.0720 C   0  0  0  0  0  3  0  0  0  0  0  0
    6.9340  336.0470   12.0570 C   0  0  0  0  0  3  0  0  0  0  0  0
    7.3280  336.6570   10.8560 C   0  0  0  0  0  3  0  0  0  0  0  0
    7.2970  335.8870    9.6960 C   0  0  0  0  0  0  0  0  0  0  0  0
    7.7040  336.3330    8.1380 S   0  0  0  0  0  0  0  0  0  0  0  0
    7.3710  334.8280    7.4320 C   0  0  0  0  0  3  0  0  0  0  0  0
    6.9330  333.9600    8.4370 C   0  0  0  0  0  3  0  0  0  0  0  0
    6.8960  334.5640    9.6960 C   0  0  0  0  0  0  0  0  0  0  0  0
    6.5020  333.9480   10.8850 C   0  0  0  0  0  3  0  0  0  0  0  0
  2  1  2  0
  3  2  1  0
  4  8  1  0
  4  3  2  0
  5  4  1  0
  6  5  1  0
  6  7  2  0
  7  8  1  0
  8  9  2  0
  9  1  1  0
M  RAD  6   1   2   2   2   3   2   6   2   7   2   9   2
M  END
>  <MODEL>  (125) 
1

>  <TORSDO>  (125) 
F 0

>  <SCORE>  (125) 
-5.5

>  <ligand_id>  (125) 
62

>  <original_smiles>  (125) 
c1ccc2sccc2c1

>  <smiles>  (125) 
c1ccc2sccc2c1

$$$$
62:0:1
     RDKit          3D

  9 10  0  0  0  0  0  0  0  0999 V2000
    6.9520  336.0400   12.0230 C   0  0  0  0  0  3  0  0  0  0  0  0
    6.5000  334.7070   11.9650 C   0  0  0  0  0  3  0  0  0  0  0  0
    6.4800  334.0160   10.7430 C   0  0  0  0  0  3  0  0  0  0  0  0
    6.9180  334.6920    9.6070 C   0  0  0  0  0  0  0  0  0  0  0  0
    7.0100  334.1370    8.0330 S   0  0  0  0  0  0  0  0  0  0  0  0
    7.6250  335.5730    7.3760 C   0  0  0  0  0  3  0  0  0  0  0  0
    7.7630  336.5050    8.4100 C   0  0  0  0  0  3  0  0  0  0  0  0
    7.3650  336.0000    9.6500 C   0  0  0  0  0  0  0  0  0  0  0  0
    7.3890  336.6960   10.8600 C   0  0  0  0  0  3  0  0  0  0  0  0
  2  1  2  0
  3  2  1  0
  4  8  1  0
  4  3  2  0
  5  4  1  0
  6  5  1  0
  6  7  2  0
  7  8  1  0
  8  9  2  0
  9  1  1  0
M  RAD  6   1   2   2   2   3   2   6   2   7   2   9   2
M  END
>  <MODEL>  (126) 
2

>  <TORSDO>  (126) 
F 0

>  <SCORE>  (126) 
-5.5

>  <ligand_id>  (126) 
62

>  <original_smiles>  (126) 
c1ccc2sccc2c1

>  <smiles>  (126) 
c1ccc2sccc2c1

$$$$
63:0:0
     RDKit          3D

 10 11  0  0  0  0  0  0  0  0999 V2000
    7.2070  334.3380    7.3190 C   0  0  0  0  0  3  0  0  0  0  0  0
    7.6550  335.6610    7.2660 C   0  0  0  0  0  3  0  0  0  0  0  0
    7.7050  336.4140    8.3990 N   0  0  0  0  0  0  0  0  0  0  0  0
    7.3260  335.9100    9.6040 C   0  0  0  0  0  0  0  0  0  0  0  0
    7.3860  336.6840   10.7210 N   0  0  0  0  0  0  0  0  0  0  0  0
    7.0120  336.2040   11.9370 C   0  0  0  0  0  3  0  0  0  0  0  0
    6.5530  334.8890   12.0670 C   0  0  0  0  0  2  0  0  0  0  0  0
    6.4820  334.0720   10.9350 C   0  0  0  0  0  3  0  0  0  0  0  0
    6.8690  334.5790    9.6950 C   0  0  0  0  0  0  0  0  0  0  0  0
    6.8120  333.7950    8.5440 C   0  0  0  0  0  2  0  0  0  0  0  0
  1 10  1  0
  2  1  2  0
  2  3  1  0
  3  4  2  0
  4  9  1  0
  4  5  1  0
  5  6  2  0
  6  7  1  0
  8  7  1  0
  9  8  2  0
 10  9  1  0
M  RAD  6   1   2   2   2   6   2   7   3   8   2  10   3
M  END
>  <MODEL>  (127) 
1

>  <TORSDO>  (127) 
F 0

>  <SCORE>  (127) 
-5.6

>  <ligand_id>  (127) 
63

>  <original_smiles>  (127) 
c1cnc2ncccc2c1

>  <smiles>  (127) 
c1cnc2ncccc2c1

$$$$
63:0:1
     RDKit          3D

 10 11  0  0  0  0  0  0  0  0999 V2000
    6.5230  334.7120   12.0220 C   0  0  0  0  0  3  0  0  0  0  0  0
    6.9390  336.0470   12.0040 C   0  0  0  0  0  3  0  0  0  0  0  0
    7.3270  336.6290   10.8350 N   0  0  0  0  0  0  0  0  0  0  0  0
    7.3210  335.9390    9.6630 C   0  0  0  0  0  0  0  0  0  0  0  0
    7.7130  336.5450    8.5100 N   0  0  0  0  0  0  0  0  0  0  0  0
    7.7170  335.8770    7.3250 C   0  0  0  0  0  3  0  0  0  0  0  0
    7.3130  334.5400    7.2660 C   0  0  0  0  0  3  0  0  0  0  0  0
    6.9050  333.8940    8.4360 C   0  0  0  0  0  3  0  0  0  0  0  0
    6.9070  334.5920    9.6440 C   0  0  0  0  0  0  0  0  0  0  0  0
    6.5070  333.9810   10.8310 C   0  0  0  0  0  3  0  0  0  0  0  0
  2  1  2  0
  3  2  1  0
  4  3  2  0
  5  4  1  0
  6  5  2  0
  7  6  1  0
  7  8  2  0
  8  9  1  0
  9  4  1  0
  9 10  2  0
 10  1  1  0
M  RAD  6   1   2   2   2   6   2   7   2   8   2  10   2
M  END
>  <MODEL>  (128) 
2

>  <TORSDO>  (128) 
F 0

>  <SCORE>  (128) 
-5.6

>  <ligand_id>  (128) 
63

>  <original_smiles>  (128) 
c1cnc2ncccc2c1

>  <smiles>  (128) 
c1cnc2ncccc2c1

$$$$
64:0:0
     RDKit          3D

 10 11  0  0  0  0  0  0  0  0999 V2000
    7.6260  335.5300    7.2540 C   0  0  0  0  0  3  0  0  0  0  0  0
    7.1700  334.2180    7.4180 C   0  0  0  0  0  3  0  0  0  0  0  0
    6.8040  333.7670    8.6480 N   0  0  0  0  0  0  0  0  0  0  0  0
    6.8720  334.5690    9.7450 C   0  0  0  0  0  0  0  0  0  0  0  0
    6.4940  334.0920   11.0000 C   0  0  0  0  0  3  0  0  0  0  0  0
    6.5730  334.9360   12.1110 C   0  0  0  0  0  3  0  0  0  0  0  0
    7.0300  336.2480   11.9480 C   0  0  0  0  0  3  0  0  0  0  0  0
    7.3940  336.6990   10.7170 N   0  0  0  0  0  0  0  0  0  0  0  0
    7.3270  335.8970    9.6200 C   0  0  0  0  0  0  0  0  0  0  0  0
    7.7050  336.3730    8.3650 C   0  0  0  0  0  3  0  0  0  0  0  0
  1  2  2  0
  1 10  1  0
  2  3  1  0
  3  4  2  0
  4  5  1  0
  5  6  2  0
  7  6  1  0
  8  7  2  0
  9  4  1  0
  9  8  1  0
 10  9  2  0
M  RAD  6   1   2   2   2   5   2   6   2   7   2  10   2
M  END
>  <MODEL>  (129) 
1

>  <TORSDO>  (129) 
F 0

>  <SCORE>  (129) 
-5.3

>  <ligand_id>  (129) 
64

>  <original_smiles>  (129) 
c1cnc2cccnc2c1

>  <smiles>  (129) 
c1cnc2cccnc2c1

$$$$
64:0:1
     RDKit          3D

 10 11  0  0  0  0  0  0  0  0999 V2000
    7.1810  334.2590    7.3800 C   0  0  0  0  0  3  0  0  0  0  0  0
    7.6410  335.5780    7.3070 C   0  0  0  0  0  3  0  0  0  0  0  0
    7.6970  336.3490    8.4270 N   0  0  0  0  0  0  0  0  0  0  0  0
    7.3110  335.8650    9.6380 C   0  0  0  0  0  0  0  0  0  0  0  0
    7.3740  336.6670   10.7780 C   0  0  0  0  0  3  0  0  0  0  0  0
    6.9710  336.1470   12.0110 C   0  0  0  0  0  3  0  0  0  0  0  0
    6.5110  334.8270   12.0840 C   0  0  0  0  0  3  0  0  0  0  0  0
    6.4560  334.0570   10.9640 N   0  0  0  0  0  0  0  0  0  0  0  0
    6.8420  334.5410    9.7530 C   0  0  0  0  0  0  0  0  0  0  0  0
    6.7790  333.7390    8.6120 C   0  0  0  0  0  3  0  0  0  0  0  0
  1 10  2  0
  2  1  1  0
  2  3  2  0
  3  4  1  0
  4  9  2  0
  4  5  1  0
  5  6  2  0
  6  7  1  0
  8  7  2  0
  9  8  1  0
 10  9  1  0
M  RAD  6   1   2   2   2   5   2   6   2   7   2  10   2
M  END
>  <MODEL>  (130) 
2

>  <TORSDO>  (130) 
F 0

>  <SCORE>  (130) 
-5.3

>  <ligand_id>  (130) 
64

>  <original_smiles>  (130) 
c1cnc2cccnc2c1

>  <smiles>  (130) 
c1cnc2cccnc2c1

$$$$
65:0:0
     RDKit          3D

  9 10  0  0  0  0  0  0  0  0999 V2000
    9.5280  324.1750    6.7200 C   0  0  0  0  0  3  0  0  0  0  0  0
   10.7160  323.4590    6.9310 C   0  0  0  0  0  3  0  0  0  0  0  0
   11.2460  323.5000    8.2140 C   0  0  0  0  0  0  0  0  0  0  0  0
   12.6090  322.7980    8.8500 S   0  0  0  0  0  0  0  0  0  0  0  0
   12.4830  323.3560   10.4200 N   0  0  0  0  0  0  0  0  0  0  0  0
   11.3510  324.1130   10.4650 C   0  0  0  0  0  3  0  0  0  0  0  0
   10.6560  324.1990    9.2450 C   0  0  0  0  0  0  0  0  0  0  0  0
    9.4770  324.9000    9.0020 C   0  0  0  0  0  3  0  0  0  0  0  0
    8.9420  324.8700    7.7450 N   0  0  0  0  0  0  0  0  0  0  0  0
  1  2  2  0
  1  9  1  0
  2  3  1  0
  3  4  1  0
  3  7  2  0
  4  5  1  0
  5  6  2  0
  7  6  1  0
  8  7  1  0
  9  8  2  0
M  RAD  4   1   2   2   2   6   2   8   2
M  END
>  <MODEL>  (131) 
1

>  <TORSDO>  (131) 
F 0

>  <SCORE>  (131) 
-4.6

>  <ligand_id>  (131) 
65

>  <original_smiles>  (131) 
c1cc2sncc2cn1

>  <smiles>  (131) 
c1cc2sncc2cn1

$$$$
65:0:1
     RDKit          3D

  9 10  0  0  0  0  0  0  0  0999 V2000
   12.4030  323.3030    9.9500 C   0  0  0  0  0  3  0  0  0  0  0  0
   12.1640  323.1140    8.5800 C   0  0  0  0  0  3  0  0  0  0  0  0
   11.0200  323.7070    8.0630 C   0  0  0  0  0  0  0  0  0  0  0  0
   10.4020  323.7150    6.5220 S   0  0  0  0  0  0  0  0  0  0  0  0
    9.0380  324.6420    6.7910 N   0  0  0  0  0  0  0  0  0  0  0  0
    9.0520  324.9610    8.1150 C   0  0  0  0  0  3  0  0  0  0  0  0
   10.1480  324.4480    8.8310 C   0  0  0  0  0  0  0  0  0  0  0  0
   10.4140  324.6150   10.1880 C   0  0  0  0  0  3  0  0  0  0  0  0
   11.5350  324.0390   10.7130 N   0  0  0  0  0  0  0  0  0  0  0  0
  1  9  2  0
  2  1  1  0
  3  2  2  0
  3  7  1  0
  4  5  1  0
  4  3  1  0
  5  6  2  0
  6  7  1  0
  7  8  2  0
  8  9  1  0
M  RAD  4   1   2   2   2   6   2   8   2
M  END
>  <MODEL>  (132) 
2

>  <TORSDO>  (132) 
F 0

>  <SCORE>  (132) 
-4.6

>  <ligand_id>  (132) 
65

>  <original_smiles>  (132) 
c1cc2sncc2cn1

>  <smiles>  (132) 
c1cc2sncc2cn1

$$$$
66:0:0
     RDKit          3D

  9 10  0  0  0  0  0  0  0  0999 V2000
   12.0550  353.7390   22.9430 C   0  0  0  0  0  3  0  0  0  0  0  0
   10.9110  352.9680   23.2350 C   0  0  0  0  0  3  0  0  0  0  0  0
   10.6920  352.5070   24.5010 N   0  0  0  0  0  0  0  0  0  0  0  0
   11.5910  352.7980   25.4730 C   0  0  0  0  0  0  0  0  0  0  0  0
   11.5440  352.3500   27.0840 S   0  0  0  0  0  0  0  0  0  0  0  0
   13.0050  353.1460   27.4310 C   0  0  0  0  0  3  0  0  0  0  0  0
   13.5150  353.7440   26.3220 N   0  0  0  0  0  0  0  0  0  0  0  0
   12.7220  353.5460   25.2390 C   0  0  0  0  0  0  0  0  0  0  0  0
   12.9790  354.0340   23.9590 C   0  0  0  0  0  3  0  0  0  0  0  0
  1  2  2  0
  1  9  1  0
  2  3  1  0
  3  4  2  0
  4  5  1  0
  5  6  1  0
  7  6  2  0
  8  4  1  0
  8  7  1  0
  9  8  2  0
M  RAD  4   1   2   2   2   6   2   9   2
M  END
>  <MODEL>  (133) 
1

>  <TORSDO>  (133) 
F 0

>  <SCORE>  (133) 
-5.3

>  <ligand_id>  (133) 
66

>  <original_smiles>  (133) 
c1cnc2scnc2c1

>  <smiles>  (133) 
c1cnc2scnc2c1

$$$$
66:0:1
     RDKit          3D

  9 10  0  0  0  0  0  0  0  0999 V2000
    8.9770  324.8550    7.8260 C   0  0  0  0  0  3  0  0  0  0  0  0
    9.6220  324.1170    6.8110 C   0  0  0  0  0  3  0  0  0  0  0  0
   10.7730  323.4350    7.0770 N   0  0  0  0  0  0  0  0  0  0  0  0
   11.2900  323.4760    8.3290 C   0  0  0  0  0  0  0  0  0  0  0  0
   12.6770  322.7310    8.8950 S   0  0  0  0  0  0  0  0  0  0  0  0
   12.4680  323.3510   10.4630 C   0  0  0  0  0  3  0  0  0  0  0  0
   11.3480  324.1170   10.5430 N   0  0  0  0  0  0  0  0  0  0  0  0
   10.6990  324.1820    9.3530 C   0  0  0  0  0  0  0  0  0  0  0  0
    9.5230  324.8900    9.1190 C   0  0  0  0  0  3  0  0  0  0  0  0
  1  9  2  0
  2  3  2  0
  2  1  1  0
  3  4  1  0
  4  5  1  0
  4  8  2  0
  5  6  1  0
  6  7  2  0
  8  7  1  0
  9  8  1  0
M  RAD  4   1   2   2   2   6   2   9   2
M  END
>  <MODEL>  (134) 
2

>  <TORSDO>  (134) 
F 0

>  <SCORE>  (134) 
-4.7

>  <ligand_id>  (134) 
66

>  <original_smiles>  (134) 
c1cnc2scnc2c1

>  <smiles>  (134) 
c1cnc2scnc2c1

$$$$
67:0:0
     RDKit          3D

  9 10  0  0  0  0  0  0  0  0999 V2000
    8.9250  324.9050    7.6050 C   0  0  0  0  0  3  0  0  0  0  0  0
    9.6180  324.1810    6.6150 C   0  0  0  0  0  3  0  0  0  0  0  0
   10.7400  323.4690    6.9320 N   0  0  0  0  0  0  0  0  0  0  0  0
   11.1950  323.4560    8.2120 C   0  0  0  0  0  0  0  0  0  0  0  0
   12.3270  322.7660    8.6510 C   0  0  0  0  0  3  0  0  0  0  0  0
   12.5570  322.9350   10.0220 C   0  0  0  0  0  3  0  0  0  0  0  0
   11.3410  323.9390   10.6490 S   0  0  0  0  0  0  0  0  0  0  0  0
   10.5370  324.1560    9.1990 C   0  0  0  0  0  0  0  0  0  0  0  0
    9.3910  324.8960    8.9290 C   0  0  0  0  0  3  0  0  0  0  0  0
  1  9  2  0
  2  3  2  0
  2  1  1  0
  3  4  1  0
  4  5  1  0
  4  8  2  0
  5  6  2  0
  6  7  1  0
  8  7  1  0
  9  8  1  0
M  RAD  5   1   2   2   2   5   2   6   2   9   2
M  END
>  <MODEL>  (135) 
1

>  <TORSDO>  (135) 
F 0

>  <SCORE>  (135) 
-4.8

>  <ligand_id>  (135) 
67

>  <original_smiles>  (135) 
c1cnc2ccsc2c1

>  <smiles>  (135) 
c1cnc2ccsc2c1

$$$$
67:0:1
     RDKit          3D

  9 10  0  0  0  0  0  0  0  0999 V2000
   12.2010  322.1550    8.8750 C   0  0  0  0  0  3  0  0  0  0  0  0
   11.5480  323.1400    8.1070 C   0  0  0  0  0  3  0  0  0  0  0  0
   10.8170  324.1220    8.7130 N   0  0  0  0  0  0  0  0  0  0  0  0
   10.7140  324.1530   10.0670 C   0  0  0  0  0  0  0  0  0  0  0  0
    9.9960  325.1050   10.7930 C   0  0  0  0  0  3  0  0  0  0  0  0
   10.0670  324.8880   12.1740 C   0  0  0  0  0  3  0  0  0  0  0  0
   11.0230  323.5140   12.4520 S   0  0  0  0  0  0  0  0  0  0  0  0
   11.3420  323.2010   10.8410 C   0  0  0  0  0  0  0  0  0  0  0  0
   12.0980  322.1810   10.2740 C   0  0  0  0  0  3  0  0  0  0  0  0
  1  9  2  0
  2  3  2  0
  2  1  1  0
  3  4  1  0
  4  5  1  0
  4  8  2  0
  5  6  2  0
  6  7  1  0
  8  7  1  0
  9  8  1  0
M  RAD  5   1   2   2   2   5   2   6   2   9   2
M  END
>  <MODEL>  (136) 
2

>  <TORSDO>  (136) 
F 0

>  <SCORE>  (136) 
-4.8

>  <ligand_id>  (136) 
67

>  <original_smiles>  (136) 
c1cnc2ccsc2c1

>  <smiles>  (136) 
c1cnc2ccsc2c1

$$$$
68:0:0
     RDKit          3D

  9 10  0  0  0  0  0  0  0  0999 V2000
   11.1250  351.5800   26.7840 C   0  0  0  0  0  3  0  0  0  0  0  0
   12.0800  352.5400   27.1520 C   0  0  0  0  0  3  0  0  0  0  0  0
   12.4740  353.4170   26.1980 N   0  0  0  0  0  0  0  0  0  0  0  0
   13.3570  354.4250   26.2620 C   0  0  0  0  0  3  0  0  0  0  0  0
   13.4460  355.0510   25.0620 N   0  0  0  0  0  0  0  0  0  0  0  0
   12.5910  354.4110   24.2240 C   0  0  0  0  0  3  0  0  0  0  0  0
   12.0010  353.4040   24.9490 C   0  0  0  0  0  0  0  0  0  0  0  0
   11.0550  352.4620   24.5640 C   0  0  0  0  0  3  0  0  0  0  0  0
   10.6380  351.5630   25.5040 N   0  0  0  0  0  0  0  0  0  0  0  0
  1  2  2  0
  3  4  1  0
  3  2  1  0
  5  4  2  0
  6  7  2  0
  6  5  1  0
  7  3  1  0
  8  7  1  0
  8  9  2  0
  9  1  1  0
M  RAD  5   1   2   2   2   4   2   6   2   8   2
M  END
>  <MODEL>  (137) 
1

>  <TORSDO>  (137) 
F 0

>  <SCORE>  (137) 
-4.5

>  <ligand_id>  (137) 
68

>  <original_smiles>  (137) 
c1cn2cncc2cn1

>  <smiles>  (137) 
c1cn2cncc2cn1

$$$$
68:0:1
     RDKit          3D

  9 10  0  0  0  0  0  0  0  0999 V2000
    9.5100  324.2500    6.8160 C   0  0  0  0  0  3  0  0  0  0  0  0
   10.7250  323.5640    6.9680 C   0  0  0  0  0  3  0  0  0  0  0  0
   11.2860  323.5690    8.2010 N   0  0  0  0  0  0  0  0  0  0  0  0
   12.4240  323.0070    8.6350 C   0  0  0  0  0  3  0  0  0  0  0  0
   12.6050  323.2650    9.9540 N   0  0  0  0  0  0  0  0  0  0  0  0
   11.5450  324.0130   10.3540 C   0  0  0  0  0  3  0  0  0  0  0  0
   10.7430  324.1880    9.2520 C   0  0  0  0  0  0  0  0  0  0  0  0
    9.5400  324.8730    9.1230 C   0  0  0  0  0  3  0  0  0  0  0  0
    8.9500  324.8860    7.8920 N   0  0  0  0  0  0  0  0  0  0  0  0
  1  2  2  0
  1  9  1  0
  2  3  1  0
  3  4  1  0
  3  7  1  0
  4  5  2  0
  5  6  1  0
  7  6  2  0
  8  7  1  0
  9  8  2  0
M  RAD  5   1   2   2   2   4   2   6   2   8   2
M  END
>  <MODEL>  (138) 
2

>  <TORSDO>  (138) 
F 0

>  <SCORE>  (138) 
-4.3

>  <ligand_id>  (138) 
68

>  <original_smiles>  (138) 
c1cn2cncc2cn1

>  <smiles>  (138) 
c1cn2cncc2cn1

$$$$
69:0:0
     RDKit          3D

  7  7  0  0  0  0  0  0  0  0999 V2000
   -5.5980  325.7790    4.0440 C   0  0  0  0  0  1  0  0  0  0  0  0
   -7.0720  325.7090    4.2390 C   0  0  0  0  0  0  0  0  0  0  0  0
   -7.8180  326.7900    4.7290 C   0  0  0  0  0  3  0  0  0  0  0  0
   -9.1820  326.5260    4.8400 C   0  0  0  0  0  3  0  0  0  0  0  0
   -9.4320  324.9410    4.3230 S   0  0  0  0  0  0  0  0  0  0  0  0
   -7.8360  324.5870    3.9600 C   0  0  0  0  0  0  0  0  0  0  0  0
   -7.3450  323.2850    3.4320 C   0  0  0  0  0  1  0  0  0  0  0  0
  1  2  1  0
  2  3  1  0
  3  4  2  0
  5  4  1  0
  6  2  2  0
  6  5  1  0
  7  6  1  0
M  RAD  4   1   2   3   2   4   2   7   2
M  END
>  <MODEL>  (139) 
1

>  <TORSDO>  (139) 
F 0

>  <SCORE>  (139) 
-4.4

>  <ligand_id>  (139) 
69

>  <original_smiles>  (139) 
Cc1ccsc1C

>  <smiles>  (139) 
Cc1ccsc1C

$$$$
69:0:1
     RDKit          3D

  7  7  0  0  0  0  0  0  0  0999 V2000
   10.9930  353.0240   23.7010 C   0  0  0  0  0  1  0  0  0  0  0  0
   11.4990  352.9910   25.1010 C   0  0  0  0  0  0  0  0  0  0  0  0
   11.0670  352.0380   26.0350 C   0  0  0  0  0  3  0  0  0  0  0  0
   11.6580  352.1750   27.2900 C   0  0  0  0  0  3  0  0  0  0  0  0
   12.7120  353.4880   27.2100 S   0  0  0  0  0  0  0  0  0  0  0  0
   12.4300  353.8830   25.6080 C   0  0  0  0  0  0  0  0  0  0  0  0
   13.0770  355.0060   24.8750 C   0  0  0  0  0  1  0  0  0  0  0  0
  1  2  1  0
  2  6  2  0
  2  3  1  0
  3  4  2  0
  5  4  1  0
  6  5  1  0
  7  6  1  0
M  RAD  4   1   2   3   2   4   2   7   2
M  END
>  <MODEL>  (140) 
2

>  <TORSDO>  (140) 
F 0

>  <SCORE>  (140) 
-4.3

>  <ligand_id>  (140) 
69

>  <original_smiles>  (140) 
Cc1ccsc1C

>  <smiles>  (140) 
Cc1ccsc1C

$$$$
70:0:0
     RDKit          3D

 12 13  0  0  0  0  0  0  0  0999 V2000
    7.9160  336.3980    6.2300 C   0  0  0  0  0  1  0  0  0  0  0  0
    7.5370  335.7370    7.5060 C   0  0  0  0  0  0  0  0  0  0  0  0
    7.1630  334.3900    7.5080 C   0  0  0  0  0  3  0  0  0  0  0  0
    6.8090  333.7780    8.7110 C   0  0  0  0  0  3  0  0  0  0  0  0
    6.8320  334.5160    9.8960 C   0  0  0  0  0  0  0  0  0  0  0  0
    6.4910  333.9350   11.0760 N   0  0  0  0  0  0  0  0  0  0  0  0
    6.5060  334.6360   12.2410 C   0  0  0  0  0  3  0  0  0  0  0  0
    6.8780  335.9830   12.2490 C   0  0  0  0  0  3  0  0  0  0  0  0
    7.2350  336.6080   11.0520 C   0  0  0  0  0  0  0  0  0  0  0  0
    7.6290  338.0450   11.0720 C   0  0  0  0  0  1  0  0  0  0  0  0
    7.2140  335.8730    9.8570 C   0  0  0  0  0  0  0  0  0  0  0  0
    7.5550  336.4450    8.6680 N   0  0  0  0  0  0  0  0  0  0  0  0
  1  2  1  0
  2  3  2  0
  2 12  1  0
  3  4  1  0
  4  5  2  0
  5  6  1  0
  6  7  2  0
  7  8  1  0
  9 10  1  0
  9  8  2  0
 11  5  1  0
 11  9  1  0
 12 11  2  0
M  RAD  6   1   2   3   2   4   2   7   2   8   2  10   2
M  END
>  <MODEL>  (141) 
1

>  <TORSDO>  (141) 
F 0

>  <SCORE>  (141) 
-6.6

>  <ligand_id>  (141) 
70

>  <original_smiles>  (141) 
Cc1ccc2nccc(C)c2n1

>  <smiles>  (141) 
Cc1ccc2nccc(C)c2n1

$$$$
70:0:1
     RDKit          3D

 12 13  0  0  0  0  0  0  0  0999 V2000
    6.8850  335.8590   12.0590 C   0  0  0  0  0  1  0  0  0  0  0  0
    6.8710  335.1950   10.7300 C   0  0  0  0  0  0  0  0  0  0  0  0
    6.4870  333.8550   10.6250 C   0  0  0  0  0  3  0  0  0  0  0  0
    6.4760  333.2400    9.3730 C   0  0  0  0  0  3  0  0  0  0  0  0
    6.8480  333.9670    8.2410 C   0  0  0  0  0  0  0  0  0  0  0  0
    6.8420  333.3840    7.0140 N   0  0  0  0  0  0  0  0  0  0  0  0
    7.2010  334.0750    5.8990 C   0  0  0  0  0  3  0  0  0  0  0  0
    7.5860  335.4150    5.9930 C   0  0  0  0  0  3  0  0  0  0  0  0
    7.6010  336.0430    7.2410 C   0  0  0  0  0  0  0  0  0  0  0  0
    8.0140  337.4730    7.3300 C   0  0  0  0  0  1  0  0  0  0  0  0
    7.2290  335.3180    8.3830 C   0  0  0  0  0  0  0  0  0  0  0  0
    7.2300  335.8930    9.6190 N   0  0  0  0  0  0  0  0  0  0  0  0
  2  1  1  0
  3  2  2  0
  4  3  1  0
  5 11  1  0
  5  4  2  0
  6  5  1  0
  7  8  1  0
  7  6  2  0
  8  9  2  0
  9 10  1  0
  9 11  1  0
 11 12  2  0
 12  2  1  0
M  RAD  6   1   2   3   2   4   2   7   2   8   2  10   2
M  END
>  <MODEL>  (142) 
2

>  <TORSDO>  (142) 
F 0

>  <SCORE>  (142) 
-6.5

>  <ligand_id>  (142) 
70

>  <original_smiles>  (142) 
Cc1ccc2nccc(C)c2n1

>  <smiles>  (142) 
Cc1ccc2nccc(C)c2n1

$$$$
71:0:0
     RDKit          3D

 10 11  0  0  0  0  0  0  0  0999 V2000
   11.5920  353.7050   21.4580 Cl  0  0  0  0  0  0  0  0  0  0  0  0
   11.6750  353.4350   23.1850 C   0  0  0  0  0  0  0  0  0  0  0  0
   10.7010  352.6430   23.8220 C   0  0  0  0  0  3  0  0  0  0  0  0
   10.7740  352.4370   25.1690 N   0  0  0  0  0  0  0  0  0  0  0  0
   11.7710  352.9930   25.8530 N   0  0  0  0  0  0  0  0  0  0  0  0
   12.0210  352.9160   27.1660 C   0  0  0  0  0  3  0  0  0  0  0  0
   13.1740  353.6710   27.3730 C   0  0  0  0  0  3  0  0  0  0  0  0
   13.6130  354.1970   26.1980 N   0  0  0  0  0  0  0  0  0  0  0  0
   12.7190  353.7520   25.3020 C   0  0  0  0  0  0  0  0  0  0  0  0
   12.7140  354.0070   23.9360 C   0  0  0  0  0  3  0  0  0  0  0  0
  1  2  1  0
  2  3  1  0
  2 10  2  0
  3  4  2  0
  4  5  1  0
  5  6  1  0
  6  7  2  0
  8  7  1  0
  9  5  1  0
  9  8  2  0
 10  9  1  0
M  RAD  4   3   2   6   2   7   2  10   2
M  END
>  <MODEL>  (143) 
1

>  <TORSDO>  (143) 
F 0

>  <SCORE>  (143) 
-5.6

>  <ligand_id>  (143) 
71

>  <original_smiles>  (143) 
Clc1cnn2ccnc2c1

>  <smiles>  (143) 
Clc1cnn2ccnc2c1

$$$$
71:0:1
     RDKit          3D

 10 11  0  0  0  0  0  0  0  0999 V2000
   10.4760  324.5340   11.6920 Cl  0  0  0  0  0  0  0  0  0  0  0  0
   10.4550  324.2380    9.9670 C   0  0  0  0  0  0  0  0  0  0  0  0
   11.3850  323.3510    9.3930 C   0  0  0  0  0  3  0  0  0  0  0  0
   11.3600  323.1250    8.0490 N   0  0  0  0  0  0  0  0  0  0  0  0
   10.4510  323.7520    7.3060 N   0  0  0  0  0  0  0  0  0  0  0  0
   10.2610  323.6710    5.9830 C   0  0  0  0  0  3  0  0  0  0  0  0
    9.1900  324.5200    5.7060 C   0  0  0  0  0  3  0  0  0  0  0  0
    8.7430  325.1050    6.8480 N   0  0  0  0  0  0  0  0  0  0  0  0
    9.5480  324.6020    7.7960 C   0  0  0  0  0  0  0  0  0  0  0  0
    9.5080  324.8830    9.1560 C   0  0  0  0  0  3  0  0  0  0  0  0
  2  1  1  0
  3  2  1  0
  4  3  2  0
  5  9  1  0
  5  4  1  0
  6  5  1  0
  7  6  2  0
  7  8  1  0
  8  9  2  0
  9 10  1  0
 10  2  2  0
M  RAD  4   3   2   6   2   7   2  10   2
M  END
>  <MODEL>  (144) 
2

>  <TORSDO>  (144) 
F 0

>  <SCORE>  (144) 
-4.9

>  <ligand_id>  (144) 
71

>  <original_smiles>  (144) 
Clc1cnn2ccnc2c1

>  <smiles>  (144) 
Clc1cnn2ccnc2c1

$$$$
72:0:0
     RDKit          3D

 11 12  0  0  0  0  0  0  0  0999 V2000
    7.1900  333.6930    6.1360 C   0  0  0  0  0  1  0  0  0  0  0  0
    7.2370  334.4880    7.3910 C   0  0  0  0  0  0  0  0  0  0  0  0
    7.6880  335.8120    7.3700 C   0  0  0  0  0  3  0  0  0  0  0  0
    7.7320  336.5380    8.5200 N   0  0  0  0  0  0  0  0  0  0  0  0
    7.3430  336.0050    9.7080 C   0  0  0  0  0  0  0  0  0  0  0  0
    7.3930  336.7620   10.8790 C   0  0  0  0  0  3  0  0  0  0  0  0
    6.9890  336.1920   12.0890 C   0  0  0  0  0  3  0  0  0  0  0  0
    6.5390  334.8690   12.1090 C   0  0  0  0  0  3  0  0  0  0  0  0
    6.4950  334.1410   10.9590 N   0  0  0  0  0  0  0  0  0  0  0  0
    6.8840  334.6740    9.7700 C   0  0  0  0  0  0  0  0  0  0  0  0
    6.8330  333.9160    8.5990 C   0  0  0  0  0  3  0  0  0  0  0  0
  1  2  1  0
  2 11  2  0
  3  2  1  0
  3  4  2  0
  4  5  1  0
  5 10  2  0
  5  6  1  0
  6  7  2  0
  7  8  1  0
  9  8  2  0
 10  9  1  0
 11 10  1  0
M  RAD  6   1   2   3   2   6   2   7   2   8   2  11   2
M  END
>  <MODEL>  (145) 
1

>  <TORSDO>  (145) 
F 0

>  <SCORE>  (145) 
-6.0

>  <ligand_id>  (145) 
72

>  <original_smiles>  (145) 
Cc1cnc2cccnc2c1

>  <smiles>  (145) 
Cc1cnc2cccnc2c1

$$$$
72:0:1
     RDKit          3D

 11 12  0  0  0  0  0  0  0  0999 V2000
    7.1900  333.5590    6.5710 C   0  0  0  0  0  1  0  0  0  0  0  0
    7.0610  334.0580    7.9650 C   0  0  0  0  0  0  0  0  0  0  0  0
    6.5000  333.2460    8.9550 C   0  0  0  0  0  3  0  0  0  0  0  0
    6.3830  333.7040   10.2310 N   0  0  0  0  0  0  0  0  0  0  0  0
    6.8020  334.9500   10.5760 C   0  0  0  0  0  0  0  0  0  0  0  0
    6.6750  335.4060   11.8890 C   0  0  0  0  0  3  0  0  0  0  0  0
    7.1130  336.6910   12.2200 C   0  0  0  0  0  3  0  0  0  0  0  0
    7.6730  337.5030   11.2290 C   0  0  0  0  0  3  0  0  0  0  0  0
    7.7910  337.0450    9.9510 N   0  0  0  0  0  0  0  0  0  0  0  0
    7.3720  335.7990    9.6060 C   0  0  0  0  0  0  0  0  0  0  0  0
    7.4990  335.3430    8.2940 C   0  0  0  0  0  3  0  0  0  0  0  0
  1  2  1  0
  2 11  2  0
  2  3  1  0
  3  4  2  0
  4  5  1  0
  5  6  2  0
  6  7  1  0
  8  7  2  0
  9  8  1  0
 10  9  2  0
 10  5  1  0
 11 10  1  0
M  RAD  6   1   2   3   2   6   2   7   2   8   2  11   2
M  END
>  <MODEL>  (146) 
2

>  <TORSDO>  (146) 
F 0

>  <SCORE>  (146) 
-5.9

>  <ligand_id>  (146) 
72

>  <original_smiles>  (146) 
Cc1cnc2cccnc2c1

>  <smiles>  (146) 
Cc1cnc2cccnc2c1

$$$$
73:0:0
     RDKit          3D

 19 21  0  0  0  0  0  0  0  0999 V2000
    8.3740  337.8850    8.0210 C   0  0  0  0  0  3  0  0  0  0  0  0
    7.8960  336.6400    7.9020 C   0  0  0  0  0  0  0  0  0  0  0  0
    7.7580  335.9700    6.5630 C   0  0  0  0  0  2  0  0  0  0  0  0
    7.1870  334.6360    6.9370 C   0  0  0  0  0  0  0  0  0  0  0  0
    6.8680  333.5910    6.0710 C   0  0  0  0  0  3  0  0  0  0  0  0
    6.3250  332.4140    6.6120 C   0  0  0  0  0  3  0  0  0  0  0  0
    6.1070  332.3020    7.9990 C   0  0  0  0  0  3  0  0  0  0  0  0
    6.4300  333.3640    8.8570 C   0  0  0  0  0  3  0  0  0  0  0  0
    6.9740  334.5190    8.2940 C   0  0  0  0  0  0  0  0  0  0  0  0
    7.3770  335.7420    8.9430 C   0  0  0  0  0  0  0  0  0  0  0  0
    7.2080  336.0040   10.1630 O   0  0  0  0  0  0  0  0  0  0  0  0
    8.0400  340.2630   10.9660 C   0  0  0  0  0  0  0  0  0  0  0  0
    9.1680  339.9000   11.7080 C   0  0  0  0  0  3  0  0  0  0  0  0
   10.0250  338.8990   11.2420 C   0  0  0  0  0  3  0  0  0  0  0  0
    9.7600  338.2620   10.0270 C   0  0  0  0  0  3  0  0  0  0  0  0
    8.6510  338.6330    9.2590 C   0  0  0  0  0  0  0  0  0  0  0  0
    7.7800  339.6170    9.7470 C   0  0  0  0  0  3  0  0  0  0  0  0
    7.3490  341.8240   12.7560 C   0  0  0  0  0  1  0  0  0  0  0  0
    7.1950  341.2610   11.4610 O   0  0  0  0  0  0  0  0  0  0  0  0
  1 16  1  0
  2  1  2  0
  2 10  1  0
  3  4  1  0
  3  2  1  0
  4  9  2  0
  5  6  2  0
  5  4  1  0
  6  7  1  0
  7  8  2  0
  9  8  1  0
  9 10  1  0
 10 11  2  0
 12 19  1  0
 12 13  2  0
 14 13  1  0
 15 14  2  0
 16 17  2  0
 16 15  1  0
 17 12  1  0
 19 18  1  0
M  RAD  8   1   2   3   3   5   2   6   2   7   2   8   2  13   2  14   2
M  RAD  3  15   2  17   2  18   2
M  END
>  <MODEL>  (147) 
1

>  <TORSDO>  (147) 
F 2

>  <SCORE>  (147) 
-9.6

>  <ligand_id>  (147) 
73

>  <original_smiles>  (147) 
COc1cccc(C=C2Cc3ccccc3C2=O)c1

>  <smiles>  (147) 
COc1cccc(C=C2Cc3ccccc3C2=O)c1

$$$$
73:0:1
     RDKit          3D

 19 21  0  0  0  0  0  0  0  0999 V2000
    7.3250  336.3580   10.9650 C   0  0  0  0  0  3  0  0  0  0  0  0
    7.2000  335.7120    9.7990 C   0  0  0  0  0  0  0  0  0  0  0  0
    6.5290  334.3690    9.7050 C   0  0  0  0  0  2  0  0  0  0  0  0
    6.6430  334.0630    8.2440 C   0  0  0  0  0  0  0  0  0  0  0  0
    6.1660  332.9280    7.5870 C   0  0  0  0  0  3  0  0  0  0  0  0
    6.3830  332.8130    6.2050 C   0  0  0  0  0  3  0  0  0  0  0  0
    7.0710  333.8220    5.5040 C   0  0  0  0  0  3  0  0  0  0  0  0
    7.5470  334.9570    6.1790 C   0  0  0  0  0  3  0  0  0  0  0  0
    7.3130  335.0490    7.5510 C   0  0  0  0  0  0  0  0  0  0  0  0
    7.7010  336.0910    8.4710 C   0  0  0  0  0  0  0  0  0  0  0  0
    8.4250  337.0790    8.1810 O   0  0  0  0  0  0  0  0  0  0  0  0
    7.6350  340.0220   11.9210 C   0  0  0  0  0  0  0  0  0  0  0  0
    9.0140  340.2010   11.7740 C   0  0  0  0  0  3  0  0  0  0  0  0
    9.8220  339.1390   11.3600 C   0  0  0  0  0  3  0  0  0  0  0  0
    9.2520  337.8940   11.0830 C   0  0  0  0  0  3  0  0  0  0  0  0
    7.8700  337.7050   11.1990 C   0  0  0  0  0  0  0  0  0  0  0  0
    7.0710  338.7670   11.6420 C   0  0  0  0  0  3  0  0  0  0  0  0
    7.3670  342.1510   13.1500 C   0  0  0  0  0  1  0  0  0  0  0  0
    6.8530  341.1000   12.3450 O   0  0  0  0  0  0  0  0  0  0  0  0
  1 16  1  0
  2  1  2  0
  3  2  1  0
  4  3  1  0
  5  4  2  0
  6  5  1  0
  7  8  1  0
  7  6  2  0
  8  9  2  0
  9  4  1  0
  9 10  1  0
 10  2  1  0
 11 10  2  0
 12 19  1  0
 13 12  2  0
 14 13  1  0
 15 16  1  0
 15 14  2  0
 16 17  2  0
 17 12  1  0
 19 18  1  0
M  RAD  8   1   2   3   3   5   2   6   2   7   2   8   2  13   2  14   2
M  RAD  3  15   2  17   2  18   2
M  END
>  <MODEL>  (148) 
2

>  <TORSDO>  (148) 
F 2

>  <SCORE>  (148) 
-9.2

>  <ligand_id>  (148) 
73

>  <original_smiles>  (148) 
COc1cccc(C=C2Cc3ccccc3C2=O)c1

>  <smiles>  (148) 
COc1cccc(C=C2Cc3ccccc3C2=O)c1

$$$$
74:0:0
     RDKit          3D

 17 19  0  0  0  0  0  0  0  0999 V2000
    6.7870  338.1080   11.4160 F   0  0  0  0  0  0  0  0  0  0  0  0
    7.7630  337.3450   10.8050 C   0  0  0  0  0  0  0  0  0  0  0  0
    8.8750  337.2410   11.6180 F   0  0  0  0  0  0  0  0  0  0  0  0
    8.1230  337.9190    9.5410 O   0  0  0  0  0  0  0  0  0  0  0  0
    7.8350  336.9930    8.5570 C   0  0  0  0  0  0  0  0  0  0  0  0
    8.0150  337.1080    7.1850 C   0  0  0  0  0  3  0  0  0  0  0  0
    7.6420  336.0200    6.3730 C   0  0  0  0  0  0  0  0  0  0  0  0
    7.8910  336.2150    4.6430 Cl  0  0  0  0  0  0  0  0  0  0  0  0
    7.0930  334.8350    6.9620 C   0  0  0  0  0  0  0  0  0  0  0  0
    6.9340  334.7790    8.3650 C   0  0  0  0  0  3  0  0  0  0  0  0
    7.3170  335.8780    9.1230 C   0  0  0  0  0  0  0  0  0  0  0  0
    7.2520  336.0420   10.4930 O   0  0  0  0  0  0  0  0  0  0  0  0
    6.6770  333.6480    6.1720 C   0  0  0  0  0  0  0  0  0  0  0  0
    5.3780  333.3620    5.7830 C   0  0  0  0  0  3  0  0  0  0  0  0
    5.5020  332.1750    5.0830 C   0  0  0  0  0  3  0  0  0  0  0  0
    6.7690  331.8300    5.0830 O   0  0  0  0  0  0  0  0  0  0  0  0
    7.5030  332.6870    5.7250 N   0  0  0  0  0  0  0  0  0  0  0  0
  2  1  1  0
  2  3  1  0
  4  2  1  0
  5 11  2  0
  5  4  1  0
  6  5  1  0
  7  9  1  0
  7  6  2  0
  8  7  1  0
  9 10  2  0
 10 11  1  0
 11 12  1  0
 12  2  1  0
 13  9  1  0
 14 13  1  0
 15 14  2  0
 16 15  1  0
 16 17  1  0
 17 13  2  0
M  RAD  4   6   2  10   2  14   2  15   2
M  END
>  <MODEL>  (149) 
1

>  <TORSDO>  (149) 
F 1

>  <SCORE>  (149) 
-8.0

>  <ligand_id>  (149) 
74

>  <original_smiles>  (149) 
FC1(F)Oc2cc(Cl)c(-c3ccon3)cc2O1

>  <smiles>  (149) 
FC1(F)Oc2cc(Cl)c(-c3ccon3)cc2O1

$$$$
74:0:1
     RDKit          3D

 17 19  0  0  0  0  0  0  0  0999 V2000
    9.8370  337.9500    9.2660 F   0  0  0  0  0  0  0  0  0  0  0  0
    8.4950  337.7450    9.0090 C   0  0  0  0  0  0  0  0  0  0  0  0
    7.7360  338.7570    9.5660 F   0  0  0  0  0  0  0  0  0  0  0  0
    8.0790  336.4720    9.5210 O   0  0  0  0  0  0  0  0  0  0  0  0
    7.6340  335.7120    8.4570 C   0  0  0  0  0  0  0  0  0  0  0  0
    7.1380  334.4150    8.4700 C   0  0  0  0  0  3  0  0  0  0  0  0
    6.7430  333.8430    7.2460 C   0  0  0  0  0  0  0  0  0  0  0  0
    6.1220  332.1990    7.3180 Cl  0  0  0  0  0  0  0  0  0  0  0  0
    6.8560  334.5900    6.0300 C   0  0  0  0  0  0  0  0  0  0  0  0
    7.3690  335.9060    6.0810 C   0  0  0  0  0  3  0  0  0  0  0  0
    7.7450  336.4260    7.3130 C   0  0  0  0  0  0  0  0  0  0  0  0
    8.2660  337.6750    7.5950 O   0  0  0  0  0  0  0  0  0  0  0  0
    6.4610  334.0540    4.7020 C   0  0  0  0  0  0  0  0  0  0  0  0
    7.3310  333.5290    3.7610 C   0  0  0  0  0  3  0  0  0  0  0  0
    6.5000  333.1720    2.7140 C   0  0  0  0  0  3  0  0  0  0  0  0
    5.2670  333.4760    3.0470 O   0  0  0  0  0  0  0  0  0  0  0  0
    5.2030  334.0050    4.2310 N   0  0  0  0  0  0  0  0  0  0  0  0
  2  1  1  0
  2  4  1  0
  2  3  1  0
  5  6  2  0
  5  4  1  0
  7  8  1  0
  7  6  1  0
  9 10  1  0
  9  7  2  0
 10 11  2  0
 11 12  1  0
 11  5  1  0
 12  2  1  0
 13  9  1  0
 14 13  1  0
 15 16  1  0
 15 14  2  0
 16 17  1  0
 17 13  2  0
M  RAD  4   6   2  10   2  14   2  15   2
M  END
>  <MODEL>  (150) 
2

>  <TORSDO>  (150) 
F 1

>  <SCORE>  (150) 
-7.9

>  <ligand_id>  (150) 
74

>  <original_smiles>  (150) 
FC1(F)Oc2cc(Cl)c(-c3ccon3)cc2O1

>  <smiles>  (150) 
FC1(F)Oc2cc(Cl)c(-c3ccon3)cc2O1

$$$$
75:0:0
     RDKit          3D

 13 15  0  0  0  0  0  0  0  0999 V2000
    9.1940  324.7620    7.6440 C   0  0  0  0  0  3  0  0  0  0  0  0
   10.0970  324.0190    6.8490 C   0  0  0  0  0  3  0  0  0  0  0  0
   11.1500  323.3590    7.4210 N   0  0  0  0  0  0  0  0  0  0  0  0
   11.3160  323.4280    8.7660 C   0  0  0  0  0  0  0  0  0  0  0  0
   12.3080  322.8390    9.5400 C   0  0  0  0  0  3  0  0  0  0  0  0
   11.9620  323.2600   10.8270 C   0  0  0  0  0  0  0  0  0  0  0  0
   12.6140  322.9690   12.0210 C   0  0  0  0  0  3  0  0  0  0  0  0
   12.1000  323.4880   13.1740 N   0  0  0  0  0  0  0  0  0  0  0  0
   10.9800  324.2750   13.1770 C   0  0  0  0  0  3  0  0  0  0  0  0
   10.3300  324.5640   11.9690 C   0  0  0  0  0  3  0  0  0  0  0  0
   10.8570  324.0370   10.8370 N   0  0  0  0  0  0  0  0  0  0  0  0
   10.4610  324.1390    9.5650 C   0  0  0  0  0  0  0  0  0  0  0  0
    9.3730  324.8290    9.0360 C   0  0  0  0  0  3  0  0  0  0  0  0
  1 13  2  0
  2  3  2  0
  2  1  1  0
  3  4  1  0
  4  5  1  0
  4 12  2  0
  5  6  2  0
  6 11  1  0
  6  7  1  0
  7  8  2  0
  8  9  1  0
 10  9  2  0
 11 10  1  0
 12 11  1  0
 13 12  1  0
M  RAD  7   1   2   2   2   5   2   7   2   9   2  10   2  13   2
M  END
>  <MODEL>  (151) 
1

>  <TORSDO>  (151) 
F 0

>  <SCORE>  (151) 
-6.2

>  <ligand_id>  (151) 
75

>  <original_smiles>  (151) 
c1cnc2cc3cnccn3c2c1

>  <smiles>  (151) 
c1cnc2cc3cnccn3c2c1

$$$$
75:0:1
     RDKit          3D

 13 15  0  0  0  0  0  0  0  0999 V2000
    7.5170  335.0450    6.1870 C   0  0  0  0  0  3  0  0  0  0  0  0
    7.0900  333.6980    6.2060 C   0  0  0  0  0  3  0  0  0  0  0  0
    6.7120  333.1010    7.3780 N   0  0  0  0  0  0  0  0  0  0  0  0
    6.7550  333.8240    8.5260 C   0  0  0  0  0  0  0  0  0  0  0  0
    6.4190  333.4150    9.8110 C   0  0  0  0  0  3  0  0  0  0  0  0
    6.6630  334.5700   10.5570 C   0  0  0  0  0  0  0  0  0  0  0  0
    6.4990  334.7480   11.9270 C   0  0  0  0  0  3  0  0  0  0  0  0
    6.7990  335.9710   12.4550 N   0  0  0  0  0  0  0  0  0  0  0  0
    7.2500  337.0030   11.6780 C   0  0  0  0  0  3  0  0  0  0  0  0
    7.4130  336.8150   10.2980 C   0  0  0  0  0  3  0  0  0  0  0  0
    7.1080  335.5930    9.7960 N   0  0  0  0  0  0  0  0  0  0  0  0
    7.1640  335.1310    8.5440 C   0  0  0  0  0  0  0  0  0  0  0  0
    7.5590  335.7870    7.3810 C   0  0  0  0  0  3  0  0  0  0  0  0
  1  2  2  0
  1 13  1  0
  2  3  1  0
  3  4  2  0
  4 12  1  0
  4  5  1  0
  5  6  2  0
  6  7  1  0
  7  8  2  0
  9  8  1  0
 10  9  2  0
 11 10  1  0
 11  6  1  0
 12 11  1  0
 13 12  2  0
M  RAD  7   1   2   2   2   5   2   7   2   9   2  10   2  13   2
M  END
>  <MODEL>  (152) 
2

>  <TORSDO>  (152) 
F 0

>  <SCORE>  (152) 
-6.2

>  <ligand_id>  (152) 
75

>  <original_smiles>  (152) 
c1cnc2cc3cnccn3c2c1

>  <smiles>  (152) 
c1cnc2cc3cnccn3c2c1

$$$$
76:0:0
     RDKit          3D

  5  5  0  0  0  0  0  0  0  0999 V2000
   -7.9910  326.9330    4.4430 C   0  0  0  0  0  3  0  0  0  0  0  0
   -9.2580  326.4600    4.7320 C   0  0  0  0  0  3  0  0  0  0  0  0
   -9.2280  325.1050    4.4700 C   0  0  0  0  0  3  0  0  0  0  0  0
   -8.0290  324.7790    4.0520 O   0  0  0  0  0  0  0  0  0  0  0  0
   -7.2620  325.8400    4.0220 C   0  0  0  0  0  3  0  0  0  0  0  0
  1  2  1  0
  3  2  2  0
  4  3  1  0
  5  4  1  0
  5  1  2  0
M  RAD  4   1   2   2   2   3   2   5   2
M  END
>  <MODEL>  (153) 
1

>  <TORSDO>  (153) 
F 0

>  <SCORE>  (153) 
-3.8

>  <ligand_id>  (153) 
76

>  <original_smiles>  (153) 
c1ccoc1

>  <smiles>  (153) 
c1ccoc1

$$$$
76:0:1
     RDKit          3D

  5  5  0  0  0  0  0  0  0  0999 V2000
   -5.7090  353.0280   22.6060 C   0  0  0  0  0  3  0  0  0  0  0  0
   -6.3760  353.4350   21.4650 C   0  0  0  0  0  3  0  0  0  0  0  0
   -6.8410  352.2830   20.8640 C   0  0  0  0  0  3  0  0  0  0  0  0
   -6.4810  351.2510   21.5870 O   0  0  0  0  0  0  0  0  0  0  0  0
   -5.8050  351.6520   22.6340 C   0  0  0  0  0  3  0  0  0  0  0  0
  1  5  2  0
  2  1  1  0
  3  2  2  0
  3  4  1  0
  4  5  1  0
M  RAD  4   1   2   2   2   3   2   5   2
M  END
>  <MODEL>  (154) 
2

>  <TORSDO>  (154) 
F 0

>  <SCORE>  (154) 
-3.5

>  <ligand_id>  (154) 
76

>  <original_smiles>  (154) 
c1ccoc1

>  <smiles>  (154) 
c1ccoc1

$$$$
77:0:0
     RDKit          3D

 17 19  0  0  0  0  0  0  0  0999 V2000
    6.8410  335.2680   10.2600 N   0  0  0  0  0  0  0  0  0  0  0  0
    6.7090  335.0720   11.5890 C   0  0  0  0  0  3  0  0  0  0  0  0
    7.0180  336.2560   12.2380 C   0  0  0  0  0  3  0  0  0  0  0  0
    7.3290  337.1300   11.2070 C   0  0  0  0  0  0  0  0  0  0  0  0
    7.2160  336.5110   10.0180 N   0  0  0  0  0  0  0  0  0  0  0  0
    6.1670  332.3580    7.2470 C   0  0  0  0  0  3  0  0  0  0  0  0
    6.4250  333.6840    6.8900 C   0  0  0  0  0  3  0  0  0  0  0  0
    6.6470  334.6440    7.8810 C   0  0  0  0  0  3  0  0  0  0  0  0
    6.6120  334.2870    9.2380 C   0  0  0  0  0  0  0  0  0  0  0  0
    6.3530  332.9530    9.5870 C   0  0  0  0  0  3  0  0  0  0  0  0
    6.1300  331.9920    8.5960 C   0  0  0  0  0  3  0  0  0  0  0  0
    7.7310  338.5380   11.3640 C   0  0  0  0  0  0  0  0  0  0  0  0
    8.9280  338.9950   10.7980 C   0  0  0  0  0  3  0  0  0  0  0  0
    9.2970  340.3340   10.9550 C   0  0  0  0  0  3  0  0  0  0  0  0
    8.4960  341.1840   11.6520 N   0  0  0  0  0  0  0  0  0  0  0  0
    7.3290  340.7650   12.2100 C   0  0  0  0  0  3  0  0  0  0  0  0
    6.9260  339.4350   12.0760 C   0  0  0  0  0  3  0  0  0  0  0  0
  1  2  1  0
  2  3  2  0
  4 12  1  0
  4  3  1  0
  5  1  1  0
  5  4  2  0
  6 11  2  0
  7  6  1  0
  7  8  2  0
  8  9  1  0
  9 10  2  0
  9  1  1  0
 11 10  1  0
 12 17  2  0
 13 14  2  0
 13 12  1  0
 14 15  1  0
 15 16  2  0
 17 16  1  0
M  RAD  8   2   2   3   2   6   2   7   2   8   2  10   2  11   2  13   2
M  RAD  3  14   2  16   2  17   2
M  END
>  <MODEL>  (155) 
1

>  <TORSDO>  (155) 
F 2

>  <SCORE>  (155) 
-7.9

>  <ligand_id>  (155) 
77

>  <original_smiles>  (155) 
c1ccc(-n2ccc(-c3ccncc3)n2)cc1

>  <smiles>  (155) 
c1ccc(-n2ccc(-c3ccncc3)n2)cc1

$$$$
77:0:1
     RDKit          3D

 17 19  0  0  0  0  0  0  0  0999 V2000
   11.2880  326.1510    5.7250 N   0  0  0  0  0  0  0  0  0  0  0  0
   10.5000  325.1990    5.1850 C   0  0  0  0  0  3  0  0  0  0  0  0
   10.3170  324.1980    6.1260 C   0  0  0  0  0  3  0  0  0  0  0  0
   11.0430  324.6360    7.2230 C   0  0  0  0  0  0  0  0  0  0  0  0
   11.6230  325.8210    6.9590 N   0  0  0  0  0  0  0  0  0  0  0  0
   12.5420  329.7190    3.8010 C   0  0  0  0  0  3  0  0  0  0  0  0
   13.4920  328.7950    4.2420 C   0  0  0  0  0  3  0  0  0  0  0  0
   13.0810  327.6190    4.8770 C   0  0  0  0  0  3  0  0  0  0  0  0
   11.7160  327.3580    5.0750 C   0  0  0  0  0  0  0  0  0  0  0  0
   10.7700  328.2920    4.6280 C   0  0  0  0  0  3  0  0  0  0  0  0
   11.1810  329.4680    3.9930 C   0  0  0  0  0  3  0  0  0  0  0  0
   11.1770  323.9250    8.5060 C   0  0  0  0  0  0  0  0  0  0  0  0
   11.8300  322.6870    8.5590 C   0  0  0  0  0  3  0  0  0  0  0  0
   11.9490  322.0240    9.7820 C   0  0  0  0  0  3  0  0  0  0  0  0
   11.4350  322.5800   10.9130 N   0  0  0  0  0  0  0  0  0  0  0  0
   10.7980  323.7800   10.8880 C   0  0  0  0  0  3  0  0  0  0  0  0
   10.6580  324.4750    9.6840 C   0  0  0  0  0  3  0  0  0  0  0  0
  1  5  1  0
  2  1  1  0
  2  3  2  0
  3  4  1  0
  4 12  1  0
  5  4  2  0
  6 11  2  0
  6  7  1  0
  7  8  2  0
  8  9  1  0
  9  1  1  0
 10  9  2  0
 11 10  1  0
 12 13  2  0
 12 17  1  0
 13 14  1  0
 14 15  2  0
 16 15  1  0
 17 16  2  0
M  RAD  8   2   2   3   2   6   2   7   2   8   2  10   2  11   2  13   2
M  RAD  3  14   2  16   2  17   2
M  END
>  <MODEL>  (156) 
2

>  <TORSDO>  (156) 
F 2

>  <SCORE>  (156) 
-7.7

>  <ligand_id>  (156) 
77

>  <original_smiles>  (156) 
c1ccc(-n2ccc(-c3ccncc3)n2)cc1

>  <smiles>  (156) 
c1ccc(-n2ccc(-c3ccncc3)n2)cc1

$$$$
78:0:0
     RDKit          3D

  9 10  0  0  0  0  0  0  0  0999 V2000
   11.0240  353.0220   23.4470 C   0  0  0  0  0  3  0  0  0  0  0  0
   12.2460  353.6710   23.1490 C   0  0  0  0  0  3  0  0  0  0  0  0
   13.1580  353.9240   24.1370 N   0  0  0  0  0  0  0  0  0  0  0  0
   12.8660  353.5380   25.4030 C   0  0  0  0  0  0  0  0  0  0  0  0
   13.6340  353.7010   26.4900 N   0  0  0  0  0  0  0  0  0  0  0  0
   12.8670  353.1410   27.4670 C   0  0  0  0  0  3  0  0  0  0  0  0
   11.7150  352.6710   27.0060 O   0  0  0  0  0  0  0  0  0  0  0  0
   11.7100  352.9150   25.7240 C   0  0  0  0  0  0  0  0  0  0  0  0
   10.7420  352.6300   24.7690 C   0  0  0  0  0  3  0  0  0  0  0  0
  1  9  2  0
  2  1  1  0
  2  3  2  0
  3  4  1  0
  4  8  2  0
  4  5  1  0
  5  6  2  0
  7  6  1  0
  8  7  1  0
  9  8  1  0
M  RAD  4   1   2   2   2   6   2   9   2
M  END
>  <MODEL>  (157) 
1

>  <TORSDO>  (157) 
F 0

>  <SCORE>  (157) 
-5.3

>  <ligand_id>  (157) 
78

>  <original_smiles>  (157) 
c1cnc2ncoc2c1

>  <smiles>  (157) 
c1cnc2ncoc2c1

$$$$
78:0:1
     RDKit          3D

  9 10  0  0  0  0  0  0  0  0999 V2000
   -7.4900  354.4810   19.6280 C   0  0  0  0  0  3  0  0  0  0  0  0
   -7.9040  353.1860   19.2360 C   0  0  0  0  0  3  0  0  0  0  0  0
   -7.5360  352.0880   19.9650 N   0  0  0  0  0  0  0  0  0  0  0  0
   -6.7690  352.2690   21.0690 C   0  0  0  0  0  0  0  0  0  0  0  0
   -6.3170  351.3180   21.8990 N   0  0  0  0  0  0  0  0  0  0  0  0
   -5.6160  352.0470   22.8110 C   0  0  0  0  0  3  0  0  0  0  0  0
   -5.6410  353.3490   22.5540 O   0  0  0  0  0  0  0  0  0  0  0  0
   -6.3560  353.4920   21.4730 C   0  0  0  0  0  0  0  0  0  0  0  0
   -6.6940  354.6460   20.7770 C   0  0  0  0  0  3  0  0  0  0  0  0
  1  9  2  0
  2  1  1  0
  2  3  2  0
  3  4  1  0
  4  8  2  0
  4  5  1  0
  5  6  2  0
  7  6  1  0
  8  7  1  0
  9  8  1  0
M  RAD  4   1   2   2   2   6   2   9   2
M  END
>  <MODEL>  (158) 
2

>  <TORSDO>  (158) 
F 0

>  <SCORE>  (158) 
-5.3

>  <ligand_id>  (158) 
78

>  <original_smiles>  (158) 
c1cnc2ncoc2c1

>  <smiles>  (158) 
c1cnc2ncoc2c1

$$$$
79:0:0
     RDKit          3D

  9 10  0  0  0  0  0  0  0  0999 V2000
   12.0110  353.6710   23.0110 C   0  0  0  0  0  3  0  0  0  0  0  0
   10.8780  352.9260   23.4090 C   0  0  0  0  0  3  0  0  0  0  0  0
   10.7330  352.5230   24.7080 N   0  0  0  0  0  0  0  0  0  0  0  0
   11.6950  352.8530   25.6060 C   0  0  0  0  0  0  0  0  0  0  0  0
   11.7610  352.5610   26.9470 C   0  0  0  0  0  3  0  0  0  0  0  0
   12.9690  353.1550   27.3370 C   0  0  0  0  0  3  0  0  0  0  0  0
   13.5570  353.7440   26.3070 O   0  0  0  0  0  0  0  0  0  0  0  0
   12.7970  353.5660   25.2600 C   0  0  0  0  0  0  0  0  0  0  0  0
   13.0000  354.0030   23.9550 C   0  0  0  0  0  3  0  0  0  0  0  0
  1  2  2  0
  1  9  1  0
  2  3  1  0
  3  4  2  0
  4  5  1  0
  5  6  2  0
  7  6  1  0
  8  4  1  0
  8  7  1  0
  9  8  2  0
M  RAD  5   1   2   2   2   5   2   6   2   9   2
M  END
>  <MODEL>  (159) 
1

>  <TORSDO>  (159) 
F 0

>  <SCORE>  (159) 
-5.4

>  <ligand_id>  (159) 
79

>  <original_smiles>  (159) 
c1cnc2ccoc2c1

>  <smiles>  (159) 
c1cnc2ccoc2c1

$$$$
79:0:1
     RDKit          3D

  9 10  0  0  0  0  0  0  0  0999 V2000
    9.0340  324.8120    7.9370 C   0  0  0  0  0  3  0  0  0  0  0  0
    9.6560  324.0860    6.8960 C   0  0  0  0  0  3  0  0  0  0  0  0
   10.8330  323.4260    7.1170 N   0  0  0  0  0  0  0  0  0  0  0  0
   11.3900  323.4790    8.3520 C   0  0  0  0  0  0  0  0  0  0  0  0
   12.5530  322.9000    8.8010 C   0  0  0  0  0  3  0  0  0  0  0  0
   12.6060  323.3020   10.1410 C   0  0  0  0  0  3  0  0  0  0  0  0
   11.5590  324.0530   10.4480 O   0  0  0  0  0  0  0  0  0  0  0  0
   10.8220  324.1660    9.3760 C   0  0  0  0  0  0  0  0  0  0  0  0
    9.6270  324.8570    9.2120 C   0  0  0  0  0  3  0  0  0  0  0  0
  1  9  2  0
  2  3  2  0
  2  1  1  0
  3  4  1  0
  4  5  1  0
  4  8  2  0
  5  6  2  0
  6  7  1  0
  8  7  1  0
  9  8  1  0
M  RAD  5   1   2   2   2   5   2   6   2   9   2
M  END
>  <MODEL>  (160) 
2

>  <TORSDO>  (160) 
F 0

>  <SCORE>  (160) 
-4.9

>  <ligand_id>  (160) 
79

>  <original_smiles>  (160) 
c1cnc2ccoc2c1

>  <smiles>  (160) 
c1cnc2ccoc2c1

$$$$
80:0:0
     RDKit          3D

  8  9  0  0  0  0  0  0  0  0999 V2000
   -5.7880  351.7520   22.6820 C   0  0  0  0  0  3  0  0  0  0  0  0
   -5.7180  353.1490   22.5700 C   0  0  0  0  0  3  0  0  0  0  0  0
   -6.3500  353.4300   21.4270 N   0  0  0  0  0  0  0  0  0  0  0  0
   -6.6520  354.5410   20.7210 C   0  0  0  0  0  3  0  0  0  0  0  0
   -7.3600  354.2230   19.5460 C   0  0  0  0  0  3  0  0  0  0  0  0
   -7.5710  352.5200   19.4620 S   0  0  0  0  0  0  0  0  0  0  0  0
   -6.7590  352.3020   20.9050 C   0  0  0  0  0  0  0  0  0  0  0  0
   -6.4520  351.2120   21.6200 N   0  0  0  0  0  0  0  0  0  0  0  0
  2  1  2  0
  3  2  1  0
  4  3  1  0
  5  4  2  0
  6  5  1  0
  6  7  1  0
  7  3  1  0
  7  8  2  0
  8  1  1  0
M  RAD  4   1   2   2   2   4   2   5   2
M  END
>  <MODEL>  (161) 
1

>  <TORSDO>  (161) 
F 0

>  <SCORE>  (161) 
-4.5

>  <ligand_id>  (161) 
80

>  <original_smiles>  (161) 
c1cn2ccsc2n1

>  <smiles>  (161) 
c1cn2ccsc2n1

$$$$
80:0:1
     RDKit          3D

  8  9  0  0  0  0  0  0  0  0999 V2000
   11.6250  327.0390    5.1670 C   0  0  0  0  0  3  0  0  0  0  0  0
   12.1120  326.7810    6.4570 C   0  0  0  0  0  3  0  0  0  0  0  0
   11.5980  325.5910    6.7820 N   0  0  0  0  0  0  0  0  0  0  0  0
   11.6490  324.7570    7.8440 C   0  0  0  0  0  3  0  0  0  0  0  0
   10.8830  323.5970    7.6200 C   0  0  0  0  0  3  0  0  0  0  0  0
   10.1690  323.6900    6.0610 S   0  0  0  0  0  0  0  0  0  0  0  0
   10.8710  325.1780    5.7760 C   0  0  0  0  0  0  0  0  0  0  0  0
   10.8330  326.0160    4.7320 N   0  0  0  0  0  0  0  0  0  0  0  0
  1  2  2  0
  2  3  1  0
  3  4  1  0
  5  4  2  0
  6  5  1  0
  7  6  1  0
  7  3  1  0
  8  1  1  0
  8  7  2  0
M  RAD  4   1   2   2   2   4   2   5   2
M  END
>  <MODEL>  (162) 
2

>  <TORSDO>  (162) 
F 0

>  <SCORE>  (162) 
-3.9

>  <ligand_id>  (162) 
80

>  <original_smiles>  (162) 
c1cn2ccsc2n1

>  <smiles>  (162) 
c1cn2ccsc2n1

$$$$
81:0:0
     RDKit          3D

  9 10  0  0  0  0  0  0  0  0999 V2000
   12.0110  353.6710   23.0110 C   0  0  0  0  0  3  0  0  0  0  0  0
   10.8780  352.9260   23.4090 C   0  0  0  0  0  3  0  0  0  0  0  0
   10.7330  352.5230   24.7080 N   0  0  0  0  0  0  0  0  0  0  0  0
   11.6950  352.8530   25.6060 C   0  0  0  0  0  0  0  0  0  0  0  0
   11.7610  352.5610   26.9470 C   0  0  0  0  0  3  0  0  0  0  0  0
   12.9690  353.1550   27.3370 C   0  0  0  0  0  3  0  0  0  0  0  0
   13.5570  353.7440   26.3070 O   0  0  0  0  0  0  0  0  0  0  0  0
   12.7970  353.5660   25.2600 C   0  0  0  0  0  0  0  0  0  0  0  0
   13.0000  354.0030   23.9550 C   0  0  0  0  0  3  0  0  0  0  0  0
  1  2  2  0
  1  9  1  0
  2  3  1  0
  3  4  2  0
  4  5  1  0
  5  6  2  0
  7  6  1  0
  8  4  1  0
  8  7  1  0
  9  8  2  0
M  RAD  5   1   2   2   2   5   2   6   2   9   2
M  END
>  <MODEL>  (163) 
1

>  <TORSDO>  (163) 
F 0

>  <SCORE>  (163) 
-5.4

>  <ligand_id>  (163) 
81

>  <original_smiles>  (163) 
c1cnc2ccoc2c1

>  <smiles>  (163) 
c1cnc2ccoc2c1

$$$$
81:0:1
     RDKit          3D

  9 10  0  0  0  0  0  0  0  0999 V2000
    9.0340  324.8120    7.9370 C   0  0  0  0  0  3  0  0  0  0  0  0
    9.6560  324.0860    6.8960 C   0  0  0  0  0  3  0  0  0  0  0  0
   10.8330  323.4260    7.1170 N   0  0  0  0  0  0  0  0  0  0  0  0
   11.3900  323.4790    8.3520 C   0  0  0  0  0  0  0  0  0  0  0  0
   12.5530  322.9000    8.8010 C   0  0  0  0  0  3  0  0  0  0  0  0
   12.6060  323.3020   10.1410 C   0  0  0  0  0  3  0  0  0  0  0  0
   11.5590  324.0530   10.4480 O   0  0  0  0  0  0  0  0  0  0  0  0
   10.8220  324.1660    9.3760 C   0  0  0  0  0  0  0  0  0  0  0  0
    9.6270  324.8570    9.2120 C   0  0  0  0  0  3  0  0  0  0  0  0
  1  9  2  0
  2  3  2  0
  2  1  1  0
  3  4  1  0
  4  5  1  0
  4  8  2  0
  5  6  2  0
  6  7  1  0
  8  7  1  0
  9  8  1  0
M  RAD  5   1   2   2   2   5   2   6   2   9   2
M  END
>  <MODEL>  (164) 
2

>  <TORSDO>  (164) 
F 0

>  <SCORE>  (164) 
-4.9

>  <ligand_id>  (164) 
81

>  <original_smiles>  (164) 
c1cnc2ccoc2c1

>  <smiles>  (164) 
c1cnc2ccoc2c1

$$$$
82:0:0
     RDKit          3D

  9 10  0  0  0  0  0  0  0  0999 V2000
   11.3200  351.6020   27.0760 C   0  0  0  0  0  3  0  0  0  0  0  0
   10.5750  351.5240   25.8830 C   0  0  0  0  0  3  0  0  0  0  0  0
   10.8690  352.3580   24.8460 N   0  0  0  0  0  0  0  0  0  0  0  0
   11.8610  353.2340   24.9850 N   0  0  0  0  0  0  0  0  0  0  0  0
   12.3050  354.1330   24.0990 C   0  0  0  0  0  3  0  0  0  0  0  0
   13.3540  354.7990   24.7340 C   0  0  0  0  0  3  0  0  0  0  0  0
   13.5370  354.3070   25.9870 N   0  0  0  0  0  0  0  0  0  0  0  0
   12.5980  353.3530   26.0910 C   0  0  0  0  0  0  0  0  0  0  0  0
   12.3600  352.5370   27.1910 C   0  0  0  0  0  3  0  0  0  0  0  0
  1  9  2  0
  2  1  1  0
  3  4  1  0
  3  2  2  0
  4  8  1  0
  5  6  2  0
  5  4  1  0
  6  7  1  0
  7  8  2  0
  8  9  1  0
M  RAD  5   1   2   2   2   5   2   6   2   9   2
M  END
>  <MODEL>  (165) 
1

>  <TORSDO>  (165) 
F 0

>  <SCORE>  (165) 
-5.1

>  <ligand_id>  (165) 
82

>  <original_smiles>  (165) 
c1cnn2ccnc2c1

>  <smiles>  (165) 
c1cnn2ccnc2c1

$$$$
82:0:1
     RDKit          3D

  9 10  0  0  0  0  0  0  0  0999 V2000
   -7.7350  353.5330   19.0000 C   0  0  0  0  0  3  0  0  0  0  0  0
   -7.2910  354.7120   19.6310 C   0  0  0  0  0  3  0  0  0  0  0  0
   -6.6420  354.6340   20.8270 N   0  0  0  0  0  0  0  0  0  0  0  0
   -6.4410  353.4380   21.3750 N   0  0  0  0  0  0  0  0  0  0  0  0
   -5.8330  353.1460   22.5310 C   0  0  0  0  0  3  0  0  0  0  0  0
   -5.8870  351.7570   22.6430 C   0  0  0  0  0  3  0  0  0  0  0  0
   -6.5210  351.2200   21.5670 N   0  0  0  0  0  0  0  0  0  0  0  0
   -6.8400  352.2910   20.8240 C   0  0  0  0  0  0  0  0  0  0  0  0
   -7.5080  352.2870   19.6040 C   0  0  0  0  0  3  0  0  0  0  0  0
  1  9  2  0
  1  2  1  0
  2  3  2  0
  3  4  1  0
  4  5  1  0
  5  6  2  0
  7  6  1  0
  8  4  1  0
  8  7  2  0
  9  8  1  0
M  RAD  5   1   2   2   2   5   2   6   2   9   2
M  END
>  <MODEL>  (166) 
2

>  <TORSDO>  (166) 
F 0

>  <SCORE>  (166) 
-4.9

>  <ligand_id>  (166) 
82

>  <original_smiles>  (166) 
c1cnn2ccnc2c1

>  <smiles>  (166) 
c1cnn2ccnc2c1

$$$$
83:0:0
     RDKit          3D

 11 12  0  0  0  0  0  0  0  0999 V2000
    6.1470  332.2060    9.2860 F   0  0  0  0  0  0  0  0  0  0  0  0
    6.6150  333.4280    8.9310 C   0  0  0  0  0  0  0  0  0  0  0  0
    6.9370  333.6840    7.5930 C   0  0  0  0  0  3  0  0  0  0  0  0
    7.4200  334.9400    7.2120 C   0  0  0  0  0  3  0  0  0  0  0  0
    7.5860  335.9500    8.1650 C   0  0  0  0  0  3  0  0  0  0  0  0
    7.2670  335.7030    9.5020 C   0  0  0  0  0  0  0  0  0  0  0  0
    7.4220  336.6730   10.4410 N   0  0  0  0  0  0  0  0  0  0  0  0
    7.1140  336.4430   11.7450 C   0  0  0  0  0  3  0  0  0  0  0  0
    6.6310  335.1900   12.1290 C   0  0  0  0  0  3  0  0  0  0  0  0
    6.4730  334.2130   11.1960 N   0  0  0  0  0  0  0  0  0  0  0  0
    6.7790  334.4360    9.8900 C   0  0  0  0  0  0  0  0  0  0  0  0
  2  1  1  0
  2 11  2  0
  3  2  1  0
  4  3  2  0
  4  5  1  0
  5  6  2  0
  6 11  1  0
  6  7  1  0
  7  8  2  0
  8  9  1  0
 10  9  2  0
 11 10  1  0
M  RAD  5   3   2   4   2   5   2   8   2   9   2
M  END
>  <MODEL>  (167) 
1

>  <TORSDO>  (167) 
F 0

>  <SCORE>  (167) 
-5.7

>  <ligand_id>  (167) 
83

>  <original_smiles>  (167) 
Fc1cccc2nccnc12

>  <smiles>  (167) 
Fc1cccc2nccnc12

$$$$
83:0:1
     RDKit          3D

 11 12  0  0  0  0  0  0  0  0999 V2000
   10.3490  325.2710    8.0580 F   0  0  0  0  0  0  0  0  0  0  0  0
   10.8880  324.2720    8.7980 C   0  0  0  0  0  0  0  0  0  0  0  0
   11.5990  323.2460    8.1640 C   0  0  0  0  0  3  0  0  0  0  0  0
   12.1610  322.2090    8.9150 C   0  0  0  0  0  3  0  0  0  0  0  0
   12.0160  322.1880   10.3060 C   0  0  0  0  0  3  0  0  0  0  0  0
   11.3080  323.2080   10.9470 C   0  0  0  0  0  0  0  0  0  0  0  0
   11.1580  323.2020   12.2970 N   0  0  0  0  0  0  0  0  0  0  0  0
   10.4710  324.1900   12.9310 C   0  0  0  0  0  3  0  0  0  0  0  0
    9.9080  325.2270   12.1840 C   0  0  0  0  0  3  0  0  0  0  0  0
   10.0540  325.2400   10.8320 N   0  0  0  0  0  0  0  0  0  0  0  0
   10.7390  324.2560   10.1920 C   0  0  0  0  0  0  0  0  0  0  0  0
  1  2  1  0
  2 11  2  0
  3  2  1  0
  3  4  2  0
  4  5  1  0
  5  6  2  0
  6  7  1  0
  7  8  2  0
  9  8  1  0
 10  9  2  0
 11 10  1  0
 11  6  1  0
M  RAD  5   3   2   4   2   5   2   8   2   9   2
M  END
>  <MODEL>  (168) 
2

>  <TORSDO>  (168) 
F 0

>  <SCORE>  (168) 
-5.6

>  <ligand_id>  (168) 
83

>  <original_smiles>  (168) 
Fc1cccc2nccnc12

>  <smiles>  (168) 
Fc1cccc2nccnc12

$$$$
84:0:0
     RDKit          3D

 15 17  0  0  0  0  0  0  0  0999 V2000
    8.1390  336.9520    8.5490 C   0  0  0  0  0  0  0  0  0  0  0  0
    8.1080  337.0460    7.1490 C   0  0  0  0  0  3  0  0  0  0  0  0
    7.6200  335.9790    6.3940 C   0  0  0  0  0  3  0  0  0  0  0  0
    7.1670  334.8290    7.0370 C   0  0  0  0  0  0  0  0  0  0  0  0
    6.6870  333.7760    6.3230 N   0  0  0  0  0  0  0  0  0  0  0  0
    6.2420  332.6470    6.9390 C   0  0  0  0  0  3  0  0  0  0  0  0
    6.2700  332.5470    8.3340 C   0  0  0  0  0  3  0  0  0  0  0  0
    6.7590  333.6150    9.0890 C   0  0  0  0  0  3  0  0  0  0  0  0
    7.2120  334.7660    8.4450 C   0  0  0  0  0  0  0  0  0  0  0  0
    7.6920  335.8180    9.1580 N   0  0  0  0  0  0  0  0  0  0  0  0
    9.8370  339.1820   11.0200 C   0  0  0  0  0  3  0  0  0  0  0  0
    9.2270  340.2810   10.4170 C   0  0  0  0  0  3  0  0  0  0  0  0
    8.2910  339.6940    9.1490 S   0  0  0  0  0  0  0  0  0  0  0  0
    8.6510  338.0670    9.3600 C   0  0  0  0  0  0  0  0  0  0  0  0
    9.5190  337.9480   10.4350 C   0  0  0  0  0  3  0  0  0  0  0  0
  1 10  1  0
  1 14  1  0
  2  1  2  0
  3  4  2  0
  3  2  1  0
  4  9  1  0
  5  6  2  0
  5  4  1  0
  6  7  1  0
  7  8  2  0
  9  8  1  0
  9 10  2  0
 12 11  2  0
 13 14  1  0
 13 12  1  0
 14 15  2  0
 15 11  1  0
M  RAD  8   2   2   3   2   6   2   7   2   8   2  11   2  12   2  15   2
M  END
>  <MODEL>  (169) 
1

>  <TORSDO>  (169) 
F 1

>  <SCORE>  (169) 
-7.2

>  <ligand_id>  (169) 
84

>  <original_smiles>  (169) 
c1csc(-c2ccc3ncccc3n2)c1

>  <smiles>  (169) 
c1csc(-c2ccc3ncccc3n2)c1

$$$$
84:0:1
     RDKit          3D

 15 17  0  0  0  0  0  0  0  0999 V2000
    7.1190  334.7830    7.4180 C   0  0  0  0  0  0  0  0  0  0  0  0
    6.7030  333.5140    7.8470 C   0  0  0  0  0  3  0  0  0  0  0  0
    6.4850  333.2790    9.2050 C   0  0  0  0  0  3  0  0  0  0  0  0
    6.6840  334.3080   10.1240 C   0  0  0  0  0  0  0  0  0  0  0  0
    6.4780  334.1040   11.4530 N   0  0  0  0  0  0  0  0  0  0  0  0
    6.6690  335.1000   12.3600 C   0  0  0  0  0  3  0  0  0  0  0  0
    7.0850  336.3670   11.9390 C   0  0  0  0  0  3  0  0  0  0  0  0
    7.3020  336.6020   10.5800 C   0  0  0  0  0  3  0  0  0  0  0  0
    7.1030  335.5720    9.6600 C   0  0  0  0  0  0  0  0  0  0  0  0
    7.3090  335.7760    8.3330 N   0  0  0  0  0  0  0  0  0  0  0  0
    7.8410  336.2340    4.0510 C   0  0  0  0  0  3  0  0  0  0  0  0
    7.6530  334.9720    3.4900 C   0  0  0  0  0  3  0  0  0  0  0  0
    7.2800  333.9200    4.7480 S   0  0  0  0  0  0  0  0  0  0  0  0
    7.3540  335.0480    5.9910 C   0  0  0  0  0  0  0  0  0  0  0  0
    7.6750  336.2810    5.4430 C   0  0  0  0  0  3  0  0  0  0  0  0
  1  2  2  0
  1 10  1  0
  2  3  1  0
  3  4  2  0
  4  5  1  0
  5  6  2  0
  7  6  1  0
  8  7  2  0
  9  4  1  0
  9  8  1  0
 10  9  2  0
 11 15  1  0
 12 11  2  0
 12 13  1  0
 13 14  1  0
 14  1  1  0
 15 14  2  0
M  RAD  8   2   2   3   2   6   2   7   2   8   2  11   2  12   2  15   2
M  END
>  <MODEL>  (170) 
2

>  <TORSDO>  (170) 
F 1

>  <SCORE>  (170) 
-7.1

>  <ligand_id>  (170) 
84

>  <original_smiles>  (170) 
c1csc(-c2ccc3ncccc3n2)c1

>  <smiles>  (170) 
c1csc(-c2ccc3ncccc3n2)c1

$$$$
85:0:0
     RDKit          3D

 10 11  0  0  0  0  0  0  0  0999 V2000
   12.2290  322.1370    8.9370 C   0  0  0  0  0  3  0  0  0  0  0  0
   11.5810  323.1080    8.1670 C   0  0  0  0  0  3  0  0  0  0  0  0
   10.8520  324.0890    8.7670 N   0  0  0  0  0  0  0  0  0  0  0  0
   10.7340  324.1530   10.1210 C   0  0  0  0  0  0  0  0  0  0  0  0
   10.0030  325.1370   10.7050 N   0  0  0  0  0  0  0  0  0  0  0  0
    9.8810  325.2070   12.0580 C   0  0  0  0  0  3  0  0  0  0  0  0
   10.5150  324.2530   12.8610 C   0  0  0  0  0  2  0  0  0  0  0  0
   11.2480  323.2650   12.2800 N   0  0  0  0  0  0  0  0  0  0  0  0
   11.3720  323.1930   10.9290 C   0  0  0  0  0  0  0  0  0  0  0  0
   12.1220  322.1810   10.3290 C   0  0  0  0  0  2  0  0  0  0  0  0
  1 10  1  0
  2  3  1  0
  2  1  2  0
  3  4  2  0
  4  5  1  0
  4  9  1  0
  5  6  2  0
  6  7  1  0
  8  7  1  0
  9  8  2  0
 10  9  1  0
M  RAD  5   1   2   2   2   6   2   7   3  10   3
M  END
>  <MODEL>  (171) 
1

>  <TORSDO>  (171) 
F 0

>  <SCORE>  (171) 
-5.0

>  <ligand_id>  (171) 
85

>  <original_smiles>  (171) 
c1cnc2nccnc2c1

>  <smiles>  (171) 
c1cnc2nccnc2c1

$$$$
85:0:1
     RDKit          3D

 10 11  0  0  0  0  0  0  0  0999 V2000
   12.4730  322.7380   10.1690 C   0  0  0  0  0  3  0  0  0  0  0  0
   11.7420  323.6110   10.9810 C   0  0  0  0  0  3  0  0  0  0  0  0
   10.7320  324.3570   10.4540 N   0  0  0  0  0  0  0  0  0  0  0  0
   10.4080  324.2770    9.1360 C   0  0  0  0  0  0  0  0  0  0  0  0
    9.3990  325.0280    8.6250 N   0  0  0  0  0  0  0  0  0  0  0  0
    9.0690  324.9520    7.3080 C   0  0  0  0  0  3  0  0  0  0  0  0
    9.7780  324.0900    6.4650 C   0  0  0  0  0  2  0  0  0  0  0  0
   10.7900  323.3350    6.9720 N   0  0  0  0  0  0  0  0  0  0  0  0
   11.1220  323.4090    8.2870 C   0  0  0  0  0  0  0  0  0  0  0  0
   12.1600  322.6370    8.8110 C   0  0  0  0  0  2  0  0  0  0  0  0
  1  2  2  0
  3  2  1  0
  4  3  2  0
  5  4  1  0
  6  5  2  0
  7  8  1  0
  7  6  1  0
  8  9  2  0
  9 10  1  0
  9  4  1  0
 10  1  1  0
M  RAD  5   1   2   2   2   6   2   7   3  10   3
M  END
>  <MODEL>  (172) 
2

>  <TORSDO>  (172) 
F 0

>  <SCORE>  (172) 
-5.0

>  <ligand_id>  (172) 
85

>  <original_smiles>  (172) 
c1cnc2nccnc2c1

>  <smiles>  (172) 
c1cnc2nccnc2c1

$$$$
86:0:0
     RDKit          3D

  9 10  0  0  0  0  0  0  0  0999 V2000
   12.0550  353.7390   22.9430 C   0  0  0  0  0  3  0  0  0  0  0  0
   10.9110  352.9680   23.2350 C   0  0  0  0  0  3  0  0  0  0  0  0
   10.6920  352.5070   24.5010 N   0  0  0  0  0  0  0  0  0  0  0  0
   11.5910  352.7980   25.4730 C   0  0  0  0  0  0  0  0  0  0  0  0
   11.5440  352.3500   27.0840 S   0  0  0  0  0  0  0  0  0  0  0  0
   13.0050  353.1460   27.4310 C   0  0  0  0  0  3  0  0  0  0  0  0
   13.5150  353.7440   26.3220 N   0  0  0  0  0  0  0  0  0  0  0  0
   12.7220  353.5460   25.2390 C   0  0  0  0  0  0  0  0  0  0  0  0
   12.9790  354.0340   23.9590 C   0  0  0  0  0  3  0  0  0  0  0  0
  1  2  2  0
  1  9  1  0
  2  3  1  0
  3  4  2  0
  4  5  1  0
  5  6  1  0
  7  6  2  0
  8  4  1  0
  8  7  1  0
  9  8  2  0
M  RAD  4   1   2   2   2   6   2   9   2
M  END
>  <MODEL>  (173) 
1

>  <TORSDO>  (173) 
F 0

>  <SCORE>  (173) 
-5.3

>  <ligand_id>  (173) 
86

>  <original_smiles>  (173) 
c1cnc2scnc2c1

>  <smiles>  (173) 
c1cnc2scnc2c1

$$$$
86:0:1
     RDKit          3D

  9 10  0  0  0  0  0  0  0  0999 V2000
    8.9770  324.8550    7.8260 C   0  0  0  0  0  3  0  0  0  0  0  0
    9.6220  324.1170    6.8110 C   0  0  0  0  0  3  0  0  0  0  0  0
   10.7730  323.4350    7.0770 N   0  0  0  0  0  0  0  0  0  0  0  0
   11.2900  323.4760    8.3290 C   0  0  0  0  0  0  0  0  0  0  0  0
   12.6770  322.7310    8.8950 S   0  0  0  0  0  0  0  0  0  0  0  0
   12.4680  323.3510   10.4630 C   0  0  0  0  0  3  0  0  0  0  0  0
   11.3480  324.1170   10.5430 N   0  0  0  0  0  0  0  0  0  0  0  0
   10.6990  324.1820    9.3530 C   0  0  0  0  0  0  0  0  0  0  0  0
    9.5230  324.8900    9.1190 C   0  0  0  0  0  3  0  0  0  0  0  0
  1  9  2  0
  2  3  2  0
  2  1  1  0
  3  4  1  0
  4  5  1  0
  4  8  2  0
  5  6  1  0
  6  7  2  0
  8  7  1  0
  9  8  1  0
M  RAD  4   1   2   2   2   6   2   9   2
M  END
>  <MODEL>  (174) 
2

>  <TORSDO>  (174) 
F 0

>  <SCORE>  (174) 
-4.7

>  <ligand_id>  (174) 
86

>  <original_smiles>  (174) 
c1cnc2scnc2c1

>  <smiles>  (174) 
c1cnc2scnc2c1

$$$$
87:0:0
     RDKit          3D

 10 11  0  0  0  0  0  0  0  0999 V2000
   11.9740  352.5900   27.6040 C   0  0  0  0  0  3  0  0  0  0  0  0
   13.1580  353.2930   27.3520 C   0  0  0  0  0  3  0  0  0  0  0  0
   13.4460  353.7210   26.0920 N   0  0  0  0  0  0  0  0  0  0  0  0
   12.6010  353.4800   25.0560 C   0  0  0  0  0  0  0  0  0  0  0  0
   12.8960  353.9170   23.7670 C   0  0  0  0  0  3  0  0  0  0  0  0
   12.0290  353.6590   22.7530 N   0  0  0  0  0  0  0  0  0  0  0  0
   10.8720  352.9770   22.9750 C   0  0  0  0  0  3  0  0  0  0  0  0
   10.5630  352.5400   24.2260 N   0  0  0  0  0  0  0  0  0  0  0  0
   11.4020  352.7770   25.2670 C   0  0  0  0  0  0  0  0  0  0  0  0
   11.0910  352.3310   26.5510 C   0  0  0  0  0  3  0  0  0  0  0  0
  2  1  2  0
  3  2  1  0
  4  9  1  0
  4  3  2  0
  5  4  1  0
  6  7  1  0
  6  5  2  0
  7  8  2  0
  8  9  1  0
  9 10  2  0
 10  1  1  0
M  RAD  5   1   2   2   2   5   2   7   2  10   2
M  END
>  <MODEL>  (175) 
1

>  <TORSDO>  (175) 
F 0

>  <SCORE>  (175) 
-5.5

>  <ligand_id>  (175) 
87

>  <original_smiles>  (175) 
c1cnc2cncnc2c1

>  <smiles>  (175) 
c1cnc2cncnc2c1

$$$$
87:0:1
     RDKit          3D

 10 11  0  0  0  0  0  0  0  0999 V2000
   12.8850  353.3020   27.7160 C   0  0  0  0  0  3  0  0  0  0  0  0
   11.7260  352.5170   27.7550 C   0  0  0  0  0  3  0  0  0  0  0  0
   11.0370  352.2560   26.6110 N   0  0  0  0  0  0  0  0  0  0  0  0
   11.4510  352.7440   25.4120 C   0  0  0  0  0  0  0  0  0  0  0  0
   10.7450  352.4770   24.2420 C   0  0  0  0  0  3  0  0  0  0  0  0
   11.1860  352.9820   23.0590 N   0  0  0  0  0  0  0  0  0  0  0  0
   12.3110  353.7470   22.9980 C   0  0  0  0  0  3  0  0  0  0  0  0
   13.0160  354.0200   24.1290 N   0  0  0  0  0  0  0  0  0  0  0  0
   12.6090  353.5360   25.3310 C   0  0  0  0  0  0  0  0  0  0  0  0
   13.3280  353.8140   26.4930 C   0  0  0  0  0  3  0  0  0  0  0  0
  1  2  2  0
  3  2  1  0
  4  3  2  0
  5  4  1  0
  6  5  2  0
  7  6  1  0
  7  8  2  0
  8  9  1  0
  9  4  1  0
  9 10  2  0
 10  1  1  0
M  RAD  5   1   2   2   2   5   2   7   2  10   2
M  END
>  <MODEL>  (176) 
2

>  <TORSDO>  (176) 
F 0

>  <SCORE>  (176) 
-5.1

>  <ligand_id>  (176) 
87

>  <original_smiles>  (176) 
c1cnc2cncnc2c1

>  <smiles>  (176) 
c1cnc2cncnc2c1

$$$$
88:0:0
     RDKit          3D

 13 15  0  0  0  0  0  0  0  0999 V2000
    6.8530  335.5420   12.3160 C   0  0  0  0  0  3  0  0  0  0  0  0
    6.5300  334.2750   11.8350 C   0  0  0  0  0  3  0  0  0  0  0  0
    6.5380  333.8070   10.5270 C   0  0  0  0  0  3  0  0  0  0  0  0
    6.8790  334.5100    9.3820 C   0  0  0  0  0  0  0  0  0  0  0  0
    6.8450  333.9300    8.1500 N   0  0  0  0  0  0  0  0  0  0  0  0
    7.2250  334.8880    7.3290 N   0  0  0  0  0  0  0  0  0  0  0  0
    7.4040  334.9880    6.0110 C   0  0  0  0  0  3  0  0  0  0  0  0
    7.8250  336.3110    5.8050 C   0  0  0  0  0  3  0  0  0  0  0  0
    7.8840  336.9830    7.0480 C   0  0  0  0  0  3  0  0  0  0  0  0
    7.4920  336.0080    7.9330 C   0  0  0  0  0  0  0  0  0  0  0  0
    7.2920  335.8520    9.2810 C   0  0  0  0  0  0  0  0  0  0  0  0
    7.4720  336.8220   10.2540 C   0  0  0  0  0  3  0  0  0  0  0  0
    7.2710  336.6720   11.6190 C   0  0  0  0  0  3  0  0  0  0  0  0
  2  1  1  0
  3  2  2  0
  4  3  1  0
  5  4  2  0
  6 10  1  0
  6  5  1  0
  7  6  1  0
  8  7  2  0
  8  9  1  0
  9 10  2  0
 10 11  1  0
 11  4  1  0
 11 12  2  0
 12 13  1  0
 13  1  2  0
M  RAD  8   1   2   2   2   3   2   7   2   8   2   9   2  12   2  13   2
M  END
>  <MODEL>  (177) 
1

>  <TORSDO>  (177) 
F 0

>  <SCORE>  (177) 
-7.7

>  <ligand_id>  (177) 
88

>  <original_smiles>  (177) 
c1ccc2nn3cccc3c2cc1

>  <smiles>  (177) 
c1ccc2nn3cccc3c2cc1

$$$$
88:0:1
     RDKit          3D

 13 15  0  0  0  0  0  0  0  0999 V2000
    6.6680  334.9810   12.2500 C   0  0  0  0  0  3  0  0  0  0  0  0
    7.1150  336.2910   12.0910 C   0  0  0  0  0  3  0  0  0  0  0  0
    7.4740  336.9590   10.9270 C   0  0  0  0  0  3  0  0  0  0  0  0
    7.4690  336.4600    9.6330 C   0  0  0  0  0  0  0  0  0  0  0  0
    7.8470  337.2250    8.5710 N   0  0  0  0  0  0  0  0  0  0  0  0
    7.7130  336.4260    7.5310 N   0  0  0  0  0  0  0  0  0  0  0  0
    7.9110  336.5440    6.2180 C   0  0  0  0  0  3  0  0  0  0  0  0
    7.5640  335.2900    5.6900 C   0  0  0  0  0  3  0  0  0  0  0  0
    7.1570  334.4350    6.7400 C   0  0  0  0  0  3  0  0  0  0  0  0
    7.2870  335.2390    7.8460 C   0  0  0  0  0  0  0  0  0  0  0  0
    7.0990  335.1720    9.2040 C   0  0  0  0  0  0  0  0  0  0  0  0
    6.6530  334.0710    9.9160 C   0  0  0  0  0  3  0  0  0  0  0  0
    6.4620  333.9950   11.2890 C   0  0  0  0  0  3  0  0  0  0  0  0
  2  1  1  0
  3  2  2  0
  4  3  1  0
  5  4  2  0
  6 10  1  0
  6  5  1  0
  7  6  1  0
  8  7  2  0
  8  9  1  0
  9 10  2  0
 10 11  1  0
 11  4  1  0
 11 12  2  0
 12 13  1  0
 13  1  2  0
M  RAD  8   1   2   2   2   3   2   7   2   8   2   9   2  12   2  13   2
M  END
>  <MODEL>  (178) 
2

>  <TORSDO>  (178) 
F 0

>  <SCORE>  (178) 
-7.5

>  <ligand_id>  (178) 
88

>  <original_smiles>  (178) 
c1ccc2nn3cccc3c2cc1

>  <smiles>  (178) 
c1ccc2nn3cccc3c2cc1

$$$$
89:0:0
     RDKit          3D

 13 14  0  0  0  0  0  0  0  0999 V2000
    6.4920  333.1020    9.0720 C   0  0  0  0  0  0  0  0  0  0  0  0
    6.4820  333.6630   10.3520 C   0  0  0  0  0  3  0  0  0  0  0  0
    6.8430  335.0010   10.5400 C   0  0  0  0  0  0  0  0  0  0  0  0
    6.8260  335.6920   12.1480 Cl  0  0  0  0  0  0  0  0  0  0  0  0
    7.2190  335.7880    9.4470 C   0  0  0  0  0  3  0  0  0  0  0  0
    7.2330  335.2360    8.1650 C   0  0  0  0  0  0  0  0  0  0  0  0
    7.6040  336.0070    7.0640 C   0  0  0  0  0  3  0  0  0  0  0  0
    7.6120  335.4370    5.7900 C   0  0  0  0  0  3  0  0  0  0  0  0
    7.2450  334.0970    5.6330 C   0  0  0  0  0  3  0  0  0  0  0  0
    6.8850  333.3550    6.7150 N   0  0  0  0  0  0  0  0  0  0  0  0
    6.8680  333.8840    7.9700 C   0  0  0  0  0  0  0  0  0  0  0  0
    6.1290  331.7710    8.9020 O   0  0  0  0  0  0  0  0  0  0  0  0
    5.3220  331.4170    9.3520 H   0  0  0  0  0  0  0  0  0  0  0  0
  1  2  2  0
  2  3  1  0
  3  4  1  0
  5  3  2  0
  6  5  1  0
  7  6  2  0
  8  7  1  0
  9  8  2  0
  9 10  1  0
 10 11  2  0
 11  6  1  0
 11  1  1  0
 12  1  1  0
 12 13  1  0
M  RAD  5   2   2   5   2   7   2   8   2   9   2
M  END
>  <MODEL>  (179) 
1

>  <TORSDO>  (179) 
F 1

>  <SCORE>  (179) 
-6.5

>  <ligand_id>  (179) 
89

>  <original_smiles>  (179) 
Oc1cc(Cl)cc2cccnc12

>  <smiles>  (179) 
Oc1cc(Cl)cc2cccnc12

$$$$
89:0:1
     RDKit          3D

 13 14  0  0  0  0  0  0  0  0999 V2000
    6.6740  333.7410    8.6590 C   0  0  0  0  0  0  0  0  0  0  0  0
    7.0200  334.2720    7.4130 C   0  0  0  0  0  3  0  0  0  0  0  0
    7.4720  335.5920    7.3080 C   0  0  0  0  0  0  0  0  0  0  0  0
    7.9020  336.2460    5.7440 Cl  0  0  0  0  0  0  0  0  0  0  0  0
    7.5800  336.3900    8.4510 C   0  0  0  0  0  3  0  0  0  0  0  0
    7.2360  335.8680    9.7000 C   0  0  0  0  0  0  0  0  0  0  0  0
    7.3400  336.6510   10.8500 C   0  0  0  0  0  3  0  0  0  0  0  0
    6.9910  336.1110   12.0890 C   0  0  0  0  0  3  0  0  0  0  0  0
    6.5430  334.7880   12.1610 C   0  0  0  0  0  3  0  0  0  0  0  0
    6.4470  334.0350   11.0330 N   0  0  0  0  0  0  0  0  0  0  0  0
    6.7800  334.5350    9.8100 C   0  0  0  0  0  0  0  0  0  0  0  0
    6.2280  332.4270    8.7460 O   0  0  0  0  0  0  0  0  0  0  0  0
    5.9920  332.0420    9.6260 H   0  0  0  0  0  0  0  0  0  0  0  0
  1 12  1  0
  1 11  2  0
  2  1  1  0
  3  2  2  0
  3  5  1  0
  4  3  1  0
  5  6  2  0
  6 11  1  0
  6  7  1  0
  7  8  2  0
  8  9  1  0
 10  9  2  0
 11 10  1  0
 12 13  1  0
M  RAD  5   2   2   5   2   7   2   8   2   9   2
M  END
>  <MODEL>  (180) 
2

>  <TORSDO>  (180) 
F 1

>  <SCORE>  (180) 
-6.4

>  <ligand_id>  (180) 
89

>  <original_smiles>  (180) 
Oc1cc(Cl)cc2cccnc12

>  <smiles>  (180) 
Oc1cc(Cl)cc2cccnc12

$$$$
90:0:0
     RDKit          3D

  9 10  0  0  0  0  0  0  0  0999 V2000
   13.0660  354.8900   25.5720 C   0  0  0  0  0  3  0  0  0  0  0  0
   13.4810  354.5060   26.8630 C   0  0  0  0  0  3  0  0  0  0  0  0
   12.9730  353.3830   27.4510 N   0  0  0  0  0  0  0  0  0  0  0  0
   12.0620  352.6490   26.7680 C   0  0  0  0  0  0  0  0  0  0  0  0
   11.4320  351.4950   27.1750 C   0  0  0  0  0  3  0  0  0  0  0  0
   10.6180  351.1980   26.0730 C   0  0  0  0  0  3  0  0  0  0  0  0
   10.7760  352.1300   25.0990 N   0  0  0  0  0  0  0  0  0  0  0  0
   11.6580  352.9990   25.5470 N   0  0  0  0  0  0  0  0  0  0  0  0
   12.1210  354.0980   24.9060 C   0  0  0  0  0  3  0  0  0  0  0  0
  1  2  1  0
  2  3  2  0
  4  5  2  0
  4  3  1  0
  6  5  1  0
  7  8  1  0
  7  6  2  0
  8  4  1  0
  9  8  1  0
  9  1  2  0
M  RAD  5   1   2   2   2   5   2   6   2   9   2
M  END
>  <MODEL>  (181) 
1

>  <TORSDO>  (181) 
F 0

>  <SCORE>  (181) 
-5.1

>  <ligand_id>  (181) 
90

>  <original_smiles>  (181) 
c1cnc2ccnn2c1

>  <smiles>  (181) 
c1cnc2ccnn2c1

$$$$
90:0:1
     RDKit          3D

  9 10  0  0  0  0  0  0  0  0999 V2000
    9.0280  324.8380    8.0140 C   0  0  0  0  0  3  0  0  0  0  0  0
    9.6320  324.1340    6.9530 C   0  0  0  0  0  3  0  0  0  0  0  0
   10.8080  323.4660    7.1430 N   0  0  0  0  0  0  0  0  0  0  0  0
   11.3790  323.4940    8.3710 C   0  0  0  0  0  0  0  0  0  0  0  0
   12.5510  322.8940    8.7710 C   0  0  0  0  0  3  0  0  0  0  0  0
   12.6270  323.2650   10.1200 C   0  0  0  0  0  3  0  0  0  0  0  0
   11.5620  324.0320   10.4660 N   0  0  0  0  0  0  0  0  0  0  0  0
   10.8200  324.1550    9.3850 N   0  0  0  0  0  0  0  0  0  0  0  0
    9.6570  324.8380    9.2660 C   0  0  0  0  0  3  0  0  0  0  0  0
  1  9  2  0
  2  3  2  0
  2  1  1  0
  3  4  1  0
  4  5  2  0
  4  8  1  0
  5  6  1  0
  6  7  2  0
  8  7  1  0
  9  8  1  0
M  RAD  5   1   2   2   2   5   2   6   2   9   2
M  END
>  <MODEL>  (182) 
2

>  <TORSDO>  (182) 
F 0

>  <SCORE>  (182) 
-4.7

>  <ligand_id>  (182) 
90

>  <original_smiles>  (182) 
c1cnc2ccnn2c1

>  <smiles>  (182) 
c1cnc2ccnn2c1

$$$$
