0:0:0
     RDKit          3D

  9 10  0  0  0  0  0  0  0  0999 V2000
   12.0110  353.6710   23.0110 C   0  0  0  0  0  3  0  0  0  0  0  0
   10.8780  352.9260   23.4090 C   0  0  0  0  0  3  0  0  0  0  0  0
   10.7330  352.5230   24.7080 N   0  0  0  0  0  0  0  0  0  0  0  0
   11.6950  352.8530   25.6060 C   0  0  0  0  0  0  0  0  0  0  0  0
   11.7610  352.5610   26.9470 C   0  0  0  0  0  3  0  0  0  0  0  0
   12.9690  353.1550   27.3370 C   0  0  0  0  0  3  0  0  0  0  0  0
   13.5570  353.7440   26.3070 O   0  0  0  0  0  0  0  0  0  0  0  0
   12.7970  353.5660   25.2600 C   0  0  0  0  0  0  0  0  0  0  0  0
   13.0000  354.0030   23.9550 C   0  0  0  0  0  3  0  0  0  0  0  0
  1  2  2  0
  1  9  1  0
  2  3  1  0
  3  4  2  0
  4  5  1  0
  5  6  2  0
  7  6  1  0
  8  4  1  0
  8  7  1  0
  9  8  2  0
M  RAD  5   1   2   2   2   5   2   6   2   9   2
M  END
>  <MODEL>  (1) 
1

>  <TORSDO>  (1) 
F 0

>  <SCORE>  (1) 
-5.4

>  <ligand_id>  (1) 
0

>  <original_smiles>  (1) 
c1cnc2ccoc2c1

>  <smiles>  (1) 
c1cnc2ccoc2c1

$$$$
0:0:1
     RDKit          3D

  9 10  0  0  0  0  0  0  0  0999 V2000
    9.0340  324.8120    7.9370 C   0  0  0  0  0  3  0  0  0  0  0  0
    9.6560  324.0860    6.8960 C   0  0  0  0  0  3  0  0  0  0  0  0
   10.8330  323.4260    7.1170 N   0  0  0  0  0  0  0  0  0  0  0  0
   11.3900  323.4790    8.3520 C   0  0  0  0  0  0  0  0  0  0  0  0
   12.5530  322.9000    8.8010 C   0  0  0  0  0  3  0  0  0  0  0  0
   12.6060  323.3020   10.1410 C   0  0  0  0  0  3  0  0  0  0  0  0
   11.5590  324.0530   10.4480 O   0  0  0  0  0  0  0  0  0  0  0  0
   10.8220  324.1660    9.3760 C   0  0  0  0  0  0  0  0  0  0  0  0
    9.6270  324.8570    9.2120 C   0  0  0  0  0  3  0  0  0  0  0  0
  1  9  2  0
  2  3  2  0
  2  1  1  0
  3  4  1  0
  4  5  1  0
  4  8  2  0
  5  6  2  0
  6  7  1  0
  8  7  1  0
  9  8  1  0
M  RAD  5   1   2   2   2   5   2   6   2   9   2
M  END
>  <MODEL>  (2) 
2

>  <TORSDO>  (2) 
F 0

>  <SCORE>  (2) 
-4.9

>  <ligand_id>  (2) 
0

>  <original_smiles>  (2) 
c1cnc2ccoc2c1

>  <smiles>  (2) 
c1cnc2ccoc2c1

$$$$
1:0:0
     RDKit          3D

 13 15  0  0  0  0  0  0  0  0999 V2000
    6.6840  335.1570   12.3110 C   0  0  0  0  0  3  0  0  0  0  0  0
    7.0940  336.4450   11.9130 C   0  0  0  0  0  3  0  0  0  0  0  0
    7.3380  336.7050   10.5570 C   0  0  0  0  0  2  0  0  0  0  0  0
    7.1650  335.6860    9.6780 N   0  0  0  0  0  0  0  0  0  0  0  0
    6.7730  334.4400   10.0320 C   0  0  0  0  0  0  0  0  0  0  0  0
    6.5180  334.1320   11.3670 C   0  0  0  0  0  3  0  0  0  0  0  0
    6.6640  333.5770    8.9880 N   0  0  0  0  0  0  0  0  0  0  0  0
    7.0160  334.3650    7.9460 C   0  0  0  0  0  0  0  0  0  0  0  0
    7.0780  333.9940    6.6430 N   0  0  0  0  0  0  0  0  0  0  0  0
    7.4550  334.9240    5.7120 C   0  0  0  0  0  3  0  0  0  0  0  0
    7.7750  336.2470    6.1000 C   0  0  0  0  0  2  0  0  0  0  0  0
    7.7070  336.6200    7.4550 C   0  0  0  0  0  3  0  0  0  0  0  0
    7.3180  335.6330    8.3530 C   0  0  0  0  0  0  0  0  0  0  0  0
  2  1  2  0
  3  2  1  0
  4  5  1  0
  4  3  1  0
  5  6  2  0
  6  1  1  0
  7  5  1  0
  8 13  1  0
  8  7  2  0
  9  8  1  0
 10 11  1  0
 10  9  2  0
 11 12  1  0
 12 13  2  0
 13  4  1  0
M  RAD  7   1   2   2   2   3   3   6   2  10   2  11   3  12   2
M  END
>  <MODEL>  (3) 
1

>  <TORSDO>  (3) 
F 0

>  <SCORE>  (3) 
-6.9

>  <ligand_id>  (3) 
1

>  <original_smiles>  (3) 
c1ccn2c(c1)nc1ncccc12

>  <smiles>  (3) 
c1ccn2c(c1)nc1ncccc12

$$$$
1:0:1
     RDKit          3D

 13 15  0  0  0  0  0  0  0  0999 V2000
    7.5550  335.3810    5.7250 C   0  0  0  0  0  3  0  0  0  0  0  0
    7.8310  336.6440    6.2850 C   0  0  0  0  0  3  0  0  0  0  0  0
    7.7090  336.8290    7.6690 C   0  0  0  0  0  2  0  0  0  0  0  0
    7.3220  335.7650    8.4170 N   0  0  0  0  0  0  0  0  0  0  0  0
    7.0500  334.5420    7.9060 C   0  0  0  0  0  0  0  0  0  0  0  0
    7.1580  334.3060    6.5380 C   0  0  0  0  0  3  0  0  0  0  0  0
    6.6820  333.6240    8.8380 N   0  0  0  0  0  0  0  0  0  0  0  0
    6.7390  334.3520    9.9770 C   0  0  0  0  0  0  0  0  0  0  0  0
    6.4600  333.9120   11.2280 N   0  0  0  0  0  0  0  0  0  0  0  0
    6.5710  334.7890   12.2730 C   0  0  0  0  0  3  0  0  0  0  0  0
    6.9660  336.1300   12.0540 C   0  0  0  0  0  2  0  0  0  0  0  0
    7.2520  336.5760   10.7500 C   0  0  0  0  0  3  0  0  0  0  0  0
    7.1230  335.6400    9.7310 C   0  0  0  0  0  0  0  0  0  0  0  0
  1  2  2  0
  1  6  1  0
  2  3  1  0
  3  4  1  0
  4 13  1  0
  5  4  1  0
  5  7  1  0
  6  5  2  0
  7  8  2  0
  8  9  1  0
  9 10  2  0
 11 10  1  0
 12 11  1  0
 13  8  1  0
 13 12  2  0
M  RAD  7   1   2   2   2   3   3   6   2  10   2  11   3  12   2
M  END
>  <MODEL>  (4) 
2

>  <TORSDO>  (4) 
F 0

>  <SCORE>  (4) 
-6.7

>  <ligand_id>  (4) 
1

>  <original_smiles>  (4) 
c1ccn2c(c1)nc1ncccc12

>  <smiles>  (4) 
c1ccn2c(c1)nc1ncccc12

$$$$
2:0:0
     RDKit          3D

 10 11  0  0  0  0  0  0  0  0999 V2000
    7.6260  335.5300    7.2540 C   0  0  0  0  0  3  0  0  0  0  0  0
    7.1700  334.2180    7.4180 C   0  0  0  0  0  3  0  0  0  0  0  0
    6.8040  333.7670    8.6480 N   0  0  0  0  0  0  0  0  0  0  0  0
    6.8720  334.5690    9.7450 C   0  0  0  0  0  0  0  0  0  0  0  0
    6.4940  334.0920   11.0000 C   0  0  0  0  0  3  0  0  0  0  0  0
    6.5730  334.9360   12.1110 C   0  0  0  0  0  3  0  0  0  0  0  0
    7.0300  336.2480   11.9480 C   0  0  0  0  0  3  0  0  0  0  0  0
    7.3940  336.6990   10.7170 N   0  0  0  0  0  0  0  0  0  0  0  0
    7.3270  335.8970    9.6200 C   0  0  0  0  0  0  0  0  0  0  0  0
    7.7050  336.3730    8.3650 C   0  0  0  0  0  3  0  0  0  0  0  0
  1  2  2  0
  1 10  1  0
  2  3  1  0
  3  4  2  0
  4  5  1  0
  5  6  2  0
  7  6  1  0
  8  7  2  0
  9  4  1  0
  9  8  1  0
 10  9  2  0
M  RAD  6   1   2   2   2   5   2   6   2   7   2  10   2
M  END
>  <MODEL>  (5) 
1

>  <TORSDO>  (5) 
F 0

>  <SCORE>  (5) 
-5.3

>  <ligand_id>  (5) 
2

>  <original_smiles>  (5) 
c1cnc2cccnc2c1

>  <smiles>  (5) 
c1cnc2cccnc2c1

$$$$
2:0:1
     RDKit          3D

 10 11  0  0  0  0  0  0  0  0999 V2000
    7.1810  334.2590    7.3800 C   0  0  0  0  0  3  0  0  0  0  0  0
    7.6410  335.5780    7.3070 C   0  0  0  0  0  3  0  0  0  0  0  0
    7.6970  336.3490    8.4270 N   0  0  0  0  0  0  0  0  0  0  0  0
    7.3110  335.8650    9.6380 C   0  0  0  0  0  0  0  0  0  0  0  0
    7.3740  336.6670   10.7780 C   0  0  0  0  0  3  0  0  0  0  0  0
    6.9710  336.1470   12.0110 C   0  0  0  0  0  3  0  0  0  0  0  0
    6.5110  334.8270   12.0840 C   0  0  0  0  0  3  0  0  0  0  0  0
    6.4560  334.0570   10.9640 N   0  0  0  0  0  0  0  0  0  0  0  0
    6.8420  334.5410    9.7530 C   0  0  0  0  0  0  0  0  0  0  0  0
    6.7790  333.7390    8.6120 C   0  0  0  0  0  3  0  0  0  0  0  0
  1 10  2  0
  2  1  1  0
  2  3  2  0
  3  4  1  0
  4  9  2  0
  4  5  1  0
  5  6  2  0
  6  7  1  0
  8  7  2  0
  9  8  1  0
 10  9  1  0
M  RAD  6   1   2   2   2   5   2   6   2   7   2  10   2
M  END
>  <MODEL>  (6) 
2

>  <TORSDO>  (6) 
F 0

>  <SCORE>  (6) 
-5.3

>  <ligand_id>  (6) 
2

>  <original_smiles>  (6) 
c1cnc2cccnc2c1

>  <smiles>  (6) 
c1cnc2cccnc2c1

$$$$
3:0:0
     RDKit          3D

  9 10  0  0  0  0  0  0  0  0999 V2000
   11.3200  351.6020   27.0760 C   0  0  0  0  0  3  0  0  0  0  0  0
   10.5750  351.5240   25.8830 C   0  0  0  0  0  3  0  0  0  0  0  0
   10.8690  352.3580   24.8460 N   0  0  0  0  0  0  0  0  0  0  0  0
   11.8610  353.2340   24.9850 N   0  0  0  0  0  0  0  0  0  0  0  0
   12.3050  354.1330   24.0990 C   0  0  0  0  0  3  0  0  0  0  0  0
   13.3540  354.7990   24.7340 C   0  0  0  0  0  3  0  0  0  0  0  0
   13.5370  354.3070   25.9870 N   0  0  0  0  0  0  0  0  0  0  0  0
   12.5980  353.3530   26.0910 C   0  0  0  0  0  0  0  0  0  0  0  0
   12.3600  352.5370   27.1910 C   0  0  0  0  0  3  0  0  0  0  0  0
  1  9  2  0
  2  1  1  0
  3  4  1  0
  3  2  2  0
  4  8  1  0
  5  6  2  0
  5  4  1  0
  6  7  1  0
  7  8  2  0
  8  9  1  0
M  RAD  5   1   2   2   2   5   2   6   2   9   2
M  END
>  <MODEL>  (7) 
1

>  <TORSDO>  (7) 
F 0

>  <SCORE>  (7) 
-5.1

>  <ligand_id>  (7) 
3

>  <original_smiles>  (7) 
c1cnn2ccnc2c1

>  <smiles>  (7) 
c1cnn2ccnc2c1

$$$$
3:0:1
     RDKit          3D

  9 10  0  0  0  0  0  0  0  0999 V2000
   -7.7350  353.5330   19.0000 C   0  0  0  0  0  3  0  0  0  0  0  0
   -7.2910  354.7120   19.6310 C   0  0  0  0  0  3  0  0  0  0  0  0
   -6.6420  354.6340   20.8270 N   0  0  0  0  0  0  0  0  0  0  0  0
   -6.4410  353.4380   21.3750 N   0  0  0  0  0  0  0  0  0  0  0  0
   -5.8330  353.1460   22.5310 C   0  0  0  0  0  3  0  0  0  0  0  0
   -5.8870  351.7570   22.6430 C   0  0  0  0  0  3  0  0  0  0  0  0
   -6.5210  351.2200   21.5670 N   0  0  0  0  0  0  0  0  0  0  0  0
   -6.8400  352.2910   20.8240 C   0  0  0  0  0  0  0  0  0  0  0  0
   -7.5080  352.2870   19.6040 C   0  0  0  0  0  3  0  0  0  0  0  0
  1  9  2  0
  1  2  1  0
  2  3  2  0
  3  4  1  0
  4  5  1  0
  5  6  2  0
  7  6  1  0
  8  4  1  0
  8  7  2  0
  9  8  1  0
M  RAD  5   1   2   2   2   5   2   6   2   9   2
M  END
>  <MODEL>  (8) 
2

>  <TORSDO>  (8) 
F 0

>  <SCORE>  (8) 
-4.9

>  <ligand_id>  (8) 
3

>  <original_smiles>  (8) 
c1cnn2ccnc2c1

>  <smiles>  (8) 
c1cnn2ccnc2c1

$$$$
4:0:0
     RDKit          3D

 10 11  0  0  0  0  0  0  0  0999 V2000
   11.9940  353.7280   22.8180 C   0  0  0  0  0  3  0  0  0  0  0  0
   10.8980  352.9440   23.1930 C   0  0  0  0  0  3  0  0  0  0  0  0
   10.7410  352.5580   24.4890 N   0  0  0  0  0  0  0  0  0  0  0  0
   11.6360  352.9190   25.4470 C   0  0  0  0  0  0  0  0  0  0  0  0
   11.4660  352.5190   26.7690 C   0  0  0  0  0  3  0  0  0  0  0  0
   12.4090  352.9120   27.7200 C   0  0  0  0  0  3  0  0  0  0  0  0
   13.4710  353.6750   27.3410 N   0  0  0  0  0  0  0  0  0  0  0  0
   13.6380  354.0610   26.0740 N   0  0  0  0  0  0  0  0  0  0  0  0
   12.7510  353.7060   25.1090 C   0  0  0  0  0  0  0  0  0  0  0  0
   12.9270  354.1110   23.7870 C   0  0  0  0  0  3  0  0  0  0  0  0
  1  2  2  0
  1 10  1  0
  2  3  1  0
  3  4  2  0
  4  5  1  0
  5  6  2  0
  7  6  1  0
  8  7  2  0
  9  4  1  0
  9  8  1  0
 10  9  2  0
M  RAD  5   1   2   2   2   5   2   6   2  10   2
M  END
>  <MODEL>  (9) 
1

>  <TORSDO>  (9) 
F 0

>  <SCORE>  (9) 
-6.2

>  <ligand_id>  (9) 
4

>  <original_smiles>  (9) 
c1cnc2ccnnc2c1

>  <smiles>  (9) 
c1cnc2ccnnc2c1

$$$$
4:0:1
     RDKit          3D

 10 11  0  0  0  0  0  0  0  0999 V2000
   -7.8340  354.1620   18.9990 C   0  0  0  0  0  3  0  0  0  0  0  0
   -7.2770  355.1790   19.7830 C   0  0  0  0  0  3  0  0  0  0  0  0
   -6.6000  354.8730   20.9240 N   0  0  0  0  0  0  0  0  0  0  0  0
   -6.4460  353.5840   21.3310 C   0  0  0  0  0  0  0  0  0  0  0  0
   -5.7520  353.2840   22.4990 C   0  0  0  0  0  3  0  0  0  0  0  0
   -5.6190  351.9480   22.8790 C   0  0  0  0  0  3  0  0  0  0  0  0
   -6.1660  350.9690   22.1080 N   0  0  0  0  0  0  0  0  0  0  0  0
   -6.8330  351.2530   20.9870 N   0  0  0  0  0  0  0  0  0  0  0  0
   -6.9920  352.5360   20.5700 C   0  0  0  0  0  0  0  0  0  0  0  0
   -7.6890  352.8300   19.3990 C   0  0  0  0  0  3  0  0  0  0  0  0
  1 10  2  0
  1  2  1  0
  2  3  2  0
  3  4  1  0
  4  5  2  0
  5  6  1  0
  7  6  2  0
  8  7  1  0
  9  8  2  0
  9  4  1  0
 10  9  1  0
M  RAD  5   1   2   2   2   5   2   6   2  10   2
M  END
>  <MODEL>  (10) 
2

>  <TORSDO>  (10) 
F 0

>  <SCORE>  (10) 
-5.8

>  <ligand_id>  (10) 
4

>  <original_smiles>  (10) 
c1cnc2ccnnc2c1

>  <smiles>  (10) 
c1cnc2ccnnc2c1

$$$$
5:0:0
     RDKit          3D

 10 11  0  0  0  0  0  0  0  0999 V2000
    7.6260  335.5300    7.2540 C   0  0  0  0  0  3  0  0  0  0  0  0
    7.1700  334.2180    7.4180 C   0  0  0  0  0  3  0  0  0  0  0  0
    6.8040  333.7670    8.6480 N   0  0  0  0  0  0  0  0  0  0  0  0
    6.8720  334.5690    9.7450 C   0  0  0  0  0  0  0  0  0  0  0  0
    6.4940  334.0920   11.0000 C   0  0  0  0  0  3  0  0  0  0  0  0
    6.5730  334.9360   12.1110 C   0  0  0  0  0  3  0  0  0  0  0  0
    7.0300  336.2480   11.9480 C   0  0  0  0  0  3  0  0  0  0  0  0
    7.3940  336.6990   10.7170 N   0  0  0  0  0  0  0  0  0  0  0  0
    7.3270  335.8970    9.6200 C   0  0  0  0  0  0  0  0  0  0  0  0
    7.7050  336.3730    8.3650 C   0  0  0  0  0  3  0  0  0  0  0  0
  1  2  2  0
  1 10  1  0
  2  3  1  0
  3  4  2  0
  4  5  1  0
  5  6  2  0
  7  6  1  0
  8  7  2  0
  9  4  1  0
  9  8  1  0
 10  9  2  0
M  RAD  6   1   2   2   2   5   2   6   2   7   2  10   2
M  END
>  <MODEL>  (11) 
1

>  <TORSDO>  (11) 
F 0

>  <SCORE>  (11) 
-5.3

>  <ligand_id>  (11) 
5

>  <original_smiles>  (11) 
c1cnc2cccnc2c1

>  <smiles>  (11) 
c1cnc2cccnc2c1

$$$$
5:0:1
     RDKit          3D

 10 11  0  0  0  0  0  0  0  0999 V2000
    7.1810  334.2590    7.3800 C   0  0  0  0  0  3  0  0  0  0  0  0
    7.6410  335.5780    7.3070 C   0  0  0  0  0  3  0  0  0  0  0  0
    7.6970  336.3490    8.4270 N   0  0  0  0  0  0  0  0  0  0  0  0
    7.3110  335.8650    9.6380 C   0  0  0  0  0  0  0  0  0  0  0  0
    7.3740  336.6670   10.7780 C   0  0  0  0  0  3  0  0  0  0  0  0
    6.9710  336.1470   12.0110 C   0  0  0  0  0  3  0  0  0  0  0  0
    6.5110  334.8270   12.0840 C   0  0  0  0  0  3  0  0  0  0  0  0
    6.4560  334.0570   10.9640 N   0  0  0  0  0  0  0  0  0  0  0  0
    6.8420  334.5410    9.7530 C   0  0  0  0  0  0  0  0  0  0  0  0
    6.7790  333.7390    8.6120 C   0  0  0  0  0  3  0  0  0  0  0  0
  1 10  2  0
  2  1  1  0
  2  3  2  0
  3  4  1  0
  4  9  2  0
  4  5  1  0
  5  6  2  0
  6  7  1  0
  8  7  2  0
  9  8  1  0
 10  9  1  0
M  RAD  6   1   2   2   2   5   2   6   2   7   2  10   2
M  END
>  <MODEL>  (12) 
2

>  <TORSDO>  (12) 
F 0

>  <SCORE>  (12) 
-5.3

>  <ligand_id>  (12) 
5

>  <original_smiles>  (12) 
c1cnc2cccnc2c1

>  <smiles>  (12) 
c1cnc2cccnc2c1

$$$$
6:0:0
     RDKit          3D

  9 10  0  0  0  0  0  0  0  0999 V2000
    8.8930  324.9740    7.6960 C   0  0  0  0  0  3  0  0  0  0  0  0
    9.5190  324.3060    6.6790 N   0  0  0  0  0  0  0  0  0  0  0  0
   10.6480  323.5710    6.9010 C   0  0  0  0  0  3  0  0  0  0  0  0
   11.1580  323.5140    8.1920 C   0  0  0  0  0  0  0  0  0  0  0  0
   12.2940  322.8230    8.6200 C   0  0  0  0  0  3  0  0  0  0  0  0
   12.5240  322.9780    9.9940 C   0  0  0  0  0  3  0  0  0  0  0  0
   11.3080  323.9720   10.6400 S   0  0  0  0  0  0  0  0  0  0  0  0
   10.5080  324.1960    9.1910 C   0  0  0  0  0  0  0  0  0  0  0  0
    9.3880  324.9220    8.9650 N   0  0  0  0  0  0  0  0  0  0  0  0
  1  9  2  0
  2  3  2  0
  2  1  1  0
  3  4  1  0
  4  5  1  0
  4  8  2  0
  5  6  2  0
  6  7  1  0
  8  7  1  0
  9  8  1  0
M  RAD  4   1   2   3   2   5   2   6   2
M  END
>  <MODEL>  (13) 
1

>  <TORSDO>  (13) 
F 0

>  <SCORE>  (13) 
-4.6

>  <ligand_id>  (13) 
6

>  <original_smiles>  (13) 
c1ncc2ccsc2n1

>  <smiles>  (13) 
c1ncc2ccsc2n1

$$$$
6:0:1
     RDKit          3D

  9 10  0  0  0  0  0  0  0  0999 V2000
    9.6040  324.0740    6.5900 C   0  0  0  0  0  3  0  0  0  0  0  0
    8.9320  324.8170    7.5220 N   0  0  0  0  0  0  0  0  0  0  0  0
    9.3800  324.9190    8.8080 C   0  0  0  0  0  3  0  0  0  0  0  0
   10.5440  324.2470    9.1590 C   0  0  0  0  0  0  0  0  0  0  0  0
   11.1600  324.2250   10.4120 C   0  0  0  0  0  3  0  0  0  0  0  0
   12.3250  323.4450   10.4180 C   0  0  0  0  0  3  0  0  0  0  0  0
   12.5570  322.8020    8.8640 S   0  0  0  0  0  0  0  0  0  0  0  0
   11.1960  323.5080    8.2020 C   0  0  0  0  0  0  0  0  0  0  0  0
   10.7470  323.4110    6.9280 N   0  0  0  0  0  0  0  0  0  0  0  0
  1  9  2  0
  1  2  1  0
  2  3  2  0
  3  4  1  0
  4  5  1  0
  5  6  2  0
  7  6  1  0
  8  7  1  0
  8  4  2  0
  9  8  1  0
M  RAD  4   1   2   3   2   5   2   6   2
M  END
>  <MODEL>  (14) 
2

>  <TORSDO>  (14) 
F 0

>  <SCORE>  (14) 
-4.6

>  <ligand_id>  (14) 
6

>  <original_smiles>  (14) 
c1ncc2ccsc2n1

>  <smiles>  (14) 
c1ncc2ccsc2n1

$$$$
7:0:0
     RDKit          3D

  9 10  0  0  0  0  0  0  0  0999 V2000
   12.0110  353.6710   23.0110 C   0  0  0  0  0  3  0  0  0  0  0  0
   10.8780  352.9260   23.4090 C   0  0  0  0  0  3  0  0  0  0  0  0
   10.7330  352.5230   24.7080 N   0  0  0  0  0  0  0  0  0  0  0  0
   11.6950  352.8530   25.6060 C   0  0  0  0  0  0  0  0  0  0  0  0
   11.7610  352.5610   26.9470 C   0  0  0  0  0  3  0  0  0  0  0  0
   12.9690  353.1550   27.3370 C   0  0  0  0  0  3  0  0  0  0  0  0
   13.5570  353.7440   26.3070 O   0  0  0  0  0  0  0  0  0  0  0  0
   12.7970  353.5660   25.2600 C   0  0  0  0  0  0  0  0  0  0  0  0
   13.0000  354.0030   23.9550 C   0  0  0  0  0  3  0  0  0  0  0  0
  1  2  2  0
  1  9  1  0
  2  3  1  0
  3  4  2  0
  4  5  1  0
  5  6  2  0
  7  6  1  0
  8  4  1  0
  8  7  1  0
  9  8  2  0
M  RAD  5   1   2   2   2   5   2   6   2   9   2
M  END
>  <MODEL>  (15) 
1

>  <TORSDO>  (15) 
F 0

>  <SCORE>  (15) 
-5.4

>  <ligand_id>  (15) 
7

>  <original_smiles>  (15) 
c1cnc2ccoc2c1

>  <smiles>  (15) 
c1cnc2ccoc2c1

$$$$
7:0:1
     RDKit          3D

  9 10  0  0  0  0  0  0  0  0999 V2000
    9.0340  324.8120    7.9370 C   0  0  0  0  0  3  0  0  0  0  0  0
    9.6560  324.0860    6.8960 C   0  0  0  0  0  3  0  0  0  0  0  0
   10.8330  323.4260    7.1170 N   0  0  0  0  0  0  0  0  0  0  0  0
   11.3900  323.4790    8.3520 C   0  0  0  0  0  0  0  0  0  0  0  0
   12.5530  322.9000    8.8010 C   0  0  0  0  0  3  0  0  0  0  0  0
   12.6060  323.3020   10.1410 C   0  0  0  0  0  3  0  0  0  0  0  0
   11.5590  324.0530   10.4480 O   0  0  0  0  0  0  0  0  0  0  0  0
   10.8220  324.1660    9.3760 C   0  0  0  0  0  0  0  0  0  0  0  0
    9.6270  324.8570    9.2120 C   0  0  0  0  0  3  0  0  0  0  0  0
  1  9  2  0
  2  3  2  0
  2  1  1  0
  3  4  1  0
  4  5  1  0
  4  8  2  0
  5  6  2  0
  6  7  1  0
  8  7  1  0
  9  8  1  0
M  RAD  5   1   2   2   2   5   2   6   2   9   2
M  END
>  <MODEL>  (16) 
2

>  <TORSDO>  (16) 
F 0

>  <SCORE>  (16) 
-4.9

>  <ligand_id>  (16) 
7

>  <original_smiles>  (16) 
c1cnc2ccoc2c1

>  <smiles>  (16) 
c1cnc2ccoc2c1

$$$$
8:0:0
     RDKit          3D

 13 14  0  0  0  0  0  0  0  0999 V2000
   10.1630  323.6810    6.0130 S   0  0  0  0  0  0  0  0  0  0  0  0
   10.9150  324.3320   10.4650 C   0  0  0  0  0  3  0  0  0  0  0  0
    9.8130  324.9370    9.8600 C   0  0  0  0  0  3  0  0  0  0  0  0
    9.5740  324.7450    8.4980 C   0  0  0  0  0  3  0  0  0  0  0  0
   10.4490  323.9430    7.7590 C   0  0  0  0  0  0  0  0  0  0  0  0
   11.5190  323.3630    8.3660 N   0  0  0  0  0  0  0  0  0  0  0  0
   11.7680  323.5390    9.6920 C   0  0  0  0  0  3  0  0  0  0  0  0
   10.6560  325.3480    5.5890 C   0  0  0  0  0  0  0  0  0  0  0  0
    9.7680  326.1900    4.9150 C   0  0  0  0  0  3  0  0  0  0  0  0
   10.1700  327.4870    4.5930 C   0  0  0  0  0  3  0  0  0  0  0  0
   11.4480  327.9270    4.9460 C   0  0  0  0  0  3  0  0  0  0  0  0
   12.3060  327.0560    5.6210 C   0  0  0  0  0  3  0  0  0  0  0  0
   11.8960  325.7950    5.9270 N   0  0  0  0  0  0  0  0  0  0  0  0
  1  5  1  0
  3  2  2  0
  4  3  1  0
  5  6  1  0
  5  4  2  0
  6  7  2  0
  7  2  1  0
  8 13  1  0
  8  1  1  0
  9  8  2  0
 10  9  1  0
 10 11  2  0
 11 12  1  0
 12 13  2  0
M  RAD  8   2   2   3   2   4   2   7   2   9   2  10   2  11   2  12   2
M  END
>  <MODEL>  (17) 
1

>  <TORSDO>  (17) 
F 2

>  <SCORE>  (17) 
-6.0

>  <ligand_id>  (17) 
8

>  <original_smiles>  (17) 
c1ccc(Sc2ccccn2)nc1

>  <smiles>  (17) 
c1ccc(Sc2ccccn2)nc1

$$$$
8:0:1
     RDKit          3D

 13 14  0  0  0  0  0  0  0  0999 V2000
    8.0780  337.3130    7.9350 S   0  0  0  0  0  0  0  0  0  0  0  0
    6.5870  333.9020   10.5720 C   0  0  0  0  0  3  0  0  0  0  0  0
    6.9570  333.6370    9.2530 C   0  0  0  0  0  3  0  0  0  0  0  0
    7.4140  334.6740    8.4380 C   0  0  0  0  0  3  0  0  0  0  0  0
    7.4950  335.9680    8.9610 C   0  0  0  0  0  0  0  0  0  0  0  0
    7.1260  336.2070   10.2480 N   0  0  0  0  0  0  0  0  0  0  0  0
    6.6790  335.2090   11.0570 C   0  0  0  0  0  3  0  0  0  0  0  0
    8.5220  338.3180    9.3460 C   0  0  0  0  0  0  0  0  0  0  0  0
    9.6970  338.0520   10.0530 C   0  0  0  0  0  3  0  0  0  0  0  0
   10.0270  338.8470   11.1510 C   0  0  0  0  0  3  0  0  0  0  0  0
    9.1860  339.8950   11.5290 C   0  0  0  0  0  3  0  0  0  0  0  0
    8.0210  340.1320   10.7960 C   0  0  0  0  0  3  0  0  0  0  0  0
    7.7150  339.3460    9.7280 N   0  0  0  0  0  0  0  0  0  0  0  0
  1  5  1  0
  1  8  1  0
  2  7  2  0
  3  2  1  0
  4  5  1  0
  4  3  2  0
  5  6  2  0
  6  7  1  0
  8 13  1  0
  8  9  2  0
  9 10  1  0
 10 11  2  0
 12 11  1  0
 13 12  2  0
M  RAD  8   2   2   3   2   4   2   7   2   9   2  10   2  11   2  12   2
M  END
>  <MODEL>  (18) 
2

>  <TORSDO>  (18) 
F 2

>  <SCORE>  (18) 
-5.5

>  <ligand_id>  (18) 
8

>  <original_smiles>  (18) 
c1ccc(Sc2ccccn2)nc1

>  <smiles>  (18) 
c1ccc(Sc2ccccn2)nc1

$$$$
9:0:0
     RDKit          3D

 10 11  0  0  0  0  0  0  0  0999 V2000
    6.5160  334.7490   12.0950 C   0  0  0  0  0  3  0  0  0  0  0  0
    6.9340  336.0850   12.0880 C   0  0  0  0  0  3  0  0  0  0  0  0
    7.3370  336.6900   10.8920 C   0  0  0  0  0  3  0  0  0  0  0  0
    7.3210  335.9580    9.7010 C   0  0  0  0  0  0  0  0  0  0  0  0
    7.7110  336.5370    8.5340 N   0  0  0  0  0  0  0  0  0  0  0  0
    7.7050  335.8480    7.3610 C   0  0  0  0  0  3  0  0  0  0  0  0
    7.2940  334.5120    7.3310 C   0  0  0  0  0  3  0  0  0  0  0  0
    6.8890  333.8910    8.5150 C   0  0  0  0  0  3  0  0  0  0  0  0
    6.8990  334.6100    9.7100 C   0  0  0  0  0  0  0  0  0  0  0  0
    6.4980  334.0110   10.9070 C   0  0  0  0  0  3  0  0  0  0  0  0
  2  1  2  0
  3  2  1  0
  4  9  1  0
  4  3  2  0
  5  4  1  0
  6  5  2  0
  7  6  1  0
  7  8  2  0
  8  9  1  0
  9 10  2  0
 10  1  1  0
M  RAD  7   1   2   2   2   3   2   6   2   7   2   8   2  10   2
M  END
>  <MODEL>  (19) 
1

>  <TORSDO>  (19) 
F 0

>  <SCORE>  (19) 
-6.3

>  <ligand_id>  (19) 
9

>  <original_smiles>  (19) 
c1ccc2ncccc2c1

>  <smiles>  (19) 
c1ccc2ncccc2c1

$$$$
9:0:1
     RDKit          3D

 10 11  0  0  0  0  0  0  0  0999 V2000
    7.1500  334.0290    7.4090 C   0  0  0  0  0  3  0  0  0  0  0  0
    7.6070  335.3350    7.1960 C   0  0  0  0  0  3  0  0  0  0  0  0
    7.6950  336.2330    8.2660 C   0  0  0  0  0  3  0  0  0  0  0  0
    7.3250  335.8250    9.5510 C   0  0  0  0  0  0  0  0  0  0  0  0
    7.4070  336.6910   10.5960 N   0  0  0  0  0  0  0  0  0  0  0  0
    7.0550  336.3200   11.8560 C   0  0  0  0  0  3  0  0  0  0  0  0
    6.5930  335.0240   12.1060 C   0  0  0  0  0  3  0  0  0  0  0  0
    6.4990  334.1140   11.0510 C   0  0  0  0  0  3  0  0  0  0  0  0
    6.8640  334.5070    9.7640 C   0  0  0  0  0  0  0  0  0  0  0  0
    6.7780  333.6150    8.6920 C   0  0  0  0  0  3  0  0  0  0  0  0
  1 10  2  0
  2  1  1  0
  2  3  2  0
  3  4  1  0
  4  9  2  0
  4  5  1  0
  5  6  2  0
  6  7  1  0
  8  7  2  0
  9  8  1  0
 10  9  1  0
M  RAD  7   1   2   2   2   3   2   6   2   7   2   8   2  10   2
M  END
>  <MODEL>  (20) 
2

>  <TORSDO>  (20) 
F 0

>  <SCORE>  (20) 
-6.2

>  <ligand_id>  (20) 
9

>  <original_smiles>  (20) 
c1ccc2ncccc2c1

>  <smiles>  (20) 
c1ccc2ncccc2c1

$$$$
10:0:0
     RDKit          3D

  9 10  0  0  0  0  0  0  0  0999 V2000
    8.9250  324.9050    7.6050 C   0  0  0  0  0  3  0  0  0  0  0  0
    9.6180  324.1810    6.6150 C   0  0  0  0  0  3  0  0  0  0  0  0
   10.7400  323.4690    6.9320 N   0  0  0  0  0  0  0  0  0  0  0  0
   11.1950  323.4560    8.2120 C   0  0  0  0  0  0  0  0  0  0  0  0
   12.3270  322.7660    8.6510 C   0  0  0  0  0  3  0  0  0  0  0  0
   12.5570  322.9350   10.0220 C   0  0  0  0  0  3  0  0  0  0  0  0
   11.3410  323.9390   10.6490 S   0  0  0  0  0  0  0  0  0  0  0  0
   10.5370  324.1560    9.1990 C   0  0  0  0  0  0  0  0  0  0  0  0
    9.3910  324.8960    8.9290 C   0  0  0  0  0  3  0  0  0  0  0  0
  1  9  2  0
  2  3  2  0
  2  1  1  0
  3  4  1  0
  4  5  1  0
  4  8  2  0
  5  6  2  0
  6  7  1  0
  8  7  1  0
  9  8  1  0
M  RAD  5   1   2   2   2   5   2   6   2   9   2
M  END
>  <MODEL>  (21) 
1

>  <TORSDO>  (21) 
F 0

>  <SCORE>  (21) 
-4.8

>  <ligand_id>  (21) 
10

>  <original_smiles>  (21) 
c1cnc2ccsc2c1

>  <smiles>  (21) 
c1cnc2ccsc2c1

$$$$
10:0:1
     RDKit          3D

  9 10  0  0  0  0  0  0  0  0999 V2000
   12.2010  322.1550    8.8750 C   0  0  0  0  0  3  0  0  0  0  0  0
   11.5480  323.1400    8.1070 C   0  0  0  0  0  3  0  0  0  0  0  0
   10.8170  324.1220    8.7130 N   0  0  0  0  0  0  0  0  0  0  0  0
   10.7140  324.1530   10.0670 C   0  0  0  0  0  0  0  0  0  0  0  0
    9.9960  325.1050   10.7930 C   0  0  0  0  0  3  0  0  0  0  0  0
   10.0670  324.8880   12.1740 C   0  0  0  0  0  3  0  0  0  0  0  0
   11.0230  323.5140   12.4520 S   0  0  0  0  0  0  0  0  0  0  0  0
   11.3420  323.2010   10.8410 C   0  0  0  0  0  0  0  0  0  0  0  0
   12.0980  322.1810   10.2740 C   0  0  0  0  0  3  0  0  0  0  0  0
  1  9  2  0
  2  3  2  0
  2  1  1  0
  3  4  1  0
  4  5  1  0
  4  8  2  0
  5  6  2  0
  6  7  1  0
  8  7  1  0
  9  8  1  0
M  RAD  5   1   2   2   2   5   2   6   2   9   2
M  END
>  <MODEL>  (22) 
2

>  <TORSDO>  (22) 
F 0

>  <SCORE>  (22) 
-4.8

>  <ligand_id>  (22) 
10

>  <original_smiles>  (22) 
c1cnc2ccsc2c1

>  <smiles>  (22) 
c1cnc2ccsc2c1

$$$$
11:0:0
     RDKit          3D

  9 10  0  0  0  0  0  0  0  0999 V2000
   -7.5830  354.4630   19.6490 C   0  0  0  0  0  3  0  0  0  0  0  0
   -8.0020  353.1770   19.2360 C   0  0  0  0  0  3  0  0  0  0  0  0
   -7.6230  352.0620   19.9340 N   0  0  0  0  0  0  0  0  0  0  0  0
   -6.8390  352.2240   21.0280 C   0  0  0  0  0  0  0  0  0  0  0  0
   -6.3750  351.2990   21.8200 O   0  0  0  0  0  0  0  0  0  0  0  0
   -5.6660  351.9380   22.7400 C   0  0  0  0  0  3  0  0  0  0  0  0
   -5.6600  353.2890   22.5550 N   0  0  0  0  0  0  0  0  0  0  0  0
   -6.4170  353.4350   21.4550 C   0  0  0  0  0  0  0  0  0  0  0  0
   -6.7690  354.6040   20.7900 C   0  0  0  0  0  3  0  0  0  0  0  0
  1  9  2  0
  2  1  1  0
  2  3  2  0
  3  4  1  0
  4  8  2  0
  4  5  1  0
  5  6  1  0
  7  6  2  0
  8  7  1  0
  9  8  1  0
M  RAD  4   1   2   2   2   6   2   9   2
M  END
>  <MODEL>  (23) 
1

>  <TORSDO>  (23) 
F 0

>  <SCORE>  (23) 
-5.3

>  <ligand_id>  (23) 
11

>  <original_smiles>  (23) 
c1cnc2ocnc2c1

>  <smiles>  (23) 
c1cnc2ocnc2c1

$$$$
11:0:1
     RDKit          3D

  9 10  0  0  0  0  0  0  0  0999 V2000
   11.0840  353.0600   23.4460 C   0  0  0  0  0  3  0  0  0  0  0  0
   12.3010  353.7190   23.1570 C   0  0  0  0  0  3  0  0  0  0  0  0
   13.2210  353.9480   24.1450 N   0  0  0  0  0  0  0  0  0  0  0  0
   12.9350  353.5270   25.4010 C   0  0  0  0  0  0  0  0  0  0  0  0
   13.6700  353.6480   26.4700 O   0  0  0  0  0  0  0  0  0  0  0  0
   12.9740  353.0880   27.4490 C   0  0  0  0  0  3  0  0  0  0  0  0
   11.7740  352.5960   27.0270 N   0  0  0  0  0  0  0  0  0  0  0  0
   11.7830  352.8930   25.7180 C   0  0  0  0  0  0  0  0  0  0  0  0
   10.8100  352.6320   24.7590 C   0  0  0  0  0  3  0  0  0  0  0  0
  1  9  2  0
  2  1  1  0
  2  3  2  0
  3  4  1  0
  4  8  2  0
  4  5  1  0
  5  6  1  0
  7  6  2  0
  8  7  1  0
  9  8  1  0
M  RAD  4   1   2   2   2   6   2   9   2
M  END
>  <MODEL>  (24) 
2

>  <TORSDO>  (24) 
F 0

>  <SCORE>  (24) 
-5.3

>  <ligand_id>  (24) 
11

>  <original_smiles>  (24) 
c1cnc2ocnc2c1

>  <smiles>  (24) 
c1cnc2ocnc2c1

$$$$
12:0:0
     RDKit          3D

 10 11  0  0  0  0  0  0  0  0999 V2000
    7.6260  335.5300    7.2540 C   0  0  0  0  0  3  0  0  0  0  0  0
    7.1700  334.2180    7.4180 C   0  0  0  0  0  3  0  0  0  0  0  0
    6.8040  333.7670    8.6480 N   0  0  0  0  0  0  0  0  0  0  0  0
    6.8720  334.5690    9.7450 C   0  0  0  0  0  0  0  0  0  0  0  0
    6.4940  334.0920   11.0000 C   0  0  0  0  0  3  0  0  0  0  0  0
    6.5730  334.9360   12.1110 C   0  0  0  0  0  3  0  0  0  0  0  0
    7.0300  336.2480   11.9480 C   0  0  0  0  0  3  0  0  0  0  0  0
    7.3940  336.6990   10.7170 N   0  0  0  0  0  0  0  0  0  0  0  0
    7.3270  335.8970    9.6200 C   0  0  0  0  0  0  0  0  0  0  0  0
    7.7050  336.3730    8.3650 C   0  0  0  0  0  3  0  0  0  0  0  0
  1  2  2  0
  1 10  1  0
  2  3  1  0
  3  4  2  0
  4  5  1  0
  5  6  2  0
  7  6  1  0
  8  7  2  0
  9  4  1  0
  9  8  1  0
 10  9  2  0
M  RAD  6   1   2   2   2   5   2   6   2   7   2  10   2
M  END
>  <MODEL>  (25) 
1

>  <TORSDO>  (25) 
F 0

>  <SCORE>  (25) 
-5.3

>  <ligand_id>  (25) 
12

>  <original_smiles>  (25) 
c1cnc2cccnc2c1

>  <smiles>  (25) 
c1cnc2cccnc2c1

$$$$
12:0:1
     RDKit          3D

 10 11  0  0  0  0  0  0  0  0999 V2000
    7.1810  334.2590    7.3800 C   0  0  0  0  0  3  0  0  0  0  0  0
    7.6410  335.5780    7.3070 C   0  0  0  0  0  3  0  0  0  0  0  0
    7.6970  336.3490    8.4270 N   0  0  0  0  0  0  0  0  0  0  0  0
    7.3110  335.8650    9.6380 C   0  0  0  0  0  0  0  0  0  0  0  0
    7.3740  336.6670   10.7780 C   0  0  0  0  0  3  0  0  0  0  0  0
    6.9710  336.1470   12.0110 C   0  0  0  0  0  3  0  0  0  0  0  0
    6.5110  334.8270   12.0840 C   0  0  0  0  0  3  0  0  0  0  0  0
    6.4560  334.0570   10.9640 N   0  0  0  0  0  0  0  0  0  0  0  0
    6.8420  334.5410    9.7530 C   0  0  0  0  0  0  0  0  0  0  0  0
    6.7790  333.7390    8.6120 C   0  0  0  0  0  3  0  0  0  0  0  0
  1 10  2  0
  2  1  1  0
  2  3  2  0
  3  4  1  0
  4  9  2  0
  4  5  1  0
  5  6  2  0
  6  7  1  0
  8  7  2  0
  9  8  1  0
 10  9  1  0
M  RAD  6   1   2   2   2   5   2   6   2   7   2  10   2
M  END
>  <MODEL>  (26) 
2

>  <TORSDO>  (26) 
F 0

>  <SCORE>  (26) 
-5.3

>  <ligand_id>  (26) 
12

>  <original_smiles>  (26) 
c1cnc2cccnc2c1

>  <smiles>  (26) 
c1cnc2cccnc2c1

$$$$
13:0:0
     RDKit          3D

 10 11  0  0  0  0  0  0  0  0999 V2000
    6.5130  334.7720   12.0900 C   0  0  0  0  0  3  0  0  0  0  0  0
    6.9520  336.1000   12.0730 C   0  0  0  0  0  3  0  0  0  0  0  0
    7.3730  336.6870   10.8750 C   0  0  0  0  0  3  0  0  0  0  0  0
    7.3540  335.9430    9.6930 C   0  0  0  0  0  0  0  0  0  0  0  0
    7.7690  336.5100    8.4860 C   0  0  0  0  0  3  0  0  0  0  0  0
    7.7440  335.7700    7.3440 N   0  0  0  0  0  0  0  0  0  0  0  0
    7.3210  334.4750    7.3380 C   0  0  0  0  0  3  0  0  0  0  0  0
    6.8960  333.8670    8.5220 C   0  0  0  0  0  3  0  0  0  0  0  0
    6.9120  334.6030    9.7070 C   0  0  0  0  0  0  0  0  0  0  0  0
    6.4930  334.0220   10.9080 C   0  0  0  0  0  3  0  0  0  0  0  0
  2  1  2  0
  3  2  1  0
  4  9  1  0
  4  3  2  0
  5  4  1  0
  6  5  2  0
  7  6  1  0
  7  8  2  0
  8  9  1  0
  9 10  2  0
 10  1  1  0
M  RAD  7   1   2   2   2   3   2   5   2   7   2   8   2  10   2
M  END
>  <MODEL>  (27) 
1

>  <TORSDO>  (27) 
F 0

>  <SCORE>  (27) 
-6.2

>  <ligand_id>  (27) 
13

>  <original_smiles>  (27) 
c1ccc2cnccc2c1

>  <smiles>  (27) 
c1ccc2cnccc2c1

$$$$
13:0:1
     RDKit          3D

 10 11  0  0  0  0  0  0  0  0999 V2000
    6.9660  336.0420   12.0090 C   0  0  0  0  0  3  0  0  0  0  0  0
    6.5240  334.7150   11.9850 C   0  0  0  0  0  3  0  0  0  0  0  0
    6.5090  334.0000   10.7820 C   0  0  0  0  0  3  0  0  0  0  0  0
    6.9340  334.6150    9.6030 C   0  0  0  0  0  0  0  0  0  0  0  0
    6.9270  333.9200    8.3920 C   0  0  0  0  0  3  0  0  0  0  0  0
    7.3450  334.5350    7.2530 N   0  0  0  0  0  0  0  0  0  0  0  0
    7.7780  335.8270    7.2530 C   0  0  0  0  0  3  0  0  0  0  0  0
    7.8040  336.5610    8.4420 C   0  0  0  0  0  3  0  0  0  0  0  0
    7.3800  335.9540    9.6250 C   0  0  0  0  0  0  0  0  0  0  0  0
    7.3930  336.6630   10.8300 C   0  0  0  0  0  3  0  0  0  0  0  0
  2  1  2  0
  3  2  1  0
  4  9  1  0
  4  3  2  0
  5  4  1  0
  6  7  1  0
  6  5  2  0
  7  8  2  0
  8  9  1  0
  9 10  2  0
 10  1  1  0
M  RAD  7   1   2   2   2   3   2   5   2   7   2   8   2  10   2
M  END
>  <MODEL>  (28) 
2

>  <TORSDO>  (28) 
F 0

>  <SCORE>  (28) 
-6.1

>  <ligand_id>  (28) 
13

>  <original_smiles>  (28) 
c1ccc2cnccc2c1

>  <smiles>  (28) 
c1ccc2cnccc2c1

$$$$
14:0:0
     RDKit          3D

 10 11  0  0  0  0  0  0  0  0999 V2000
    6.2800  334.2710   13.0470 F   0  0  0  0  0  0  0  0  0  0  0  0
    6.6490  334.8470   11.8790 C   0  0  0  0  0  0  0  0  0  0  0  0
    7.0960  336.1820   11.8660 C   0  0  0  0  0  3  0  0  0  0  0  0
    7.4840  336.7940   10.6620 C   0  0  0  0  0  3  0  0  0  0  0  0
    7.4160  336.0510    9.4830 C   0  0  0  0  0  0  0  0  0  0  0  0
    7.7630  336.5100    8.2090 C   0  0  0  0  0  3  0  0  0  0  0  0
    7.5900  335.5370    7.2190 C   0  0  0  0  0  3  0  0  0  0  0  0
    7.0090  334.1260    7.9540 S   0  0  0  0  0  0  0  0  0  0  0  0
    6.9760  334.7410    9.5090 C   0  0  0  0  0  0  0  0  0  0  0  0
    6.5860  334.1090   10.6860 C   0  0  0  0  0  3  0  0  0  0  0  0
  2  1  1  0
  3  2  2  0
  4  3  1  0
  5  9  1  0
  5  4  2  0
  6  5  1  0
  7  8  1  0
  7  6  2  0
  8  9  1  0
  9 10  2  0
 10  2  1  0
M  RAD  5   3   2   4   2   6   2   7   2  10   2
M  END
>  <MODEL>  (29) 
1

>  <TORSDO>  (29) 
F 0

>  <SCORE>  (29) 
-5.9

>  <ligand_id>  (29) 
14

>  <original_smiles>  (29) 
Fc1ccc2ccsc2c1

>  <smiles>  (29) 
Fc1ccc2ccsc2c1

$$$$
14:0:1
     RDKit          3D

 10 11  0  0  0  0  0  0  0  0999 V2000
    6.2350  334.3490   12.8810 F   0  0  0  0  0  0  0  0  0  0  0  0
    6.6190  334.8240   11.6730 C   0  0  0  0  0  0  0  0  0  0  0  0
    6.5310  334.0000   10.5340 C   0  0  0  0  0  3  0  0  0  0  0  0
    6.9250  334.4780    9.2730 C   0  0  0  0  0  3  0  0  0  0  0  0
    7.4060  335.7850    9.1750 C   0  0  0  0  0  0  0  0  0  0  0  0
    7.8360  336.4090    8.0010 C   0  0  0  0  0  3  0  0  0  0  0  0
    8.2640  337.7240    8.2140 C   0  0  0  0  0  3  0  0  0  0  0  0
    8.0940  338.0790    9.8610 S   0  0  0  0  0  0  0  0  0  0  0  0
    7.4870  336.5840   10.3010 C   0  0  0  0  0  0  0  0  0  0  0  0
    7.1040  336.1370   11.5620 C   0  0  0  0  0  3  0  0  0  0  0  0
  2  1  1  0
  3  2  2  0
  4  3  1  0
  5  4  2  0
  5  9  1  0
  6  7  2  0
  6  5  1  0
  7  8  1  0
  8  9  1  0
  9 10  2  0
 10  2  1  0
M  RAD  5   3   2   4   2   6   2   7   2  10   2
M  END
>  <MODEL>  (30) 
2

>  <TORSDO>  (30) 
F 0

>  <SCORE>  (30) 
-5.8

>  <ligand_id>  (30) 
14

>  <original_smiles>  (30) 
Fc1ccc2ccsc2c1

>  <smiles>  (30) 
Fc1ccc2ccsc2c1

$$$$
15:0:0
     RDKit          3D

 10 11  0  0  0  0  0  0  0  0999 V2000
    7.6260  335.5300    7.2540 C   0  0  0  0  0  3  0  0  0  0  0  0
    7.1700  334.2180    7.4180 C   0  0  0  0  0  3  0  0  0  0  0  0
    6.8040  333.7670    8.6480 N   0  0  0  0  0  0  0  0  0  0  0  0
    6.8720  334.5690    9.7450 C   0  0  0  0  0  0  0  0  0  0  0  0
    6.4940  334.0920   11.0000 C   0  0  0  0  0  3  0  0  0  0  0  0
    6.5730  334.9360   12.1110 C   0  0  0  0  0  3  0  0  0  0  0  0
    7.0300  336.2480   11.9480 C   0  0  0  0  0  3  0  0  0  0  0  0
    7.3940  336.6990   10.7170 N   0  0  0  0  0  0  0  0  0  0  0  0
    7.3270  335.8970    9.6200 C   0  0  0  0  0  0  0  0  0  0  0  0
    7.7050  336.3730    8.3650 C   0  0  0  0  0  3  0  0  0  0  0  0
  1  2  2  0
  1 10  1  0
  2  3  1  0
  3  4  2  0
  4  5  1  0
  5  6  2  0
  7  6  1  0
  8  7  2  0
  9  4  1  0
  9  8  1  0
 10  9  2  0
M  RAD  6   1   2   2   2   5   2   6   2   7   2  10   2
M  END
>  <MODEL>  (31) 
1

>  <TORSDO>  (31) 
F 0

>  <SCORE>  (31) 
-5.3

>  <ligand_id>  (31) 
15

>  <original_smiles>  (31) 
c1cnc2cccnc2c1

>  <smiles>  (31) 
c1cnc2cccnc2c1

$$$$
15:0:1
     RDKit          3D

 10 11  0  0  0  0  0  0  0  0999 V2000
    7.1810  334.2590    7.3800 C   0  0  0  0  0  3  0  0  0  0  0  0
    7.6410  335.5780    7.3070 C   0  0  0  0  0  3  0  0  0  0  0  0
    7.6970  336.3490    8.4270 N   0  0  0  0  0  0  0  0  0  0  0  0
    7.3110  335.8650    9.6380 C   0  0  0  0  0  0  0  0  0  0  0  0
    7.3740  336.6670   10.7780 C   0  0  0  0  0  3  0  0  0  0  0  0
    6.9710  336.1470   12.0110 C   0  0  0  0  0  3  0  0  0  0  0  0
    6.5110  334.8270   12.0840 C   0  0  0  0  0  3  0  0  0  0  0  0
    6.4560  334.0570   10.9640 N   0  0  0  0  0  0  0  0  0  0  0  0
    6.8420  334.5410    9.7530 C   0  0  0  0  0  0  0  0  0  0  0  0
    6.7790  333.7390    8.6120 C   0  0  0  0  0  3  0  0  0  0  0  0
  1 10  2  0
  2  1  1  0
  2  3  2  0
  3  4  1  0
  4  9  2  0
  4  5  1  0
  5  6  2  0
  6  7  1  0
  8  7  2  0
  9  8  1  0
 10  9  1  0
M  RAD  6   1   2   2   2   5   2   6   2   7   2  10   2
M  END
>  <MODEL>  (32) 
2

>  <TORSDO>  (32) 
F 0

>  <SCORE>  (32) 
-5.3

>  <ligand_id>  (32) 
15

>  <original_smiles>  (32) 
c1cnc2cccnc2c1

>  <smiles>  (32) 
c1cnc2cccnc2c1

$$$$
16:0:0
     RDKit          3D

  9 10  0  0  0  0  0  0  0  0999 V2000
    8.9250  324.9050    7.6050 C   0  0  0  0  0  3  0  0  0  0  0  0
    9.6180  324.1810    6.6150 C   0  0  0  0  0  3  0  0  0  0  0  0
   10.7400  323.4690    6.9320 N   0  0  0  0  0  0  0  0  0  0  0  0
   11.1950  323.4560    8.2120 C   0  0  0  0  0  0  0  0  0  0  0  0
   12.3270  322.7660    8.6510 C   0  0  0  0  0  3  0  0  0  0  0  0
   12.5570  322.9350   10.0220 C   0  0  0  0  0  3  0  0  0  0  0  0
   11.3410  323.9390   10.6490 S   0  0  0  0  0  0  0  0  0  0  0  0
   10.5370  324.1560    9.1990 C   0  0  0  0  0  0  0  0  0  0  0  0
    9.3910  324.8960    8.9290 C   0  0  0  0  0  3  0  0  0  0  0  0
  1  9  2  0
  2  3  2  0
  2  1  1  0
  3  4  1  0
  4  5  1  0
  4  8  2  0
  5  6  2  0
  6  7  1  0
  8  7  1  0
  9  8  1  0
M  RAD  5   1   2   2   2   5   2   6   2   9   2
M  END
>  <MODEL>  (33) 
1

>  <TORSDO>  (33) 
F 0

>  <SCORE>  (33) 
-4.8

>  <ligand_id>  (33) 
16

>  <original_smiles>  (33) 
c1cnc2ccsc2c1

>  <smiles>  (33) 
c1cnc2ccsc2c1

$$$$
16:0:1
     RDKit          3D

  9 10  0  0  0  0  0  0  0  0999 V2000
   12.2010  322.1550    8.8750 C   0  0  0  0  0  3  0  0  0  0  0  0
   11.5480  323.1400    8.1070 C   0  0  0  0  0  3  0  0  0  0  0  0
   10.8170  324.1220    8.7130 N   0  0  0  0  0  0  0  0  0  0  0  0
   10.7140  324.1530   10.0670 C   0  0  0  0  0  0  0  0  0  0  0  0
    9.9960  325.1050   10.7930 C   0  0  0  0  0  3  0  0  0  0  0  0
   10.0670  324.8880   12.1740 C   0  0  0  0  0  3  0  0  0  0  0  0
   11.0230  323.5140   12.4520 S   0  0  0  0  0  0  0  0  0  0  0  0
   11.3420  323.2010   10.8410 C   0  0  0  0  0  0  0  0  0  0  0  0
   12.0980  322.1810   10.2740 C   0  0  0  0  0  3  0  0  0  0  0  0
  1  9  2  0
  2  3  2  0
  2  1  1  0
  3  4  1  0
  4  5  1  0
  4  8  2  0
  5  6  2  0
  6  7  1  0
  8  7  1  0
  9  8  1  0
M  RAD  5   1   2   2   2   5   2   6   2   9   2
M  END
>  <MODEL>  (34) 
2

>  <TORSDO>  (34) 
F 0

>  <SCORE>  (34) 
-4.8

>  <ligand_id>  (34) 
16

>  <original_smiles>  (34) 
c1cnc2ccsc2c1

>  <smiles>  (34) 
c1cnc2ccsc2c1

$$$$
17:0:0
     RDKit          3D

 10 11  0  0  0  0  0  0  0  0999 V2000
    6.5160  334.7490   12.0950 C   0  0  0  0  0  3  0  0  0  0  0  0
    6.9340  336.0850   12.0880 C   0  0  0  0  0  3  0  0  0  0  0  0
    7.3370  336.6900   10.8920 C   0  0  0  0  0  3  0  0  0  0  0  0
    7.3210  335.9580    9.7010 C   0  0  0  0  0  0  0  0  0  0  0  0
    7.7110  336.5370    8.5340 N   0  0  0  0  0  0  0  0  0  0  0  0
    7.7050  335.8480    7.3610 C   0  0  0  0  0  3  0  0  0  0  0  0
    7.2940  334.5120    7.3310 C   0  0  0  0  0  3  0  0  0  0  0  0
    6.8890  333.8910    8.5150 C   0  0  0  0  0  3  0  0  0  0  0  0
    6.8990  334.6100    9.7100 C   0  0  0  0  0  0  0  0  0  0  0  0
    6.4980  334.0110   10.9070 C   0  0  0  0  0  3  0  0  0  0  0  0
  2  1  2  0
  3  2  1  0
  4  9  1  0
  4  3  2  0
  5  4  1  0
  6  5  2  0
  7  6  1  0
  7  8  2  0
  8  9  1  0
  9 10  2  0
 10  1  1  0
M  RAD  7   1   2   2   2   3   2   6   2   7   2   8   2  10   2
M  END
>  <MODEL>  (35) 
1

>  <TORSDO>  (35) 
F 0

>  <SCORE>  (35) 
-6.3

>  <ligand_id>  (35) 
17

>  <original_smiles>  (35) 
c1ccc2ncccc2c1

>  <smiles>  (35) 
c1ccc2ncccc2c1

$$$$
17:0:1
     RDKit          3D

 10 11  0  0  0  0  0  0  0  0999 V2000
    7.1500  334.0290    7.4090 C   0  0  0  0  0  3  0  0  0  0  0  0
    7.6070  335.3350    7.1960 C   0  0  0  0  0  3  0  0  0  0  0  0
    7.6950  336.2330    8.2660 C   0  0  0  0  0  3  0  0  0  0  0  0
    7.3250  335.8250    9.5510 C   0  0  0  0  0  0  0  0  0  0  0  0
    7.4070  336.6910   10.5960 N   0  0  0  0  0  0  0  0  0  0  0  0
    7.0550  336.3200   11.8560 C   0  0  0  0  0  3  0  0  0  0  0  0
    6.5930  335.0240   12.1060 C   0  0  0  0  0  3  0  0  0  0  0  0
    6.4990  334.1140   11.0510 C   0  0  0  0  0  3  0  0  0  0  0  0
    6.8640  334.5070    9.7640 C   0  0  0  0  0  0  0  0  0  0  0  0
    6.7780  333.6150    8.6920 C   0  0  0  0  0  3  0  0  0  0  0  0
  1 10  2  0
  2  1  1  0
  2  3  2  0
  3  4  1  0
  4  9  2  0
  4  5  1  0
  5  6  2  0
  6  7  1  0
  8  7  2  0
  9  8  1  0
 10  9  1  0
M  RAD  7   1   2   2   2   3   2   6   2   7   2   8   2  10   2
M  END
>  <MODEL>  (36) 
2

>  <TORSDO>  (36) 
F 0

>  <SCORE>  (36) 
-6.2

>  <ligand_id>  (36) 
17

>  <original_smiles>  (36) 
c1ccc2ncccc2c1

>  <smiles>  (36) 
c1ccc2ncccc2c1

$$$$
18:0:0
     RDKit          3D

 10 11  0  0  0  0  0  0  0  0999 V2000
   12.7600  321.7010    8.9120 Cl  0  0  0  0  0  0  0  0  0  0  0  0
   11.5830  323.0010    8.8890 C   0  0  0  0  0  0  0  0  0  0  0  0
   11.0670  323.4680    7.6720 C   0  0  0  0  0  3  0  0  0  0  0  0
   10.1240  324.5130    7.6690 C   0  0  0  0  0  3  0  0  0  0  0  0
    9.7070  325.0750    8.8420 N   0  0  0  0  0  0  0  0  0  0  0  0
   10.2030  324.6280   10.0250 C   0  0  0  0  0  0  0  0  0  0  0  0
    9.8460  325.1290   11.2790 C   0  0  0  0  0  3  0  0  0  0  0  0
   10.5130  324.4810   12.3240 C   0  0  0  0  0  3  0  0  0  0  0  0
   11.5290  323.2990   11.6560 S   0  0  0  0  0  0  0  0  0  0  0  0
   11.1290  323.6050   10.0590 C   0  0  0  0  0  0  0  0  0  0  0  0
  2  1  1  0
  2 10  2  0
  3  2  1  0
  4  3  2  0
  4  5  1  0
  5  6  2  0
  6 10  1  0
  6  7  1  0
  7  8  2  0
  9  8  1  0
 10  9  1  0
M  RAD  4   3   2   4   2   7   2   8   2
M  END
>  <MODEL>  (37) 
1

>  <TORSDO>  (37) 
F 0

>  <SCORE>  (37) 
-5.0

>  <ligand_id>  (37) 
18

>  <original_smiles>  (37) 
Clc1ccnc2ccsc12

>  <smiles>  (37) 
Clc1ccnc2ccsc12

$$$$
18:0:1
     RDKit          3D

 10 11  0  0  0  0  0  0  0  0999 V2000
    9.8290  325.4550   11.2910 Cl  0  0  0  0  0  0  0  0  0  0  0  0
   10.7490  324.4640   10.1730 C   0  0  0  0  0  0  0  0  0  0  0  0
   11.9060  323.7990   10.6030 C   0  0  0  0  0  3  0  0  0  0  0  0
   12.6350  323.0080    9.6940 C   0  0  0  0  0  3  0  0  0  0  0  0
   12.2240  322.8840    8.3980 N   0  0  0  0  0  0  0  0  0  0  0  0
   11.1040  323.5260    7.9740 C   0  0  0  0  0  0  0  0  0  0  0  0
   10.5950  323.4670    6.6740 C   0  0  0  0  0  3  0  0  0  0  0  0
    9.4300  324.2250    6.5210 C   0  0  0  0  0  3  0  0  0  0  0  0
    9.0640  324.9490    8.0100 S   0  0  0  0  0  0  0  0  0  0  0  0
   10.3690  324.3080    8.8420 C   0  0  0  0  0  0  0  0  0  0  0  0
  2  3  2  0
  2  1  1  0
  4  3  1  0
  5  4  2  0
  6  5  1  0
  6 10  2  0
  7  6  1  0
  8  7  2  0
  8  9  1  0
  9 10  1  0
 10  2  1  0
M  RAD  4   3   2   4   2   7   2   8   2
M  END
>  <MODEL>  (38) 
2

>  <TORSDO>  (38) 
F 0

>  <SCORE>  (38) 
-5.0

>  <ligand_id>  (38) 
18

>  <original_smiles>  (38) 
Clc1ccnc2ccsc12

>  <smiles>  (38) 
Clc1ccnc2ccsc12

$$$$
19:0:0
     RDKit          3D

 10 11  0  0  0  0  0  0  0  0999 V2000
    7.6260  335.5300    7.2540 C   0  0  0  0  0  3  0  0  0  0  0  0
    7.1700  334.2180    7.4180 C   0  0  0  0  0  3  0  0  0  0  0  0
    6.8040  333.7670    8.6480 N   0  0  0  0  0  0  0  0  0  0  0  0
    6.8720  334.5690    9.7450 C   0  0  0  0  0  0  0  0  0  0  0  0
    6.4940  334.0920   11.0000 C   0  0  0  0  0  3  0  0  0  0  0  0
    6.5730  334.9360   12.1110 C   0  0  0  0  0  3  0  0  0  0  0  0
    7.0300  336.2480   11.9480 C   0  0  0  0  0  3  0  0  0  0  0  0
    7.3940  336.6990   10.7170 N   0  0  0  0  0  0  0  0  0  0  0  0
    7.3270  335.8970    9.6200 C   0  0  0  0  0  0  0  0  0  0  0  0
    7.7050  336.3730    8.3650 C   0  0  0  0  0  3  0  0  0  0  0  0
  1  2  2  0
  1 10  1  0
  2  3  1  0
  3  4  2  0
  4  5  1  0
  5  6  2  0
  7  6  1  0
  8  7  2  0
  9  4  1  0
  9  8  1  0
 10  9  2  0
M  RAD  6   1   2   2   2   5   2   6   2   7   2  10   2
M  END
>  <MODEL>  (39) 
1

>  <TORSDO>  (39) 
F 0

>  <SCORE>  (39) 
-5.3

>  <ligand_id>  (39) 
19

>  <original_smiles>  (39) 
c1cnc2cccnc2c1

>  <smiles>  (39) 
c1cnc2cccnc2c1

$$$$
19:0:1
     RDKit          3D

 10 11  0  0  0  0  0  0  0  0999 V2000
    7.1810  334.2590    7.3800 C   0  0  0  0  0  3  0  0  0  0  0  0
    7.6410  335.5780    7.3070 C   0  0  0  0  0  3  0  0  0  0  0  0
    7.6970  336.3490    8.4270 N   0  0  0  0  0  0  0  0  0  0  0  0
    7.3110  335.8650    9.6380 C   0  0  0  0  0  0  0  0  0  0  0  0
    7.3740  336.6670   10.7780 C   0  0  0  0  0  3  0  0  0  0  0  0
    6.9710  336.1470   12.0110 C   0  0  0  0  0  3  0  0  0  0  0  0
    6.5110  334.8270   12.0840 C   0  0  0  0  0  3  0  0  0  0  0  0
    6.4560  334.0570   10.9640 N   0  0  0  0  0  0  0  0  0  0  0  0
    6.8420  334.5410    9.7530 C   0  0  0  0  0  0  0  0  0  0  0  0
    6.7790  333.7390    8.6120 C   0  0  0  0  0  3  0  0  0  0  0  0
  1 10  2  0
  2  1  1  0
  2  3  2  0
  3  4  1  0
  4  9  2  0
  4  5  1  0
  5  6  2  0
  6  7  1  0
  8  7  2  0
  9  8  1  0
 10  9  1  0
M  RAD  6   1   2   2   2   5   2   6   2   7   2  10   2
M  END
>  <MODEL>  (40) 
2

>  <TORSDO>  (40) 
F 0

>  <SCORE>  (40) 
-5.3

>  <ligand_id>  (40) 
19

>  <original_smiles>  (40) 
c1cnc2cccnc2c1

>  <smiles>  (40) 
c1cnc2cccnc2c1

$$$$
20:0:0
     RDKit          3D

 10 11  0  0  0  0  0  0  0  0999 V2000
    7.6260  335.5300    7.2540 C   0  0  0  0  0  3  0  0  0  0  0  0
    7.1700  334.2180    7.4180 C   0  0  0  0  0  3  0  0  0  0  0  0
    6.8040  333.7670    8.6480 N   0  0  0  0  0  0  0  0  0  0  0  0
    6.8720  334.5690    9.7450 C   0  0  0  0  0  0  0  0  0  0  0  0
    6.4940  334.0920   11.0000 C   0  0  0  0  0  3  0  0  0  0  0  0
    6.5730  334.9360   12.1110 C   0  0  0  0  0  3  0  0  0  0  0  0
    7.0300  336.2480   11.9480 C   0  0  0  0  0  3  0  0  0  0  0  0
    7.3940  336.6990   10.7170 N   0  0  0  0  0  0  0  0  0  0  0  0
    7.3270  335.8970    9.6200 C   0  0  0  0  0  0  0  0  0  0  0  0
    7.7050  336.3730    8.3650 C   0  0  0  0  0  3  0  0  0  0  0  0
  1  2  2  0
  1 10  1  0
  2  3  1  0
  3  4  2  0
  4  5  1  0
  5  6  2  0
  7  6  1  0
  8  7  2  0
  9  4  1  0
  9  8  1  0
 10  9  2  0
M  RAD  6   1   2   2   2   5   2   6   2   7   2  10   2
M  END
>  <MODEL>  (41) 
1

>  <TORSDO>  (41) 
F 0

>  <SCORE>  (41) 
-5.3

>  <ligand_id>  (41) 
20

>  <original_smiles>  (41) 
c1cnc2cccnc2c1

>  <smiles>  (41) 
c1cnc2cccnc2c1

$$$$
20:0:1
     RDKit          3D

 10 11  0  0  0  0  0  0  0  0999 V2000
    7.1810  334.2590    7.3800 C   0  0  0  0  0  3  0  0  0  0  0  0
    7.6410  335.5780    7.3070 C   0  0  0  0  0  3  0  0  0  0  0  0
    7.6970  336.3490    8.4270 N   0  0  0  0  0  0  0  0  0  0  0  0
    7.3110  335.8650    9.6380 C   0  0  0  0  0  0  0  0  0  0  0  0
    7.3740  336.6670   10.7780 C   0  0  0  0  0  3  0  0  0  0  0  0
    6.9710  336.1470   12.0110 C   0  0  0  0  0  3  0  0  0  0  0  0
    6.5110  334.8270   12.0840 C   0  0  0  0  0  3  0  0  0  0  0  0
    6.4560  334.0570   10.9640 N   0  0  0  0  0  0  0  0  0  0  0  0
    6.8420  334.5410    9.7530 C   0  0  0  0  0  0  0  0  0  0  0  0
    6.7790  333.7390    8.6120 C   0  0  0  0  0  3  0  0  0  0  0  0
  1 10  2  0
  2  1  1  0
  2  3  2  0
  3  4  1  0
  4  9  2  0
  4  5  1  0
  5  6  2  0
  6  7  1  0
  8  7  2  0
  9  8  1  0
 10  9  1  0
M  RAD  6   1   2   2   2   5   2   6   2   7   2  10   2
M  END
>  <MODEL>  (42) 
2

>  <TORSDO>  (42) 
F 0

>  <SCORE>  (42) 
-5.3

>  <ligand_id>  (42) 
20

>  <original_smiles>  (42) 
c1cnc2cccnc2c1

>  <smiles>  (42) 
c1cnc2cccnc2c1

$$$$
21:0:0
     RDKit          3D

 10 11  0  0  0  0  0  0  0  0999 V2000
    6.5160  334.7490   12.0950 C   0  0  0  0  0  3  0  0  0  0  0  0
    6.9340  336.0850   12.0880 C   0  0  0  0  0  3  0  0  0  0  0  0
    7.3370  336.6900   10.8920 C   0  0  0  0  0  3  0  0  0  0  0  0
    7.3210  335.9580    9.7010 C   0  0  0  0  0  0  0  0  0  0  0  0
    7.7110  336.5370    8.5340 N   0  0  0  0  0  0  0  0  0  0  0  0
    7.7050  335.8480    7.3610 C   0  0  0  0  0  3  0  0  0  0  0  0
    7.2940  334.5120    7.3310 C   0  0  0  0  0  3  0  0  0  0  0  0
    6.8890  333.8910    8.5150 C   0  0  0  0  0  3  0  0  0  0  0  0
    6.8990  334.6100    9.7100 C   0  0  0  0  0  0  0  0  0  0  0  0
    6.4980  334.0110   10.9070 C   0  0  0  0  0  3  0  0  0  0  0  0
  2  1  2  0
  3  2  1  0
  4  9  1  0
  4  3  2  0
  5  4  1  0
  6  5  2  0
  7  6  1  0
  7  8  2  0
  8  9  1  0
  9 10  2  0
 10  1  1  0
M  RAD  7   1   2   2   2   3   2   6   2   7   2   8   2  10   2
M  END
>  <MODEL>  (43) 
1

>  <TORSDO>  (43) 
F 0

>  <SCORE>  (43) 
-6.3

>  <ligand_id>  (43) 
21

>  <original_smiles>  (43) 
c1ccc2ncccc2c1

>  <smiles>  (43) 
c1ccc2ncccc2c1

$$$$
21:0:1
     RDKit          3D

 10 11  0  0  0  0  0  0  0  0999 V2000
    7.1500  334.0290    7.4090 C   0  0  0  0  0  3  0  0  0  0  0  0
    7.6070  335.3350    7.1960 C   0  0  0  0  0  3  0  0  0  0  0  0
    7.6950  336.2330    8.2660 C   0  0  0  0  0  3  0  0  0  0  0  0
    7.3250  335.8250    9.5510 C   0  0  0  0  0  0  0  0  0  0  0  0
    7.4070  336.6910   10.5960 N   0  0  0  0  0  0  0  0  0  0  0  0
    7.0550  336.3200   11.8560 C   0  0  0  0  0  3  0  0  0  0  0  0
    6.5930  335.0240   12.1060 C   0  0  0  0  0  3  0  0  0  0  0  0
    6.4990  334.1140   11.0510 C   0  0  0  0  0  3  0  0  0  0  0  0
    6.8640  334.5070    9.7640 C   0  0  0  0  0  0  0  0  0  0  0  0
    6.7780  333.6150    8.6920 C   0  0  0  0  0  3  0  0  0  0  0  0
  1 10  2  0
  2  1  1  0
  2  3  2  0
  3  4  1  0
  4  9  2  0
  4  5  1  0
  5  6  2  0
  6  7  1  0
  8  7  2  0
  9  8  1  0
 10  9  1  0
M  RAD  7   1   2   2   2   3   2   6   2   7   2   8   2  10   2
M  END
>  <MODEL>  (44) 
2

>  <TORSDO>  (44) 
F 0

>  <SCORE>  (44) 
-6.2

>  <ligand_id>  (44) 
21

>  <original_smiles>  (44) 
c1ccc2ncccc2c1

>  <smiles>  (44) 
c1ccc2ncccc2c1

$$$$
22:0:0
     RDKit          3D

 14 15  0  0  0  0  0  0  0  0999 V2000
    9.6630  324.3900    6.0570 C   0  0  0  0  0  2  0  0  0  0  0  0
   12.4420  328.1350    4.4430 C   0  0  0  0  0  1  0  0  0  0  0  0
   11.2710  327.2980    4.8190 C   0  0  0  0  0  0  0  0  0  0  0  0
   11.3800  326.0470    5.3010 N   0  0  0  0  0  0  0  0  0  0  0  0
   10.0940  325.6990    5.4880 C   0  0  0  0  0  0  0  0  0  0  0  0
    9.2490  326.7310    5.1340 C   0  0  0  0  0  3  0  0  0  0  0  0
   10.0260  327.7040    4.7200 O   0  0  0  0  0  0  0  0  0  0  0  0
    9.5840  324.4710    7.5460 C   0  0  0  0  0  0  0  0  0  0  0  0
    8.5450  324.9390    8.0830 O   0  0  0  0  0  0  0  0  0  0  0  0
   10.6860  323.9850    8.3890 C   0  0  0  0  0  0  0  0  0  0  0  0
   11.5330  323.0050    8.0140 N   0  0  0  0  0  0  0  0  0  0  0  0
   12.4660  322.7370    8.9690 C   0  0  0  0  0  3  0  0  0  0  0  0
   12.3760  323.5060   10.1300 C   0  0  0  0  0  3  0  0  0  0  0  0
   11.0710  324.5490    9.9210 S   0  0  0  0  0  0  0  0  0  0  0  0
  1  8  1  0
  2  3  1  0
  3  4  2  0
  4  5  1  0
  5  1  1  0
  6  5  2  0
  7  3  1  0
  7  6  1  0
  8  9  2  0
  8 10  1  0
 10 14  1  0
 11 10  2  0
 11 12  1  0
 12 13  2  0
 14 13  1  0
M  RAD  5   1   3   2   2   6   2  12   2  13   2
M  END
>  <MODEL>  (45) 
1

>  <TORSDO>  (45) 
F 3

>  <SCORE>  (45) 
-5.8

>  <ligand_id>  (45) 
22

>  <original_smiles>  (45) 
Cc1nc(CC(=O)c2nccs2)co1

>  <smiles>  (45) 
Cc1nc(CC(=O)c2nccs2)co1

$$$$
22:0:1
     RDKit          3D

 14 15  0  0  0  0  0  0  0  0999 V2000
   10.7600  322.9940   11.4450 C   0  0  0  0  0  2  0  0  0  0  0  0
   11.5490  326.0380    7.6410 C   0  0  0  0  0  1  0  0  0  0  0  0
   11.4880  324.8200    8.4920 C   0  0  0  0  0  0  0  0  0  0  0  0
   11.0340  324.8240    9.7580 N   0  0  0  0  0  0  0  0  0  0  0  0
   11.1690  323.5340   10.1160 C   0  0  0  0  0  0  0  0  0  0  0  0
   11.6810  322.7870    9.0760 C   0  0  0  0  0  3  0  0  0  0  0  0
   11.8680  323.6300    8.0870 O   0  0  0  0  0  0  0  0  0  0  0  0
   11.6930  323.4690   12.5090 C   0  0  0  0  0  0  0  0  0  0  0  0
   12.8990  323.1070   12.4760 O   0  0  0  0  0  0  0  0  0  0  0  0
   11.2300  324.3720   13.5720 C   0  0  0  0  0  0  0  0  0  0  0  0
   11.9250  324.6080   14.7040 N   0  0  0  0  0  0  0  0  0  0  0  0
   11.2850  325.4810   15.5290 C   0  0  0  0  0  3  0  0  0  0  0  0
   10.0600  325.9590   15.0650 C   0  0  0  0  0  3  0  0  0  0  0  0
    9.7970  325.2440   13.5630 S   0  0  0  0  0  0  0  0  0  0  0  0
  1  8  1  0
  2  3  1  0
  3  4  2  0
  4  5  1  0
  5  1  1  0
  6  5  2  0
  7  3  1  0
  7  6  1  0
  8 10  1  0
  9  8  2  0
 10 11  2  0
 11 12  1  0
 13 12  2  0
 14 10  1  0
 14 13  1  0
M  RAD  5   1   3   2   2   6   2  12   2  13   2
M  END
>  <MODEL>  (46) 
2

>  <TORSDO>  (46) 
F 3

>  <SCORE>  (46) 
-5.6

>  <ligand_id>  (46) 
22

>  <original_smiles>  (46) 
Cc1nc(CC(=O)c2nccs2)co1

>  <smiles>  (46) 
Cc1nc(CC(=O)c2nccs2)co1

$$$$
23:0:0
     RDKit          3D

 10 11  0  0  0  0  0  0  0  0999 V2000
    6.5130  334.7720   12.0900 C   0  0  0  0  0  3  0  0  0  0  0  0
    6.9520  336.1000   12.0730 C   0  0  0  0  0  3  0  0  0  0  0  0
    7.3730  336.6870   10.8750 C   0  0  0  0  0  3  0  0  0  0  0  0
    7.3540  335.9430    9.6930 C   0  0  0  0  0  0  0  0  0  0  0  0
    7.7690  336.5100    8.4860 C   0  0  0  0  0  3  0  0  0  0  0  0
    7.7440  335.7700    7.3440 N   0  0  0  0  0  0  0  0  0  0  0  0
    7.3210  334.4750    7.3380 C   0  0  0  0  0  3  0  0  0  0  0  0
    6.8960  333.8670    8.5220 C   0  0  0  0  0  3  0  0  0  0  0  0
    6.9120  334.6030    9.7070 C   0  0  0  0  0  0  0  0  0  0  0  0
    6.4930  334.0220   10.9080 C   0  0  0  0  0  3  0  0  0  0  0  0
  2  1  2  0
  3  2  1  0
  4  9  1  0
  4  3  2  0
  5  4  1  0
  6  5  2  0
  7  6  1  0
  7  8  2  0
  8  9  1  0
  9 10  2  0
 10  1  1  0
M  RAD  7   1   2   2   2   3   2   5   2   7   2   8   2  10   2
M  END
>  <MODEL>  (47) 
1

>  <TORSDO>  (47) 
F 0

>  <SCORE>  (47) 
-6.2

>  <ligand_id>  (47) 
23

>  <original_smiles>  (47) 
c1ccc2cnccc2c1

>  <smiles>  (47) 
c1ccc2cnccc2c1

$$$$
23:0:1
     RDKit          3D

 10 11  0  0  0  0  0  0  0  0999 V2000
    6.9660  336.0420   12.0090 C   0  0  0  0  0  3  0  0  0  0  0  0
    6.5240  334.7150   11.9850 C   0  0  0  0  0  3  0  0  0  0  0  0
    6.5090  334.0000   10.7820 C   0  0  0  0  0  3  0  0  0  0  0  0
    6.9340  334.6150    9.6030 C   0  0  0  0  0  0  0  0  0  0  0  0
    6.9270  333.9200    8.3920 C   0  0  0  0  0  3  0  0  0  0  0  0
    7.3450  334.5350    7.2530 N   0  0  0  0  0  0  0  0  0  0  0  0
    7.7780  335.8270    7.2530 C   0  0  0  0  0  3  0  0  0  0  0  0
    7.8040  336.5610    8.4420 C   0  0  0  0  0  3  0  0  0  0  0  0
    7.3800  335.9540    9.6250 C   0  0  0  0  0  0  0  0  0  0  0  0
    7.3930  336.6630   10.8300 C   0  0  0  0  0  3  0  0  0  0  0  0
  2  1  2  0
  3  2  1  0
  4  9  1  0
  4  3  2  0
  5  4  1  0
  6  7  1  0
  6  5  2  0
  7  8  2  0
  8  9  1  0
  9 10  2  0
 10  1  1  0
M  RAD  7   1   2   2   2   3   2   5   2   7   2   8   2  10   2
M  END
>  <MODEL>  (48) 
2

>  <TORSDO>  (48) 
F 0

>  <SCORE>  (48) 
-6.1

>  <ligand_id>  (48) 
23

>  <original_smiles>  (48) 
c1ccc2cnccc2c1

>  <smiles>  (48) 
c1ccc2cnccc2c1

$$$$
24:0:0
     RDKit          3D

 10 11  0  0  0  0  0  0  0  0999 V2000
    7.6260  335.5300    7.2540 C   0  0  0  0  0  3  0  0  0  0  0  0
    7.1700  334.2180    7.4180 C   0  0  0  0  0  3  0  0  0  0  0  0
    6.8040  333.7670    8.6480 N   0  0  0  0  0  0  0  0  0  0  0  0
    6.8720  334.5690    9.7450 C   0  0  0  0  0  0  0  0  0  0  0  0
    6.4940  334.0920   11.0000 C   0  0  0  0  0  3  0  0  0  0  0  0
    6.5730  334.9360   12.1110 C   0  0  0  0  0  3  0  0  0  0  0  0
    7.0300  336.2480   11.9480 C   0  0  0  0  0  3  0  0  0  0  0  0
    7.3940  336.6990   10.7170 N   0  0  0  0  0  0  0  0  0  0  0  0
    7.3270  335.8970    9.6200 C   0  0  0  0  0  0  0  0  0  0  0  0
    7.7050  336.3730    8.3650 C   0  0  0  0  0  3  0  0  0  0  0  0
  1  2  2  0
  1 10  1  0
  2  3  1  0
  3  4  2  0
  4  5  1  0
  5  6  2  0
  7  6  1  0
  8  7  2  0
  9  4  1  0
  9  8  1  0
 10  9  2  0
M  RAD  6   1   2   2   2   5   2   6   2   7   2  10   2
M  END
>  <MODEL>  (49) 
1

>  <TORSDO>  (49) 
F 0

>  <SCORE>  (49) 
-5.3

>  <ligand_id>  (49) 
24

>  <original_smiles>  (49) 
c1cnc2cccnc2c1

>  <smiles>  (49) 
c1cnc2cccnc2c1

$$$$
24:0:1
     RDKit          3D

 10 11  0  0  0  0  0  0  0  0999 V2000
    7.1810  334.2590    7.3800 C   0  0  0  0  0  3  0  0  0  0  0  0
    7.6410  335.5780    7.3070 C   0  0  0  0  0  3  0  0  0  0  0  0
    7.6970  336.3490    8.4270 N   0  0  0  0  0  0  0  0  0  0  0  0
    7.3110  335.8650    9.6380 C   0  0  0  0  0  0  0  0  0  0  0  0
    7.3740  336.6670   10.7780 C   0  0  0  0  0  3  0  0  0  0  0  0
    6.9710  336.1470   12.0110 C   0  0  0  0  0  3  0  0  0  0  0  0
    6.5110  334.8270   12.0840 C   0  0  0  0  0  3  0  0  0  0  0  0
    6.4560  334.0570   10.9640 N   0  0  0  0  0  0  0  0  0  0  0  0
    6.8420  334.5410    9.7530 C   0  0  0  0  0  0  0  0  0  0  0  0
    6.7790  333.7390    8.6120 C   0  0  0  0  0  3  0  0  0  0  0  0
  1 10  2  0
  2  1  1  0
  2  3  2  0
  3  4  1  0
  4  9  2  0
  4  5  1  0
  5  6  2  0
  6  7  1  0
  8  7  2  0
  9  8  1  0
 10  9  1  0
M  RAD  6   1   2   2   2   5   2   6   2   7   2  10   2
M  END
>  <MODEL>  (50) 
2

>  <TORSDO>  (50) 
F 0

>  <SCORE>  (50) 
-5.3

>  <ligand_id>  (50) 
24

>  <original_smiles>  (50) 
c1cnc2cccnc2c1

>  <smiles>  (50) 
c1cnc2cccnc2c1

$$$$
25:0:0
     RDKit          3D

 10 11  0  0  0  0  0  0  0  0999 V2000
    7.1360  336.7030   12.1120 C   0  0  0  0  0  3  0  0  0  0  0  0
    7.7030  337.4950   11.1080 C   0  0  0  0  0  3  0  0  0  0  0  0
    7.8250  337.0150    9.8400 N   0  0  0  0  0  0  0  0  0  0  0  0
    7.4040  335.7630    9.5130 C   0  0  0  0  0  0  0  0  0  0  0  0
    7.5390  335.2910    8.2070 C   0  0  0  0  0  3  0  0  0  0  0  0
    7.0960  334.0010    7.9030 C   0  0  0  0  0  3  0  0  0  0  0  0
    6.5420  333.2180    8.8690 N   0  0  0  0  0  0  0  0  0  0  0  0
    6.4000  333.6550   10.1500 C   0  0  0  0  0  3  0  0  0  0  0  0
    6.8270  334.9370   10.4980 C   0  0  0  0  0  0  0  0  0  0  0  0
    6.6960  335.4140   11.8020 C   0  0  0  0  0  3  0  0  0  0  0  0
  2  1  2  0
  3  2  1  0
  4  3  2  0
  4  9  1  0
  5  4  1  0
  6  5  2  0
  6  7  1  0
  7  8  2  0
  8  9  1  0
  9 10  2  0
 10  1  1  0
M  RAD  6   1   2   2   2   5   2   6   2   8   2  10   2
M  END
>  <MODEL>  (51) 
1

>  <TORSDO>  (51) 
F 0

>  <SCORE>  (51) 
-5.3

>  <ligand_id>  (51) 
25

>  <original_smiles>  (51) 
c1cnc2ccncc2c1

>  <smiles>  (51) 
c1cnc2ccncc2c1

$$$$
25:0:1
     RDKit          3D

 10 11  0  0  0  0  0  0  0  0999 V2000
   12.2380  322.1180    8.9070 C   0  0  0  0  0  3  0  0  0  0  0  0
   11.5710  323.0850    8.1480 C   0  0  0  0  0  3  0  0  0  0  0  0
   10.8460  324.0600    8.7610 N   0  0  0  0  0  0  0  0  0  0  0  0
   10.7480  324.1230   10.1170 C   0  0  0  0  0  0  0  0  0  0  0  0
    9.9990  325.1320   10.7250 C   0  0  0  0  0  3  0  0  0  0  0  0
    9.9190  325.1700   12.1200 C   0  0  0  0  0  3  0  0  0  0  0  0
   10.5620  324.2350   12.8720 N   0  0  0  0  0  0  0  0  0  0  0  0
   11.2980  323.2420   12.3030 C   0  0  0  0  0  3  0  0  0  0  0  0
   11.4070  323.1660   10.9140 C   0  0  0  0  0  0  0  0  0  0  0  0
   12.1540  322.1600   10.3000 C   0  0  0  0  0  3  0  0  0  0  0  0
  1 10  2  0
  2  3  2  0
  2  1  1  0
  3  4  1  0
  4  5  1  0
  4  9  2  0
  5  6  2  0
  6  7  1  0
  8  7  2  0
  9  8  1  0
 10  9  1  0
M  RAD  6   1   2   2   2   5   2   6   2   8   2  10   2
M  END
>  <MODEL>  (52) 
2

>  <TORSDO>  (52) 
F 0

>  <SCORE>  (52) 
-5.3

>  <ligand_id>  (52) 
25

>  <original_smiles>  (52) 
c1cnc2ccncc2c1

>  <smiles>  (52) 
c1cnc2ccncc2c1

$$$$
26:0:0
     RDKit          3D

 12 13  0  0  0  0  0  0  0  0999 V2000
    6.6070  327.3720    6.1440 N   0  0  0  0  0  2  0  0  0  0  0  0
    7.3450  326.6240    5.3920 C   0  0  0  0  0  0  0  0  0  0  0  0
    7.2510  326.7120    4.0350 N   0  0  0  0  0  0  0  0  0  0  0  0
    8.0190  325.9320    3.2150 C   0  0  0  0  0  2  0  0  0  0  0  0
    8.9050  325.0400    3.7430 N   0  0  0  0  0  0  0  0  0  0  0  0
    9.0050  324.9450    5.0900 C   0  0  0  0  0  0  0  0  0  0  0  0
   10.0060  323.9370    5.9690 S   0  0  0  0  0  0  0  0  0  0  0  0
    9.4780  324.4780    7.4880 C   0  0  0  0  0  3  0  0  0  0  0  0
    8.5010  325.4640    7.2970 C   0  0  0  0  0  3  0  0  0  0  0  0
    8.2480  325.7130    5.9430 C   0  0  0  0  0  0  0  0  0  0  0  0
    6.6800  327.3040    7.1690 H   0  0  0  0  0  0  0  0  0  0  0  0
    9.4850  324.4500    3.1290 H   0  0  0  0  0  0  0  0  0  0  0  0
  1 11  1  0
  2 10  1  0
  2  1  1  0
  3  2  2  0
  4  5  1  0
  4  3  1  0
  5  6  1  0
  6 10  2  0
  6  7  1  0
  7  8  1  0
  9  8  2  0
 10  9  1  0
 12  5  1  0
M  RAD  4   1   2   4   3   8   2   9   2
M  END
>  <MODEL>  (53) 
1

>  <TORSDO>  (53) 
F 0

>  <SCORE>  (53) 
-5.2

>  <ligand_id>  (53) 
26

>  <original_smiles>  (53) 
N=c1nc[nH]c2sccc12

>  <smiles>  (53) 
N=c1nc[nH]c2sccc12

$$$$
26:0:1
     RDKit          3D

 12 13  0  0  0  0  0  0  0  0999 V2000
    9.8420  335.8100   25.4910 N   0  0  0  0  0  2  0  0  0  0  0  0
    8.7160  335.8210   26.1250 C   0  0  0  0  0  0  0  0  0  0  0  0
    8.6680  336.2260   27.4260 N   0  0  0  0  0  0  0  0  0  0  0  0
    7.4910  336.2470   28.1220 C   0  0  0  0  0  2  0  0  0  0  0  0
    6.3280  335.8600   27.5230 N   0  0  0  0  0  0  0  0  0  0  0  0
    6.3670  335.4560   26.2310 C   0  0  0  0  0  0  0  0  0  0  0  0
    5.0910  334.9390   25.2870 S   0  0  0  0  0  0  0  0  0  0  0  0
    6.0260  334.6570   23.8990 C   0  0  0  0  0  3  0  0  0  0  0  0
    7.3600  334.9750   24.1870 C   0  0  0  0  0  3  0  0  0  0  0  0
    7.5330  335.4220   25.5030 C   0  0  0  0  0  0  0  0  0  0  0  0
    9.8770  335.5040   24.5080 H   0  0  0  0  0  0  0  0  0  0  0  0
    5.4390  335.8740   28.0440 H   0  0  0  0  0  0  0  0  0  0  0  0
  1  2  1  0
  2  3  2  0
  3  4  1  0
  5 12  1  0
  5  4  1  0
  6  5  1  0
  7  6  1  0
  8  9  2  0
  8  7  1  0
  9 10  1  0
 10  2  1  0
 10  6  2  0
 11  1  1  0
M  RAD  4   1   2   4   3   8   2   9   2
M  END
>  <MODEL>  (54) 
2

>  <TORSDO>  (54) 
F 0

>  <SCORE>  (54) 
-5.1

>  <ligand_id>  (54) 
26

>  <original_smiles>  (54) 
N=c1nc[nH]c2sccc12

>  <smiles>  (54) 
N=c1nc[nH]c2sccc12

$$$$
27:0:0
     RDKit          3D

 19 21  0  0  0  0  0  0  0  0999 V2000
    7.7840  335.9840    6.1660 C   0  0  0  0  0  1  0  0  0  0  0  0
    7.4440  335.5670    7.5510 C   0  0  0  0  0  0  0  0  0  0  0  0
    6.9630  334.2580    7.7920 C   0  0  0  0  0  3  0  0  0  0  0  0
    6.6510  333.8580    9.1040 C   0  0  0  0  0  0  0  0  0  0  0  0
    6.1680  332.4780    9.3840 C   0  0  0  0  0  1  0  0  0  0  0  0
    6.8300  334.7970   10.1160 C   0  0  0  0  0  0  0  0  0  0  0  0
    6.6900  334.7330   11.4910 C   0  0  0  0  0  3  0  0  0  0  0  0
    7.0580  335.9450   11.9850 N   0  0  0  0  0  0  0  0  0  0  0  0
    7.4020  336.7460   10.9810 N   0  0  0  0  0  0  0  0  0  0  0  0
    7.2760  336.0510    9.8400 C   0  0  0  0  0  0  0  0  0  0  0  0
    7.6050  336.4480    8.5850 N   0  0  0  0  0  0  0  0  0  0  0  0
    7.8970  338.0830   11.1580 C   0  0  0  0  0  0  0  0  0  0  0  0
    9.1920  338.3940   10.7200 C   0  0  0  0  0  3  0  0  0  0  0  0
    9.7050  339.6840   10.8780 C   0  0  0  0  0  3  0  0  0  0  0  0
    8.9300  340.6730   11.4860 C   0  0  0  0  0  3  0  0  0  0  0  0
    7.6470  340.3700   11.9460 C   0  0  0  0  0  3  0  0  0  0  0  0
    7.1290  339.0800   11.7960 C   0  0  0  0  0  0  0  0  0  0  0  0
    5.8710  338.7950   12.3110 O   0  0  0  0  0  0  0  0  0  0  0  0
    5.2270  338.2630   11.7800 H   0  0  0  0  0  0  0  0  0  0  0  0
  1  2  1  0
  2  3  2  0
  2 11  1  0
  3  4  1  0
  4  5  1  0
  4  6  2  0
  6  7  1  0
  7  8  2  0
  9 12  1  0
  9  8  1  0
 10  6  1  0
 10  9  1  0
 11 10  2  0
 12 17  2  0
 13 14  2  0
 13 12  1  0
 14 15  1  0
 15 16  2  0
 17 16  1  0
 17 18  1  0
 19 18  1  0
M  RAD  8   1   2   3   2   5   2   7   2  13   2  14   2  15   2  16   2
M  END
>  <MODEL>  (55) 
1

>  <TORSDO>  (55) 
F 2

>  <SCORE>  (55) 
-8.6

>  <ligand_id>  (55) 
27

>  <original_smiles>  (55) 
Cc1cc(C)c2cnn(-c3ccccc3O)c2n1

>  <smiles>  (55) 
Cc1cc(C)c2cnn(-c3ccccc3O)c2n1

$$$$
27:0:1
     RDKit          3D

 19 21  0  0  0  0  0  0  0  0999 V2000
    6.4230  334.2980   12.0330 C   0  0  0  0  0  1  0  0  0  0  0  0
    6.7320  334.5880   10.6090 C   0  0  0  0  0  0  0  0  0  0  0  0
    6.4220  333.6320    9.6140 C   0  0  0  0  0  3  0  0  0  0  0  0
    6.7040  333.9090    8.2640 C   0  0  0  0  0  0  0  0  0  0  0  0
    6.3640  332.9280    7.1980 C   0  0  0  0  0  1  0  0  0  0  0  0
    7.2920  335.1380    7.9760 C   0  0  0  0  0  0  0  0  0  0  0  0
    7.6390  335.7570    6.7880 C   0  0  0  0  0  3  0  0  0  0  0  0
    8.1290  336.9850    7.1070 N   0  0  0  0  0  0  0  0  0  0  0  0
    8.1090  337.1390    8.4280 N   0  0  0  0  0  0  0  0  0  0  0  0
    7.5920  336.0220    8.9640 C   0  0  0  0  0  0  0  0  0  0  0  0
    7.3060  335.7820   10.2690 N   0  0  0  0  0  0  0  0  0  0  0  0
    8.5060  338.3460    9.0970 C   0  0  0  0  0  0  0  0  0  0  0  0
    9.3840  338.2630   10.1870 C   0  0  0  0  0  3  0  0  0  0  0  0
    9.7900  339.4190   10.8620 C   0  0  0  0  0  3  0  0  0  0  0  0
    9.3110  340.6660   10.4590 C   0  0  0  0  0  3  0  0  0  0  0  0
    8.4170  340.7580    9.3890 C   0  0  0  0  0  3  0  0  0  0  0  0
    8.0040  339.6070    8.7120 C   0  0  0  0  0  0  0  0  0  0  0  0
    7.0740  339.7260    7.6870 O   0  0  0  0  0  0  0  0  0  0  0  0
    6.1340  339.4590    7.8390 H   0  0  0  0  0  0  0  0  0  0  0  0
  2  1  1  0
  3  2  2  0
  4  3  1  0
  5  4  1  0
  6  4  2  0
  6 10  1  0
  7  8  2  0
  7  6  1  0
  8  9  1  0
  9 10  1  0
  9 12  1  0
 10 11  2  0
 11  2  1  0
 12 13  2  0
 13 14  1  0
 15 14  2  0
 16 15  1  0
 17 12  1  0
 17 16  2  0
 18 19  1  0
 18 17  1  0
M  RAD  8   1   2   3   2   5   2   7   2  13   2  14   2  15   2  16   2
M  END
>  <MODEL>  (56) 
2

>  <TORSDO>  (56) 
F 2

>  <SCORE>  (56) 
-8.1

>  <ligand_id>  (56) 
27

>  <original_smiles>  (56) 
Cc1cc(C)c2cnn(-c3ccccc3O)c2n1

>  <smiles>  (56) 
Cc1cc(C)c2cnn(-c3ccccc3O)c2n1

$$$$
28:0:0
     RDKit          3D

 10 11  0  0  0  0  0  0  0  0999 V2000
   10.7730  353.3100   21.6160 C   0  0  0  0  0  1  0  0  0  0  0  0
   11.3060  353.2430   23.0010 C   0  0  0  0  0  0  0  0  0  0  0  0
   10.6390  352.6480   24.0210 N   0  0  0  0  0  0  0  0  0  0  0  0
   11.3550  352.7320   25.1700 C   0  0  0  0  0  0  0  0  0  0  0  0
   10.9520  352.2210   26.4010 C   0  0  0  0  0  3  0  0  0  0  0  0
   11.8100  352.3910   27.5010 C   0  0  0  0  0  3  0  0  0  0  0  0
   13.0390  353.0640   27.3350 C   0  0  0  0  0  3  0  0  0  0  0  0
   13.4020  353.5510   26.1130 N   0  0  0  0  0  0  0  0  0  0  0  0
   12.5670  353.3830   25.0580 C   0  0  0  0  0  0  0  0  0  0  0  0
   12.8000  353.8920   23.4790 S   0  0  0  0  0  0  0  0  0  0  0  0
  1  2  1  0
  2 10  1  0
  2  3  2  0
  3  4  1  0
  4  5  1  0
  5  6  2  0
  7  6  1  0
  8  7  2  0
  9  4  2  0
  9  8  1  0
 10  9  1  0
M  RAD  4   1   2   5   2   6   2   7   2
M  END
>  <MODEL>  (57) 
1

>  <TORSDO>  (57) 
F 0

>  <SCORE>  (57) 
-5.6

>  <ligand_id>  (57) 
28

>  <original_smiles>  (57) 
Cc1nc2cccnc2s1

>  <smiles>  (57) 
Cc1nc2cccnc2s1

$$$$
28:0:1
     RDKit          3D

 10 11  0  0  0  0  0  0  0  0999 V2000
   12.6900  322.6850   11.9590 C   0  0  0  0  0  1  0  0  0  0  0  0
   11.9930  323.0640   10.7030 C   0  0  0  0  0  0  0  0  0  0  0  0
   10.9270  323.9020   10.6740 N   0  0  0  0  0  0  0  0  0  0  0  0
   10.4910  324.0740    9.4000 C   0  0  0  0  0  0  0  0  0  0  0  0
    9.4150  324.8730    9.0250 C   0  0  0  0  0  3  0  0  0  0  0  0
    9.0890  324.9450    7.6600 C   0  0  0  0  0  3  0  0  0  0  0  0
    9.8460  324.2190    6.7180 C   0  0  0  0  0  3  0  0  0  0  0  0
   10.8960  323.4450    7.1220 N   0  0  0  0  0  0  0  0  0  0  0  0
   11.2030  323.3810    8.4410 C   0  0  0  0  0  0  0  0  0  0  0  0
   12.4360  322.5060    9.1620 S   0  0  0  0  0  0  0  0  0  0  0  0
  2  1  1  0
  3  2  2  0
  4  3  1  0
  5  4  2  0
  6  5  1  0
  7  8  1  0
  7  6  2  0
  8  9  2  0
  9 10  1  0
  9  4  1  0
 10  2  1  0
M  RAD  4   1   2   5   2   6   2   7   2
M  END
>  <MODEL>  (58) 
2

>  <TORSDO>  (58) 
F 0

>  <SCORE>  (58) 
-5.1

>  <ligand_id>  (58) 
28

>  <original_smiles>  (58) 
Cc1nc2cccnc2s1

>  <smiles>  (58) 
Cc1nc2cccnc2s1

$$$$
29:0:0
     RDKit          3D

 11 12  0  0  0  0  0  0  0  0999 V2000
    6.5580  333.9450   10.6880 C   0  0  0  0  0  3  0  0  0  0  0  0
    6.5630  334.3970   12.0090 C   0  0  0  0  0  3  0  0  0  0  0  0
    6.8280  335.7380   12.2830 C   0  0  0  0  0  3  0  0  0  0  0  0
    7.0870  336.6200   11.2260 C   0  0  0  0  0  0  0  0  0  0  0  0
    7.0750  336.1550    9.9460 N   0  0  0  0  0  0  0  0  0  0  0  0
    6.8190  334.8500    9.6580 C   0  0  0  0  0  3  0  0  0  0  0  0
    7.3680  338.0380   11.4930 C   0  0  0  0  0  0  0  0  0  0  0  0
    6.4970  338.8800   12.0850 N   0  0  0  0  0  0  0  0  0  0  0  0
    7.0020  340.1380   12.2150 C   0  0  0  0  0  3  0  0  0  0  0  0
    8.2960  340.3180   11.7250 C   0  0  0  0  0  3  0  0  0  0  0  0
    8.7960  338.8310   11.1140 S   0  0  0  0  0  0  0  0  0  0  0  0
  1  2  2  0
  2  3  1  0
  4  7  1  0
  4  3  2  0
  5  4  1  0
  6  5  2  0
  6  1  1  0
  7  8  2  0
  8  9  1  0
 10  9  2  0
 11  7  1  0
 11 10  1  0
M  RAD  6   1   2   2   2   3   2   6   2   9   2  10   2
M  END
>  <MODEL>  (59) 
1

>  <TORSDO>  (59) 
F 1

>  <SCORE>  (59) 
-5.6

>  <ligand_id>  (59) 
29

>  <original_smiles>  (59) 
c1ccc(-c2nccs2)nc1

>  <smiles>  (59) 
c1ccc(-c2nccs2)nc1

$$$$
29:0:1
     RDKit          3D

 11 12  0  0  0  0  0  0  0  0999 V2000
   11.8730  322.5240   10.7240 C   0  0  0  0  0  3  0  0  0  0  0  0
   12.0930  322.0130    9.4450 C   0  0  0  0  0  3  0  0  0  0  0  0
   11.9070  322.8290    8.3290 C   0  0  0  0  0  3  0  0  0  0  0  0
   11.5000  324.1580    8.5080 C   0  0  0  0  0  0  0  0  0  0  0  0
   11.2930  324.6330    9.7670 N   0  0  0  0  0  0  0  0  0  0  0  0
   11.4690  323.8520   10.8670 C   0  0  0  0  0  3  0  0  0  0  0  0
   11.2990  325.0360    7.3460 C   0  0  0  0  0  0  0  0  0  0  0  0
   11.7800  326.2930    7.2590 N   0  0  0  0  0  0  0  0  0  0  0  0
   11.4540  326.8890    6.0790 C   0  0  0  0  0  3  0  0  0  0  0  0
   10.7020  326.1100    5.2010 C   0  0  0  0  0  3  0  0  0  0  0  0
   10.4540  324.6260    5.9570 S   0  0  0  0  0  0  0  0  0  0  0  0
  1  6  2  0
  2  1  1  0
  3  4  1  0
  3  2  2  0
  4  5  2  0
  5  6  1  0
  7  4  1  0
  8  7  2  0
  9  8  1  0
 10 11  1  0
 10  9  2  0
 11  7  1  0
M  RAD  6   1   2   2   2   3   2   6   2   9   2  10   2
M  END
>  <MODEL>  (60) 
2

>  <TORSDO>  (60) 
F 1

>  <SCORE>  (60) 
-5.4

>  <ligand_id>  (60) 
29

>  <original_smiles>  (60) 
c1ccc(-c2nccs2)nc1

>  <smiles>  (60) 
c1ccc(-c2nccs2)nc1

$$$$
30:0:0
     RDKit          3D

 11 12  0  0  0  0  0  0  0  0999 V2000
    7.2860  335.0410    7.5190 C   0  0  0  0  0  0  0  0  0  0  0  0
    7.5380  336.1440    8.3370 C   0  0  0  0  0  3  0  0  0  0  0  0
    7.2420  335.8530    9.6700 C   0  0  0  0  0  0  0  0  0  0  0  0
    7.3800  336.7240   10.7030 N   0  0  0  0  0  0  0  0  0  0  0  0
    7.0640  336.3330   11.9720 C   0  0  0  0  0  3  0  0  0  0  0  0
    6.5960  335.0290   12.2250 C   0  0  0  0  0  3  0  0  0  0  0  0
    6.4530  334.1220   11.1640 C   0  0  0  0  0  3  0  0  0  0  0  0
    6.7850  334.5650    9.8900 C   0  0  0  0  0  0  0  0  0  0  0  0
    6.7280  333.7320    8.4380 S   0  0  0  0  0  0  0  0  0  0  0  0
    7.6410  336.4120    5.5080 C   0  0  0  0  0  1  0  0  0  0  0  0
    7.5320  335.0010    6.0520 C   0  0  0  0  0  2  0  0  0  0  0  0
  1  2  2  0
  1  9  1  0
  2  3  1  0
  3  8  2  0
  3  4  1  0
  4  5  2  0
  5  6  1  0
  7  6  2  0
  8  7  1  0
  9  8  1  0
 10 11  1  0
 11  1  1  0
M  RAD  6   2   2   5   2   6   2   7   2  10   2  11   3
M  END
>  <MODEL>  (61) 
1

>  <TORSDO>  (61) 
F 1

>  <SCORE>  (61) 
-5.6

>  <ligand_id>  (61) 
30

>  <original_smiles>  (61) 
CCc1cc2ncccc2s1

>  <smiles>  (61) 
CCc1cc2ncccc2s1

$$$$
30:0:1
     RDKit          3D

 11 12  0  0  0  0  0  0  0  0999 V2000
    7.8700  336.9450    9.6500 C   0  0  0  0  0  0  0  0  0  0  0  0
    7.4730  335.6470    9.3260 C   0  0  0  0  0  3  0  0  0  0  0  0
    7.4450  335.4650    7.9420 C   0  0  0  0  0  0  0  0  0  0  0  0
    7.0950  334.3110    7.3190 N   0  0  0  0  0  0  0  0  0  0  0  0
    7.1060  334.2420    5.9550 C   0  0  0  0  0  3  0  0  0  0  0  0
    7.4790  335.3600    5.1830 C   0  0  0  0  0  3  0  0  0  0  0  0
    7.8440  336.5550    5.8200 C   0  0  0  0  0  3  0  0  0  0  0  0
    7.8160  336.5790    7.2090 C   0  0  0  0  0  0  0  0  0  0  0  0
    8.1950  337.8380    8.2470 S   0  0  0  0  0  0  0  0  0  0  0  0
    7.0790  336.7510   11.9720 C   0  0  0  0  0  1  0  0  0  0  0  0
    8.0420  337.4570   11.0370 C   0  0  0  0  0  2  0  0  0  0  0  0
  1 11  1  0
  2  1  2  0
  3  2  1  0
  4  3  2  0
  5  4  1  0
  6  7  1  0
  6  5  2  0
  7  8  2  0
  8  3  1  0
  8  9  1  0
  9  1  1  0
 11 10  1  0
M  RAD  6   2   2   5   2   6   2   7   2  10   2  11   3
M  END
>  <MODEL>  (62) 
2

>  <TORSDO>  (62) 
F 1

>  <SCORE>  (62) 
-5.5

>  <ligand_id>  (62) 
30

>  <original_smiles>  (62) 
CCc1cc2ncccc2s1

>  <smiles>  (62) 
CCc1cc2ncccc2s1

$$$$
31:0:0
     RDKit          3D

  9 10  0  0  0  0  0  0  0  0999 V2000
    7.0720  336.4350   12.2470 C   0  0  0  0  0  3  0  0  0  0  0  0
    7.5750  337.3040   11.2590 C   0  0  0  0  0  3  0  0  0  0  0  0
    7.6570  336.8980    9.9590 N   0  0  0  0  0  0  0  0  0  0  0  0
    7.2490  335.6490    9.6280 C   0  0  0  0  0  0  0  0  0  0  0  0
    7.2550  334.9410    8.1160 S   0  0  0  0  0  0  0  0  0  0  0  0
    6.6070  333.4590    8.6340 C   0  0  0  0  0  3  0  0  0  0  0  0
    6.3840  333.5270   10.0150 C   0  0  0  0  0  3  0  0  0  0  0  0
    6.7490  334.7610   10.5560 C   0  0  0  0  0  0  0  0  0  0  0  0
    6.6510  335.1430   11.8930 C   0  0  0  0  0  3  0  0  0  0  0  0
  2  1  2  0
  3  2  1  0
  4  3  2  0
  4  8  1  0
  5  6  1  0
  5  4  1  0
  6  7  2  0
  7  8  1  0
  8  9  2  0
  9  1  1  0
M  RAD  5   1   2   2   2   6   2   7   2   9   2
M  END
>  <MODEL>  (63) 
1

>  <TORSDO>  (63) 
F 0

>  <SCORE>  (63) 
-5.0

>  <ligand_id>  (63) 
31

>  <original_smiles>  (63) 
c1cnc2sccc2c1

>  <smiles>  (63) 
c1cnc2sccc2c1

$$$$
31:0:1
     RDKit          3D

  9 10  0  0  0  0  0  0  0  0999 V2000
   11.6260  353.4730   23.1830 C   0  0  0  0  0  3  0  0  0  0  0  0
   12.7750  354.1520   23.6330 C   0  0  0  0  0  3  0  0  0  0  0  0
   13.1850  354.0330   24.9290 N   0  0  0  0  0  0  0  0  0  0  0  0
   12.4730  353.2540   25.7800 C   0  0  0  0  0  0  0  0  0  0  0  0
   12.7820  352.9610   27.3950 S   0  0  0  0  0  0  0  0  0  0  0  0
   11.4490  351.9350   27.6250 C   0  0  0  0  0  3  0  0  0  0  0  0
   10.7540  351.8240   26.4130 C   0  0  0  0  0  3  0  0  0  0  0  0
   11.3420  352.5690   25.3900 C   0  0  0  0  0  0  0  0  0  0  0  0
   10.8960  352.6690   24.0730 C   0  0  0  0  0  3  0  0  0  0  0  0
  1  2  2  0
  1  9  1  0
  2  3  1  0
  3  4  2  0
  4  5  1  0
  5  6  1  0
  7  6  2  0
  8  4  1  0
  8  7  1  0
  9  8  2  0
M  RAD  5   1   2   2   2   6   2   7   2   9   2
M  END
>  <MODEL>  (64) 
2

>  <TORSDO>  (64) 
F 0

>  <SCORE>  (64) 
-4.9

>  <ligand_id>  (64) 
31

>  <original_smiles>  (64) 
c1cnc2sccc2c1

>  <smiles>  (64) 
c1cnc2sccc2c1

$$$$
32:0:0
     RDKit          3D

 11 12  0  0  1  0  0  0  0  0999 V2000
    8.1620  337.6360    8.3070 O   0  0  0  0  0  0  0  0  0  0  0  0
    7.7450  336.4520    8.4250 C   0  0  0  0  0  0  0  0  0  0  0  0
    7.6850  335.6410    7.2930 C   0  0  0  0  0  2  0  0  0  0  0  0
    7.2260  334.3350    7.4260 C   0  0  0  0  0  3  0  0  0  0  0  0
    6.8450  333.8710    8.6430 N   0  0  0  0  0  0  0  0  0  0  0  0
    6.9050  334.6630    9.7450 C   0  0  0  0  0  3  0  0  0  0  0  0
    6.5040  334.1490   10.9800 C   0  0  0  0  0  3  0  0  0  0  0  0
    6.5650  334.9600   12.1130 C   0  0  0  0  0  3  0  0  0  0  0  0
    7.0230  336.2710   12.0020 C   0  0  0  0  0  3  0  0  0  0  0  0
    7.4160  336.7560   10.7520 C   0  0  0  0  0  3  0  0  0  0  0  0
    7.3560  335.9610    9.6430 N   0  0  0  0  0  0  0  0  0  0  0  0
  1  2  2  0
  2 11  1  0
  3  4  1  0
  3  2  1  0
  4  5  2  0
  5  6  1  0
  6  7  1  0
  7  8  2  0
  9  8  1  0
 10  9  2  0
 11  6  1  0
 11 10  1  0
M  RAD  7   3   3   4   2   6   2   7   2   8   2   9   2  10   2
M  END
>  <MODEL>  (65) 
1

>  <TORSDO>  (65) 
F 0

>  <SCORE>  (65) 
-5.9

>  <ligand_id>  (65) 
32

>  <original_smiles>  (65) 
O=c1ccnc2ccccn12

>  <smiles>  (65) 
O=c1ccnc2ccccn12

$$$$
32:0:1
     RDKit          3D

 11 12  0  0  1  0  0  0  0  0999 V2000
   13.7460  354.9250   24.3580 O   0  0  0  0  0  0  0  0  0  0  0  0
   12.7760  354.1200   24.4050 C   0  0  0  0  0  0  0  0  0  0  0  0
   12.0630  353.8530   23.2370 C   0  0  0  0  0  2  0  0  0  0  0  0
   10.9950  352.9630   23.2910 C   0  0  0  0  0  3  0  0  0  0  0  0
   10.6640  352.3740   24.4660 N   0  0  0  0  0  0  0  0  0  0  0  0
   11.3600  352.6340   25.6030 C   0  0  0  0  0  3  0  0  0  0  0  0
   10.9880  352.0080   26.7940 C   0  0  0  0  0  3  0  0  0  0  0  0
   11.7010  352.2740   27.9620 C   0  0  0  0  0  3  0  0  0  0  0  0
   12.7750  353.1610   27.9300 C   0  0  0  0  0  3  0  0  0  0  0  0
   13.1220  353.7730   26.7230 C   0  0  0  0  0  3  0  0  0  0  0  0
   12.4230  353.5120   25.5790 N   0  0  0  0  0  0  0  0  0  0  0  0
  1  2  2  0
  2 11  1  0
  3  4  1  0
  3  2  1  0
  4  5  2  0
  5  6  1  0
  6  7  1  0
  7  8  2  0
  9  8  1  0
 10  9  2  0
 11  6  1  0
 11 10  1  0
M  RAD  7   3   3   4   2   6   2   7   2   8   2   9   2  10   2
M  END
>  <MODEL>  (66) 
2

>  <TORSDO>  (66) 
F 0

>  <SCORE>  (66) 
-5.8

>  <ligand_id>  (66) 
32

>  <original_smiles>  (66) 
O=c1ccnc2ccccn12

>  <smiles>  (66) 
O=c1ccnc2ccccn12

$$$$
33:0:0
     RDKit          3D

  9 10  0  0  0  0  0  0  0  0999 V2000
    8.9250  324.9050    7.6050 C   0  0  0  0  0  3  0  0  0  0  0  0
    9.6180  324.1810    6.6150 C   0  0  0  0  0  3  0  0  0  0  0  0
   10.7400  323.4690    6.9320 N   0  0  0  0  0  0  0  0  0  0  0  0
   11.1950  323.4560    8.2120 C   0  0  0  0  0  0  0  0  0  0  0  0
   12.3270  322.7660    8.6510 C   0  0  0  0  0  3  0  0  0  0  0  0
   12.5570  322.9350   10.0220 C   0  0  0  0  0  3  0  0  0  0  0  0
   11.3410  323.9390   10.6490 S   0  0  0  0  0  0  0  0  0  0  0  0
   10.5370  324.1560    9.1990 C   0  0  0  0  0  0  0  0  0  0  0  0
    9.3910  324.8960    8.9290 C   0  0  0  0  0  3  0  0  0  0  0  0
  1  9  2  0
  2  3  2  0
  2  1  1  0
  3  4  1  0
  4  5  1  0
  4  8  2  0
  5  6  2  0
  6  7  1  0
  8  7  1  0
  9  8  1  0
M  RAD  5   1   2   2   2   5   2   6   2   9   2
M  END
>  <MODEL>  (67) 
1

>  <TORSDO>  (67) 
F 0

>  <SCORE>  (67) 
-4.8

>  <ligand_id>  (67) 
33

>  <original_smiles>  (67) 
c1cnc2ccsc2c1

>  <smiles>  (67) 
c1cnc2ccsc2c1

$$$$
33:0:1
     RDKit          3D

  9 10  0  0  0  0  0  0  0  0999 V2000
   12.2010  322.1550    8.8750 C   0  0  0  0  0  3  0  0  0  0  0  0
   11.5480  323.1400    8.1070 C   0  0  0  0  0  3  0  0  0  0  0  0
   10.8170  324.1220    8.7130 N   0  0  0  0  0  0  0  0  0  0  0  0
   10.7140  324.1530   10.0670 C   0  0  0  0  0  0  0  0  0  0  0  0
    9.9960  325.1050   10.7930 C   0  0  0  0  0  3  0  0  0  0  0  0
   10.0670  324.8880   12.1740 C   0  0  0  0  0  3  0  0  0  0  0  0
   11.0230  323.5140   12.4520 S   0  0  0  0  0  0  0  0  0  0  0  0
   11.3420  323.2010   10.8410 C   0  0  0  0  0  0  0  0  0  0  0  0
   12.0980  322.1810   10.2740 C   0  0  0  0  0  3  0  0  0  0  0  0
  1  9  2  0
  2  3  2  0
  2  1  1  0
  3  4  1  0
  4  5  1  0
  4  8  2  0
  5  6  2  0
  6  7  1  0
  8  7  1  0
  9  8  1  0
M  RAD  5   1   2   2   2   5   2   6   2   9   2
M  END
>  <MODEL>  (68) 
2

>  <TORSDO>  (68) 
F 0

>  <SCORE>  (68) 
-4.8

>  <ligand_id>  (68) 
33

>  <original_smiles>  (68) 
c1cnc2ccsc2c1

>  <smiles>  (68) 
c1cnc2ccsc2c1

$$$$
34:0:0
     RDKit          3D

 17 19  0  0  0  0  0  0  0  0999 V2000
    7.0470  336.5180   12.7180 O   0  0  0  0  0  0  0  0  0  0  0  0
    7.0310  336.0110   11.5640 C   0  0  0  0  0  0  0  0  0  0  0  0
    6.5130  334.7230   11.4080 C   0  0  0  0  0  3  0  0  0  0  0  0
    6.4670  334.1410   10.1460 C   0  0  0  0  0  3  0  0  0  0  0  0
    6.9420  334.8500    9.0510 C   0  0  0  0  0  0  0  0  0  0  0  0
    6.9240  334.2950    7.7740 C   0  0  0  0  0  3  0  0  0  0  0  0
    7.4110  335.0020    6.7230 N   0  0  0  0  0  0  0  0  0  0  0  0
    7.9220  336.2500    6.8970 C   0  0  0  0  0  3  0  0  0  0  0  0
    7.9470  336.8110    8.1360 N   0  0  0  0  0  0  0  0  0  0  0  0
    7.4630  336.1480    9.2230 C   0  0  0  0  0  0  0  0  0  0  0  0
    7.4980  336.7150   10.4770 N   0  0  0  0  0  0  0  0  0  0  0  0
    8.0290  338.0450   10.6650 C   0  0  0  0  0  0  0  0  0  0  0  0
    9.3950  338.2410   10.9050 C   0  0  0  0  0  3  0  0  0  0  0  0
    9.8650  339.5430   11.0640 C   0  0  0  0  0  3  0  0  0  0  0  0
    9.0040  340.5900   10.9840 N   0  0  0  0  0  0  0  0  0  0  0  0
    7.6830  340.3880   10.7450 C   0  0  0  0  0  3  0  0  0  0  0  0
    7.2040  339.1270   10.5870 N   0  0  0  0  0  0  0  0  0  0  0  0
  2  1  2  0
  3  2  1  0
  4  3  2  0
  5 10  2  0
  5  4  1  0
  6  5  1  0
  7  8  1  0
  7  6  2  0
  8  9  2  0
  9 10  1  0
 10 11  1  0
 11 12  1  0
 11  2  1  0
 12 13  2  0
 13 14  1  0
 15 14  2  0
 16 15  1  0
 17 12  1  0
 17 16  2  0
M  RAD  7   3   2   4   2   6   2   8   2  13   2  14   2  16   2
M  END
>  <MODEL>  (69) 
1

>  <TORSDO>  (69) 
F 1

>  <SCORE>  (69) 
-7.3

>  <ligand_id>  (69) 
34

>  <original_smiles>  (69) 
O=c1ccc2cncnc2n1-c1ccncn1

>  <smiles>  (69) 
O=c1ccc2cncnc2n1-c1ccncn1

$$$$
34:0:1
     RDKit          3D

 17 19  0  0  0  0  0  0  0  0999 V2000
   12.5440  322.6400   12.1630 O   0  0  0  0  0  0  0  0  0  0  0  0
   12.1190  322.9190   11.0090 C   0  0  0  0  0  0  0  0  0  0  0  0
   12.8510  322.4780    9.9030 C   0  0  0  0  0  3  0  0  0  0  0  0
   12.4010  322.7560    8.6170 C   0  0  0  0  0  3  0  0  0  0  0  0
   11.2260  323.4760    8.4470 C   0  0  0  0  0  0  0  0  0  0  0  0
   10.7520  323.7850    7.1750 C   0  0  0  0  0  3  0  0  0  0  0  0
    9.6090  324.5040    7.0360 N   0  0  0  0  0  0  0  0  0  0  0  0
    8.9180  324.9340    8.1240 C   0  0  0  0  0  3  0  0  0  0  0  0
    9.3640  324.6420    9.3760 N   0  0  0  0  0  0  0  0  0  0  0  0
   10.4990  323.9150    9.5710 C   0  0  0  0  0  0  0  0  0  0  0  0
   10.9520  323.6280   10.8390 N   0  0  0  0  0  0  0  0  0  0  0  0
   10.2150  324.0730   11.9990 C   0  0  0  0  0  0  0  0  0  0  0  0
    9.3630  323.1970   12.6840 C   0  0  0  0  0  3  0  0  0  0  0  0
    8.6850  323.6660   13.8070 C   0  0  0  0  0  3  0  0  0  0  0  0
    8.8580  324.9490   14.2180 N   0  0  0  0  0  0  0  0  0  0  0  0
    9.6900  325.7870   13.5490 C   0  0  0  0  0  3  0  0  0  0  0  0
   10.3620  325.3500   12.4520 N   0  0  0  0  0  0  0  0  0  0  0  0
  2  1  2  0
  3  2  1  0
  4  3  2  0
  5  4  1  0
  5 10  2  0
  6  5  1  0
  7  6  2  0
  7  8  1  0
  8  9  2  0
  9 10  1  0
 10 11  1  0
 11  2  1  0
 11 12  1  0
 12 17  1  0
 12 13  2  0
 13 14  1  0
 14 15  2  0
 16 15  1  0
 17 16  2  0
M  RAD  7   3   2   4   2   6   2   8   2  13   2  14   2  16   2
M  END
>  <MODEL>  (70) 
2

>  <TORSDO>  (70) 
F 1

>  <SCORE>  (70) 
-6.9

>  <ligand_id>  (70) 
34

>  <original_smiles>  (70) 
O=c1ccc2cncnc2n1-c1ccncn1

>  <smiles>  (70) 
O=c1ccc2cncnc2n1-c1ccncn1

$$$$
35:0:0
     RDKit          3D

 12 13  0  0  0  0  0  0  0  0999 V2000
   10.5970  324.1160   10.9820 C   0  0  0  0  0  0  0  0  0  0  0  0
   11.8040  323.4470   11.0780 C   0  0  0  0  0  0  0  0  0  0  0  0
   12.5190  323.1160   12.3400 C   0  0  0  0  0  1  0  0  0  0  0  0
   12.2640  323.1240    9.8420 N   0  0  0  0  0  0  0  0  0  0  0  0
   11.3070  323.6120    9.0230 C   0  0  0  0  0  0  0  0  0  0  0  0
   11.2980  323.5420    7.6350 C   0  0  0  0  0  3  0  0  0  0  0  0
   10.2020  324.1170    6.9740 C   0  0  0  0  0  3  0  0  0  0  0  0
    9.1750  324.7320    7.7160 C   0  0  0  0  0  3  0  0  0  0  0  0
    9.2510  324.7630    9.0760 N   0  0  0  0  0  0  0  0  0  0  0  0
   10.3020  324.2090    9.6780 N   0  0  0  0  0  0  0  0  0  0  0  0
    9.7700  325.9750   12.3860 C   0  0  0  0  0  1  0  0  0  0  0  0
    9.8360  324.5990   12.0510 O   0  0  0  0  0  0  0  0  0  0  0  0
  1  2  2  0
  1 12  1  0
  2  3  1  0
  4  2  1  0
  5 10  1  0
  5  4  2  0
  6  5  1  0
  7  6  2  0
  7  8  1  0
  8  9  2  0
  9 10  1  0
 10  1  1  0
 12 11  1  0
M  RAD  5   3   2   6   2   7   2   8   2  11   2
M  END
>  <MODEL>  (71) 
1

>  <TORSDO>  (71) 
F 1

>  <SCORE>  (71) 
-5.5

>  <ligand_id>  (71) 
35

>  <original_smiles>  (71) 
COc1c(C)nc2cccnn12

>  <smiles>  (71) 
COc1c(C)nc2cccnn12

$$$$
35:0:1
     RDKit          3D

 12 13  0  0  0  0  0  0  0  0999 V2000
   10.8420  328.0670    4.7240 C   0  0  0  0  0  0  0  0  0  0  0  0
   12.1760  327.7020    4.7510 C   0  0  0  0  0  0  0  0  0  0  0  0
   13.3190  328.5410    4.3000 C   0  0  0  0  0  1  0  0  0  0  0  0
   12.3120  326.4480    5.2530 N   0  0  0  0  0  0  0  0  0  0  0  0
   11.0380  326.0860    5.5200 C   0  0  0  0  0  0  0  0  0  0  0  0
   10.6220  324.8730    6.0560 C   0  0  0  0  0  3  0  0  0  0  0  0
    9.2440  324.7020    6.2550 C   0  0  0  0  0  3  0  0  0  0  0  0
    8.3490  325.7350    5.9130 C   0  0  0  0  0  3  0  0  0  0  0  0
    8.8290  326.8990    5.3910 N   0  0  0  0  0  0  0  0  0  0  0  0
   10.1420  327.0340    5.2130 N   0  0  0  0  0  0  0  0  0  0  0  0
    9.7900  329.4560    2.9710 C   0  0  0  0  0  1  0  0  0  0  0  0
   10.3320  329.2870    4.2710 O   0  0  0  0  0  0  0  0  0  0  0  0
  1  2  2  0
  1 10  1  0
  2  4  1  0
  3  2  1  0
  4  5  2  0
  5  6  1  0
  6  7  2  0
  8  7  1  0
  9  8  2  0
 10  9  1  0
 10  5  1  0
 11 12  1  0
 12  1  1  0
M  RAD  5   3   2   6   2   7   2   8   2  11   2
M  END
>  <MODEL>  (72) 
2

>  <TORSDO>  (72) 
F 1

>  <SCORE>  (72) 
-5.4

>  <ligand_id>  (72) 
35

>  <original_smiles>  (72) 
COc1c(C)nc2cccnn12

>  <smiles>  (72) 
COc1c(C)nc2cccnn12

$$$$
36:0:0
     RDKit          3D

 10 11  0  0  0  0  0  0  0  0999 V2000
   12.2290  322.1370    8.9370 C   0  0  0  0  0  3  0  0  0  0  0  0
   11.5810  323.1080    8.1670 C   0  0  0  0  0  3  0  0  0  0  0  0
   10.8520  324.0890    8.7670 N   0  0  0  0  0  0  0  0  0  0  0  0
   10.7340  324.1530   10.1210 C   0  0  0  0  0  0  0  0  0  0  0  0
   10.0030  325.1370   10.7050 N   0  0  0  0  0  0  0  0  0  0  0  0
    9.8810  325.2070   12.0580 C   0  0  0  0  0  3  0  0  0  0  0  0
   10.5150  324.2530   12.8610 C   0  0  0  0  0  2  0  0  0  0  0  0
   11.2480  323.2650   12.2800 N   0  0  0  0  0  0  0  0  0  0  0  0
   11.3720  323.1930   10.9290 C   0  0  0  0  0  0  0  0  0  0  0  0
   12.1220  322.1810   10.3290 C   0  0  0  0  0  2  0  0  0  0  0  0
  1 10  1  0
  2  3  1  0
  2  1  2  0
  3  4  2  0
  4  5  1  0
  4  9  1  0
  5  6  2  0
  6  7  1  0
  8  7  1  0
  9  8  2  0
 10  9  1  0
M  RAD  5   1   2   2   2   6   2   7   3  10   3
M  END
>  <MODEL>  (73) 
1

>  <TORSDO>  (73) 
F 0

>  <SCORE>  (73) 
-5.0

>  <ligand_id>  (73) 
36

>  <original_smiles>  (73) 
c1cnc2nccnc2c1

>  <smiles>  (73) 
c1cnc2nccnc2c1

$$$$
36:0:1
     RDKit          3D

 10 11  0  0  0  0  0  0  0  0999 V2000
   12.4730  322.7380   10.1690 C   0  0  0  0  0  3  0  0  0  0  0  0
   11.7420  323.6110   10.9810 C   0  0  0  0  0  3  0  0  0  0  0  0
   10.7320  324.3570   10.4540 N   0  0  0  0  0  0  0  0  0  0  0  0
   10.4080  324.2770    9.1360 C   0  0  0  0  0  0  0  0  0  0  0  0
    9.3990  325.0280    8.6250 N   0  0  0  0  0  0  0  0  0  0  0  0
    9.0690  324.9520    7.3080 C   0  0  0  0  0  3  0  0  0  0  0  0
    9.7780  324.0900    6.4650 C   0  0  0  0  0  2  0  0  0  0  0  0
   10.7900  323.3350    6.9720 N   0  0  0  0  0  0  0  0  0  0  0  0
   11.1220  323.4090    8.2870 C   0  0  0  0  0  0  0  0  0  0  0  0
   12.1600  322.6370    8.8110 C   0  0  0  0  0  2  0  0  0  0  0  0
  1  2  2  0
  3  2  1  0
  4  3  2  0
  5  4  1  0
  6  5  2  0
  7  8  1  0
  7  6  1  0
  8  9  2  0
  9 10  1  0
  9  4  1  0
 10  1  1  0
M  RAD  5   1   2   2   2   6   2   7   3  10   3
M  END
>  <MODEL>  (74) 
2

>  <TORSDO>  (74) 
F 0

>  <SCORE>  (74) 
-5.0

>  <ligand_id>  (74) 
36

>  <original_smiles>  (74) 
c1cnc2nccnc2c1

>  <smiles>  (74) 
c1cnc2nccnc2c1

$$$$
37:0:0
     RDKit          3D

 13 14  0  0  0  0  0  0  0  0999 V2000
    7.9060  336.5340    8.9090 C   0  0  0  0  0  0  0  0  0  0  0  0
    8.0510  337.4210    7.8170 C   0  0  0  0  0  3  0  0  0  0  0  0
    7.9000  336.9680    6.4940 C   0  0  0  0  0  3  0  0  0  0  0  0
    7.6060  335.6200    6.3070 C   0  0  0  0  0  0  0  0  0  0  0  0
    7.4270  334.9890    5.1790 O   0  0  0  0  0  0  0  0  0  0  0  0
    7.1700  333.7210    5.4560 C   0  0  0  0  0  3  0  0  0  0  0  0
    7.1820  333.5130    6.8390 C   0  0  0  0  0  3  0  0  0  0  0  0
    7.4670  334.7570    7.3530 C   0  0  0  0  0  0  0  0  0  0  0  0
    7.6090  335.1730    8.6740 C   0  0  0  0  0  3  0  0  0  0  0  0
    8.0670  337.0340   10.2060 O   0  0  0  0  0  0  0  0  0  0  0  0
    7.0810  338.5780   11.7710 C   0  0  0  0  0  1  0  0  0  0  0  0
    6.9830  337.2160   11.1110 C   0  0  0  0  0  3  0  0  0  0  0  0
    7.0380  336.1440   12.1790 C   0  0  0  0  0  1  0  0  0  0  0  0
  1 10  1  0
  2  1  2  0
  3  2  1  0
  4  3  2  0
  4  8  1  0
  5  6  1  0
  5  4  1  0
  6  7  2  0
  7  8  1  0
  8  9  2  0
  9  1  1  0
 10 12  1  0
 12 11  1  0
 12 13  1  0
M  RAD  8   2   2   3   2   6   2   7   2   9   2  11   2  12   2  13   2
M  END
>  <MODEL>  (75) 
1

>  <TORSDO>  (75) 
F 2

>  <SCORE>  (75) 
-6.6

>  <ligand_id>  (75) 
37

>  <original_smiles>  (75) 
CC(C)Oc1ccc2occc2c1

>  <smiles>  (75) 
CC(C)Oc1ccc2occc2c1

$$$$
37:0:1
     RDKit          3D

 13 14  0  0  0  0  0  0  0  0999 V2000
    7.9770  336.9750    8.4670 C   0  0  0  0  0  0  0  0  0  0  0  0
    7.7190  335.6610    8.9190 C   0  0  0  0  0  3  0  0  0  0  0  0
    7.4700  334.6190    8.0070 C   0  0  0  0  0  3  0  0  0  0  0  0
    7.4860  334.9360    6.6510 C   0  0  0  0  0  0  0  0  0  0  0  0
    7.2830  334.1360    5.6400 O   0  0  0  0  0  0  0  0  0  0  0  0
    7.3890  334.8480    4.5300 C   0  0  0  0  0  3  0  0  0  0  0  0
    7.6770  336.1820    4.8310 C   0  0  0  0  0  3  0  0  0  0  0  0
    7.7310  336.2010    6.2060 C   0  0  0  0  0  0  0  0  0  0  0  0
    7.9820  337.2530    7.0820 C   0  0  0  0  0  3  0  0  0  0  0  0
    8.2180  337.9760    9.4150 O   0  0  0  0  0  0  0  0  0  0  0  0
    7.2560  338.1230   11.6190 C   0  0  0  0  0  1  0  0  0  0  0  0
    8.4560  337.7050   10.7910 C   0  0  0  0  0  3  0  0  0  0  0  0
    9.6700  338.4850   11.2520 C   0  0  0  0  0  1  0  0  0  0  0  0
  1  2  2  0
  1 10  1  0
  3  2  1  0
  4  3  2  0
  5  4  1  0
  6  7  2  0
  6  5  1  0
  7  8  1  0
  8  4  1  0
  8  9  2  0
  9  1  1  0
 10 12  1  0
 12 13  1  0
 12 11  1  0
M  RAD  8   2   2   3   2   6   2   7   2   9   2  11   2  12   2  13   2
M  END
>  <MODEL>  (76) 
2

>  <TORSDO>  (76) 
F 2

>  <SCORE>  (76) 
-6.4

>  <ligand_id>  (76) 
37

>  <original_smiles>  (76) 
CC(C)Oc1ccc2occc2c1

>  <smiles>  (76) 
CC(C)Oc1ccc2occc2c1

$$$$
38:0:0
     RDKit          3D

  9 10  0  0  0  0  0  0  0  0999 V2000
   12.0550  353.7390   22.9430 C   0  0  0  0  0  3  0  0  0  0  0  0
   10.9110  352.9680   23.2350 C   0  0  0  0  0  3  0  0  0  0  0  0
   10.6920  352.5070   24.5010 N   0  0  0  0  0  0  0  0  0  0  0  0
   11.5910  352.7980   25.4730 C   0  0  0  0  0  0  0  0  0  0  0  0
   11.5440  352.3500   27.0840 S   0  0  0  0  0  0  0  0  0  0  0  0
   13.0050  353.1460   27.4310 C   0  0  0  0  0  3  0  0  0  0  0  0
   13.5150  353.7440   26.3220 N   0  0  0  0  0  0  0  0  0  0  0  0
   12.7220  353.5460   25.2390 C   0  0  0  0  0  0  0  0  0  0  0  0
   12.9790  354.0340   23.9590 C   0  0  0  0  0  3  0  0  0  0  0  0
  1  2  2  0
  1  9  1  0
  2  3  1  0
  3  4  2  0
  4  5  1  0
  5  6  1  0
  7  6  2  0
  8  4  1  0
  8  7  1  0
  9  8  2  0
M  RAD  4   1   2   2   2   6   2   9   2
M  END
>  <MODEL>  (77) 
1

>  <TORSDO>  (77) 
F 0

>  <SCORE>  (77) 
-5.3

>  <ligand_id>  (77) 
38

>  <original_smiles>  (77) 
c1cnc2scnc2c1

>  <smiles>  (77) 
c1cnc2scnc2c1

$$$$
38:0:1
     RDKit          3D

  9 10  0  0  0  0  0  0  0  0999 V2000
    8.9770  324.8550    7.8260 C   0  0  0  0  0  3  0  0  0  0  0  0
    9.6220  324.1170    6.8110 C   0  0  0  0  0  3  0  0  0  0  0  0
   10.7730  323.4350    7.0770 N   0  0  0  0  0  0  0  0  0  0  0  0
   11.2900  323.4760    8.3290 C   0  0  0  0  0  0  0  0  0  0  0  0
   12.6770  322.7310    8.8950 S   0  0  0  0  0  0  0  0  0  0  0  0
   12.4680  323.3510   10.4630 C   0  0  0  0  0  3  0  0  0  0  0  0
   11.3480  324.1170   10.5430 N   0  0  0  0  0  0  0  0  0  0  0  0
   10.6990  324.1820    9.3530 C   0  0  0  0  0  0  0  0  0  0  0  0
    9.5230  324.8900    9.1190 C   0  0  0  0  0  3  0  0  0  0  0  0
  1  9  2  0
  2  3  2  0
  2  1  1  0
  3  4  1  0
  4  5  1  0
  4  8  2  0
  5  6  1  0
  6  7  2  0
  8  7  1  0
  9  8  1  0
M  RAD  4   1   2   2   2   6   2   9   2
M  END
>  <MODEL>  (78) 
2

>  <TORSDO>  (78) 
F 0

>  <SCORE>  (78) 
-4.7

>  <ligand_id>  (78) 
38

>  <original_smiles>  (78) 
c1cnc2scnc2c1

>  <smiles>  (78) 
c1cnc2scnc2c1

$$$$
39:0:0
     RDKit          3D

  9 10  0  0  0  0  0  0  0  0999 V2000
    8.9250  324.9050    7.6050 C   0  0  0  0  0  3  0  0  0  0  0  0
    9.6180  324.1810    6.6150 C   0  0  0  0  0  3  0  0  0  0  0  0
   10.7400  323.4690    6.9320 N   0  0  0  0  0  0  0  0  0  0  0  0
   11.1950  323.4560    8.2120 C   0  0  0  0  0  0  0  0  0  0  0  0
   12.3270  322.7660    8.6510 C   0  0  0  0  0  3  0  0  0  0  0  0
   12.5570  322.9350   10.0220 C   0  0  0  0  0  3  0  0  0  0  0  0
   11.3410  323.9390   10.6490 S   0  0  0  0  0  0  0  0  0  0  0  0
   10.5370  324.1560    9.1990 C   0  0  0  0  0  0  0  0  0  0  0  0
    9.3910  324.8960    8.9290 C   0  0  0  0  0  3  0  0  0  0  0  0
  1  9  2  0
  2  3  2  0
  2  1  1  0
  3  4  1  0
  4  5  1  0
  4  8  2  0
  5  6  2  0
  6  7  1  0
  8  7  1  0
  9  8  1  0
M  RAD  5   1   2   2   2   5   2   6   2   9   2
M  END
>  <MODEL>  (79) 
1

>  <TORSDO>  (79) 
F 0

>  <SCORE>  (79) 
-4.8

>  <ligand_id>  (79) 
39

>  <original_smiles>  (79) 
c1cnc2ccsc2c1

>  <smiles>  (79) 
c1cnc2ccsc2c1

$$$$
39:0:1
     RDKit          3D

  9 10  0  0  0  0  0  0  0  0999 V2000
   12.2010  322.1550    8.8750 C   0  0  0  0  0  3  0  0  0  0  0  0
   11.5480  323.1400    8.1070 C   0  0  0  0  0  3  0  0  0  0  0  0
   10.8170  324.1220    8.7130 N   0  0  0  0  0  0  0  0  0  0  0  0
   10.7140  324.1530   10.0670 C   0  0  0  0  0  0  0  0  0  0  0  0
    9.9960  325.1050   10.7930 C   0  0  0  0  0  3  0  0  0  0  0  0
   10.0670  324.8880   12.1740 C   0  0  0  0  0  3  0  0  0  0  0  0
   11.0230  323.5140   12.4520 S   0  0  0  0  0  0  0  0  0  0  0  0
   11.3420  323.2010   10.8410 C   0  0  0  0  0  0  0  0  0  0  0  0
   12.0980  322.1810   10.2740 C   0  0  0  0  0  3  0  0  0  0  0  0
  1  9  2  0
  2  3  2  0
  2  1  1  0
  3  4  1  0
  4  5  1  0
  4  8  2  0
  5  6  2  0
  6  7  1  0
  8  7  1  0
  9  8  1  0
M  RAD  5   1   2   2   2   5   2   6   2   9   2
M  END
>  <MODEL>  (80) 
2

>  <TORSDO>  (80) 
F 0

>  <SCORE>  (80) 
-4.8

>  <ligand_id>  (80) 
39

>  <original_smiles>  (80) 
c1cnc2ccsc2c1

>  <smiles>  (80) 
c1cnc2ccsc2c1

$$$$
40:0:0
     RDKit          3D

  9 10  0  0  0  0  0  0  0  0999 V2000
    8.9250  324.9050    7.6050 C   0  0  0  0  0  3  0  0  0  0  0  0
    9.6180  324.1810    6.6150 C   0  0  0  0  0  3  0  0  0  0  0  0
   10.7400  323.4690    6.9320 N   0  0  0  0  0  0  0  0  0  0  0  0
   11.1950  323.4560    8.2120 C   0  0  0  0  0  0  0  0  0  0  0  0
   12.3270  322.7660    8.6510 C   0  0  0  0  0  3  0  0  0  0  0  0
   12.5570  322.9350   10.0220 C   0  0  0  0  0  3  0  0  0  0  0  0
   11.3410  323.9390   10.6490 S   0  0  0  0  0  0  0  0  0  0  0  0
   10.5370  324.1560    9.1990 C   0  0  0  0  0  0  0  0  0  0  0  0
    9.3910  324.8960    8.9290 C   0  0  0  0  0  3  0  0  0  0  0  0
  1  9  2  0
  2  3  2  0
  2  1  1  0
  3  4  1  0
  4  5  1  0
  4  8  2  0
  5  6  2  0
  6  7  1  0
  8  7  1  0
  9  8  1  0
M  RAD  5   1   2   2   2   5   2   6   2   9   2
M  END
>  <MODEL>  (81) 
1

>  <TORSDO>  (81) 
F 0

>  <SCORE>  (81) 
-4.8

>  <ligand_id>  (81) 
40

>  <original_smiles>  (81) 
c1cnc2ccsc2c1

>  <smiles>  (81) 
c1cnc2ccsc2c1

$$$$
40:0:1
     RDKit          3D

  9 10  0  0  0  0  0  0  0  0999 V2000
   12.2010  322.1550    8.8750 C   0  0  0  0  0  3  0  0  0  0  0  0
   11.5480  323.1400    8.1070 C   0  0  0  0  0  3  0  0  0  0  0  0
   10.8170  324.1220    8.7130 N   0  0  0  0  0  0  0  0  0  0  0  0
   10.7140  324.1530   10.0670 C   0  0  0  0  0  0  0  0  0  0  0  0
    9.9960  325.1050   10.7930 C   0  0  0  0  0  3  0  0  0  0  0  0
   10.0670  324.8880   12.1740 C   0  0  0  0  0  3  0  0  0  0  0  0
   11.0230  323.5140   12.4520 S   0  0  0  0  0  0  0  0  0  0  0  0
   11.3420  323.2010   10.8410 C   0  0  0  0  0  0  0  0  0  0  0  0
   12.0980  322.1810   10.2740 C   0  0  0  0  0  3  0  0  0  0  0  0
  1  9  2  0
  2  3  2  0
  2  1  1  0
  3  4  1  0
  4  5  1  0
  4  8  2  0
  5  6  2  0
  6  7  1  0
  8  7  1  0
  9  8  1  0
M  RAD  5   1   2   2   2   5   2   6   2   9   2
M  END
>  <MODEL>  (82) 
2

>  <TORSDO>  (82) 
F 0

>  <SCORE>  (82) 
-4.8

>  <ligand_id>  (82) 
40

>  <original_smiles>  (82) 
c1cnc2ccsc2c1

>  <smiles>  (82) 
c1cnc2ccsc2c1

$$$$
41:0:0
     RDKit          3D

 16 18  0  0  0  0  0  0  0  0999 V2000
   11.1500  324.7010    7.2150 N   0  0  0  0  0  0  0  0  0  0  0  0
   10.5040  324.2980    6.1330 N   0  0  0  0  0  2  0  0  0  0  0  0
   10.7150  325.1660    5.1560 N   0  0  0  0  0  0  0  0  0  0  0  0
   11.5150  326.1070    5.6990 C   0  0  0  0  0  0  0  0  0  0  0  0
   11.7980  325.8320    6.9860 N   0  0  0  0  0  2  0  0  0  0  0  0
   11.1470  322.6430   10.9200 C   0  0  0  0  0  3  0  0  0  0  0  0
   10.4130  323.8220   10.7760 C   0  0  0  0  0  3  0  0  0  0  0  0
   10.4130  324.5020    9.5540 C   0  0  0  0  0  3  0  0  0  0  0  0
   11.1500  324.0060    8.4680 C   0  0  0  0  0  0  0  0  0  0  0  0
   11.8840  322.8210    8.6210 C   0  0  0  0  0  3  0  0  0  0  0  0
   11.8830  322.1420    9.8420 C   0  0  0  0  0  3  0  0  0  0  0  0
   12.0120  327.2800    4.9760 C   0  0  0  0  0  0  0  0  0  0  0  0
   13.3140  327.4930    4.7010 N   0  0  0  0  0  0  0  0  0  0  0  0
   13.5110  328.6550    4.0200 C   0  0  0  0  0  3  0  0  0  0  0  0
   12.3580  329.3890    3.7400 C   0  0  0  0  0  3  0  0  0  0  0  0
   11.0630  328.5260    4.3830 S   0  0  0  0  0  0  0  0  0  0  0  0
  1  9  1  0
  2  1  1  0
  3  4  2  0
  3  2  1  0
  4  5  1  0
  5  1  1  0
  7  6  2  0
  8  7  1  0
  9 10  1  0
  9  8  2  0
 10 11  2  0
 11  6  1  0
 12  4  1  0
 13 12  2  0
 14 13  1  0
 15 14  2  0
 15 16  1  0
 16 12  1  0
M  RAD  8   2   2   5   2   6   2   7   2   8   2  10   2  11   2  14   2
M  RAD  1  15   2
M  END
>  <MODEL>  (83) 
1

>  <TORSDO>  (83) 
F 2

>  <SCORE>  (83) 
-7.3

>  <ligand_id>  (83) 
41

>  <original_smiles>  (83) 
c1ccc(-n2nnc(-c3nccs3)n2)cc1

>  <smiles>  (83) 
c1ccc(-n2nnc(-c3nccs3)n2)cc1

$$$$
41:0:1
     RDKit          3D

 16 18  0  0  0  0  0  0  0  0999 V2000
    7.9840  341.6050   12.3300 N   0  0  0  0  0  0  0  0  0  0  0  0
    8.1610  342.6170   11.4950 N   0  0  0  0  0  2  0  0  0  0  0  0
    8.0040  343.7530   12.1550 N   0  0  0  0  0  0  0  0  0  0  0  0
    7.7240  343.3810   13.4210 C   0  0  0  0  0  0  0  0  0  0  0  0
    7.7090  342.0400   13.5490 N   0  0  0  0  0  2  0  0  0  0  0  0
    8.2650  337.5180   11.2430 C   0  0  0  0  0  3  0  0  0  0  0  0
    7.0540  338.0340   11.7120 C   0  0  0  0  0  3  0  0  0  0  0  0
    6.9610  339.3830   12.0700 C   0  0  0  0  0  3  0  0  0  0  0  0
    8.0790  340.2230   11.9630 C   0  0  0  0  0  0  0  0  0  0  0  0
    9.2900  339.6970   11.4920 C   0  0  0  0  0  3  0  0  0  0  0  0
    9.3830  338.3490   11.1340 C   0  0  0  0  0  3  0  0  0  0  0  0
    7.4710  344.3180   14.5170 C   0  0  0  0  0  0  0  0  0  0  0  0
    7.5970  343.9980   15.8200 N   0  0  0  0  0  0  0  0  0  0  0  0
    7.3040  345.0470   16.6370 C   0  0  0  0  0  3  0  0  0  0  0  0
    6.9380  346.2270   15.9890 C   0  0  0  0  0  3  0  0  0  0  0  0
    6.9920  345.9130   14.3360 S   0  0  0  0  0  0  0  0  0  0  0  0
  1  5  1  0
  2  3  1  0
  2  1  1  0
  3  4  2  0
  4  5  1  0
  4 12  1  0
  6  7  2  0
  7  8  1  0
  9  8  2  0
  9  1  1  0
 10  9  1  0
 11  6  1  0
 11 10  2  0
 12 13  2  0
 13 14  1  0
 15 14  2  0
 16 12  1  0
 16 15  1  0
M  RAD  8   2   2   5   2   6   2   7   2   8   2  10   2  11   2  14   2
M  RAD  1  15   2
M  END
>  <MODEL>  (84) 
2

>  <TORSDO>  (84) 
F 2

>  <SCORE>  (84) 
-7.2

>  <ligand_id>  (84) 
41

>  <original_smiles>  (84) 
c1ccc(-n2nnc(-c3nccs3)n2)cc1

>  <smiles>  (84) 
c1ccc(-n2nnc(-c3nccs3)n2)cc1

$$$$
42:0:0
     RDKit          3D

  9 10  0  0  0  0  0  0  0  0999 V2000
   11.3200  351.6020   27.0760 C   0  0  0  0  0  3  0  0  0  0  0  0
   10.5750  351.5240   25.8830 C   0  0  0  0  0  3  0  0  0  0  0  0
   10.8690  352.3580   24.8460 N   0  0  0  0  0  0  0  0  0  0  0  0
   11.8610  353.2340   24.9850 N   0  0  0  0  0  0  0  0  0  0  0  0
   12.3050  354.1330   24.0990 C   0  0  0  0  0  3  0  0  0  0  0  0
   13.3540  354.7990   24.7340 C   0  0  0  0  0  3  0  0  0  0  0  0
   13.5370  354.3070   25.9870 N   0  0  0  0  0  0  0  0  0  0  0  0
   12.5980  353.3530   26.0910 C   0  0  0  0  0  0  0  0  0  0  0  0
   12.3600  352.5370   27.1910 C   0  0  0  0  0  3  0  0  0  0  0  0
  1  9  2  0
  2  1  1  0
  3  4  1  0
  3  2  2  0
  4  8  1  0
  5  6  2  0
  5  4  1  0
  6  7  1  0
  7  8  2  0
  8  9  1  0
M  RAD  5   1   2   2   2   5   2   6   2   9   2
M  END
>  <MODEL>  (85) 
1

>  <TORSDO>  (85) 
F 0

>  <SCORE>  (85) 
-5.1

>  <ligand_id>  (85) 
42

>  <original_smiles>  (85) 
c1cnn2ccnc2c1

>  <smiles>  (85) 
c1cnn2ccnc2c1

$$$$
42:0:1
     RDKit          3D

  9 10  0  0  0  0  0  0  0  0999 V2000
   -7.7350  353.5330   19.0000 C   0  0  0  0  0  3  0  0  0  0  0  0
   -7.2910  354.7120   19.6310 C   0  0  0  0  0  3  0  0  0  0  0  0
   -6.6420  354.6340   20.8270 N   0  0  0  0  0  0  0  0  0  0  0  0
   -6.4410  353.4380   21.3750 N   0  0  0  0  0  0  0  0  0  0  0  0
   -5.8330  353.1460   22.5310 C   0  0  0  0  0  3  0  0  0  0  0  0
   -5.8870  351.7570   22.6430 C   0  0  0  0  0  3  0  0  0  0  0  0
   -6.5210  351.2200   21.5670 N   0  0  0  0  0  0  0  0  0  0  0  0
   -6.8400  352.2910   20.8240 C   0  0  0  0  0  0  0  0  0  0  0  0
   -7.5080  352.2870   19.6040 C   0  0  0  0  0  3  0  0  0  0  0  0
  1  9  2  0
  1  2  1  0
  2  3  2  0
  3  4  1  0
  4  5  1  0
  5  6  2  0
  7  6  1  0
  8  4  1  0
  8  7  2  0
  9  8  1  0
M  RAD  5   1   2   2   2   5   2   6   2   9   2
M  END
>  <MODEL>  (86) 
2

>  <TORSDO>  (86) 
F 0

>  <SCORE>  (86) 
-4.9

>  <ligand_id>  (86) 
42

>  <original_smiles>  (86) 
c1cnn2ccnc2c1

>  <smiles>  (86) 
c1cnn2ccnc2c1

$$$$
43:0:0
     RDKit          3D

  9 10  0  0  0  0  0  0  0  0999 V2000
    7.0720  336.4350   12.2470 C   0  0  0  0  0  3  0  0  0  0  0  0
    7.5750  337.3040   11.2590 C   0  0  0  0  0  3  0  0  0  0  0  0
    7.6570  336.8980    9.9590 N   0  0  0  0  0  0  0  0  0  0  0  0
    7.2490  335.6490    9.6280 C   0  0  0  0  0  0  0  0  0  0  0  0
    7.2550  334.9410    8.1160 S   0  0  0  0  0  0  0  0  0  0  0  0
    6.6070  333.4590    8.6340 C   0  0  0  0  0  3  0  0  0  0  0  0
    6.3840  333.5270   10.0150 C   0  0  0  0  0  3  0  0  0  0  0  0
    6.7490  334.7610   10.5560 C   0  0  0  0  0  0  0  0  0  0  0  0
    6.6510  335.1430   11.8930 C   0  0  0  0  0  3  0  0  0  0  0  0
  2  1  2  0
  3  2  1  0
  4  3  2  0
  4  8  1  0
  5  6  1  0
  5  4  1  0
  6  7  2  0
  7  8  1  0
  8  9  2  0
  9  1  1  0
M  RAD  5   1   2   2   2   6   2   7   2   9   2
M  END
>  <MODEL>  (87) 
1

>  <TORSDO>  (87) 
F 0

>  <SCORE>  (87) 
-5.0

>  <ligand_id>  (87) 
43

>  <original_smiles>  (87) 
c1cnc2sccc2c1

>  <smiles>  (87) 
c1cnc2sccc2c1

$$$$
43:0:1
     RDKit          3D

  9 10  0  0  0  0  0  0  0  0999 V2000
   11.6260  353.4730   23.1830 C   0  0  0  0  0  3  0  0  0  0  0  0
   12.7750  354.1520   23.6330 C   0  0  0  0  0  3  0  0  0  0  0  0
   13.1850  354.0330   24.9290 N   0  0  0  0  0  0  0  0  0  0  0  0
   12.4730  353.2540   25.7800 C   0  0  0  0  0  0  0  0  0  0  0  0
   12.7820  352.9610   27.3950 S   0  0  0  0  0  0  0  0  0  0  0  0
   11.4490  351.9350   27.6250 C   0  0  0  0  0  3  0  0  0  0  0  0
   10.7540  351.8240   26.4130 C   0  0  0  0  0  3  0  0  0  0  0  0
   11.3420  352.5690   25.3900 C   0  0  0  0  0  0  0  0  0  0  0  0
   10.8960  352.6690   24.0730 C   0  0  0  0  0  3  0  0  0  0  0  0
  1  2  2  0
  1  9  1  0
  2  3  1  0
  3  4  2  0
  4  5  1  0
  5  6  1  0
  7  6  2  0
  8  4  1  0
  8  7  1  0
  9  8  2  0
M  RAD  5   1   2   2   2   6   2   7   2   9   2
M  END
>  <MODEL>  (88) 
2

>  <TORSDO>  (88) 
F 0

>  <SCORE>  (88) 
-4.9

>  <ligand_id>  (88) 
43

>  <original_smiles>  (88) 
c1cnc2sccc2c1

>  <smiles>  (88) 
c1cnc2sccc2c1

$$$$
44:0:0
     RDKit          3D

 10 11  0  0  0  0  0  0  0  0999 V2000
    6.3470  334.2530   13.0990 F   0  0  0  0  0  0  0  0  0  0  0  0
    6.6760  334.8190   11.9130 C   0  0  0  0  0  0  0  0  0  0  0  0
    7.0600  336.1770   11.8670 C   0  0  0  0  0  3  0  0  0  0  0  0
    7.4050  336.7820   10.6450 C   0  0  0  0  0  3  0  0  0  0  0  0
    7.3510  335.9900    9.4990 C   0  0  0  0  0  0  0  0  0  0  0  0
    7.6260  336.3380    8.2720 O   0  0  0  0  0  0  0  0  0  0  0  0
    7.4450  335.2810    7.4980 C   0  0  0  0  0  3  0  0  0  0  0  0
    7.0300  334.1840    8.2590 C   0  0  0  0  0  3  0  0  0  0  0  0
    6.9810  334.6780    9.5430 C   0  0  0  0  0  0  0  0  0  0  0  0
    6.6330  334.0490   10.7360 C   0  0  0  0  0  3  0  0  0  0  0  0
  2  1  1  0
  3  2  2  0
  4  3  1  0
  5  9  1  0
  5  4  2  0
  6  5  1  0
  7  8  2  0
  7  6  1  0
  8  9  1  0
  9 10  2  0
 10  2  1  0
M  RAD  5   3   2   4   2   7   2   8   2  10   2
M  END
>  <MODEL>  (89) 
1

>  <TORSDO>  (89) 
F 0

>  <SCORE>  (89) 
-5.9

>  <ligand_id>  (89) 
44

>  <original_smiles>  (89) 
Fc1ccc2occc2c1

>  <smiles>  (89) 
Fc1ccc2occc2c1

$$$$
44:0:1
     RDKit          3D

 10 11  0  0  0  0  0  0  0  0999 V2000
    6.2890  331.9310    9.0600 F   0  0  0  0  0  0  0  0  0  0  0  0
    6.5990  333.2190    9.3420 C   0  0  0  0  0  0  0  0  0  0  0  0
    7.0220  334.0810    8.3060 C   0  0  0  0  0  3  0  0  0  0  0  0
    7.3490  335.4210    8.5800 C   0  0  0  0  0  3  0  0  0  0  0  0
    7.2370  335.8520    9.9010 C   0  0  0  0  0  0  0  0  0  0  0  0
    7.4840  337.0410   10.3780 O   0  0  0  0  0  0  0  0  0  0  0  0
    7.2480  337.0160   11.6790 C   0  0  0  0  0  3  0  0  0  0  0  0
    6.8230  335.7430   12.0730 C   0  0  0  0  0  3  0  0  0  0  0  0
    6.8270  335.0210   10.9020 C   0  0  0  0  0  0  0  0  0  0  0  0
    6.4970  333.6890   10.6640 C   0  0  0  0  0  3  0  0  0  0  0  0
  1  2  1  0
  2 10  2  0
  3  4  2  0
  3  2  1  0
  4  5  1  0
  5  6  1  0
  5  9  2  0
  6  7  1  0
  7  8  2  0
  9  8  1  0
 10  9  1  0
M  RAD  5   3   2   4   2   7   2   8   2  10   2
M  END
>  <MODEL>  (90) 
2

>  <TORSDO>  (90) 
F 0

>  <SCORE>  (90) 
-5.9

>  <ligand_id>  (90) 
44

>  <original_smiles>  (90) 
Fc1ccc2occc2c1

>  <smiles>  (90) 
Fc1ccc2occc2c1

$$$$
45:0:0
     RDKit          3D

  9 10  0  0  0  0  0  0  0  0999 V2000
   11.3200  351.6020   27.0760 C   0  0  0  0  0  3  0  0  0  0  0  0
   10.5750  351.5240   25.8830 C   0  0  0  0  0  3  0  0  0  0  0  0
   10.8690  352.3580   24.8460 N   0  0  0  0  0  0  0  0  0  0  0  0
   11.8610  353.2340   24.9850 N   0  0  0  0  0  0  0  0  0  0  0  0
   12.3050  354.1330   24.0990 C   0  0  0  0  0  3  0  0  0  0  0  0
   13.3540  354.7990   24.7340 C   0  0  0  0  0  3  0  0  0  0  0  0
   13.5370  354.3070   25.9870 N   0  0  0  0  0  0  0  0  0  0  0  0
   12.5980  353.3530   26.0910 C   0  0  0  0  0  0  0  0  0  0  0  0
   12.3600  352.5370   27.1910 C   0  0  0  0  0  3  0  0  0  0  0  0
  1  9  2  0
  2  1  1  0
  3  4  1  0
  3  2  2  0
  4  8  1  0
  5  6  2  0
  5  4  1  0
  6  7  1  0
  7  8  2  0
  8  9  1  0
M  RAD  5   1   2   2   2   5   2   6   2   9   2
M  END
>  <MODEL>  (91) 
1

>  <TORSDO>  (91) 
F 0

>  <SCORE>  (91) 
-5.1

>  <ligand_id>  (91) 
45

>  <original_smiles>  (91) 
c1cnn2ccnc2c1

>  <smiles>  (91) 
c1cnn2ccnc2c1

$$$$
45:0:1
     RDKit          3D

  9 10  0  0  0  0  0  0  0  0999 V2000
   -7.7350  353.5330   19.0000 C   0  0  0  0  0  3  0  0  0  0  0  0
   -7.2910  354.7120   19.6310 C   0  0  0  0  0  3  0  0  0  0  0  0
   -6.6420  354.6340   20.8270 N   0  0  0  0  0  0  0  0  0  0  0  0
   -6.4410  353.4380   21.3750 N   0  0  0  0  0  0  0  0  0  0  0  0
   -5.8330  353.1460   22.5310 C   0  0  0  0  0  3  0  0  0  0  0  0
   -5.8870  351.7570   22.6430 C   0  0  0  0  0  3  0  0  0  0  0  0
   -6.5210  351.2200   21.5670 N   0  0  0  0  0  0  0  0  0  0  0  0
   -6.8400  352.2910   20.8240 C   0  0  0  0  0  0  0  0  0  0  0  0
   -7.5080  352.2870   19.6040 C   0  0  0  0  0  3  0  0  0  0  0  0
  1  9  2  0
  1  2  1  0
  2  3  2  0
  3  4  1  0
  4  5  1  0
  5  6  2  0
  7  6  1  0
  8  4  1  0
  8  7  2  0
  9  8  1  0
M  RAD  5   1   2   2   2   5   2   6   2   9   2
M  END
>  <MODEL>  (92) 
2

>  <TORSDO>  (92) 
F 0

>  <SCORE>  (92) 
-4.9

>  <ligand_id>  (92) 
45

>  <original_smiles>  (92) 
c1cnn2ccnc2c1

>  <smiles>  (92) 
c1cnn2ccnc2c1

$$$$
46:0:0
     RDKit          3D

 16 18  0  0  0  0  0  0  0  0999 V2000
    7.8880  337.1760    7.9170 O   0  0  0  0  0  0  0  0  0  0  0  0
    7.4940  336.0130    8.2100 C   0  0  0  0  0  0  0  0  0  0  0  0
    7.1900  335.6630    9.6140 C   0  0  0  0  0  0  0  0  0  0  0  0
    7.3330  336.6060   10.6370 C   0  0  0  0  0  3  0  0  0  0  0  0
    7.0420  336.2570   11.9560 C   0  0  0  0  0  3  0  0  0  0  0  0
    6.6080  334.9610   12.2390 C   0  0  0  0  0  3  0  0  0  0  0  0
    6.4720  334.0520   11.2370 N   0  0  0  0  0  0  0  0  0  0  0  0
    6.7490  334.3650    9.9410 C   0  0  0  0  0  0  0  0  0  0  0  0
    6.5890  333.3490    8.8820 C   0  0  0  0  0  0  0  0  0  0  0  0
    6.1950  332.1890    9.1760 O   0  0  0  0  0  0  0  0  0  0  0  0
    6.8920  333.6970    7.4810 C   0  0  0  0  0  0  0  0  0  0  0  0
    6.7460  332.7640    6.4990 N   0  0  0  0  0  0  0  0  0  0  0  0
    7.0140  333.0470    5.1960 C   0  0  0  0  0  3  0  0  0  0  0  0
    7.4530  334.3200    4.8310 C   0  0  0  0  0  3  0  0  0  0  0  0
    7.6120  335.2950    5.8150 C   0  0  0  0  0  3  0  0  0  0  0  0
    7.3320  334.9940    7.1540 C   0  0  0  0  0  0  0  0  0  0  0  0
  1  2  2  0
  2  3  1  0
  3  8  2  0
  3  4  1  0
  4  5  2  0
  5  6  1  0
  7  6  2  0
  8  7  1  0
  9 10  2  0
  9  8  1  0
 11  9  1  0
 12 11  2  0
 13 12  1  0
 14 13  2  0
 14 15  1  0
 15 16  2  0
 16 11  1  0
 16  2  1  0
M  RAD  6   4   2   5   2   6   2  13   2  14   2  15   2
M  END
>  <MODEL>  (93) 
1

>  <TORSDO>  (93) 
F 0

>  <SCORE>  (93) 
-7.9

>  <ligand_id>  (93) 
46

>  <original_smiles>  (93) 
O=C1c2cccnc2C(=O)c2ncccc21

>  <smiles>  (93) 
O=C1c2cccnc2C(=O)c2ncccc21

$$$$
46:0:1
     RDKit          3D

 16 18  0  0  0  0  0  0  0  0999 V2000
    7.8910  337.1910    7.9200 O   0  0  0  0  0  0  0  0  0  0  0  0
    7.5010  336.0260    8.2110 C   0  0  0  0  0  0  0  0  0  0  0  0
    7.3420  335.0080    7.1520 C   0  0  0  0  0  0  0  0  0  0  0  0
    7.6180  335.3130    5.8140 C   0  0  0  0  0  3  0  0  0  0  0  0
    7.4620  334.3390    4.8290 C   0  0  0  0  0  3  0  0  0  0  0  0
    7.0280  333.0630    5.1920 C   0  0  0  0  0  3  0  0  0  0  0  0
    6.7620  332.7770    6.4950 N   0  0  0  0  0  0  0  0  0  0  0  0
    6.9060  333.7080    7.4780 C   0  0  0  0  0  0  0  0  0  0  0  0
    6.6070  333.3580    8.8800 C   0  0  0  0  0  0  0  0  0  0  0  0
    6.2170  332.1960    9.1710 O   0  0  0  0  0  0  0  0  0  0  0  0
    6.7650  334.3730    9.9390 C   0  0  0  0  0  0  0  0  0  0  0  0
    6.4900  334.0560   11.2360 N   0  0  0  0  0  0  0  0  0  0  0  0
    6.6250  334.9640   12.2390 C   0  0  0  0  0  3  0  0  0  0  0  0
    7.0530  336.2620   11.9580 C   0  0  0  0  0  3  0  0  0  0  0  0
    7.3420  336.6150   10.6390 C   0  0  0  0  0  3  0  0  0  0  0  0
    7.2000  335.6720    9.6140 C   0  0  0  0  0  0  0  0  0  0  0  0
  1  2  2  0
  2 16  1  0
  3  8  2  0
  3  2  1  0
  4  3  1  0
  5  6  1  0
  5  4  2  0
  6  7  2  0
  7  8  1  0
  8  9  1  0
  9 10  2  0
  9 11  1  0
 11 12  2  0
 12 13  1  0
 14 13  2  0
 15 14  1  0
 16 11  1  0
 16 15  2  0
M  RAD  6   4   2   5   2   6   2  13   2  14   2  15   2
M  END
>  <MODEL>  (94) 
2

>  <TORSDO>  (94) 
F 0

>  <SCORE>  (94) 
-7.9

>  <ligand_id>  (94) 
46

>  <original_smiles>  (94) 
O=C1c2cccnc2C(=O)c2ncccc21

>  <smiles>  (94) 
O=C1c2cccnc2C(=O)c2ncccc21

$$$$
47:0:0
     RDKit          3D

  9 10  0  0  0  0  0  0  0  0999 V2000
   11.3200  351.6020   27.0760 C   0  0  0  0  0  3  0  0  0  0  0  0
   10.5750  351.5240   25.8830 C   0  0  0  0  0  3  0  0  0  0  0  0
   10.8690  352.3580   24.8460 N   0  0  0  0  0  0  0  0  0  0  0  0
   11.8610  353.2340   24.9850 N   0  0  0  0  0  0  0  0  0  0  0  0
   12.3050  354.1330   24.0990 C   0  0  0  0  0  3  0  0  0  0  0  0
   13.3540  354.7990   24.7340 C   0  0  0  0  0  3  0  0  0  0  0  0
   13.5370  354.3070   25.9870 N   0  0  0  0  0  0  0  0  0  0  0  0
   12.5980  353.3530   26.0910 C   0  0  0  0  0  0  0  0  0  0  0  0
   12.3600  352.5370   27.1910 C   0  0  0  0  0  3  0  0  0  0  0  0
  1  9  2  0
  2  1  1  0
  3  4  1  0
  3  2  2  0
  4  8  1  0
  5  6  2  0
  5  4  1  0
  6  7  1  0
  7  8  2  0
  8  9  1  0
M  RAD  5   1   2   2   2   5   2   6   2   9   2
M  END
>  <MODEL>  (95) 
1

>  <TORSDO>  (95) 
F 0

>  <SCORE>  (95) 
-5.1

>  <ligand_id>  (95) 
47

>  <original_smiles>  (95) 
c1cnn2ccnc2c1

>  <smiles>  (95) 
c1cnn2ccnc2c1

$$$$
47:0:1
     RDKit          3D

  9 10  0  0  0  0  0  0  0  0999 V2000
   -7.7350  353.5330   19.0000 C   0  0  0  0  0  3  0  0  0  0  0  0
   -7.2910  354.7120   19.6310 C   0  0  0  0  0  3  0  0  0  0  0  0
   -6.6420  354.6340   20.8270 N   0  0  0  0  0  0  0  0  0  0  0  0
   -6.4410  353.4380   21.3750 N   0  0  0  0  0  0  0  0  0  0  0  0
   -5.8330  353.1460   22.5310 C   0  0  0  0  0  3  0  0  0  0  0  0
   -5.8870  351.7570   22.6430 C   0  0  0  0  0  3  0  0  0  0  0  0
   -6.5210  351.2200   21.5670 N   0  0  0  0  0  0  0  0  0  0  0  0
   -6.8400  352.2910   20.8240 C   0  0  0  0  0  0  0  0  0  0  0  0
   -7.5080  352.2870   19.6040 C   0  0  0  0  0  3  0  0  0  0  0  0
  1  9  2  0
  1  2  1  0
  2  3  2  0
  3  4  1  0
  4  5  1  0
  5  6  2  0
  7  6  1  0
  8  4  1  0
  8  7  2  0
  9  8  1  0
M  RAD  5   1   2   2   2   5   2   6   2   9   2
M  END
>  <MODEL>  (96) 
2

>  <TORSDO>  (96) 
F 0

>  <SCORE>  (96) 
-4.9

>  <ligand_id>  (96) 
47

>  <original_smiles>  (96) 
c1cnn2ccnc2c1

>  <smiles>  (96) 
c1cnn2ccnc2c1

$$$$
48:0:0
     RDKit          3D

 12 13  0  0  0  0  0  0  0  0999 V2000
    6.7370  333.4090    7.6530 C   0  0  0  0  0  0  0  0  0  0  0  0
    7.2170  334.6490    7.2130 C   0  0  0  0  0  3  0  0  0  0  0  0
    7.4280  335.6930    8.1200 C   0  0  0  0  0  3  0  0  0  0  0  0
    7.1580  335.5000    9.4760 C   0  0  0  0  0  0  0  0  0  0  0  0
    7.3620  336.5290   10.3960 C   0  0  0  0  0  3  0  0  0  0  0  0
    7.0850  336.3130   11.7480 C   0  0  0  0  0  3  0  0  0  0  0  0
    6.6080  335.0650   12.1610 C   0  0  0  0  0  3  0  0  0  0  0  0
    6.4130  334.0710   11.2520 N   0  0  0  0  0  0  0  0  0  0  0  0
    6.6760  334.2550    9.9310 C   0  0  0  0  0  0  0  0  0  0  0  0
    6.4670  333.2170    9.0200 C   0  0  0  0  0  3  0  0  0  0  0  0
    5.3850  332.3170    5.8950 C   0  0  0  0  0  1  0  0  0  0  0  0
    6.5400  332.3900    6.7180 O   0  0  0  0  0  0  0  0  0  0  0  0
  1 10  2  0
  2  1  1  0
  2  3  2  0
  3  4  1  0
  4  9  2  0
  4  5  1  0
  5  6  2  0
  6  7  1  0
  8  7  2  0
  9  8  1  0
 10  9  1  0
 11 12  1  0
 12  1  1  0
M  RAD  7   2   2   3   2   5   2   6   2   7   2  10   2  11   2
M  END
>  <MODEL>  (97) 
1

>  <TORSDO>  (97) 
F 1

>  <SCORE>  (97) 
-6.3

>  <ligand_id>  (97) 
48

>  <original_smiles>  (97) 
COc1ccc2cccnc2c1

>  <smiles>  (97) 
COc1ccc2cccnc2c1

$$$$
48:0:1
     RDKit          3D

 12 13  0  0  0  0  0  0  0  0999 V2000
    8.9330  324.9870    7.3610 C   0  0  0  0  0  0  0  0  0  0  0  0
    9.6530  324.2190    6.4380 C   0  0  0  0  0  3  0  0  0  0  0  0
   10.7510  323.4560    6.8500 C   0  0  0  0  0  3  0  0  0  0  0  0
   11.1340  323.4590    8.1920 C   0  0  0  0  0  0  0  0  0  0  0  0
   12.2270  322.7050    8.6230 C   0  0  0  0  0  3  0  0  0  0  0  0
   12.5920  322.7240    9.9710 C   0  0  0  0  0  3  0  0  0  0  0  0
   11.8550  323.4990   10.8720 C   0  0  0  0  0  3  0  0  0  0  0  0
   10.7920  324.2300   10.4380 N   0  0  0  0  0  0  0  0  0  0  0  0
   10.4150  324.2290    9.1310 C   0  0  0  0  0  0  0  0  0  0  0  0
    9.3200  324.9880    8.7130 C   0  0  0  0  0  3  0  0  0  0  0  0
    7.7490  326.2390    5.5870 C   0  0  0  0  0  1  0  0  0  0  0  0
    7.8420  325.7350    6.9120 O   0  0  0  0  0  0  0  0  0  0  0  0
  1 10  2  0
  2  3  2  0
  2  1  1  0
  3  4  1  0
  4  5  1  0
  4  9  2  0
  5  6  2  0
  6  7  1  0
  8  7  2  0
  9  8  1  0
 10  9  1  0
 11 12  1  0
 12  1  1  0
M  RAD  7   2   2   3   2   5   2   6   2   7   2  10   2  11   2
M  END
>  <MODEL>  (98) 
2

>  <TORSDO>  (98) 
F 1

>  <SCORE>  (98) 
-6.2

>  <ligand_id>  (98) 
48

>  <original_smiles>  (98) 
COc1ccc2cccnc2c1

>  <smiles>  (98) 
COc1ccc2cccnc2c1

$$$$
49:0:0
     RDKit          3D

  9  9  0  0  0  0  0  0  0  0999 V2000
   20.6470  335.9250   17.0270 C   0  0  0  0  0  1  0  0  0  0  0  0
   20.4190  335.0200   18.1850 C   0  0  0  0  0  0  0  0  0  0  0  0
   20.8140  333.6810   18.1130 C   0  0  0  0  0  3  0  0  0  0  0  0
   20.5990  332.8290   19.2020 C   0  0  0  0  0  3  0  0  0  0  0  0
   19.9900  333.3190   20.3620 C   0  0  0  0  0  0  0  0  0  0  0  0
   19.5950  334.6580   20.4340 C   0  0  0  0  0  3  0  0  0  0  0  0
   19.8090  335.5090   19.3450 C   0  0  0  0  0  3  0  0  0  0  0  0
   19.7770  332.4740   21.4420 O   0  0  0  0  0  0  0  0  0  0  0  0
   20.0890  331.5350   21.4050 H   0  0  0  0  0  0  0  0  0  0  0  0
  1  2  1  0
  2  7  2  0
  3  2  1  0
  3  4  2  0
  4  5  1  0
  5  6  2  0
  5  8  1  0
  7  6  1  0
  9  8  1  0
M  RAD  5   1   2   3   2   4   2   6   2   7   2
M  END
>  <MODEL>  (99) 
1

>  <TORSDO>  (99) 
F 1

>  <SCORE>  (99) 
-5.1

>  <ligand_id>  (99) 
49

>  <original_smiles>  (99) 
Cc1ccc(O)cc1

>  <smiles>  (99) 
Cc1ccc(O)cc1

$$$$
49:0:1
     RDKit          3D

  9  9  0  0  0  0  0  0  0  0999 V2000
  -12.8240  342.2840   14.4960 C   0  0  0  0  0  1  0  0  0  0  0  0
  -12.2480  343.6520   14.5860 C   0  0  0  0  0  0  0  0  0  0  0  0
  -13.0610  344.7310   14.9450 C   0  0  0  0  0  3  0  0  0  0  0  0
  -12.5190  346.0180   15.0290 C   0  0  0  0  0  3  0  0  0  0  0  0
  -11.1620  346.2230   14.7550 C   0  0  0  0  0  0  0  0  0  0  0  0
  -10.3490  345.1440   14.3970 C   0  0  0  0  0  3  0  0  0  0  0  0
  -10.8920  343.8580   14.3120 C   0  0  0  0  0  3  0  0  0  0  0  0
  -10.6240  347.5000   14.8380 O   0  0  0  0  0  0  0  0  0  0  0  0
   -9.7940  347.7200   14.3460 H   0  0  0  0  0  0  0  0  0  0  0  0
  1  2  1  0
  2  3  2  0
  3  4  1  0
  5  8  1  0
  5  4  2  0
  6  5  1  0
  7  6  2  0
  7  2  1  0
  9  8  1  0
M  RAD  5   1   2   3   2   4   2   6   2   7   2
M  END
>  <MODEL>  (100) 
2

>  <TORSDO>  (100) 
F 1

>  <SCORE>  (100) 
-5.1

>  <ligand_id>  (100) 
49

>  <original_smiles>  (100) 
Cc1ccc(O)cc1

>  <smiles>  (100) 
Cc1ccc(O)cc1

$$$$
50:0:0
     RDKit          3D

 13 15  0  0  1  0  0  0  0  0999 V2000
    8.0780  337.2330   10.2700 C   0  0  1  0  0  0  0  0  0  0  0  0
    7.2990  336.7600   11.4740 C   0  0  0  0  0  2  0  0  0  0  0  0
    6.6510  337.9190   12.0720 N   0  0  0  0  0  0  0  0  0  0  0  0
    7.3430  339.0960   11.5600 C   0  0  0  0  0  2  0  0  0  0  0  0
    8.0100  338.7360   10.2490 C   0  0  0  0  0  3  0  0  0  0  0  0
    9.3360  338.0390   10.5080 C   0  0  0  0  0  2  0  0  0  0  0  0
    5.6570  337.9480   11.8040 H   0  0  0  0  0  0  0  0  0  0  0  0
    7.8880  336.7420    6.5140 C   0  0  0  0  0  3  0  0  0  0  0  0
    7.5650  335.3850    6.4510 C   0  0  0  0  0  3  0  0  0  0  0  0
    7.4110  334.6660    7.5960 N   0  0  0  0  0  0  0  0  0  0  0  0
    7.5630  335.2380    8.8210 C   0  0  0  0  0  3  0  0  0  0  0  0
    7.8750  336.5990    8.9290 C   0  0  0  0  0  0  0  0  0  0  0  0
    8.0480  337.3480    7.7610 C   0  0  0  0  0  3  0  0  0  0  0  0
  1 12  1  6
  1  6  1  0
  1  2  1  0
  2  3  1  0
  4  3  1  0
  5  1  1  0
  5  6  1  0
  5  4  1  0
  7  3  1  0
  8 13  2  0
  9  8  1  0
  9 10  2  0
 10 11  1  0
 11 12  2  0
 13 12  1  0
M  RAD  8   2   3   4   3   5   2   6   3   8   2   9   2  11   2  13   2
M  END
>  <MODEL>  (101) 
1

>  <TORSDO>  (101) 
F 1

>  <SCORE>  (101) 
-6.3

>  <ligand_id>  (101) 
50

>  <original_smiles>  (101) 
c1cncc(C23CNCC2C3)c1

>  <smiles>  (101) 
c1cncc(C23CNCC2C3)c1

$$$$
50:0:1
     RDKit          3D

 13 15  0  0  1  0  0  0  0  0999 V2000
   10.3810  324.7330    7.7430 C   0  0  1  0  0  0  0  0  0  0  0  0
    8.9660  325.2360    7.9180 C   0  0  0  0  0  2  0  0  0  0  0  0
    8.2020  324.8400    6.7440 N   0  0  0  0  0  0  0  0  0  0  0  0
    9.1700  324.5200    5.7020 C   0  0  0  0  0  2  0  0  0  0  0  0
   10.4870  324.1580    6.3560 C   0  0  0  0  0  3  0  0  0  0  0  0
   11.2570  325.4190    6.7180 C   0  0  0  0  0  2  0  0  0  0  0  0
    7.6250  324.0140    6.9580 H   0  0  0  0  0  0  0  0  0  0  0  0
   12.3210  321.9490    9.4350 C   0  0  0  0  0  3  0  0  0  0  0  0
   12.2940  322.3900   10.7600 C   0  0  0  0  0  3  0  0  0  0  0  0
   11.6610  323.5500   11.0810 N   0  0  0  0  0  0  0  0  0  0  0  0
   11.0390  324.3060   10.1370 C   0  0  0  0  0  3  0  0  0  0  0  0
   11.0310  323.8940    8.7980 C   0  0  0  0  0  0  0  0  0  0  0  0
   11.6890  322.7100    8.4510 C   0  0  0  0  0  3  0  0  0  0  0  0
  1  2  1  0
  1 12  1  1
  3  7  1  0
  3  2  1  0
  4  3  1  0
  5  4  1  0
  5  6  1  0
  5  1  1  0
  6  1  1  0
  8  9  2  0
  9 10  1  0
 11 10  2  0
 12 11  1  0
 13 12  2  0
 13  8  1  0
M  RAD  8   2   3   4   3   5   2   6   3   8   2   9   2  11   2  13   2
M  END
>  <MODEL>  (102) 
2

>  <TORSDO>  (102) 
F 1

>  <SCORE>  (102) 
-6.2

>  <ligand_id>  (102) 
50

>  <original_smiles>  (102) 
c1cncc(C23CNCC2C3)c1

>  <smiles>  (102) 
c1cncc(C23CNCC2C3)c1

$$$$
51:0:0
     RDKit          3D

 10 11  0  0  0  0  0  0  0  0999 V2000
    7.2070  334.3380    7.3190 C   0  0  0  0  0  3  0  0  0  0  0  0
    7.6550  335.6610    7.2660 C   0  0  0  0  0  3  0  0  0  0  0  0
    7.7050  336.4140    8.3990 N   0  0  0  0  0  0  0  0  0  0  0  0
    7.3260  335.9100    9.6040 C   0  0  0  0  0  0  0  0  0  0  0  0
    7.3860  336.6840   10.7210 N   0  0  0  0  0  0  0  0  0  0  0  0
    7.0120  336.2040   11.9370 C   0  0  0  0  0  3  0  0  0  0  0  0
    6.5530  334.8890   12.0670 C   0  0  0  0  0  2  0  0  0  0  0  0
    6.4820  334.0720   10.9350 C   0  0  0  0  0  3  0  0  0  0  0  0
    6.8690  334.5790    9.6950 C   0  0  0  0  0  0  0  0  0  0  0  0
    6.8120  333.7950    8.5440 C   0  0  0  0  0  2  0  0  0  0  0  0
  1 10  1  0
  2  1  2  0
  2  3  1  0
  3  4  2  0
  4  9  1  0
  4  5  1  0
  5  6  2  0
  6  7  1  0
  8  7  1  0
  9  8  2  0
 10  9  1  0
M  RAD  6   1   2   2   2   6   2   7   3   8   2  10   3
M  END
>  <MODEL>  (103) 
1

>  <TORSDO>  (103) 
F 0

>  <SCORE>  (103) 
-5.6

>  <ligand_id>  (103) 
51

>  <original_smiles>  (103) 
c1cnc2ncccc2c1

>  <smiles>  (103) 
c1cnc2ncccc2c1

$$$$
51:0:1
     RDKit          3D

 10 11  0  0  0  0  0  0  0  0999 V2000
    6.5230  334.7120   12.0220 C   0  0  0  0  0  3  0  0  0  0  0  0
    6.9390  336.0470   12.0040 C   0  0  0  0  0  3  0  0  0  0  0  0
    7.3270  336.6290   10.8350 N   0  0  0  0  0  0  0  0  0  0  0  0
    7.3210  335.9390    9.6630 C   0  0  0  0  0  0  0  0  0  0  0  0
    7.7130  336.5450    8.5100 N   0  0  0  0  0  0  0  0  0  0  0  0
    7.7170  335.8770    7.3250 C   0  0  0  0  0  3  0  0  0  0  0  0
    7.3130  334.5400    7.2660 C   0  0  0  0  0  3  0  0  0  0  0  0
    6.9050  333.8940    8.4360 C   0  0  0  0  0  3  0  0  0  0  0  0
    6.9070  334.5920    9.6440 C   0  0  0  0  0  0  0  0  0  0  0  0
    6.5070  333.9810   10.8310 C   0  0  0  0  0  3  0  0  0  0  0  0
  2  1  2  0
  3  2  1  0
  4  3  2  0
  5  4  1  0
  6  5  2  0
  7  6  1  0
  7  8  2  0
  8  9  1  0
  9  4  1  0
  9 10  2  0
 10  1  1  0
M  RAD  6   1   2   2   2   6   2   7   2   8   2  10   2
M  END
>  <MODEL>  (104) 
2

>  <TORSDO>  (104) 
F 0

>  <SCORE>  (104) 
-5.6

>  <ligand_id>  (104) 
51

>  <original_smiles>  (104) 
c1cnc2ncccc2c1

>  <smiles>  (104) 
c1cnc2ncccc2c1

$$$$
52:0:0
     RDKit          3D

  9 10  0  0  0  0  0  0  0  0999 V2000
    8.9250  324.9050    7.6050 C   0  0  0  0  0  3  0  0  0  0  0  0
    9.6180  324.1810    6.6150 C   0  0  0  0  0  3  0  0  0  0  0  0
   10.7400  323.4690    6.9320 N   0  0  0  0  0  0  0  0  0  0  0  0
   11.1950  323.4560    8.2120 C   0  0  0  0  0  0  0  0  0  0  0  0
   12.3270  322.7660    8.6510 C   0  0  0  0  0  3  0  0  0  0  0  0
   12.5570  322.9350   10.0220 C   0  0  0  0  0  3  0  0  0  0  0  0
   11.3410  323.9390   10.6490 S   0  0  0  0  0  0  0  0  0  0  0  0
   10.5370  324.1560    9.1990 C   0  0  0  0  0  0  0  0  0  0  0  0
    9.3910  324.8960    8.9290 C   0  0  0  0  0  3  0  0  0  0  0  0
  1  9  2  0
  2  3  2  0
  2  1  1  0
  3  4  1  0
  4  5  1  0
  4  8  2  0
  5  6  2  0
  6  7  1  0
  8  7  1  0
  9  8  1  0
M  RAD  5   1   2   2   2   5   2   6   2   9   2
M  END
>  <MODEL>  (105) 
1

>  <TORSDO>  (105) 
F 0

>  <SCORE>  (105) 
-4.8

>  <ligand_id>  (105) 
52

>  <original_smiles>  (105) 
c1cnc2ccsc2c1

>  <smiles>  (105) 
c1cnc2ccsc2c1

$$$$
52:0:1
     RDKit          3D

  9 10  0  0  0  0  0  0  0  0999 V2000
   12.2010  322.1550    8.8750 C   0  0  0  0  0  3  0  0  0  0  0  0
   11.5480  323.1400    8.1070 C   0  0  0  0  0  3  0  0  0  0  0  0
   10.8170  324.1220    8.7130 N   0  0  0  0  0  0  0  0  0  0  0  0
   10.7140  324.1530   10.0670 C   0  0  0  0  0  0  0  0  0  0  0  0
    9.9960  325.1050   10.7930 C   0  0  0  0  0  3  0  0  0  0  0  0
   10.0670  324.8880   12.1740 C   0  0  0  0  0  3  0  0  0  0  0  0
   11.0230  323.5140   12.4520 S   0  0  0  0  0  0  0  0  0  0  0  0
   11.3420  323.2010   10.8410 C   0  0  0  0  0  0  0  0  0  0  0  0
   12.0980  322.1810   10.2740 C   0  0  0  0  0  3  0  0  0  0  0  0
  1  9  2  0
  2  3  2  0
  2  1  1  0
  3  4  1  0
  4  5  1  0
  4  8  2  0
  5  6  2  0
  6  7  1  0
  8  7  1  0
  9  8  1  0
M  RAD  5   1   2   2   2   5   2   6   2   9   2
M  END
>  <MODEL>  (106) 
2

>  <TORSDO>  (106) 
F 0

>  <SCORE>  (106) 
-4.8

>  <ligand_id>  (106) 
52

>  <original_smiles>  (106) 
c1cnc2ccsc2c1

>  <smiles>  (106) 
c1cnc2ccsc2c1

$$$$
53:0:0
     RDKit          3D

  9 10  0  0  0  0  0  0  0  0999 V2000
   12.0110  353.6710   23.0110 C   0  0  0  0  0  3  0  0  0  0  0  0
   10.8780  352.9260   23.4090 C   0  0  0  0  0  3  0  0  0  0  0  0
   10.7330  352.5230   24.7080 N   0  0  0  0  0  0  0  0  0  0  0  0
   11.6950  352.8530   25.6060 C   0  0  0  0  0  0  0  0  0  0  0  0
   11.7610  352.5610   26.9470 C   0  0  0  0  0  3  0  0  0  0  0  0
   12.9690  353.1550   27.3370 C   0  0  0  0  0  3  0  0  0  0  0  0
   13.5570  353.7440   26.3070 O   0  0  0  0  0  0  0  0  0  0  0  0
   12.7970  353.5660   25.2600 C   0  0  0  0  0  0  0  0  0  0  0  0
   13.0000  354.0030   23.9550 C   0  0  0  0  0  3  0  0  0  0  0  0
  1  2  2  0
  1  9  1  0
  2  3  1  0
  3  4  2  0
  4  5  1  0
  5  6  2  0
  7  6  1  0
  8  4  1  0
  8  7  1  0
  9  8  2  0
M  RAD  5   1   2   2   2   5   2   6   2   9   2
M  END
>  <MODEL>  (107) 
1

>  <TORSDO>  (107) 
F 0

>  <SCORE>  (107) 
-5.4

>  <ligand_id>  (107) 
53

>  <original_smiles>  (107) 
c1cnc2ccoc2c1

>  <smiles>  (107) 
c1cnc2ccoc2c1

$$$$
53:0:1
     RDKit          3D

  9 10  0  0  0  0  0  0  0  0999 V2000
    9.0340  324.8120    7.9370 C   0  0  0  0  0  3  0  0  0  0  0  0
    9.6560  324.0860    6.8960 C   0  0  0  0  0  3  0  0  0  0  0  0
   10.8330  323.4260    7.1170 N   0  0  0  0  0  0  0  0  0  0  0  0
   11.3900  323.4790    8.3520 C   0  0  0  0  0  0  0  0  0  0  0  0
   12.5530  322.9000    8.8010 C   0  0  0  0  0  3  0  0  0  0  0  0
   12.6060  323.3020   10.1410 C   0  0  0  0  0  3  0  0  0  0  0  0
   11.5590  324.0530   10.4480 O   0  0  0  0  0  0  0  0  0  0  0  0
   10.8220  324.1660    9.3760 C   0  0  0  0  0  0  0  0  0  0  0  0
    9.6270  324.8570    9.2120 C   0  0  0  0  0  3  0  0  0  0  0  0
  1  9  2  0
  2  3  2  0
  2  1  1  0
  3  4  1  0
  4  5  1  0
  4  8  2  0
  5  6  2  0
  6  7  1  0
  8  7  1  0
  9  8  1  0
M  RAD  5   1   2   2   2   5   2   6   2   9   2
M  END
>  <MODEL>  (108) 
2

>  <TORSDO>  (108) 
F 0

>  <SCORE>  (108) 
-4.9

>  <ligand_id>  (108) 
53

>  <original_smiles>  (108) 
c1cnc2ccoc2c1

>  <smiles>  (108) 
c1cnc2ccoc2c1

$$$$
54:0:0
     RDKit          3D

 10 11  0  0  0  0  0  0  0  0999 V2000
    7.6260  335.5300    7.2540 C   0  0  0  0  0  3  0  0  0  0  0  0
    7.1700  334.2180    7.4180 C   0  0  0  0  0  3  0  0  0  0  0  0
    6.8040  333.7670    8.6480 N   0  0  0  0  0  0  0  0  0  0  0  0
    6.8720  334.5690    9.7450 C   0  0  0  0  0  0  0  0  0  0  0  0
    6.4940  334.0920   11.0000 C   0  0  0  0  0  3  0  0  0  0  0  0
    6.5730  334.9360   12.1110 C   0  0  0  0  0  3  0  0  0  0  0  0
    7.0300  336.2480   11.9480 C   0  0  0  0  0  3  0  0  0  0  0  0
    7.3940  336.6990   10.7170 N   0  0  0  0  0  0  0  0  0  0  0  0
    7.3270  335.8970    9.6200 C   0  0  0  0  0  0  0  0  0  0  0  0
    7.7050  336.3730    8.3650 C   0  0  0  0  0  3  0  0  0  0  0  0
  1  2  2  0
  1 10  1  0
  2  3  1  0
  3  4  2  0
  4  5  1  0
  5  6  2  0
  7  6  1  0
  8  7  2  0
  9  4  1  0
  9  8  1  0
 10  9  2  0
M  RAD  6   1   2   2   2   5   2   6   2   7   2  10   2
M  END
>  <MODEL>  (109) 
1

>  <TORSDO>  (109) 
F 0

>  <SCORE>  (109) 
-5.3

>  <ligand_id>  (109) 
54

>  <original_smiles>  (109) 
c1cnc2cccnc2c1

>  <smiles>  (109) 
c1cnc2cccnc2c1

$$$$
54:0:1
     RDKit          3D

 10 11  0  0  0  0  0  0  0  0999 V2000
    7.1810  334.2590    7.3800 C   0  0  0  0  0  3  0  0  0  0  0  0
    7.6410  335.5780    7.3070 C   0  0  0  0  0  3  0  0  0  0  0  0
    7.6970  336.3490    8.4270 N   0  0  0  0  0  0  0  0  0  0  0  0
    7.3110  335.8650    9.6380 C   0  0  0  0  0  0  0  0  0  0  0  0
    7.3740  336.6670   10.7780 C   0  0  0  0  0  3  0  0  0  0  0  0
    6.9710  336.1470   12.0110 C   0  0  0  0  0  3  0  0  0  0  0  0
    6.5110  334.8270   12.0840 C   0  0  0  0  0  3  0  0  0  0  0  0
    6.4560  334.0570   10.9640 N   0  0  0  0  0  0  0  0  0  0  0  0
    6.8420  334.5410    9.7530 C   0  0  0  0  0  0  0  0  0  0  0  0
    6.7790  333.7390    8.6120 C   0  0  0  0  0  3  0  0  0  0  0  0
  1 10  2  0
  2  1  1  0
  2  3  2  0
  3  4  1  0
  4  9  2  0
  4  5  1  0
  5  6  2  0
  6  7  1  0
  8  7  2  0
  9  8  1  0
 10  9  1  0
M  RAD  6   1   2   2   2   5   2   6   2   7   2  10   2
M  END
>  <MODEL>  (110) 
2

>  <TORSDO>  (110) 
F 0

>  <SCORE>  (110) 
-5.3

>  <ligand_id>  (110) 
54

>  <original_smiles>  (110) 
c1cnc2cccnc2c1

>  <smiles>  (110) 
c1cnc2cccnc2c1

$$$$
55:0:0
     RDKit          3D

  9 10  0  0  0  0  0  0  0  0999 V2000
   13.3760  354.6300   26.9070 C   0  0  0  0  0  3  0  0  0  0  0  0
   12.9960  354.9920   25.5960 C   0  0  0  0  0  3  0  0  0  0  0  0
   12.1490  354.2000   24.8720 N   0  0  0  0  0  0  0  0  0  0  0  0
   11.6660  353.0550   25.4190 C   0  0  0  0  0  0  0  0  0  0  0  0
   10.8170  352.2010   24.7780 N   0  0  0  0  0  0  0  0  0  0  0  0
   10.4770  351.1390   25.5120 N   0  0  0  0  0  0  0  0  0  0  0  0
   11.2400  351.2490   26.9940 S   0  0  0  0  0  0  0  0  0  0  0  0
   12.0250  352.6830   26.6990 C   0  0  0  0  0  0  0  0  0  0  0  0
   12.8820  353.4470   27.4790 C   0  0  0  0  0  3  0  0  0  0  0  0
  1  9  2  0
  2  1  1  0
  3  4  1  0
  3  2  2  0
  4  8  2  0
  5  4  1  0
  5  6  2  0
  6  7  1  0
  8  7  1  0
  8  9  1  0
M  RAD  3   1   2   2   2   9   2
M  END
>  <MODEL>  (111) 
1

>  <TORSDO>  (111) 
F 0

>  <SCORE>  (111) 
-5.3

>  <ligand_id>  (111) 
55

>  <original_smiles>  (111) 
c1cnc2nnsc2c1

>  <smiles>  (111) 
c1cnc2nnsc2c1

$$$$
55:0:1
     RDKit          3D

  9 10  0  0  0  0  0  0  0  0999 V2000
   -7.3940  354.6310   19.0230 C   0  0  0  0  0  3  0  0  0  0  0  0
   -7.8760  353.4020   18.5230 C   0  0  0  0  0  3  0  0  0  0  0  0
   -7.6870  352.2420   19.2220 N   0  0  0  0  0  0  0  0  0  0  0  0
   -7.0300  352.2720   20.4100 C   0  0  0  0  0  0  0  0  0  0  0  0
   -6.7930  351.1710   21.1800 N   0  0  0  0  0  0  0  0  0  0  0  0
   -6.1290  351.4430   22.3050 N   0  0  0  0  0  0  0  0  0  0  0  0
   -5.8220  353.0840   22.3610 S   0  0  0  0  0  0  0  0  0  0  0  0
   -6.5510  353.4640   20.9170 C   0  0  0  0  0  0  0  0  0  0  0  0
   -6.7130  354.6700   20.2500 C   0  0  0  0  0  3  0  0  0  0  0  0
  1  9  2  0
  2  1  1  0
  2  3  2  0
  3  4  1  0
  4  8  2  0
  4  5  1  0
  5  6  2  0
  6  7  1  0
  8  7  1  0
  9  8  1  0
M  RAD  3   1   2   2   2   9   2
M  END
>  <MODEL>  (112) 
2

>  <TORSDO>  (112) 
F 0

>  <SCORE>  (112) 
-4.9

>  <ligand_id>  (112) 
55

>  <original_smiles>  (112) 
c1cnc2nnsc2c1

>  <smiles>  (112) 
c1cnc2nnsc2c1

$$$$
56:0:0
     RDKit          3D

 13 15  0  0  0  0  0  0  0  0999 V2000
    7.7340  336.1080    6.0500 C   0  0  0  0  0  3  0  0  0  0  0  0
    7.4040  334.8270    5.5940 C   0  0  0  0  0  3  0  0  0  0  0  0
    7.0060  333.8650    6.4720 N   0  0  0  0  0  0  0  0  0  0  0  0
    6.9170  334.1150    7.8060 C   0  0  0  0  0  0  0  0  0  0  0  0
    6.5140  333.1290    8.6640 N   0  0  0  0  0  0  0  0  0  0  0  0
    6.4110  333.3380   10.0110 C   0  0  0  0  0  3  0  0  0  0  0  0
    6.7260  334.5940   10.5250 C   0  0  0  0  0  0  0  0  0  0  0  0
    6.6640  334.9280   11.8390 N   0  0  0  0  0  0  0  0  0  0  0  0
    7.0260  336.2180   12.0530 C   0  0  0  0  0  3  0  0  0  0  0  0
    7.4350  336.9760   10.5920 S   0  0  0  0  0  0  0  0  0  0  0  0
    7.1350  335.6040    9.6750 C   0  0  0  0  0  0  0  0  0  0  0  0
    7.2420  335.3990    8.3010 C   0  0  0  0  0  0  0  0  0  0  0  0
    7.6520  336.3960    7.4140 C   0  0  0  0  0  3  0  0  0  0  0  0
  1 13  2  0
  2  1  1  0
  2  3  2  0
  3  4  1  0
  4 12  2  0
  4  5  1  0
  5  6  2  0
  6  7  1  0
  7  8  1  0
  8  9  2  0
 10  9  1  0
 11  7  2  0
 11 10  1  0
 12 11  1  0
 13 12  1  0
M  RAD  5   1   2   2   2   6   2   9   2  13   2
M  END
>  <MODEL>  (113) 
1

>  <TORSDO>  (113) 
F 0

>  <SCORE>  (113) 
-6.1

>  <ligand_id>  (113) 
56

>  <original_smiles>  (113) 
c1cnc2ncc3ncsc3c2c1

>  <smiles>  (113) 
c1cnc2ncc3ncsc3c2c1

$$$$
56:0:1
     RDKit          3D

 13 15  0  0  0  0  0  0  0  0999 V2000
    9.5420  324.7460    7.8130 C   0  0  0  0  0  3  0  0  0  0  0  0
   10.4200  323.8470    7.1990 C   0  0  0  0  0  3  0  0  0  0  0  0
   11.3160  323.1420    7.9450 N   0  0  0  0  0  0  0  0  0  0  0  0
   11.3850  323.2880    9.2950 C   0  0  0  0  0  0  0  0  0  0  0  0
   12.2950  322.5670   10.0180 N   0  0  0  0  0  0  0  0  0  0  0  0
   12.3980  322.6840   11.3760 C   0  0  0  0  0  3  0  0  0  0  0  0
   11.5500  323.5640   12.0440 C   0  0  0  0  0  0  0  0  0  0  0  0
   11.5520  323.7700   13.3860 N   0  0  0  0  0  0  0  0  0  0  0  0
   10.6190  324.6810   13.7610 C   0  0  0  0  0  3  0  0  0  0  0  0
    9.7640  325.2540   12.4130 S   0  0  0  0  0  0  0  0  0  0  0  0
   10.6230  324.3010   11.3320 C   0  0  0  0  0  0  0  0  0  0  0  0
   10.5120  324.1880    9.9480 C   0  0  0  0  0  0  0  0  0  0  0  0
    9.5880  324.9170    9.1980 C   0  0  0  0  0  3  0  0  0  0  0  0
  1 13  2  0
  2  1  1  0
  2  3  2  0
  3  4  1  0
  4 12  2  0
  4  5  1  0
  5  6  2  0
  6  7  1  0
  7  8  1  0
  8  9  2  0
 10  9  1  0
 11  7  2  0
 11 10  1  0
 12 11  1  0
 13 12  1  0
M  RAD  5   1   2   2   2   6   2   9   2  13   2
M  END
>  <MODEL>  (114) 
2

>  <TORSDO>  (114) 
F 0

>  <SCORE>  (114) 
-6.1

>  <ligand_id>  (114) 
56

>  <original_smiles>  (114) 
c1cnc2ncc3ncsc3c2c1

>  <smiles>  (114) 
c1cnc2ncc3ncsc3c2c1

$$$$
57:0:0
     RDKit          3D

  9 10  0  0  0  0  0  0  0  0999 V2000
   12.5750  323.0950   10.0250 C   0  0  0  0  0  3  0  0  0  0  0  0
   12.4440  322.8270    8.6610 C   0  0  0  0  0  3  0  0  0  0  0  0
   11.2850  323.4720    8.2940 C   0  0  0  0  0  0  0  0  0  0  0  0
   10.6880  323.5310    7.0390 C   0  0  0  0  0  3  0  0  0  0  0  0
    9.5290  324.2400    6.9180 N   0  0  0  0  0  0  0  0  0  0  0  0
    8.9600  324.8770    7.9870 C   0  0  0  0  0  3  0  0  0  0  0  0
    9.5770  324.8060    9.2450 C   0  0  0  0  0  3  0  0  0  0  0  0
   10.7280  324.0970    9.3380 N   0  0  0  0  0  0  0  0  0  0  0  0
   11.4950  323.8850   10.4150 C   0  0  0  0  0  3  0  0  0  0  0  0
  1  9  2  0
  2  1  1  0
  3  2  2  0
  3  8  1  0
  4  3  1  0
  5  4  2  0
  5  6  1  0
  6  7  2  0
  7  8  1  0
  8  9  1  0
M  RAD  6   1   2   2   2   4   2   6   2   7   2   9   2
M  END
>  <MODEL>  (115) 
1

>  <TORSDO>  (115) 
F 0

>  <SCORE>  (115) 
-4.7

>  <ligand_id>  (115) 
57

>  <original_smiles>  (115) 
c1cc2cnccn2c1

>  <smiles>  (115) 
c1cc2cnccn2c1

$$$$
57:0:1
     RDKit          3D

  9 10  0  0  0  0  0  0  0  0999 V2000
    7.6290  336.4830   27.9140 C   0  0  0  0  0  3  0  0  0  0  0  0
    6.4350  335.7800   27.7450 C   0  0  0  0  0  3  0  0  0  0  0  0
    6.4110  335.4620   26.4060 C   0  0  0  0  0  0  0  0  0  0  0  0
    5.4390  334.7600   25.7010 C   0  0  0  0  0  3  0  0  0  0  0  0
    5.6380  334.5660   24.3650 N   0  0  0  0  0  0  0  0  0  0  0  0
    6.7500  335.0410   23.7260 C   0  0  0  0  0  3  0  0  0  0  0  0
    7.7200  335.7470   24.4540 C   0  0  0  0  0  3  0  0  0  0  0  0
    7.4990  335.9250   25.7790 N   0  0  0  0  0  0  0  0  0  0  0  0
    8.2660  336.5570   26.6770 C   0  0  0  0  0  3  0  0  0  0  0  0
  2  1  1  0
  3  2  2  0
  4  3  1  0
  5  4  2  0
  6  5  1  0
  6  7  2  0
  7  8  1  0
  8  3  1  0
  8  9  1  0
  9  1  2  0
M  RAD  6   1   2   2   2   4   2   6   2   7   2   9   2
M  END
>  <MODEL>  (116) 
2

>  <TORSDO>  (116) 
F 0

>  <SCORE>  (116) 
-4.6

>  <ligand_id>  (116) 
57

>  <original_smiles>  (116) 
c1cc2cnccn2c1

>  <smiles>  (116) 
c1cc2cnccn2c1

$$$$
58:0:0
     RDKit          3D

 10 11  0  0  0  0  0  0  0  0999 V2000
    7.2070  334.3380    7.3190 C   0  0  0  0  0  3  0  0  0  0  0  0
    7.6550  335.6610    7.2660 C   0  0  0  0  0  3  0  0  0  0  0  0
    7.7050  336.4140    8.3990 N   0  0  0  0  0  0  0  0  0  0  0  0
    7.3260  335.9100    9.6040 C   0  0  0  0  0  0  0  0  0  0  0  0
    7.3860  336.6840   10.7210 N   0  0  0  0  0  0  0  0  0  0  0  0
    7.0120  336.2040   11.9370 C   0  0  0  0  0  3  0  0  0  0  0  0
    6.5530  334.8890   12.0670 C   0  0  0  0  0  2  0  0  0  0  0  0
    6.4820  334.0720   10.9350 C   0  0  0  0  0  3  0  0  0  0  0  0
    6.8690  334.5790    9.6950 C   0  0  0  0  0  0  0  0  0  0  0  0
    6.8120  333.7950    8.5440 C   0  0  0  0  0  2  0  0  0  0  0  0
  1 10  1  0
  2  1  2  0
  2  3  1  0
  3  4  2  0
  4  9  1  0
  4  5  1  0
  5  6  2  0
  6  7  1  0
  8  7  1  0
  9  8  2  0
 10  9  1  0
M  RAD  6   1   2   2   2   6   2   7   3   8   2  10   3
M  END
>  <MODEL>  (117) 
1

>  <TORSDO>  (117) 
F 0

>  <SCORE>  (117) 
-5.6

>  <ligand_id>  (117) 
58

>  <original_smiles>  (117) 
c1cnc2ncccc2c1

>  <smiles>  (117) 
c1cnc2ncccc2c1

$$$$
58:0:1
     RDKit          3D

 10 11  0  0  0  0  0  0  0  0999 V2000
    6.5230  334.7120   12.0220 C   0  0  0  0  0  3  0  0  0  0  0  0
    6.9390  336.0470   12.0040 C   0  0  0  0  0  3  0  0  0  0  0  0
    7.3270  336.6290   10.8350 N   0  0  0  0  0  0  0  0  0  0  0  0
    7.3210  335.9390    9.6630 C   0  0  0  0  0  0  0  0  0  0  0  0
    7.7130  336.5450    8.5100 N   0  0  0  0  0  0  0  0  0  0  0  0
    7.7170  335.8770    7.3250 C   0  0  0  0  0  3  0  0  0  0  0  0
    7.3130  334.5400    7.2660 C   0  0  0  0  0  3  0  0  0  0  0  0
    6.9050  333.8940    8.4360 C   0  0  0  0  0  3  0  0  0  0  0  0
    6.9070  334.5920    9.6440 C   0  0  0  0  0  0  0  0  0  0  0  0
    6.5070  333.9810   10.8310 C   0  0  0  0  0  3  0  0  0  0  0  0
  2  1  2  0
  3  2  1  0
  4  3  2  0
  5  4  1  0
  6  5  2  0
  7  6  1  0
  7  8  2  0
  8  9  1  0
  9  4  1  0
  9 10  2  0
 10  1  1  0
M  RAD  6   1   2   2   2   6   2   7   2   8   2  10   2
M  END
>  <MODEL>  (118) 
2

>  <TORSDO>  (118) 
F 0

>  <SCORE>  (118) 
-5.6

>  <ligand_id>  (118) 
58

>  <original_smiles>  (118) 
c1cnc2ncccc2c1

>  <smiles>  (118) 
c1cnc2ncccc2c1

$$$$
59:0:0
     RDKit          3D

  9 10  0  0  0  0  0  0  0  0999 V2000
   11.5560  353.4100   23.2630 C   0  0  0  0  0  3  0  0  0  0  0  0
   12.6500  353.8750   24.0160 C   0  0  0  0  0  3  0  0  0  0  0  0
   12.6830  353.5130   25.3580 C   0  0  0  0  0  0  0  0  0  0  0  0
   13.5840  353.8180   26.2520 O   0  0  0  0  0  0  0  0  0  0  0  0
   13.2230  353.2670   27.3980 C   0  0  0  0  0  3  0  0  0  0  0  0
   12.0220  352.5640   27.2480 C   0  0  0  0  0  3  0  0  0  0  0  0
   11.7090  352.7480   25.9210 C   0  0  0  0  0  0  0  0  0  0  0  0
   10.6320  352.2940   25.1690 C   0  0  0  0  0  3  0  0  0  0  0  0
   10.5840  352.6400   23.8480 N   0  0  0  0  0  0  0  0  0  0  0  0
  1  9  2  0
  1  2  1  0
  2  3  2  0
  3  7  1  0
  3  4  1  0
  4  5  1  0
  6  5  2  0
  7  6  1  0
  8  7  2  0
  9  8  1  0
M  RAD  5   1   2   2   2   5   2   6   2   8   2
M  END
>  <MODEL>  (119) 
1

>  <TORSDO>  (119) 
F 0

>  <SCORE>  (119) 
-5.2

>  <ligand_id>  (119) 
59

>  <original_smiles>  (119) 
c1cc2occc2cn1

>  <smiles>  (119) 
c1cc2occc2cn1

$$$$
59:0:1
     RDKit          3D

  9 10  0  0  0  0  0  0  0  0999 V2000
   -7.8380  353.3740   19.0690 C   0  0  0  0  0  3  0  0  0  0  0  0
   -7.5330  352.1400   19.6700 C   0  0  0  0  0  3  0  0  0  0  0  0
   -6.8170  352.1850   20.8620 C   0  0  0  0  0  0  0  0  0  0  0  0
   -6.4200  351.1870   21.6010 O   0  0  0  0  0  0  0  0  0  0  0  0
   -5.7730  351.6820   22.6420 C   0  0  0  0  0  3  0  0  0  0  0  0
   -5.7440  353.0800   22.5820 C   0  0  0  0  0  3  0  0  0  0  0  0
   -6.4270  353.3630   21.4210 C   0  0  0  0  0  0  0  0  0  0  0  0
   -6.7320  354.5780   20.8180 C   0  0  0  0  0  3  0  0  0  0  0  0
   -7.4360  354.5500   19.6470 N   0  0  0  0  0  0  0  0  0  0  0  0
  1  9  2  0
  1  2  1  0
  2  3  2  0
  3  7  1  0
  3  4  1  0
  4  5  1  0
  6  5  2  0
  7  6  1  0
  8  7  2  0
  9  8  1  0
M  RAD  5   1   2   2   2   5   2   6   2   8   2
M  END
>  <MODEL>  (120) 
2

>  <TORSDO>  (120) 
F 0

>  <SCORE>  (120) 
-5.0

>  <ligand_id>  (120) 
59

>  <original_smiles>  (120) 
c1cc2occc2cn1

>  <smiles>  (120) 
c1cc2occc2cn1

$$$$
60:0:0
     RDKit          3D

 14 15  0  0  0  0  0  0  0  0999 V2000
   11.8100  323.1230   10.6740 C   0  0  0  0  0  3  0  0  0  0  0  0
   12.0200  322.1550    9.6940 C   0  0  0  0  0  2  0  0  0  0  0  0
   11.6720  322.4070    8.4050 N   0  0  0  0  0  0  0  0  0  0  0  0
   11.1170  323.5960    8.0450 C   0  0  0  0  0  0  0  0  0  0  0  0
   10.8000  323.7930    6.7960 N   0  0  0  0  0  2  0  0  0  0  0  0
   10.9070  324.5510    8.9940 N   0  0  0  0  0  0  0  0  0  0  0  0
   11.2410  324.3360   10.2930 C   0  0  0  0  0  3  0  0  0  0  0  0
   10.4860  325.4510    8.7220 H   0  0  0  0  0  0  0  0  0  0  0  0
   10.2090  324.9580    6.1930 C   0  0  0  0  0  0  0  0  0  0  0  0
   10.9710  325.9720    5.5940 C   0  0  0  0  0  3  0  0  0  0  0  0
   10.3300  327.0760    5.0280 C   0  0  0  0  0  3  0  0  0  0  0  0
    8.9740  327.1660    5.0570 N   0  0  0  0  0  0  0  0  0  0  0  0
    8.2110  326.1980    5.6310 C   0  0  0  0  0  3  0  0  0  0  0  0
    8.8170  325.0780    6.2080 C   0  0  0  0  0  3  0  0  0  0  0  0
  2  1  1  0
  3  2  1  0
  4  3  2  0
  4  6  1  0
  5  4  1  0
  6  7  1  0
  7  1  2  0
  8  6  1  0
  9 14  1  0
  9  5  1  0
 10  9  2  0
 11 12  2  0
 11 10  1  0
 12 13  1  0
 13 14  2  0
M  RAD  8   1   2   2   3   5   2   7   2  10   2  11   2  13   2  14   2
M  END
>  <MODEL>  (121) 
1

>  <TORSDO>  (121) 
F 1

>  <SCORE>  (121) 
-5.8

>  <ligand_id>  (121) 
60

>  <original_smiles>  (121) 
c1cnc(=Nc2ccncc2)[nH]c1

>  <smiles>  (121) 
c1cnc(=Nc2ccncc2)[nH]c1

$$$$
60:0:1
     RDKit          3D

 14 15  0  0  0  0  0  0  0  0999 V2000
   11.5140  323.0050   10.8830 C   0  0  0  0  0  3  0  0  0  0  0  0
   11.9480  322.1200    9.8970 C   0  0  0  0  0  2  0  0  0  0  0  0
   11.7440  322.4120    8.5860 N   0  0  0  0  0  0  0  0  0  0  0  0
   11.1200  323.5600    8.2090 C   0  0  0  0  0  0  0  0  0  0  0  0
   10.9470  323.7960    6.9380 N   0  0  0  0  0  2  0  0  0  0  0  0
   10.6910  324.4330    9.1630 N   0  0  0  0  0  0  0  0  0  0  0  0
   10.8770  324.1770   10.4830 C   0  0  0  0  0  3  0  0  0  0  0  0
   10.2190  325.3030    8.8770 H   0  0  0  0  0  0  0  0  0  0  0  0
   10.3210  324.9320    6.3140 C   0  0  0  0  0  0  0  0  0  0  0  0
    8.9290  325.0550    6.1850 C   0  0  0  0  0  3  0  0  0  0  0  0
    8.3890  326.1860    5.5680 C   0  0  0  0  0  3  0  0  0  0  0  0
    9.2100  327.1610    5.0950 N   0  0  0  0  0  0  0  0  0  0  0  0
   10.5610  327.0670    5.2070 C   0  0  0  0  0  3  0  0  0  0  0  0
   11.1380  325.9510    5.8190 C   0  0  0  0  0  3  0  0  0  0  0  0
  2  1  1  0
  3  2  1  0
  4  3  2  0
  4  6  1  0
  5  4  1  0
  6  7  1  0
  7  1  2  0
  8  6  1  0
  9  5  1  0
 10  9  2  0
 11 10  1  0
 12 13  1  0
 12 11  2  0
 13 14  2  0
 14  9  1  0
M  RAD  8   1   2   2   3   5   2   7   2  10   2  11   2  13   2  14   2
M  END
>  <MODEL>  (122) 
2

>  <TORSDO>  (122) 
F 1

>  <SCORE>  (122) 
-5.8

>  <ligand_id>  (122) 
60

>  <original_smiles>  (122) 
c1cnc(=Nc2ccncc2)[nH]c1

>  <smiles>  (122) 
c1cnc(=Nc2ccncc2)[nH]c1

$$$$
61:0:0
     RDKit          3D

 13 15  0  0  0  0  0  0  0  0999 V2000
    7.8240  336.4970    6.1170 C   0  0  0  0  0  3  0  0  0  0  0  0
    7.5210  335.2090    5.6190 C   0  0  0  0  0  3  0  0  0  0  0  0
    7.1330  334.2070    6.4670 N   0  0  0  0  0  0  0  0  0  0  0  0
    7.0420  334.4670    7.7950 C   0  0  0  0  0  0  0  0  0  0  0  0
    6.6700  333.6000    8.8150 C   0  0  0  0  0  3  0  0  0  0  0  0
    6.7650  334.4250    9.9380 C   0  0  0  0  0  0  0  0  0  0  0  0
    6.5060  334.0680   11.2210 N   0  0  0  0  0  0  0  0  0  0  0  0
    6.6480  335.0000   12.2070 C   0  0  0  0  0  3  0  0  0  0  0  0
    7.0580  336.3120   11.9040 C   0  0  0  0  0  3  0  0  0  0  0  0
    7.3170  336.6470   10.5690 C   0  0  0  0  0  3  0  0  0  0  0  0
    7.1580  335.6790    9.6360 N   0  0  0  0  0  0  0  0  0  0  0  0
    7.3300  335.7040    8.3100 C   0  0  0  0  0  0  0  0  0  0  0  0
    7.7280  336.7590    7.4950 C   0  0  0  0  0  3  0  0  0  0  0  0
  1 13  2  0
  2  1  1  0
  2  3  2  0
  3  4  1  0
  4 12  2  0
  4  5  1  0
  5  6  2  0
  6  7  1  0
  7  8  2  0
  9  8  1  0
 10  9  2  0
 11  6  1  0
 11 10  1  0
 12 11  1  0
 13 12  1  0
M  RAD  7   1   2   2   2   5   2   8   2   9   2  10   2  13   2
M  END
>  <MODEL>  (123) 
1

>  <TORSDO>  (123) 
F 0

>  <SCORE>  (123) 
-6.6

>  <ligand_id>  (123) 
61

>  <original_smiles>  (123) 
c1cnc2cc3ncccn3c2c1

>  <smiles>  (123) 
c1cnc2cc3ncccn3c2c1

$$$$
61:0:1
     RDKit          3D

 13 15  0  0  0  0  0  0  0  0999 V2000
    7.0900  336.4290   11.8840 C   0  0  0  0  0  3  0  0  0  0  0  0
    6.6610  335.1360   12.2630 C   0  0  0  0  0  3  0  0  0  0  0  0
    6.4920  334.1540   11.3250 N   0  0  0  0  0  0  0  0  0  0  0  0
    6.7420  334.4370   10.0230 C   0  0  0  0  0  0  0  0  0  0  0  0
    6.6350  333.5930    8.9240 C   0  0  0  0  0  3  0  0  0  0  0  0
    7.0170  334.4360    7.8790 C   0  0  0  0  0  0  0  0  0  0  0  0
    7.0860  334.1050    6.5650 N   0  0  0  0  0  0  0  0  0  0  0  0
    7.4800  335.0520    5.6650 C   0  0  0  0  0  3  0  0  0  0  0  0
    7.8080  336.3540    6.0880 C   0  0  0  0  0  3  0  0  0  0  0  0
    7.7250  336.6630    7.4520 C   0  0  0  0  0  3  0  0  0  0  0  0
    7.3280  335.6800    8.2950 N   0  0  0  0  0  0  0  0  0  0  0  0
    7.1580  335.6800    9.6210 C   0  0  0  0  0  0  0  0  0  0  0  0
    7.3470  336.7160   10.5320 C   0  0  0  0  0  3  0  0  0  0  0  0
  1  2  2  0
  3  2  1  0
  4  3  2  0
  5  4  1  0
  6 11  1  0
  6  5  2  0
  7  6  1  0
  8  9  1  0
  8  7  2  0
  9 10  2  0
 10 11  1  0
 11 12  1  0
 12  4  1  0
 12 13  2  0
 13  1  1  0
M  RAD  7   1   2   2   2   5   2   8   2   9   2  10   2  13   2
M  END
>  <MODEL>  (124) 
2

>  <TORSDO>  (124) 
F 0

>  <SCORE>  (124) 
-6.4

>  <ligand_id>  (124) 
61

>  <original_smiles>  (124) 
c1cnc2cc3ncccn3c2c1

>  <smiles>  (124) 
c1cnc2cc3ncccn3c2c1

$$$$
62:0:0
     RDKit          3D

  9 10  0  0  0  0  0  0  0  0999 V2000
    5.6080  333.5030   26.2700 C   0  0  0  0  0  3  0  0  0  0  0  0
    5.1580  334.5060   25.3880 C   0  0  0  0  0  3  0  0  0  0  0  0
    5.6970  335.7970   25.4800 C   0  0  0  0  0  3  0  0  0  0  0  0
    6.6410  336.0260   26.4270 N   0  0  0  0  0  0  0  0  0  0  0  0
    7.3000  337.1570   26.7120 C   0  0  0  0  0  3  0  0  0  0  0  0
    8.1550  336.8560   27.7680 C   0  0  0  0  0  3  0  0  0  0  0  0
    8.0190  335.5520   28.1220 N   0  0  0  0  0  0  0  0  0  0  0  0
    7.0850  335.0900   27.2760 C   0  0  0  0  0  0  0  0  0  0  0  0
    6.5880  333.7890   27.2350 C   0  0  0  0  0  3  0  0  0  0  0  0
  1  9  2  0
  2  3  2  0
  2  1  1  0
  3  4  1  0
  4  5  1  0
  4  8  1  0
  5  6  2  0
  6  7  1  0
  8  7  2  0
  9  8  1  0
M  RAD  6   1   2   2   2   3   2   5   2   6   2   9   2
M  END
>  <MODEL>  (125) 
1

>  <TORSDO>  (125) 
F 0

>  <SCORE>  (125) 
-4.8

>  <ligand_id>  (125) 
62

>  <original_smiles>  (125) 
c1ccn2ccnc2c1

>  <smiles>  (125) 
c1ccn2ccnc2c1

$$$$
62:0:1
     RDKit          3D

  9 10  0  0  0  0  0  0  0  0999 V2000
    6.5230  334.7280   12.0510 C   0  0  0  0  0  3  0  0  0  0  0  0
    6.9180  336.0800   12.0220 C   0  0  0  0  0  3  0  0  0  0  0  0
    7.3210  336.6550   10.8080 C   0  0  0  0  0  3  0  0  0  0  0  0
    7.3110  335.8720    9.7000 N   0  0  0  0  0  0  0  0  0  0  0  0
    7.6460  336.1810    8.4400 C   0  0  0  0  0  3  0  0  0  0  0  0
    7.4590  335.0230    7.6910 C   0  0  0  0  0  3  0  0  0  0  0  0
    7.0140  334.0180    8.4880 N   0  0  0  0  0  0  0  0  0  0  0  0
    6.9400  334.5860    9.7020 C   0  0  0  0  0  0  0  0  0  0  0  0
    6.5300  333.9580   10.8760 C   0  0  0  0  0  3  0  0  0  0  0  0
  2  1  1  0
  3  2  2  0
  4  8  1  0
  4  3  1  0
  5  4  1  0
  6  5  2  0
  6  7  1  0
  7  8  2  0
  8  9  1  0
  9  1  2  0
M  RAD  6   1   2   2   2   3   2   5   2   6   2   9   2
M  END
>  <MODEL>  (126) 
2

>  <TORSDO>  (126) 
F 0

>  <SCORE>  (126) 
-4.8

>  <ligand_id>  (126) 
62

>  <original_smiles>  (126) 
c1ccn2ccnc2c1

>  <smiles>  (126) 
c1ccn2ccnc2c1

$$$$
63:0:0
     RDKit          3D

  6  6  0  0  0  0  0  0  0  0999 V2000
   -7.5540  352.4550   19.1990 C   0  0  0  0  0  1  0  0  0  0  0  0
   -6.8980  352.3990   20.5320 C   0  0  0  0  0  0  0  0  0  0  0  0
   -6.4250  353.5470   21.1740 C   0  0  0  0  0  3  0  0  0  0  0  0
   -5.8010  352.9270   22.5960 S   0  0  0  0  0  0  0  0  0  0  0  0
   -6.1270  351.3210   22.3730 N   0  0  0  0  0  0  0  0  0  0  0  0
   -6.7270  351.2140   21.1940 N   0  0  0  0  0  0  0  0  0  0  0  0
  1  2  1  0
  2  3  2  0
  2  6  1  0
  3  4  1  0
  5  4  1  0
  6  5  2  0
M  RAD  2   1   2   3   2
M  END
>  <MODEL>  (127) 
1

>  <TORSDO>  (127) 
F 0

>  <SCORE>  (127) 
-4.2

>  <ligand_id>  (127) 
63

>  <original_smiles>  (127) 
Cc1csnn1

>  <smiles>  (127) 
Cc1csnn1

$$$$
63:0:1
     RDKit          3D

  6  6  0  0  0  0  0  0  0  0999 V2000
   -5.2170  351.1050   23.2160 C   0  0  0  0  0  1  0  0  0  0  0  0
   -5.9830  351.9510   22.2640 C   0  0  0  0  0  0  0  0  0  0  0  0
   -5.9370  353.3470   22.3110 C   0  0  0  0  0  3  0  0  0  0  0  0
   -6.9540  353.7790   21.0550 S   0  0  0  0  0  0  0  0  0  0  0  0
   -7.3970  352.2770   20.5190 N   0  0  0  0  0  0  0  0  0  0  0  0
   -6.7740  351.3980   21.2940 N   0  0  0  0  0  0  0  0  0  0  0  0
  2  3  2  0
  2  1  1  0
  4  3  1  0
  5  4  1  0
  5  6  2  0
  6  2  1  0
M  RAD  2   1   2   3   2
M  END
>  <MODEL>  (128) 
2

>  <TORSDO>  (128) 
F 0

>  <SCORE>  (128) 
-3.7

>  <ligand_id>  (128) 
63

>  <original_smiles>  (128) 
Cc1csnn1

>  <smiles>  (128) 
Cc1csnn1

$$$$
64:0:0
     RDKit          3D

 10 11  0  0  0  0  0  0  0  0999 V2000
    7.2070  334.3380    7.3190 C   0  0  0  0  0  3  0  0  0  0  0  0
    7.6550  335.6610    7.2660 C   0  0  0  0  0  3  0  0  0  0  0  0
    7.7050  336.4140    8.3990 N   0  0  0  0  0  0  0  0  0  0  0  0
    7.3260  335.9100    9.6040 C   0  0  0  0  0  0  0  0  0  0  0  0
    7.3860  336.6840   10.7210 N   0  0  0  0  0  0  0  0  0  0  0  0
    7.0120  336.2040   11.9370 C   0  0  0  0  0  3  0  0  0  0  0  0
    6.5530  334.8890   12.0670 C   0  0  0  0  0  2  0  0  0  0  0  0
    6.4820  334.0720   10.9350 C   0  0  0  0  0  3  0  0  0  0  0  0
    6.8690  334.5790    9.6950 C   0  0  0  0  0  0  0  0  0  0  0  0
    6.8120  333.7950    8.5440 C   0  0  0  0  0  2  0  0  0  0  0  0
  1 10  1  0
  2  1  2  0
  2  3  1  0
  3  4  2  0
  4  9  1  0
  4  5  1  0
  5  6  2  0
  6  7  1  0
  8  7  1  0
  9  8  2  0
 10  9  1  0
M  RAD  6   1   2   2   2   6   2   7   3   8   2  10   3
M  END
>  <MODEL>  (129) 
1

>  <TORSDO>  (129) 
F 0

>  <SCORE>  (129) 
-5.6

>  <ligand_id>  (129) 
64

>  <original_smiles>  (129) 
c1cnc2ncccc2c1

>  <smiles>  (129) 
c1cnc2ncccc2c1

$$$$
64:0:1
     RDKit          3D

 10 11  0  0  0  0  0  0  0  0999 V2000
    6.5230  334.7120   12.0220 C   0  0  0  0  0  3  0  0  0  0  0  0
    6.9390  336.0470   12.0040 C   0  0  0  0  0  3  0  0  0  0  0  0
    7.3270  336.6290   10.8350 N   0  0  0  0  0  0  0  0  0  0  0  0
    7.3210  335.9390    9.6630 C   0  0  0  0  0  0  0  0  0  0  0  0
    7.7130  336.5450    8.5100 N   0  0  0  0  0  0  0  0  0  0  0  0
    7.7170  335.8770    7.3250 C   0  0  0  0  0  3  0  0  0  0  0  0
    7.3130  334.5400    7.2660 C   0  0  0  0  0  3  0  0  0  0  0  0
    6.9050  333.8940    8.4360 C   0  0  0  0  0  3  0  0  0  0  0  0
    6.9070  334.5920    9.6440 C   0  0  0  0  0  0  0  0  0  0  0  0
    6.5070  333.9810   10.8310 C   0  0  0  0  0  3  0  0  0  0  0  0
  2  1  2  0
  3  2  1  0
  4  3  2  0
  5  4  1  0
  6  5  2  0
  7  6  1  0
  7  8  2  0
  8  9  1  0
  9  4  1  0
  9 10  2  0
 10  1  1  0
M  RAD  6   1   2   2   2   6   2   7   2   8   2  10   2
M  END
>  <MODEL>  (130) 
2

>  <TORSDO>  (130) 
F 0

>  <SCORE>  (130) 
-5.6

>  <ligand_id>  (130) 
64

>  <original_smiles>  (130) 
c1cnc2ncccc2c1

>  <smiles>  (130) 
c1cnc2ncccc2c1

$$$$
65:0:0
     RDKit          3D

  9 10  0  0  0  0  0  0  0  0999 V2000
   13.0660  354.8900   25.5720 C   0  0  0  0  0  3  0  0  0  0  0  0
   13.4810  354.5060   26.8630 C   0  0  0  0  0  3  0  0  0  0  0  0
   12.9730  353.3830   27.4510 N   0  0  0  0  0  0  0  0  0  0  0  0
   12.0620  352.6490   26.7680 C   0  0  0  0  0  0  0  0  0  0  0  0
   11.4320  351.4950   27.1750 C   0  0  0  0  0  3  0  0  0  0  0  0
   10.6180  351.1980   26.0730 C   0  0  0  0  0  3  0  0  0  0  0  0
   10.7760  352.1300   25.0990 N   0  0  0  0  0  0  0  0  0  0  0  0
   11.6580  352.9990   25.5470 N   0  0  0  0  0  0  0  0  0  0  0  0
   12.1210  354.0980   24.9060 C   0  0  0  0  0  3  0  0  0  0  0  0
  1  2  1  0
  2  3  2  0
  4  5  2  0
  4  3  1  0
  6  5  1  0
  7  8  1  0
  7  6  2  0
  8  4  1  0
  9  8  1  0
  9  1  2  0
M  RAD  5   1   2   2   2   5   2   6   2   9   2
M  END
>  <MODEL>  (131) 
1

>  <TORSDO>  (131) 
F 0

>  <SCORE>  (131) 
-5.1

>  <ligand_id>  (131) 
65

>  <original_smiles>  (131) 
c1cnc2ccnn2c1

>  <smiles>  (131) 
c1cnc2ccnn2c1

$$$$
65:0:1
     RDKit          3D

  9 10  0  0  0  0  0  0  0  0999 V2000
    9.0280  324.8380    8.0140 C   0  0  0  0  0  3  0  0  0  0  0  0
    9.6320  324.1340    6.9530 C   0  0  0  0  0  3  0  0  0  0  0  0
   10.8080  323.4660    7.1430 N   0  0  0  0  0  0  0  0  0  0  0  0
   11.3790  323.4940    8.3710 C   0  0  0  0  0  0  0  0  0  0  0  0
   12.5510  322.8940    8.7710 C   0  0  0  0  0  3  0  0  0  0  0  0
   12.6270  323.2650   10.1200 C   0  0  0  0  0  3  0  0  0  0  0  0
   11.5620  324.0320   10.4660 N   0  0  0  0  0  0  0  0  0  0  0  0
   10.8200  324.1550    9.3850 N   0  0  0  0  0  0  0  0  0  0  0  0
    9.6570  324.8380    9.2660 C   0  0  0  0  0  3  0  0  0  0  0  0
  1  9  2  0
  2  3  2  0
  2  1  1  0
  3  4  1  0
  4  5  2  0
  4  8  1  0
  5  6  1  0
  6  7  2  0
  8  7  1  0
  9  8  1  0
M  RAD  5   1   2   2   2   5   2   6   2   9   2
M  END
>  <MODEL>  (132) 
2

>  <TORSDO>  (132) 
F 0

>  <SCORE>  (132) 
-4.7

>  <ligand_id>  (132) 
65

>  <original_smiles>  (132) 
c1cnc2ccnn2c1

>  <smiles>  (132) 
c1cnc2ccnn2c1

$$$$
66:0:0
     RDKit          3D

 10 11  0  0  0  0  0  0  0  0999 V2000
   10.9260  353.4360   21.6180 C   0  0  0  0  0  1  0  0  0  0  0  0
   11.3380  353.2790   23.0370 C   0  0  0  0  0  0  0  0  0  0  0  0
   12.5350  353.7450   23.5690 C   0  0  0  0  0  3  0  0  0  0  0  0
   12.4900  353.3900   24.8590 N   0  0  0  0  0  0  0  0  0  0  0  0
   13.4030  353.6070   25.8030 N   0  0  0  0  0  0  0  0  0  0  0  0
   13.1640  353.1610   27.0690 C   0  0  0  0  0  3  0  0  0  0  0  0
   11.9640  352.4810   27.3550 C   0  0  0  0  0  3  0  0  0  0  0  0
   11.0200  352.2680   26.3400 C   0  0  0  0  0  3  0  0  0  0  0  0
   11.3350  352.7510   25.0750 C   0  0  0  0  0  0  0  0  0  0  0  0
   10.5750  352.6540   23.9700 N   0  0  0  0  0  0  0  0  0  0  0  0
  1  2  1  0
  2  3  2  0
  2 10  1  0
  3  4  1  0
  4  9  1  0
  4  5  1  0
  5  6  2  0
  6  7  1  0
  8  7  2  0
  9  8  1  0
 10  9  2  0
M  RAD  5   1   2   3   2   6   2   7   2   8   2
M  END
>  <MODEL>  (133) 
1

>  <TORSDO>  (133) 
F 0

>  <SCORE>  (133) 
-5.8

>  <ligand_id>  (133) 
66

>  <original_smiles>  (133) 
Cc1cn2ncccc2n1

>  <smiles>  (133) 
Cc1cn2ncccc2n1

$$$$
66:0:1
     RDKit          3D

 10 11  0  0  0  0  0  0  0  0999 V2000
    9.5360  325.8250   12.7640 C   0  0  0  0  0  1  0  0  0  0  0  0
   10.1650  324.9520   11.7390 C   0  0  0  0  0  0  0  0  0  0  0  0
   10.0000  325.0980   10.3660 C   0  0  0  0  0  3  0  0  0  0  0  0
   10.7330  324.1130    9.8330 N   0  0  0  0  0  0  0  0  0  0  0  0
   10.9060  323.8230    8.5450 N   0  0  0  0  0  0  0  0  0  0  0  0
   11.7000  322.7670    8.2060 C   0  0  0  0  0  3  0  0  0  0  0  0
   12.3200  322.0060    9.2170 C   0  0  0  0  0  3  0  0  0  0  0  0
   12.1190  322.3370   10.5650 C   0  0  0  0  0  3  0  0  0  0  0  0
   11.2960  323.4250   10.8320 C   0  0  0  0  0  0  0  0  0  0  0  0
   10.9760  323.9060   12.0450 N   0  0  0  0  0  0  0  0  0  0  0  0
  2 10  1  0
  2  1  1  0
  3  2  2  0
  4  3  1  0
  4  9  1  0
  5  4  1  0
  6  5  2  0
  6  7  1  0
  7  8  2  0
  8  9  1  0
  9 10  2  0
M  RAD  5   1   2   3   2   6   2   7   2   8   2
M  END
>  <MODEL>  (134) 
2

>  <TORSDO>  (134) 
F 0

>  <SCORE>  (134) 
-5.1

>  <ligand_id>  (134) 
66

>  <original_smiles>  (134) 
Cc1cn2ncccc2n1

>  <smiles>  (134) 
Cc1cn2ncccc2n1

$$$$
67:0:0
     RDKit          3D

  9 10  0  0  0  0  0  0  0  0999 V2000
    8.9250  324.9050    7.6050 C   0  0  0  0  0  3  0  0  0  0  0  0
    9.6180  324.1810    6.6150 C   0  0  0  0  0  3  0  0  0  0  0  0
   10.7400  323.4690    6.9320 N   0  0  0  0  0  0  0  0  0  0  0  0
   11.1950  323.4560    8.2120 C   0  0  0  0  0  0  0  0  0  0  0  0
   12.3270  322.7660    8.6510 C   0  0  0  0  0  3  0  0  0  0  0  0
   12.5570  322.9350   10.0220 C   0  0  0  0  0  3  0  0  0  0  0  0
   11.3410  323.9390   10.6490 S   0  0  0  0  0  0  0  0  0  0  0  0
   10.5370  324.1560    9.1990 C   0  0  0  0  0  0  0  0  0  0  0  0
    9.3910  324.8960    8.9290 C   0  0  0  0  0  3  0  0  0  0  0  0
  1  9  2  0
  2  3  2  0
  2  1  1  0
  3  4  1  0
  4  5  1  0
  4  8  2  0
  5  6  2  0
  6  7  1  0
  8  7  1  0
  9  8  1  0
M  RAD  5   1   2   2   2   5   2   6   2   9   2
M  END
>  <MODEL>  (135) 
1

>  <TORSDO>  (135) 
F 0

>  <SCORE>  (135) 
-4.8

>  <ligand_id>  (135) 
67

>  <original_smiles>  (135) 
c1cnc2ccsc2c1

>  <smiles>  (135) 
c1cnc2ccsc2c1

$$$$
67:0:1
     RDKit          3D

  9 10  0  0  0  0  0  0  0  0999 V2000
   12.2010  322.1550    8.8750 C   0  0  0  0  0  3  0  0  0  0  0  0
   11.5480  323.1400    8.1070 C   0  0  0  0  0  3  0  0  0  0  0  0
   10.8170  324.1220    8.7130 N   0  0  0  0  0  0  0  0  0  0  0  0
   10.7140  324.1530   10.0670 C   0  0  0  0  0  0  0  0  0  0  0  0
    9.9960  325.1050   10.7930 C   0  0  0  0  0  3  0  0  0  0  0  0
   10.0670  324.8880   12.1740 C   0  0  0  0  0  3  0  0  0  0  0  0
   11.0230  323.5140   12.4520 S   0  0  0  0  0  0  0  0  0  0  0  0
   11.3420  323.2010   10.8410 C   0  0  0  0  0  0  0  0  0  0  0  0
   12.0980  322.1810   10.2740 C   0  0  0  0  0  3  0  0  0  0  0  0
  1  9  2  0
  2  3  2  0
  2  1  1  0
  3  4  1  0
  4  5  1  0
  4  8  2  0
  5  6  2  0
  6  7  1  0
  8  7  1  0
  9  8  1  0
M  RAD  5   1   2   2   2   5   2   6   2   9   2
M  END
>  <MODEL>  (136) 
2

>  <TORSDO>  (136) 
F 0

>  <SCORE>  (136) 
-4.8

>  <ligand_id>  (136) 
67

>  <original_smiles>  (136) 
c1cnc2ccsc2c1

>  <smiles>  (136) 
c1cnc2ccsc2c1

$$$$
68:0:0
     RDKit          3D

 12 14  0  0  1  0  0  0  0  0999 V2000
    9.8980  324.2080    6.6520 C   0  0  0  0  0  3  0  0  0  0  0  0
    9.0750  324.8850    7.5790 C   0  0  0  0  0  3  0  0  0  0  0  0
    9.3350  324.7980    8.9170 N   0  0  0  0  0  0  0  0  0  0  0  0
   10.3920  324.0520    9.3160 C   0  0  0  0  0  0  0  0  0  0  0  0
   11.2020  323.3890    8.4220 C   0  0  0  0  0  0  0  0  0  0  0  0
   10.9580  323.4660    7.0900 N   0  0  0  0  0  0  0  0  0  0  0  0
   12.3100  322.6300    9.1130 C   0  0  0  0  0  3  0  0  0  0  0  0
   11.9820  322.9820   10.5390 C   0  0  0  0  0  0  0  0  0  0  0  0
   12.5590  322.6520   11.7620 C   0  0  0  0  0  3  0  0  0  0  0  0
   11.8600  323.2480   12.8270 C   0  0  0  0  0  3  0  0  0  0  0  0
   10.5510  324.1610   12.2160 S   0  0  0  0  0  0  0  0  0  0  0  0
   10.8960  323.7840   10.6300 C   0  0  0  0  0  3  0  0  0  0  0  0
  1  6  2  0
  1  2  1  0
  2  3  2  0
  3  4  1  0
  5  7  1  0
  5  4  2  0
  6  5  1  0
  7  8  2  0
  8 12  1  0
  8  9  1  0
  9 10  2  0
 11 10  1  0
 12  4  1  0
 12 11  1  0
M  RAD  6   1   2   2   2   7   2   9   2  10   2  12   2
M  END
>  <MODEL>  (137) 
1

>  <TORSDO>  (137) 
F 0

>  <SCORE>  (137) 
-5.9

>  <ligand_id>  (137) 
68

>  <original_smiles>  (137) 
c1cnc2c(n1)Cc1ccsc1-2

>  <smiles>  (137) 
c1cnc2c(n1)Cc1ccsc1-2

$$$$
68:0:1
     RDKit          3D

 12 14  0  0  0  0  0  0  0  0999 V2000
    7.0530  333.8410    6.1150 C   0  0  0  0  0  3  0  0  0  0  0  0
    7.4660  335.1910    6.1720 C   0  0  0  0  0  3  0  0  0  0  0  0
    7.5100  335.8430    7.3720 N   0  0  0  0  0  0  0  0  0  0  0  0
    7.1500  335.1620    8.4850 C   0  0  0  0  0  0  0  0  0  0  0  0
    6.7460  333.8460    8.4410 C   0  0  0  0  0  0  0  0  0  0  0  0
    6.6970  333.1840    7.2590 N   0  0  0  0  0  2  0  0  0  0  0  0
    6.3990  333.3130    9.8110 C   0  0  0  0  0  3  0  0  0  0  0  0
    6.6770  334.5490   10.6220 C   0  0  0  0  0  0  0  0  0  0  0  0
    6.5880  334.8430   11.9800 C   0  0  0  0  0  3  0  0  0  0  0  0
    6.9680  336.1710   12.2360 C   0  0  0  0  0  3  0  0  0  0  0  0
    7.4010  336.9380   10.7710 S   0  0  0  0  0  0  0  0  0  0  0  0
    7.0990  335.5800    9.8530 C   0  0  0  0  0  0  0  0  0  0  0  0
  1  2  2  0
  1  6  1  0
  2  3  1  0
  3  4  2  0
  4 12  1  0
  5  4  1  0
  5  7  2  0
  6  5  1  0
  7  8  1  0
  8  9  1  0
  9 10  2  0
 11 10  1  0
 12  8  2  0
 12 11  1  0
M  RAD  6   1   2   2   2   6   2   7   2   9   2  10   2
M  END
>  <MODEL>  (138) 
2

>  <TORSDO>  (138) 
F 0

>  <SCORE>  (138) 
-5.8

>  <ligand_id>  (138) 
68

>  <original_smiles>  (138) 
c1cnc2c(n1)Cc1ccsc1-2

>  <smiles>  (138) 
c1cnc2c(n1)Cc1ccsc1-2

$$$$
69:0:0
     RDKit          3D

 18 20  0  0  0  0  0  0  0  0999 V2000
    8.6430  340.2300   10.6680 C   0  0  0  0  0  3  0  0  0  0  0  0
    8.8670  339.7700    9.3650 C   0  0  0  0  0  3  0  0  0  0  0  0
    8.4970  338.4700    9.0050 C   0  0  0  0  0  3  0  0  0  0  0  0
    7.9030  337.6300    9.9500 C   0  0  0  0  0  0  0  0  0  0  0  0
    7.5360  336.3660    9.6210 N   0  0  0  0  0  0  0  0  0  0  0  0
    6.9550  335.5590   10.5470 C   0  0  0  0  0  0  0  0  0  0  0  0
    6.7500  336.0190   11.8110 N   0  0  0  0  0  0  0  0  0  0  0  0
    7.1020  337.2580   12.1590 N   0  0  0  0  0  0  0  0  0  0  0  0
    7.6790  338.0930   11.2590 C   0  0  0  0  0  0  0  0  0  0  0  0
    8.0490  339.3920   11.6180 C   0  0  0  0  0  3  0  0  0  0  0  0
    6.4710  333.8950   10.1080 S   0  0  0  0  0  0  0  0  0  0  0  0
    7.3850  333.9270    8.5320 C   0  0  0  0  0  2  0  0  0  0  0  0
    6.4630  333.7180    7.3790 C   0  0  0  0  0  0  0  0  0  0  0  0
    6.1370  332.4260    6.9630 C   0  0  0  0  0  3  0  0  0  0  0  0
    5.2650  332.2560    5.8850 C   0  0  0  0  0  3  0  0  0  0  0  0
    4.7410  333.3410    5.2540 N   0  0  0  0  0  0  0  0  0  0  0  0
    5.0460  334.6080    5.6440 C   0  0  0  0  0  3  0  0  0  0  0  0
    5.9150  334.8200    6.7170 C   0  0  0  0  0  3  0  0  0  0  0  0
  1 10  2  0
  2  1  1  0
  3  2  2  0
  3  4  1  0
  4  9  2  0
  5  4  1  0
  5  6  2  0
  6  7  1  0
  7  8  2  0
  9 10  1  0
  9  8  1  0
 11  6  1  0
 12 11  1  0
 13 12  1  0
 14 13  2  0
 15 14  1  0
 16 17  1  0
 16 15  2  0
 17 18  2  0
 18 13  1  0
M  RAD  8   1   2   2   2   3   2  10   2  12   3  14   2  15   2  17   2
M  RAD  1  18   2
M  END
>  <MODEL>  (139) 
1

>  <TORSDO>  (139) 
F 3

>  <SCORE>  (139) 
-7.2

>  <ligand_id>  (139) 
69

>  <original_smiles>  (139) 
c1ccc2nc(SCc3ccncc3)nnc2c1

>  <smiles>  (139) 
c1ccc2nc(SCc3ccncc3)nnc2c1

$$$$
69:0:1
     RDKit          3D

 18 20  0  0  0  0  0  0  0  0999 V2000
    6.4360  334.1350   10.6080 C   0  0  0  0  0  3  0  0  0  0  0  0
    6.4560  334.6850   11.8960 C   0  0  0  0  0  3  0  0  0  0  0  0
    6.9620  335.9720   12.1040 C   0  0  0  0  0  3  0  0  0  0  0  0
    7.4500  336.7090   11.0220 C   0  0  0  0  0  0  0  0  0  0  0  0
    7.9450  337.9590   11.2020 N   0  0  0  0  0  0  0  0  0  0  0  0
    8.4130  338.6680   10.1420 C   0  0  0  0  0  0  0  0  0  0  0  0
    8.3920  338.1190    8.8980 N   0  0  0  0  0  0  0  0  0  0  0  0
    7.9110  336.8910    8.6960 N   0  0  0  0  0  0  0  0  0  0  0  0
    7.4300  336.1560    9.7290 C   0  0  0  0  0  0  0  0  0  0  0  0
    6.9250  334.8700    9.5220 C   0  0  0  0  0  3  0  0  0  0  0  0
    9.0620  340.3170   10.3840 S   0  0  0  0  0  0  0  0  0  0  0  0
    7.4080  341.0730   10.4850 C   0  0  0  0  0  2  0  0  0  0  0  0
    7.1530  341.9540    9.3100 C   0  0  0  0  0  0  0  0  0  0  0  0
    6.4090  341.4840    8.2250 C   0  0  0  0  0  3  0  0  0  0  0  0
    6.1770  342.3310    7.1390 C   0  0  0  0  0  3  0  0  0  0  0  0
    6.6720  343.5980    7.1440 N   0  0  0  0  0  0  0  0  0  0  0  0
    7.3990  344.0740    8.1910 C   0  0  0  0  0  3  0  0  0  0  0  0
    7.6540  343.2580    9.2950 C   0  0  0  0  0  3  0  0  0  0  0  0
  1  2  2  0
  2  3  1  0
  4  5  1  0
  4  3  2  0
  6 11  1  0
  6  5  2  0
  7  6  1  0
  8  7  2  0
  8  9  1  0
  9  4  1  0
 10  9  2  0
 10  1  1  0
 11 12  1  0
 13 12  1  0
 14 13  2  0
 15 16  2  0
 15 14  1  0
 16 17  1  0
 17 18  2  0
 18 13  1  0
M  RAD  8   1   2   2   2   3   2  10   2  12   3  14   2  15   2  17   2
M  RAD  1  18   2
M  END
>  <MODEL>  (140) 
2

>  <TORSDO>  (140) 
F 3

>  <SCORE>  (140) 
-7.1

>  <ligand_id>  (140) 
69

>  <original_smiles>  (140) 
c1ccc2nc(SCc3ccncc3)nnc2c1

>  <smiles>  (140) 
c1ccc2nc(SCc3ccncc3)nnc2c1

$$$$
70:0:0
     RDKit          3D

  9 10  0  0  0  0  0  0  0  0999 V2000
   12.2280  353.8160   23.4680 C   0  0  0  0  0  3  0  0  0  0  0  0
   13.1350  354.5610   24.1710 N   0  0  0  0  0  0  0  0  0  0  0  0
   13.3040  354.3920   25.5140 C   0  0  0  0  0  3  0  0  0  0  0  0
   12.5240  353.4370   26.1480 C   0  0  0  0  0  0  0  0  0  0  0  0
   12.4760  352.9810   27.7550 S   0  0  0  0  0  0  0  0  0  0  0  0
   11.2700  351.8040   27.5550 C   0  0  0  0  0  3  0  0  0  0  0  0
   10.9000  351.7690   26.2060 C   0  0  0  0  0  3  0  0  0  0  0  0
   11.6150  352.6910   25.4370 C   0  0  0  0  0  0  0  0  0  0  0  0
   11.4650  352.8770   24.1020 N   0  0  0  0  0  0  0  0  0  0  0  0
  1  9  2  0
  1  2  1  0
  2  3  2  0
  3  4  1  0
  4  5  1  0
  6  5  1  0
  7  6  2  0
  8  4  2  0
  8  7  1  0
  9  8  1  0
M  RAD  4   1   2   3   2   6   2   7   2
M  END
>  <MODEL>  (141) 
1

>  <TORSDO>  (141) 
F 0

>  <SCORE>  (141) 
-4.7

>  <ligand_id>  (141) 
70

>  <original_smiles>  (141) 
c1ncc2sccc2n1

>  <smiles>  (141) 
c1ncc2sccc2n1

$$$$
70:0:1
     RDKit          3D

  9 10  0  0  0  0  0  0  0  0999 V2000
   -5.8410  352.3980   22.5460 C   0  0  0  0  0  3  0  0  0  0  0  0
   -6.3920  351.4090   21.7780 N   0  0  0  0  0  0  0  0  0  0  0  0
   -6.9720  351.6850   20.5740 C   0  0  0  0  0  3  0  0  0  0  0  0
   -6.9860  353.0060   20.1520 C   0  0  0  0  0  0  0  0  0  0  0  0
   -7.6060  353.6810   18.7550 S   0  0  0  0  0  0  0  0  0  0  0  0
   -7.1630  355.2760   19.1330 C   0  0  0  0  0  3  0  0  0  0  0  0
   -6.5190  355.2760   20.3760 C   0  0  0  0  0  3  0  0  0  0  0  0
   -6.4320  353.9950   20.9280 C   0  0  0  0  0  0  0  0  0  0  0  0
   -5.8600  353.6960   22.1200 N   0  0  0  0  0  0  0  0  0  0  0  0
  2  1  2  0
  3  2  1  0
  4  3  2  0
  4  8  1  0
  5  6  1  0
  5  4  1  0
  6  7  2  0
  7  8  1  0
  8  9  2  0
  9  1  1  0
M  RAD  4   1   2   3   2   6   2   7   2
M  END
>  <MODEL>  (142) 
2

>  <TORSDO>  (142) 
F 0

>  <SCORE>  (142) 
-4.6

>  <ligand_id>  (142) 
70

>  <original_smiles>  (142) 
c1ncc2sccc2n1

>  <smiles>  (142) 
c1ncc2sccc2n1

$$$$
71:0:0
     RDKit          3D

 13 15  0  0  0  0  0  0  0  0999 V2000
    6.4460  332.7840    8.8090 C   0  0  0  0  0  1  0  0  0  0  0  0
    6.8220  334.1400    9.2860 C   0  0  0  0  0  0  0  0  0  0  0  0
    7.5350  335.0180    8.4350 C   0  0  0  0  0  3  0  0  0  0  0  0
    7.8870  336.2680    8.8620 N   0  0  0  0  0  0  0  0  0  0  0  0
    7.5330  336.6440   10.1170 C   0  0  0  0  0  0  0  0  0  0  0  0
    6.8570  335.8330   10.9650 C   0  0  0  0  0  0  0  0  0  0  0  0
    6.4740  334.5510   10.5880 C   0  0  0  0  0  3  0  0  0  0  0  0
    6.6690  336.4490   12.1460 N   0  0  0  0  0  0  0  0  0  0  0  0
    7.2630  337.6630   11.9690 C   0  0  0  0  0  3  0  0  0  0  0  0
    7.7860  337.8100   10.7230 N   0  0  0  0  0  0  0  0  0  0  0  0
    8.5680  338.9340   10.2180 C   0  0  0  0  0  3  0  0  0  0  0  0
    9.9810  338.8790   10.7740 C   0  0  0  0  0  2  0  0  0  0  0  0
    8.9770  339.8390   11.3680 C   0  0  0  0  0  2  0  0  0  0  0  0
  1  2  1  0
  2  7  2  0
  3  4  2  0
  3  2  1  0
  4  5  1  0
  5 10  1  0
  5  6  2  0
  6  8  1  0
  7  6  1  0
  9  8  2  0
 10  9  1  0
 11 10  1  0
 11 12  1  0
 11 13  1  0
 12 13  1  0
M  RAD  7   1   2   3   2   7   2   9   2  11   2  12   3  13   3
M  END
>  <MODEL>  (143) 
1

>  <TORSDO>  (143) 
F 1

>  <SCORE>  (143) 
-5.9

>  <ligand_id>  (143) 
71

>  <original_smiles>  (143) 
Cc1cnc2c(c1)ncn2C1CC1

>  <smiles>  (143) 
Cc1cnc2c(c1)ncn2C1CC1

$$$$
71:0:1
     RDKit          3D

 13 15  0  0  0  0  0  0  0  0999 V2000
    6.5180  334.5490   12.3320 C   0  0  0  0  0  1  0  0  0  0  0  0
    6.7820  334.7670   10.8860 C   0  0  0  0  0  0  0  0  0  0  0  0
    7.2130  336.0350   10.4270 C   0  0  0  0  0  3  0  0  0  0  0  0
    7.4600  336.2480    9.0990 N   0  0  0  0  0  0  0  0  0  0  0  0
    7.2850  335.2150    8.2370 C   0  0  0  0  0  0  0  0  0  0  0  0
    6.8680  333.9880    8.6340 C   0  0  0  0  0  0  0  0  0  0  0  0
    6.5990  333.7130    9.9700 C   0  0  0  0  0  3  0  0  0  0  0  0
    6.7510  333.1710    7.5710 N   0  0  0  0  0  0  0  0  0  0  0  0
    7.1150  333.9620    6.5220 C   0  0  0  0  0  3  0  0  0  0  0  0
    7.4630  335.2170    6.9110 N   0  0  0  0  0  0  0  0  0  0  0  0
    7.8120  336.3450    6.0540 C   0  0  0  0  0  3  0  0  0  0  0  0
    6.5740  336.8640    5.3420 C   0  0  0  0  0  2  0  0  0  0  0  0
    7.5570  335.9890    4.5990 C   0  0  0  0  0  2  0  0  0  0  0  0
  2  1  1  0
  3  2  2  0
  4  3  1  0
  5  6  1  0
  5  4  2  0
  6  7  2  0
  7  2  1  0
  8  6  1  0
  9 10  1  0
  9  8  2  0
 10  5  1  0
 11 10  1  0
 12 11  1  0
 13 12  1  0
 13 11  1  0
M  RAD  7   1   2   3   2   7   2   9   2  11   2  12   3  13   3
M  END
>  <MODEL>  (144) 
2

>  <TORSDO>  (144) 
F 1

>  <SCORE>  (144) 
-5.9

>  <ligand_id>  (144) 
71

>  <original_smiles>  (144) 
Cc1cnc2c(c1)ncn2C1CC1

>  <smiles>  (144) 
Cc1cnc2c(c1)ncn2C1CC1

$$$$
72:0:0
     RDKit          3D

  8  8  0  0  0  0  0  0  0  0999 V2000
   -7.6460  324.5210    3.9540 C   0  0  0  0  0  0  0  0  0  0  0  0
   -7.0820  325.7950    4.0760 C   0  0  0  0  0  3  0  0  0  0  0  0
   -7.8770  326.8900    4.4250 C   0  0  0  0  0  3  0  0  0  0  0  0
   -9.2460  326.7170    4.6540 C   0  0  0  0  0  3  0  0  0  0  0  0
   -9.8180  325.4470    4.5350 C   0  0  0  0  0  3  0  0  0  0  0  0
   -9.0220  324.3510    4.1860 C   0  0  0  0  0  3  0  0  0  0  0  0
   -5.7870  322.9670    4.4500 C   0  0  0  0  0  1  0  0  0  0  0  0
   -6.8240  323.4470    3.6040 O   0  0  0  0  0  0  0  0  0  0  0  0
  1  2  2  0
  1  6  1  0
  2  3  1  0
  3  4  2  0
  5  4  1  0
  6  5  2  0
  8  1  1  0
  8  7  1  0
M  RAD  6   2   2   3   2   4   2   5   2   6   2   7   2
M  END
>  <MODEL>  (145) 
1

>  <TORSDO>  (145) 
F 1

>  <SCORE>  (145) 
-5.3

>  <ligand_id>  (145) 
72

>  <original_smiles>  (145) 
COc1ccccc1

>  <smiles>  (145) 
COc1ccccc1

$$$$
72:0:1
     RDKit          3D

  8  8  0  0  0  0  0  0  0  0999 V2000
   20.2240  334.2500   18.1030 C   0  0  0  0  0  0  0  0  0  0  0  0
   19.6840  333.6950   16.9380 C   0  0  0  0  0  3  0  0  0  0  0  0
   19.5120  332.3110   16.8280 C   0  0  0  0  0  3  0  0  0  0  0  0
   19.8810  331.4740   17.8860 C   0  0  0  0  0  3  0  0  0  0  0  0
   20.4210  332.0210   19.0530 C   0  0  0  0  0  3  0  0  0  0  0  0
   20.5930  333.4040   19.1630 C   0  0  0  0  0  3  0  0  0  0  0  0
   20.7280  336.4340   17.0570 C   0  0  0  0  0  1  0  0  0  0  0  0
   20.3820  335.6360   18.1810 O   0  0  0  0  0  0  0  0  0  0  0  0
  1  8  1  0
  1  6  2  0
  2  1  1  0
  3  2  2  0
  3  4  1  0
  4  5  2  0
  5  6  1  0
  7  8  1  0
M  RAD  6   2   2   3   2   4   2   5   2   6   2   7   2
M  END
>  <MODEL>  (146) 
2

>  <TORSDO>  (146) 
F 1

>  <SCORE>  (146) 
-4.8

>  <ligand_id>  (146) 
72

>  <original_smiles>  (146) 
COc1ccccc1

>  <smiles>  (146) 
COc1ccccc1

$$$$
73:0:0
     RDKit          3D

 16 18  0  0  0  0  0  0  0  0999 V2000
    6.8470  333.4370    7.0350 C   0  0  0  0  0  0  0  0  0  0  0  0
    7.3140  334.4540    6.1980 C   0  0  0  0  0  3  0  0  0  0  0  0
    7.7090  335.6830    6.7330 C   0  0  0  0  0  3  0  0  0  0  0  0
    7.6410  335.9100    8.1140 C   0  0  0  0  0  0  0  0  0  0  0  0
    7.1710  334.8910    8.9540 C   0  0  0  0  0  3  0  0  0  0  0  0
    6.7770  333.6620    8.4200 C   0  0  0  0  0  3  0  0  0  0  0  0
    8.0580  337.2090    8.6720 C   0  0  0  0  0  0  0  0  0  0  0  0
    8.0060  338.4330    7.9870 C   0  0  0  0  0  3  0  0  0  0  0  0
    8.4750  339.3180    8.8720 N   0  0  0  0  0  0  0  0  0  0  0  0
    8.7010  340.6490    8.8950 C   0  0  0  0  0  3  0  0  0  0  0  0
    9.2240  341.0580   10.1360 C   0  0  0  0  0  3  0  0  0  0  0  0
    9.3770  339.6860   11.1590 S   0  0  0  0  0  0  0  0  0  0  0  0
    8.7770  338.6760    9.9740 C   0  0  0  0  0  0  0  0  0  0  0  0
    8.5470  337.3560    9.9380 N   0  0  0  0  0  0  0  0  0  0  0  0
    5.6700  332.1360    5.2910 C   0  0  0  0  0  1  0  0  0  0  0  0
    6.4600  332.2190    6.4700 O   0  0  0  0  0  0  0  0  0  0  0  0
  1  6  2  0
  2  3  2  0
  2  1  1  0
  3  4  1  0
  4  7  1  0
  4  5  2  0
  6  5  1  0
  7 14  1  0
  8  7  2  0
  8  9  1  0
  9 10  1  0
  9 13  1  0
 10 11  2  0
 11 12  1  0
 13 12  1  0
 14 13  2  0
 15 16  1  0
 16  1  1  0
M  RAD  8   2   2   3   2   5   2   6   2   8   2  10   2  11   2  15   2
M  END
>  <MODEL>  (147) 
1

>  <TORSDO>  (147) 
F 2

>  <SCORE>  (147) 
-6.9

>  <ligand_id>  (147) 
73

>  <original_smiles>  (147) 
COc1ccc(-c2cn3ccsc3n2)cc1

>  <smiles>  (147) 
COc1ccc(-c2cn3ccsc3n2)cc1

$$$$
73:0:1
     RDKit          3D

 16 18  0  0  0  0  0  0  0  0999 V2000
   11.5310  323.1140   10.2290 C   0  0  0  0  0  0  0  0  0  0  0  0
   11.8150  322.7980    8.8980 C   0  0  0  0  0  3  0  0  0  0  0  0
   11.2090  323.5090    7.8570 C   0  0  0  0  0  3  0  0  0  0  0  0
   10.3110  324.5470    8.1380 C   0  0  0  0  0  0  0  0  0  0  0  0
   10.0260  324.8650    9.4730 C   0  0  0  0  0  3  0  0  0  0  0  0
   10.6310  324.1540   10.5120 C   0  0  0  0  0  3  0  0  0  0  0  0
    9.6750  325.2940    7.0380 C   0  0  0  0  0  0  0  0  0  0  0  0
   10.3660  325.9910    6.0350 C   0  0  0  0  0  3  0  0  0  0  0  0
    9.3970  326.5020    5.2700 N   0  0  0  0  0  0  0  0  0  0  0  0
    9.3300  327.2650    4.1580 C   0  0  0  0  0  3  0  0  0  0  0  0
    7.9950  327.5050    3.7810 C   0  0  0  0  0  3  0  0  0  0  0  0
    6.9490  326.7250    4.8980 S   0  0  0  0  0  0  0  0  0  0  0  0
    8.2420  326.1410    5.7750 C   0  0  0  0  0  0  0  0  0  0  0  0
    8.3230  325.3840    6.8790 N   0  0  0  0  0  0  0  0  0  0  0  0
   12.8050  323.0030   12.3470 C   0  0  0  0  0  1  0  0  0  0  0  0
   12.1530  322.3840   11.2460 O   0  0  0  0  0  0  0  0  0  0  0  0
  1  6  2  0
  1 16  1  0
  2  1  1  0
  3  4  1  0
  3  2  2  0
  4  5  2  0
  5  6  1  0
  7  4  1  0
  8  7  2  0
  9 13  1  0
  9  8  1  0
 10  9  1  0
 11 10  2  0
 11 12  1  0
 12 13  1  0
 13 14  2  0
 14  7  1  0
 16 15  1  0
M  RAD  8   2   2   3   2   5   2   6   2   8   2  10   2  11   2  15   2
M  END
>  <MODEL>  (148) 
2

>  <TORSDO>  (148) 
F 2

>  <SCORE>  (148) 
-6.8

>  <ligand_id>  (148) 
73

>  <original_smiles>  (148) 
COc1ccc(-c2cn3ccsc3n2)cc1

>  <smiles>  (148) 
COc1ccc(-c2cn3ccsc3n2)cc1

$$$$
74:0:0
     RDKit          3D

 21 21  0  0  0  0  0  0  0  0999 V2000
    9.7540  338.2210   11.5690 C   0  0  0  0  0  1  0  0  0  0  0  0
    8.7310  338.2020   10.4860 C   0  0  0  0  0  0  0  0  0  0  0  0
    9.0680  337.6900    9.2940 C   0  0  0  0  0  3  0  0  0  0  0  0
    8.1380  337.6120    8.1160 C   0  0  0  0  0  2  0  0  0  0  0  0
    7.7050  336.2040    7.8480 C   0  0  0  0  0  0  0  0  0  0  0  0
    7.3510  335.3700    8.9180 C   0  0  0  0  0  3  0  0  0  0  0  0
    6.9370  334.0570    8.6800 C   0  0  0  0  0  0  0  0  0  0  0  0
    6.5700  333.1760    9.8190 C   0  0  0  0  0  1  0  0  0  0  0  0
    6.8690  333.5720    7.3710 C   0  0  0  0  0  3  0  0  0  0  0  0
    7.2110  334.4010    6.3000 C   0  0  0  0  0  3  0  0  0  0  0  0
    7.6250  335.7160    6.5330 C   0  0  0  0  0  0  0  0  0  0  0  0
    7.9480  336.5300    5.4530 O   0  0  0  0  0  0  0  0  0  0  0  0
    7.4510  336.4420    4.6010 H   0  0  0  0  0  0  0  0  0  0  0  0
    7.3570  338.7340   10.7730 C   0  0  0  0  0  2  0  0  0  0  0  0
    7.4190  339.9310   11.6720 C   0  0  0  0  0  3  0  0  0  0  0  0
    7.3830  341.1950   11.2390 C   0  0  0  0  0  0  0  0  0  0  0  0
    7.2440  341.5090    9.7830 C   0  0  0  0  0  1  0  0  0  0  0  0
    7.4630  342.2960   12.2130 C   0  0  0  0  0  0  0  0  0  0  0  0
    8.0960  343.3480   11.9320 O   0  0  0  0  0  0  0  0  0  0  0  0
    6.8430  342.1870   13.4530 O   0  0  0  0  0  0  0  0  0  0  0  0
    6.0100  342.6890   13.6360 H   0  0  0  0  0  0  0  0  0  0  0  0
  2 14  1  0
  2  1  1  0
  3  2  2  0
  4  3  1  0
  5  4  1  0
  5  6  2  0
  7  6  1  0
  7  8  1  0
  9  7  2  0
 10 11  2  0
 10  9  1  0
 11  5  1  0
 12 11  1  0
 13 12  1  0
 14 15  1  0
 16 15  2  0
 16 18  1  0
 17 16  1  0
 18 20  1  0
 19 18  2  0
 20 21  1  0
M  RAD  8   1   2   3   2   4   3   6   2   8   2   9   2  10   2  14   3
M  RAD  2  15   2  17   2
M  END
>  <MODEL>  (149) 
1

>  <TORSDO>  (149) 
F 7

>  <SCORE>  (149) 
-8.2

>  <ligand_id>  (149) 
74

>  <original_smiles>  (149) 
CC(=CCc1cc(C)ccc1O)CC=C(C)C(=O)O

>  <smiles>  (149) 
CC(=CCc1cc(C)ccc1O)CC=C(C)C(=O)O

$$$$
74:0:1
     RDKit          3D

 21 21  0  0  0  0  0  0  0  0999 V2000
   10.1560  338.7860   11.3220 C   0  0  0  0  0  1  0  0  0  0  0  0
    9.1660  338.8070   10.2100 C   0  0  0  0  0  0  0  0  0  0  0  0
    9.2370  337.8560    9.2680 C   0  0  0  0  0  3  0  0  0  0  0  0
    8.3060  337.7620    8.0920 C   0  0  0  0  0  2  0  0  0  0  0  0
    7.8040  336.3650    7.8980 C   0  0  0  0  0  0  0  0  0  0  0  0
    7.4390  335.5960    9.0130 C   0  0  0  0  0  3  0  0  0  0  0  0
    6.9600  334.2950    8.8440 C   0  0  0  0  0  0  0  0  0  0  0  0
    6.5820  333.4830   10.0300 C   0  0  0  0  0  1  0  0  0  0  0  0
    6.8390  333.7560    7.5610 C   0  0  0  0  0  3  0  0  0  0  0  0
    7.1910  334.5200    6.4450 C   0  0  0  0  0  3  0  0  0  0  0  0
    7.6700  335.8240    6.6080 C   0  0  0  0  0  0  0  0  0  0  0  0
    8.0030  336.5730    5.4860 O   0  0  0  0  0  0  0  0  0  0  0  0
    8.7660  337.2030    5.5210 H   0  0  0  0  0  0  0  0  0  0  0  0
    8.1120  339.8760   10.1940 C   0  0  0  0  0  2  0  0  0  0  0  0
    8.7190  341.2310    9.9910 C   0  0  0  0  0  3  0  0  0  0  0  0
    8.5130  341.9880    8.9090 C   0  0  0  0  0  0  0  0  0  0  0  0
    7.6100  341.5330    7.8070 C   0  0  0  0  0  1  0  0  0  0  0  0
    9.1720  343.3010    8.8090 C   0  0  0  0  0  0  0  0  0  0  0  0
    8.7930  344.1380    7.9480 O   0  0  0  0  0  0  0  0  0  0  0  0
   10.2210  343.6300    9.6620 O   0  0  0  0  0  0  0  0  0  0  0  0
   10.1730  344.4540   10.2090 H   0  0  0  0  0  0  0  0  0  0  0  0
  2  1  1  0
  3  2  2  0
  4  3  1  0
  5  4  1  0
  5  6  2  0
  7  6  1  0
  7  8  1  0
  9  7  2  0
 10 11  2  0
 10  9  1  0
 11  5  1  0
 12 13  1  0
 12 11  1  0
 14  2  1  0
 15 14  1  0
 16 15  2  0
 17 16  1  0
 18 16  1  0
 18 20  1  0
 19 18  2  0
 20 21  1  0
M  RAD  8   1   2   3   2   4   3   6   2   8   2   9   2  10   2  14   3
M  RAD  2  15   2  17   2
M  END
>  <MODEL>  (150) 
2

>  <TORSDO>  (150) 
F 7

>  <SCORE>  (150) 
-8.1

>  <ligand_id>  (150) 
74

>  <original_smiles>  (150) 
CC(=CCc1cc(C)ccc1O)CC=C(C)C(=O)O

>  <smiles>  (150) 
CC(=CCc1cc(C)ccc1O)CC=C(C)C(=O)O

$$$$
75:0:0
     RDKit          3D

 11 12  0  0  0  0  0  0  0  0999 V2000
   13.0240  321.1610    8.7290 F   0  0  0  0  0  0  0  0  0  0  0  0
   12.2650  322.1670    9.2260 C   0  0  0  0  0  0  0  0  0  0  0  0
   11.6090  323.0420    8.3520 C   0  0  0  0  0  3  0  0  0  0  0  0
   10.8220  324.0830    8.8580 C   0  0  0  0  0  3  0  0  0  0  0  0
   10.6940  324.2480   10.2390 C   0  0  0  0  0  0  0  0  0  0  0  0
    9.9350  325.2530   10.7480 N   0  0  0  0  0  0  0  0  0  0  0  0
    9.8050  325.4210   12.0920 C   0  0  0  0  0  3  0  0  0  0  0  0
   10.4610  324.5470   12.9640 C   0  0  0  0  0  3  0  0  0  0  0  0
   11.2220  323.5380   12.4600 N   0  0  0  0  0  0  0  0  0  0  0  0
   11.3560  323.3660   11.1190 C   0  0  0  0  0  0  0  0  0  0  0  0
   12.1400  322.3290   10.6100 C   0  0  0  0  0  3  0  0  0  0  0  0
  1  2  1  0
  2 11  2  0
  3  4  2  0
  3  2  1  0
  4  5  1  0
  5  6  1  0
  5 10  2  0
  6  7  2  0
  7  8  1  0
  9  8  2  0
 10  9  1  0
 11 10  1  0
M  RAD  5   3   2   4   2   7   2   8   2  11   2
M  END
>  <MODEL>  (151) 
1

>  <TORSDO>  (151) 
F 0

>  <SCORE>  (151) 
-5.8

>  <ligand_id>  (151) 
75

>  <original_smiles>  (151) 
Fc1ccc2nccnc2c1

>  <smiles>  (151) 
Fc1ccc2nccnc2c1

$$$$
75:0:1
     RDKit          3D

 11 12  0  0  0  0  0  0  0  0999 V2000
    6.3240  334.4220   12.9390 F   0  0  0  0  0  0  0  0  0  0  0  0
    6.6610  334.8610   11.7030 C   0  0  0  0  0  0  0  0  0  0  0  0
    6.5480  334.0020   10.6030 C   0  0  0  0  0  3  0  0  0  0  0  0
    6.8940  334.4500    9.3230 C   0  0  0  0  0  3  0  0  0  0  0  0
    7.3550  335.7560    9.1450 C   0  0  0  0  0  0  0  0  0  0  0  0
    7.6960  336.2070    7.9090 N   0  0  0  0  0  0  0  0  0  0  0  0
    8.1460  337.4780    7.7280 C   0  0  0  0  0  3  0  0  0  0  0  0
    8.2600  338.3350    8.8260 C   0  0  0  0  0  3  0  0  0  0  0  0
    7.9200  337.8890   10.0650 N   0  0  0  0  0  0  0  0  0  0  0  0
    7.4700  336.6210   10.2530 C   0  0  0  0  0  0  0  0  0  0  0  0
    7.1230  336.1700   11.5290 C   0  0  0  0  0  3  0  0  0  0  0  0
  2  1  1  0
  3  2  2  0
  4  3  1  0
  5  4  2  0
  5 10  1  0
  6  5  1  0
  7  6  2  0
  7  8  1  0
  8  9  2  0
  9 10  1  0
 10 11  2  0
 11  2  1  0
M  RAD  5   3   2   4   2   7   2   8   2  11   2
M  END
>  <MODEL>  (152) 
2

>  <TORSDO>  (152) 
F 0

>  <SCORE>  (152) 
-5.7

>  <ligand_id>  (152) 
75

>  <original_smiles>  (152) 
Fc1ccc2nccnc2c1

>  <smiles>  (152) 
Fc1ccc2nccnc2c1

$$$$
76:0:0
     RDKit          3D

  9 10  0  0  0  0  0  0  0  0999 V2000
    8.9250  324.9050    7.6050 C   0  0  0  0  0  3  0  0  0  0  0  0
    9.6180  324.1810    6.6150 C   0  0  0  0  0  3  0  0  0  0  0  0
   10.7400  323.4690    6.9320 N   0  0  0  0  0  0  0  0  0  0  0  0
   11.1950  323.4560    8.2120 C   0  0  0  0  0  0  0  0  0  0  0  0
   12.3270  322.7660    8.6510 C   0  0  0  0  0  3  0  0  0  0  0  0
   12.5570  322.9350   10.0220 C   0  0  0  0  0  3  0  0  0  0  0  0
   11.3410  323.9390   10.6490 S   0  0  0  0  0  0  0  0  0  0  0  0
   10.5370  324.1560    9.1990 C   0  0  0  0  0  0  0  0  0  0  0  0
    9.3910  324.8960    8.9290 C   0  0  0  0  0  3  0  0  0  0  0  0
  1  9  2  0
  2  3  2  0
  2  1  1  0
  3  4  1  0
  4  5  1  0
  4  8  2  0
  5  6  2  0
  6  7  1  0
  8  7  1  0
  9  8  1  0
M  RAD  5   1   2   2   2   5   2   6   2   9   2
M  END
>  <MODEL>  (153) 
1

>  <TORSDO>  (153) 
F 0

>  <SCORE>  (153) 
-4.8

>  <ligand_id>  (153) 
76

>  <original_smiles>  (153) 
c1cnc2ccsc2c1

>  <smiles>  (153) 
c1cnc2ccsc2c1

$$$$
76:0:1
     RDKit          3D

  9 10  0  0  0  0  0  0  0  0999 V2000
   12.2010  322.1550    8.8750 C   0  0  0  0  0  3  0  0  0  0  0  0
   11.5480  323.1400    8.1070 C   0  0  0  0  0  3  0  0  0  0  0  0
   10.8170  324.1220    8.7130 N   0  0  0  0  0  0  0  0  0  0  0  0
   10.7140  324.1530   10.0670 C   0  0  0  0  0  0  0  0  0  0  0  0
    9.9960  325.1050   10.7930 C   0  0  0  0  0  3  0  0  0  0  0  0
   10.0670  324.8880   12.1740 C   0  0  0  0  0  3  0  0  0  0  0  0
   11.0230  323.5140   12.4520 S   0  0  0  0  0  0  0  0  0  0  0  0
   11.3420  323.2010   10.8410 C   0  0  0  0  0  0  0  0  0  0  0  0
   12.0980  322.1810   10.2740 C   0  0  0  0  0  3  0  0  0  0  0  0
  1  9  2  0
  2  3  2  0
  2  1  1  0
  3  4  1  0
  4  5  1  0
  4  8  2  0
  5  6  2  0
  6  7  1  0
  8  7  1  0
  9  8  1  0
M  RAD  5   1   2   2   2   5   2   6   2   9   2
M  END
>  <MODEL>  (154) 
2

>  <TORSDO>  (154) 
F 0

>  <SCORE>  (154) 
-4.8

>  <ligand_id>  (154) 
76

>  <original_smiles>  (154) 
c1cnc2ccsc2c1

>  <smiles>  (154) 
c1cnc2ccsc2c1

$$$$
77:0:0
     RDKit          3D

  9 10  0  0  0  0  0  0  0  0999 V2000
   12.0550  353.7390   22.9430 C   0  0  0  0  0  3  0  0  0  0  0  0
   10.9110  352.9680   23.2350 C   0  0  0  0  0  3  0  0  0  0  0  0
   10.6920  352.5070   24.5010 N   0  0  0  0  0  0  0  0  0  0  0  0
   11.5910  352.7980   25.4730 C   0  0  0  0  0  0  0  0  0  0  0  0
   11.5440  352.3500   27.0840 S   0  0  0  0  0  0  0  0  0  0  0  0
   13.0050  353.1460   27.4310 C   0  0  0  0  0  3  0  0  0  0  0  0
   13.5150  353.7440   26.3220 N   0  0  0  0  0  0  0  0  0  0  0  0
   12.7220  353.5460   25.2390 C   0  0  0  0  0  0  0  0  0  0  0  0
   12.9790  354.0340   23.9590 C   0  0  0  0  0  3  0  0  0  0  0  0
  1  2  2  0
  1  9  1  0
  2  3  1  0
  3  4  2  0
  4  5  1  0
  5  6  1  0
  7  6  2  0
  8  4  1  0
  8  7  1  0
  9  8  2  0
M  RAD  4   1   2   2   2   6   2   9   2
M  END
>  <MODEL>  (155) 
1

>  <TORSDO>  (155) 
F 0

>  <SCORE>  (155) 
-5.3

>  <ligand_id>  (155) 
77

>  <original_smiles>  (155) 
c1cnc2scnc2c1

>  <smiles>  (155) 
c1cnc2scnc2c1

$$$$
77:0:1
     RDKit          3D

  9 10  0  0  0  0  0  0  0  0999 V2000
    8.9770  324.8550    7.8260 C   0  0  0  0  0  3  0  0  0  0  0  0
    9.6220  324.1170    6.8110 C   0  0  0  0  0  3  0  0  0  0  0  0
   10.7730  323.4350    7.0770 N   0  0  0  0  0  0  0  0  0  0  0  0
   11.2900  323.4760    8.3290 C   0  0  0  0  0  0  0  0  0  0  0  0
   12.6770  322.7310    8.8950 S   0  0  0  0  0  0  0  0  0  0  0  0
   12.4680  323.3510   10.4630 C   0  0  0  0  0  3  0  0  0  0  0  0
   11.3480  324.1170   10.5430 N   0  0  0  0  0  0  0  0  0  0  0  0
   10.6990  324.1820    9.3530 C   0  0  0  0  0  0  0  0  0  0  0  0
    9.5230  324.8900    9.1190 C   0  0  0  0  0  3  0  0  0  0  0  0
  1  9  2  0
  2  3  2  0
  2  1  1  0
  3  4  1  0
  4  5  1  0
  4  8  2  0
  5  6  1  0
  6  7  2  0
  8  7  1  0
  9  8  1  0
M  RAD  4   1   2   2   2   6   2   9   2
M  END
>  <MODEL>  (156) 
2

>  <TORSDO>  (156) 
F 0

>  <SCORE>  (156) 
-4.7

>  <ligand_id>  (156) 
77

>  <original_smiles>  (156) 
c1cnc2scnc2c1

>  <smiles>  (156) 
c1cnc2scnc2c1

$$$$
78:0:0
     RDKit          3D

  8  8  0  0  0  0  0  0  0  0999 V2000
   -7.6460  324.5210    3.9540 C   0  0  0  0  0  0  0  0  0  0  0  0
   -7.0820  325.7950    4.0760 C   0  0  0  0  0  3  0  0  0  0  0  0
   -7.8770  326.8900    4.4250 C   0  0  0  0  0  3  0  0  0  0  0  0
   -9.2460  326.7170    4.6540 C   0  0  0  0  0  3  0  0  0  0  0  0
   -9.8180  325.4470    4.5350 C   0  0  0  0  0  3  0  0  0  0  0  0
   -9.0220  324.3510    4.1860 C   0  0  0  0  0  3  0  0  0  0  0  0
   -5.7870  322.9670    4.4500 C   0  0  0  0  0  1  0  0  0  0  0  0
   -6.8240  323.4470    3.6040 O   0  0  0  0  0  0  0  0  0  0  0  0
  1  2  2  0
  1  6  1  0
  2  3  1  0
  3  4  2  0
  5  4  1  0
  6  5  2  0
  8  1  1  0
  8  7  1  0
M  RAD  6   2   2   3   2   4   2   5   2   6   2   7   2
M  END
>  <MODEL>  (157) 
1

>  <TORSDO>  (157) 
F 1

>  <SCORE>  (157) 
-5.3

>  <ligand_id>  (157) 
78

>  <original_smiles>  (157) 
COc1ccccc1

>  <smiles>  (157) 
COc1ccccc1

$$$$
78:0:1
     RDKit          3D

  8  8  0  0  0  0  0  0  0  0999 V2000
   20.2240  334.2500   18.1030 C   0  0  0  0  0  0  0  0  0  0  0  0
   19.6840  333.6950   16.9380 C   0  0  0  0  0  3  0  0  0  0  0  0
   19.5120  332.3110   16.8280 C   0  0  0  0  0  3  0  0  0  0  0  0
   19.8810  331.4740   17.8860 C   0  0  0  0  0  3  0  0  0  0  0  0
   20.4210  332.0210   19.0530 C   0  0  0  0  0  3  0  0  0  0  0  0
   20.5930  333.4040   19.1630 C   0  0  0  0  0  3  0  0  0  0  0  0
   20.7280  336.4340   17.0570 C   0  0  0  0  0  1  0  0  0  0  0  0
   20.3820  335.6360   18.1810 O   0  0  0  0  0  0  0  0  0  0  0  0
  1  8  1  0
  1  6  2  0
  2  1  1  0
  3  2  2  0
  3  4  1  0
  4  5  2  0
  5  6  1  0
  7  8  1  0
M  RAD  6   2   2   3   2   4   2   5   2   6   2   7   2
M  END
>  <MODEL>  (158) 
2

>  <TORSDO>  (158) 
F 1

>  <SCORE>  (158) 
-4.8

>  <ligand_id>  (158) 
78

>  <original_smiles>  (158) 
COc1ccccc1

>  <smiles>  (158) 
COc1ccccc1

$$$$
79:0:0
     RDKit          3D

 11 12  0  0  0  0  0  0  0  0999 V2000
    6.1200  331.9430    9.0450 F   0  0  0  0  0  0  0  0  0  0  0  0
    6.5290  333.2200    9.2340 C   0  0  0  0  0  0  0  0  0  0  0  0
    7.0390  333.9580    8.1590 C   0  0  0  0  0  3  0  0  0  0  0  0
    7.4630  335.2770    8.3490 C   0  0  0  0  0  3  0  0  0  0  0  0
    7.3790  335.8610    9.6150 C   0  0  0  0  0  0  0  0  0  0  0  0
    7.7890  337.1430    9.8090 N   0  0  0  0  0  0  0  0  0  0  0  0
    7.7170  337.7360   11.0320 C   0  0  0  0  0  3  0  0  0  0  0  0
    7.2140  337.0300   12.1290 C   0  0  0  0  0  3  0  0  0  0  0  0
    6.7860  335.7120   11.9590 C   0  0  0  0  0  3  0  0  0  0  0  0
    6.8640  335.1160   10.6990 C   0  0  0  0  0  0  0  0  0  0  0  0
    6.4420  333.7990   10.5040 C   0  0  0  0  0  3  0  0  0  0  0  0
  1  2  1  0
  2 11  2  0
  3  4  2  0
  3  2  1  0
  4  5  1  0
  5  6  1  0
  5 10  2  0
  6  7  2  0
  7  8  1  0
  9  8  2  0
 10  9  1  0
 11 10  1  0
M  RAD  6   3   2   4   2   7   2   8   2   9   2  11   2
M  END
>  <MODEL>  (159) 
1

>  <TORSDO>  (159) 
F 0

>  <SCORE>  (159) 
-6.6

>  <ligand_id>  (159) 
79

>  <original_smiles>  (159) 
Fc1ccc2ncccc2c1

>  <smiles>  (159) 
Fc1ccc2ncccc2c1

$$$$
79:0:1
     RDKit          3D

 11 12  0  0  0  0  0  0  0  0999 V2000
    6.2620  334.3430   12.9130 F   0  0  0  0  0  0  0  0  0  0  0  0
    6.6740  335.0340   11.8240 C   0  0  0  0  0  0  0  0  0  0  0  0
    7.1230  336.3530   11.9620 C   0  0  0  0  0  3  0  0  0  0  0  0
    7.5500  337.0720   10.8410 C   0  0  0  0  0  3  0  0  0  0  0  0
    7.5280  336.4740    9.5790 C   0  0  0  0  0  0  0  0  0  0  0  0
    7.9420  337.1650    8.4840 N   0  0  0  0  0  0  0  0  0  0  0  0
    7.9310  336.6050    7.2430 C   0  0  0  0  0  3  0  0  0  0  0  0
    7.4890  335.2910    7.0670 C   0  0  0  0  0  3  0  0  0  0  0  0
    7.0590  334.5570    8.1740 C   0  0  0  0  0  3  0  0  0  0  0  0
    7.0760  335.1430    9.4410 C   0  0  0  0  0  0  0  0  0  0  0  0
    6.6500  334.4290   10.5630 C   0  0  0  0  0  3  0  0  0  0  0  0
  2  3  2  0
  2  1  1  0
  4  3  1  0
  5  4  2  0
  6  5  1  0
  7  6  2  0
  8  7  1  0
  8  9  2  0
  9 10  1  0
 10  5  1  0
 10 11  2  0
 11  2  1  0
M  RAD  6   3   2   4   2   7   2   8   2   9   2  11   2
M  END
>  <MODEL>  (160) 
2

>  <TORSDO>  (160) 
F 0

>  <SCORE>  (160) 
-6.5

>  <ligand_id>  (160) 
79

>  <original_smiles>  (160) 
Fc1ccc2ncccc2c1

>  <smiles>  (160) 
Fc1ccc2ncccc2c1

$$$$
80:0:0
     RDKit          3D

  6  6  0  0  0  0  0  0  0  0999 V2000
   -8.0030  326.9500    4.5190 C   0  0  0  0  0  3  0  0  0  0  0  0
   -7.0030  326.0750    4.0870 C   0  0  0  0  0  3  0  0  0  0  0  0
   -7.3250  324.7370    3.8510 C   0  0  0  0  0  3  0  0  0  0  0  0
   -8.5990  324.2990    4.0410 N   0  0  0  0  0  0  0  0  0  0  0  0
   -9.5860  325.1350    4.4600 C   0  0  0  0  0  3  0  0  0  0  0  0
   -9.3040  326.4820    4.7080 C   0  0  0  0  0  3  0  0  0  0  0  0
  1  6  2  0
  2  1  1  0
  3  4  1  0
  3  2  2  0
  4  5  2  0
  5  6  1  0
M  RAD  5   1   2   2   2   3   2   5   2   6   2
M  END
>  <MODEL>  (161) 
1

>  <TORSDO>  (161) 
F 0

>  <SCORE>  (161) 
-4.4

>  <ligand_id>  (161) 
80

>  <original_smiles>  (161) 
c1ccncc1

>  <smiles>  (161) 
c1ccncc1

$$$$
80:0:1
     RDKit          3D

  6  6  0  0  0  0  0  0  0  0999 V2000
   19.7270  333.9650   17.2040 C   0  0  0  0  0  3  0  0  0  0  0  0
   20.2380  334.2250   18.4770 C   0  0  0  0  0  3  0  0  0  0  0  0
   20.5560  333.1530   19.3150 C   0  0  0  0  0  3  0  0  0  0  0  0
   20.3670  331.8750   18.8880 N   0  0  0  0  0  0  0  0  0  0  0  0
   19.8710  331.6030   17.6520 C   0  0  0  0  0  3  0  0  0  0  0  0
   19.5400  332.6470   16.7840 C   0  0  0  0  0  3  0  0  0  0  0  0
  1  2  2  0
  2  3  1  0
  4  3  2  0
  5  4  1  0
  6  1  1  0
  6  5  2  0
M  RAD  5   1   2   2   2   3   2   5   2   6   2
M  END
>  <MODEL>  (162) 
2

>  <TORSDO>  (162) 
F 0

>  <SCORE>  (162) 
-3.8

>  <ligand_id>  (162) 
80

>  <original_smiles>  (162) 
c1ccncc1

>  <smiles>  (162) 
c1ccncc1

$$$$
81:0:0
     RDKit          3D

  9 10  0  0  0  0  0  0  0  0999 V2000
    8.9250  324.9050    7.6050 C   0  0  0  0  0  3  0  0  0  0  0  0
    9.6180  324.1810    6.6150 C   0  0  0  0  0  3  0  0  0  0  0  0
   10.7400  323.4690    6.9320 N   0  0  0  0  0  0  0  0  0  0  0  0
   11.1950  323.4560    8.2120 C   0  0  0  0  0  0  0  0  0  0  0  0
   12.3270  322.7660    8.6510 C   0  0  0  0  0  3  0  0  0  0  0  0
   12.5570  322.9350   10.0220 C   0  0  0  0  0  3  0  0  0  0  0  0
   11.3410  323.9390   10.6490 S   0  0  0  0  0  0  0  0  0  0  0  0
   10.5370  324.1560    9.1990 C   0  0  0  0  0  0  0  0  0  0  0  0
    9.3910  324.8960    8.9290 C   0  0  0  0  0  3  0  0  0  0  0  0
  1  9  2  0
  2  3  2  0
  2  1  1  0
  3  4  1  0
  4  5  1  0
  4  8  2  0
  5  6  2  0
  6  7  1  0
  8  7  1  0
  9  8  1  0
M  RAD  5   1   2   2   2   5   2   6   2   9   2
M  END
>  <MODEL>  (163) 
1

>  <TORSDO>  (163) 
F 0

>  <SCORE>  (163) 
-4.8

>  <ligand_id>  (163) 
81

>  <original_smiles>  (163) 
c1cnc2ccsc2c1

>  <smiles>  (163) 
c1cnc2ccsc2c1

$$$$
81:0:1
     RDKit          3D

  9 10  0  0  0  0  0  0  0  0999 V2000
   12.2010  322.1550    8.8750 C   0  0  0  0  0  3  0  0  0  0  0  0
   11.5480  323.1400    8.1070 C   0  0  0  0  0  3  0  0  0  0  0  0
   10.8170  324.1220    8.7130 N   0  0  0  0  0  0  0  0  0  0  0  0
   10.7140  324.1530   10.0670 C   0  0  0  0  0  0  0  0  0  0  0  0
    9.9960  325.1050   10.7930 C   0  0  0  0  0  3  0  0  0  0  0  0
   10.0670  324.8880   12.1740 C   0  0  0  0  0  3  0  0  0  0  0  0
   11.0230  323.5140   12.4520 S   0  0  0  0  0  0  0  0  0  0  0  0
   11.3420  323.2010   10.8410 C   0  0  0  0  0  0  0  0  0  0  0  0
   12.0980  322.1810   10.2740 C   0  0  0  0  0  3  0  0  0  0  0  0
  1  9  2  0
  2  3  2  0
  2  1  1  0
  3  4  1  0
  4  5  1  0
  4  8  2  0
  5  6  2  0
  6  7  1  0
  8  7  1  0
  9  8  1  0
M  RAD  5   1   2   2   2   5   2   6   2   9   2
M  END
>  <MODEL>  (164) 
2

>  <TORSDO>  (164) 
F 0

>  <SCORE>  (164) 
-4.8

>  <ligand_id>  (164) 
81

>  <original_smiles>  (164) 
c1cnc2ccsc2c1

>  <smiles>  (164) 
c1cnc2ccsc2c1

$$$$
82:0:0
     RDKit          3D

  9 10  0  0  0  0  0  0  0  0999 V2000
    6.5250  334.7030   12.0350 C   0  0  0  0  0  3  0  0  0  0  0  0
    6.9190  336.0590   12.0730 C   0  0  0  0  0  3  0  0  0  0  0  0
    7.3300  336.7170   10.8980 C   0  0  0  0  0  3  0  0  0  0  0  0
    7.3300  335.9790    9.7170 C   0  0  0  0  0  0  0  0  0  0  0  0
    7.6700  336.3810    8.5230 O   0  0  0  0  0  0  0  0  0  0  0  0
    7.5220  335.3620    7.6920 C   0  0  0  0  0  3  0  0  0  0  0  0
    7.0620  334.2340    8.3790 C   0  0  0  0  0  3  0  0  0  0  0  0
    6.9500  334.6700    9.6800 C   0  0  0  0  0  0  0  0  0  0  0  0
    6.5370  333.9900   10.8240 C   0  0  0  0  0  3  0  0  0  0  0  0
  1  2  2  0
  3  2  1  0
  4  3  2  0
  5  4  1  0
  6  7  2  0
  6  5  1  0
  7  8  1  0
  8  4  1  0
  8  9  2  0
  9  1  1  0
M  RAD  6   1   2   2   2   3   2   6   2   7   2   9   2
M  END
>  <MODEL>  (165) 
1

>  <TORSDO>  (165) 
F 0

>  <SCORE>  (165) 
-5.6

>  <ligand_id>  (165) 
82

>  <original_smiles>  (165) 
c1ccc2occc2c1

>  <smiles>  (165) 
c1ccc2occc2c1

$$$$
82:0:1
     RDKit          3D

  9 10  0  0  0  0  0  0  0  0999 V2000
    7.4710  335.1890    6.0440 C   0  0  0  0  0  3  0  0  0  0  0  0
    7.3200  334.3030    7.1340 C   0  0  0  0  0  3  0  0  0  0  0  0
    7.4880  334.7580    8.4540 C   0  0  0  0  0  3  0  0  0  0  0  0
    7.8050  336.1030    8.6330 C   0  0  0  0  0  0  0  0  0  0  0  0
    8.0040  336.7360    9.7570 O   0  0  0  0  0  0  0  0  0  0  0  0
    8.2800  337.9980    9.4710 C   0  0  0  0  0  3  0  0  0  0  0  0
    8.2600  338.2010    8.0880 C   0  0  0  0  0  3  0  0  0  0  0  0
    7.9500  336.9590    7.5810 C   0  0  0  0  0  0  0  0  0  0  0  0
    7.7900  336.5410    6.2620 C   0  0  0  0  0  3  0  0  0  0  0  0
  1  9  2  0
  1  2  1  0
  2  3  2  0
  3  4  1  0
  4  5  1  0
  6  5  1  0
  7  6  2  0
  8  7  1  0
  8  4  2  0
  9  8  1  0
M  RAD  6   1   2   2   2   3   2   6   2   7   2   9   2
M  END
>  <MODEL>  (166) 
2

>  <TORSDO>  (166) 
F 0

>  <SCORE>  (166) 
-5.5

>  <ligand_id>  (166) 
82

>  <original_smiles>  (166) 
c1ccc2occc2c1

>  <smiles>  (166) 
c1ccc2occc2c1

$$$$
83:0:0
     RDKit          3D

 10 11  0  0  0  0  0  0  0  0999 V2000
    6.9400  336.0590   12.0280 C   0  0  0  0  0  3  0  0  0  0  0  0
    6.5190  334.7250   12.0690 C   0  0  0  0  0  3  0  0  0  0  0  0
    6.4860  333.9610   10.8980 C   0  0  0  0  0  3  0  0  0  0  0  0
    6.8780  334.5320    9.6840 C   0  0  0  0  0  0  0  0  0  0  0  0
    6.8550  333.8050    8.5360 N   0  0  0  0  0  0  0  0  0  0  0  0
    7.2350  334.3550    7.3520 C   0  0  0  0  0  3  0  0  0  0  0  0
    7.6560  335.6870    7.3110 C   0  0  0  0  0  3  0  0  0  0  0  0
    7.6820  336.4200    8.4560 N   0  0  0  0  0  0  0  0  0  0  0  0
    7.3040  335.8770    9.6420 C   0  0  0  0  0  0  0  0  0  0  0  0
    7.3330  336.6360   10.8150 C   0  0  0  0  0  3  0  0  0  0  0  0
  1  2  2  0
  3  2  1  0
  4  3  2  0
  5  4  1  0
  6  5  2  0
  7  6  1  0
  7  8  2  0
  8  9  1  0
  9  4  1  0
  9 10  2  0
 10  1  1  0
M  RAD  6   1   2   2   2   3   2   6   2   7   2  10   2
M  END
>  <MODEL>  (167) 
1

>  <TORSDO>  (167) 
F 0

>  <SCORE>  (167) 
-5.4

>  <ligand_id>  (167) 
83

>  <original_smiles>  (167) 
c1ccc2nccnc2c1

>  <smiles>  (167) 
c1ccc2nccnc2c1

$$$$
83:0:1
     RDKit          3D

 10 11  0  0  0  0  0  0  0  0999 V2000
   12.1950  322.1280    8.9210 C   0  0  0  0  0  3  0  0  0  0  0  0
   11.5520  323.0680    8.1080 C   0  0  0  0  0  3  0  0  0  0  0  0
   10.8100  324.1050    8.6830 C   0  0  0  0  0  3  0  0  0  0  0  0
   10.7120  324.2010   10.0740 C   0  0  0  0  0  0  0  0  0  0  0  0
    9.9960  325.2010   10.6510 N   0  0  0  0  0  0  0  0  0  0  0  0
    9.8980  325.3010   12.0030 C   0  0  0  0  0  3  0  0  0  0  0  0
   10.5410  324.3620   12.8160 C   0  0  0  0  0  3  0  0  0  0  0  0
   11.2580  323.3580   12.2440 N   0  0  0  0  0  0  0  0  0  0  0  0
   11.3610  323.2530   10.8940 C   0  0  0  0  0  0  0  0  0  0  0  0
   12.1010  322.2190   10.3140 C   0  0  0  0  0  3  0  0  0  0  0  0
  1 10  2  0
  2  3  2  0
  2  1  1  0
  3  4  1  0
  4  5  1  0
  4  9  2  0
  5  6  2  0
  6  7  1  0
  8  7  2  0
  9  8  1  0
 10  9  1  0
M  RAD  6   1   2   2   2   3   2   6   2   7   2  10   2
M  END
>  <MODEL>  (168) 
2

>  <TORSDO>  (168) 
F 0

>  <SCORE>  (168) 
-5.3

>  <ligand_id>  (168) 
83

>  <original_smiles>  (168) 
c1ccc2nccnc2c1

>  <smiles>  (168) 
c1ccc2nccnc2c1

$$$$
84:0:0
     RDKit          3D

  9 10  0  0  0  0  0  0  0  0999 V2000
   11.0240  353.0220   23.4470 C   0  0  0  0  0  3  0  0  0  0  0  0
   12.2460  353.6710   23.1490 C   0  0  0  0  0  3  0  0  0  0  0  0
   13.1580  353.9240   24.1370 N   0  0  0  0  0  0  0  0  0  0  0  0
   12.8660  353.5380   25.4030 C   0  0  0  0  0  0  0  0  0  0  0  0
   13.6340  353.7010   26.4900 N   0  0  0  0  0  0  0  0  0  0  0  0
   12.8670  353.1410   27.4670 C   0  0  0  0  0  3  0  0  0  0  0  0
   11.7150  352.6710   27.0060 O   0  0  0  0  0  0  0  0  0  0  0  0
   11.7100  352.9150   25.7240 C   0  0  0  0  0  0  0  0  0  0  0  0
   10.7420  352.6300   24.7690 C   0  0  0  0  0  3  0  0  0  0  0  0
  1  9  2  0
  2  1  1  0
  2  3  2  0
  3  4  1  0
  4  8  2  0
  4  5  1  0
  5  6  2  0
  7  6  1  0
  8  7  1  0
  9  8  1  0
M  RAD  4   1   2   2   2   6   2   9   2
M  END
>  <MODEL>  (169) 
1

>  <TORSDO>  (169) 
F 0

>  <SCORE>  (169) 
-5.3

>  <ligand_id>  (169) 
84

>  <original_smiles>  (169) 
c1cnc2ncoc2c1

>  <smiles>  (169) 
c1cnc2ncoc2c1

$$$$
84:0:1
     RDKit          3D

  9 10  0  0  0  0  0  0  0  0999 V2000
   -7.4900  354.4810   19.6280 C   0  0  0  0  0  3  0  0  0  0  0  0
   -7.9040  353.1860   19.2360 C   0  0  0  0  0  3  0  0  0  0  0  0
   -7.5360  352.0880   19.9650 N   0  0  0  0  0  0  0  0  0  0  0  0
   -6.7690  352.2690   21.0690 C   0  0  0  0  0  0  0  0  0  0  0  0
   -6.3170  351.3180   21.8990 N   0  0  0  0  0  0  0  0  0  0  0  0
   -5.6160  352.0470   22.8110 C   0  0  0  0  0  3  0  0  0  0  0  0
   -5.6410  353.3490   22.5540 O   0  0  0  0  0  0  0  0  0  0  0  0
   -6.3560  353.4920   21.4730 C   0  0  0  0  0  0  0  0  0  0  0  0
   -6.6940  354.6460   20.7770 C   0  0  0  0  0  3  0  0  0  0  0  0
  1  9  2  0
  2  1  1  0
  2  3  2  0
  3  4  1  0
  4  8  2  0
  4  5  1  0
  5  6  2  0
  7  6  1  0
  8  7  1  0
  9  8  1  0
M  RAD  4   1   2   2   2   6   2   9   2
M  END
>  <MODEL>  (170) 
2

>  <TORSDO>  (170) 
F 0

>  <SCORE>  (170) 
-5.3

>  <ligand_id>  (170) 
84

>  <original_smiles>  (170) 
c1cnc2ncoc2c1

>  <smiles>  (170) 
c1cnc2ncoc2c1

$$$$
85:0:0
     RDKit          3D

 10 11  0  0  0  0  0  0  0  0999 V2000
    9.2210  337.7880   10.1160 C   0  0  0  0  0  3  0  0  0  0  0  0
    7.9760  337.2180   10.4630 C   0  0  0  0  0  3  0  0  0  0  0  0
    7.0980  337.8930   11.3320 C   0  0  0  0  0  3  0  0  0  0  0  0
    7.5120  339.1280   11.8250 C   0  0  0  0  0  0  0  0  0  0  0  0
    6.8500  339.9410   12.6590 N   0  0  0  0  0  0  0  0  0  0  0  0
    7.7030  340.9910   12.8050 C   0  0  0  0  0  3  0  0  0  0  0  0
    8.8580  340.8600   12.1010 N   0  0  0  0  0  0  0  0  0  0  0  0
    8.7100  339.6760   11.4930 C   0  0  0  0  0  0  0  0  0  0  0  0
    9.6040  339.0390   10.6350 C   0  0  0  0  0  3  0  0  0  0  0  0
    5.9220  339.8060   13.0840 H   0  0  0  0  0  0  0  0  0  0  0  0
  1  2  2  0
  1  9  1  0
  2  3  1  0
  3  4  2  0
  4  5  1  0
  5  6  1  0
  5 10  1  0
  7  6  2  0
  8  4  1  0
  8  7  1  0
  9  8  2  0
M  RAD  5   1   2   2   2   3   2   6   2   9   2
M  END
>  <MODEL>  (171) 
1

>  <TORSDO>  (171) 
F 0

>  <SCORE>  (171) 
-5.1

>  <ligand_id>  (171) 
85

>  <original_smiles>  (171) 
c1ccc2[nH]cnc2c1

>  <smiles>  (171) 
c1ccc2[nH]cnc2c1

$$$$
85:0:1
     RDKit          3D

 10 11  0  0  0  0  0  0  0  0999 V2000
   11.7650  323.7610    9.5930 C   0  0  0  0  0  3  0  0  0  0  0  0
   10.7060  324.5330   10.1220 C   0  0  0  0  0  3  0  0  0  0  0  0
    9.6160  324.9020    9.3110 C   0  0  0  0  0  3  0  0  0  0  0  0
    9.6340  324.4770    7.9850 C   0  0  0  0  0  0  0  0  0  0  0  0
    8.7150  324.7080    7.0370 N   0  0  0  0  0  0  0  0  0  0  0  0
    9.2300  324.0740    5.9500 C   0  0  0  0  0  3  0  0  0  0  0  0
   10.4220  323.4640    6.1840 N   0  0  0  0  0  0  0  0  0  0  0  0
   10.6530  323.7370    7.4760 C   0  0  0  0  0  0  0  0  0  0  0  0
   11.7470  323.3510    8.2470 C   0  0  0  0  0  3  0  0  0  0  0  0
    7.8340  325.2350    7.1140 H   0  0  0  0  0  0  0  0  0  0  0  0
  1  2  2  0
  3  2  1  0
  4  3  2  0
  5 10  1  0
  5  4  1  0
  6  7  2  0
  6  5  1  0
  7  8  1  0
  8  4  1  0
  8  9  2  0
  9  1  1  0
M  RAD  5   1   2   2   2   3   2   6   2   9   2
M  END
>  <MODEL>  (172) 
2

>  <TORSDO>  (172) 
F 0

>  <SCORE>  (172) 
-5.0

>  <ligand_id>  (172) 
85

>  <original_smiles>  (172) 
c1ccc2[nH]cnc2c1

>  <smiles>  (172) 
c1ccc2[nH]cnc2c1

$$$$
86:0:0
     RDKit          3D

 10 11  0  0  0  0  0  0  0  0999 V2000
   -7.3890  353.9590   19.0100 C   0  0  0  0  0  3  0  0  0  0  0  0
   -6.8600  355.0030   19.8050 C   0  0  0  0  0  3  0  0  0  0  0  0
   -6.3050  354.7360   21.0270 N   0  0  0  0  0  0  0  0  0  0  0  0
   -6.2760  353.4500   21.4540 C   0  0  0  0  0  0  0  0  0  0  0  0
   -5.7840  352.9160   22.6200 C   0  0  0  0  0  3  0  0  0  0  0  0
   -6.0070  351.5780   22.5400 N   0  0  0  0  0  0  0  0  0  0  0  0
   -6.6060  351.2720   21.3890 N   0  0  0  0  0  0  0  0  0  0  0  0
   -6.7710  352.4220   20.7220 C   0  0  0  0  0  0  0  0  0  0  0  0
   -7.3470  352.6310   19.4740 C   0  0  0  0  0  3  0  0  0  0  0  0
   -5.7480  350.8950   23.2670 H   0  0  0  0  0  0  0  0  0  0  0  0
  1  9  2  0
  1  2  1  0
  2  3  2  0
  3  4  1  0
  4  5  2  0
  6  5  1  0
  6 10  1  0
  7  6  1  0
  8  7  2  0
  8  4  1  0
  9  8  1  0
M  RAD  4   1   2   2   2   5   2   9   2
M  END
>  <MODEL>  (173) 
1

>  <TORSDO>  (173) 
F 0

>  <SCORE>  (173) 
-5.4

>  <ligand_id>  (173) 
86

>  <original_smiles>  (173) 
c1cnc2c[nH]nc2c1

>  <smiles>  (173) 
c1cnc2c[nH]nc2c1

$$$$
86:0:1
     RDKit          3D

 10 11  0  0  0  0  0  0  0  0999 V2000
   10.8820  324.1780    9.9040 C   0  0  0  0  0  3  0  0  0  0  0  0
   11.6200  323.4070    8.9750 C   0  0  0  0  0  3  0  0  0  0  0  0
   11.2170  323.3130    7.6700 N   0  0  0  0  0  0  0  0  0  0  0  0
   10.0960  323.9760    7.2930 C   0  0  0  0  0  0  0  0  0  0  0  0
    9.4820  324.0500    6.0670 C   0  0  0  0  0  3  0  0  0  0  0  0
    8.3950  324.8460    6.2420 N   0  0  0  0  0  0  0  0  0  0  0  0
    8.3170  325.2590    7.5060 N   0  0  0  0  0  0  0  0  0  0  0  0
    9.3620  324.7250    8.1530 C   0  0  0  0  0  0  0  0  0  0  0  0
    9.7210  324.8570    9.4890 C   0  0  0  0  0  3  0  0  0  0  0  0
    7.7250  325.0960    5.5000 H   0  0  0  0  0  0  0  0  0  0  0  0
  2  1  1  0
  3  2  2  0
  4  3  1  0
  4  8  1  0
  5  6  1  0
  5  4  2  0
  6  7  1  0
  7  8  2  0
  8  9  1  0
  9  1  2  0
 10  6  1  0
M  RAD  4   1   2   2   2   5   2   9   2
M  END
>  <MODEL>  (174) 
2

>  <TORSDO>  (174) 
F 0

>  <SCORE>  (174) 
-4.9

>  <ligand_id>  (174) 
86

>  <original_smiles>  (174) 
c1cnc2c[nH]nc2c1

>  <smiles>  (174) 
c1cnc2c[nH]nc2c1

$$$$
87:0:0
     RDKit          3D

  9  9  0  0  0  0  0  0  0  0999 V2000
    6.1080  333.3730    6.7350 C   0  0  0  0  0  0  0  0  0  0  0  0
    5.3600  334.2560    5.9090 C   0  0  0  0  0  3  0  0  0  0  0  0
    5.0650  333.8030    4.6630 N   0  0  0  0  0  0  0  0  0  0  0  0
    5.7830  332.3180    4.6880 S   0  0  0  0  0  0  0  0  0  0  0  0
    6.4630  332.1820    6.1850 N   0  0  0  0  0  0  0  0  0  0  0  0
    5.8050  334.8370    8.5660 F   0  0  0  0  0  0  0  0  0  0  0  0
    6.5450  333.7580    8.1140 C   0  0  0  0  0  0  0  0  0  0  0  0
    7.8830  334.1060    8.1070 F   0  0  0  0  0  0  0  0  0  0  0  0
    6.3560  332.6900    8.9700 F   0  0  0  0  0  0  0  0  0  0  0  0
  1  7  1  0
  2  1  1  0
  3  4  1  0
  3  2  2  0
  4  5  1  0
  5  1  2  0
  7  6  1  0
  7  9  1  0
  8  7  1  0
M  RAD  1   2   2
M  END
>  <MODEL>  (175) 
1

>  <TORSDO>  (175) 
F 1

>  <SCORE>  (175) 
-4.5

>  <ligand_id>  (175) 
87

>  <original_smiles>  (175) 
FC(F)(F)c1cnsn1

>  <smiles>  (175) 
FC(F)(F)c1cnsn1

$$$$
87:0:1
     RDKit          3D

  9  9  0  0  0  0  0  0  0  0999 V2000
   11.3180  323.3830    9.8020 C   0  0  0  0  0  0  0  0  0  0  0  0
   10.8820  324.7320    9.6870 C   0  0  0  0  0  3  0  0  0  0  0  0
   10.2200  325.2400   10.7570 N   0  0  0  0  0  0  0  0  0  0  0  0
   10.2180  323.9400   11.7740 S   0  0  0  0  0  0  0  0  0  0  0  0
   11.0070  322.7420   10.9590 N   0  0  0  0  0  0  0  0  0  0  0  0
   13.2570  323.2540    8.4550 F   0  0  0  0  0  0  0  0  0  0  0  0
   12.0190  322.6790    8.6820 C   0  0  0  0  0  0  0  0  0  0  0  0
   11.2670  322.7650    7.5240 F   0  0  0  0  0  0  0  0  0  0  0  0
   12.1920  321.3490    9.0140 F   0  0  0  0  0  0  0  0  0  0  0  0
  1  5  2  0
  2  1  1  0
  2  3  2  0
  3  4  1  0
  5  4  1  0
  6  7  1  0
  7  9  1  0
  7  1  1  0
  8  7  1  0
M  RAD  1   2   2
M  END
>  <MODEL>  (176) 
2

>  <TORSDO>  (176) 
F 1

>  <SCORE>  (176) 
-4.4

>  <ligand_id>  (176) 
87

>  <original_smiles>  (176) 
FC(F)(F)c1cnsn1

>  <smiles>  (176) 
FC(F)(F)c1cnsn1

$$$$
88:0:0
     RDKit          3D

 10 11  0  0  0  0  0  0  0  0999 V2000
    7.2070  334.3380    7.3190 C   0  0  0  0  0  3  0  0  0  0  0  0
    7.6550  335.6610    7.2660 C   0  0  0  0  0  3  0  0  0  0  0  0
    7.7050  336.4140    8.3990 N   0  0  0  0  0  0  0  0  0  0  0  0
    7.3260  335.9100    9.6040 C   0  0  0  0  0  0  0  0  0  0  0  0
    7.3860  336.6840   10.7210 N   0  0  0  0  0  0  0  0  0  0  0  0
    7.0120  336.2040   11.9370 C   0  0  0  0  0  3  0  0  0  0  0  0
    6.5530  334.8890   12.0670 C   0  0  0  0  0  2  0  0  0  0  0  0
    6.4820  334.0720   10.9350 C   0  0  0  0  0  3  0  0  0  0  0  0
    6.8690  334.5790    9.6950 C   0  0  0  0  0  0  0  0  0  0  0  0
    6.8120  333.7950    8.5440 C   0  0  0  0  0  2  0  0  0  0  0  0
  1 10  1  0
  2  1  2  0
  2  3  1  0
  3  4  2  0
  4  9  1  0
  4  5  1  0
  5  6  2  0
  6  7  1  0
  8  7  1  0
  9  8  2  0
 10  9  1  0
M  RAD  6   1   2   2   2   6   2   7   3   8   2  10   3
M  END
>  <MODEL>  (177) 
1

>  <TORSDO>  (177) 
F 0

>  <SCORE>  (177) 
-5.6

>  <ligand_id>  (177) 
88

>  <original_smiles>  (177) 
c1cnc2ncccc2c1

>  <smiles>  (177) 
c1cnc2ncccc2c1

$$$$
88:0:1
     RDKit          3D

 10 11  0  0  0  0  0  0  0  0999 V2000
    6.5230  334.7120   12.0220 C   0  0  0  0  0  3  0  0  0  0  0  0
    6.9390  336.0470   12.0040 C   0  0  0  0  0  3  0  0  0  0  0  0
    7.3270  336.6290   10.8350 N   0  0  0  0  0  0  0  0  0  0  0  0
    7.3210  335.9390    9.6630 C   0  0  0  0  0  0  0  0  0  0  0  0
    7.7130  336.5450    8.5100 N   0  0  0  0  0  0  0  0  0  0  0  0
    7.7170  335.8770    7.3250 C   0  0  0  0  0  3  0  0  0  0  0  0
    7.3130  334.5400    7.2660 C   0  0  0  0  0  3  0  0  0  0  0  0
    6.9050  333.8940    8.4360 C   0  0  0  0  0  3  0  0  0  0  0  0
    6.9070  334.5920    9.6440 C   0  0  0  0  0  0  0  0  0  0  0  0
    6.5070  333.9810   10.8310 C   0  0  0  0  0  3  0  0  0  0  0  0
  2  1  2  0
  3  2  1  0
  4  3  2  0
  5  4  1  0
  6  5  2  0
  7  6  1  0
  7  8  2  0
  8  9  1  0
  9  4  1  0
  9 10  2  0
 10  1  1  0
M  RAD  6   1   2   2   2   6   2   7   2   8   2  10   2
M  END
>  <MODEL>  (178) 
2

>  <TORSDO>  (178) 
F 0

>  <SCORE>  (178) 
-5.6

>  <ligand_id>  (178) 
88

>  <original_smiles>  (178) 
c1cnc2ncccc2c1

>  <smiles>  (178) 
c1cnc2ncccc2c1

$$$$
89:0:0
     RDKit          3D

  9 10  0  0  0  0  0  0  0  0999 V2000
   12.0110  353.6710   23.0110 C   0  0  0  0  0  3  0  0  0  0  0  0
   10.8780  352.9260   23.4090 C   0  0  0  0  0  3  0  0  0  0  0  0
   10.7330  352.5230   24.7080 N   0  0  0  0  0  0  0  0  0  0  0  0
   11.6950  352.8530   25.6060 C   0  0  0  0  0  0  0  0  0  0  0  0
   11.7610  352.5610   26.9470 C   0  0  0  0  0  3  0  0  0  0  0  0
   12.9690  353.1550   27.3370 C   0  0  0  0  0  3  0  0  0  0  0  0
   13.5570  353.7440   26.3070 O   0  0  0  0  0  0  0  0  0  0  0  0
   12.7970  353.5660   25.2600 C   0  0  0  0  0  0  0  0  0  0  0  0
   13.0000  354.0030   23.9550 C   0  0  0  0  0  3  0  0  0  0  0  0
  1  2  2  0
  1  9  1  0
  2  3  1  0
  3  4  2  0
  4  5  1  0
  5  6  2  0
  7  6  1  0
  8  4  1  0
  8  7  1  0
  9  8  2  0
M  RAD  5   1   2   2   2   5   2   6   2   9   2
M  END
>  <MODEL>  (179) 
1

>  <TORSDO>  (179) 
F 0

>  <SCORE>  (179) 
-5.4

>  <ligand_id>  (179) 
89

>  <original_smiles>  (179) 
c1cnc2ccoc2c1

>  <smiles>  (179) 
c1cnc2ccoc2c1

$$$$
89:0:1
     RDKit          3D

  9 10  0  0  0  0  0  0  0  0999 V2000
    9.0340  324.8120    7.9370 C   0  0  0  0  0  3  0  0  0  0  0  0
    9.6560  324.0860    6.8960 C   0  0  0  0  0  3  0  0  0  0  0  0
   10.8330  323.4260    7.1170 N   0  0  0  0  0  0  0  0  0  0  0  0
   11.3900  323.4790    8.3520 C   0  0  0  0  0  0  0  0  0  0  0  0
   12.5530  322.9000    8.8010 C   0  0  0  0  0  3  0  0  0  0  0  0
   12.6060  323.3020   10.1410 C   0  0  0  0  0  3  0  0  0  0  0  0
   11.5590  324.0530   10.4480 O   0  0  0  0  0  0  0  0  0  0  0  0
   10.8220  324.1660    9.3760 C   0  0  0  0  0  0  0  0  0  0  0  0
    9.6270  324.8570    9.2120 C   0  0  0  0  0  3  0  0  0  0  0  0
  1  9  2  0
  2  3  2  0
  2  1  1  0
  3  4  1  0
  4  5  1  0
  4  8  2  0
  5  6  2  0
  6  7  1  0
  8  7  1  0
  9  8  1  0
M  RAD  5   1   2   2   2   5   2   6   2   9   2
M  END
>  <MODEL>  (180) 
2

>  <TORSDO>  (180) 
F 0

>  <SCORE>  (180) 
-4.9

>  <ligand_id>  (180) 
89

>  <original_smiles>  (180) 
c1cnc2ccoc2c1

>  <smiles>  (180) 
c1cnc2ccoc2c1

$$$$
90:0:0
     RDKit          3D

  9 10  0  0  0  0  0  0  0  0999 V2000
   11.3200  351.6020   27.0760 C   0  0  0  0  0  3  0  0  0  0  0  0
   10.5750  351.5240   25.8830 C   0  0  0  0  0  3  0  0  0  0  0  0
   10.8690  352.3580   24.8460 N   0  0  0  0  0  0  0  0  0  0  0  0
   11.8610  353.2340   24.9850 N   0  0  0  0  0  0  0  0  0  0  0  0
   12.3050  354.1330   24.0990 C   0  0  0  0  0  3  0  0  0  0  0  0
   13.3540  354.7990   24.7340 C   0  0  0  0  0  3  0  0  0  0  0  0
   13.5370  354.3070   25.9870 N   0  0  0  0  0  0  0  0  0  0  0  0
   12.5980  353.3530   26.0910 C   0  0  0  0  0  0  0  0  0  0  0  0
   12.3600  352.5370   27.1910 C   0  0  0  0  0  3  0  0  0  0  0  0
  1  9  2  0
  2  1  1  0
  3  4  1  0
  3  2  2  0
  4  8  1  0
  5  6  2  0
  5  4  1  0
  6  7  1  0
  7  8  2  0
  8  9  1  0
M  RAD  5   1   2   2   2   5   2   6   2   9   2
M  END
>  <MODEL>  (181) 
1

>  <TORSDO>  (181) 
F 0

>  <SCORE>  (181) 
-5.1

>  <ligand_id>  (181) 
90

>  <original_smiles>  (181) 
c1cnn2ccnc2c1

>  <smiles>  (181) 
c1cnn2ccnc2c1

$$$$
90:0:1
     RDKit          3D

  9 10  0  0  0  0  0  0  0  0999 V2000
   -7.7350  353.5330   19.0000 C   0  0  0  0  0  3  0  0  0  0  0  0
   -7.2910  354.7120   19.6310 C   0  0  0  0  0  3  0  0  0  0  0  0
   -6.6420  354.6340   20.8270 N   0  0  0  0  0  0  0  0  0  0  0  0
   -6.4410  353.4380   21.3750 N   0  0  0  0  0  0  0  0  0  0  0  0
   -5.8330  353.1460   22.5310 C   0  0  0  0  0  3  0  0  0  0  0  0
   -5.8870  351.7570   22.6430 C   0  0  0  0  0  3  0  0  0  0  0  0
   -6.5210  351.2200   21.5670 N   0  0  0  0  0  0  0  0  0  0  0  0
   -6.8400  352.2910   20.8240 C   0  0  0  0  0  0  0  0  0  0  0  0
   -7.5080  352.2870   19.6040 C   0  0  0  0  0  3  0  0  0  0  0  0
  1  9  2  0
  1  2  1  0
  2  3  2  0
  3  4  1  0
  4  5  1  0
  5  6  2  0
  7  6  1  0
  8  4  1  0
  8  7  2  0
  9  8  1  0
M  RAD  5   1   2   2   2   5   2   6   2   9   2
M  END
>  <MODEL>  (182) 
2

>  <TORSDO>  (182) 
F 0

>  <SCORE>  (182) 
-4.9

>  <ligand_id>  (182) 
90

>  <original_smiles>  (182) 
c1cnn2ccnc2c1

>  <smiles>  (182) 
c1cnn2ccnc2c1

$$$$
91:0:0
     RDKit          3D

 15 17  0  0  0  0  0  0  0  0999 V2000
    6.5980  334.4180    8.5630 C   0  0  0  0  0  0  0  0  0  0  0  0
    6.4440  333.0510    8.7850 C   0  0  0  0  0  3  0  0  0  0  0  0
    6.4820  332.8110   10.1230 N   0  0  0  0  0  0  0  0  0  0  0  0
    6.6560  334.0280   10.6720 C   0  0  0  0  0  0  0  0  0  0  0  0
    6.7580  334.3160   12.0280 C   0  0  0  0  0  3  0  0  0  0  0  0
    6.9380  335.6620   12.3810 C   0  0  0  0  0  3  0  0  0  0  0  0
    7.0080  336.6490   11.3800 C   0  0  0  0  0  3  0  0  0  0  0  0
    6.8990  336.2900   10.0690 N   0  0  0  0  0  0  0  0  0  0  0  0
    6.7280  335.0040    9.7620 N   0  0  0  0  0  0  0  0  0  0  0  0
    7.7600  336.3510    5.5210 C   0  0  0  0  0  3  0  0  0  0  0  0
    6.5880  336.3470    4.7650 C   0  0  0  0  0  3  0  0  0  0  0  0
    5.4710  335.7350    5.2410 N   0  0  0  0  0  0  0  0  0  0  0  0
    5.4600  335.1160    6.4520 C   0  0  0  0  0  3  0  0  0  0  0  0
    6.6130  335.0930    7.2480 C   0  0  0  0  0  0  0  0  0  0  0  0
    7.7690  335.7200    6.7660 C   0  0  0  0  0  3  0  0  0  0  0  0
  1  2  2  0
  1  9  1  0
  2  3  1  0
  3  4  2  0
  4  5  1  0
  5  6  2  0
  7  6  1  0
  8  7  2  0
  9  8  1  0
  9  4  1  0
 10 15  2  0
 11 12  2  0
 11 10  1  0
 12 13  1  0
 13 14  2  0
 14  1  1  0
 15 14  1  0
M  RAD  8   2   2   5   2   6   2   7   2  10   2  11   2  13   2  15   2
M  END
>  <MODEL>  (183) 
1

>  <TORSDO>  (183) 
F 1

>  <SCORE>  (183) 
-7.0

>  <ligand_id>  (183) 
91

>  <original_smiles>  (183) 
c1cncc(-c2cnc3cccnn23)c1

>  <smiles>  (183) 
c1cncc(-c2cnc3cccnn23)c1

$$$$
91:0:1
     RDKit          3D

 15 17  0  0  0  0  0  0  0  0999 V2000
   11.3270  323.8760    8.4730 C   0  0  0  0  0  0  0  0  0  0  0  0
   11.9060  322.6080    8.4960 C   0  0  0  0  0  3  0  0  0  0  0  0
   11.8090  322.0970    9.7520 N   0  0  0  0  0  0  0  0  0  0  0  0
   11.1790  323.0590   10.4520 C   0  0  0  0  0  0  0  0  0  0  0  0
   10.8420  323.0130   11.7990 C   0  0  0  0  0  3  0  0  0  0  0  0
   10.1840  324.1340   12.3290 C   0  0  0  0  0  3  0  0  0  0  0  0
    9.8940  325.2360   11.5030 C   0  0  0  0  0  3  0  0  0  0  0  0
   10.2570  325.2070   10.1890 N   0  0  0  0  0  0  0  0  0  0  0  0
   10.8800  324.1310    9.7120 N   0  0  0  0  0  0  0  0  0  0  0  0
   11.6370  326.8950    6.2100 C   0  0  0  0  0  3  0  0  0  0  0  0
   11.0080  326.4090    5.0630 C   0  0  0  0  0  3  0  0  0  0  0  0
   10.5090  325.1450    5.0440 N   0  0  0  0  0  0  0  0  0  0  0  0
   10.6030  324.3250    6.1260 C   0  0  0  0  0  3  0  0  0  0  0  0
   11.2260  324.7690    7.3000 C   0  0  0  0  0  0  0  0  0  0  0  0
   11.7440  326.0690    7.3300 C   0  0  0  0  0  3  0  0  0  0  0  0
  1  2  2  0
  1  9  1  0
  2  3  1  0
  3  4  2  0
  4  5  1  0
  5  6  2  0
  7  6  1  0
  8  7  2  0
  9  8  1  0
  9  4  1  0
 10 15  2  0
 11 10  1  0
 12 11  2  0
 12 13  1  0
 13 14  2  0
 14 15  1  0
 14  1  1  0
M  RAD  8   2   2   5   2   6   2   7   2  10   2  11   2  13   2  15   2
M  END
>  <MODEL>  (184) 
2

>  <TORSDO>  (184) 
F 1

>  <SCORE>  (184) 
-7.0

>  <ligand_id>  (184) 
91

>  <original_smiles>  (184) 
c1cncc(-c2cnc3cccnn23)c1

>  <smiles>  (184) 
c1cncc(-c2cnc3cccnn23)c1

$$$$
92:0:0
     RDKit          3D

 10 11  0  0  0  0  0  0  0  0999 V2000
    7.1360  336.7030   12.1120 C   0  0  0  0  0  3  0  0  0  0  0  0
    7.7030  337.4950   11.1080 C   0  0  0  0  0  3  0  0  0  0  0  0
    7.8250  337.0150    9.8400 N   0  0  0  0  0  0  0  0  0  0  0  0
    7.4040  335.7630    9.5130 C   0  0  0  0  0  0  0  0  0  0  0  0
    7.5390  335.2910    8.2070 C   0  0  0  0  0  3  0  0  0  0  0  0
    7.0960  334.0010    7.9030 C   0  0  0  0  0  3  0  0  0  0  0  0
    6.5420  333.2180    8.8690 N   0  0  0  0  0  0  0  0  0  0  0  0
    6.4000  333.6550   10.1500 C   0  0  0  0  0  3  0  0  0  0  0  0
    6.8270  334.9370   10.4980 C   0  0  0  0  0  0  0  0  0  0  0  0
    6.6960  335.4140   11.8020 C   0  0  0  0  0  3  0  0  0  0  0  0
  2  1  2  0
  3  2  1  0
  4  3  2  0
  4  9  1  0
  5  4  1  0
  6  5  2  0
  6  7  1  0
  7  8  2  0
  8  9  1  0
  9 10  2  0
 10  1  1  0
M  RAD  6   1   2   2   2   5   2   6   2   8   2  10   2
M  END
>  <MODEL>  (185) 
1

>  <TORSDO>  (185) 
F 0

>  <SCORE>  (185) 
-5.3

>  <ligand_id>  (185) 
92

>  <original_smiles>  (185) 
c1cnc2ccncc2c1

>  <smiles>  (185) 
c1cnc2ccncc2c1

$$$$
92:0:1
     RDKit          3D

 10 11  0  0  0  0  0  0  0  0999 V2000
   12.2380  322.1180    8.9070 C   0  0  0  0  0  3  0  0  0  0  0  0
   11.5710  323.0850    8.1480 C   0  0  0  0  0  3  0  0  0  0  0  0
   10.8460  324.0600    8.7610 N   0  0  0  0  0  0  0  0  0  0  0  0
   10.7480  324.1230   10.1170 C   0  0  0  0  0  0  0  0  0  0  0  0
    9.9990  325.1320   10.7250 C   0  0  0  0  0  3  0  0  0  0  0  0
    9.9190  325.1700   12.1200 C   0  0  0  0  0  3  0  0  0  0  0  0
   10.5620  324.2350   12.8720 N   0  0  0  0  0  0  0  0  0  0  0  0
   11.2980  323.2420   12.3030 C   0  0  0  0  0  3  0  0  0  0  0  0
   11.4070  323.1660   10.9140 C   0  0  0  0  0  0  0  0  0  0  0  0
   12.1540  322.1600   10.3000 C   0  0  0  0  0  3  0  0  0  0  0  0
  1 10  2  0
  2  3  2  0
  2  1  1  0
  3  4  1  0
  4  5  1  0
  4  9  2  0
  5  6  2  0
  6  7  1  0
  8  7  2  0
  9  8  1  0
 10  9  1  0
M  RAD  6   1   2   2   2   5   2   6   2   8   2  10   2
M  END
>  <MODEL>  (186) 
2

>  <TORSDO>  (186) 
F 0

>  <SCORE>  (186) 
-5.3

>  <ligand_id>  (186) 
92

>  <original_smiles>  (186) 
c1cnc2ccncc2c1

>  <smiles>  (186) 
c1cnc2ccncc2c1

$$$$
93:0:0
     RDKit          3D

  9 10  0  0  0  0  0  0  0  0999 V2000
   11.9370  352.4310   27.4020 C   0  0  0  0  0  3  0  0  0  0  0  0
   13.1490  353.0970   27.1230 C   0  0  0  0  0  3  0  0  0  0  0  0
   13.4060  353.5290   25.8530 N   0  0  0  0  0  0  0  0  0  0  0  0
   12.4970  353.3070   24.9090 N   0  0  0  0  0  0  0  0  0  0  0  0
   12.5140  353.6280   23.6100 C   0  0  0  0  0  3  0  0  0  0  0  0
   11.3590  353.1910   23.0470 N   0  0  0  0  0  0  0  0  0  0  0  0
   10.6220  352.6000   23.9860 N   0  0  0  0  0  0  0  0  0  0  0  0
   11.3390  352.6840   25.1160 C   0  0  0  0  0  0  0  0  0  0  0  0
   11.0000  352.2140   26.3780 C   0  0  0  0  0  3  0  0  0  0  0  0
  2  1  1  0
  3  2  2  0
  4  8  1  0
  4  3  1  0
  5  4  1  0
  6  5  2  0
  6  7  1  0
  7  8  2  0
  8  9  1  0
  9  1  2  0
M  RAD  4   1   2   2   2   5   2   9   2
M  END
>  <MODEL>  (187) 
1

>  <TORSDO>  (187) 
F 0

>  <SCORE>  (187) 
-5.6

>  <ligand_id>  (187) 
93

>  <original_smiles>  (187) 
c1cnn2cnnc2c1

>  <smiles>  (187) 
c1cnn2cnnc2c1

$$$$
93:0:1
     RDKit          3D

  9 10  0  0  0  0  0  0  0  0999 V2000
   11.2750  351.6600   27.0420 C   0  0  0  0  0  3  0  0  0  0  0  0
   10.5400  351.5950   25.8390 C   0  0  0  0  0  3  0  0  0  0  0  0
   10.8880  352.3960   24.7900 N   0  0  0  0  0  0  0  0  0  0  0  0
   11.9210  353.2210   24.9340 N   0  0  0  0  0  0  0  0  0  0  0  0
   12.4510  354.0910   24.0660 C   0  0  0  0  0  3  0  0  0  0  0  0
   13.4970  354.7110   24.6680 N   0  0  0  0  0  0  0  0  0  0  0  0
   13.6240  354.2340   25.9060 N   0  0  0  0  0  0  0  0  0  0  0  0
   12.6490  353.3230   26.0440 C   0  0  0  0  0  0  0  0  0  0  0  0
   12.3610  352.5450   27.1570 C   0  0  0  0  0  3  0  0  0  0  0  0
  1  9  2  0
  2  1  1  0
  3  4  1  0
  3  2  2  0
  4  8  1  0
  5  6  2  0
  5  4  1  0
  6  7  1  0
  7  8  2  0
  8  9  1  0
M  RAD  4   1   2   2   2   5   2   9   2
M  END
>  <MODEL>  (188) 
2

>  <TORSDO>  (188) 
F 0

>  <SCORE>  (188) 
-5.6

>  <ligand_id>  (188) 
93

>  <original_smiles>  (188) 
c1cnn2cnnc2c1

>  <smiles>  (188) 
c1cnn2cnnc2c1

$$$$
94:0:0
     RDKit          3D

  9 10  0  0  0  0  0  0  0  0999 V2000
   11.7930  353.5970   23.2150 C   0  0  0  0  0  3  0  0  0  0  0  0
   10.8040  352.7500   23.7690 C   0  0  0  0  0  3  0  0  0  0  0  0
   10.8580  352.3870   25.0880 N   0  0  0  0  0  0  0  0  0  0  0  0
   11.8770  352.8590   25.8460 C   0  0  0  0  0  0  0  0  0  0  0  0
   12.1650  352.6550   27.1710 C   0  0  0  0  0  3  0  0  0  0  0  0
   13.2750  353.3510   27.3920 O   0  0  0  0  0  0  0  0  0  0  0  0
   13.7110  353.9740   26.3250 N   0  0  0  0  0  0  0  0  0  0  0  0
   12.8430  353.6710   25.3520 C   0  0  0  0  0  0  0  0  0  0  0  0
   12.8430  354.0750   24.0230 C   0  0  0  0  0  3  0  0  0  0  0  0
  1  2  1  0
  1  9  2  0
  2  3  2  0
  3  4  1  0
  4  5  2  0
  5  6  1  0
  7  6  1  0
  8  4  1  0
  8  7  2  0
  9  8  1  0
M  RAD  4   1   2   2   2   5   2   9   2
M  END
>  <MODEL>  (189) 
1

>  <TORSDO>  (189) 
F 0

>  <SCORE>  (189) 
-5.6

>  <ligand_id>  (189) 
94

>  <original_smiles>  (189) 
c1cnc2conc2c1

>  <smiles>  (189) 
c1cnc2conc2c1

$$$$
94:0:1
     RDKit          3D

  9 10  0  0  0  0  0  0  0  0999 V2000
   -7.3880  354.0670   19.0960 C   0  0  0  0  0  3  0  0  0  0  0  0
   -6.8180  355.0090   19.9860 C   0  0  0  0  0  3  0  0  0  0  0  0
   -6.2700  354.6020   21.1730 N   0  0  0  0  0  0  0  0  0  0  0  0
   -6.2870  353.2810   21.4710 C   0  0  0  0  0  0  0  0  0  0  0  0
   -5.8150  352.6140   22.5740 C   0  0  0  0  0  3  0  0  0  0  0  0
   -6.0940  351.3350   22.3460 O   0  0  0  0  0  0  0  0  0  0  0  0
   -6.6980  351.1370   21.2000 N   0  0  0  0  0  0  0  0  0  0  0  0
   -6.8240  352.3490   20.6460 C   0  0  0  0  0  0  0  0  0  0  0  0
   -7.3940  352.6990   19.4290 C   0  0  0  0  0  3  0  0  0  0  0  0
  1  9  2  0
  1  2  1  0
  2  3  2  0
  3  4  1  0
  4  5  2  0
  6  5  1  0
  7  6  1  0
  8  7  2  0
  8  4  1  0
  9  8  1  0
M  RAD  4   1   2   2   2   5   2   9   2
M  END
>  <MODEL>  (190) 
2

>  <TORSDO>  (190) 
F 0

>  <SCORE>  (190) 
-5.3

>  <ligand_id>  (190) 
94

>  <original_smiles>  (190) 
c1cnc2conc2c1

>  <smiles>  (190) 
c1cnc2conc2c1

$$$$
95:0:0
     RDKit          3D

  9 10  0  0  0  0  0  0  0  0999 V2000
    7.0720  336.4350   12.2470 C   0  0  0  0  0  3  0  0  0  0  0  0
    7.5750  337.3040   11.2590 C   0  0  0  0  0  3  0  0  0  0  0  0
    7.6570  336.8980    9.9590 N   0  0  0  0  0  0  0  0  0  0  0  0
    7.2490  335.6490    9.6280 C   0  0  0  0  0  0  0  0  0  0  0  0
    7.2550  334.9410    8.1160 S   0  0  0  0  0  0  0  0  0  0  0  0
    6.6070  333.4590    8.6340 C   0  0  0  0  0  3  0  0  0  0  0  0
    6.3840  333.5270   10.0150 C   0  0  0  0  0  3  0  0  0  0  0  0
    6.7490  334.7610   10.5560 C   0  0  0  0  0  0  0  0  0  0  0  0
    6.6510  335.1430   11.8930 C   0  0  0  0  0  3  0  0  0  0  0  0
  2  1  2  0
  3  2  1  0
  4  3  2  0
  4  8  1  0
  5  6  1  0
  5  4  1  0
  6  7  2  0
  7  8  1  0
  8  9  2  0
  9  1  1  0
M  RAD  5   1   2   2   2   6   2   7   2   9   2
M  END
>  <MODEL>  (191) 
1

>  <TORSDO>  (191) 
F 0

>  <SCORE>  (191) 
-5.0

>  <ligand_id>  (191) 
95

>  <original_smiles>  (191) 
c1cnc2sccc2c1

>  <smiles>  (191) 
c1cnc2sccc2c1

$$$$
95:0:1
     RDKit          3D

  9 10  0  0  0  0  0  0  0  0999 V2000
   11.6260  353.4730   23.1830 C   0  0  0  0  0  3  0  0  0  0  0  0
   12.7750  354.1520   23.6330 C   0  0  0  0  0  3  0  0  0  0  0  0
   13.1850  354.0330   24.9290 N   0  0  0  0  0  0  0  0  0  0  0  0
   12.4730  353.2540   25.7800 C   0  0  0  0  0  0  0  0  0  0  0  0
   12.7820  352.9610   27.3950 S   0  0  0  0  0  0  0  0  0  0  0  0
   11.4490  351.9350   27.6250 C   0  0  0  0  0  3  0  0  0  0  0  0
   10.7540  351.8240   26.4130 C   0  0  0  0  0  3  0  0  0  0  0  0
   11.3420  352.5690   25.3900 C   0  0  0  0  0  0  0  0  0  0  0  0
   10.8960  352.6690   24.0730 C   0  0  0  0  0  3  0  0  0  0  0  0
  1  2  2  0
  1  9  1  0
  2  3  1  0
  3  4  2  0
  4  5  1  0
  5  6  1  0
  7  6  2  0
  8  4  1  0
  8  7  1  0
  9  8  2  0
M  RAD  5   1   2   2   2   6   2   7   2   9   2
M  END
>  <MODEL>  (192) 
2

>  <TORSDO>  (192) 
F 0

>  <SCORE>  (192) 
-4.9

>  <ligand_id>  (192) 
95

>  <original_smiles>  (192) 
c1cnc2sccc2c1

>  <smiles>  (192) 
c1cnc2sccc2c1

$$$$
