0:0:0
     RDKit          3D

 22 24  0  0  1  0  0  0  0  0999 V2000
    1.6612   -2.8739    3.5082 O   0  0  0  0  0  0  0  0  0  0  0  0
    0.6750   -2.2932    4.2571 C   0  0  0  0  0  0  0  0  0  0  0  0
    0.2725   -0.9926    4.0765 C   0  0  0  0  0  0  0  0  0  0  0  0
   -0.7714   -0.4785    4.8915 C   0  0  0  0  0  0  0  0  0  0  0  0
   -1.2518    0.9177    4.7402 C   0  0  0  0  0  0  0  0  0  0  0  0
   -1.7825    1.6337    5.8396 C   0  0  0  0  0  0  0  0  0  0  0  0
   -2.2311    2.9520    5.6564 C   0  0  0  0  0  0  0  0  0  0  0  0
   -2.1821    3.5985    4.4749 N   0  0  0  0  0  0  0  0  0  0  0  0
   -1.6625    2.9310    3.4234 C   0  0  0  0  0  0  0  0  0  0  0  0
   -1.1884    1.6082    3.5063 C   0  0  0  0  0  0  0  0  0  0  0  0
   -1.3764   -1.2055    5.8373 N   0  0  0  0  0  0  0  0  0  0  0  0
   -0.9596   -2.4727    6.0146 C   0  0  0  0  0  0  0  0  0  0  0  0
   -1.3852   -3.3989    6.8742 N   0  0  0  0  0  0  0  0  0  0  0  0
   -0.6091   -4.4806    6.5758 C   0  0  0  0  0  0  0  0  0  0  0  0
    0.2625   -4.3241    5.5896 N   0  0  0  0  0  0  0  0  0  0  0  0
    0.0560   -3.0279    5.2258 N   0  0  0  0  0  0  0  0  0  0  0  0
    0.7535   -0.3832    3.3192 H   0  0  0  0  0  0  0  0  0  0  0  0
   -1.8466    1.1786    6.8155 H   0  0  0  0  0  0  0  0  0  0  0  0
   -2.6435    3.5016    6.4890 H   0  0  0  0  0  0  0  0  0  0  0  0
   -1.6288    3.4659    2.4872 H   0  0  0  0  0  0  0  0  0  0  0  0
   -0.7957    1.1368    2.6174 H   0  0  0  0  0  0  0  0  0  0  0  0
   -0.7093   -5.4259    7.0906 H   0  0  0  0  0  0  0  0  0  0  0  0
  1  2  1  0
  2 16  1  0
  2  3  2  0
  3  4  1  0
  3 17  1  0
  4  5  1  0
  4 11  2  0
  5 10  1  0
  5  6  2  0
  6  7  1  0
  6 18  1  0
  7  8  2  0
  7 19  1  0
  8  9  1  0
  9 10  2  0
  9 20  1  0
 10 21  1  0
 11 12  1  0
 12 16  1  0
 12 13  2  0
 13 14  1  0
 14 15  2  0
 14 22  1  0
 15 16  1  0
M  CHG  1   1  -1
M  END
>  <i_m_ct_stereo_status>  (1) 
1

>  <s_m_source_file>  (1) 
/var/tmp/pbs.5102103.sched01/tmpf9vmf5rd/00u30c83p.sdf

>  <i_m_source_file_index>  (1) 
1

>  <i_lp_mmshare_version>  (1) 
48012

>  <i_f3d_flags>  (1) 
0

>  <s_epik_input>  (1) 
bjFbY0hdbm4oYzEyKWMoPU8pW2NIXWMoW25IXTIpLWMzW2NIXVtjSF1uW2NIXVtjSF0z

>  <s_epik_cmdline>  (1) 
J2VwaWtfcHl0aG9uJywgJy1waHQnLCAnMi4wJywgJy1waCcsICc3LjAnLCAnLXRuJywgJzgnLCAnLW1hJywgJzIwMCcsICctaW1hZScsICc8aW5maWxlLm1hZT4nLCAnLW9tYWUnLCAnPG91dGZpbGUubWFlPic=

>  <r_epik_Ionization_Penalty>  (1) 
0.0297124

>  <r_epik_Ionization_Penalty_Charging>  (1) 
1.16284e-12

>  <r_epik_Ionization_Penalty_Neutral>  (1) 
0.0297124

>  <r_epik_State_Penalty>  (1) 
0.0233023

>  <r_epik_Charging_Adjusted_Penalty>  (1) 
0.0233023

>  <i_epik_Tot_Q>  (1) 
-1

>  <i_epik_Tot_abs_Q>  (1) 
1

>  <s_lp_Force_Field>  (1) 
OPLS3e

>  <r_lp_Energy>  (1) 
22.0709

>  <b_lp_Chiralities_Consistent>  (1) 
1

>  <s_lp_Variant>  (1) 
0:0-1

>  <s_i_glide_gridfile>  (1) 
pfpi4k_grid

>  <i_i_glide_lignum>  (1) 
1

>  <i_i_glide_rotatable_bonds>  (1) 
1

>  <r_i_docking_score>  (1) 
-3.08779

>  <r_i_glide_ligand_efficiency>  (1) 
-0.192987

>  <r_i_glide_ligand_efficiency_sa>  (1) 
-0.486297

>  <r_i_glide_ligand_efficiency_ln>  (1) 
-0.818481

>  <r_i_glide_gscore>  (1) 
-3.08779

>  <r_i_glide_lipo>  (1) 
-0.0667119

>  <r_i_glide_hbond>  (1) 
-0.00944427

>  <r_i_glide_metal>  (1) 
-0

>  <r_i_glide_rewards>  (1) 
-1.96236

>  <r_i_glide_evdw>  (1) 
-17.0164

>  <r_i_glide_ecoul>  (1) 
-3.40937

>  <r_i_glide_erotb>  (1) 
0.369854

>  <r_i_glide_esite>  (1) 
-0.0569042

>  <r_i_glide_emodel>  (1) 
-26.1739

>  <r_i_glide_energy>  (1) 
-20.4258

>  <r_i_glide_einternal>  (1) 
0.0763778

>  <r_i_glide_intrahb_reward>  (1) 
-0

>  <i_i_glide_confnum>  (1) 
2

>  <i_i_glide_posenum>  (1) 
1

>  <r_i_glide_eff_state_penalty>  (1) 
0

>  <ligand_id>  (1) 
0

>  <original_smiles>  (1) 
O=c1cc(-c2ccncc2)[nH]c2ncnn12

>  <smiles>  (1) 
[H]c1nc2nc(-c3c([H])c([H])nc([H])c3[H])c([H])c([O-])n2n1

$$$$
0:0:1
     RDKit          3D

 22 24  0  0  1  0  0  0  0  0999 V2000
   -1.4435   -7.8196    2.4589 O   0  0  0  0  0  0  0  0  0  0  0  0
   -0.5425   -7.0137    3.0878 C   0  0  0  0  0  0  0  0  0  0  0  0
   -0.6778   -6.6577    4.4069 C   0  0  0  0  0  0  0  0  0  0  0  0
    0.2870   -5.7909    4.9812 C   0  0  0  0  0  0  0  0  0  0  0  0
    0.2051   -5.3752    6.3977 C   0  0  0  0  0  0  0  0  0  0  0  0
    1.3597   -5.3036    7.2076 C   0  0  0  0  0  0  0  0  0  0  0  0
    1.2376   -4.9174    8.5559 C   0  0  0  0  0  0  0  0  0  0  0  0
    0.0601   -4.5976    9.1308 N   0  0  0  0  0  0  0  0  0  0  0  0
   -1.0442   -4.6670    8.3657 C   0  0  0  0  0  0  0  0  0  0  0  0
   -1.0278   -5.0524    7.0128 C   0  0  0  0  0  0  0  0  0  0  0  0
    1.3142   -5.2884    4.2952 N   0  0  0  0  0  0  0  0  0  0  0  0
    1.4302   -5.6334    3.0012 C   0  0  0  0  0  0  0  0  0  0  0  0
    2.3364   -5.2664    2.0956 N   0  0  0  0  0  0  0  0  0  0  0  0
    1.9383   -5.9245    0.9702 C   0  0  0  0  0  0  0  0  0  0  0  0
    0.8055   -6.6142    1.0601 N   0  0  0  0  0  0  0  0  0  0  0  0
    0.4962   -6.4775    2.3799 N   0  0  0  0  0  0  0  0  0  0  0  0
   -1.5055   -7.0548    4.9820 H   0  0  0  0  0  0  0  0  0  0  0  0
    2.3281   -5.5543    6.8012 H   0  0  0  0  0  0  0  0  0  0  0  0
    2.1091   -4.8613    9.1923 H   0  0  0  0  0  0  0  0  0  0  0  0
   -1.9758   -4.4150    8.8520 H   0  0  0  0  0  0  0  0  0  0  0  0
   -1.9586   -5.0988    6.4720 H   0  0  0  0  0  0  0  0  0  0  0  0
    2.4752   -5.8550    0.0356 H   0  0  0  0  0  0  0  0  0  0  0  0
  1  2  1  0
  2 16  1  0
  2  3  2  0
  3  4  1  0
  3 17  1  0
  4  5  1  0
  4 11  2  0
  5 10  1  0
  5  6  2  0
  6  7  1  0
  6 18  1  0
  7  8  2  0
  7 19  1  0
  8  9  1  0
  9 10  2  0
  9 20  1  0
 10 21  1  0
 11 12  1  0
 12 16  1  0
 12 13  2  0
 13 14  1  0
 14 15  2  0
 14 22  1  0
 15 16  1  0
M  CHG  1   1  -1
M  END
>  <i_m_ct_stereo_status>  (2) 
1

>  <s_m_source_file>  (2) 
/var/tmp/pbs.5102103.sched01/tmpf9vmf5rd/00u30c83p.sdf

>  <i_m_source_file_index>  (2) 
1

>  <i_lp_mmshare_version>  (2) 
48012

>  <i_f3d_flags>  (2) 
0

>  <s_epik_input>  (2) 
bjFbY0hdbm4oYzEyKWMoPU8pW2NIXWMoW25IXTIpLWMzW2NIXVtjSF1uW2NIXVtjSF0z

>  <s_epik_cmdline>  (2) 
J2VwaWtfcHl0aG9uJywgJy1waHQnLCAnMi4wJywgJy1waCcsICc3LjAnLCAnLXRuJywgJzgnLCAnLW1hJywgJzIwMCcsICctaW1hZScsICc8aW5maWxlLm1hZT4nLCAnLW9tYWUnLCAnPG91dGZpbGUubWFlPic=

>  <r_epik_Ionization_Penalty>  (2) 
0.0297124

>  <r_epik_Ionization_Penalty_Charging>  (2) 
1.16284e-12

>  <r_epik_Ionization_Penalty_Neutral>  (2) 
0.0297124

>  <r_epik_State_Penalty>  (2) 
0.0233023

>  <r_epik_Charging_Adjusted_Penalty>  (2) 
0.0233023

>  <i_epik_Tot_Q>  (2) 
-1

>  <i_epik_Tot_abs_Q>  (2) 
1

>  <s_lp_Force_Field>  (2) 
OPLS3e

>  <r_lp_Energy>  (2) 
22.0709

>  <b_lp_Chiralities_Consistent>  (2) 
1

>  <s_lp_Variant>  (2) 
0:0-1

>  <s_i_glide_gridfile>  (2) 
pfpi4k_grid

>  <i_i_glide_lignum>  (2) 
1

>  <i_i_glide_rotatable_bonds>  (2) 
1

>  <r_i_docking_score>  (2) 
-2.92748

>  <r_i_glide_ligand_efficiency>  (2) 
-0.182967

>  <r_i_glide_ligand_efficiency_sa>  (2) 
-0.461049

>  <r_i_glide_ligand_efficiency_ln>  (2) 
-0.775986

>  <r_i_glide_gscore>  (2) 
-2.92748

>  <r_i_glide_lipo>  (2) 
-0.0603706

>  <r_i_glide_hbond>  (2) 
-0.101504

>  <r_i_glide_metal>  (2) 
-0

>  <r_i_glide_rewards>  (2) 
-1.96236

>  <r_i_glide_evdw>  (2) 
-15.7734

>  <r_i_glide_ecoul>  (2) 
-1.4578

>  <r_i_glide_erotb>  (2) 
0.369854

>  <r_i_glide_esite>  (2) 
-0.165761

>  <r_i_glide_emodel>  (2) 
-22.4807

>  <r_i_glide_energy>  (2) 
-17.2312

>  <r_i_glide_einternal>  (2) 
0.450702

>  <r_i_glide_intrahb_reward>  (2) 
-0

>  <i_i_glide_confnum>  (2) 
6

>  <i_i_glide_posenum>  (2) 
3

>  <r_i_glide_eff_state_penalty>  (2) 
0

>  <ligand_id>  (2) 
0

>  <original_smiles>  (2) 
O=c1cc(-c2ccncc2)[nH]c2ncnn12

>  <smiles>  (2) 
[H]c1nc2nc(-c3c([H])c([H])nc([H])c3[H])c([H])c([O-])n2n1

$$$$
0:0:2
     RDKit          3D

 22 24  0  0  1  0  0  0  0  0999 V2000
   -1.0171   -3.4514    7.3536 O   0  0  0  0  0  0  0  0  0  0  0  0
   -0.4087   -3.1836    6.1606 C   0  0  0  0  0  0  0  0  0  0  0  0
    0.2320   -4.1493    5.4199 C   0  0  0  0  0  0  0  0  0  0  0  0
    0.8547   -3.7742    4.1977 C   0  0  0  0  0  0  0  0  0  0  0  0
    1.5478   -4.7661    3.3377 C   0  0  0  0  0  0  0  0  0  0  0  0
    2.5421   -4.3722    2.4097 C   0  0  0  0  0  0  0  0  0  0  0  0
    3.1778   -5.3421    1.6155 C   0  0  0  0  0  0  0  0  0  0  0  0
    2.8887   -6.6558    1.6834 N   0  0  0  0  0  0  0  0  0  0  0  0
    1.9499   -7.0451    2.5673 C   0  0  0  0  0  0  0  0  0  0  0  0
    1.2524   -6.1497    3.4002 C   0  0  0  0  0  0  0  0  0  0  0  0
    0.8361   -2.5241    3.7342 N   0  0  0  0  0  0  0  0  0  0  0  0
    0.2034   -1.5906    4.4631 C   0  0  0  0  0  0  0  0  0  0  0  0
    0.0288   -0.2935    4.2276 N   0  0  0  0  0  0  0  0  0  0  0  0
   -0.6785    0.1296    5.3106 C   0  0  0  0  0  0  0  0  0  0  0  0
   -0.9874   -0.7933    6.2122 N   0  0  0  0  0  0  0  0  0  0  0  0
   -0.4258   -1.9097    5.6766 N   0  0  0  0  0  0  0  0  0  0  0  0
    0.2643   -5.1682    5.7842 H   0  0  0  0  0  0  0  0  0  0  0  0
    2.8169   -3.3329    2.3054 H   0  0  0  0  0  0  0  0  0  0  0  0
    3.9415   -5.0539    0.9078 H   0  0  0  0  0  0  0  0  0  0  0  0
    1.7507   -8.1056    2.6105 H   0  0  0  0  0  0  0  0  0  0  0  0
    0.5080   -6.5411    4.0773 H   0  0  0  0  0  0  0  0  0  0  0  0
   -0.9842    1.1568    5.4412 H   0  0  0  0  0  0  0  0  0  0  0  0
  1  2  1  0
  2 16  1  0
  2  3  2  0
  3  4  1  0
  3 17  1  0
  4  5  1  0
  4 11  2  0
  5 10  1  0
  5  6  2  0
  6  7  1  0
  6 18  1  0
  7  8  2  0
  7 19  1  0
  8  9  1  0
  9 10  2  0
  9 20  1  0
 10 21  1  0
 11 12  1  0
 12 16  1  0
 12 13  2  0
 13 14  1  0
 14 15  2  0
 14 22  1  0
 15 16  1  0
M  CHG  1   1  -1
M  END
>  <i_m_ct_stereo_status>  (3) 
1

>  <s_m_source_file>  (3) 
/var/tmp/pbs.5102103.sched01/tmpf9vmf5rd/00u30c83p.sdf

>  <i_m_source_file_index>  (3) 
1

>  <i_lp_mmshare_version>  (3) 
48012

>  <i_f3d_flags>  (3) 
0

>  <s_epik_input>  (3) 
bjFbY0hdbm4oYzEyKWMoPU8pW2NIXWMoW25IXTIpLWMzW2NIXVtjSF1uW2NIXVtjSF0z

>  <s_epik_cmdline>  (3) 
J2VwaWtfcHl0aG9uJywgJy1waHQnLCAnMi4wJywgJy1waCcsICc3LjAnLCAnLXRuJywgJzgnLCAnLW1hJywgJzIwMCcsICctaW1hZScsICc8aW5maWxlLm1hZT4nLCAnLW9tYWUnLCAnPG91dGZpbGUubWFlPic=

>  <r_epik_Ionization_Penalty>  (3) 
0.0297124

>  <r_epik_Ionization_Penalty_Charging>  (3) 
1.16284e-12

>  <r_epik_Ionization_Penalty_Neutral>  (3) 
0.0297124

>  <r_epik_State_Penalty>  (3) 
0.0233023

>  <r_epik_Charging_Adjusted_Penalty>  (3) 
0.0233023

>  <i_epik_Tot_Q>  (3) 
-1

>  <i_epik_Tot_abs_Q>  (3) 
1

>  <s_lp_Force_Field>  (3) 
OPLS3e

>  <r_lp_Energy>  (3) 
22.0709

>  <b_lp_Chiralities_Consistent>  (3) 
1

>  <s_lp_Variant>  (3) 
0:0-1

>  <s_i_glide_gridfile>  (3) 
pfpi4k_grid

>  <i_i_glide_lignum>  (3) 
1

>  <i_i_glide_rotatable_bonds>  (3) 
1

>  <r_i_docking_score>  (3) 
-2.36371

>  <r_i_glide_ligand_efficiency>  (3) 
-0.147732

>  <r_i_glide_ligand_efficiency_sa>  (3) 
-0.372261

>  <r_i_glide_ligand_efficiency_ln>  (3) 
-0.626548

>  <r_i_glide_gscore>  (3) 
-2.36371

>  <r_i_glide_lipo>  (3) 
-0.0167065

>  <r_i_glide_hbond>  (3) 
-0.0463806

>  <r_i_glide_metal>  (3) 
-0

>  <r_i_glide_rewards>  (3) 
-1.96236

>  <r_i_glide_evdw>  (3) 
-12.5876

>  <r_i_glide_ecoul>  (3) 
-0.149645

>  <r_i_glide_erotb>  (3) 
0.369854

>  <r_i_glide_esite>  (3) 
-0.056292

>  <r_i_glide_emodel>  (3) 
-17.1469

>  <r_i_glide_energy>  (3) 
-12.7372

>  <r_i_glide_einternal>  (3) 
0.020839

>  <r_i_glide_intrahb_reward>  (3) 
-0

>  <i_i_glide_confnum>  (3) 
3

>  <i_i_glide_posenum>  (3) 
38

>  <r_i_glide_eff_state_penalty>  (3) 
0

>  <ligand_id>  (3) 
0

>  <original_smiles>  (3) 
O=c1cc(-c2ccncc2)[nH]c2ncnn12

>  <smiles>  (3) 
[H]c1nc2nc(-c3c([H])c([H])nc([H])c3[H])c([H])c([O-])n2n1

$$$$
0:1:0
     RDKit          3D

 23 25  0  0  1  0  0  0  0  0999 V2000
    4.5781   -7.8123    2.3904 O   0  0  0  0  0  0  0  0  0  0  0  0
    4.0133   -6.9243    1.7600 C   0  0  0  0  0  0  0  0  0  0  0  0
    4.6954   -5.8122    1.1410 C   0  0  0  0  0  0  0  0  0  0  0  0
    3.9596   -4.9052    0.4468 C   0  0  0  0  0  0  0  0  0  0  0  0
    4.5773   -3.7682   -0.2544 C   0  0  0  0  0  0  0  0  0  0  0  0
    3.8219   -2.6236   -0.6052 C   0  0  0  0  0  0  0  0  0  0  0  0
    4.4902   -1.5494   -1.2375 C   0  0  0  0  0  0  0  0  0  0  0  0
    5.8080   -1.5534   -1.5174 N   0  0  0  0  0  0  0  0  0  0  0  0
    6.5183   -2.6547   -1.1867 C   0  0  0  0  0  0  0  0  0  0  0  0
    5.9560   -3.7743   -0.5463 C   0  0  0  0  0  0  0  0  0  0  0  0
    2.5859   -5.0961    0.3158 N   0  0  0  0  0  0  0  0  0  0  0  0
    1.9145   -6.1470    0.9420 C   0  0  0  0  0  0  0  0  0  0  0  0
    0.5967   -6.3605    0.9248 N   0  0  0  0  0  0  0  0  0  0  0  0
    0.5541   -7.5226    1.6793 C   0  0  0  0  0  0  0  0  0  0  0  0
    1.7161   -7.9751    2.1536 N   0  0  0  0  0  0  0  0  0  0  0  0
    2.5814   -7.0491    1.6659 N   0  0  0  0  0  0  0  0  0  0  0  0
    2.0847   -4.5199   -0.3446 H   0  0  0  0  0  0  0  0  0  0  0  0
    5.7683   -5.7335    1.2479 H   0  0  0  0  0  0  0  0  0  0  0  0
    2.7636   -2.5317   -0.4002 H   0  0  0  0  0  0  0  0  0  0  0  0
    3.9481   -0.6569   -1.5205 H   0  0  0  0  0  0  0  0  0  0  0  0
    7.5726   -2.6365   -1.4189 H   0  0  0  0  0  0  0  0  0  0  0  0
    6.5941   -4.6113   -0.3100 H   0  0  0  0  0  0  0  0  0  0  0  0
   -0.3635   -8.0786    1.8801 H   0  0  0  0  0  0  0  0  0  0  0  0
  1  2  2  0
  2 16  1  0
  2  3  1  0
  3  4  2  0
  3 18  1  0
  4  5  1  0
  4 11  1  0
  5 10  1  0
  5  6  2  0
  6  7  1  0
  6 19  1  0
  7  8  2  0
  7 20  1  0
  8  9  1  0
  9 10  2  0
  9 21  1  0
 10 22  1  0
 11 17  1  0
 11 12  1  0
 12 16  1  0
 12 13  2  0
 13 14  1  0
 14 15  2  0
 14 23  1  0
 15 16  1  0
M  END
>  <i_m_ct_stereo_status>  (4) 
1

>  <s_m_source_file>  (4) 
/var/tmp/pbs.5102103.sched01/tmpf9vmf5rd/00u30c83p.sdf

>  <i_m_source_file_index>  (4) 
2

>  <i_lp_mmshare_version>  (4) 
48012

>  <i_f3d_flags>  (4) 
0

>  <s_epik_input>  (4) 
bjFbY0hdbm4oYzEyKWMoPU8pW2NIXWMoW25IXTIpLWMzW2NIXVtjSF1uW2NIXVtjSF0z

>  <s_epik_cmdline>  (4) 
J2VwaWtfcHl0aG9uJywgJy1waHQnLCAnMi4wJywgJy1waCcsICc3LjAnLCAnLXRuJywgJzgnLCAnLW1hJywgJzIwMCcsICctaW1hZScsICc8aW5maWxlLm1hZT4nLCAnLW9tYWUnLCAnPG91dGZpbGUubWFlPic=

>  <r_epik_Ionization_Penalty>  (4) 
1.9798

>  <r_epik_Ionization_Penalty_Charging>  (4) 
1.97173

>  <r_epik_Ionization_Penalty_Neutral>  (4) 
0.00806716

>  <r_epik_State_Penalty>  (4) 
2.1042

>  <r_epik_Charging_Adjusted_Penalty>  (4) 
4.07594

>  <i_epik_Tot_Q>  (4) 
0

>  <i_epik_Tot_abs_Q>  (4) 
0

>  <s_lp_Force_Field>  (4) 
OPLS3e

>  <r_lp_Energy>  (4) 
25.2504

>  <b_lp_Chiralities_Consistent>  (4) 
1

>  <s_lp_Variant>  (4) 
0:0-2

>  <s_i_glide_gridfile>  (4) 
pfpi4k_grid

>  <i_i_glide_lignum>  (4) 
2

>  <i_i_glide_rotatable_bonds>  (4) 
1

>  <r_i_docking_score>  (4) 
-4.00779

>  <r_i_glide_ligand_efficiency>  (4) 
-0.250487

>  <r_i_glide_ligand_efficiency_sa>  (4) 
-0.631187

>  <r_i_glide_ligand_efficiency_ln>  (4) 
-1.06234

>  <r_i_glide_gscore>  (4) 
-4.00779

>  <r_i_glide_lipo>  (4) 
-0.218393

>  <r_i_glide_hbond>  (4) 
-0.229869

>  <r_i_glide_metal>  (4) 
-0

>  <r_i_glide_rewards>  (4) 
-1.95549

>  <r_i_glide_evdw>  (4) 
-19.8256

>  <r_i_glide_ecoul>  (4) 
-5.43702

>  <r_i_glide_erotb>  (4) 
0.366921

>  <r_i_glide_esite>  (4) 
-0.164133

>  <r_i_glide_emodel>  (4) 
-31.8548

>  <r_i_glide_energy>  (4) 
-25.2626

>  <r_i_glide_einternal>  (4) 
0.0202799

>  <r_i_glide_intrahb_reward>  (4) 
-0

>  <i_i_glide_confnum>  (4) 
3

>  <i_i_glide_posenum>  (4) 
37

>  <r_i_glide_eff_state_penalty>  (4) 
0

>  <ligand_id>  (4) 
0

>  <original_smiles>  (4) 
O=c1cc(-c2ccncc2)[nH]c2ncnn12

>  <smiles>  (4) 
[H]c1nc2n([H])c(-c3c([H])c([H])nc([H])c3[H])c([H])c(=O)n2n1

$$$$
0:1:1
     RDKit          3D

 23 25  0  0  1  0  0  0  0  0999 V2000
    5.5169   -5.7038    1.8588 O   0  0  0  0  0  0  0  0  0  0  0  0
    4.5928   -5.2870    1.1847 C   0  0  0  0  0  0  0  0  0  0  0  0
    4.7147   -4.1975    0.2153 C   0  0  0  0  0  0  0  0  0  0  0  0
    3.6385   -3.8755   -0.5215 C   0  0  0  0  0  0  0  0  0  0  0  0
    3.6762   -2.7777   -1.5046 C   0  0  0  0  0  0  0  0  0  0  0  0
    4.5670   -1.6946   -1.3294 C   0  0  0  0  0  0  0  0  0  0  0  0
    4.6073   -0.7026   -2.3246 C   0  0  0  0  0  0  0  0  0  0  0  0
    3.8706   -0.7392   -3.4508 N   0  0  0  0  0  0  0  0  0  0  0  0
    3.0126   -1.7674   -3.5960 C   0  0  0  0  0  0  0  0  0  0  0  0
    2.8776   -2.8152   -2.6663 C   0  0  0  0  0  0  0  0  0  0  0  0
    2.4275   -4.5346   -0.3213 N   0  0  0  0  0  0  0  0  0  0  0  0
    2.2745   -5.5679    0.6185 C   0  0  0  0  0  0  0  0  0  0  0  0
    1.1716   -6.2591    0.8876 N   0  0  0  0  0  0  0  0  0  0  0  0
    1.6591   -7.1104    1.8610 C   0  0  0  0  0  0  0  0  0  0  0  0
    2.9457   -6.9515    2.1926 N   0  0  0  0  0  0  0  0  0  0  0  0
    3.3191   -5.9355    1.3654 N   0  0  0  0  0  0  0  0  0  0  0  0
    1.6808   -4.3787   -0.9769 H   0  0  0  0  0  0  0  0  0  0  0  0
    5.6755   -3.7129    0.0862 H   0  0  0  0  0  0  0  0  0  0  0  0
    5.1888   -1.6089   -0.4511 H   0  0  0  0  0  0  0  0  0  0  0  0
    5.2782    0.1373   -2.2371 H   0  0  0  0  0  0  0  0  0  0  0  0
    2.4254   -1.7570   -4.5000 H   0  0  0  0  0  0  0  0  0  0  0  0
    2.1885   -3.6272   -2.8644 H   0  0  0  0  0  0  0  0  0  0  0  0
    1.0581   -7.8672    2.3541 H   0  0  0  0  0  0  0  0  0  0  0  0
  1  2  2  0
  2 16  1  0
  2  3  1  0
  3  4  2  0
  3 18  1  0
  4  5  1  0
  4 11  1  0
  5 10  1  0
  5  6  2  0
  6  7  1  0
  6 19  1  0
  7  8  2  0
  7 20  1  0
  8  9  1  0
  9 10  2  0
  9 21  1  0
 10 22  1  0
 11 17  1  0
 11 12  1  0
 12 16  1  0
 12 13  2  0
 13 14  1  0
 14 15  2  0
 14 23  1  0
 15 16  1  0
M  END
>  <i_m_ct_stereo_status>  (5) 
1

>  <s_m_source_file>  (5) 
/var/tmp/pbs.5102103.sched01/tmpf9vmf5rd/00u30c83p.sdf

>  <i_m_source_file_index>  (5) 
2

>  <i_lp_mmshare_version>  (5) 
48012

>  <i_f3d_flags>  (5) 
0

>  <s_epik_input>  (5) 
bjFbY0hdbm4oYzEyKWMoPU8pW2NIXWMoW25IXTIpLWMzW2NIXVtjSF1uW2NIXVtjSF0z

>  <s_epik_cmdline>  (5) 
J2VwaWtfcHl0aG9uJywgJy1waHQnLCAnMi4wJywgJy1waCcsICc3LjAnLCAnLXRuJywgJzgnLCAnLW1hJywgJzIwMCcsICctaW1hZScsICc8aW5maWxlLm1hZT4nLCAnLW9tYWUnLCAnPG91dGZpbGUubWFlPic=

>  <r_epik_Ionization_Penalty>  (5) 
1.9798

>  <r_epik_Ionization_Penalty_Charging>  (5) 
1.97173

>  <r_epik_Ionization_Penalty_Neutral>  (5) 
0.00806716

>  <r_epik_State_Penalty>  (5) 
2.1042

>  <r_epik_Charging_Adjusted_Penalty>  (5) 
4.07594

>  <i_epik_Tot_Q>  (5) 
0

>  <i_epik_Tot_abs_Q>  (5) 
0

>  <s_lp_Force_Field>  (5) 
OPLS3e

>  <r_lp_Energy>  (5) 
25.2504

>  <b_lp_Chiralities_Consistent>  (5) 
1

>  <s_lp_Variant>  (5) 
0:0-2

>  <s_i_glide_gridfile>  (5) 
pfpi4k_grid

>  <i_i_glide_lignum>  (5) 
2

>  <i_i_glide_rotatable_bonds>  (5) 
1

>  <r_i_docking_score>  (5) 
-3.92967

>  <r_i_glide_ligand_efficiency>  (5) 
-0.245605

>  <r_i_glide_ligand_efficiency_sa>  (5) 
-0.618885

>  <r_i_glide_ligand_efficiency_ln>  (5) 
-1.04164

>  <r_i_glide_gscore>  (5) 
-3.92967

>  <r_i_glide_lipo>  (5) 
-0.301801

>  <r_i_glide_hbond>  (5) 
-0.155841

>  <r_i_glide_metal>  (5) 
-0

>  <r_i_glide_rewards>  (5) 
-2.00278

>  <r_i_glide_evdw>  (5) 
-22.1425

>  <r_i_glide_ecoul>  (5) 
-3.90209

>  <r_i_glide_erotb>  (5) 
0.366921

>  <r_i_glide_esite>  (5) 
-0.14373

>  <r_i_glide_emodel>  (5) 
-32.1942

>  <r_i_glide_energy>  (5) 
-26.0446

>  <r_i_glide_einternal>  (5) 
0.639008

>  <r_i_glide_intrahb_reward>  (5) 
-0

>  <i_i_glide_confnum>  (5) 
2

>  <i_i_glide_posenum>  (5) 
7

>  <r_i_glide_eff_state_penalty>  (5) 
0

>  <ligand_id>  (5) 
0

>  <original_smiles>  (5) 
O=c1cc(-c2ccncc2)[nH]c2ncnn12

>  <smiles>  (5) 
[H]c1nc2n([H])c(-c3c([H])c([H])nc([H])c3[H])c([H])c(=O)n2n1

$$$$
0:1:2
     RDKit          3D

 23 25  0  0  1  0  0  0  0  0999 V2000
    2.8128   -5.3868    2.0389 O   0  0  0  0  0  0  0  0  0  0  0  0
    3.0492   -4.2649    1.6005 C   0  0  0  0  0  0  0  0  0  0  0  0
    3.1678   -3.9477    0.1938 C   0  0  0  0  0  0  0  0  0  0  0  0
    3.3792   -2.6566   -0.1670 C   0  0  0  0  0  0  0  0  0  0  0  0
    3.4371   -2.2437   -1.5806 C   0  0  0  0  0  0  0  0  0  0  0  0
    2.8630   -3.0481   -2.5818 C   0  0  0  0  0  0  0  0  0  0  0  0
    2.9753   -2.6517   -3.9239 C   0  0  0  0  0  0  0  0  0  0  0  0
    3.6139   -1.5293   -4.3209 N   0  0  0  0  0  0  0  0  0  0  0  0
    4.1238   -0.7409   -3.3525 C   0  0  0  0  0  0  0  0  0  0  0  0
    4.0986   -1.0580   -1.9785 C   0  0  0  0  0  0  0  0  0  0  0  0
    3.4293   -1.6644    0.8113 N   0  0  0  0  0  0  0  0  0  0  0  0
    3.3628   -1.9567    2.1727 C   0  0  0  0  0  0  0  0  0  0  0  0
    3.4607   -1.0955    3.1875 N   0  0  0  0  0  0  0  0  0  0  0  0
    3.2953   -1.9642    4.2443 C   0  0  0  0  0  0  0  0  0  0  0  0
    3.1207   -3.2540    3.9383 N   0  0  0  0  0  0  0  0  0  0  0  0
    3.1815   -3.2173    2.5829 N   0  0  0  0  0  0  0  0  0  0  0  0
    3.3936   -0.6943    0.5362 H   0  0  0  0  0  0  0  0  0  0  0  0
    3.0715   -4.7434   -0.5314 H   0  0  0  0  0  0  0  0  0  0  0  0
    2.3286   -3.9548   -2.3547 H   0  0  0  0  0  0  0  0  0  0  0  0
    2.5485   -3.2651   -4.6985 H   0  0  0  0  0  0  0  0  0  0  0  0
    4.6008    0.1658   -3.6914 H   0  0  0  0  0  0  0  0  0  0  0  0
    4.5546   -0.3895   -1.2644 H   0  0  0  0  0  0  0  0  0  0  0  0
    3.2893   -1.6396    5.2824 H   0  0  0  0  0  0  0  0  0  0  0  0
  1  2  2  0
  2 16  1  0
  2  3  1  0
  3  4  2  0
  3 18  1  0
  4  5  1  0
  4 11  1  0
  5 10  1  0
  5  6  2  0
  6  7  1  0
  6 19  1  0
  7  8  2  0
  7 20  1  0
  8  9  1  0
  9 10  2  0
  9 21  1  0
 10 22  1  0
 11 17  1  0
 11 12  1  0
 12 16  1  0
 12 13  2  0
 13 14  1  0
 14 15  2  0
 14 23  1  0
 15 16  1  0
M  END
>  <i_m_ct_stereo_status>  (6) 
1

>  <s_m_source_file>  (6) 
/var/tmp/pbs.5102103.sched01/tmpf9vmf5rd/00u30c83p.sdf

>  <i_m_source_file_index>  (6) 
2

>  <i_lp_mmshare_version>  (6) 
48012

>  <i_f3d_flags>  (6) 
0

>  <s_epik_input>  (6) 
bjFbY0hdbm4oYzEyKWMoPU8pW2NIXWMoW25IXTIpLWMzW2NIXVtjSF1uW2NIXVtjSF0z

>  <s_epik_cmdline>  (6) 
J2VwaWtfcHl0aG9uJywgJy1waHQnLCAnMi4wJywgJy1waCcsICc3LjAnLCAnLXRuJywgJzgnLCAnLW1hJywgJzIwMCcsICctaW1hZScsICc8aW5maWxlLm1hZT4nLCAnLW9tYWUnLCAnPG91dGZpbGUubWFlPic=

>  <r_epik_Ionization_Penalty>  (6) 
1.9798

>  <r_epik_Ionization_Penalty_Charging>  (6) 
1.97173

>  <r_epik_Ionization_Penalty_Neutral>  (6) 
0.00806716

>  <r_epik_State_Penalty>  (6) 
2.1042

>  <r_epik_Charging_Adjusted_Penalty>  (6) 
4.07594

>  <i_epik_Tot_Q>  (6) 
0

>  <i_epik_Tot_abs_Q>  (6) 
0

>  <s_lp_Force_Field>  (6) 
OPLS3e

>  <r_lp_Energy>  (6) 
25.2504

>  <b_lp_Chiralities_Consistent>  (6) 
1

>  <s_lp_Variant>  (6) 
0:0-2

>  <s_i_glide_gridfile>  (6) 
pfpi4k_grid

>  <i_i_glide_lignum>  (6) 
2

>  <i_i_glide_rotatable_bonds>  (6) 
1

>  <r_i_docking_score>  (6) 
-3.81255

>  <r_i_glide_ligand_efficiency>  (6) 
-0.238284

>  <r_i_glide_ligand_efficiency_sa>  (6) 
-0.600439

>  <r_i_glide_ligand_efficiency_ln>  (6) 
-1.01059

>  <r_i_glide_gscore>  (6) 
-3.81255

>  <r_i_glide_lipo>  (6) 
-0.319434

>  <r_i_glide_hbond>  (6) 
-0.260923

>  <r_i_glide_metal>  (6) 
-0

>  <r_i_glide_rewards>  (6) 
-1.95567

>  <r_i_glide_evdw>  (6) 
-20.1706

>  <r_i_glide_ecoul>  (6) 
-3.89938

>  <r_i_glide_erotb>  (6) 
0.366921

>  <r_i_glide_esite>  (6) 
-0.0500023

>  <r_i_glide_emodel>  (6) 
-30.2836

>  <r_i_glide_energy>  (6) 
-24.07

>  <r_i_glide_einternal>  (6) 
0.115087

>  <r_i_glide_intrahb_reward>  (6) 
-0

>  <i_i_glide_confnum>  (6) 
2

>  <i_i_glide_posenum>  (6) 
31

>  <r_i_glide_eff_state_penalty>  (6) 
0

>  <ligand_id>  (6) 
0

>  <original_smiles>  (6) 
O=c1cc(-c2ccncc2)[nH]c2ncnn12

>  <smiles>  (6) 
[H]c1nc2n([H])c(-c3c([H])c([H])nc([H])c3[H])c([H])c(=O)n2n1

$$$$
1:0:0
     RDKit          3D

 28 30  0  0  1  0  0  0  0  0999 V2000
    4.0428   -4.1731   -0.2378 N   0  0  0  0  0  0  0  0  0  0  0  0
    3.5161   -5.1971    0.4894 C   0  0  0  0  0  0  0  0  0  0  0  0
    2.1869   -5.2933    0.4514 N   0  0  0  0  0  0  0  0  0  0  0  0
    1.7036   -6.2955    1.1931 C   0  0  0  0  0  0  0  0  0  0  0  0
    0.3632   -6.6132    1.3238 N   0  0  0  0  0  0  0  0  0  0  0  0
    0.4311   -7.6577    2.1457 C   0  0  0  0  0  0  0  0  0  0  0  0
    1.6500   -8.0314    2.5895 N   0  0  0  0  0  0  0  0  0  0  0  0
    1.9466   -9.1271    3.4937 C   0  0  0  0  0  0  0  0  0  0  0  0
    1.5815  -10.4835    2.8823 C   0  0  0  0  0  0  0  0  0  0  0  0
    1.1689  -11.3822    4.0510 C   0  0  0  0  0  0  0  0  0  0  0  0
    1.0624  -10.4791    5.2863 C   0  0  0  0  0  0  0  0  0  0  0  0
    1.1410   -9.0394    4.7939 C   0  0  0  0  0  0  0  0  0  0  0  0
    2.5284   -7.1605    1.9632 C   0  0  0  0  0  0  0  0  0  0  0  0
    3.9153   -6.9557    1.9219 C   0  0  0  0  0  0  0  0  0  0  0  0
    4.3967   -5.9491    1.1610 N   0  0  0  0  0  0  0  0  0  0  0  0
    3.4302   -3.6078   -0.8073 H   0  0  0  0  0  0  0  0  0  0  0  0
   -0.4577   -8.1875    2.4564 H   0  0  0  0  0  0  0  0  0  0  0  0
    3.0113   -9.1226    3.7410 H   0  0  0  0  0  0  0  0  0  0  0  0
    0.7342  -10.3919    2.1991 H   0  0  0  0  0  0  0  0  0  0  0  0
    2.4115  -10.9000    2.3103 H   0  0  0  0  0  0  0  0  0  0  0  0
    0.2167  -11.8679    3.8348 H   0  0  0  0  0  0  0  0  0  0  0  0
    1.9014  -12.1708    4.2241 H   0  0  0  0  0  0  0  0  0  0  0  0
    0.1476  -10.6631    5.8506 H   0  0  0  0  0  0  0  0  0  0  0  0
    1.8984  -10.6751    5.9587 H   0  0  0  0  0  0  0  0  0  0  0  0
    1.5963   -8.3683    5.5261 H   0  0  0  0  0  0  0  0  0  0  0  0
    0.1235   -8.6873    4.6180 H   0  0  0  0  0  0  0  0  0  0  0  0
    4.6154   -7.5611    2.4798 H   0  0  0  0  0  0  0  0  0  0  0  0
    5.0417   -4.0643   -0.2867 H   0  0  0  0  0  0  0  0  0  0  0  0
  1  2  1  0
  1 16  1  0
  1 28  1  0
  2 15  2  0
  2  3  1  0
  3  4  2  0
  4 13  1  0
  4  5  1  0
  5  6  2  0
  6  7  1  0
  6 17  1  0
  7  8  1  0
  7 13  1  0
  8 12  1  0
  8  9  1  0
  8 18  1  0
  9 10  1  0
  9 19  1  0
  9 20  1  0
 10 11  1  0
 10 21  1  0
 10 22  1  0
 11 12  1  0
 11 23  1  0
 11 24  1  0
 12 25  1  0
 12 26  1  0
 13 14  2  0
 14 15  1  0
 14 27  1  0
M  END
>  <i_m_ct_stereo_status>  (7) 
1

>  <s_m_source_file>  (7) 
/var/tmp/pbs.5102103.sched01/tmpf9vmf5rd/00u30c83p.sdf

>  <i_m_source_file_index>  (7) 
3

>  <i_lp_mmshare_version>  (7) 
48012

>  <i_f3d_flags>  (7) 
0

>  <s_epik_input>  (7) 
W0hdL049YyhcbjEpW25IXVtjSF1jKGMxMiluKFtjSF1uMilbQ0hdM1tDSDJdW0NIMl1bQ0gyXVtDSDJdMw==

>  <s_epik_cmdline>  (7) 
J2VwaWtfcHl0aG9uJywgJy1waHQnLCAnMi4wJywgJy1waCcsICc3LjAnLCAnLXRuJywgJzgnLCAnLW1hJywgJzIwMCcsICctaW1hZScsICc8aW5maWxlLm1hZT4nLCAnLW9tYWUnLCAnPG91dGZpbGUubWFlPic=

>  <r_epik_Ionization_Penalty>  (7) 
0.00125126

>  <r_epik_Ionization_Penalty_Charging>  (7) 
0

>  <r_epik_Ionization_Penalty_Neutral>  (7) 
0.00125126

>  <r_epik_State_Penalty>  (7) 
0.00077037

>  <r_epik_Charging_Adjusted_Penalty>  (7) 
0.00077037

>  <i_epik_Tot_Q>  (7) 
0

>  <i_epik_Tot_abs_Q>  (7) 
0

>  <s_lp_Force_Field>  (7) 
OPLS3e

>  <r_lp_Energy>  (7) 
19.0296

>  <b_lp_Chiralities_Consistent>  (7) 
1

>  <s_lp_Variant>  (7) 
1:0-1

>  <s_i_glide_gridfile>  (7) 
pfpi4k_grid

>  <i_i_glide_lignum>  (7) 
3

>  <i_i_glide_rotatable_bonds>  (7) 
1

>  <r_i_docking_score>  (7) 
-3.72068

>  <r_i_glide_ligand_efficiency>  (7) 
-0.248046

>  <r_i_glide_ligand_efficiency_sa>  (7) 
-0.611733

>  <r_i_glide_ligand_efficiency_ln>  (7) 
-1.00341

>  <r_i_glide_gscore>  (7) 
-3.72068

>  <r_i_glide_lipo>  (7) 
-0.334202

>  <r_i_glide_hbond>  (7) 
-0.152153

>  <r_i_glide_metal>  (7) 
-0

>  <r_i_glide_rewards>  (7) 
-2.02334

>  <r_i_glide_evdw>  (7) 
-19.4256

>  <r_i_glide_ecoul>  (7) 
-3.27646

>  <r_i_glide_erotb>  (7) 
0.397518

>  <r_i_glide_esite>  (7) 
-0.145762

>  <r_i_glide_emodel>  (7) 
-28.6216

>  <r_i_glide_energy>  (7) 
-22.702

>  <r_i_glide_einternal>  (7) 
0.119937

>  <r_i_glide_intrahb_reward>  (7) 
-0

>  <i_i_glide_confnum>  (7) 
1

>  <i_i_glide_posenum>  (7) 
1

>  <r_i_glide_eff_state_penalty>  (7) 
0

>  <ligand_id>  (7) 
1

>  <original_smiles>  (7) 
N=c1nc2ncn(C3CCCC3)c2c[nH]1

>  <smiles>  (7) 
[H]c1nc(N([H])[H])nc2nc([H])n(C3([H])C([H])([H])C([H])([H])C([H])([H])C3([H])[H])c12

$$$$
1:0:1
     RDKit          3D

 28 30  0  0  1  0  0  0  0  0999 V2000
   -1.2266    2.9668    2.9033 N   0  0  0  0  0  0  0  0  0  0  0  0
   -1.2030    3.1182    4.2613 C   0  0  0  0  0  0  0  0  0  0  0  0
   -1.7676    2.1242    4.9532 N   0  0  0  0  0  0  0  0  0  0  0  0
   -1.7486    2.3170    6.2787 C   0  0  0  0  0  0  0  0  0  0  0  0
   -2.2713    1.4550    7.2337 N   0  0  0  0  0  0  0  0  0  0  0  0
   -2.0226    2.1339    8.3525 C   0  0  0  0  0  0  0  0  0  0  0  0
   -1.3759    3.3094    8.2503 N   0  0  0  0  0  0  0  0  0  0  0  0
   -0.9876    4.1792    9.3470 C   0  0  0  0  0  0  0  0  0  0  0  0
   -0.0793    3.4597   10.3558 C   0  0  0  0  0  0  0  0  0  0  0  0
   -0.3862    4.0782   11.7229 C   0  0  0  0  0  0  0  0  0  0  0  0
   -1.6272    4.9648   11.5471 C   0  0  0  0  0  0  0  0  0  0  0  0
   -2.1946    4.6516   10.1638 C   0  0  0  0  0  0  0  0  0  0  0  0
   -1.1796    3.4724    6.8856 C   0  0  0  0  0  0  0  0  0  0  0  0
   -0.5908    4.4338    6.0514 C   0  0  0  0  0  0  0  0  0  0  0  0
   -0.6381    4.2432    4.7180 N   0  0  0  0  0  0  0  0  0  0  0  0
   -1.5910    2.1122    2.5109 H   0  0  0  0  0  0  0  0  0  0  0  0
   -2.3082    1.7455    9.3197 H   0  0  0  0  0  0  0  0  0  0  0  0
   -0.4646    5.0540    8.9573 H   0  0  0  0  0  0  0  0  0  0  0  0
   -0.3051    2.3929   10.4152 H   0  0  0  0  0  0  0  0  0  0  0  0
    0.9744    3.5393   10.0845 H   0  0  0  0  0  0  0  0  0  0  0  0
   -0.5697    3.2876   12.4530 H   0  0  0  0  0  0  0  0  0  0  0  0
    0.4554    4.6683   12.0851 H   0  0  0  0  0  0  0  0  0  0  0  0
   -2.3658    4.7896   12.3312 H   0  0  0  0  0  0  0  0  0  0  0  0
   -1.3349    6.0144   11.5895 H   0  0  0  0  0  0  0  0  0  0  0  0
   -2.7014    5.5081    9.7112 H   0  0  0  0  0  0  0  0  0  0  0  0
   -2.9364    3.8577   10.2689 H   0  0  0  0  0  0  0  0  0  0  0  0
   -0.1298    5.3324    6.4317 H   0  0  0  0  0  0  0  0  0  0  0  0
   -0.7171    3.6141    2.3058 H   0  0  0  0  0  0  0  0  0  0  0  0
  1  2  1  0
  1 16  1  0
  1 28  1  0
  2 15  2  0
  2  3  1  0
  3  4  2  0
  4 13  1  0
  4  5  1  0
  5  6  2  0
  6  7  1  0
  6 17  1  0
  7  8  1  0
  7 13  1  0
  8 12  1  0
  8  9  1  0
  8 18  1  0
  9 10  1  0
  9 19  1  0
  9 20  1  0
 10 11  1  0
 10 21  1  0
 10 22  1  0
 11 12  1  0
 11 23  1  0
 11 24  1  0
 12 25  1  0
 12 26  1  0
 13 14  2  0
 14 15  1  0
 14 27  1  0
M  END
>  <i_m_ct_stereo_status>  (8) 
1

>  <s_m_source_file>  (8) 
/var/tmp/pbs.5102103.sched01/tmpf9vmf5rd/00u30c83p.sdf

>  <i_m_source_file_index>  (8) 
3

>  <i_lp_mmshare_version>  (8) 
48012

>  <i_f3d_flags>  (8) 
0

>  <s_epik_input>  (8) 
W0hdL049YyhcbjEpW25IXVtjSF1jKGMxMiluKFtjSF1uMilbQ0hdM1tDSDJdW0NIMl1bQ0gyXVtDSDJdMw==

>  <s_epik_cmdline>  (8) 
J2VwaWtfcHl0aG9uJywgJy1waHQnLCAnMi4wJywgJy1waCcsICc3LjAnLCAnLXRuJywgJzgnLCAnLW1hJywgJzIwMCcsICctaW1hZScsICc8aW5maWxlLm1hZT4nLCAnLW9tYWUnLCAnPG91dGZpbGUubWFlPic=

>  <r_epik_Ionization_Penalty>  (8) 
0.00125126

>  <r_epik_Ionization_Penalty_Charging>  (8) 
0

>  <r_epik_Ionization_Penalty_Neutral>  (8) 
0.00125126

>  <r_epik_State_Penalty>  (8) 
0.00077037

>  <r_epik_Charging_Adjusted_Penalty>  (8) 
0.00077037

>  <i_epik_Tot_Q>  (8) 
0

>  <i_epik_Tot_abs_Q>  (8) 
0

>  <s_lp_Force_Field>  (8) 
OPLS3e

>  <r_lp_Energy>  (8) 
19.0296

>  <b_lp_Chiralities_Consistent>  (8) 
1

>  <s_lp_Variant>  (8) 
1:0-1

>  <s_i_glide_gridfile>  (8) 
pfpi4k_grid

>  <i_i_glide_lignum>  (8) 
3

>  <i_i_glide_rotatable_bonds>  (8) 
1

>  <r_i_docking_score>  (8) 
-3.49456

>  <r_i_glide_ligand_efficiency>  (8) 
-0.232971

>  <r_i_glide_ligand_efficiency_sa>  (8) 
-0.574556

>  <r_i_glide_ligand_efficiency_ln>  (8) 
-0.942426

>  <r_i_glide_gscore>  (8) 
-3.49456

>  <r_i_glide_lipo>  (8) 
-0.0179533

>  <r_i_glide_hbond>  (8) 
-0.266878

>  <r_i_glide_metal>  (8) 
-0

>  <r_i_glide_rewards>  (8) 
-2.042

>  <r_i_glide_evdw>  (8) 
-14.6916

>  <r_i_glide_ecoul>  (8) 
-4.49487

>  <r_i_glide_erotb>  (8) 
0.397518

>  <r_i_glide_esite>  (8) 
-0.156435

>  <r_i_glide_emodel>  (8) 
-24.765

>  <r_i_glide_energy>  (8) 
-19.1865

>  <r_i_glide_einternal>  (8) 
0.0135698

>  <r_i_glide_intrahb_reward>  (8) 
-0

>  <i_i_glide_confnum>  (8) 
4

>  <i_i_glide_posenum>  (8) 
39

>  <r_i_glide_eff_state_penalty>  (8) 
0

>  <ligand_id>  (8) 
1

>  <original_smiles>  (8) 
N=c1nc2ncn(C3CCCC3)c2c[nH]1

>  <smiles>  (8) 
[H]c1nc(N([H])[H])nc2nc([H])n(C3([H])C([H])([H])C([H])([H])C([H])([H])C3([H])[H])c12

$$$$
1:0:2
     RDKit          3D

 28 30  0  0  1  0  0  0  0  0999 V2000
   -1.2108    2.9119    2.8933 N   0  0  0  0  0  0  0  0  0  0  0  0
   -1.2168    3.0855    4.2484 C   0  0  0  0  0  0  0  0  0  0  0  0
   -1.7045    2.0626    4.9645 N   0  0  0  0  0  0  0  0  0  0  0  0
   -1.7199    2.2871    6.2890 C   0  0  0  0  0  0  0  0  0  0  0  0
   -2.1845    1.4226    7.2742 N   0  0  0  0  0  0  0  0  0  0  0  0
   -1.9893    2.1500    8.3802 C   0  0  0  0  0  0  0  0  0  0  0  0
   -1.4373    3.3690    8.2354 N   0  0  0  0  0  0  0  0  0  0  0  0
   -1.1266    4.3439    9.2666 C   0  0  0  0  0  0  0  0  0  0  0  0
   -2.0000    5.6032    9.1506 C   0  0  0  0  0  0  0  0  0  0  0  0
   -1.1218    6.7424    9.6619 C   0  0  0  0  0  0  0  0  0  0  0  0
    0.2971    6.3560    9.2361 C   0  0  0  0  0  0  0  0  0  0  0  0
    0.3389    4.8218    9.2026 C   0  0  0  0  0  0  0  0  0  0  0  0
   -1.2543    3.4999    6.8636 C   0  0  0  0  0  0  0  0  0  0  0  0
   -0.7405    4.4849    6.0053 C   0  0  0  0  0  0  0  0  0  0  0  0
   -0.7523    4.2630    4.6794 N   0  0  0  0  0  0  0  0  0  0  0  0
   -1.4844    2.0165    2.5226 H   0  0  0  0  0  0  0  0  0  0  0  0
   -2.2542    1.7741    9.3527 H   0  0  0  0  0  0  0  0  0  0  0  0
   -1.2920    3.8979   10.2488 H   0  0  0  0  0  0  0  0  0  0  0  0
   -2.2468    5.8061    8.1068 H   0  0  0  0  0  0  0  0  0  0  0  0
   -2.9427    5.5151    9.6976 H   0  0  0  0  0  0  0  0  0  0  0  0
   -1.4307    7.7107    9.2619 H   0  0  0  0  0  0  0  0  0  0  0  0
   -1.1798    6.7924   10.7502 H   0  0  0  0  0  0  0  0  0  0  0  0
    0.4922    6.7393    8.2328 H   0  0  0  0  0  0  0  0  0  0  0  0
    1.0566    6.7693    9.9003 H   0  0  0  0  0  0  0  0  0  0  0  0
    0.9079    4.4102   10.0392 H   0  0  0  0  0  0  0  0  0  0  0  0
    0.8622    4.4955    8.3001 H   0  0  0  0  0  0  0  0  0  0  0  0
   -0.3575    5.4313    6.3630 H   0  0  0  0  0  0  0  0  0  0  0  0
   -0.7180    3.5797    2.2989 H   0  0  0  0  0  0  0  0  0  0  0  0
  1  2  1  0
  1 16  1  0
  1 28  1  0
  2 15  2  0
  2  3  1  0
  3  4  2  0
  4 13  1  0
  4  5  1  0
  5  6  2  0
  6  7  1  0
  6 17  1  0
  7  8  1  0
  7 13  1  0
  8 12  1  0
  8  9  1  0
  8 18  1  0
  9 10  1  0
  9 19  1  0
  9 20  1  0
 10 11  1  0
 10 21  1  0
 10 22  1  0
 11 12  1  0
 11 23  1  0
 11 24  1  0
 12 25  1  0
 12 26  1  0
 13 14  2  0
 14 15  1  0
 14 27  1  0
M  END
>  <i_m_ct_stereo_status>  (9) 
1

>  <s_m_source_file>  (9) 
/var/tmp/pbs.5102103.sched01/tmpf9vmf5rd/00u30c83p.sdf

>  <i_m_source_file_index>  (9) 
3

>  <i_lp_mmshare_version>  (9) 
48012

>  <i_f3d_flags>  (9) 
0

>  <s_epik_input>  (9) 
W0hdL049YyhcbjEpW25IXVtjSF1jKGMxMiluKFtjSF1uMilbQ0hdM1tDSDJdW0NIMl1bQ0gyXVtDSDJdMw==

>  <s_epik_cmdline>  (9) 
J2VwaWtfcHl0aG9uJywgJy1waHQnLCAnMi4wJywgJy1waCcsICc3LjAnLCAnLXRuJywgJzgnLCAnLW1hJywgJzIwMCcsICctaW1hZScsICc8aW5maWxlLm1hZT4nLCAnLW9tYWUnLCAnPG91dGZpbGUubWFlPic=

>  <r_epik_Ionization_Penalty>  (9) 
0.00125126

>  <r_epik_Ionization_Penalty_Charging>  (9) 
0

>  <r_epik_Ionization_Penalty_Neutral>  (9) 
0.00125126

>  <r_epik_State_Penalty>  (9) 
0.00077037

>  <r_epik_Charging_Adjusted_Penalty>  (9) 
0.00077037

>  <i_epik_Tot_Q>  (9) 
0

>  <i_epik_Tot_abs_Q>  (9) 
0

>  <s_lp_Force_Field>  (9) 
OPLS3e

>  <r_lp_Energy>  (9) 
19.0296

>  <b_lp_Chiralities_Consistent>  (9) 
1

>  <s_lp_Variant>  (9) 
1:0-1

>  <s_i_glide_gridfile>  (9) 
pfpi4k_grid

>  <i_i_glide_lignum>  (9) 
3

>  <i_i_glide_rotatable_bonds>  (9) 
1

>  <r_i_docking_score>  (9) 
-3.47583

>  <r_i_glide_ligand_efficiency>  (9) 
-0.231722

>  <r_i_glide_ligand_efficiency_sa>  (9) 
-0.571476

>  <r_i_glide_ligand_efficiency_ln>  (9) 
-0.937375

>  <r_i_glide_gscore>  (9) 
-3.47583

>  <r_i_glide_lipo>  (9) 
-0.0308845

>  <r_i_glide_hbond>  (9) 
-0.277462

>  <r_i_glide_metal>  (9) 
-0

>  <r_i_glide_rewards>  (9) 
-2.03505

>  <r_i_glide_evdw>  (9) 
-13.7364

>  <r_i_glide_ecoul>  (9) 
-4.58285

>  <r_i_glide_erotb>  (9) 
0.397518

>  <r_i_glide_esite>  (9) 
-0.155707

>  <r_i_glide_emodel>  (9) 
-23.7938

>  <r_i_glide_energy>  (9) 
-18.3192

>  <r_i_glide_einternal>  (9) 
0.101868

>  <r_i_glide_intrahb_reward>  (9) 
-0

>  <i_i_glide_confnum>  (9) 
6

>  <i_i_glide_posenum>  (9) 
5

>  <r_i_glide_eff_state_penalty>  (9) 
0

>  <ligand_id>  (9) 
1

>  <original_smiles>  (9) 
N=c1nc2ncn(C3CCCC3)c2c[nH]1

>  <smiles>  (9) 
[H]c1nc(N([H])[H])nc2nc([H])n(C3([H])C([H])([H])C([H])([H])C([H])([H])C3([H])[H])c12

$$$$
2:0:0
     RDKit          3D

 42 46  0  0  1  0  0  0  0  0999 V2000
    3.3062   -0.6859   -2.7289 C   0  0  0  0  0  0  0  0  0  0  0  0
    3.2865   -1.4586   -1.4684 N   0  0  2  0  0  0  0  0  0  0  0  0
    3.6032   -0.7755   -0.1990 C   0  0  0  0  0  0  0  0  0  0  0  0
    4.3587   -1.8656    0.6346 C   0  0  2  0  0  0  0  0  0  0  0  0
    4.9255   -1.4067    1.9779 C   0  0  0  0  0  0  0  0  0  0  0  0
    6.1396   -0.9171    1.1357 C   0  0  0  0  0  0  0  0  0  0  0  0
    5.8249   -2.1134    0.2228 C   0  0  2  0  0  0  0  0  0  0  0  0
    5.5536   -2.1979   -1.2901 C   0  0  1  0  0  0  0  0  0  0  0  0
    6.4713   -3.0014   -2.1498 C   0  0  0  0  0  0  0  0  0  0  0  0
    5.9110   -3.5809   -3.1109 O   0  0  0  0  0  0  0  0  0  0  0  0
    7.6814   -2.8313   -1.9148 O   0  0  0  0  0  0  0  0  0  0  0  0
    4.0522   -2.6930   -1.3639 C   0  0  1  0  0  0  0  0  0  0  0  0
    3.7019   -3.1291    0.0965 C   0  0  2  0  0  0  0  0  0  0  0  0
    2.2956   -3.1289    0.3610 O   0  0  0  0  0  0  0  0  0  0  0  0
    4.3614   -4.4585    0.5049 C   0  0  0  0  0  0  0  0  0  0  0  0
    3.5822   -5.6385    0.5845 C   0  0  0  0  0  0  0  0  0  0  0  0
    4.1676   -6.8639    0.9743 C   0  0  0  0  0  0  0  0  0  0  0  0
    5.5369   -6.9109    1.2784 C   0  0  0  0  0  0  0  0  0  0  0  0
    6.3231   -5.7518    1.1940 C   0  0  0  0  0  0  0  0  0  0  0  0
    5.7340   -4.5120    0.8262 C   0  0  0  0  0  0  0  0  0  0  0  0
    6.4890   -3.3156    0.7838 N   0  0  0  0  0  0  0  0  0  0  0  0
    7.9454   -3.4335    0.8021 C   0  0  0  0  0  0  0  0  0  0  0  0
    4.2452   -0.1632   -2.9157 H   0  0  0  0  0  0  0  0  0  0  0  0
    2.5158    0.0624   -2.7326 H   0  0  0  0  0  0  0  0  0  0  0  0
    3.0817   -1.3293   -3.5831 H   0  0  0  0  0  0  0  0  0  0  0  0
    4.2266    0.0966   -0.3908 H   0  0  0  0  0  0  0  0  0  0  0  0
    2.7077   -0.4079    0.3027 H   0  0  0  0  0  0  0  0  0  0  0  0
    4.3624   -0.5970    2.4428 H   0  0  0  0  0  0  0  0  0  0  0  0
    5.1483   -2.2254    2.6636 H   0  0  0  0  0  0  0  0  0  0  0  0
    6.0324    0.0603    0.6623 H   0  0  0  0  0  0  0  0  0  0  0  0
    7.0843   -1.0021    1.6644 H   0  0  0  0  0  0  0  0  0  0  0  0
    5.7094   -1.2258   -1.7518 H   0  0  0  0  0  0  0  0  0  0  0  0
    3.7838   -3.4304   -2.1225 H   0  0  0  0  0  0  0  0  0  0  0  0
    1.9344   -2.2645    0.2368 H   0  0  0  0  0  0  0  0  0  0  0  0
    2.5266   -5.6145    0.3647 H   0  0  0  0  0  0  0  0  0  0  0  0
    3.5648   -7.7502    1.0452 H   0  0  0  0  0  0  0  0  0  0  0  0
    5.9854   -7.8520    1.5639 H   0  0  0  0  0  0  0  0  0  0  0  0
    7.3754   -5.8289    1.4323 H   0  0  0  0  0  0  0  0  0  0  0  0
    8.3074   -4.1618    0.0773 H   0  0  0  0  0  0  0  0  0  0  0  0
    8.3153   -3.7643    1.7604 H   0  0  0  0  0  0  0  0  0  0  0  0
    8.4043   -2.4744    0.5531 H   0  0  0  0  0  0  0  0  0  0  0  0
    2.3077   -1.6934   -1.3724 H   0  0  0  0  0  0  0  0  0  0  0  0
  1  2  1  0
  1 23  1  0
  1 24  1  0
  1 25  1  0
  2 12  1  0
  2  3  1  0
  2 42  1  1
  4  3  1  6
  3 26  1  0
  3 27  1  0
  4  7  1  0
  4 13  1  0
  4  5  1  0
  5  6  1  0
  5 28  1  0
  5 29  1  0
  6  7  1  0
  6 30  1  0
  6 31  1  0
  7 21  1  1
  7  8  1  0
  8  9  1  0
  8 12  1  0
  8 32  1  6
  9 10  2  0
  9 11  1  0
 12 13  1  0
 12 33  1  6
 13 14  1  6
 13 15  1  0
 14 34  1  0
 15 20  2  0
 15 16  1  0
 16 17  2  0
 16 35  1  0
 17 18  1  0
 17 36  1  0
 18 19  2  0
 18 37  1  0
 19 20  1  0
 19 38  1  0
 20 21  1  0
 21 22  1  0
 22 39  1  0
 22 40  1  0
 22 41  1  0
M  CHG  2   2   1  11  -1
M  END
>  <i_m_ct_stereo_status>  (10) 
1

>  <s_m_source_file>  (10) 
/var/tmp/pbs.5102103.sched01/tmpf9vmf5rd/00u30c83p.sdf

>  <i_m_source_file_index>  (10) 
4

>  <i_lp_mmshare_version>  (10) 
48012

>  <i_f3d_flags>  (10) 
0

>  <s_epik_input>  (10) 
W0NIMl0xW0NIMl1bQ0BAXTIoW0NAQF0xMzQpW0NAQEhdKEMoPU8pW09IXSlbQ0BIXShOKFtDSDNdKVtDSDJdMylbQ0BAXTQoW09IXSljNWMoTjJbQ0gzXSlbY0hdW2NIXVtjSF1bY0hdNQ==

>  <s_epik_cmdline>  (10) 
J2VwaWtfcHl0aG9uJywgJy1waHQnLCAnMi4wJywgJy1waCcsICc3LjAnLCAnLXRuJywgJzgnLCAnLW1hJywgJzIwMCcsICctaW1hZScsICc8aW5maWxlLm1hZT4nLCAnLW9tYWUnLCAnPG91dGZpbGUubWFlPic=

>  <r_lp_tautomer_probability>  (10) 
1

>  <r_epik_Ionization_Penalty>  (10) 
0.00203254

>  <r_epik_Ionization_Penalty_Charging>  (10) 
0.00178359

>  <r_epik_Ionization_Penalty_Neutral>  (10) 
0.000248958

>  <r_epik_State_Penalty>  (10) 
-0

>  <r_epik_Charging_Adjusted_Penalty>  (10) 
0.00178359

>  <i_epik_Tot_Q>  (10) 
0

>  <i_epik_Tot_abs_Q>  (10) 
2

>  <s_lp_Force_Field>  (10) 
OPLS3e

>  <r_lp_Energy>  (10) 
98.1548

>  <b_lp_Chiralities_Consistent>  (10) 
1

>  <s_lp_Variant>  (10) 
2:0-1

>  <s_i_glide_gridfile>  (10) 
pfpi4k_grid

>  <i_i_glide_lignum>  (10) 
4

>  <i_i_glide_rotatable_bonds>  (10) 
2

>  <r_i_docking_score>  (10) 
-4.44467

>  <r_i_glide_ligand_efficiency>  (10) 
-0.20203

>  <r_i_glide_ligand_efficiency_sa>  (10) 
-0.566097

>  <r_i_glide_ligand_efficiency_ln>  (10) 
-1.08644

>  <r_i_glide_gscore>  (10) 
-4.44467

>  <r_i_glide_lipo>  (10) 
-0.761694

>  <r_i_glide_hbond>  (10) 
-0.4408

>  <r_i_glide_metal>  (10) 
-0

>  <r_i_glide_rewards>  (10) 
-1.5269

>  <r_i_glide_evdw>  (10) 
-16.6533

>  <r_i_glide_ecoul>  (10) 
-5.21739

>  <r_i_glide_erotb>  (10) 
0

>  <r_i_glide_esite>  (10) 
-0.1

>  <r_i_glide_emodel>  (10) 
-28.1668

>  <r_i_glide_energy>  (10) 
-21.8707

>  <r_i_glide_einternal>  (10) 
0.882374

>  <r_i_glide_intrahb_reward>  (10) 
-0

>  <i_i_glide_confnum>  (10) 
1

>  <i_i_glide_posenum>  (10) 
6

>  <r_i_glide_eff_state_penalty>  (10) 
0

>  <ligand_id>  (10) 
2

>  <original_smiles>  (10) 
CN1CC23CCC24C(C(=O)O)C1C3(O)c1ccccc1N4C

>  <smiles>  (10) 
[H]OC12c3c([H])c([H])c([H])c([H])c3N(C([H])([H])[H])C34C([H])([H])C([H])([H])C13C([H])([H])[N+]([H])(C([H])([H])[H])C2([H])C4([H])C(=O)[O-]

$$$$
2:0:1
     RDKit          3D

 42 46  0  0  1  0  0  0  0  0999 V2000
    4.1143   -2.8819    4.0212 C   0  0  0  0  0  0  0  0  0  0  0  0
    3.8162   -3.5477    2.7262 N   0  0  2  0  0  0  0  0  0  0  0  0
    4.4731   -4.8490    2.4583 C   0  0  0  0  0  0  0  0  0  0  0  0
    4.8030   -4.7747    0.9239 C   0  0  2  0  0  0  0  0  0  0  0  0
    5.5411   -5.9804    0.3558 C   0  0  0  0  0  0  0  0  0  0  0  0
    6.8192   -5.2172    0.8252 C   0  0  0  0  0  0  0  0  0  0  0  0
    6.0326   -3.9240    0.5122 C   0  0  2  0  0  0  0  0  0  0  0  0
    5.6834   -2.6717    1.3544 C   0  0  1  0  0  0  0  0  0  0  0  0
    6.1745   -1.2921    0.8812 C   0  0  0  0  0  0  0  0  0  0  0  0
    5.3721   -0.3394    0.9675 O   0  0  0  0  0  0  0  0  0  0  0  0
    7.3668   -1.1909    0.5157 O   0  0  0  0  0  0  0  0  0  0  0  0
    4.0909   -2.8030    1.4781 C   0  0  1  0  0  0  0  0  0  0  0  0
    3.6764   -3.8920    0.4270 C   0  0  2  0  0  0  0  0  0  0  0  0
    2.4447   -4.5675    0.6667 O   0  0  0  0  0  0  0  0  0  0  0  0
    3.7591   -3.4095   -1.0283 C   0  0  0  0  0  0  0  0  0  0  0  0
    2.5885   -3.0863   -1.7487 C   0  0  0  0  0  0  0  0  0  0  0  0
    2.6558   -2.6550   -3.0849 C   0  0  0  0  0  0  0  0  0  0  0  0
    3.9067   -2.5202   -3.7019 C   0  0  0  0  0  0  0  0  0  0  0  0
    5.0781   -2.8457   -2.9988 C   0  0  0  0  0  0  0  0  0  0  0  0
    5.0151   -3.2922   -1.6583 C   0  0  0  0  0  0  0  0  0  0  0  0
    6.1727   -3.6289   -0.9338 N   0  0  0  0  0  0  0  0  0  0  0  0
    7.4813   -3.2627   -1.4747 C   0  0  0  0  0  0  0  0  0  0  0  0
    5.1774   -2.7400    4.2046 H   0  0  0  0  0  0  0  0  0  0  0  0
    3.7208   -3.4781    4.8440 H   0  0  0  0  0  0  0  0  0  0  0  0
    3.6287   -1.9064    4.0645 H   0  0  0  0  0  0  0  0  0  0  0  0
    5.3570   -4.9510    3.0765 H   0  0  0  0  0  0  0  0  0  0  0  0
    3.8065   -5.6771    2.7159 H   0  0  0  0  0  0  0  0  0  0  0  0
    5.3596   -6.9203    0.8857 H   0  0  0  0  0  0  0  0  0  0  0  0
    5.4142   -6.0832   -0.7178 H   0  0  0  0  0  0  0  0  0  0  0  0
    7.0813   -5.3496    1.8761 H   0  0  0  0  0  0  0  0  0  0  0  0
    7.6820   -5.4005    0.1897 H   0  0  0  0  0  0  0  0  0  0  0  0
    6.1774   -2.7636    2.3219 H   0  0  0  0  0  0  0  0  0  0  0  0
    3.5108   -1.8803    1.4161 H   0  0  0  0  0  0  0  0  0  0  0  0
    2.4016   -5.2584    0.0183 H   0  0  0  0  0  0  0  0  0  0  0  0
    1.6127   -3.1754   -1.2991 H   0  0  0  0  0  0  0  0  0  0  0  0
    1.7568   -2.4244   -3.6354 H   0  0  0  0  0  0  0  0  0  0  0  0
    3.9552   -2.1582   -4.7138 H   0  0  0  0  0  0  0  0  0  0  0  0
    6.0222   -2.7461   -3.5112 H   0  0  0  0  0  0  0  0  0  0  0  0
    7.5122   -2.2263   -1.7790 H   0  0  0  0  0  0  0  0  0  0  0  0
    7.7422   -3.8537   -2.3461 H   0  0  0  0  0  0  0  0  0  0  0  0
    8.2619   -3.4065   -0.7272 H   0  0  0  0  0  0  0  0  0  0  0  0
    2.8214   -3.7403    2.6935 H   0  0  0  0  0  0  0  0  0  0  0  0
  1  2  1  0
  1 23  1  0
  1 24  1  0
  1 25  1  0
  2 12  1  0
  2  3  1  0
  2 42  1  1
  4  3  1  1
  3 26  1  0
  3 27  1  0
  4  7  1  0
  4 13  1  0
  4  5  1  0
  5  6  1  0
  5 28  1  0
  5 29  1  0
  6  7  1  0
  6 30  1  0
  6 31  1  0
  7 21  1  6
  7  8  1  0
  8  9  1  0
  8 12  1  0
  8 32  1  1
  9 10  2  0
  9 11  1  0
 12 13  1  0
 12 33  1  1
 13 14  1  1
 13 15  1  0
 14 34  1  0
 15 20  2  0
 15 16  1  0
 16 17  2  0
 16 35  1  0
 17 18  1  0
 17 36  1  0
 18 19  2  0
 18 37  1  0
 19 20  1  0
 19 38  1  0
 20 21  1  0
 21 22  1  0
 22 39  1  0
 22 40  1  0
 22 41  1  0
M  CHG  2   2   1  11  -1
M  END
>  <i_m_ct_stereo_status>  (11) 
1

>  <s_m_source_file>  (11) 
/var/tmp/pbs.5102103.sched01/tmpf9vmf5rd/00u30c83p.sdf

>  <i_m_source_file_index>  (11) 
4

>  <i_lp_mmshare_version>  (11) 
48012

>  <i_f3d_flags>  (11) 
0

>  <s_epik_input>  (11) 
W0NIMl0xW0NIMl1bQ0BAXTIoW0NAQF0xMzQpW0NAQEhdKEMoPU8pW09IXSlbQ0BIXShOKFtDSDNdKVtDSDJdMylbQ0BAXTQoW09IXSljNWMoTjJbQ0gzXSlbY0hdW2NIXVtjSF1bY0hdNQ==

>  <s_epik_cmdline>  (11) 
J2VwaWtfcHl0aG9uJywgJy1waHQnLCAnMi4wJywgJy1waCcsICc3LjAnLCAnLXRuJywgJzgnLCAnLW1hJywgJzIwMCcsICctaW1hZScsICc8aW5maWxlLm1hZT4nLCAnLW9tYWUnLCAnPG91dGZpbGUubWFlPic=

>  <r_lp_tautomer_probability>  (11) 
1

>  <r_epik_Ionization_Penalty>  (11) 
0.00203254

>  <r_epik_Ionization_Penalty_Charging>  (11) 
0.00178359

>  <r_epik_Ionization_Penalty_Neutral>  (11) 
0.000248958

>  <r_epik_State_Penalty>  (11) 
-0

>  <r_epik_Charging_Adjusted_Penalty>  (11) 
0.00178359

>  <i_epik_Tot_Q>  (11) 
0

>  <i_epik_Tot_abs_Q>  (11) 
2

>  <s_lp_Force_Field>  (11) 
OPLS3e

>  <r_lp_Energy>  (11) 
98.1548

>  <b_lp_Chiralities_Consistent>  (11) 
1

>  <s_lp_Variant>  (11) 
2:0-1

>  <s_i_glide_gridfile>  (11) 
pfpi4k_grid

>  <i_i_glide_lignum>  (11) 
4

>  <i_i_glide_rotatable_bonds>  (11) 
2

>  <r_i_docking_score>  (11) 
-3.75331

>  <r_i_glide_ligand_efficiency>  (11) 
-0.170605

>  <r_i_glide_ligand_efficiency_sa>  (11) 
-0.478042

>  <r_i_glide_ligand_efficiency_ln>  (11) 
-0.917445

>  <r_i_glide_gscore>  (11) 
-3.75331

>  <r_i_glide_lipo>  (11) 
-0.952735

>  <r_i_glide_hbond>  (11) 
-0.0495006

>  <r_i_glide_metal>  (11) 
-0

>  <r_i_glide_rewards>  (11) 
-1.67167

>  <r_i_glide_evdw>  (11) 
-21.3064

>  <r_i_glide_ecoul>  (11) 
-0.093906

>  <r_i_glide_erotb>  (11) 
0

>  <r_i_glide_esite>  (11) 
0

>  <r_i_glide_emodel>  (11) 
-26.6934

>  <r_i_glide_energy>  (11) 
-21.4003

>  <r_i_glide_einternal>  (11) 
1.26263

>  <r_i_glide_intrahb_reward>  (11) 
-0

>  <i_i_glide_confnum>  (11) 
1

>  <i_i_glide_posenum>  (11) 
5

>  <r_i_glide_eff_state_penalty>  (11) 
0

>  <ligand_id>  (11) 
2

>  <original_smiles>  (11) 
CN1CC23CCC24C(C(=O)O)C1C3(O)c1ccccc1N4C

>  <smiles>  (11) 
[H]OC12c3c([H])c([H])c([H])c([H])c3N(C([H])([H])[H])C34C([H])([H])C([H])([H])C13C([H])([H])[N+]([H])(C([H])([H])[H])C2([H])C4([H])C(=O)[O-]

$$$$
3:0:0
     RDKit          3D

 21 23  0  0  1  0  0  0  0  0999 V2000
    6.1394   -3.1765   -1.9654 C   0  0  0  0  0  0  0  0  0  0  0  0
    6.3239   -3.8474   -0.7275 O   0  0  0  0  0  0  0  0  0  0  0  0
    5.1939   -4.4526   -0.2183 C   0  0  0  0  0  0  0  0  0  0  0  0
    5.2578   -5.6135    0.4322 N   0  0  0  0  0  0  0  0  0  0  0  0
    3.9947   -5.9480    0.7996 N   0  0  0  0  0  0  0  0  0  0  0  0
    3.4105   -7.0230    1.4569 C   0  0  0  0  0  0  0  0  0  0  0  0
    2.0703   -6.7165    1.4954 C   0  0  0  0  0  0  0  0  0  0  0  0
    0.9368   -7.4456    2.0664 C   0  0  0  0  0  0  0  0  0  0  0  0
   -0.3374   -7.0198    2.0577 N   0  0  0  0  0  0  0  0  0  0  0  0
   -1.2031   -7.9312    2.6701 C   0  0  0  0  0  0  0  0  0  0  0  0
   -0.5602   -9.0331    3.1648 C   0  0  0  0  0  0  0  0  0  0  0  0
    1.1472   -8.9945    2.8640 S   0  0  0  0  0  0  0  0  0  0  0  0
    1.8136   -5.4964    0.8746 N   0  0  0  0  0  0  0  0  0  0  0  0
    2.9742   -5.0734    0.4813 C   0  0  0  0  0  0  0  0  0  0  0  0
    3.6147   -3.6656   -0.3492 S   0  0  0  0  0  0  0  0  0  0  0  0
    7.0733   -2.7076   -2.2799 H   0  0  0  0  0  0  0  0  0  0  0  0
    5.3972   -2.3840   -1.8897 H   0  0  0  0  0  0  0  0  0  0  0  0
    5.8248   -3.8838   -2.7357 H   0  0  0  0  0  0  0  0  0  0  0  0
    3.9837   -7.8659    1.8161 H   0  0  0  0  0  0  0  0  0  0  0  0
   -2.2619   -7.7176    2.7167 H   0  0  0  0  0  0  0  0  0  0  0  0
   -0.9883   -9.8752    3.6846 H   0  0  0  0  0  0  0  0  0  0  0  0
  1  2  1  0
  1 16  1  0
  1 17  1  0
  1 18  1  0
  2  3  1  0
  3 15  1  0
  3  4  2  0
  4  5  1  0
  5 14  1  0
  5  6  1  0
  6  7  2  0
  6 19  1  0
  7  8  1  0
  7 13  1  0
  8 12  1  0
  8  9  2  0
  9 10  1  0
 10 11  2  0
 10 20  1  0
 11 12  1  0
 11 21  1  0
 13 14  2  0
 14 15  1  0
M  END
>  <i_m_ct_stereo_status>  (12) 
1

>  <s_m_source_file>  (12) 
/var/tmp/pbs.5102103.sched01/tmpf9vmf5rd/00u30c83p.sdf

>  <i_m_source_file_index>  (12) 
5

>  <i_lp_mmshare_version>  (12) 
48012

>  <i_f3d_flags>  (12) 
0

>  <s_epik_input>  (12) 
W0NIM11PYyhuMSlzYyhuMTIpbmMoW2NIXTIpLWMzbltjSF1bY0hdczM=

>  <s_epik_cmdline>  (12) 
J2VwaWtfcHl0aG9uJywgJy1waHQnLCAnMi4wJywgJy1waCcsICc3LjAnLCAnLXRuJywgJzgnLCAnLW1hJywgJzIwMCcsICctaW1hZScsICc8aW5maWxlLm1hZT4nLCAnLW9tYWUnLCAnPG91dGZpbGUubWFlPic=

>  <r_lp_tautomer_probability>  (12) 
1

>  <r_epik_Ionization_Penalty>  (12) 
1.30879e-06

>  <r_epik_Ionization_Penalty_Charging>  (12) 
1.22745e-06

>  <r_epik_Ionization_Penalty_Neutral>  (12) 
8.13414e-08

>  <r_epik_State_Penalty>  (12) 
-0

>  <r_epik_Charging_Adjusted_Penalty>  (12) 
1.22745e-06

>  <i_epik_Tot_Q>  (12) 
0

>  <i_epik_Tot_abs_Q>  (12) 
0

>  <s_lp_Force_Field>  (12) 
OPLS3e

>  <r_lp_Energy>  (12) 
3.55562

>  <b_lp_Chiralities_Consistent>  (12) 
1

>  <s_lp_Variant>  (12) 
3:0-1

>  <s_i_glide_gridfile>  (12) 
pfpi4k_grid

>  <i_i_glide_lignum>  (12) 
5

>  <i_i_glide_rotatable_bonds>  (12) 
2

>  <r_i_docking_score>  (12) 
-3.95602

>  <r_i_glide_ligand_efficiency>  (12) 
-0.263735

>  <r_i_glide_ligand_efficiency_sa>  (12) 
-0.650426

>  <r_i_glide_ligand_efficiency_ln>  (12) 
-1.06687

>  <r_i_glide_gscore>  (12) 
-3.95602

>  <r_i_glide_lipo>  (12) 
-0.287804

>  <r_i_glide_hbond>  (12) 
-0.201271

>  <r_i_glide_metal>  (12) 
-0

>  <r_i_glide_rewards>  (12) 
-1.8787

>  <r_i_glide_evdw>  (12) 
-23.1564

>  <r_i_glide_ecoul>  (12) 
-4.71511

>  <r_i_glide_erotb>  (12) 
0.303925

>  <r_i_glide_esite>  (12) 
-0.0270851

>  <r_i_glide_emodel>  (12) 
-31.2665

>  <r_i_glide_energy>  (12) 
-27.8715

>  <r_i_glide_einternal>  (12) 
8.09183

>  <r_i_glide_intrahb_reward>  (12) 
-0

>  <i_i_glide_confnum>  (12) 
2

>  <i_i_glide_posenum>  (12) 
24

>  <r_i_glide_eff_state_penalty>  (12) 
0

>  <ligand_id>  (12) 
3

>  <original_smiles>  (12) 
COc1nn2cc(-c3nccs3)nc2s1

>  <smiles>  (12) 
[H]c1nc(-c2nc3sc(OC([H])([H])[H])nn3c2[H])sc1[H]

$$$$
3:0:1
     RDKit          3D

 21 23  0  0  1  0  0  0  0  0999 V2000
    5.3634   -3.2905   -2.2774 C   0  0  0  0  0  0  0  0  0  0  0  0
    5.6847   -3.7918   -0.9907 O   0  0  0  0  0  0  0  0  0  0  0  0
    4.6683   -4.4692   -0.3648 C   0  0  0  0  0  0  0  0  0  0  0  0
    4.8966   -5.6239    0.2485 N   0  0  0  0  0  0  0  0  0  0  0  0
    3.7114   -6.0753    0.7237 N   0  0  0  0  0  0  0  0  0  0  0  0
    3.3076   -7.2087    1.4004 C   0  0  0  0  0  0  0  0  0  0  0  0
    1.9549   -7.0517    1.5765 C   0  0  0  0  0  0  0  0  0  0  0  0
    1.0289   -7.9490    2.2549 C   0  0  0  0  0  0  0  0  0  0  0  0
    1.3624   -9.1322    2.7734 N   0  0  0  0  0  0  0  0  0  0  0  0
    0.2703   -9.7861    3.3458 C   0  0  0  0  0  0  0  0  0  0  0  0
   -0.8955   -9.0690    3.2829 C   0  0  0  0  0  0  0  0  0  0  0  0
   -0.6758   -7.5449    2.4813 S   0  0  0  0  0  0  0  0  0  0  0  0
    1.4969   -5.8593    1.0013 N   0  0  0  0  0  0  0  0  0  0  0  0
    2.5780   -5.3036    0.5237 C   0  0  0  0  0  0  0  0  0  0  0  0
    3.0225   -3.8195   -0.3228 S   0  0  0  0  0  0  0  0  0  0  0  0
    6.1815   -2.6688   -2.6465 H   0  0  0  0  0  0  0  0  0  0  0  0
    4.4631   -2.6760   -2.2818 H   0  0  0  0  0  0  0  0  0  0  0  0
    5.2213   -4.1318   -2.9576 H   0  0  0  0  0  0  0  0  0  0  0  0
    3.9827   -7.9973    1.6801 H   0  0  0  0  0  0  0  0  0  0  0  0
    0.4223  -10.7611    3.7904 H   0  0  0  0  0  0  0  0  0  0  0  0
   -1.8571   -9.3652    3.6717 H   0  0  0  0  0  0  0  0  0  0  0  0
  1  2  1  0
  1 16  1  0
  1 17  1  0
  1 18  1  0
  2  3  1  0
  3 15  1  0
  3  4  2  0
  4  5  1  0
  5 14  1  0
  5  6  1  0
  6  7  2  0
  6 19  1  0
  7  8  1  0
  7 13  1  0
  8 12  1  0
  8  9  2  0
  9 10  1  0
 10 11  2  0
 10 20  1  0
 11 12  1  0
 11 21  1  0
 13 14  2  0
 14 15  1  0
M  END
>  <i_m_ct_stereo_status>  (13) 
1

>  <s_m_source_file>  (13) 
/var/tmp/pbs.5102103.sched01/tmpf9vmf5rd/00u30c83p.sdf

>  <i_m_source_file_index>  (13) 
5

>  <i_lp_mmshare_version>  (13) 
48012

>  <i_f3d_flags>  (13) 
0

>  <s_epik_input>  (13) 
W0NIM11PYyhuMSlzYyhuMTIpbmMoW2NIXTIpLWMzbltjSF1bY0hdczM=

>  <s_epik_cmdline>  (13) 
J2VwaWtfcHl0aG9uJywgJy1waHQnLCAnMi4wJywgJy1waCcsICc3LjAnLCAnLXRuJywgJzgnLCAnLW1hJywgJzIwMCcsICctaW1hZScsICc8aW5maWxlLm1hZT4nLCAnLW9tYWUnLCAnPG91dGZpbGUubWFlPic=

>  <r_lp_tautomer_probability>  (13) 
1

>  <r_epik_Ionization_Penalty>  (13) 
1.30879e-06

>  <r_epik_Ionization_Penalty_Charging>  (13) 
1.22745e-06

>  <r_epik_Ionization_Penalty_Neutral>  (13) 
8.13414e-08

>  <r_epik_State_Penalty>  (13) 
-0

>  <r_epik_Charging_Adjusted_Penalty>  (13) 
1.22745e-06

>  <i_epik_Tot_Q>  (13) 
0

>  <i_epik_Tot_abs_Q>  (13) 
0

>  <s_lp_Force_Field>  (13) 
OPLS3e

>  <r_lp_Energy>  (13) 
3.55562

>  <b_lp_Chiralities_Consistent>  (13) 
1

>  <s_lp_Variant>  (13) 
3:0-1

>  <s_i_glide_gridfile>  (13) 
pfpi4k_grid

>  <i_i_glide_lignum>  (13) 
5

>  <i_i_glide_rotatable_bonds>  (13) 
2

>  <r_i_docking_score>  (13) 
-3.75039

>  <r_i_glide_ligand_efficiency>  (13) 
-0.250026

>  <r_i_glide_ligand_efficiency_sa>  (13) 
-0.616617

>  <r_i_glide_ligand_efficiency_ln>  (13) 
-1.01142

>  <r_i_glide_gscore>  (13) 
-3.75039

>  <r_i_glide_lipo>  (13) 
-0.262464

>  <r_i_glide_hbond>  (13) 
-0.14777

>  <r_i_glide_metal>  (13) 
-0

>  <r_i_glide_rewards>  (13) 
-1.8466

>  <r_i_glide_evdw>  (13) 
-23.7354

>  <r_i_glide_ecoul>  (13) 
-3.7718

>  <r_i_glide_erotb>  (13) 
0.303925

>  <r_i_glide_esite>  (13) 
-0.0449422

>  <r_i_glide_emodel>  (13) 
-32.933

>  <r_i_glide_energy>  (13) 
-27.5072

>  <r_i_glide_einternal>  (13) 
3.61394

>  <r_i_glide_intrahb_reward>  (13) 
-0

>  <i_i_glide_confnum>  (13) 
1

>  <i_i_glide_posenum>  (13) 
9

>  <r_i_glide_eff_state_penalty>  (13) 
0

>  <ligand_id>  (13) 
3

>  <original_smiles>  (13) 
COc1nn2cc(-c3nccs3)nc2s1

>  <smiles>  (13) 
[H]c1nc(-c2nc3sc(OC([H])([H])[H])nn3c2[H])sc1[H]

$$$$
3:0:2
     RDKit          3D

 21 23  0  0  1  0  0  0  0  0999 V2000
    8.4193   -6.1570    0.7270 C   0  0  0  0  0  0  0  0  0  0  0  0
    7.3022   -5.3151    0.4924 O   0  0  0  0  0  0  0  0  0  0  0  0
    6.0597   -5.8034    0.8219 C   0  0  0  0  0  0  0  0  0  0  0  0
    5.8365   -6.9815    1.4029 N   0  0  0  0  0  0  0  0  0  0  0  0
    4.4944   -7.1135    1.5529 N   0  0  0  0  0  0  0  0  0  0  0  0
    3.6651   -8.0822    2.0853 C   0  0  0  0  0  0  0  0  0  0  0  0
    2.3944   -7.5860    1.9323 C   0  0  0  0  0  0  0  0  0  0  0  0
    1.1465   -8.2244    2.3371 C   0  0  0  0  0  0  0  0  0  0  0  0
    1.0726   -9.4181    2.9299 N   0  0  0  0  0  0  0  0  0  0  0  0
   -0.2406   -9.7928    3.2136 C   0  0  0  0  0  0  0  0  0  0  0  0
   -1.1723   -8.8641    2.8273 C   0  0  0  0  0  0  0  0  0  0  0  0
   -0.4301   -7.4754    2.0839 S   0  0  0  0  0  0  0  0  0  0  0  0
    2.4041   -6.3299    1.3128 N   0  0  0  0  0  0  0  0  0  0  0  0
    3.6719   -6.0890    1.1052 C   0  0  0  0  0  0  0  0  0  0  0  0
    4.6646   -4.8091    0.4109 S   0  0  0  0  0  0  0  0  0  0  0  0
    9.3104   -5.6210    0.4068 H   0  0  0  0  0  0  0  0  0  0  0  0
    8.3700   -7.0820    0.1500 H   0  0  0  0  0  0  0  0  0  0  0  0
    8.5371   -6.3886    1.7861 H   0  0  0  0  0  0  0  0  0  0  0  0
    4.0302   -9.0013    2.5119 H   0  0  0  0  0  0  0  0  0  0  0  0
   -0.4222  -10.7432    3.6912 H   0  0  0  0  0  0  0  0  0  0  0  0
   -2.2425   -8.9234    2.9313 H   0  0  0  0  0  0  0  0  0  0  0  0
  1  2  1  0
  1 16  1  0
  1 17  1  0
  1 18  1  0
  2  3  1  0
  3 15  1  0
  3  4  2  0
  4  5  1  0
  5 14  1  0
  5  6  1  0
  6  7  2  0
  6 19  1  0
  7  8  1  0
  7 13  1  0
  8 12  1  0
  8  9  2  0
  9 10  1  0
 10 11  2  0
 10 20  1  0
 11 12  1  0
 11 21  1  0
 13 14  2  0
 14 15  1  0
M  END
>  <i_m_ct_stereo_status>  (14) 
1

>  <s_m_source_file>  (14) 
/var/tmp/pbs.5102103.sched01/tmpf9vmf5rd/00u30c83p.sdf

>  <i_m_source_file_index>  (14) 
5

>  <i_lp_mmshare_version>  (14) 
48012

>  <i_f3d_flags>  (14) 
0

>  <s_epik_input>  (14) 
W0NIM11PYyhuMSlzYyhuMTIpbmMoW2NIXTIpLWMzbltjSF1bY0hdczM=

>  <s_epik_cmdline>  (14) 
J2VwaWtfcHl0aG9uJywgJy1waHQnLCAnMi4wJywgJy1waCcsICc3LjAnLCAnLXRuJywgJzgnLCAnLW1hJywgJzIwMCcsICctaW1hZScsICc8aW5maWxlLm1hZT4nLCAnLW9tYWUnLCAnPG91dGZpbGUubWFlPic=

>  <r_lp_tautomer_probability>  (14) 
1

>  <r_epik_Ionization_Penalty>  (14) 
1.30879e-06

>  <r_epik_Ionization_Penalty_Charging>  (14) 
1.22745e-06

>  <r_epik_Ionization_Penalty_Neutral>  (14) 
8.13414e-08

>  <r_epik_State_Penalty>  (14) 
-0

>  <r_epik_Charging_Adjusted_Penalty>  (14) 
1.22745e-06

>  <i_epik_Tot_Q>  (14) 
0

>  <i_epik_Tot_abs_Q>  (14) 
0

>  <s_lp_Force_Field>  (14) 
OPLS3e

>  <r_lp_Energy>  (14) 
3.55562

>  <b_lp_Chiralities_Consistent>  (14) 
1

>  <s_lp_Variant>  (14) 
3:0-1

>  <s_i_glide_gridfile>  (14) 
pfpi4k_grid

>  <i_i_glide_lignum>  (14) 
5

>  <i_i_glide_rotatable_bonds>  (14) 
2

>  <r_i_docking_score>  (14) 
-3.00533

>  <r_i_glide_ligand_efficiency>  (14) 
-0.200355

>  <r_i_glide_ligand_efficiency_sa>  (14) 
-0.494119

>  <r_i_glide_ligand_efficiency_ln>  (14) 
-0.810488

>  <r_i_glide_gscore>  (14) 
-3.00533

>  <r_i_glide_lipo>  (14) 
-0.139541

>  <r_i_glide_hbond>  (14) 
0

>  <r_i_glide_metal>  (14) 
-0

>  <r_i_glide_rewards>  (14) 
-1.94283

>  <r_i_glide_evdw>  (14) 
-22.5723

>  <r_i_glide_ecoul>  (14) 
-0.655151

>  <r_i_glide_erotb>  (14) 
0.303925

>  <r_i_glide_esite>  (14) 
0

>  <r_i_glide_emodel>  (14) 
-29.0998

>  <r_i_glide_energy>  (14) 
-23.2275

>  <r_i_glide_einternal>  (14) 
0.0136716

>  <r_i_glide_intrahb_reward>  (14) 
-0

>  <i_i_glide_confnum>  (14) 
3

>  <i_i_glide_posenum>  (14) 
17

>  <r_i_glide_eff_state_penalty>  (14) 
0

>  <ligand_id>  (14) 
3

>  <original_smiles>  (14) 
COc1nn2cc(-c3nccs3)nc2s1

>  <smiles>  (14) 
[H]c1nc(-c2nc3sc(OC([H])([H])[H])nn3c2[H])sc1[H]

$$$$
4:1:0
     RDKit          3D

 33 32  0  0  1  0  0  0  0  0999 V2000
   -7.7994   -6.7857  -10.3937 C   0  0  0  0  0  0  0  0  0  0  0  0
   -9.2944   -7.0687  -10.1671 C   0  0  0  0  0  0  0  0  0  0  0  0
   -9.6746   -7.9112   -8.9564 C   0  0  0  0  0  0  0  0  0  0  0  0
   -8.9082   -8.6380   -8.1272 C   0  0  0  0  0  0  0  0  0  0  0  0
   -7.4062   -8.8835   -8.1665 C   0  0  0  0  0  0  0  0  0  0  0  0
   -6.5882   -7.8633   -7.3216 C   0  0  2  0  0  0  0  0  0  0  0  0
   -5.0966   -8.2317   -7.3772 C   0  0  0  0  0  0  0  0  0  0  0  0
   -7.0997   -7.7493   -5.8591 C   0  0  0  0  0  0  0  0  0  0  0  0
   -6.3875   -6.6935   -4.9915 C   0  0  0  0  0  0  0  0  0  0  0  0
   -6.8319   -5.2423   -5.2982 C   0  0  0  0  0  0  0  0  0  0  0  0
   -6.1763   -4.2219   -4.3604 C   0  0  0  0  0  0  0  0  0  0  0  0
   -7.6615   -6.0786  -11.2191 H   0  0  0  0  0  0  0  0  0  0  0  0
   -7.2775   -7.6861  -10.6002 H   0  0  0  0  0  0  0  0  0  0  0  0
   -7.3679   -6.3382   -9.5149 H   0  0  0  0  0  0  0  0  0  0  0  0
   -9.8151   -6.1086  -10.0575 H   0  0  0  0  0  0  0  0  0  0  0  0
   -9.7333   -7.5274  -11.0388 H   0  0  0  0  0  0  0  0  0  0  0  0
  -10.7198   -7.8956   -8.7377 H   0  0  0  0  0  0  0  0  0  0  0  0
   -9.4303   -9.1284   -7.2939 H   0  0  0  0  0  0  0  0  0  0  0  0
   -7.2590   -9.8816   -7.7191 H   0  0  0  0  0  0  0  0  0  0  0  0
   -7.0606   -8.9135   -9.1451 H   0  0  0  0  0  0  0  0  0  0  0  0
   -6.7078   -6.8808   -7.7460 H   0  0  0  0  0  0  0  0  0  0  0  0
   -4.8866   -9.1942   -6.9043 H   0  0  0  0  0  0  0  0  0  0  0  0
   -4.4718   -7.4754   -6.9178 H   0  0  0  0  0  0  0  0  0  0  0  0
   -4.7920   -8.2913   -8.4232 H   0  0  0  0  0  0  0  0  0  0  0  0
   -8.1429   -7.4595   -5.9119 H   0  0  0  0  0  0  0  0  0  0  0  0
   -7.0534   -8.7173   -5.3689 H   0  0  0  0  0  0  0  0  0  0  0  0
   -6.5847   -6.8970   -3.9328 H   0  0  0  0  0  0  0  0  0  0  0  0
   -5.3001   -6.7608   -5.0764 H   0  0  0  0  0  0  0  0  0  0  0  0
   -6.5862   -4.9764   -6.3258 H   0  0  0  0  0  0  0  0  0  0  0  0
   -7.9169   -5.1551   -5.2112 H   0  0  0  0  0  0  0  0  0  0  0  0
   -6.4946   -3.2106   -4.6077 H   0  0  0  0  0  0  0  0  0  0  0  0
   -5.0898   -4.2579   -4.4436 H   0  0  0  0  0  0  0  0  0  0  0  0
   -6.4535   -4.4138   -3.3242 H   0  0  0  0  0  0  0  0  0  0  0  0
  1  2  1  0
  1 12  1  0
  1 13  1  0
  1 14  1  0
  2  3  1  0
  2 15  1  0
  2 16  1  0
  3  4  2  3
  3 17  1  0
  4  5  1  0
  4 18  1  0
  5  6  1  0
  5 19  1  0
  5 20  1  0
  6  7  1  0
  6  8  1  0
  6 21  1  6
  7 22  1  0
  7 23  1  0
  7 24  1  0
  8  9  1  0
  8 25  1  0
  8 26  1  0
  9 10  1  0
  9 27  1  0
  9 28  1  0
 10 11  1  0
 10 29  1  0
 10 30  1  0
 11 31  1  0
 11 32  1  0
 11 33  1  0
M  END
>  <i_m_ct_stereo_status>  (15) 
1

>  <s_m_source_file>  (15) 
/var/tmp/pbs.5102103.sched01/tmpf9vmf5rd/00u30c83p.sdf

>  <i_m_source_file_index>  (15) 
7

>  <i_lp_mmshare_version>  (15) 
48012

>  <i_f3d_flags>  (15) 
0

>  <s_epik_input>  (15) 
W0NIM11bQ0gyXS9bQ0hdPVtDSF0vW0NIMl1bQ0BIXShbQ0gzXSlbQ0gyXVtDSDJdW0NIMl1bQ0gzXQ==

>  <s_epik_cmdline>  (15) 
J2VwaWtfcHl0aG9uJywgJy1waHQnLCAnMi4wJywgJy1waCcsICc3LjAnLCAnLXRuJywgJzgnLCAnLW1hJywgJzIwMCcsICctaW1hZScsICc8aW5maWxlLm1hZT4nLCAnLW9tYWUnLCAnPG91dGZpbGUubWFlPic=

>  <r_lp_tautomer_probability>  (15) 
1

>  <r_epik_Ionization_Penalty>  (15) 
0

>  <r_epik_Ionization_Penalty_Charging>  (15) 
0

>  <r_epik_Ionization_Penalty_Neutral>  (15) 
0

>  <r_epik_State_Penalty>  (15) 
-0

>  <r_epik_Charging_Adjusted_Penalty>  (15) 
0

>  <i_epik_Tot_Q>  (15) 
0

>  <i_epik_Tot_abs_Q>  (15) 
0

>  <s_lp_Force_Field>  (15) 
OPLS3e

>  <r_lp_Energy>  (15) 
2.19585

>  <b_lp_Chiralities_Consistent>  (15) 
1

>  <s_lp_Variant>  (15) 
4:0-2

>  <s_i_glide_gridfile>  (15) 
pfpi4k_grid

>  <i_i_glide_lignum>  (15) 
7

>  <i_i_glide_rotatable_bonds>  (15) 
6

>  <r_i_docking_score>  (15) 
-1.99259

>  <r_i_glide_ligand_efficiency>  (15) 
-0.181145

>  <r_i_glide_ligand_efficiency_sa>  (15) 
-0.402863

>  <r_i_glide_ligand_efficiency_ln>  (15) 
-0.58642

>  <r_i_glide_gscore>  (15) 
-1.99259

>  <r_i_glide_lipo>  (15) 
-2.08957

>  <r_i_glide_hbond>  (15) 
0

>  <r_i_glide_metal>  (15) 
-0

>  <r_i_glide_rewards>  (15) 
-2.28735

>  <r_i_glide_evdw>  (15) 
-14.4005

>  <r_i_glide_ecoul>  (15) 
-0.118898

>  <r_i_glide_erotb>  (15) 
3.12218

>  <r_i_glide_esite>  (15) 
0

>  <r_i_glide_emodel>  (15) 
-13.6698

>  <r_i_glide_energy>  (15) 
-14.5194

>  <r_i_glide_einternal>  (15) 
3.37508

>  <r_i_glide_intrahb_reward>  (15) 
-0

>  <i_i_glide_confnum>  (15) 
1

>  <i_i_glide_posenum>  (15) 
6

>  <r_i_glide_eff_state_penalty>  (15) 
0

>  <ligand_id>  (15) 
4

>  <original_smiles>  (15) 
CCC=CCC(C)CCCC

>  <smiles>  (15) 
[H]C(=C([H])C([H])([H])C([H])(C([H])([H])[H])C([H])([H])C([H])([H])C([H])([H])C([H])([H])[H])C([H])([H])C([H])([H])[H]

$$$$
5:0:0
     RDKit          3D

 22 23  0  0  1  0  0  0  0  0999 V2000
    1.1961   -0.5216    1.6801 N   0  0  0  0  0  0  0  0  0  0  0  0
    0.4611    0.3584    2.3441 C   0  0  0  0  0  0  0  0  0  0  0  0
   -0.4965    1.0284    1.6805 N   0  0  0  0  0  0  0  0  0  0  0  0
    0.7358    0.4924    3.6561 N   0  0  0  0  0  0  0  0  0  0  0  0
   -0.0546    1.1286    4.5958 C   0  0  0  0  0  0  0  0  0  0  0  0
   -1.2073    1.7988    4.4362 N   0  0  0  0  0  0  0  0  0  0  0  0
   -1.5059    2.1860    5.7297 C   0  0  0  0  0  0  0  0  0  0  0  0
   -2.5713    2.9339    6.2763 C   0  0  0  0  0  0  0  0  0  0  0  0
   -2.6234    3.1750    7.6685 C   0  0  0  0  0  0  0  0  0  0  0  0
   -1.6240    2.6772    8.5299 C   0  0  0  0  0  0  0  0  0  0  0  0
   -0.5508    1.9292    8.0046 C   0  0  0  0  0  0  0  0  0  0  0  0
   -0.5136    1.7020    6.6156 C   0  0  0  0  0  0  0  0  0  0  0  0
    0.4258    1.0080    5.8727 O   0  0  0  0  0  0  0  0  0  0  0  0
    1.0140   -0.6634    0.6653 H   0  0  0  0  0  0  0  0  0  0  0  0
   -0.6452    0.9107    0.6675 H   0  0  0  0  0  0  0  0  0  0  0  0
   -1.0542    1.7207    2.1692 H   0  0  0  0  0  0  0  0  0  0  0  0
   -3.3383    3.3096    5.6189 H   0  0  0  0  0  0  0  0  0  0  0  0
   -3.4336    3.7489    8.0919 H   0  0  0  0  0  0  0  0  0  0  0  0
   -1.6827    2.8819    9.5918 H   0  0  0  0  0  0  0  0  0  0  0  0
    0.2277    1.5542    8.6537 H   0  0  0  0  0  0  0  0  0  0  0  0
    1.9155   -1.0693    2.1280 H   0  0  0  0  0  0  0  0  0  0  0  0
    1.5565    0.0737    4.0654 H   0  0  0  0  0  0  0  0  0  0  0  0
  1  2  2  3
  1 14  1  0
  1 21  1  0
  2  3  1  0
  2  4  1  0
  3 15  1  0
  3 16  1  0
  4  5  1  0
  4 22  1  0
  5 13  1  0
  5  6  2  0
  6  7  1  0
  7 12  2  0
  7  8  1  0
  8  9  2  0
  8 17  1  0
  9 10  1  0
  9 18  1  0
 10 11  2  0
 10 19  1  0
 11 12  1  0
 11 20  1  0
 12 13  1  0
M  CHG  1   1   1
M  END
>  <i_m_ct_stereo_status>  (16) 
1

>  <s_m_source_file>  (16) 
/var/tmp/pbs.5102103.sched01/tmpf9vmf5rd/00u30c83p.sdf

>  <i_m_source_file_index>  (16) 
8

>  <i_lp_mmshare_version>  (16) 
48012

>  <i_f3d_flags>  (16) 
0

>  <s_epik_input>  (16) 
W0hdL049QyhcW05IMl0pL049YygvW25IXTEpb2MoYzEyKVtjSF1bY0hdW2NIXVtjSF0y

>  <s_epik_cmdline>  (16) 
J2VwaWtfcHl0aG9uJywgJy1waHQnLCAnMi4wJywgJy1waCcsICc3LjAnLCAnLXRuJywgJzgnLCAnLW1hJywgJzIwMCcsICctaW1hZScsICc8aW5maWxlLm1hZT4nLCAnLW9tYWUnLCAnPG91dGZpbGUubWFlPic=

>  <r_lp_tautomer_probability>  (16) 
1

>  <r_epik_Ionization_Penalty>  (16) 
0.000147056

>  <r_epik_Ionization_Penalty_Charging>  (16) 
0.000147056

>  <r_epik_Ionization_Penalty_Neutral>  (16) 
2.20886e-13

>  <r_epik_State_Penalty>  (16) 
-0

>  <r_epik_Charging_Adjusted_Penalty>  (16) 
0.000147056

>  <i_epik_Tot_Q>  (16) 
1

>  <i_epik_Tot_abs_Q>  (16) 
1

>  <s_epik_Chemistry_Notes>  (16) 
This compound has an imine and may undergo hydrolysis.

>  <s_lp_Force_Field>  (16) 
OPLS3e

>  <r_lp_Energy>  (16) 
9.69909

>  <b_lp_Chiralities_Consistent>  (16) 
1

>  <s_lp_Variant>  (16) 
5:0-1

>  <s_i_glide_gridfile>  (16) 
pfpi4k_grid

>  <i_i_glide_lignum>  (16) 
8

>  <i_i_glide_rotatable_bonds>  (16) 
2

>  <r_i_docking_score>  (16) 
-4.80635

>  <r_i_glide_ligand_efficiency>  (16) 
-0.369719

>  <r_i_glide_ligand_efficiency_sa>  (16) 
-0.869333

>  <r_i_glide_ligand_efficiency_ln>  (16) 
-1.34822

>  <r_i_glide_gscore>  (16) 
-4.80635

>  <r_i_glide_lipo>  (16) 
-0.25199

>  <r_i_glide_hbond>  (16) 
-0.38146

>  <r_i_glide_metal>  (16) 
-0

>  <r_i_glide_rewards>  (16) 
-2.70102

>  <r_i_glide_evdw>  (16) 
-9.31053

>  <r_i_glide_ecoul>  (16) 
-8.6102

>  <r_i_glide_erotb>  (16) 
0.498857

>  <r_i_glide_esite>  (16) 
-0.213674

>  <r_i_glide_emodel>  (16) 
-31.9994

>  <r_i_glide_energy>  (16) 
-17.9207

>  <r_i_glide_einternal>  (16) 
0.803342

>  <r_i_glide_intrahb_reward>  (16) 
-0.5

>  <i_i_glide_confnum>  (16) 
1

>  <i_i_glide_posenum>  (16) 
18

>  <r_i_glide_eff_state_penalty>  (16) 
0

>  <ligand_id>  (16) 
5

>  <original_smiles>  (16) 
N=C(N)N=c1[nH]c2ccccc2o1

>  <smiles>  (16) 
[H]c1c([H])c([H])c2oc(N([H])C(N([H])[H])=[N+]([H])[H])nc2c1[H]

$$$$
5:0:1
     RDKit          3D

 22 23  0  0  1  0  0  0  0  0999 V2000
    1.8209    0.1322    1.2769 N   0  0  0  0  0  0  0  0  0  0  0  0
    0.9926    0.7704    2.1033 C   0  0  0  0  0  0  0  0  0  0  0  0
   -0.2666    0.9997    1.6806 N   0  0  0  0  0  0  0  0  0  0  0  0
    1.4791    1.1056    3.3156 N   0  0  0  0  0  0  0  0  0  0  0  0
    0.7414    1.5090    4.4196 C   0  0  0  0  0  0  0  0  0  0  0  0
    1.1730    1.5448    5.6916 N   0  0  0  0  0  0  0  0  0  0  0  0
    0.0676    2.0364    6.3580 C   0  0  0  0  0  0  0  0  0  0  0  0
   -0.1807    2.3262    7.7192 C   0  0  0  0  0  0  0  0  0  0  0  0
   -1.4333    2.8383    8.1277 C   0  0  0  0  0  0  0  0  0  0  0  0
   -2.4516    3.0624    7.1794 C   0  0  0  0  0  0  0  0  0  0  0  0
   -2.2292    2.7844    5.8133 C   0  0  0  0  0  0  0  0  0  0  0  0
   -0.9803    2.2719    5.4321 C   0  0  0  0  0  0  0  0  0  0  0  0
   -0.5467    1.9174    4.1731 O   0  0  0  0  0  0  0  0  0  0  0  0
    1.4621   -0.2100    0.3792 H   0  0  0  0  0  0  0  0  0  0  0  0
   -0.5613    0.8587    0.7021 H   0  0  0  0  0  0  0  0  0  0  0  0
   -0.8782    1.5595    2.2689 H   0  0  0  0  0  0  0  0  0  0  0  0
    0.5994    2.1607    8.4416 H   0  0  0  0  0  0  0  0  0  0  0  0
   -1.6152    3.0700    9.1698 H   0  0  0  0  0  0  0  0  0  0  0  0
   -3.3973    3.4508    7.5144 H   0  0  0  0  0  0  0  0  0  0  0  0
   -2.9893    2.9497    5.0649 H   0  0  0  0  0  0  0  0  0  0  0  0
    2.7656   -0.1035    1.5430 H   0  0  0  0  0  0  0  0  0  0  0  0
    2.4408    0.9275    3.5804 H   0  0  0  0  0  0  0  0  0  0  0  0
  1  2  2  3
  1 14  1  0
  1 21  1  0
  2  3  1  0
  2  4  1  0
  3 15  1  0
  3 16  1  0
  4  5  1  0
  4 22  1  0
  5 13  1  0
  5  6  2  0
  6  7  1  0
  7 12  2  0
  7  8  1  0
  8  9  2  0
  8 17  1  0
  9 10  1  0
  9 18  1  0
 10 11  2  0
 10 19  1  0
 11 12  1  0
 11 20  1  0
 12 13  1  0
M  CHG  1   1   1
M  END
>  <i_m_ct_stereo_status>  (17) 
1

>  <s_m_source_file>  (17) 
/var/tmp/pbs.5102103.sched01/tmpf9vmf5rd/00u30c83p.sdf

>  <i_m_source_file_index>  (17) 
8

>  <i_lp_mmshare_version>  (17) 
48012

>  <i_f3d_flags>  (17) 
0

>  <s_epik_input>  (17) 
W0hdL049QyhcW05IMl0pL049YygvW25IXTEpb2MoYzEyKVtjSF1bY0hdW2NIXVtjSF0y

>  <s_epik_cmdline>  (17) 
J2VwaWtfcHl0aG9uJywgJy1waHQnLCAnMi4wJywgJy1waCcsICc3LjAnLCAnLXRuJywgJzgnLCAnLW1hJywgJzIwMCcsICctaW1hZScsICc8aW5maWxlLm1hZT4nLCAnLW9tYWUnLCAnPG91dGZpbGUubWFlPic=

>  <r_lp_tautomer_probability>  (17) 
1

>  <r_epik_Ionization_Penalty>  (17) 
0.000147056

>  <r_epik_Ionization_Penalty_Charging>  (17) 
0.000147056

>  <r_epik_Ionization_Penalty_Neutral>  (17) 
2.20886e-13

>  <r_epik_State_Penalty>  (17) 
-0

>  <r_epik_Charging_Adjusted_Penalty>  (17) 
0.000147056

>  <i_epik_Tot_Q>  (17) 
1

>  <i_epik_Tot_abs_Q>  (17) 
1

>  <s_epik_Chemistry_Notes>  (17) 
This compound has an imine and may undergo hydrolysis.

>  <s_lp_Force_Field>  (17) 
OPLS3e

>  <r_lp_Energy>  (17) 
9.69909

>  <b_lp_Chiralities_Consistent>  (17) 
1

>  <s_lp_Variant>  (17) 
5:0-1

>  <s_i_glide_gridfile>  (17) 
pfpi4k_grid

>  <i_i_glide_lignum>  (17) 
8

>  <i_i_glide_rotatable_bonds>  (17) 
2

>  <r_i_docking_score>  (17) 
-4.52382

>  <r_i_glide_ligand_efficiency>  (17) 
-0.347986

>  <r_i_glide_ligand_efficiency_sa>  (17) 
-0.818232

>  <r_i_glide_ligand_efficiency_ln>  (17) 
-1.26897

>  <r_i_glide_gscore>  (17) 
-4.52382

>  <r_i_glide_lipo>  (17) 
-0.181389

>  <r_i_glide_hbond>  (17) 
-0.4

>  <r_i_glide_metal>  (17) 
-0

>  <r_i_glide_rewards>  (17) 
-2.70102

>  <r_i_glide_evdw>  (17) 
-8.18223

>  <r_i_glide_ecoul>  (17) 
-7.53215

>  <r_i_glide_erotb>  (17) 
0.498857

>  <r_i_glide_esite>  (17) 
-0.201333

>  <r_i_glide_emodel>  (17) 
-28.3548

>  <r_i_glide_energy>  (17) 
-15.7144

>  <r_i_glide_einternal>  (17) 
1.85964

>  <r_i_glide_intrahb_reward>  (17) 
-0.5

>  <i_i_glide_confnum>  (17) 
1

>  <i_i_glide_posenum>  (17) 
1

>  <r_i_glide_eff_state_penalty>  (17) 
0

>  <ligand_id>  (17) 
5

>  <original_smiles>  (17) 
N=C(N)N=c1[nH]c2ccccc2o1

>  <smiles>  (17) 
[H]c1c([H])c([H])c2oc(N([H])C(N([H])[H])=[N+]([H])[H])nc2c1[H]

$$$$
5:0:2
     RDKit          3D

 22 23  0  0  1  0  0  0  0  0999 V2000
    1.3146   -0.5478    1.6789 N   0  0  0  0  0  0  0  0  0  0  0  0
    0.5848    0.1833    2.5330 C   0  0  0  0  0  0  0  0  0  0  0  0
   -0.4173    0.9242    2.0377 N   0  0  0  0  0  0  0  0  0  0  0  0
    0.9152    0.0740    3.8416 N   0  0  0  0  0  0  0  0  0  0  0  0
    0.2192    0.5936    4.9282 C   0  0  0  0  0  0  0  0  0  0  0  0
    0.4794    0.3341    6.2228 N   0  0  0  0  0  0  0  0  0  0  0  0
   -0.4702    1.1146    6.8589 C   0  0  0  0  0  0  0  0  0  0  0  0
   -0.7772    1.3290    8.2215 C   0  0  0  0  0  0  0  0  0  0  0  0
   -1.8360    2.1886    8.5951 C   0  0  0  0  0  0  0  0  0  0  0  0
   -2.6080    2.8451    7.6100 C   0  0  0  0  0  0  0  0  0  0  0  0
   -2.3184    2.6454    6.2413 C   0  0  0  0  0  0  0  0  0  0  0  0
   -1.2663    1.7871    5.8964 C   0  0  0  0  0  0  0  0  0  0  0  0
   -0.8203    1.4408    4.6383 O   0  0  0  0  0  0  0  0  0  0  0  0
    1.0448   -0.6060    0.6734 H   0  0  0  0  0  0  0  0  0  0  0  0
   -0.6106    0.9919    1.0335 H   0  0  0  0  0  0  0  0  0  0  0  0
   -0.9697    1.5019    2.6653 H   0  0  0  0  0  0  0  0  0  0  0  0
   -0.1798    0.8390    8.9744 H   0  0  0  0  0  0  0  0  0  0  0  0
   -2.0530    2.3504    9.6424 H   0  0  0  0  0  0  0  0  0  0  0  0
   -3.4099    3.5030    7.9107 H   0  0  0  0  0  0  0  0  0  0  0  0
   -2.8905    3.1257    5.4673 H   0  0  0  0  0  0  0  0  0  0  0  0
    2.0790   -1.1357    1.9876 H   0  0  0  0  0  0  0  0  0  0  0  0
    1.6882   -0.4986    4.1597 H   0  0  0  0  0  0  0  0  0  0  0  0
  1  2  2  3
  1 14  1  0
  1 21  1  0
  2  3  1  0
  2  4  1  0
  3 15  1  0
  3 16  1  0
  4  5  1  0
  4 22  1  0
  5 13  1  0
  5  6  2  0
  6  7  1  0
  7 12  2  0
  7  8  1  0
  8  9  2  0
  8 17  1  0
  9 10  1  0
  9 18  1  0
 10 11  2  0
 10 19  1  0
 11 12  1  0
 11 20  1  0
 12 13  1  0
M  CHG  1   1   1
M  END
>  <i_m_ct_stereo_status>  (18) 
1

>  <s_m_source_file>  (18) 
/var/tmp/pbs.5102103.sched01/tmpf9vmf5rd/00u30c83p.sdf

>  <i_m_source_file_index>  (18) 
8

>  <i_lp_mmshare_version>  (18) 
48012

>  <i_f3d_flags>  (18) 
0

>  <s_epik_input>  (18) 
W0hdL049QyhcW05IMl0pL049YygvW25IXTEpb2MoYzEyKVtjSF1bY0hdW2NIXVtjSF0y

>  <s_epik_cmdline>  (18) 
J2VwaWtfcHl0aG9uJywgJy1waHQnLCAnMi4wJywgJy1waCcsICc3LjAnLCAnLXRuJywgJzgnLCAnLW1hJywgJzIwMCcsICctaW1hZScsICc8aW5maWxlLm1hZT4nLCAnLW9tYWUnLCAnPG91dGZpbGUubWFlPic=

>  <r_lp_tautomer_probability>  (18) 
1

>  <r_epik_Ionization_Penalty>  (18) 
0.000147056

>  <r_epik_Ionization_Penalty_Charging>  (18) 
0.000147056

>  <r_epik_Ionization_Penalty_Neutral>  (18) 
2.20886e-13

>  <r_epik_State_Penalty>  (18) 
-0

>  <r_epik_Charging_Adjusted_Penalty>  (18) 
0.000147056

>  <i_epik_Tot_Q>  (18) 
1

>  <i_epik_Tot_abs_Q>  (18) 
1

>  <s_epik_Chemistry_Notes>  (18) 
This compound has an imine and may undergo hydrolysis.

>  <s_lp_Force_Field>  (18) 
OPLS3e

>  <r_lp_Energy>  (18) 
9.69909

>  <b_lp_Chiralities_Consistent>  (18) 
1

>  <s_lp_Variant>  (18) 
5:0-1

>  <s_i_glide_gridfile>  (18) 
pfpi4k_grid

>  <i_i_glide_lignum>  (18) 
8

>  <i_i_glide_rotatable_bonds>  (18) 
2

>  <r_i_docking_score>  (18) 
-4.48211

>  <r_i_glide_ligand_efficiency>  (18) 
-0.344778

>  <r_i_glide_ligand_efficiency_sa>  (18) 
-0.810688

>  <r_i_glide_ligand_efficiency_ln>  (18) 
-1.25727

>  <r_i_glide_gscore>  (18) 
-4.48211

>  <r_i_glide_lipo>  (18) 
-0.249924

>  <r_i_glide_hbond>  (18) 
-0.395153

>  <r_i_glide_metal>  (18) 
-0

>  <r_i_glide_rewards>  (18) 
-2.70102

>  <r_i_glide_evdw>  (18) 
-9.42468

>  <r_i_glide_ecoul>  (18) 
-6.47145

>  <r_i_glide_erotb>  (18) 
0.498857

>  <r_i_glide_esite>  (18) 
-0.192916

>  <r_i_glide_emodel>  (18) 
-29.072

>  <r_i_glide_energy>  (18) 
-15.8961

>  <r_i_glide_einternal>  (18) 
1.28525

>  <r_i_glide_intrahb_reward>  (18) 
-0.5

>  <i_i_glide_confnum>  (18) 
1

>  <i_i_glide_posenum>  (18) 
5

>  <r_i_glide_eff_state_penalty>  (18) 
0

>  <ligand_id>  (18) 
5

>  <original_smiles>  (18) 
N=C(N)N=c1[nH]c2ccccc2o1

>  <smiles>  (18) 
[H]c1c([H])c([H])c2oc(N([H])C(N([H])[H])=[N+]([H])[H])nc2c1[H]

$$$$
6:0:0
     RDKit          3D

 32 35  0  0  1  0  0  0  0  0999 V2000
    3.6502   -4.4999    2.8748 C   0  0  0  0  0  0  0  0  0  0  0  0
    2.8906   -5.4563    3.4135 N   0  0  0  0  0  0  0  0  0  0  0  0
    2.0457   -5.9852    2.4844 C   0  0  0  0  0  0  0  0  0  0  0  0
    1.0925   -6.9636    2.6532 N   0  0  0  0  0  0  0  0  0  0  0  0
    0.4977   -7.1333    1.4230 C   0  0  0  0  0  0  0  0  0  0  0  0
    0.9520   -6.3452    0.4843 N   0  0  0  0  0  0  0  0  0  0  0  0
    1.9563   -5.6221    1.1155 C   0  0  0  0  0  0  0  0  0  0  0  0
    2.8367   -4.6026    0.6854 C   0  0  0  0  0  0  0  0  0  0  0  0
    2.8266   -4.2011   -0.6047 N   0  0  0  0  0  0  0  0  0  0  0  0
    3.2291   -2.8563   -1.0042 C   0  0  2  0  0  0  0  0  0  0  0  0
    3.0082   -2.5940   -2.5153 C   0  0  0  0  0  0  0  0  0  0  0  0
    4.3938   -2.1221   -2.9934 C   0  0  2  0  0  0  0  0  0  0  0  0
    5.3384   -3.3327   -3.0392 C   0  0  0  0  0  0  0  0  0  0  0  0
    5.5746   -3.6333   -1.5493 C   0  0  0  0  0  0  0  0  0  0  0  0
    4.7342   -2.5522   -0.8447 C   0  0  1  0  0  0  0  0  0  0  0  0
    4.9073   -1.3645   -1.7789 C   0  0  0  0  0  0  0  0  0  0  0  0
    3.6658   -4.0537    1.6113 N   0  0  0  0  0  0  0  0  0  0  0  0
    0.9361   -7.4296    3.5392 H   0  0  0  0  0  0  0  0  0  0  0  0
    2.6156   -4.8412   -1.3664 H   0  0  0  0  0  0  0  0  0  0  0  0
    4.3614   -4.0304    3.5412 H   0  0  0  0  0  0  0  0  0  0  0  0
   -0.2832   -7.8562    1.2457 H   0  0  0  0  0  0  0  0  0  0  0  0
    2.6448   -2.1348   -0.4291 H   0  0  0  0  0  0  0  0  0  0  0  0
    2.6600   -3.4699   -3.0685 H   0  0  0  0  0  0  0  0  0  0  0  0
    2.2650   -1.8071   -2.6552 H   0  0  0  0  0  0  0  0  0  0  0  0
    4.3686   -1.5467   -3.9182 H   0  0  0  0  0  0  0  0  0  0  0  0
    4.9070   -4.1799   -3.5752 H   0  0  0  0  0  0  0  0  0  0  0  0
    6.2809   -3.0750   -3.5169 H   0  0  0  0  0  0  0  0  0  0  0  0
    5.2755   -4.6488   -1.2868 H   0  0  0  0  0  0  0  0  0  0  0  0
    6.6289   -3.5293   -1.2929 H   0  0  0  0  0  0  0  0  0  0  0  0
    5.0461   -2.3497    0.1807 H   0  0  0  0  0  0  0  0  0  0  0  0
    5.9441   -1.0531   -1.8743 H   0  0  0  0  0  0  0  0  0  0  0  0
    4.2957   -0.5014   -1.5087 H   0  0  0  0  0  0  0  0  0  0  0  0
  1 20  1  0
  1 17  2  0
  1  2  1  0
  2  3  2  0
  3  4  1  0
  3  7  1  0
  4  5  1  0
  4 18  1  0
  5  6  2  0
  5 21  1  0
  6  7  1  0
  7  8  2  0
  8 17  1  0
  8  9  1  0
  9 10  1  0
  9 19  1  0
 10 15  1  0
 10 11  1  0
 10 22  1  1
 11 12  1  0
 11 23  1  0
 11 24  1  0
 12 16  1  0
 12 13  1  0
 12 25  1  6
 13 14  1  0
 13 26  1  0
 13 27  1  0
 14 15  1  0
 14 28  1  0
 14 29  1  0
 15 16  1  0
 15 30  1  1
 16 31  1  0
 16 32  1  0
M  END
>  <i_m_ct_stereo_status>  (19) 
1

>  <s_m_source_file>  (19) 
/var/tmp/pbs.5102103.sched01/tmpf9vmf5rd/00u30c83p.sdf

>  <i_m_source_file_index>  (19) 
9

>  <i_lp_mmshare_version>  (19) 
48012

>  <i_f3d_flags>  (19) 
0

>  <s_epik_input>  (19) 
W25IXTFbY0hdbmMoYzEyKS9jKFtuSF1bY0hdbjIpPU5cW0NASF0oW0NIMl1bQ0BIXTM0KVtDQEhdKFtDSDJdNClbQ0gyXVtDSDJdMw==

>  <s_epik_cmdline>  (19) 
J2VwaWtfcHl0aG9uJywgJy1waHQnLCAnMi4wJywgJy1waCcsICc3LjAnLCAnLXRuJywgJzgnLCAnLW1hJywgJzIwMCcsICctaW1hZScsICc8aW5maWxlLm1hZT4nLCAnLW9tYWUnLCAnPG91dGZpbGUubWFlPic=

>  <r_lp_tautomer_probability>  (19) 
0.955582

>  <r_epik_Ionization_Penalty>  (19) 
0.00219345

>  <r_epik_Ionization_Penalty_Charging>  (19) 
0

>  <r_epik_Ionization_Penalty_Neutral>  (19) 
0.00219345

>  <r_epik_State_Penalty>  (19) 
0.0207074

>  <r_epik_Charging_Adjusted_Penalty>  (19) 
0.0207074

>  <i_epik_Tot_Q>  (19) 
0

>  <i_epik_Tot_abs_Q>  (19) 
0

>  <s_lp_Force_Field>  (19) 
OPLS3e

>  <r_lp_Energy>  (19) 
45.4777

>  <b_lp_Chiralities_Consistent>  (19) 
1

>  <s_lp_Variant>  (19) 
6:0-1

>  <s_i_glide_gridfile>  (19) 
pfpi4k_grid

>  <i_i_glide_lignum>  (19) 
9

>  <i_i_glide_rotatable_bonds>  (19) 
2

>  <r_i_docking_score>  (19) 
-4.46877

>  <r_i_glide_ligand_efficiency>  (19) 
-0.262869

>  <r_i_glide_ligand_efficiency_sa>  (19) 
-0.675911

>  <r_i_glide_ligand_efficiency_ln>  (19) 
-1.1658

>  <r_i_glide_gscore>  (19) 
-4.46877

>  <r_i_glide_lipo>  (19) 
-0.398165

>  <r_i_glide_hbond>  (19) 
-0.534479

>  <r_i_glide_metal>  (19) 
-0

>  <r_i_glide_rewards>  (19) 
-1.84581

>  <r_i_glide_evdw>  (19) 
-22.2918

>  <r_i_glide_ecoul>  (19) 
-6.93784

>  <r_i_glide_erotb>  (19) 
0.649025

>  <r_i_glide_esite>  (19) 
-0.184079

>  <r_i_glide_emodel>  (19) 
-36.2583

>  <r_i_glide_energy>  (19) 
-29.2296

>  <r_i_glide_einternal>  (19) 
1.94138

>  <r_i_glide_intrahb_reward>  (19) 
-0

>  <i_i_glide_confnum>  (19) 
1

>  <i_i_glide_posenum>  (19) 
31

>  <r_i_glide_eff_state_penalty>  (19) 
0

>  <ligand_id>  (19) 
6

>  <original_smiles>  (19) 
c1nc2[nH]cnc2c(=NC2CC3CCC2C3)[nH]1

>  <smiles>  (19) 
[H]c1nc(N([H])C2([H])C([H])([H])C3([H])C([H])([H])C([H])([H])C2([H])C3([H])[H])c2nc([H])n([H])c2n1

$$$$
6:0:1
     RDKit          3D

 32 35  0  0  1  0  0  0  0  0999 V2000
   -1.2964   -0.0028    5.4916 C   0  0  0  0  0  0  0  0  0  0  0  0
   -1.1018    0.3600    4.2233 N   0  0  0  0  0  0  0  0  0  0  0  0
   -1.3968    1.6781    4.0414 C   0  0  0  0  0  0  0  0  0  0  0  0
   -1.3378    2.4186    2.8821 N   0  0  0  0  0  0  0  0  0  0  0  0
   -1.7463    3.6872    3.2197 C   0  0  0  0  0  0  0  0  0  0  0  0
   -2.0646    3.8448    4.4776 N   0  0  0  0  0  0  0  0  0  0  0  0
   -1.8564    2.5870    5.0329 C   0  0  0  0  0  0  0  0  0  0  0  0
   -2.0198    2.0503    6.3337 C   0  0  0  0  0  0  0  0  0  0  0  0
   -2.5054    2.8269    7.3261 N   0  0  0  0  0  0  0  0  0  0  0  0
   -2.3583    2.4774    8.7339 C   0  0  2  0  0  0  0  0  0  0  0  0
   -3.3414    3.2506    9.6371 C   0  0  0  0  0  0  0  0  0  0  0  0
   -2.4197    3.8790   10.7000 C   0  0  2  0  0  0  0  0  0  0  0  0
   -1.6490    5.0497   10.0690 C   0  0  0  0  0  0  0  0  0  0  0  0
   -0.6542    4.3305    9.1371 C   0  0  0  0  0  0  0  0  0  0  0  0
   -0.9896    2.8385    9.3568 C   0  0  1  0  0  0  0  0  0  0  0  0
   -1.3291    2.8281   10.8456 C   0  0  0  0  0  0  0  0  0  0  0  0
   -1.7294    0.7347    6.5243 N   0  0  0  0  0  0  0  0  0  0  0  0
   -1.0249    2.0536    1.9893 H   0  0  0  0  0  0  0  0  0  0  0  0
   -2.7775    3.7815    7.1502 H   0  0  0  0  0  0  0  0  0  0  0  0
   -1.0756   -1.0386    5.7088 H   0  0  0  0  0  0  0  0  0  0  0  0
   -1.7878    4.4944    2.4993 H   0  0  0  0  0  0  0  0  0  0  0  0
   -2.5377    1.4108    8.8637 H   0  0  0  0  0  0  0  0  0  0  0  0
   -3.9285    4.0051    9.1081 H   0  0  0  0  0  0  0  0  0  0  0  0
   -4.0433    2.5571   10.0994 H   0  0  0  0  0  0  0  0  0  0  0  0
   -2.9361    4.1363   11.6258 H   0  0  0  0  0  0  0  0  0  0  0  0
   -2.3058    5.7374    9.5348 H   0  0  0  0  0  0  0  0  0  0  0  0
   -1.1185    5.6196   10.8319 H   0  0  0  0  0  0  0  0  0  0  0  0
   -0.7580    4.6405    8.0982 H   0  0  0  0  0  0  0  0  0  0  0  0
    0.3718    4.5434    9.4413 H   0  0  0  0  0  0  0  0  0  0  0  0
   -0.1822    2.1594    9.0765 H   0  0  0  0  0  0  0  0  0  0  0  0
   -0.5104    3.1502   11.4907 H   0  0  0  0  0  0  0  0  0  0  0  0
   -1.7047    1.8698   11.2118 H   0  0  0  0  0  0  0  0  0  0  0  0
  1 20  1  0
  1 17  2  0
  1  2  1  0
  2  3  2  0
  3  4  1  0
  3  7  1  0
  4  5  1  0
  4 18  1  0
  5  6  2  0
  5 21  1  0
  6  7  1  0
  7  8  2  0
  8 17  1  0
  8  9  1  0
  9 10  1  0
  9 19  1  0
 10 15  1  0
 10 11  1  0
 10 22  1  6
 11 12  1  0
 11 23  1  0
 11 24  1  0
 12 16  1  0
 12 13  1  0
 12 25  1  1
 13 14  1  0
 13 26  1  0
 13 27  1  0
 14 15  1  0
 14 28  1  0
 14 29  1  0
 15 16  1  0
 15 30  1  1
 16 31  1  0
 16 32  1  0
M  END
>  <i_m_ct_stereo_status>  (20) 
1

>  <s_m_source_file>  (20) 
/var/tmp/pbs.5102103.sched01/tmpf9vmf5rd/00u30c83p.sdf

>  <i_m_source_file_index>  (20) 
9

>  <i_lp_mmshare_version>  (20) 
48012

>  <i_f3d_flags>  (20) 
0

>  <s_epik_input>  (20) 
W25IXTFbY0hdbmMoYzEyKS9jKFtuSF1bY0hdbjIpPU5cW0NASF0oW0NIMl1bQ0BIXTM0KVtDQEhdKFtDSDJdNClbQ0gyXVtDSDJdMw==

>  <s_epik_cmdline>  (20) 
J2VwaWtfcHl0aG9uJywgJy1waHQnLCAnMi4wJywgJy1waCcsICc3LjAnLCAnLXRuJywgJzgnLCAnLW1hJywgJzIwMCcsICctaW1hZScsICc8aW5maWxlLm1hZT4nLCAnLW9tYWUnLCAnPG91dGZpbGUubWFlPic=

>  <r_lp_tautomer_probability>  (20) 
0.955582

>  <r_epik_Ionization_Penalty>  (20) 
0.00219345

>  <r_epik_Ionization_Penalty_Charging>  (20) 
0

>  <r_epik_Ionization_Penalty_Neutral>  (20) 
0.00219345

>  <r_epik_State_Penalty>  (20) 
0.0207074

>  <r_epik_Charging_Adjusted_Penalty>  (20) 
0.0207074

>  <i_epik_Tot_Q>  (20) 
0

>  <i_epik_Tot_abs_Q>  (20) 
0

>  <s_lp_Force_Field>  (20) 
OPLS3e

>  <r_lp_Energy>  (20) 
45.4777

>  <b_lp_Chiralities_Consistent>  (20) 
1

>  <s_lp_Variant>  (20) 
6:0-1

>  <s_i_glide_gridfile>  (20) 
pfpi4k_grid

>  <i_i_glide_lignum>  (20) 
9

>  <i_i_glide_rotatable_bonds>  (20) 
2

>  <r_i_docking_score>  (20) 
-3.0243

>  <r_i_glide_ligand_efficiency>  (20) 
-0.1779

>  <r_i_glide_ligand_efficiency_sa>  (20) 
-0.457431

>  <r_i_glide_ligand_efficiency_ln>  (20) 
-0.788973

>  <r_i_glide_gscore>  (20) 
-3.0243

>  <r_i_glide_lipo>  (20) 
-0.00510407

>  <r_i_glide_hbond>  (20) 
-0.148976

>  <r_i_glide_metal>  (20) 
-0

>  <r_i_glide_rewards>  (20) 
-1.84581

>  <r_i_glide_evdw>  (20) 
-21.9554

>  <r_i_glide_ecoul>  (20) 
-2.40851

>  <r_i_glide_erotb>  (20) 
0.649025

>  <r_i_glide_esite>  (20) 
-0.214386

>  <r_i_glide_emodel>  (20) 
-29.6136

>  <r_i_glide_energy>  (20) 
-24.3639

>  <r_i_glide_einternal>  (20) 
0.495301

>  <r_i_glide_intrahb_reward>  (20) 
-0

>  <i_i_glide_confnum>  (20) 
1

>  <i_i_glide_posenum>  (20) 
7

>  <r_i_glide_eff_state_penalty>  (20) 
0

>  <ligand_id>  (20) 
6

>  <original_smiles>  (20) 
c1nc2[nH]cnc2c(=NC2CC3CCC2C3)[nH]1

>  <smiles>  (20) 
[H]c1nc(N([H])C2([H])C([H])([H])C3([H])C([H])([H])C([H])([H])C2([H])C3([H])[H])c2nc([H])n([H])c2n1

$$$$
6:0:2
     RDKit          3D

 32 35  0  0  1  0  0  0  0  0999 V2000
   -1.4405   -0.9222    5.5409 C   0  0  0  0  0  0  0  0  0  0  0  0
   -0.7628   -0.9712    4.3992 N   0  0  0  0  0  0  0  0  0  0  0  0
   -0.3977    0.2753    3.9901 C   0  0  0  0  0  0  0  0  0  0  0  0
    0.2879    0.6317    2.8523 N   0  0  0  0  0  0  0  0  0  0  0  0
    0.4164    1.9972    2.9033 C   0  0  0  0  0  0  0  0  0  0  0  0
   -0.1272    2.5612    3.9503 N   0  0  0  0  0  0  0  0  0  0  0  0
   -0.6628    1.4967    4.6636 C   0  0  0  0  0  0  0  0  0  0  0  0
   -1.3939    1.3870    5.8726 C   0  0  0  0  0  0  0  0  0  0  0  0
   -1.7216    2.4934    6.5720 N   0  0  0  0  0  0  0  0  0  0  0  0
   -2.2583    2.4289    7.9295 C   0  0  2  0  0  0  0  0  0  0  0  0
   -2.9430    3.7429    8.3583 C   0  0  0  0  0  0  0  0  0  0  0  0
   -2.2458    4.0942    9.6820 C   0  0  2  0  0  0  0  0  0  0  0  0
   -0.8198    4.5912    9.3896 C   0  0  0  0  0  0  0  0  0  0  0  0
   -0.0958    3.3043    8.9518 C   0  0  0  0  0  0  0  0  0  0  0  0
   -1.2052    2.2346    9.0453 C   0  0  1  0  0  0  0  0  0  0  0  0
   -1.9839    2.7164   10.2692 C   0  0  0  0  0  0  0  0  0  0  0  0
   -1.7701    0.1451    6.2798 N   0  0  0  0  0  0  0  0  0  0  0  0
    0.6066   -0.0285    2.1564 H   0  0  0  0  0  0  0  0  0  0  0  0
   -1.4019    3.3999    6.2663 H   0  0  0  0  0  0  0  0  0  0  0  0
   -1.7686   -1.8821    5.9042 H   0  0  0  0  0  0  0  0  0  0  0  0
    0.9431    2.5467    2.1395 H   0  0  0  0  0  0  0  0  0  0  0  0
   -2.9853    1.6195    7.9911 H   0  0  0  0  0  0  0  0  0  0  0  0
   -2.8316    4.5434    7.6283 H   0  0  0  0  0  0  0  0  0  0  0  0
   -4.0095    3.5784    8.5107 H   0  0  0  0  0  0  0  0  0  0  0  0
   -2.8245    4.7692   10.3116 H   0  0  0  0  0  0  0  0  0  0  0  0
   -0.7974    5.3667    8.6238 H   0  0  0  0  0  0  0  0  0  0  0  0
   -0.3607    5.0006   10.2896 H   0  0  0  0  0  0  0  0  0  0  0  0
    0.3349    3.3878    7.9546 H   0  0  0  0  0  0  0  0  0  0  0  0
    0.7186    3.0740    9.6391 H   0  0  0  0  0  0  0  0  0  0  0  0
   -0.8269    1.2143    9.1257 H   0  0  0  0  0  0  0  0  0  0  0  0
   -1.3894    2.7501   11.1823 H   0  0  0  0  0  0  0  0  0  0  0  0
   -2.8977    2.1535   10.4709 H   0  0  0  0  0  0  0  0  0  0  0  0
  1 20  1  0
  1 17  2  0
  1  2  1  0
  2  3  2  0
  3  4  1  0
  3  7  1  0
  4  5  1  0
  4 18  1  0
  5  6  2  0
  5 21  1  0
  6  7  1  0
  7  8  2  0
  8 17  1  0
  8  9  1  0
  9 10  1  0
  9 19  1  0
 10 15  1  0
 10 11  1  0
 10 22  1  6
 11 12  1  0
 11 23  1  0
 11 24  1  0
 12 16  1  0
 12 13  1  0
 12 25  1  1
 13 14  1  0
 13 26  1  0
 13 27  1  0
 14 15  1  0
 14 28  1  0
 14 29  1  0
 15 16  1  0
 15 30  1  1
 16 31  1  0
 16 32  1  0
M  END
>  <i_m_ct_stereo_status>  (21) 
1

>  <s_m_source_file>  (21) 
/var/tmp/pbs.5102103.sched01/tmpf9vmf5rd/00u30c83p.sdf

>  <i_m_source_file_index>  (21) 
9

>  <i_lp_mmshare_version>  (21) 
48012

>  <i_f3d_flags>  (21) 
0

>  <s_epik_input>  (21) 
W25IXTFbY0hdbmMoYzEyKS9jKFtuSF1bY0hdbjIpPU5cW0NASF0oW0NIMl1bQ0BIXTM0KVtDQEhdKFtDSDJdNClbQ0gyXVtDSDJdMw==

>  <s_epik_cmdline>  (21) 
J2VwaWtfcHl0aG9uJywgJy1waHQnLCAnMi4wJywgJy1waCcsICc3LjAnLCAnLXRuJywgJzgnLCAnLW1hJywgJzIwMCcsICctaW1hZScsICc8aW5maWxlLm1hZT4nLCAnLW9tYWUnLCAnPG91dGZpbGUubWFlPic=

>  <r_lp_tautomer_probability>  (21) 
0.955582

>  <r_epik_Ionization_Penalty>  (21) 
0.00219345

>  <r_epik_Ionization_Penalty_Charging>  (21) 
0

>  <r_epik_Ionization_Penalty_Neutral>  (21) 
0.00219345

>  <r_epik_State_Penalty>  (21) 
0.0207074

>  <r_epik_Charging_Adjusted_Penalty>  (21) 
0.0207074

>  <i_epik_Tot_Q>  (21) 
0

>  <i_epik_Tot_abs_Q>  (21) 
0

>  <s_lp_Force_Field>  (21) 
OPLS3e

>  <r_lp_Energy>  (21) 
45.4777

>  <b_lp_Chiralities_Consistent>  (21) 
1

>  <s_lp_Variant>  (21) 
6:0-1

>  <s_i_glide_gridfile>  (21) 
pfpi4k_grid

>  <i_i_glide_lignum>  (21) 
9

>  <i_i_glide_rotatable_bonds>  (21) 
2

>  <r_i_docking_score>  (21) 
-2.95835

>  <r_i_glide_ligand_efficiency>  (21) 
-0.17402

>  <r_i_glide_ligand_efficiency_sa>  (21) 
-0.447455

>  <r_i_glide_ligand_efficiency_ln>  (21) 
-0.771767

>  <r_i_glide_gscore>  (21) 
-2.95835

>  <r_i_glide_lipo>  (21) 
-0.113138

>  <r_i_glide_hbond>  (21) 
-0.16

>  <r_i_glide_metal>  (21) 
-0

>  <r_i_glide_rewards>  (21) 
-1.84581

>  <r_i_glide_evdw>  (21) 
-18.6678

>  <r_i_glide_ecoul>  (21) 
-2.50104

>  <r_i_glide_erotb>  (21) 
0.649025

>  <r_i_glide_esite>  (21) 
-0.179875

>  <r_i_glide_emodel>  (21) 
-26.4479

>  <r_i_glide_energy>  (21) 
-21.1689

>  <r_i_glide_einternal>  (21) 
0.239901

>  <r_i_glide_intrahb_reward>  (21) 
-0

>  <i_i_glide_confnum>  (21) 
6

>  <i_i_glide_posenum>  (21) 
39

>  <r_i_glide_eff_state_penalty>  (21) 
0

>  <ligand_id>  (21) 
6

>  <original_smiles>  (21) 
c1nc2[nH]cnc2c(=NC2CC3CCC2C3)[nH]1

>  <smiles>  (21) 
[H]c1nc(N([H])C2([H])C([H])([H])C3([H])C([H])([H])C([H])([H])C2([H])C3([H])[H])c2nc([H])n([H])c2n1

$$$$
7:0:0
     RDKit          3D

 66 71  0  0  1  0  0  0  0  0999 V2000
    5.8721   -3.3876   -2.6811 C   0  0  0  0  0  0  0  0  0  0  0  0
    5.1763   -3.0053   -1.4419 N   0  0  0  0  0  0  0  0  0  0  0  0
    4.3086   -1.9687   -1.4346 C   0  0  0  0  0  0  0  0  0  0  0  0
    4.1306   -1.2521   -2.4246 O   0  0  0  0  0  0  0  0  0  0  0  0
    3.6069   -1.7417   -0.1710 C   0  0  0  0  0  0  0  0  0  0  0  0
    4.0664   -2.2552    0.9841 C   0  0  0  0  0  0  0  0  0  0  0  0
    5.2998   -3.1275    1.0757 C   0  0  1  0  0  0  0  0  0  0  0  0
    6.5182   -2.1832    1.2134 C   0  0  0  0  0  0  0  0  0  0  0  0
    5.2644   -4.1149    2.3077 C   0  0  1  0  0  0  0  0  0  0  0  0
    5.0616   -3.4145    3.6860 C   0  0  0  0  0  0  0  0  0  0  0  0
    5.0875   -4.3928    4.8715 C   0  0  0  0  0  0  0  0  0  0  0  0
    4.0896   -5.4980    4.6034 C   0  0  0  0  0  0  0  0  0  0  0  0
    3.0067   -5.8608    5.2831 C   0  0  0  0  0  0  0  0  0  0  0  0
    2.5353   -5.3428    6.6378 C   0  0  0  0  0  0  0  0  0  0  0  0
    1.1830   -4.6386    6.6520 C   0  0  2  0  0  0  0  0  0  0  0  0
    1.1497   -3.3931    5.7807 C   0  0  0  0  0  0  0  0  0  0  0  0
    0.4819   -4.4992    8.0460 C   0  0  0  0  0  0  0  0  0  0  0  0
   -0.5813   -5.4599    7.5320 C   0  0  0  0  0  0  0  0  0  0  0  0
    0.0351   -5.5993    6.3788 C   0  0  0  0  0  0  0  0  0  0  0  0
   -0.2472   -6.4899    5.1647 C   0  0  0  0  0  0  0  0  0  0  0  0
    0.8530   -6.5134    4.0885 C   0  0  0  0  0  0  0  0  0  0  0  0
    2.2599   -6.9591    4.5488 C   0  0  1  0  0  0  0  0  0  0  0  0
    3.1279   -7.2182    3.3672 N   0  0  2  0  0  0  0  0  0  0  0  0
    3.5379   -8.6253    3.2423 C   0  0  0  0  0  0  0  0  0  0  0  0
    4.2674   -6.2679    3.3378 C   0  0  1  0  0  0  0  0  0  0  0  0
    4.2597   -5.2937    2.1301 C   0  0  2  0  0  0  0  0  0  0  0  0
    4.5854   -6.0484    0.8374 C   0  0  0  0  0  0  0  0  0  0  0  0
    4.5033   -5.1139   -0.3704 C   0  0  0  0  0  0  0  0  0  0  0  0
    5.4444   -3.8899   -0.2787 C   0  0  1  0  0  0  0  0  0  0  0  0
    5.7457   -2.6629   -3.4836 H   0  0  0  0  0  0  0  0  0  0  0  0
    5.4606   -4.3224   -3.0630 H   0  0  0  0  0  0  0  0  0  0  0  0
    6.9459   -3.4866   -2.5283 H   0  0  0  0  0  0  0  0  0  0  0  0
    2.7221   -1.1318   -0.1558 H   0  0  0  0  0  0  0  0  0  0  0  0
    3.5193   -2.0478    1.8904 H   0  0  0  0  0  0  0  0  0  0  0  0
    7.4353   -2.7584    1.3019 H   0  0  0  0  0  0  0  0  0  0  0  0
    6.4307   -1.5136    2.0690 H   0  0  0  0  0  0  0  0  0  0  0  0
    6.6386   -1.5419    0.3420 H   0  0  0  0  0  0  0  0  0  0  0  0
    6.2566   -4.5753    2.3497 H   0  0  0  0  0  0  0  0  0  0  0  0
    5.8112   -2.6482    3.8572 H   0  0  0  0  0  0  0  0  0  0  0  0
    4.0960   -2.9110    3.7197 H   0  0  0  0  0  0  0  0  0  0  0  0
    6.0823   -4.8413    4.9655 H   0  0  0  0  0  0  0  0  0  0  0  0
    4.8817   -3.8745    5.8046 H   0  0  0  0  0  0  0  0  0  0  0  0
    2.5490   -6.1763    7.3406 H   0  0  0  0  0  0  0  0  0  0  0  0
    3.2838   -4.6437    7.0189 H   0  0  0  0  0  0  0  0  0  0  0  0
    1.8161   -2.6359    6.2049 H   0  0  0  0  0  0  0  0  0  0  0  0
    0.1580   -2.9447    5.7528 H   0  0  0  0  0  0  0  0  0  0  0  0
    1.4725   -3.5691    4.7586 H   0  0  0  0  0  0  0  0  0  0  0  0
    1.1162   -4.8503    8.8609 H   0  0  0  0  0  0  0  0  0  0  0  0
    0.1617   -3.4780    8.2435 H   0  0  0  0  0  0  0  0  0  0  0  0
   -1.4712   -5.8745    8.0033 H   0  0  0  0  0  0  0  0  0  0  0  0
   -0.4471   -7.5032    5.5185 H   0  0  0  0  0  0  0  0  0  0  0  0
   -1.1825   -6.1586    4.7114 H   0  0  0  0  0  0  0  0  0  0  0  0
    0.5129   -7.2092    3.3164 H   0  0  0  0  0  0  0  0  0  0  0  0
    0.9059   -5.5416    3.5999 H   0  0  0  0  0  0  0  0  0  0  0  0
    2.1859   -7.8338    5.1958 H   0  0  0  0  0  0  0  0  0  0  0  0
    4.1531   -8.9408    4.0965 H   0  0  0  0  0  0  0  0  0  0  0  0
    4.1274   -8.7910    2.3314 H   0  0  0  0  0  0  0  0  0  0  0  0
    2.6692   -9.2973    3.1919 H   0  0  0  0  0  0  0  0  0  0  0  0
    5.2295   -6.7846    3.3914 H   0  0  0  0  0  0  0  0  0  0  0  0
    3.2584   -4.8656    2.0408 H   0  0  0  0  0  0  0  0  0  0  0  0
    5.5851   -6.4832    0.8951 H   0  0  0  0  0  0  0  0  0  0  0  0
    3.8902   -6.8741    0.6849 H   0  0  0  0  0  0  0  0  0  0  0  0
    4.7747   -5.6963   -1.2501 H   0  0  0  0  0  0  0  0  0  0  0  0
    3.4710   -4.7970   -0.5189 H   0  0  0  0  0  0  0  0  0  0  0  0
    6.4624   -4.2686   -0.3601 H   0  0  0  0  0  0  0  0  0  0  0  0
    2.5609   -7.0174    2.5428 H   0  0  0  0  0  0  0  0  0  0  0  0
  1  2  1  0
  1 30  1  0
  1 31  1  0
  1 32  1  0
  2 29  1  0
  2  3  1  0
  3  4  2  0
  3  5  1  0
  5  6  2  0
  5 33  1  0
  6  7  1  0
  6 34  1  0
  7 29  1  0
  7  8  1  1
  7  9  1  0
  8 35  1  0
  8 36  1  0
  8 37  1  0
  9 26  1  0
  9 10  1  0
  9 38  1  1
 10 11  1  0
 10 39  1  0
 10 40  1  0
 11 12  1  0
 11 41  1  0
 11 42  1  0
 12 25  1  0
 12 13  2  0
 13 22  1  0
 13 14  1  0
 14 15  1  0
 14 43  1  0
 14 44  1  0
 15 19  1  0
 15 16  1  6
 15 17  1  0
 16 45  1  0
 16 46  1  0
 16 47  1  0
 17 18  1  0
 17 48  1  0
 17 49  1  0
 18 19  2  0
 18 50  1  0
 19 20  1  0
 20 21  1  0
 20 51  1  0
 20 52  1  0
 21 22  1  0
 21 53  1  0
 21 54  1  0
 22 23  1  0
 22 55  1  1
 23 24  1  0
 23 25  1  0
 23 66  1  6
 24 56  1  0
 24 57  1  0
 24 58  1  0
 25 26  1  0
 25 59  1  1
 26 27  1  0
 26 60  1  6
 27 28  1  0
 27 61  1  0
 27 62  1  0
 28 29  1  0
 28 63  1  0
 28 64  1  0
 29 65  1  6
M  CHG  1  23   1
M  END
>  <i_m_ct_stereo_status>  (22) 
1

>  <s_m_source_file>  (22) 
/var/tmp/pbs.5102103.sched01/tmpf9vmf5rd/00u30c83p.sdf

>  <i_m_source_file_index>  (22) 
11

>  <i_lp_mmshare_version>  (22) 
48012

>  <i_f3d_flags>  (22) 
0

>  <s_epik_input>  (22) 
W0NIXTE9W0NIXUMoPU8pTihbQ0gzXSlbQ0BASF0yW0NIMl1bQ0gyXVtDQEhdKFtDQEhdM1tDQF0xMltDSDNdKVtDQEhdNEMoW0NIMl1bQ0gyXTMpPUM1W0NASF0oTjRbQ0gzXSlbQ0gyXVtDSDJdQzZbQ0BAXShbQ0gyXTUpKFtDSDNdKVtDSDJdW0NIXT02

>  <s_epik_cmdline>  (22) 
J2VwaWtfcHl0aG9uJywgJy1waHQnLCAnMi4wJywgJy1waCcsICc3LjAnLCAnLXRuJywgJzgnLCAnLW1hJywgJzIwMCcsICctaW1hZScsICc8aW5maWxlLm1hZT4nLCAnLW9tYWUnLCAnPG91dGZpbGUubWFlPic=

>  <r_lp_tautomer_probability>  (22) 
1

>  <r_epik_Ionization_Penalty>  (22) 
0.000188621

>  <r_epik_Ionization_Penalty_Charging>  (22) 
0.000178681

>  <r_epik_Ionization_Penalty_Neutral>  (22) 
9.93977e-06

>  <r_epik_State_Penalty>  (22) 
-0

>  <r_epik_Charging_Adjusted_Penalty>  (22) 
0.000178681

>  <i_epik_Tot_Q>  (22) 
1

>  <i_epik_Tot_abs_Q>  (22) 
1

>  <s_lp_Force_Field>  (22) 
OPLS3e

>  <r_lp_Energy>  (22) 
39.2844

>  <b_lp_Chiralities_Consistent>  (22) 
1

>  <s_lp_Variant>  (22) 
7:0-1

>  <s_i_glide_gridfile>  (22) 
pfpi4k_grid

>  <i_i_glide_lignum>  (22) 
11

>  <i_i_glide_rotatable_bonds>  (22) 
0

>  <r_i_docking_score>  (22) 
-2.98469

>  <r_i_glide_ligand_efficiency>  (22) 
-0.10292

>  <r_i_glide_ligand_efficiency_sa>  (22) 
-0.316203

>  <r_i_glide_ligand_efficiency_ln>  (22) 
-0.683417

>  <r_i_glide_gscore>  (22) 
-2.98469

>  <r_i_glide_lipo>  (22) 
-0.725297

>  <r_i_glide_hbond>  (22) 
0

>  <r_i_glide_metal>  (22) 
-0

>  <r_i_glide_rewards>  (22) 
-0.772245

>  <r_i_glide_evdw>  (22) 
-21.6336

>  <r_i_glide_ecoul>  (22) 
-2.48661

>  <r_i_glide_erotb>  (22) 
0

>  <r_i_glide_esite>  (22) 
-0.0324705

>  <r_i_glide_emodel>  (22) 
-29.3855

>  <r_i_glide_energy>  (22) 
-24.1202

>  <r_i_glide_einternal>  (22) 
0

>  <r_i_glide_intrahb_reward>  (22) 
-0

>  <i_i_glide_confnum>  (22) 
1

>  <i_i_glide_posenum>  (22) 
10

>  <r_i_glide_eff_state_penalty>  (22) 
0

>  <ligand_id>  (22) 
7

>  <original_smiles>  (22) 
CN1C(=O)C=CC2(C)C3CCC4=C5CC6(C)CC=C6CCC5N(C)C4C3CCC12

>  <smiles>  (22) 
[H]C1=C([H])C2(C([H])([H])[H])C([H])(N(C([H])([H])[H])C1=O)C([H])([H])C([H])([H])C1([H])C2([H])C([H])([H])C([H])([H])C2=C3C([H])([H])C4(C([H])([H])[H])C(=C([H])C4([H])[H])C([H])([H])C([H])([H])C3([H])[N+]([H])(C([H])([H])[H])C21[H]

$$$$
7:0:1
     RDKit          3D

 66 71  0  0  1  0  0  0  0  0999 V2000
   10.4762   -7.1196    3.9861 C   0  0  0  0  0  0  0  0  0  0  0  0
    9.0737   -6.7392    3.7508 N   0  0  0  0  0  0  0  0  0  0  0  0
    8.7131   -5.9826    2.6772 C   0  0  0  0  0  0  0  0  0  0  0  0
    9.5300   -5.4661    1.9043 O   0  0  0  0  0  0  0  0  0  0  0  0
    7.2831   -5.7730    2.5000 C   0  0  0  0  0  0  0  0  0  0  0  0
    6.4333   -5.9266    3.5292 C   0  0  0  0  0  0  0  0  0  0  0  0
    6.8612   -6.4038    4.9105 C   0  0  1  0  0  0  0  0  0  0  0  0
    7.2926   -5.1650    5.7353 C   0  0  0  0  0  0  0  0  0  0  0  0
    5.6979   -7.1412    5.6789 C   0  0  1  0  0  0  0  0  0  0  0  0
    4.3977   -6.2935    5.8453 C   0  0  0  0  0  0  0  0  0  0  0  0
    3.2991   -7.0198    6.6360 C   0  0  0  0  0  0  0  0  0  0  0  0
    3.0577   -8.3694    6.0007 C   0  0  0  0  0  0  0  0  0  0  0  0
    1.9569   -8.8913    5.4555 C   0  0  0  0  0  0  0  0  0  0  0  0
    0.5573   -8.2879    5.4272 C   0  0  0  0  0  0  0  0  0  0  0  0
   -0.0061   -7.9742    4.0320 C   0  0  2  0  0  0  0  0  0  0  0  0
    0.8246   -6.9330    3.2908 C   0  0  0  0  0  0  0  0  0  0  0  0
   -1.5477   -7.7755    3.9251 C   0  0  0  0  0  0  0  0  0  0  0  0
   -1.5883   -9.0489    3.0915 C   0  0  0  0  0  0  0  0  0  0  0  0
   -0.2726   -9.2229    3.2199 C   0  0  0  0  0  0  0  0  0  0  0  0
    0.6460  -10.3496    2.7998 C   0  0  0  0  0  0  0  0  0  0  0  0
    2.0863  -10.2740    3.3272 C   0  0  0  0  0  0  0  0  0  0  0  0
    2.2486  -10.2478    4.8613 C   0  0  1  0  0  0  0  0  0  0  0  0
    3.6916  -10.4733    5.2042 N   0  0  2  0  0  0  0  0  0  0  0  0
    3.9182  -11.7321    5.9600 C   0  0  0  0  0  0  0  0  0  0  0  0
    4.2465   -9.2666    5.8931 C   0  0  1  0  0  0  0  0  0  0  0  0
    5.3710   -8.5558    5.1003 C   0  0  2  0  0  0  0  0  0  0  0  0
    6.6513   -9.4036    5.0960 C   0  0  0  0  0  0  0  0  0  0  0  0
    7.7479   -8.7487    4.2502 C   0  0  0  0  0  0  0  0  0  0  0  0
    8.1141   -7.3228    4.7201 C   0  0  1  0  0  0  0  0  0  0  0  0
   11.1798   -6.6080    3.3271 H   0  0  0  0  0  0  0  0  0  0  0  0
   10.6117   -8.1838    3.7893 H   0  0  0  0  0  0  0  0  0  0  0  0
   10.7956   -6.9161    5.0108 H   0  0  0  0  0  0  0  0  0  0  0  0
    6.9223   -5.4124    1.5458 H   0  0  0  0  0  0  0  0  0  0  0  0
    5.3914   -5.7095    3.3743 H   0  0  0  0  0  0  0  0  0  0  0  0
    7.5500   -5.4254    6.7637 H   0  0  0  0  0  0  0  0  0  0  0  0
    6.5201   -4.3982    5.7693 H   0  0  0  0  0  0  0  0  0  0  0  0
    8.1708   -4.6921    5.3044 H   0  0  0  0  0  0  0  0  0  0  0  0
    6.0668   -7.3109    6.6921 H   0  0  0  0  0  0  0  0  0  0  0  0
    4.6056   -5.3482    6.3415 H   0  0  0  0  0  0  0  0  0  0  0  0
    3.9726   -6.0520    4.8734 H   0  0  0  0  0  0  0  0  0  0  0  0
    3.6215   -7.1712    7.6674 H   0  0  0  0  0  0  0  0  0  0  0  0
    2.3884   -6.4239    6.6682 H   0  0  0  0  0  0  0  0  0  0  0  0
   -0.1007   -8.9661    5.9730 H   0  0  0  0  0  0  0  0  0  0  0  0
    0.5708   -7.3721    6.0160 H   0  0  0  0  0  0  0  0  0  0  0  0
    0.7630   -5.9720    3.8015 H   0  0  0  0  0  0  0  0  0  0  0  0
    0.4391   -6.7832    2.2854 H   0  0  0  0  0  0  0  0  0  0  0  0
    1.8775   -7.2023    3.2133 H   0  0  0  0  0  0  0  0  0  0  0  0
   -2.0357   -7.8270    4.8899 H   0  0  0  0  0  0  0  0  0  0  0  0
   -1.8287   -6.8469    3.4306 H   0  0  0  0  0  0  0  0  0  0  0  0
   -2.3936   -9.6265    2.6488 H   0  0  0  0  0  0  0  0  0  0  0  0
    0.2087  -11.3043    3.0811 H   0  0  0  0  0  0  0  0  0  0  0  0
    0.6604  -10.3435    1.7092 H   0  0  0  0  0  0  0  0  0  0  0  0
    2.5998  -11.1540    2.9327 H   0  0  0  0  0  0  0  0  0  0  0  0
    2.5882   -9.4195    2.8700 H   0  0  0  0  0  0  0  0  0  0  0  0
    1.6048  -10.9963    5.3272 H   0  0  0  0  0  0  0  0  0  0  0  0
    3.4124  -11.7138    6.9283 H   0  0  0  0  0  0  0  0  0  0  0  0
    4.9849  -11.8757    6.1401 H   0  0  0  0  0  0  0  0  0  0  0  0
    3.5491  -12.5943    5.3989 H   0  0  0  0  0  0  0  0  0  0  0  0
    4.5893   -9.5030    6.9024 H   0  0  0  0  0  0  0  0  0  0  0  0
    5.0355   -8.4255    4.0697 H   0  0  0  0  0  0  0  0  0  0  0  0
    7.0085   -9.5431    6.1187 H   0  0  0  0  0  0  0  0  0  0  0  0
    6.4450  -10.3966    4.6936 H   0  0  0  0  0  0  0  0  0  0  0  0
    8.6320   -9.3822    4.2937 H   0  0  0  0  0  0  0  0  0  0  0  0
    7.4390   -8.7373    3.2040 H   0  0  0  0  0  0  0  0  0  0  0  0
    8.6149   -7.4252    5.6861 H   0  0  0  0  0  0  0  0  0  0  0  0
    4.1813  -10.5692    4.3235 H   0  0  0  0  0  0  0  0  0  0  0  0
  1  2  1  0
  1 30  1  0
  1 31  1  0
  1 32  1  0
  2 29  1  0
  2  3  1  0
  3  4  2  0
  3  5  1  0
  5  6  2  0
  5 33  1  0
  6  7  1  0
  6 34  1  0
  7 29  1  0
  7  8  1  1
  7  9  1  0
  8 35  1  0
  8 36  1  0
  8 37  1  0
  9 26  1  0
  9 10  1  0
  9 38  1  1
 10 11  1  0
 10 39  1  0
 10 40  1  0
 11 12  1  0
 11 41  1  0
 11 42  1  0
 12 25  1  0
 12 13  2  0
 13 22  1  0
 13 14  1  0
 14 15  1  0
 14 43  1  0
 14 44  1  0
 15 19  1  0
 15 16  1  6
 15 17  1  0
 16 45  1  0
 16 46  1  0
 16 47  1  0
 17 18  1  0
 17 48  1  0
 17 49  1  0
 18 19  2  0
 18 50  1  0
 19 20  1  0
 20 21  1  0
 20 51  1  0
 20 52  1  0
 21 22  1  0
 21 53  1  0
 21 54  1  0
 22 23  1  0
 22 55  1  1
 23 24  1  0
 23 25  1  0
 23 66  1  6
 24 56  1  0
 24 57  1  0
 24 58  1  0
 25 26  1  0
 25 59  1  1
 26 27  1  0
 26 60  1  6
 27 28  1  0
 27 61  1  0
 27 62  1  0
 28 29  1  0
 28 63  1  0
 28 64  1  0
 29 65  1  1
M  CHG  1  23   1
M  END
>  <i_m_ct_stereo_status>  (23) 
1

>  <s_m_source_file>  (23) 
/var/tmp/pbs.5102103.sched01/tmpf9vmf5rd/00u30c83p.sdf

>  <i_m_source_file_index>  (23) 
11

>  <i_lp_mmshare_version>  (23) 
48012

>  <i_f3d_flags>  (23) 
0

>  <s_epik_input>  (23) 
W0NIXTE9W0NIXUMoPU8pTihbQ0gzXSlbQ0BASF0yW0NIMl1bQ0gyXVtDQEhdKFtDQEhdM1tDQF0xMltDSDNdKVtDQEhdNEMoW0NIMl1bQ0gyXTMpPUM1W0NASF0oTjRbQ0gzXSlbQ0gyXVtDSDJdQzZbQ0BAXShbQ0gyXTUpKFtDSDNdKVtDSDJdW0NIXT02

>  <s_epik_cmdline>  (23) 
J2VwaWtfcHl0aG9uJywgJy1waHQnLCAnMi4wJywgJy1waCcsICc3LjAnLCAnLXRuJywgJzgnLCAnLW1hJywgJzIwMCcsICctaW1hZScsICc8aW5maWxlLm1hZT4nLCAnLW9tYWUnLCAnPG91dGZpbGUubWFlPic=

>  <r_lp_tautomer_probability>  (23) 
1

>  <r_epik_Ionization_Penalty>  (23) 
0.000188621

>  <r_epik_Ionization_Penalty_Charging>  (23) 
0.000178681

>  <r_epik_Ionization_Penalty_Neutral>  (23) 
9.93977e-06

>  <r_epik_State_Penalty>  (23) 
-0

>  <r_epik_Charging_Adjusted_Penalty>  (23) 
0.000178681

>  <i_epik_Tot_Q>  (23) 
1

>  <i_epik_Tot_abs_Q>  (23) 
1

>  <s_lp_Force_Field>  (23) 
OPLS3e

>  <r_lp_Energy>  (23) 
39.2844

>  <b_lp_Chiralities_Consistent>  (23) 
1

>  <s_lp_Variant>  (23) 
7:0-1

>  <s_i_glide_gridfile>  (23) 
pfpi4k_grid

>  <i_i_glide_lignum>  (23) 
11

>  <i_i_glide_rotatable_bonds>  (23) 
0

>  <r_i_docking_score>  (23) 
-2.4489

>  <r_i_glide_ligand_efficiency>  (23) 
-0.084445

>  <r_i_glide_ligand_efficiency_sa>  (23) 
-0.259442

>  <r_i_glide_ligand_efficiency_ln>  (23) 
-0.560737

>  <r_i_glide_gscore>  (23) 
-2.4489

>  <r_i_glide_lipo>  (23) 
-0.228346

>  <r_i_glide_hbond>  (23) 
-0.041804

>  <r_i_glide_metal>  (23) 
-0

>  <r_i_glide_rewards>  (23) 
-0.725558

>  <r_i_glide_evdw>  (23) 
-18.7806

>  <r_i_glide_ecoul>  (23) 
-2.87938

>  <r_i_glide_erotb>  (23) 
0

>  <r_i_glide_esite>  (23) 
-0.0822576

>  <r_i_glide_emodel>  (23) 
-25.9261

>  <r_i_glide_energy>  (23) 
-21.66

>  <r_i_glide_einternal>  (23) 
0

>  <r_i_glide_intrahb_reward>  (23) 
-0

>  <i_i_glide_confnum>  (23) 
2

>  <i_i_glide_posenum>  (23) 
30

>  <r_i_glide_eff_state_penalty>  (23) 
0

>  <ligand_id>  (23) 
7

>  <original_smiles>  (23) 
CN1C(=O)C=CC2(C)C3CCC4=C5CC6(C)CC=C6CCC5N(C)C4C3CCC12

>  <smiles>  (23) 
[H]C1=C([H])C2(C([H])([H])[H])C([H])(N(C([H])([H])[H])C1=O)C([H])([H])C([H])([H])C1([H])C2([H])C([H])([H])C([H])([H])C2=C3C([H])([H])C4(C([H])([H])[H])C(=C([H])C4([H])[H])C([H])([H])C([H])([H])C3([H])[N+]([H])(C([H])([H])[H])C21[H]

$$$$
7:0:2
     RDKit          3D

 66 71  0  0  1  0  0  0  0  0999 V2000
    1.3920    2.7600    2.8732 C   0  0  0  0  0  0  0  0  0  0  0  0
    0.8787    1.4869    3.3985 N   0  0  0  0  0  0  0  0  0  0  0  0
   -0.4460    1.3287    3.6631 C   0  0  0  0  0  0  0  0  0  0  0  0
   -1.2612    2.2491    3.5660 O   0  0  0  0  0  0  0  0  0  0  0  0
   -0.8472   -0.0029    4.1028 C   0  0  0  0  0  0  0  0  0  0  0  0
    0.0497   -0.8854    4.5811 C   0  0  0  0  0  0  0  0  0  0  0  0
    1.5410   -0.5969    4.6680 C   0  0  1  0  0  0  0  0  0  0  0  0
    1.7982    0.1111    6.0242 C   0  0  0  0  0  0  0  0  0  0  0  0
    2.4249   -1.9020    4.5971 C   0  0  1  0  0  0  0  0  0  0  0  0
    2.0814   -2.9698    5.6821 C   0  0  0  0  0  0  0  0  0  0  0  0
    2.9884   -4.2095    5.6232 C   0  0  0  0  0  0  0  0  0  0  0  0
    2.9686   -4.7529    4.2157 C   0  0  0  0  0  0  0  0  0  0  0  0
    2.5853   -5.9417    3.7475 C   0  0  0  0  0  0  0  0  0  0  0  0
    2.1612   -7.1631    4.5554 C   0  0  0  0  0  0  0  0  0  0  0  0
    0.7247   -7.6492    4.3289 C   0  0  2  0  0  0  0  0  0  0  0  0
   -0.3103   -6.6031    4.7427 C   0  0  0  0  0  0  0  0  0  0  0  0
    0.4083   -9.1092    4.7764 C   0  0  0  0  0  0  0  0  0  0  0  0
    0.2179   -9.4519    3.3034 C   0  0  0  0  0  0  0  0  0  0  0  0
    0.5153   -8.2049    2.9322 C   0  0  0  0  0  0  0  0  0  0  0  0
    0.6783   -7.5569    1.5720 C   0  0  0  0  0  0  0  0  0  0  0  0
    1.2743   -6.1411    1.5778 C   0  0  0  0  0  0  0  0  0  0  0  0
    2.6563   -5.9761    2.2402 C   0  0  1  0  0  0  0  0  0  0  0  0
    3.2120   -4.6226    1.8941 N   0  0  2  0  0  0  0  0  0  0  0  0
    4.4505   -4.6960    1.0756 C   0  0  0  0  0  0  0  0  0  0  0  0
    3.3741   -3.8028    3.1382 C   0  0  1  0  0  0  0  0  0  0  0  0
    2.4697   -2.5439    3.1767 C   0  0  2  0  0  0  0  0  0  0  0  0
    2.9609   -1.4995    2.1651 C   0  0  0  0  0  0  0  0  0  0  0  0
    2.0356   -0.2803    2.1372 C   0  0  0  0  0  0  0  0  0  0  0  0
    1.8906    0.4073    3.5159 C   0  0  1  0  0  0  0  0  0  0  0  0
    0.6583    3.5664    2.8986 H   0  0  0  0  0  0  0  0  0  0  0  0
    1.6769    2.6491    1.8265 H   0  0  0  0  0  0  0  0  0  0  0  0
    2.2585    3.1123    3.4332 H   0  0  0  0  0  0  0  0  0  0  0  0
   -1.8944   -0.2682    4.0689 H   0  0  0  0  0  0  0  0  0  0  0  0
   -0.2925   -1.8537    4.9025 H   0  0  0  0  0  0  0  0  0  0  0  0
    2.8593    0.3002    6.1875 H   0  0  0  0  0  0  0  0  0  0  0  0
    1.4308   -0.4698    6.8674 H   0  0  0  0  0  0  0  0  0  0  0  0
    1.2908    1.0727    6.0773 H   0  0  0  0  0  0  0  0  0  0  0  0
    3.4463   -1.5838    4.8140 H   0  0  0  0  0  0  0  0  0  0  0  0
    2.1463   -2.5494    6.6849 H   0  0  0  0  0  0  0  0  0  0  0  0
    1.0596   -3.3269    5.5573 H   0  0  0  0  0  0  0  0  0  0  0  0
    4.0132   -3.9327    5.8774 H   0  0  0  0  0  0  0  0  0  0  0  0
    2.6700   -4.9560    6.3502 H   0  0  0  0  0  0  0  0  0  0  0  0
    2.8719   -7.9635    4.3453 H   0  0  0  0  0  0  0  0  0  0  0  0
    2.2910   -6.9433    5.6142 H   0  0  0  0  0  0  0  0  0  0  0  0
   -0.2652   -6.4438    5.8205 H   0  0  0  0  0  0  0  0  0  0  0  0
   -1.3222   -6.9389    4.5233 H   0  0  0  0  0  0  0  0  0  0  0  0
   -0.1602   -5.6340    4.2688 H   0  0  0  0  0  0  0  0  0  0  0  0
    1.2489   -9.5825    5.2857 H   0  0  0  0  0  0  0  0  0  0  0  0
   -0.4774   -9.1690    5.4093 H   0  0  0  0  0  0  0  0  0  0  0  0
   -0.0285  -10.3691    2.7747 H   0  0  0  0  0  0  0  0  0  0  0  0
    1.2881   -8.2182    0.9535 H   0  0  0  0  0  0  0  0  0  0  0  0
   -0.3042   -7.5391    1.0926 H   0  0  0  0  0  0  0  0  0  0  0  0
    1.3545   -5.8386    0.5312 H   0  0  0  0  0  0  0  0  0  0  0  0
    0.5739   -5.4578    2.0526 H   0  0  0  0  0  0  0  0  0  0  0  0
    3.3260   -6.7744    1.9229 H   0  0  0  0  0  0  0  0  0  0  0  0
    5.2534   -5.1976    1.6194 H   0  0  0  0  0  0  0  0  0  0  0  0
    4.7884   -3.6935    0.8102 H   0  0  0  0  0  0  0  0  0  0  0  0
    4.2659   -5.2432    0.1470 H   0  0  0  0  0  0  0  0  0  0  0  0
    4.4171   -3.5266    3.2970 H   0  0  0  0  0  0  0  0  0  0  0  0
    1.4548   -2.8382    2.9083 H   0  0  0  0  0  0  0  0  0  0  0  0
    3.9772   -1.1852    2.4138 H   0  0  0  0  0  0  0  0  0  0  0  0
    2.9999   -1.9260    1.1611 H   0  0  0  0  0  0  0  0  0  0  0  0
    2.4363    0.4326    1.4183 H   0  0  0  0  0  0  0  0  0  0  0  0
    1.0610   -0.5753    1.7496 H   0  0  0  0  0  0  0  0  0  0  0  0
    2.8560    0.8671    3.7458 H   0  0  0  0  0  0  0  0  0  0  0  0
    2.5237   -4.1481    1.3245 H   0  0  0  0  0  0  0  0  0  0  0  0
  1  2  1  0
  1 30  1  0
  1 31  1  0
  1 32  1  0
  2 29  1  0
  2  3  1  0
  3  4  2  0
  3  5  1  0
  5  6  2  0
  5 33  1  0
  6  7  1  0
  6 34  1  0
  7 29  1  0
  7  8  1  1
  7  9  1  0
  8 35  1  0
  8 36  1  0
  8 37  1  0
  9 26  1  0
  9 10  1  0
  9 38  1  1
 10 11  1  0
 10 39  1  0
 10 40  1  0
 11 12  1  0
 11 41  1  0
 11 42  1  0
 12 25  1  0
 12 13  2  0
 13 22  1  0
 13 14  1  0
 14 15  1  0
 14 43  1  0
 14 44  1  0
 15 19  1  0
 15 16  1  1
 15 17  1  0
 16 45  1  0
 16 46  1  0
 16 47  1  0
 17 18  1  0
 17 48  1  0
 17 49  1  0
 18 19  2  0
 18 50  1  0
 19 20  1  0
 20 21  1  0
 20 51  1  0
 20 52  1  0
 21 22  1  0
 21 53  1  0
 21 54  1  0
 22 23  1  0
 22 55  1  1
 23 24  1  0
 23 25  1  0
 23 66  1  6
 24 56  1  0
 24 57  1  0
 24 58  1  0
 25 26  1  0
 25 59  1  1
 26 27  1  0
 26 60  1  6
 27 28  1  0
 27 61  1  0
 27 62  1  0
 28 29  1  0
 28 63  1  0
 28 64  1  0
 29 65  1  1
M  CHG  1  23   1
M  END
>  <i_m_ct_stereo_status>  (24) 
1

>  <s_m_source_file>  (24) 
/var/tmp/pbs.5102103.sched01/tmpf9vmf5rd/00u30c83p.sdf

>  <i_m_source_file_index>  (24) 
11

>  <i_lp_mmshare_version>  (24) 
48012

>  <i_f3d_flags>  (24) 
0

>  <s_epik_input>  (24) 
W0NIXTE9W0NIXUMoPU8pTihbQ0gzXSlbQ0BASF0yW0NIMl1bQ0gyXVtDQEhdKFtDQEhdM1tDQF0xMltDSDNdKVtDQEhdNEMoW0NIMl1bQ0gyXTMpPUM1W0NASF0oTjRbQ0gzXSlbQ0gyXVtDSDJdQzZbQ0BAXShbQ0gyXTUpKFtDSDNdKVtDSDJdW0NIXT02

>  <s_epik_cmdline>  (24) 
J2VwaWtfcHl0aG9uJywgJy1waHQnLCAnMi4wJywgJy1waCcsICc3LjAnLCAnLXRuJywgJzgnLCAnLW1hJywgJzIwMCcsICctaW1hZScsICc8aW5maWxlLm1hZT4nLCAnLW9tYWUnLCAnPG91dGZpbGUubWFlPic=

>  <r_lp_tautomer_probability>  (24) 
1

>  <r_epik_Ionization_Penalty>  (24) 
0.000188621

>  <r_epik_Ionization_Penalty_Charging>  (24) 
0.000178681

>  <r_epik_Ionization_Penalty_Neutral>  (24) 
9.93977e-06

>  <r_epik_State_Penalty>  (24) 
-0

>  <r_epik_Charging_Adjusted_Penalty>  (24) 
0.000178681

>  <i_epik_Tot_Q>  (24) 
1

>  <i_epik_Tot_abs_Q>  (24) 
1

>  <s_lp_Force_Field>  (24) 
OPLS3e

>  <r_lp_Energy>  (24) 
39.2844

>  <b_lp_Chiralities_Consistent>  (24) 
1

>  <s_lp_Variant>  (24) 
7:0-1

>  <s_i_glide_gridfile>  (24) 
pfpi4k_grid

>  <i_i_glide_lignum>  (24) 
11

>  <i_i_glide_rotatable_bonds>  (24) 
0

>  <r_i_docking_score>  (24) 
-2.30758

>  <r_i_glide_ligand_efficiency>  (24) 
-0.0795717

>  <r_i_glide_ligand_efficiency_sa>  (24) 
-0.24447

>  <r_i_glide_ligand_efficiency_ln>  (24) 
-0.528377

>  <r_i_glide_gscore>  (24) 
-2.30758

>  <r_i_glide_lipo>  (24) 
-0.0320874

>  <r_i_glide_hbond>  (24) 
0

>  <r_i_glide_metal>  (24) 
-0

>  <r_i_glide_rewards>  (24) 
-0.725558

>  <r_i_glide_evdw>  (24) 
-23.1237

>  <r_i_glide_ecoul>  (24) 
-2.28508

>  <r_i_glide_erotb>  (24) 
0

>  <r_i_glide_esite>  (24) 
-0.0509891

>  <r_i_glide_emodel>  (24) 
-29.4784

>  <r_i_glide_energy>  (24) 
-25.4087

>  <r_i_glide_einternal>  (24) 
0

>  <r_i_glide_intrahb_reward>  (24) 
-0

>  <i_i_glide_confnum>  (24) 
1

>  <i_i_glide_posenum>  (24) 
2

>  <r_i_glide_eff_state_penalty>  (24) 
0

>  <ligand_id>  (24) 
7

>  <original_smiles>  (24) 
CN1C(=O)C=CC2(C)C3CCC4=C5CC6(C)CC=C6CCC5N(C)C4C3CCC12

>  <smiles>  (24) 
[H]C1=C([H])C2(C([H])([H])[H])C([H])(N(C([H])([H])[H])C1=O)C([H])([H])C([H])([H])C1([H])C2([H])C([H])([H])C([H])([H])C2=C3C([H])([H])C4(C([H])([H])[H])C(=C([H])C4([H])[H])C([H])([H])C([H])([H])C3([H])[N+]([H])(C([H])([H])[H])C21[H]

$$$$
8:0:0
     RDKit          3D

 41 43  0  0  1  0  0  0  0  0999 V2000
    1.1581   -0.6765    6.4855 C   0  0  0  0  0  0  0  0  0  0  0  0
   -0.2007   -0.8092    5.8327 C   0  0  1  0  0  0  0  0  0  0  0  0
   -1.0544    0.4246    5.8843 C   0  0  0  0  0  0  0  0  0  0  0  0
   -2.1510    0.3249    6.4534 O   0  0  0  0  0  0  0  0  0  0  0  0
   -0.5269    1.7223    5.2112 C   0  0  2  0  0  0  0  0  0  0  0  0
   -1.5401    2.8929    5.2509 C   0  0  0  0  0  0  0  0  0  0  0  0
   -1.8444    3.4175    6.6443 C   0  0  0  0  0  0  0  0  0  0  0  0
   -2.9904    2.9816    7.3397 C   0  0  0  0  0  0  0  0  0  0  0  0
   -3.2247    3.3670    8.6709 C   0  0  0  0  0  0  0  0  0  0  0  0
   -2.3503    4.2797    9.2932 C   0  0  0  0  0  0  0  0  0  0  0  0
   -1.2289    4.7640    8.5911 C   0  0  0  0  0  0  0  0  0  0  0  0
   -0.9718    4.3432    7.2694 C   0  0  0  0  0  0  0  0  0  0  0  0
   -0.1810    1.4129    3.8515 N   0  0  0  0  0  0  0  0  0  0  0  0
    0.7568    1.4503    3.0572 C   0  0  0  0  0  0  0  0  0  0  0  0
    1.8259    1.5657    2.3227 C   0  0  0  0  0  0  0  0  0  0  0  0
    2.9313    0.5945    2.3481 C   0  0  0  0  0  0  0  0  0  0  0  0
    3.1919   -0.2565    1.2499 C   0  0  0  0  0  0  0  0  0  0  0  0
    4.2911   -1.1333    1.3160 C   0  0  0  0  0  0  0  0  0  0  0  0
    5.0980   -1.1176    2.4693 C   0  0  0  0  0  0  0  0  0  0  0  0
    4.8688   -0.3003    3.5183 N   0  0  0  0  0  0  0  0  0  0  0  0
    3.8108    0.5359    3.4438 C   0  0  0  0  0  0  0  0  0  0  0  0
   -0.5287   -1.8343    4.7833 C   0  0  0  0  0  0  0  0  0  0  0  0
   -0.9119   -2.0188    6.1469 O   0  0  0  0  0  0  0  0  0  0  0  0
    1.8368   -0.1776    5.8014 H   0  0  0  0  0  0  0  0  0  0  0  0
    1.5489   -1.6663    6.6990 H   0  0  0  0  0  0  0  0  0  0  0  0
    1.1017   -0.1127    7.4151 H   0  0  0  0  0  0  0  0  0  0  0  0
    0.3801    2.0389    5.7300 H   0  0  0  0  0  0  0  0  0  0  0  0
   -1.1507    3.7153    4.6509 H   0  0  0  0  0  0  0  0  0  0  0  0
   -2.4645    2.6030    4.7430 H   0  0  0  0  0  0  0  0  0  0  0  0
   -3.6824    2.3021    6.8754 H   0  0  0  0  0  0  0  0  0  0  0  0
   -4.0785    2.9728    9.1972 H   0  0  0  0  0  0  0  0  0  0  0  0
   -2.5330    4.5729   10.3170 H   0  0  0  0  0  0  0  0  0  0  0  0
   -0.5569    5.4607    9.0751 H   0  0  0  0  0  0  0  0  0  0  0  0
   -0.1025    4.7033    6.7442 H   0  0  0  0  0  0  0  0  0  0  0  0
    1.9470    2.4193    1.6700 H   0  0  0  0  0  0  0  0  0  0  0  0
    2.5688   -0.2443    0.3677 H   0  0  0  0  0  0  0  0  0  0  0  0
    4.5204   -1.8040    0.4944 H   0  0  0  0  0  0  0  0  0  0  0  0
    5.9420   -1.7839    2.5591 H   0  0  0  0  0  0  0  0  0  0  0  0
    3.6741    1.1832    4.2912 H   0  0  0  0  0  0  0  0  0  0  0  0
   -1.3331   -1.5967    4.0918 H   0  0  0  0  0  0  0  0  0  0  0  0
    0.2733   -2.4740    4.4364 H   0  0  0  0  0  0  0  0  0  0  0  0
  2  1  1  1
  1 24  1  0
  1 25  1  0
  1 26  1  0
  2 23  1  0
  2  3  1  0
  2 22  1  0
  3  4  2  0
  3  5  1  0
  5  6  1  0
  5 13  1  0
  5 27  1  1
  6  7  1  0
  6 28  1  0
  6 29  1  0
  7 12  1  0
  7  8  2  0
  8  9  1  0
  8 30  1  0
  9 10  2  0
  9 31  1  0
 10 11  1  0
 10 32  1  0
 11 12  2  0
 11 33  1  0
 12 34  1  0
 13 14  2  0
 14 15  2  0
 15 16  1  0
 15 35  1  0
 16 21  1  0
 16 17  2  0
 17 18  1  0
 17 36  1  0
 18 19  2  0
 18 37  1  0
 19 20  1  0
 19 38  1  0
 20 21  2  0
 21 39  1  0
 22 23  1  0
 22 40  1  0
 22 41  1  0
M  END
>  <i_m_ct_stereo_status>  (25) 
1

>  <s_m_source_file>  (25) 
/var/tmp/pbs.5102103.sched01/tmpf9vmf5rd/00u30c83p.sdf

>  <i_m_source_file_index>  (25) 
12

>  <i_lp_mmshare_version>  (25) 
48012

>  <i_f3d_flags>  (25) 
0

>  <s_epik_input>  (25) 
W2NIXTFbY0hdW2NIXVtjSF1bY0hdYzFbQ0gyXVtDQEBIXShDKD1PKVtDQF0yKFtDSDNdKVtDSDJdTzIpTj1DPVtDSF1jM1tjSF1bY0hdW2NIXW5bY0hdMw==

>  <s_epik_cmdline>  (25) 
J2VwaWtfcHl0aG9uJywgJy1waHQnLCAnMi4wJywgJy1waCcsICc3LjAnLCAnLXRuJywgJzgnLCAnLW1hJywgJzIwMCcsICctaW1hZScsICc8aW5maWxlLm1hZT4nLCAnLW9tYWUnLCAnPG91dGZpbGUubWFlPic=

>  <r_epik_Ionization_Penalty>  (25) 
0.0646991

>  <r_epik_Ionization_Penalty_Charging>  (25) 
0

>  <r_epik_Ionization_Penalty_Neutral>  (25) 
0.0646991

>  <r_epik_State_Penalty>  (25) 
0.0563754

>  <r_epik_Charging_Adjusted_Penalty>  (25) 
0.0563754

>  <i_epik_Tot_Q>  (25) 
0

>  <i_epik_Tot_abs_Q>  (25) 
0

>  <s_epik_Chemistry_Notes>  (25) 
This compound has an imine and may undergo hydrolysis.

>  <s_lp_Force_Field>  (25) 
OPLS3e

>  <r_lp_Energy>  (25) 
15.861

>  <b_lp_Chiralities_Consistent>  (25) 
1

>  <s_lp_Variant>  (25) 
8:0-1

>  <s_i_glide_gridfile>  (25) 
pfpi4k_grid

>  <i_i_glide_lignum>  (25) 
12

>  <i_i_glide_rotatable_bonds>  (25) 
6

>  <r_i_docking_score>  (25) 
-3.64011

>  <r_i_glide_ligand_efficiency>  (25) 
-0.158266

>  <r_i_glide_ligand_efficiency_sa>  (25) 
-0.450087

>  <r_i_glide_ligand_efficiency_ln>  (25) 
-0.880212

>  <r_i_glide_gscore>  (25) 
-3.64011

>  <r_i_glide_lipo>  (25) 
-0.487083

>  <r_i_glide_hbond>  (25) 
-0.16

>  <r_i_glide_metal>  (25) 
-0

>  <r_i_glide_rewards>  (25) 
-1.32028

>  <r_i_glide_evdw>  (25) 
-23.0557

>  <r_i_glide_ecoul>  (25) 
-7.11148

>  <r_i_glide_erotb>  (25) 
0.590403

>  <r_i_glide_esite>  (25) 
-0.0436416

>  <r_i_glide_emodel>  (25) 
-36.9016

>  <r_i_glide_energy>  (25) 
-30.1671

>  <r_i_glide_einternal>  (25) 
0.947133

>  <r_i_glide_intrahb_reward>  (25) 
-0

>  <i_i_glide_confnum>  (25) 
3

>  <i_i_glide_posenum>  (25) 
1

>  <r_i_glide_eff_state_penalty>  (25) 
0

>  <ligand_id>  (25) 
8

>  <original_smiles>  (25) 
CC1(C(=O)C(Cc2ccccc2)N=C=Cc2cccnc2)CO1

>  <smiles>  (25) 
[H]C(=C=NC([H])(C(=O)C1(C([H])([H])[H])OC1([H])[H])C([H])([H])c1c([H])c([H])c([H])c([H])c1[H])c1c([H])nc([H])c([H])c1[H]

$$$$
8:0:1
     RDKit          3D

 41 43  0  0  1  0  0  0  0  0999 V2000
    1.2189   -0.8055    6.8078 C   0  0  0  0  0  0  0  0  0  0  0  0
   -0.0191   -1.1986    6.0230 C   0  0  1  0  0  0  0  0  0  0  0  0
   -0.9826   -0.0753    5.7149 C   0  0  0  0  0  0  0  0  0  0  0  0
   -2.1630   -0.2109    6.0414 O   0  0  0  0  0  0  0  0  0  0  0  0
   -0.4302    1.1569    4.9622 C   0  0  2  0  0  0  0  0  0  0  0  0
   -1.4329    2.3358    4.9076 C   0  0  0  0  0  0  0  0  0  0  0  0
   -1.6468    3.0392    6.2380 C   0  0  0  0  0  0  0  0  0  0  0  0
   -2.6307    2.5830    7.1394 C   0  0  0  0  0  0  0  0  0  0  0  0
   -2.7597    3.1620    8.4121 C   0  0  0  0  0  0  0  0  0  0  0  0
   -1.9397    4.2429    8.7763 C   0  0  0  0  0  0  0  0  0  0  0  0
   -0.9702    4.7225    7.8773 C   0  0  0  0  0  0  0  0  0  0  0  0
   -0.8192    4.1229    6.6104 C   0  0  0  0  0  0  0  0  0  0  0  0
   -0.0692    0.7298    3.6305 N   0  0  0  0  0  0  0  0  0  0  0  0
    0.8393    0.8012    2.8185 C   0  0  0  0  0  0  0  0  0  0  0  0
    1.8712    0.9928    2.0301 C   0  0  0  0  0  0  0  0  0  0  0  0
    3.0703    0.1477    2.0487 C   0  0  0  0  0  0  0  0  0  0  0  0
    3.9530    0.1415    3.1460 C   0  0  0  0  0  0  0  0  0  0  0  0
    5.1102   -0.6562    3.0912 C   0  0  0  0  0  0  0  0  0  0  0  0
    5.3498   -1.4136    1.9309 C   0  0  0  0  0  0  0  0  0  0  0  0
    4.5202   -1.4108    0.8660 N   0  0  0  0  0  0  0  0  0  0  0  0
    3.4053   -0.6514    0.9348 C   0  0  0  0  0  0  0  0  0  0  0  0
   -0.0794   -2.4288    5.1650 C   0  0  0  0  0  0  0  0  0  0  0  0
   -0.6614   -2.4021    6.4763 O   0  0  0  0  0  0  0  0  0  0  0  0
    1.9562   -0.3700    6.1405 H   0  0  0  0  0  0  0  0  0  0  0  0
    1.6570   -1.6891    7.2676 H   0  0  0  0  0  0  0  0  0  0  0  0
    0.9853   -0.0905    7.5976 H   0  0  0  0  0  0  0  0  0  0  0  0
    0.4747    1.5075    5.4564 H   0  0  0  0  0  0  0  0  0  0  0  0
   -1.0764    3.0685    4.1825 H   0  0  0  0  0  0  0  0  0  0  0  0
   -2.3900    2.0008    4.5031 H   0  0  0  0  0  0  0  0  0  0  0  0
   -3.2845    1.7718    6.8742 H   0  0  0  0  0  0  0  0  0  0  0  0
   -3.4943    2.7749    9.0993 H   0  0  0  0  0  0  0  0  0  0  0  0
   -2.0443    4.6833    9.7566 H   0  0  0  0  0  0  0  0  0  0  0  0
   -0.3422    5.5554    8.1580 H   0  0  0  0  0  0  0  0  0  0  0  0
   -0.0677    4.4914    5.9272 H   0  0  0  0  0  0  0  0  0  0  0  0
    1.8570    1.7940    1.3098 H   0  0  0  0  0  0  0  0  0  0  0  0
    3.7555    0.7532    4.0111 H   0  0  0  0  0  0  0  0  0  0  0  0
    5.8123   -0.6771    3.9137 H   0  0  0  0  0  0  0  0  0  0  0  0
    6.2237   -2.0391    1.8511 H   0  0  0  0  0  0  0  0  0  0  0  0
    2.7765   -0.6665    0.0613 H   0  0  0  0  0  0  0  0  0  0  0  0
   -0.7808   -2.4325    4.3350 H   0  0  0  0  0  0  0  0  0  0  0  0
    0.8176   -3.0369    5.0717 H   0  0  0  0  0  0  0  0  0  0  0  0
  2  1  1  1
  1 24  1  0
  1 25  1  0
  1 26  1  0
  2 23  1  0
  2  3  1  0
  2 22  1  0
  3  4  2  0
  3  5  1  0
  5  6  1  0
  5 13  1  0
  5 27  1  1
  6  7  1  0
  6 28  1  0
  6 29  1  0
  7 12  1  0
  7  8  2  0
  8  9  1  0
  8 30  1  0
  9 10  2  0
  9 31  1  0
 10 11  1  0
 10 32  1  0
 11 12  2  0
 11 33  1  0
 12 34  1  0
 13 14  2  0
 14 15  2  0
 15 16  1  0
 15 35  1  0
 16 21  1  0
 16 17  2  0
 17 18  1  0
 17 36  1  0
 18 19  2  0
 18 37  1  0
 19 20  1  0
 19 38  1  0
 20 21  2  0
 21 39  1  0
 22 23  1  0
 22 40  1  0
 22 41  1  0
M  END
>  <i_m_ct_stereo_status>  (26) 
1

>  <s_m_source_file>  (26) 
/var/tmp/pbs.5102103.sched01/tmpf9vmf5rd/00u30c83p.sdf

>  <i_m_source_file_index>  (26) 
12

>  <i_lp_mmshare_version>  (26) 
48012

>  <i_f3d_flags>  (26) 
0

>  <s_epik_input>  (26) 
W2NIXTFbY0hdW2NIXVtjSF1bY0hdYzFbQ0gyXVtDQEBIXShDKD1PKVtDQF0yKFtDSDNdKVtDSDJdTzIpTj1DPVtDSF1jM1tjSF1bY0hdW2NIXW5bY0hdMw==

>  <s_epik_cmdline>  (26) 
J2VwaWtfcHl0aG9uJywgJy1waHQnLCAnMi4wJywgJy1waCcsICc3LjAnLCAnLXRuJywgJzgnLCAnLW1hJywgJzIwMCcsICctaW1hZScsICc8aW5maWxlLm1hZT4nLCAnLW9tYWUnLCAnPG91dGZpbGUubWFlPic=

>  <r_epik_Ionization_Penalty>  (26) 
0.0646991

>  <r_epik_Ionization_Penalty_Charging>  (26) 
0

>  <r_epik_Ionization_Penalty_Neutral>  (26) 
0.0646991

>  <r_epik_State_Penalty>  (26) 
0.0563754

>  <r_epik_Charging_Adjusted_Penalty>  (26) 
0.0563754

>  <i_epik_Tot_Q>  (26) 
0

>  <i_epik_Tot_abs_Q>  (26) 
0

>  <s_epik_Chemistry_Notes>  (26) 
This compound has an imine and may undergo hydrolysis.

>  <s_lp_Force_Field>  (26) 
OPLS3e

>  <r_lp_Energy>  (26) 
15.861

>  <b_lp_Chiralities_Consistent>  (26) 
1

>  <s_lp_Variant>  (26) 
8:0-1

>  <s_i_glide_gridfile>  (26) 
pfpi4k_grid

>  <i_i_glide_lignum>  (26) 
12

>  <i_i_glide_rotatable_bonds>  (26) 
6

>  <r_i_docking_score>  (26) 
-3.45936

>  <r_i_glide_ligand_efficiency>  (26) 
-0.150407

>  <r_i_glide_ligand_efficiency_sa>  (26) 
-0.427738

>  <r_i_glide_ligand_efficiency_ln>  (26) 
-0.836505

>  <r_i_glide_gscore>  (26) 
-3.45936

>  <r_i_glide_lipo>  (26) 
-0.56233

>  <r_i_glide_hbond>  (26) 
-0.150678

>  <r_i_glide_metal>  (26) 
-0

>  <r_i_glide_rewards>  (26) 
-1.32028

>  <r_i_glide_evdw>  (26) 
-23.7887

>  <r_i_glide_ecoul>  (26) 
-5.21169

>  <r_i_glide_erotb>  (26) 
0.590403

>  <r_i_glide_esite>  (26) 
-0.0452863

>  <r_i_glide_emodel>  (26) 
-35.7874

>  <r_i_glide_energy>  (26) 
-29.0004

>  <r_i_glide_einternal>  (26) 
0.525007

>  <r_i_glide_intrahb_reward>  (26) 
-0

>  <i_i_glide_confnum>  (26) 
3

>  <i_i_glide_posenum>  (26) 
18

>  <r_i_glide_eff_state_penalty>  (26) 
0

>  <ligand_id>  (26) 
8

>  <original_smiles>  (26) 
CC1(C(=O)C(Cc2ccccc2)N=C=Cc2cccnc2)CO1

>  <smiles>  (26) 
[H]C(=C=NC([H])(C(=O)C1(C([H])([H])[H])OC1([H])[H])C([H])([H])c1c([H])c([H])c([H])c([H])c1[H])c1c([H])nc([H])c([H])c1[H]

$$$$
8:0:2
     RDKit          3D

 41 43  0  0  1  0  0  0  0  0999 V2000
    1.3038   -0.8091    7.0614 C   0  0  0  0  0  0  0  0  0  0  0  0
    0.1198   -1.3428    6.2767 C   0  0  1  0  0  0  0  0  0  0  0  0
   -0.8307   -0.3059    5.7267 C   0  0  0  0  0  0  0  0  0  0  0  0
   -2.0427   -0.4287    5.9659 O   0  0  0  0  0  0  0  0  0  0  0  0
   -0.2667    0.8058    4.8312 C   0  0  2  0  0  0  0  0  0  0  0  0
   -1.2230    2.0027    4.6512 C   0  0  0  0  0  0  0  0  0  0  0  0
   -1.4711    2.8149    5.9149 C   0  0  0  0  0  0  0  0  0  0  0  0
   -2.4664    2.4215    6.8443 C   0  0  0  0  0  0  0  0  0  0  0  0
   -2.6160    3.0860    8.0663 C   0  0  0  0  0  0  0  0  0  0  0  0
   -1.8294    4.2080    8.3559 C   0  0  0  0  0  0  0  0  0  0  0  0
   -0.8751    4.6496    7.4208 C   0  0  0  0  0  0  0  0  0  0  0  0
   -0.6896    3.9639    6.2089 C   0  0  0  0  0  0  0  0  0  0  0  0
    0.0202    0.1897    3.5505 N   0  0  0  0  0  0  0  0  0  0  0  0
    0.8210    0.1963    2.6445 C   0  0  0  0  0  0  0  0  0  0  0  0
    1.7116    0.3408    1.6937 C   0  0  0  0  0  0  0  0  0  0  0  0
    3.0306   -0.3027    1.7310 C   0  0  0  0  0  0  0  0  0  0  0  0
    3.3882   -1.3237    0.8346 C   0  0  0  0  0  0  0  0  0  0  0  0
    4.6720   -1.8781    0.9156 C   0  0  0  0  0  0  0  0  0  0  0  0
    5.5599   -1.3863    1.8834 C   0  0  0  0  0  0  0  0  0  0  0  0
    5.2404   -0.3927    2.7502 N   0  0  0  0  0  0  0  0  0  0  0  0
    3.9917    0.1306    2.6590 C   0  0  0  0  0  0  0  0  0  0  0  0
    0.1132   -2.6995    5.6283 C   0  0  0  0  0  0  0  0  0  0  0  0
   -0.5365   -2.4719    6.8885 O   0  0  0  0  0  0  0  0  0  0  0  0
    2.0778   -0.4658    6.3760 H   0  0  0  0  0  0  0  0  0  0  0  0
    1.7236   -1.5992    7.6773 H   0  0  0  0  0  0  0  0  0  0  0  0
    1.0177    0.0205    7.7185 H   0  0  0  0  0  0  0  0  0  0  0  0
    0.6725    1.1702    5.2420 H   0  0  0  0  0  0  0  0  0  0  0  0
   -0.8074    2.6680    3.8937 H   0  0  0  0  0  0  0  0  0  0  0  0
   -2.1788    1.6791    4.2251 H   0  0  0  0  0  0  0  0  0  0  0  0
   -3.0873    1.5626    6.6314 H   0  0  0  0  0  0  0  0  0  0  0  0
   -3.3439    2.7128    8.7844 H   0  0  0  0  0  0  0  0  0  0  0  0
   -1.9642    4.7271    9.3064 H   0  0  0  0  0  0  0  0  0  0  0  0
   -0.2760    5.5376    7.6375 H   0  0  0  0  0  0  0  0  0  0  0  0
    0.0569    4.3007    5.4938 H   0  0  0  0  0  0  0  0  0  0  0  0
    1.4938    0.9488    0.8345 H   0  0  0  0  0  0  0  0  0  0  0  0
    2.6791   -1.6805    0.0869 H   0  0  0  0  0  0  0  0  0  0  0  0
    4.9852   -2.6786    0.2458 H   0  0  0  0  0  0  0  0  0  0  0  0
    6.5559   -1.7889    1.9879 H   0  0  0  0  0  0  0  0  0  0  0  0
    3.7753    0.9279    3.3515 H   0  0  0  0  0  0  0  0  0  0  0  0
   -0.5502   -2.8406    4.7737 H   0  0  0  0  0  0  0  0  0  0  0  0
    1.0188   -3.2959    5.6718 H   0  0  0  0  0  0  0  0  0  0  0  0
  2  1  1  1
  1 24  1  0
  1 25  1  0
  1 26  1  0
  2 23  1  0
  2  3  1  0
  2 22  1  0
  3  4  2  0
  3  5  1  0
  5  6  1  0
  5 13  1  0
  5 27  1  1
  6  7  1  0
  6 28  1  0
  6 29  1  0
  7 12  1  0
  7  8  2  0
  8  9  1  0
  8 30  1  0
  9 10  2  0
  9 31  1  0
 10 11  1  0
 10 32  1  0
 11 12  2  0
 11 33  1  0
 12 34  1  0
 13 14  2  0
 14 15  2  0
 15 16  1  0
 15 35  1  0
 16 21  1  0
 16 17  2  0
 17 18  1  0
 17 36  1  0
 18 19  2  0
 18 37  1  0
 19 20  1  0
 19 38  1  0
 20 21  2  0
 21 39  1  0
 22 23  1  0
 22 40  1  0
 22 41  1  0
M  END
>  <i_m_ct_stereo_status>  (27) 
1

>  <s_m_source_file>  (27) 
/var/tmp/pbs.5102103.sched01/tmpf9vmf5rd/00u30c83p.sdf

>  <i_m_source_file_index>  (27) 
12

>  <i_lp_mmshare_version>  (27) 
48012

>  <i_f3d_flags>  (27) 
0

>  <s_epik_input>  (27) 
W2NIXTFbY0hdW2NIXVtjSF1bY0hdYzFbQ0gyXVtDQEBIXShDKD1PKVtDQF0yKFtDSDNdKVtDSDJdTzIpTj1DPVtDSF1jM1tjSF1bY0hdW2NIXW5bY0hdMw==

>  <s_epik_cmdline>  (27) 
J2VwaWtfcHl0aG9uJywgJy1waHQnLCAnMi4wJywgJy1waCcsICc3LjAnLCAnLXRuJywgJzgnLCAnLW1hJywgJzIwMCcsICctaW1hZScsICc8aW5maWxlLm1hZT4nLCAnLW9tYWUnLCAnPG91dGZpbGUubWFlPic=

>  <r_epik_Ionization_Penalty>  (27) 
0.0646991

>  <r_epik_Ionization_Penalty_Charging>  (27) 
0

>  <r_epik_Ionization_Penalty_Neutral>  (27) 
0.0646991

>  <r_epik_State_Penalty>  (27) 
0.0563754

>  <r_epik_Charging_Adjusted_Penalty>  (27) 
0.0563754

>  <i_epik_Tot_Q>  (27) 
0

>  <i_epik_Tot_abs_Q>  (27) 
0

>  <s_epik_Chemistry_Notes>  (27) 
This compound has an imine and may undergo hydrolysis.

>  <s_lp_Force_Field>  (27) 
OPLS3e

>  <r_lp_Energy>  (27) 
15.861

>  <b_lp_Chiralities_Consistent>  (27) 
1

>  <s_lp_Variant>  (27) 
8:0-1

>  <s_i_glide_gridfile>  (27) 
pfpi4k_grid

>  <i_i_glide_lignum>  (27) 
12

>  <i_i_glide_rotatable_bonds>  (27) 
6

>  <r_i_docking_score>  (27) 
-3.25924

>  <r_i_glide_ligand_efficiency>  (27) 
-0.141706

>  <r_i_glide_ligand_efficiency_sa>  (27) 
-0.402994

>  <r_i_glide_ligand_efficiency_ln>  (27) 
-0.788114

>  <r_i_glide_gscore>  (27) 
-3.25924

>  <r_i_glide_lipo>  (27) 
-0.369592

>  <r_i_glide_hbond>  (27) 
-0.133175

>  <r_i_glide_metal>  (27) 
-0

>  <r_i_glide_rewards>  (27) 
-1.32028

>  <r_i_glide_evdw>  (27) 
-21.5955

>  <r_i_glide_ecoul>  (27) 
-6.02059

>  <r_i_glide_erotb>  (27) 
0.590403

>  <r_i_glide_esite>  (27) 
-0.0437291

>  <r_i_glide_emodel>  (27) 
-33.85

>  <r_i_glide_energy>  (27) 
-27.6161

>  <r_i_glide_einternal>  (27) 
0.334276

>  <r_i_glide_intrahb_reward>  (27) 
-0

>  <i_i_glide_confnum>  (27) 
1

>  <i_i_glide_posenum>  (27) 
33

>  <r_i_glide_eff_state_penalty>  (27) 
0

>  <ligand_id>  (27) 
8

>  <original_smiles>  (27) 
CC1(C(=O)C(Cc2ccccc2)N=C=Cc2cccnc2)CO1

>  <smiles>  (27) 
[H]C(=C=NC([H])(C(=O)C1(C([H])([H])[H])OC1([H])[H])C([H])([H])c1c([H])c([H])c([H])c([H])c1[H])c1c([H])nc([H])c([H])c1[H]

$$$$
8:1:0
     RDKit          3D

 42 44  0  0  1  0  0  0  0  0999 V2000
    2.7509   -7.6812    1.6113 C   0  0  0  0  0  0  0  0  0  0  0  0
    2.1051   -6.3209    1.5762 C   0  0  1  0  0  0  0  0  0  0  0  0
    2.3210   -5.5500    2.8427 C   0  0  0  0  0  0  0  0  0  0  0  0
    3.4785   -5.3780    3.2388 O   0  0  0  0  0  0  0  0  0  0  0  0
    1.0580   -5.0751    3.6198 C   0  0  2  0  0  0  0  0  0  0  0  0
    1.4067   -4.0069    4.6972 C   0  0  0  0  0  0  0  0  0  0  0  0
    1.9768   -2.7165    4.1256 C   0  0  0  0  0  0  0  0  0  0  0  0
    3.3732   -2.5000    4.1080 C   0  0  0  0  0  0  0  0  0  0  0  0
    3.9137   -1.3578    3.5047 C   0  0  0  0  0  0  0  0  0  0  0  0
    3.0654   -0.3991    2.9200 C   0  0  0  0  0  0  0  0  0  0  0  0
    1.6699   -0.6043    2.9385 C   0  0  0  0  0  0  0  0  0  0  0  0
    1.1280   -1.7528    3.5339 C   0  0  0  0  0  0  0  0  0  0  0  0
    0.3630   -6.2374    4.1886 N   0  0  0  0  0  0  0  0  0  0  0  0
   -0.0015   -7.3871    3.9577 C   0  0  0  0  0  0  0  0  0  0  0  0
   -0.2425   -8.6201    3.5629 C   0  0  0  0  0  0  0  0  0  0  0  0
    0.6636   -9.7511    3.7952 C   0  0  0  0  0  0  0  0  0  0  0  0
    1.5481  -10.2497    2.8081 C   0  0  0  0  0  0  0  0  0  0  0  0
    2.4813  -11.2631    3.1525 C   0  0  0  0  0  0  0  0  0  0  0  0
    2.4282  -11.8543    4.4210 C   0  0  0  0  0  0  0  0  0  0  0  0
    1.5141  -11.4070    5.2836 N   0  0  0  0  0  0  0  0  0  0  0  0
    0.6241  -10.3958    5.0503 C   0  0  0  0  0  0  0  0  0  0  0  0
    1.8074   -5.6260    0.2813 C   0  0  0  0  0  0  0  0  0  0  0  0
    0.7625   -6.2432    1.0524 O   0  0  0  0  0  0  0  0  0  0  0  0
    3.8008   -7.6249    1.3025 H   0  0  0  0  0  0  0  0  0  0  0  0
    2.1929   -8.3395    0.9519 H   0  0  0  0  0  0  0  0  0  0  0  0
    2.6880   -8.0960    2.6147 H   0  0  0  0  0  0  0  0  0  0  0  0
    0.3856   -4.5947    2.9095 H   0  0  0  0  0  0  0  0  0  0  0  0
    0.5216   -3.7686    5.2787 H   0  0  0  0  0  0  0  0  0  0  0  0
    2.1080   -4.4356    5.4117 H   0  0  0  0  0  0  0  0  0  0  0  0
    4.0358   -3.2329    4.5496 H   0  0  0  0  0  0  0  0  0  0  0  0
    4.9847   -1.2269    3.4722 H   0  0  0  0  0  0  0  0  0  0  0  0
    3.4814    0.4718    2.4430 H   0  0  0  0  0  0  0  0  0  0  0  0
    1.0192    0.1272    2.4785 H   0  0  0  0  0  0  0  0  0  0  0  0
    0.0594   -1.9100    3.5360 H   0  0  0  0  0  0  0  0  0  0  0  0
   -1.1544   -8.8554    3.0469 H   0  0  0  0  0  0  0  0  0  0  0  0
    1.5240   -9.8860    1.7762 H   0  0  0  0  0  0  0  0  0  0  0  0
    3.2093  -11.6131    2.4665 H   0  0  0  0  0  0  0  0  0  0  0  0
    3.0442  -12.6786    4.7956 H   0  0  0  0  0  0  0  0  0  0  0  0
   -0.0425  -10.1493    5.8713 H   0  0  0  0  0  0  0  0  0  0  0  0
    1.8347   -4.5331    0.2619 H   0  0  0  0  0  0  0  0  0  0  0  0
    2.0913   -6.1667   -0.6178 H   0  0  0  0  0  0  0  0  0  0  0  0
    1.4725  -11.8566    6.2670 H   0  0  0  0  0  0  0  0  0  0  0  0
  2  1  1  6
  1 24  1  0
  1 25  1  0
  1 26  1  0
  2 23  1  0
  2  3  1  0
  2 22  1  0
  3  4  2  0
  3  5  1  0
  5  6  1  0
  5 13  1  0
  5 27  1  6
  6  7  1  0
  6 28  1  0
  6 29  1  0
  7 12  1  0
  7  8  2  0
  8  9  1  0
  8 30  1  0
  9 10  2  0
  9 31  1  0
 10 11  1  0
 10 32  1  0
 11 12  2  0
 11 33  1  0
 12 34  1  0
 13 14  2  0
 14 15  2  0
 15 16  1  0
 15 35  1  0
 16 21  1  0
 16 17  2  0
 17 18  1  0
 17 36  1  0
 18 19  2  0
 18 37  1  0
 19 20  1  0
 19 38  1  0
 20 21  2  0
 20 42  1  0
 21 39  1  0
 22 23  1  0
 22 40  1  0
 22 41  1  0
M  CHG  1  20   1
M  END
>  <i_m_ct_stereo_status>  (28) 
1

>  <s_m_source_file>  (28) 
/var/tmp/pbs.5102103.sched01/tmpf9vmf5rd/00u30c83p.sdf

>  <i_m_source_file_index>  (28) 
13

>  <i_lp_mmshare_version>  (28) 
48012

>  <i_f3d_flags>  (28) 
0

>  <s_epik_input>  (28) 
W2NIXTFbY0hdW2NIXVtjSF1bY0hdYzFbQ0gyXVtDQEBIXShDKD1PKVtDQF0yKFtDSDNdKVtDSDJdTzIpTj1DPVtDSF1jM1tjSF1bY0hdW2NIXW5bY0hdMw==

>  <s_epik_cmdline>  (28) 
J2VwaWtfcHl0aG9uJywgJy1waHQnLCAnMi4wJywgJy1waCcsICc3LjAnLCAnLXRuJywgJzgnLCAnLW1hJywgJzIwMCcsICctaW1hZScsICc8aW5maWxlLm1hZT4nLCAnLW9tYWUnLCAnPG91dGZpbGUubWFlPic=

>  <r_epik_Ionization_Penalty>  (28) 
1.34416

>  <r_epik_Ionization_Penalty_Charging>  (28) 
1.34416

>  <r_epik_Ionization_Penalty_Neutral>  (28) 
5.62477e-12

>  <r_epik_State_Penalty>  (28) 
1.42166

>  <r_epik_Charging_Adjusted_Penalty>  (28) 
2.76583

>  <i_epik_Tot_Q>  (28) 
1

>  <i_epik_Tot_abs_Q>  (28) 
1

>  <s_epik_Chemistry_Notes>  (28) 
This compound has an imine and may undergo hydrolysis.

>  <s_lp_Force_Field>  (28) 
OPLS3e

>  <r_lp_Energy>  (28) 
20.2688

>  <b_lp_Chiralities_Consistent>  (28) 
1

>  <s_lp_Variant>  (28) 
8:0-2

>  <s_i_glide_gridfile>  (28) 
pfpi4k_grid

>  <i_i_glide_lignum>  (28) 
13

>  <i_i_glide_rotatable_bonds>  (28) 
6

>  <r_i_docking_score>  (28) 
-5.3201

>  <r_i_glide_ligand_efficiency>  (28) 
-0.231309

>  <r_i_glide_ligand_efficiency_sa>  (28) 
-0.657811

>  <r_i_glide_ligand_efficiency_ln>  (28) 
-1.28645

>  <r_i_glide_gscore>  (28) 
-5.3201

>  <r_i_glide_lipo>  (28) 
-0.143318

>  <r_i_glide_hbond>  (28) 
-0.321219

>  <r_i_glide_metal>  (28) 
-0

>  <r_i_glide_rewards>  (28) 
-1.84341

>  <r_i_glide_evdw>  (28) 
-18.1384

>  <r_i_glide_ecoul>  (28) 
-16.0636

>  <r_i_glide_erotb>  (28) 
0.410907

>  <r_i_glide_esite>  (28) 
-0.106603

>  <r_i_glide_emodel>  (28) 
-46.3662

>  <r_i_glide_energy>  (28) 
-34.202

>  <r_i_glide_einternal>  (28) 
2.69815

>  <r_i_glide_intrahb_reward>  (28) 
-0

>  <i_i_glide_confnum>  (28) 
6

>  <i_i_glide_posenum>  (28) 
26

>  <r_i_glide_eff_state_penalty>  (28) 
0

>  <ligand_id>  (28) 
8

>  <original_smiles>  (28) 
CC1(C(=O)C(Cc2ccccc2)N=C=Cc2cccnc2)CO1

>  <smiles>  (28) 
[H]C(=C=NC([H])(C(=O)C1(C([H])([H])[H])OC1([H])[H])C([H])([H])c1c([H])c([H])c([H])c([H])c1[H])c1c([H])c([H])c([H])[n+]([H])c1[H]

$$$$
8:1:1
     RDKit          3D

 42 44  0  0  1  0  0  0  0  0999 V2000
    4.0116   -6.9391    1.3424 C   0  0  0  0  0  0  0  0  0  0  0  0
    2.9876   -5.8291    1.4232 C   0  0  1  0  0  0  0  0  0  0  0  0
    2.6270   -5.4487    2.8286 C   0  0  0  0  0  0  0  0  0  0  0  0
    3.5218   -5.4124    3.6779 O   0  0  0  0  0  0  0  0  0  0  0  0
    1.1144   -5.1589    3.1135 C   0  0  2  0  0  0  0  0  0  0  0  0
    0.9001   -3.8664    3.9623 C   0  0  0  0  0  0  0  0  0  0  0  0
    1.5985   -3.8033    5.3182 C   0  0  0  0  0  0  0  0  0  0  0  0
    1.3656   -4.8087    6.2832 C   0  0  0  0  0  0  0  0  0  0  0  0
    2.1103   -4.8593    7.4705 C   0  0  0  0  0  0  0  0  0  0  0  0
    3.0441   -3.8452    7.7486 C   0  0  0  0  0  0  0  0  0  0  0  0
    3.2454   -2.7980    6.8202 C   0  0  0  0  0  0  0  0  0  0  0  0
    2.5267   -2.7752    5.6001 C   0  0  0  0  0  0  0  0  0  0  0  0
    0.4729   -6.2999    3.7011 N   0  0  0  0  0  0  0  0  0  0  0  0
    0.2882   -7.5001    3.6192 C   0  0  0  0  0  0  0  0  0  0  0  0
    0.0691   -8.7781    3.4407 C   0  0  0  0  0  0  0  0  0  0  0  0
    1.0798   -9.7785    3.7714 C   0  0  0  0  0  0  0  0  0  0  0  0
    2.1202  -10.0977    2.8687 C   0  0  0  0  0  0  0  0  0  0  0  0
    3.0610  -11.0947    3.2146 C   0  0  0  0  0  0  0  0  0  0  0  0
    2.9318  -11.7659    4.4574 C   0  0  0  0  0  0  0  0  0  0  0  0
    1.9258  -11.4157    5.2750 N   0  0  0  0  0  0  0  0  0  0  0  0
    1.0039  -10.4934    4.9911 C   0  0  0  0  0  0  0  0  0  0  0  0
    2.8178   -4.7937    0.3453 C   0  0  0  0  0  0  0  0  0  0  0  0
    1.8951   -5.8810    0.4890 O   0  0  0  0  0  0  0  0  0  0  0  0
    5.0122   -6.5103    1.3993 H   0  0  0  0  0  0  0  0  0  0  0  0
    3.9038   -7.4519    0.3914 H   0  0  0  0  0  0  0  0  0  0  0  0
    3.8905   -7.6605    2.1527 H   0  0  0  0  0  0  0  0  0  0  0  0
    0.6142   -5.0287    2.1641 H   0  0  0  0  0  0  0  0  0  0  0  0
    1.2499   -3.0302    3.3495 H   0  0  0  0  0  0  0  0  0  0  0  0
   -0.1587   -3.6637    4.1009 H   0  0  0  0  0  0  0  0  0  0  0  0
    0.6610   -5.6066    6.1280 H   0  0  0  0  0  0  0  0  0  0  0  0
    1.9558   -5.6978    8.1369 H   0  0  0  0  0  0  0  0  0  0  0  0
    3.6033   -3.8864    8.6752 H   0  0  0  0  0  0  0  0  0  0  0  0
    3.9729   -2.0241    7.0337 H   0  0  0  0  0  0  0  0  0  0  0  0
    2.7226   -1.9895    4.8793 H   0  0  0  0  0  0  0  0  0  0  0  0
   -0.8728   -9.1477    3.0674 H   0  0  0  0  0  0  0  0  0  0  0  0
    2.1878   -9.5878    1.9174 H   0  0  0  0  0  0  0  0  0  0  0  0
    3.8504  -11.3631    2.5189 H   0  0  0  0  0  0  0  0  0  0  0  0
    3.6041  -12.5444    4.7997 H   0  0  0  0  0  0  0  0  0  0  0  0
    0.2454  -10.3367    5.7449 H   0  0  0  0  0  0  0  0  0  0  0  0
    2.4279   -3.8097    0.6084 H   0  0  0  0  0  0  0  0  0  0  0  0
    3.4631   -4.8575   -0.5253 H   0  0  0  0  0  0  0  0  0  0  0  0
    1.8237  -11.8599    6.2434 H   0  0  0  0  0  0  0  0  0  0  0  0
  2  1  1  1
  1 24  1  0
  1 25  1  0
  1 26  1  0
  2 23  1  0
  2  3  1  0
  2 22  1  0
  3  4  2  0
  3  5  1  0
  5  6  1  0
  5 13  1  0
  5 27  1  6
  6  7  1  0
  6 28  1  0
  6 29  1  0
  7 12  1  0
  7  8  2  0
  8  9  1  0
  8 30  1  0
  9 10  2  0
  9 31  1  0
 10 11  1  0
 10 32  1  0
 11 12  2  0
 11 33  1  0
 12 34  1  0
 13 14  2  0
 14 15  2  0
 15 16  1  0
 15 35  1  0
 16 21  1  0
 16 17  2  0
 17 18  1  0
 17 36  1  0
 18 19  2  0
 18 37  1  0
 19 20  1  0
 19 38  1  0
 20 21  2  0
 20 42  1  0
 21 39  1  0
 22 23  1  0
 22 40  1  0
 22 41  1  0
M  CHG  1  20   1
M  END
>  <i_m_ct_stereo_status>  (29) 
1

>  <s_m_source_file>  (29) 
/var/tmp/pbs.5102103.sched01/tmpf9vmf5rd/00u30c83p.sdf

>  <i_m_source_file_index>  (29) 
13

>  <i_lp_mmshare_version>  (29) 
48012

>  <i_f3d_flags>  (29) 
0

>  <s_epik_input>  (29) 
W2NIXTFbY0hdW2NIXVtjSF1bY0hdYzFbQ0gyXVtDQEBIXShDKD1PKVtDQF0yKFtDSDNdKVtDSDJdTzIpTj1DPVtDSF1jM1tjSF1bY0hdW2NIXW5bY0hdMw==

>  <s_epik_cmdline>  (29) 
J2VwaWtfcHl0aG9uJywgJy1waHQnLCAnMi4wJywgJy1waCcsICc3LjAnLCAnLXRuJywgJzgnLCAnLW1hJywgJzIwMCcsICctaW1hZScsICc8aW5maWxlLm1hZT4nLCAnLW9tYWUnLCAnPG91dGZpbGUubWFlPic=

>  <r_epik_Ionization_Penalty>  (29) 
1.34416

>  <r_epik_Ionization_Penalty_Charging>  (29) 
1.34416

>  <r_epik_Ionization_Penalty_Neutral>  (29) 
5.62477e-12

>  <r_epik_State_Penalty>  (29) 
1.42166

>  <r_epik_Charging_Adjusted_Penalty>  (29) 
2.76583

>  <i_epik_Tot_Q>  (29) 
1

>  <i_epik_Tot_abs_Q>  (29) 
1

>  <s_epik_Chemistry_Notes>  (29) 
This compound has an imine and may undergo hydrolysis.

>  <s_lp_Force_Field>  (29) 
OPLS3e

>  <r_lp_Energy>  (29) 
20.2688

>  <b_lp_Chiralities_Consistent>  (29) 
1

>  <s_lp_Variant>  (29) 
8:0-2

>  <s_i_glide_gridfile>  (29) 
pfpi4k_grid

>  <i_i_glide_lignum>  (29) 
13

>  <i_i_glide_rotatable_bonds>  (29) 
6

>  <r_i_docking_score>  (29) 
-4.60939

>  <r_i_glide_ligand_efficiency>  (29) 
-0.200408

>  <r_i_glide_ligand_efficiency_sa>  (29) 
-0.569934

>  <r_i_glide_ligand_efficiency_ln>  (29) 
-1.11459

>  <r_i_glide_gscore>  (29) 
-4.60939

>  <r_i_glide_lipo>  (29) 
-0.149665

>  <r_i_glide_hbond>  (29) 
-0.234914

>  <r_i_glide_metal>  (29) 
-0

>  <r_i_glide_rewards>  (29) 
-1.84341

>  <r_i_glide_evdw>  (29) 
-17.619

>  <r_i_glide_ecoul>  (29) 
-12.0474

>  <r_i_glide_erotb>  (29) 
0.410907

>  <r_i_glide_esite>  (29) 
-0.104247

>  <r_i_glide_emodel>  (29) 
-40.7907

>  <r_i_glide_energy>  (29) 
-29.6663

>  <r_i_glide_einternal>  (29) 
2.9638

>  <r_i_glide_intrahb_reward>  (29) 
-0

>  <i_i_glide_confnum>  (29) 
6

>  <i_i_glide_posenum>  (29) 
2

>  <r_i_glide_eff_state_penalty>  (29) 
0

>  <ligand_id>  (29) 
8

>  <original_smiles>  (29) 
CC1(C(=O)C(Cc2ccccc2)N=C=Cc2cccnc2)CO1

>  <smiles>  (29) 
[H]C(=C=NC([H])(C(=O)C1(C([H])([H])[H])OC1([H])[H])C([H])([H])c1c([H])c([H])c([H])c([H])c1[H])c1c([H])c([H])c([H])[n+]([H])c1[H]

$$$$
8:1:2
     RDKit          3D

 42 44  0  0  1  0  0  0  0  0999 V2000
    1.1511   -0.6588    6.4718 C   0  0  0  0  0  0  0  0  0  0  0  0
   -0.2099   -0.7877    5.8246 C   0  0  1  0  0  0  0  0  0  0  0  0
   -1.0664    0.4603    5.8807 C   0  0  0  0  0  0  0  0  0  0  0  0
   -2.1531    0.3755    6.4506 O   0  0  0  0  0  0  0  0  0  0  0  0
   -0.5101    1.7505    5.2209 C   0  0  2  0  0  0  0  0  0  0  0  0
   -1.5180    2.9153    5.2498 C   0  0  0  0  0  0  0  0  0  0  0  0
   -1.8435    3.4430    6.6457 C   0  0  0  0  0  0  0  0  0  0  0  0
   -2.9765    2.9747    7.3384 C   0  0  0  0  0  0  0  0  0  0  0  0
   -3.2115    3.3745    8.6645 C   0  0  0  0  0  0  0  0  0  0  0  0
   -2.3461    4.2894    9.2876 C   0  0  0  0  0  0  0  0  0  0  0  0
   -1.2419    4.7881    8.5996 C   0  0  0  0  0  0  0  0  0  0  0  0
   -0.9767    4.3694    7.2736 C   0  0  0  0  0  0  0  0  0  0  0  0
   -0.1621    1.4209    3.8436 N   0  0  0  0  0  0  0  0  0  0  0  0
    0.7325    1.5144    3.0139 C   0  0  0  0  0  0  0  0  0  0  0  0
    1.7914    1.5855    2.2322 C   0  0  0  0  0  0  0  0  0  0  0  0
    2.8820    0.5975    2.2466 C   0  0  0  0  0  0  0  0  0  0  0  0
    3.1266   -0.2695    1.1707 C   0  0  0  0  0  0  0  0  0  0  0  0
    4.2038   -1.1698    1.2147 C   0  0  0  0  0  0  0  0  0  0  0  0
    5.0335   -1.1944    2.3569 C   0  0  0  0  0  0  0  0  0  0  0  0
    4.7782   -0.3491    3.3721 N   0  0  0  0  0  0  0  0  0  0  0  0
    3.7579    0.5352    3.3605 C   0  0  0  0  0  0  0  0  0  0  0  0
   -0.5437   -1.8129    4.7803 C   0  0  0  0  0  0  0  0  0  0  0  0
   -0.9244   -1.9907    6.1510 O   0  0  0  0  0  0  0  0  0  0  0  0
    1.8639   -0.2870    5.7416 H   0  0  0  0  0  0  0  0  0  0  0  0
    1.4849   -1.6386    6.8251 H   0  0  0  0  0  0  0  0  0  0  0  0
    1.1327    0.0262    7.3263 H   0  0  0  0  0  0  0  0  0  0  0  0
    0.3933    2.0632    5.7387 H   0  0  0  0  0  0  0  0  0  0  0  0
   -1.1316    3.7440    4.6516 H   0  0  0  0  0  0  0  0  0  0  0  0
   -2.4421    2.6276    4.7390 H   0  0  0  0  0  0  0  0  0  0  0  0
   -3.6641    2.2949    6.8611 H   0  0  0  0  0  0  0  0  0  0  0  0
   -4.0617    2.9665    9.2008 H   0  0  0  0  0  0  0  0  0  0  0  0
   -2.5348    4.5793   10.3190 H   0  0  0  0  0  0  0  0  0  0  0  0
   -0.5697    5.4927    9.0735 H   0  0  0  0  0  0  0  0  0  0  0  0
   -0.1078    4.7391    6.7464 H   0  0  0  0  0  0  0  0  0  0  0  0
    1.8824    2.4088    1.5475 H   0  0  0  0  0  0  0  0  0  0  0  0
    2.4930   -0.2549    0.2848 H   0  0  0  0  0  0  0  0  0  0  0  0
    4.3923   -1.8401    0.3827 H   0  0  0  0  0  0  0  0  0  0  0  0
    5.8715   -1.8604    2.4748 H   0  0  0  0  0  0  0  0  0  0  0  0
    3.6662    1.1741    4.2265 H   0  0  0  0  0  0  0  0  0  0  0  0
   -1.3498   -1.5721    4.0776 H   0  0  0  0  0  0  0  0  0  0  0  0
    0.2495   -2.4686    4.4349 H   0  0  0  0  0  0  0  0  0  0  0  0
    5.3947   -0.3769    4.1950 H   0  0  0  0  0  0  0  0  0  0  0  0
  2  1  1  1
  1 24  1  0
  1 25  1  0
  1 26  1  0
  2 23  1  0
  2  3  1  0
  2 22  1  0
  3  4  2  0
  3  5  1  0
  5  6  1  0
  5 13  1  0
  5 27  1  1
  6  7  1  0
  6 28  1  0
  6 29  1  0
  7 12  1  0
  7  8  2  0
  8  9  1  0
  8 30  1  0
  9 10  2  0
  9 31  1  0
 10 11  1  0
 10 32  1  0
 11 12  2  0
 11 33  1  0
 12 34  1  0
 13 14  2  0
 14 15  2  0
 15 16  1  0
 15 35  1  0
 16 21  1  0
 16 17  2  0
 17 18  1  0
 17 36  1  0
 18 19  2  0
 18 37  1  0
 19 20  1  0
 19 38  1  0
 20 21  2  0
 20 42  1  0
 21 39  1  0
 22 23  1  0
 22 40  1  0
 22 41  1  0
M  CHG  1  20   1
M  END
>  <i_m_ct_stereo_status>  (30) 
1

>  <s_m_source_file>  (30) 
/var/tmp/pbs.5102103.sched01/tmpf9vmf5rd/00u30c83p.sdf

>  <i_m_source_file_index>  (30) 
13

>  <i_lp_mmshare_version>  (30) 
48012

>  <i_f3d_flags>  (30) 
0

>  <s_epik_input>  (30) 
W2NIXTFbY0hdW2NIXVtjSF1bY0hdYzFbQ0gyXVtDQEBIXShDKD1PKVtDQF0yKFtDSDNdKVtDSDJdTzIpTj1DPVtDSF1jM1tjSF1bY0hdW2NIXW5bY0hdMw==

>  <s_epik_cmdline>  (30) 
J2VwaWtfcHl0aG9uJywgJy1waHQnLCAnMi4wJywgJy1waCcsICc3LjAnLCAnLXRuJywgJzgnLCAnLW1hJywgJzIwMCcsICctaW1hZScsICc8aW5maWxlLm1hZT4nLCAnLW9tYWUnLCAnPG91dGZpbGUubWFlPic=

>  <r_epik_Ionization_Penalty>  (30) 
1.34416

>  <r_epik_Ionization_Penalty_Charging>  (30) 
1.34416

>  <r_epik_Ionization_Penalty_Neutral>  (30) 
5.62477e-12

>  <r_epik_State_Penalty>  (30) 
1.42166

>  <r_epik_Charging_Adjusted_Penalty>  (30) 
2.76583

>  <i_epik_Tot_Q>  (30) 
1

>  <i_epik_Tot_abs_Q>  (30) 
1

>  <s_epik_Chemistry_Notes>  (30) 
This compound has an imine and may undergo hydrolysis.

>  <s_lp_Force_Field>  (30) 
OPLS3e

>  <r_lp_Energy>  (30) 
20.2688

>  <b_lp_Chiralities_Consistent>  (30) 
1

>  <s_lp_Variant>  (30) 
8:0-2

>  <s_i_glide_gridfile>  (30) 
pfpi4k_grid

>  <i_i_glide_lignum>  (30) 
13

>  <i_i_glide_rotatable_bonds>  (30) 
6

>  <r_i_docking_score>  (30) 
-3.85426

>  <r_i_glide_ligand_efficiency>  (30) 
-0.167577

>  <r_i_glide_ligand_efficiency_sa>  (30) 
-0.476565

>  <r_i_glide_ligand_efficiency_ln>  (30) 
-0.931995

>  <r_i_glide_gscore>  (30) 
-3.85426

>  <r_i_glide_lipo>  (30) 
-0.448214

>  <r_i_glide_hbond>  (30) 
-0.16

>  <r_i_glide_metal>  (30) 
-0

>  <r_i_glide_rewards>  (30) 
-1.31341

>  <r_i_glide_evdw>  (30) 
-21.9748

>  <r_i_glide_ecoul>  (30) 
-9.18496

>  <r_i_glide_erotb>  (30) 
0.58701

>  <r_i_glide_esite>  (30) 
-0.0431646

>  <r_i_glide_emodel>  (30) 
-41.5062

>  <r_i_glide_energy>  (30) 
-31.1597

>  <r_i_glide_einternal>  (30) 
0.990426

>  <r_i_glide_intrahb_reward>  (30) 
-0

>  <i_i_glide_confnum>  (30) 
3

>  <i_i_glide_posenum>  (30) 
4

>  <r_i_glide_eff_state_penalty>  (30) 
0

>  <ligand_id>  (30) 
8

>  <original_smiles>  (30) 
CC1(C(=O)C(Cc2ccccc2)N=C=Cc2cccnc2)CO1

>  <smiles>  (30) 
[H]C(=C=NC([H])(C(=O)C1(C([H])([H])[H])OC1([H])[H])C([H])([H])c1c([H])c([H])c([H])c([H])c1[H])c1c([H])c([H])c([H])[n+]([H])c1[H]

$$$$
9:0:0
     RDKit          3D

 26 27  0  0  1  0  0  0  0  0999 V2000
    3.2963    0.3603   -5.5256 C   0  0  0  0  0  0  0  0  0  0  0  0
    3.9404   -0.6193   -4.7217 O   0  0  0  0  0  0  0  0  0  0  0  0
    3.3311   -0.7836   -3.4469 C   0  0  2  0  0  0  0  0  0  0  0  0
    4.4115   -0.8011   -2.3367 C   0  0  0  0  0  0  0  0  0  0  0  0
    4.1634   -2.1559   -1.6687 C   0  0  2  0  0  0  0  0  0  0  0  0
    4.7278   -3.2572   -2.6078 C   0  0  0  0  0  0  0  0  0  0  0  0
    3.6876   -3.2771   -3.7423 C   0  0  0  0  0  0  0  0  0  0  0  0
    2.6876   -2.1861   -3.2885 C   0  0  1  0  0  0  0  0  0  0  0  0
    2.7151   -2.3165   -1.8309 N   0  0  1  0  0  0  0  0  0  0  0  0
    2.0787   -3.4634   -1.1788 C   0  0  0  0  0  0  0  0  0  0  0  0
    3.7830    0.4141   -6.4976 H   0  0  0  0  0  0  0  0  0  0  0  0
    3.3678    1.3465   -5.0617 H   0  0  0  0  0  0  0  0  0  0  0  0
    2.2467    0.1195   -5.6839 H   0  0  0  0  0  0  0  0  0  0  0  0
    2.6119    0.0023   -3.2057 H   0  0  0  0  0  0  0  0  0  0  0  0
    5.4100   -0.7136   -2.7342 H   0  0  0  0  0  0  0  0  0  0  0  0
    4.3060    0.0260   -1.6350 H   0  0  0  0  0  0  0  0  0  0  0  0
    4.5293   -2.2022   -0.6499 H   0  0  0  0  0  0  0  0  0  0  0  0
    5.7358   -3.0348   -2.9593 H   0  0  0  0  0  0  0  0  0  0  0  0
    4.7622   -4.2186   -2.0949 H   0  0  0  0  0  0  0  0  0  0  0  0
    4.1194   -3.0871   -4.7216 H   0  0  0  0  0  0  0  0  0  0  0  0
    3.1840   -4.2447   -3.8009 H   0  0  0  0  0  0  0  0  0  0  0  0
    1.7055   -2.2709   -3.7382 H   0  0  0  0  0  0  0  0  0  0  0  0
    2.5045   -4.4187   -1.4335 H   0  0  0  0  0  0  0  0  0  0  0  0
    1.0083   -3.5133   -1.4170 H   0  0  0  0  0  0  0  0  0  0  0  0
    2.1622   -3.3944   -0.0825 H   0  0  0  0  0  0  0  0  0  0  0  0
    2.1941   -1.4960   -1.4638 H   0  0  0  0  0  0  0  0  0  0  0  0
  1  2  1  0
  1 11  1  0
  1 12  1  0
  1 13  1  0
  2  3  1  0
  3  8  1  0
  3  4  1  0
  3 14  1  1
  4  5  1  0
  4 15  1  0
  4 16  1  0
  5  9  1  0
  5  6  1  0
  5 17  1  1
  6  7  1  0
  6 18  1  0
  6 19  1  0
  7  8  1  0
  7 20  1  0
  7 21  1  0
  8  9  1  0
  8 22  1  6
  9 10  1  0
  9 26  1  1
 10 23  1  0
 10 24  1  0
 10 25  1  0
M  CHG  1   9   1
M  END
>  <i_m_ct_stereo_status>  (31) 
1

>  <s_m_source_file>  (31) 
/var/tmp/pbs.5102103.sched01/tmpf9vmf5rd/00u30c83p.sdf

>  <i_m_source_file_index>  (31) 
14

>  <i_lp_mmshare_version>  (31) 
48012

>  <i_f3d_flags>  (31) 
0

>  <s_epik_input>  (31) 
W0NIM11PW0NASF0oW0NIMl1bQ0BIXTEyKVtDQEBIXShbQ0gyXVtDSDJdMSlOMltDSDNd

>  <s_epik_cmdline>  (31) 
J2VwaWtfcHl0aG9uJywgJy1waHQnLCAnMi4wJywgJy1waCcsICc3LjAnLCAnLXRuJywgJzgnLCAnLW1hJywgJzIwMCcsICctaW1hZScsICc8aW5maWxlLm1hZT4nLCAnLW9tYWUnLCAnPG91dGZpbGUubWFlPic=

>  <r_epik_Ionization_Penalty>  (31) 
0.00451878

>  <r_epik_Ionization_Penalty_Charging>  (31) 
0.00451878

>  <r_epik_Ionization_Penalty_Neutral>  (31) 
3.63101e-14

>  <r_epik_State_Penalty>  (31) 
0.00326242

>  <r_epik_Charging_Adjusted_Penalty>  (31) 
0.00778119

>  <i_epik_Tot_Q>  (31) 
1

>  <i_epik_Tot_abs_Q>  (31) 
1

>  <s_lp_Force_Field>  (31) 
OPLS3e

>  <r_lp_Energy>  (31) 
31.6598

>  <b_lp_Chiralities_Consistent>  (31) 
1

>  <s_lp_Variant>  (31) 
9:0-1

>  <s_i_glide_gridfile>  (31) 
pfpi4k_grid

>  <i_i_glide_lignum>  (31) 
14

>  <i_i_glide_rotatable_bonds>  (31) 
1

>  <r_i_docking_score>  (31) 
-5.01867

>  <r_i_glide_ligand_efficiency>  (31) 
-0.501867

>  <r_i_glide_ligand_efficiency_sa>  (31) 
-1.08124

>  <r_i_glide_ligand_efficiency_ln>  (31) 
-1.51962

>  <r_i_glide_gscore>  (31) 
-5.01867

>  <r_i_glide_lipo>  (31) 
-0.75805

>  <r_i_glide_hbond>  (31) 
-0.285879

>  <r_i_glide_metal>  (31) 
-0

>  <r_i_glide_rewards>  (31) 
-2.25

>  <r_i_glide_evdw>  (31) 
-14.5753

>  <r_i_glide_ecoul>  (31) 
-6.11343

>  <r_i_glide_erotb>  (31) 
0

>  <r_i_glide_esite>  (31) 
-0.078968

>  <r_i_glide_emodel>  (31) 
-27.1574

>  <r_i_glide_energy>  (31) 
-20.6887

>  <r_i_glide_einternal>  (31) 
1.91315

>  <r_i_glide_intrahb_reward>  (31) 
-0

>  <i_i_glide_confnum>  (31) 
2

>  <i_i_glide_posenum>  (31) 
28

>  <r_i_glide_eff_state_penalty>  (31) 
0

>  <ligand_id>  (31) 
9

>  <original_smiles>  (31) 
COC1CC2CCC1N2C

>  <smiles>  (31) 
[H]C([H])([H])OC1([H])C([H])([H])C2([H])C([H])([H])C([H])([H])C1([H])[N+]2([H])C([H])([H])[H]

$$$$
9:0:1
     RDKit          3D

 26 27  0  0  1  0  0  0  0  0999 V2000
    3.7632    0.6976   -5.3743 C   0  0  0  0  0  0  0  0  0  0  0  0
    3.9698   -0.6492   -4.9924 O   0  0  0  0  0  0  0  0  0  0  0  0
    2.9845   -1.1220   -4.1092 C   0  0  2  0  0  0  0  0  0  0  0  0
    3.0589   -0.3940   -2.7666 C   0  0  0  0  0  0  0  0  0  0  0  0
    3.2519   -1.5285   -1.7503 C   0  0  2  0  0  0  0  0  0  0  0  0
    4.6987   -2.0405   -1.8629 C   0  0  0  0  0  0  0  0  0  0  0  0
    4.6593   -2.7875   -3.2074 C   0  0  0  0  0  0  0  0  0  0  0  0
    3.1869   -2.5870   -3.6534 C   0  0  1  0  0  0  0  0  0  0  0  0
    2.4559   -2.5832   -2.3741 N   0  0  1  0  0  0  0  0  0  0  0  0
    2.2949   -3.8435   -1.6227 C   0  0  0  0  0  0  0  0  0  0  0  0
    4.5944    0.9790   -6.0038 H   0  0  0  0  0  0  0  0  0  0  0  0
    3.7795    1.4077   -4.5492 H   0  0  0  0  0  0  0  0  0  0  0  0
    2.8338    0.8222   -5.9233 H   0  0  0  0  0  0  0  0  0  0  0  0
    2.0200   -1.0130   -4.5984 H   0  0  0  0  0  0  0  0  0  0  0  0
    3.8763    0.3191   -2.6986 H   0  0  0  0  0  0  0  0  0  0  0  0
    2.1182    0.1349   -2.6406 H   0  0  0  0  0  0  0  0  0  0  0  0
    2.9994   -1.2782   -0.7182 H   0  0  0  0  0  0  0  0  0  0  0  0
    5.4128   -1.2119   -1.8484 H   0  0  0  0  0  0  0  0  0  0  0  0
    4.9420   -2.7152   -1.0372 H   0  0  0  0  0  0  0  0  0  0  0  0
    5.4060   -2.3610   -3.8800 H   0  0  0  0  0  0  0  0  0  0  0  0
    4.8753   -3.8482   -3.0715 H   0  0  0  0  0  0  0  0  0  0  0  0
    2.8257   -3.3090   -4.3884 H   0  0  0  0  0  0  0  0  0  0  0  0
    3.2435   -4.3117   -1.4104 H   0  0  0  0  0  0  0  0  0  0  0  0
    1.6550   -4.5005   -2.1863 H   0  0  0  0  0  0  0  0  0  0  0  0
    1.8164   -3.7075   -0.6619 H   0  0  0  0  0  0  0  0  0  0  0  0
    1.5562   -2.1431   -2.5271 H   0  0  0  0  0  0  0  0  0  0  0  0
  1  2  1  0
  1 11  1  0
  1 12  1  0
  1 13  1  0
  2  3  1  0
  3  8  1  0
  3  4  1  0
  3 14  1  6
  4  5  1  0
  4 15  1  0
  4 16  1  0
  5  9  1  0
  5  6  1  0
  5 17  1  1
  6  7  1  0
  6 18  1  0
  6 19  1  0
  7  8  1  0
  7 20  1  0
  7 21  1  0
  8  9  1  0
  8 22  1  6
  9 10  1  0
  9 26  1  6
 10 23  1  0
 10 24  1  0
 10 25  1  0
M  CHG  1   9   1
M  END
>  <i_m_ct_stereo_status>  (32) 
1

>  <s_m_source_file>  (32) 
/var/tmp/pbs.5102103.sched01/tmpf9vmf5rd/00u30c83p.sdf

>  <i_m_source_file_index>  (32) 
14

>  <i_lp_mmshare_version>  (32) 
48012

>  <i_f3d_flags>  (32) 
0

>  <s_epik_input>  (32) 
W0NIM11PW0NASF0oW0NIMl1bQ0BIXTEyKVtDQEBIXShbQ0gyXVtDSDJdMSlOMltDSDNd

>  <s_epik_cmdline>  (32) 
J2VwaWtfcHl0aG9uJywgJy1waHQnLCAnMi4wJywgJy1waCcsICc3LjAnLCAnLXRuJywgJzgnLCAnLW1hJywgJzIwMCcsICctaW1hZScsICc8aW5maWxlLm1hZT4nLCAnLW9tYWUnLCAnPG91dGZpbGUubWFlPic=

>  <r_epik_Ionization_Penalty>  (32) 
0.00451878

>  <r_epik_Ionization_Penalty_Charging>  (32) 
0.00451878

>  <r_epik_Ionization_Penalty_Neutral>  (32) 
3.63101e-14

>  <r_epik_State_Penalty>  (32) 
0.00326242

>  <r_epik_Charging_Adjusted_Penalty>  (32) 
0.00778119

>  <i_epik_Tot_Q>  (32) 
1

>  <i_epik_Tot_abs_Q>  (32) 
1

>  <s_lp_Force_Field>  (32) 
OPLS3e

>  <r_lp_Energy>  (32) 
31.6598

>  <b_lp_Chiralities_Consistent>  (32) 
1

>  <s_lp_Variant>  (32) 
9:0-1

>  <s_i_glide_gridfile>  (32) 
pfpi4k_grid

>  <i_i_glide_lignum>  (32) 
14

>  <i_i_glide_rotatable_bonds>  (32) 
1

>  <r_i_docking_score>  (32) 
-4.35136

>  <r_i_glide_ligand_efficiency>  (32) 
-0.435136

>  <r_i_glide_ligand_efficiency_sa>  (32) 
-0.937472

>  <r_i_glide_ligand_efficiency_ln>  (32) 
-1.31756

>  <r_i_glide_gscore>  (32) 
-4.35136

>  <r_i_glide_lipo>  (32) 
-0.550261

>  <r_i_glide_hbond>  (32) 
-0.296517

>  <r_i_glide_metal>  (32) 
-0

>  <r_i_glide_rewards>  (32) 
-2.25

>  <r_i_glide_evdw>  (32) 
-7.33574

>  <r_i_glide_ecoul>  (32) 
-5.62332

>  <r_i_glide_erotb>  (32) 
0

>  <r_i_glide_esite>  (32) 
-0.044299

>  <r_i_glide_emodel>  (32) 
-18.9217

>  <r_i_glide_energy>  (32) 
-12.9591

>  <r_i_glide_einternal>  (32) 
0.381393

>  <r_i_glide_intrahb_reward>  (32) 
-0

>  <i_i_glide_confnum>  (32) 
1

>  <i_i_glide_posenum>  (32) 
24

>  <r_i_glide_eff_state_penalty>  (32) 
0

>  <ligand_id>  (32) 
9

>  <original_smiles>  (32) 
COC1CC2CCC1N2C

>  <smiles>  (32) 
[H]C([H])([H])OC1([H])C([H])([H])C2([H])C([H])([H])C([H])([H])C1([H])[N+]2([H])C([H])([H])[H]

$$$$
9:0:2
     RDKit          3D

 26 27  0  0  1  0  0  0  0  0999 V2000
    2.3369   -4.6916   -0.1457 C   0  0  0  0  0  0  0  0  0  0  0  0
    2.6216   -3.3217   -0.3831 O   0  0  0  0  0  0  0  0  0  0  0  0
    2.8278   -2.9958   -1.7544 C   0  0  2  0  0  0  0  0  0  0  0  0
    4.1200   -3.6213   -2.3423 C   0  0  0  0  0  0  0  0  0  0  0  0
    4.9190   -2.3916   -2.7863 C   0  0  2  0  0  0  0  0  0  0  0  0
    5.4651   -1.6896   -1.5259 C   0  0  0  0  0  0  0  0  0  0  0  0
    4.2050   -1.0440   -0.9396 C   0  0  0  0  0  0  0  0  0  0  0  0
    3.1196   -1.4873   -1.9494 C   0  0  1  0  0  0  0  0  0  0  0  0
    3.8207   -1.5123   -3.2301 N   0  0  1  0  0  0  0  0  0  0  0  0
    4.1473   -0.1961   -3.8105 C   0  0  0  0  0  0  0  0  0  0  0  0
    2.1679   -4.8513    0.9181 H   0  0  0  0  0  0  0  0  0  0  0  0
    3.1626   -5.3371   -0.4333 H   0  0  0  0  0  0  0  0  0  0  0  0
    1.4352   -5.0032   -0.6740 H   0  0  0  0  0  0  0  0  0  0  0  0
    1.9506   -3.2800   -2.3425 H   0  0  0  0  0  0  0  0  0  0  0  0
    4.6876   -4.2293   -1.6277 H   0  0  0  0  0  0  0  0  0  0  0  0
    3.8851   -4.2509   -3.2077 H   0  0  0  0  0  0  0  0  0  0  0  0
    5.6747   -2.6449   -3.5273 H   0  0  0  0  0  0  0  0  0  0  0  0
    5.9516   -2.3903   -0.8386 H   0  0  0  0  0  0  0  0  0  0  0  0
    6.1921   -0.9379   -1.8116 H   0  0  0  0  0  0  0  0  0  0  0  0
    3.9956   -1.3719    0.0834 H   0  0  0  0  0  0  0  0  0  0  0  0
    4.3101    0.0399   -0.9117 H   0  0  0  0  0  0  0  0  0  0  0  0
    2.2653   -0.8235   -2.0397 H   0  0  0  0  0  0  0  0  0  0  0  0
    4.7131    0.4115   -3.1080 H   0  0  0  0  0  0  0  0  0  0  0  0
    3.2559    0.3779   -4.0598 H   0  0  0  0  0  0  0  0  0  0  0  0
    4.7138   -0.3209   -4.7282 H   0  0  0  0  0  0  0  0  0  0  0  0
    3.2381   -2.0124   -3.8874 H   0  0  0  0  0  0  0  0  0  0  0  0
  1  2  1  0
  1 11  1  0
  1 12  1  0
  1 13  1  0
  2  3  1  0
  3  8  1  0
  3  4  1  0
  3 14  1  6
  4  5  1  0
  4 15  1  0
  4 16  1  0
  5  9  1  0
  5  6  1  0
  5 17  1  6
  6  7  1  0
  6 18  1  0
  6 19  1  0
  7  8  1  0
  7 20  1  0
  7 21  1  0
  8  9  1  0
  8 22  1  6
  9 10  1  0
  9 26  1  6
 10 23  1  0
 10 24  1  0
 10 25  1  0
M  CHG  1   9   1
M  END
>  <i_m_ct_stereo_status>  (33) 
1

>  <s_m_source_file>  (33) 
/var/tmp/pbs.5102103.sched01/tmpf9vmf5rd/00u30c83p.sdf

>  <i_m_source_file_index>  (33) 
14

>  <i_lp_mmshare_version>  (33) 
48012

>  <i_f3d_flags>  (33) 
0

>  <s_epik_input>  (33) 
W0NIM11PW0NASF0oW0NIMl1bQ0BIXTEyKVtDQEBIXShbQ0gyXVtDSDJdMSlOMltDSDNd

>  <s_epik_cmdline>  (33) 
J2VwaWtfcHl0aG9uJywgJy1waHQnLCAnMi4wJywgJy1waCcsICc3LjAnLCAnLXRuJywgJzgnLCAnLW1hJywgJzIwMCcsICctaW1hZScsICc8aW5maWxlLm1hZT4nLCAnLW9tYWUnLCAnPG91dGZpbGUubWFlPic=

>  <r_epik_Ionization_Penalty>  (33) 
0.00451878

>  <r_epik_Ionization_Penalty_Charging>  (33) 
0.00451878

>  <r_epik_Ionization_Penalty_Neutral>  (33) 
3.63101e-14

>  <r_epik_State_Penalty>  (33) 
0.00326242

>  <r_epik_Charging_Adjusted_Penalty>  (33) 
0.00778119

>  <i_epik_Tot_Q>  (33) 
1

>  <i_epik_Tot_abs_Q>  (33) 
1

>  <s_lp_Force_Field>  (33) 
OPLS3e

>  <r_lp_Energy>  (33) 
31.6598

>  <b_lp_Chiralities_Consistent>  (33) 
1

>  <s_lp_Variant>  (33) 
9:0-1

>  <s_i_glide_gridfile>  (33) 
pfpi4k_grid

>  <i_i_glide_lignum>  (33) 
14

>  <i_i_glide_rotatable_bonds>  (33) 
1

>  <r_i_docking_score>  (33) 
-3.34058

>  <r_i_glide_ligand_efficiency>  (33) 
-0.334058

>  <r_i_glide_ligand_efficiency_sa>  (33) 
-0.719706

>  <r_i_glide_ligand_efficiency_ln>  (33) 
-1.0115

>  <r_i_glide_gscore>  (33) 
-3.34058

>  <r_i_glide_lipo>  (33) 
-0.33843

>  <r_i_glide_hbond>  (33) 
0

>  <r_i_glide_metal>  (33) 
-0

>  <r_i_glide_rewards>  (33) 
-2.25

>  <r_i_glide_evdw>  (33) 
-8.55192

>  <r_i_glide_ecoul>  (33) 
-2.1637

>  <r_i_glide_erotb>  (33) 
0

>  <r_i_glide_esite>  (33) 
0

>  <r_i_glide_emodel>  (33) 
-15.2353

>  <r_i_glide_energy>  (33) 
-10.7156

>  <r_i_glide_einternal>  (33) 
0.343806

>  <r_i_glide_intrahb_reward>  (33) 
-0

>  <i_i_glide_confnum>  (33) 
2

>  <i_i_glide_posenum>  (33) 
19

>  <r_i_glide_eff_state_penalty>  (33) 
0

>  <ligand_id>  (33) 
9

>  <original_smiles>  (33) 
COC1CC2CCC1N2C

>  <smiles>  (33) 
[H]C([H])([H])OC1([H])C([H])([H])C2([H])C([H])([H])C([H])([H])C1([H])[N+]2([H])C([H])([H])[H]

$$$$
11:0:0
     RDKit          3D

 52 56  0  0  1  0  0  0  0  0999 V2000
    2.5589    1.0021    6.1062 O   0  0  0  0  0  0  0  0  0  0  0  0
    1.6058    1.5362    5.5643 C   0  0  0  0  0  0  0  0  0  0  0  0
    0.6780    2.3712    6.4177 C   0  0  0  0  0  0  0  0  0  0  0  0
    0.0730    1.7127    7.5227 C   0  0  0  0  0  0  0  0  0  0  0  0
   -0.8360    2.3844    8.3582 C   0  0  0  0  0  0  0  0  0  0  0  0
   -1.3924    1.7420    9.4012 F   0  0  0  0  0  0  0  0  0  0  0  0
   -1.1555    3.7261    8.1125 C   0  0  0  0  0  0  0  0  0  0  0  0
   -0.5502    4.4019    7.0327 C   0  0  0  0  0  0  0  0  0  0  0  0
    0.3854    3.7485    6.1930 C   0  0  0  0  0  0  0  0  0  0  0  0
    0.9424    4.5082    5.1208 N   0  0  0  0  0  0  0  0  0  0  0  0
    2.2363    4.4104    4.7102 N   0  0  0  0  0  0  0  0  0  0  0  0
    2.2633    5.1716    3.6442 C   0  0  0  0  0  0  0  0  0  0  0  0
    1.0008    5.7902    3.4751 C   0  0  0  0  0  0  0  0  0  0  0  0
    0.1868    5.3974    4.4201 N   0  0  0  0  0  0  0  0  0  0  0  0
    1.2708    1.3077    4.2689 N   0  0  0  0  0  0  0  0  0  0  0  0
    0.2553    2.0426    3.4840 C   0  0  0  0  0  0  0  0  0  0  0  0
   -0.7293    1.0915    2.8335 C   0  0  0  0  0  0  0  0  0  0  0  0
   -0.0270    0.1377    2.0743 O   0  0  0  0  0  0  0  0  0  0  0  0
    0.8400   -0.6626    2.8699 C   0  0  0  0  0  0  0  0  0  0  0  0
    1.9293    0.2413    3.4767 C   0  0  1  0  0  0  0  0  0  0  0  0
    2.8688    0.8448    2.4127 C   0  0  0  0  0  0  0  0  0  0  0  0
    3.8039   -0.1757    1.7933 C   0  0  0  0  0  0  0  0  0  0  0  0
    3.5616   -0.6565    0.4839 C   0  0  0  0  0  0  0  0  0  0  0  0
    4.4386   -1.5856   -0.1212 C   0  0  0  0  0  0  0  0  0  0  0  0
    4.2104   -2.0392   -1.4502 N   0  0  0  0  0  0  0  0  0  0  0  0
    4.7898   -3.1693   -1.9499 N   0  0  0  0  0  0  0  0  0  0  0  0
    4.3128   -3.2332   -3.1714 C   0  0  0  0  0  0  0  0  0  0  0  0
    3.4713   -2.1218   -3.4117 C   0  0  0  0  0  0  0  0  0  0  0  0
    3.4200   -1.3690   -2.3378 N   0  0  0  0  0  0  0  0  0  0  0  0
    5.5454   -2.0574    0.6143 C   0  0  0  0  0  0  0  0  0  0  0  0
    5.7724   -1.5912    1.9275 C   0  0  0  0  0  0  0  0  0  0  0  0
    4.9136   -0.6563    2.5137 C   0  0  0  0  0  0  0  0  0  0  0  0
    5.1447   -0.2161    3.7700 F   0  0  0  0  0  0  0  0  0  0  0  0
    0.2957    0.6788    7.7136 H   0  0  0  0  0  0  0  0  0  0  0  0
   -1.8567    4.2365    8.7565 H   0  0  0  0  0  0  0  0  0  0  0  0
   -0.8160    5.4258    6.8620 H   0  0  0  0  0  0  0  0  0  0  0  0
    3.1540    5.2624    3.0373 H   0  0  0  0  0  0  0  0  0  0  0  0
    0.6654    6.4920    2.7236 H   0  0  0  0  0  0  0  0  0  0  0  0
   -0.3784    2.7077    4.0427 H   0  0  0  0  0  0  0  0  0  0  0  0
    0.7896    2.6312    2.7196 H   0  0  0  0  0  0  0  0  0  0  0  0
   -1.3356    0.6191    3.6072 H   0  0  0  0  0  0  0  0  0  0  0  0
   -1.3932    1.6616    2.1889 H   0  0  0  0  0  0  0  0  0  0  0  0
    0.2790   -1.1724    3.6548 H   0  0  0  0  0  0  0  0  0  0  0  0
    1.2738   -1.4462    2.2384 H   0  0  0  0  0  0  0  0  0  0  0  0
    2.5344   -0.3925    4.1265 H   0  0  0  0  0  0  0  0  0  0  0  0
    2.2821    1.2970    1.6050 H   0  0  0  0  0  0  0  0  0  0  0  0
    3.4511    1.6602    2.8343 H   0  0  0  0  0  0  0  0  0  0  0  0
    2.6823   -0.3098   -0.0309 H   0  0  0  0  0  0  0  0  0  0  0  0
    4.5760   -4.0611   -3.8116 H   0  0  0  0  0  0  0  0  0  0  0  0
    2.9085   -1.8499   -4.2912 H   0  0  0  0  0  0  0  0  0  0  0  0
    6.2311   -2.7651    0.1884 H   0  0  0  0  0  0  0  0  0  0  0  0
    6.6134   -1.9613    2.4782 H   0  0  0  0  0  0  0  0  0  0  0  0
  1  2  2  0
  2  3  1  0
  2 15  1  0
  3  9  1  0
  3  4  2  0
  4  5  1  0
  4 34  1  0
  5  6  1  0
  5  7  2  0
  7  8  1  0
  7 35  1  0
  8  9  2  0
  8 36  1  0
  9 10  1  0
 10 14  1  0
 10 11  1  0
 11 12  2  0
 12 13  1  0
 12 37  1  0
 13 14  2  0
 13 38  1  0
 15 20  1  0
 15 16  1  0
 16 17  1  0
 16 39  1  0
 16 40  1  0
 17 18  1  0
 17 41  1  0
 17 42  1  0
 18 19  1  0
 19 20  1  0
 19 43  1  0
 19 44  1  0
 20 21  1  0
 20 45  1  1
 21 22  1  0
 21 46  1  0
 21 47  1  0
 22 32  1  0
 22 23  2  0
 23 24  1  0
 23 48  1  0
 24 25  1  0
 24 30  2  0
 25 29  1  0
 25 26  1  0
 26 27  2  0
 27 28  1  0
 27 49  1  0
 28 29  2  0
 28 50  1  0
 30 31  1  0
 30 51  1  0
 31 32  2  0
 31 52  1  0
 32 33  1  0
M  END
>  <i_m_ct_stereo_status>  (34) 
1

>  <s_m_source_file>  (34) 
/var/tmp/pbs.5102103.sched01/tmpf9vmf5rd/00u30c83p.sdf

>  <i_m_source_file_index>  (34) 
16

>  <i_lp_mmshare_version>  (34) 
48012

>  <i_f3d_flags>  (34) 
0

>  <s_epik_input>  (34) 
bjFbY0hdW2NIXW5uMS1jMltjSF1bY0hdYyhGKVtjSF1jMkMoPU8pTjNbQ0gyXVtDSDJdT1tDSDJdW0NASF0zW0NIMl1jNFtjSF1jKFtjSF1bY0hdYzRGKS1uNW5bY0hdW2NIXW41

>  <s_epik_cmdline>  (34) 
J2VwaWtfcHl0aG9uJywgJy1waHQnLCAnMi4wJywgJy1waCcsICc3LjAnLCAnLXRuJywgJzgnLCAnLW1hJywgJzIwMCcsICctaW1hZScsICc8aW5maWxlLm1hZT4nLCAnLW9tYWUnLCAnPG91dGZpbGUubWFlPic=

>  <r_lp_tautomer_probability>  (34) 
1

>  <r_epik_Ionization_Penalty>  (34) 
8.43867e-12

>  <r_epik_Ionization_Penalty_Charging>  (34) 
0

>  <r_epik_Ionization_Penalty_Neutral>  (34) 
8.43867e-12

>  <r_epik_State_Penalty>  (34) 
-0

>  <r_epik_Charging_Adjusted_Penalty>  (34) 
0

>  <i_epik_Tot_Q>  (34) 
0

>  <i_epik_Tot_abs_Q>  (34) 
0

>  <s_lp_Force_Field>  (34) 
OPLS3e

>  <r_lp_Energy>  (34) 
47.7906

>  <b_lp_Chiralities_Consistent>  (34) 
1

>  <s_lp_Variant>  (34) 
11:0-1

>  <s_i_glide_gridfile>  (34) 
pfpi4k_grid

>  <i_i_glide_lignum>  (34) 
16

>  <i_i_glide_rotatable_bonds>  (34) 
6

>  <r_i_docking_score>  (34) 
-2.51671

>  <r_i_glide_ligand_efficiency>  (34) 
-0.0762639

>  <r_i_glide_ligand_efficiency_sa>  (34) 
-0.244619

>  <r_i_glide_ligand_efficiency_ln>  (34) 
-0.559703

>  <r_i_glide_gscore>  (34) 
-2.51671

>  <r_i_glide_lipo>  (34) 
-0.658297

>  <r_i_glide_hbond>  (34) 
-0.0185951

>  <r_i_glide_metal>  (34) 
-0

>  <r_i_glide_rewards>  (34) 
-0.486414

>  <r_i_glide_evdw>  (34) 
-33.1796

>  <r_i_glide_ecoul>  (34) 
-1.26611

>  <r_i_glide_erotb>  (34) 
0.590526

>  <r_i_glide_esite>  (34) 
-0.0950338

>  <r_i_glide_emodel>  (34) 
-37.5535

>  <r_i_glide_energy>  (34) 
-34.4457

>  <r_i_glide_einternal>  (34) 
3.17751

>  <r_i_glide_intrahb_reward>  (34) 
-0

>  <i_i_glide_confnum>  (34) 
3

>  <i_i_glide_posenum>  (34) 
14

>  <r_i_glide_eff_state_penalty>  (34) 
0

>  <ligand_id>  (34) 
11

>  <original_smiles>  (34) 
O=C(c1cc(F)ccc1-n1nccn1)N1CCOCC1Cc1cc(-n2nccn2)ccc1F

>  <smiles>  (34) 
[H]c1nn(-c2c([H])c([H])c(F)c(C([H])([H])C3([H])N(C(=O)c4c([H])c(F)c([H])c([H])c4-n4nc([H])c([H])n4)C([H])([H])C([H])([H])OC3([H])[H])c2[H])nc1[H]

$$$$
11:0:1
     RDKit          3D

 52 56  0  0  1  0  0  0  0  0999 V2000
    3.3454    1.6645    5.3009 O   0  0  0  0  0  0  0  0  0  0  0  0
    2.1933    1.7394    4.8580 C   0  0  0  0  0  0  0  0  0  0  0  0
    1.1191    2.3833    5.7049 C   0  0  0  0  0  0  0  0  0  0  0  0
    0.3425    1.5161    6.5095 C   0  0  0  0  0  0  0  0  0  0  0  0
   -0.6710    2.0175    7.3405 C   0  0  0  0  0  0  0  0  0  0  0  0
   -1.3963    1.1671    8.1065 F   0  0  0  0  0  0  0  0  0  0  0  0
   -0.9291    3.3966    7.3778 C   0  0  0  0  0  0  0  0  0  0  0  0
   -0.1712    4.2683    6.5641 C   0  0  0  0  0  0  0  0  0  0  0  0
    0.8606    3.7874    5.7209 C   0  0  0  0  0  0  0  0  0  0  0  0
    1.5707    4.7414    4.9260 N   0  0  0  0  0  0  0  0  0  0  0  0
    2.8982    4.6618    4.6422 N   0  0  0  0  0  0  0  0  0  0  0  0
    3.1178    5.7079    3.8926 C   0  0  0  0  0  0  0  0  0  0  0  0
    1.9224    6.4620    3.7813 C   0  0  0  0  0  0  0  0  0  0  0  0
    0.9625    5.8545    4.4283 N   0  0  0  0  0  0  0  0  0  0  0  0
    1.8056    1.1396    3.7107 N   0  0  0  0  0  0  0  0  0  0  0  0
    0.5822    1.4670    2.9713 C   0  0  0  0  0  0  0  0  0  0  0  0
   -0.2107    0.1846    2.7312 C   0  0  0  0  0  0  0  0  0  0  0  0
    0.6092   -0.7963    2.1110 O   0  0  0  0  0  0  0  0  0  0  0  0
    1.7259   -1.1679    2.9082 C   0  0  0  0  0  0  0  0  0  0  0  0
    2.6069    0.0720    3.0895 C   0  0  1  0  0  0  0  0  0  0  0  0
    3.2503    0.5357    1.7690 C   0  0  0  0  0  0  0  0  0  0  0  0
    4.1798   -0.4876    1.1394 C   0  0  0  0  0  0  0  0  0  0  0  0
    3.8316   -1.0588   -0.1056 C   0  0  0  0  0  0  0  0  0  0  0  0
    4.6597   -2.0113   -0.7341 C   0  0  0  0  0  0  0  0  0  0  0  0
    4.3027   -2.5603   -1.9986 N   0  0  0  0  0  0  0  0  0  0  0  0
    5.1761   -3.2652   -2.7640 N   0  0  0  0  0  0  0  0  0  0  0  0
    4.4658   -3.5905   -3.8096 C   0  0  0  0  0  0  0  0  0  0  0  0
    3.1562   -3.0561   -3.6780 C   0  0  0  0  0  0  0  0  0  0  0  0
    3.0687   -2.4065   -2.5511 N   0  0  0  0  0  0  0  0  0  0  0  0
    5.8531   -2.4020   -0.0826 C   0  0  0  0  0  0  0  0  0  0  0  0
    6.1934   -1.8443    1.1698 C   0  0  0  0  0  0  0  0  0  0  0  0
    5.3679   -0.8849    1.7753 C   0  0  0  0  0  0  0  0  0  0  0  0
    5.7221   -0.3540    2.9718 F   0  0  0  0  0  0  0  0  0  0  0  0
    0.5390    0.4513    6.4963 H   0  0  0  0  0  0  0  0  0  0  0  0
   -1.6991    3.7950    8.0328 H   0  0  0  0  0  0  0  0  0  0  0  0
   -0.3817    5.3310    6.6166 H   0  0  0  0  0  0  0  0  0  0  0  0
    4.1065    5.8859    3.4798 H   0  0  0  0  0  0  0  0  0  0  0  0
    1.7396    7.3973    3.2752 H   0  0  0  0  0  0  0  0  0  0  0  0
   -0.0730    2.2069    3.4433 H   0  0  0  0  0  0  0  0  0  0  0  0
    0.8640    1.9222    2.0319 H   0  0  0  0  0  0  0  0  0  0  0  0
   -0.6111   -0.2123    3.6661 H   0  0  0  0  0  0  0  0  0  0  0  0
   -1.0467    0.4054    2.0698 H   0  0  0  0  0  0  0  0  0  0  0  0
    1.3940   -1.5722    3.8729 H   0  0  0  0  0  0  0  0  0  0  0  0
    2.2642   -1.9738    2.4065 H   0  0  0  0  0  0  0  0  0  0  0  0
    3.3962   -0.2259    3.7716 H   0  0  0  0  0  0  0  0  0  0  0  0
    2.4884    0.7869    1.0287 H   0  0  0  0  0  0  0  0  0  0  0  0
    3.7844    1.4514    1.9518 H   0  0  0  0  0  0  0  0  0  0  0  0
    2.9150   -0.7454   -0.5828 H   0  0  0  0  0  0  0  0  0  0  0  0
    4.9027   -4.1918   -4.5951 H   0  0  0  0  0  0  0  0  0  0  0  0
    2.2965   -3.1276   -4.3343 H   0  0  0  0  0  0  0  0  0  0  0  0
    6.5093   -3.1384   -0.5290 H   0  0  0  0  0  0  0  0  0  0  0  0
    7.0899   -2.1658    1.6740 H   0  0  0  0  0  0  0  0  0  0  0  0
  1  2  2  0
  2  3  1  0
  2 15  1  0
  3  9  1  0
  3  4  2  0
  4  5  1  0
  4 34  1  0
  5  6  1  0
  5  7  2  0
  7  8  1  0
  7 35  1  0
  8  9  2  0
  8 36  1  0
  9 10  1  0
 10 14  1  0
 10 11  1  0
 11 12  2  0
 12 13  1  0
 12 37  1  0
 13 14  2  0
 13 38  1  0
 15 20  1  0
 15 16  1  0
 16 17  1  0
 16 39  1  0
 16 40  1  0
 17 18  1  0
 17 41  1  0
 17 42  1  0
 18 19  1  0
 19 20  1  0
 19 43  1  0
 19 44  1  0
 20 21  1  0
 20 45  1  1
 21 22  1  0
 21 46  1  0
 21 47  1  0
 22 32  1  0
 22 23  2  0
 23 24  1  0
 23 48  1  0
 24 25  1  0
 24 30  2  0
 25 29  1  0
 25 26  1  0
 26 27  2  0
 27 28  1  0
 27 49  1  0
 28 29  2  0
 28 50  1  0
 30 31  1  0
 30 51  1  0
 31 32  2  0
 31 52  1  0
 32 33  1  0
M  END
>  <i_m_ct_stereo_status>  (35) 
1

>  <s_m_source_file>  (35) 
/var/tmp/pbs.5102103.sched01/tmpf9vmf5rd/00u30c83p.sdf

>  <i_m_source_file_index>  (35) 
16

>  <i_lp_mmshare_version>  (35) 
48012

>  <i_f3d_flags>  (35) 
0

>  <s_epik_input>  (35) 
bjFbY0hdW2NIXW5uMS1jMltjSF1bY0hdYyhGKVtjSF1jMkMoPU8pTjNbQ0gyXVtDSDJdT1tDSDJdW0NASF0zW0NIMl1jNFtjSF1jKFtjSF1bY0hdYzRGKS1uNW5bY0hdW2NIXW41

>  <s_epik_cmdline>  (35) 
J2VwaWtfcHl0aG9uJywgJy1waHQnLCAnMi4wJywgJy1waCcsICc3LjAnLCAnLXRuJywgJzgnLCAnLW1hJywgJzIwMCcsICctaW1hZScsICc8aW5maWxlLm1hZT4nLCAnLW9tYWUnLCAnPG91dGZpbGUubWFlPic=

>  <r_lp_tautomer_probability>  (35) 
1

>  <r_epik_Ionization_Penalty>  (35) 
8.43867e-12

>  <r_epik_Ionization_Penalty_Charging>  (35) 
0

>  <r_epik_Ionization_Penalty_Neutral>  (35) 
8.43867e-12

>  <r_epik_State_Penalty>  (35) 
-0

>  <r_epik_Charging_Adjusted_Penalty>  (35) 
0

>  <i_epik_Tot_Q>  (35) 
0

>  <i_epik_Tot_abs_Q>  (35) 
0

>  <s_lp_Force_Field>  (35) 
OPLS3e

>  <r_lp_Energy>  (35) 
47.7906

>  <b_lp_Chiralities_Consistent>  (35) 
1

>  <s_lp_Variant>  (35) 
11:0-1

>  <s_i_glide_gridfile>  (35) 
pfpi4k_grid

>  <i_i_glide_lignum>  (35) 
16

>  <i_i_glide_rotatable_bonds>  (35) 
6

>  <r_i_docking_score>  (35) 
-2.50108

>  <r_i_glide_ligand_efficiency>  (35) 
-0.0757903

>  <r_i_glide_ligand_efficiency_sa>  (35) 
-0.2431

>  <r_i_glide_ligand_efficiency_ln>  (35) 
-0.556227

>  <r_i_glide_gscore>  (35) 
-2.50108

>  <r_i_glide_lipo>  (35) 
-0.826446

>  <r_i_glide_hbond>  (35) 
0

>  <r_i_glide_metal>  (35) 
-0

>  <r_i_glide_rewards>  (35) 
-0.481233

>  <r_i_glide_evdw>  (35) 
-33.1807

>  <r_i_glide_ecoul>  (35) 
-0.245732

>  <r_i_glide_erotb>  (35) 
0.590526

>  <r_i_glide_esite>  (35) 
-0.0880301

>  <r_i_glide_emodel>  (35) 
-36.255

>  <r_i_glide_energy>  (35) 
-33.4264

>  <r_i_glide_einternal>  (35) 
4.62324

>  <r_i_glide_intrahb_reward>  (35) 
-0

>  <i_i_glide_confnum>  (35) 
3

>  <i_i_glide_posenum>  (35) 
22

>  <r_i_glide_eff_state_penalty>  (35) 
0

>  <ligand_id>  (35) 
11

>  <original_smiles>  (35) 
O=C(c1cc(F)ccc1-n1nccn1)N1CCOCC1Cc1cc(-n2nccn2)ccc1F

>  <smiles>  (35) 
[H]c1nn(-c2c([H])c([H])c(F)c(C([H])([H])C3([H])N(C(=O)c4c([H])c(F)c([H])c([H])c4-n4nc([H])c([H])n4)C([H])([H])C([H])([H])OC3([H])[H])c2[H])nc1[H]

$$$$
11:0:2
     RDKit          3D

 52 56  0  0  1  0  0  0  0  0999 V2000
    3.0624   -5.1705    3.2805 O   0  0  0  0  0  0  0  0  0  0  0  0
    2.3548   -4.2642    3.7168 C   0  0  0  0  0  0  0  0  0  0  0  0
    1.3479   -4.5916    4.7971 C   0  0  0  0  0  0  0  0  0  0  0  0
    1.3294   -3.8382    5.9912 C   0  0  0  0  0  0  0  0  0  0  0  0
    0.3335   -3.9894    6.9612 C   0  0  0  0  0  0  0  0  0  0  0  0
    0.2612   -3.1363    8.0105 F   0  0  0  0  0  0  0  0  0  0  0  0
   -0.6162   -5.0181    6.8354 C   0  0  0  0  0  0  0  0  0  0  0  0
   -0.5531   -5.8627    5.7106 C   0  0  0  0  0  0  0  0  0  0  0  0
    0.3985   -5.6744    4.6791 C   0  0  0  0  0  0  0  0  0  0  0  0
    0.3653   -6.5965    3.5844 N   0  0  0  0  0  0  0  0  0  0  0  0
    0.5012   -6.2512    2.2760 N   0  0  0  0  0  0  0  0  0  0  0  0
    0.4385   -7.3897    1.6410 C   0  0  0  0  0  0  0  0  0  0  0  0
    0.1695   -8.4262    2.5631 C   0  0  0  0  0  0  0  0  0  0  0  0
    0.1158   -7.9261    3.7717 N   0  0  0  0  0  0  0  0  0  0  0  0
    2.3998   -2.9978    3.2001 N   0  0  0  0  0  0  0  0  0  0  0  0
    3.0809   -2.7139    1.9144 C   0  0  0  0  0  0  0  0  0  0  0  0
    4.1643   -1.6269    2.1027 C   0  0  0  0  0  0  0  0  0  0  0  0
    3.6572   -0.4730    2.7573 O   0  0  0  0  0  0  0  0  0  0  0  0
    3.1103   -0.8029    4.0293 C   0  0  0  0  0  0  0  0  0  0  0  0
    1.9097   -1.7646    3.8627 C   0  0  1  0  0  0  0  0  0  0  0  0
    0.6973   -1.1959    3.1057 C   0  0  0  0  0  0  0  0  0  0  0  0
    0.1528    0.0421    3.7932 C   0  0  0  0  0  0  0  0  0  0  0  0
    0.7436    1.2887    3.5111 C   0  0  0  0  0  0  0  0  0  0  0  0
    0.2699    2.4625    4.1310 C   0  0  0  0  0  0  0  0  0  0  0  0
    0.8606    3.7136    3.8329 N   0  0  0  0  0  0  0  0  0  0  0  0
    0.2449    4.8968    4.0985 N   0  0  0  0  0  0  0  0  0  0  0  0
    1.1012    5.7830    3.6623 C   0  0  0  0  0  0  0  0  0  0  0  0
    2.2438    5.1277    3.1503 C   0  0  0  0  0  0  0  0  0  0  0  0
    2.0961    3.8352    3.2752 N   0  0  0  0  0  0  0  0  0  0  0  0
   -0.8019    2.3650    5.0496 C   0  0  0  0  0  0  0  0  0  0  0  0
   -1.3724    1.1171    5.3603 C   0  0  0  0  0  0  0  0  0  0  0  0
   -0.8916   -0.0521    4.7424 C   0  0  0  0  0  0  0  0  0  0  0  0
   -1.4334   -1.2550    5.0566 F   0  0  0  0  0  0  0  0  0  0  0  0
    2.0971   -3.0750    6.1544 H   0  0  0  0  0  0  0  0  0  0  0  0
   -1.3682   -5.1691    7.6057 H   0  0  0  0  0  0  0  0  0  0  0  0
   -1.2585   -6.6818    5.6398 H   0  0  0  0  0  0  0  0  0  0  0  0
    0.5683   -7.4394    0.5680 H   0  0  0  0  0  0  0  0  0  0  0  0
    0.0150   -9.4839    2.3814 H   0  0  0  0  0  0  0  0  0  0  0  0
    3.5256   -3.5985    1.4370 H   0  0  0  0  0  0  0  0  0  0  0  0
    2.3421   -2.3685    1.1882 H   0  0  0  0  0  0  0  0  0  0  0  0
    4.9907   -2.0264    2.6869 H   0  0  0  0  0  0  0  0  0  0  0  0
    4.5515   -1.3091    1.1372 H   0  0  0  0  0  0  0  0  0  0  0  0
    3.8759   -1.2500    4.6694 H   0  0  0  0  0  0  0  0  0  0  0  0
    2.8019    0.0909    4.5670 H   0  0  0  0  0  0  0  0  0  0  0  0
    1.5266   -1.8836    4.8538 H   0  0  0  0  0  0  0  0  0  0  0  0
    0.9212   -0.9377    2.0554 H   0  0  0  0  0  0  0  0  0  0  0  0
   -0.0604   -1.9866    3.1372 H   0  0  0  0  0  0  0  0  0  0  0  0
    1.5767    1.3320    2.8179 H   0  0  0  0  0  0  0  0  0  0  0  0
    0.8809    6.8398    3.7108 H   0  0  0  0  0  0  0  0  0  0  0  0
    3.1341    5.5448    2.7020 H   0  0  0  0  0  0  0  0  0  0  0  0
   -1.1852    3.2516    5.5291 H   0  0  0  0  0  0  0  0  0  0  0  0
   -2.1917    1.0559    6.0585 H   0  0  0  0  0  0  0  0  0  0  0  0
  1  2  2  0
  2  3  1  0
  2 15  1  0
  3  9  1  0
  3  4  2  0
  4  5  1  0
  4 34  1  0
  5  6  1  0
  5  7  2  0
  7  8  1  0
  7 35  1  0
  8  9  2  0
  8 36  1  0
  9 10  1  0
 10 14  1  0
 10 11  1  0
 11 12  2  0
 12 13  1  0
 12 37  1  0
 13 14  2  0
 13 38  1  0
 15 20  1  0
 15 16  1  0
 16 17  1  0
 16 39  1  0
 16 40  1  0
 17 18  1  0
 17 41  1  0
 17 42  1  0
 18 19  1  0
 19 20  1  0
 19 43  1  0
 19 44  1  0
 20 21  1  0
 20 45  1  1
 21 22  1  0
 21 46  1  0
 21 47  1  0
 22 32  1  0
 22 23  2  0
 23 24  1  0
 23 48  1  0
 24 25  1  0
 24 30  2  0
 25 29  1  0
 25 26  1  0
 26 27  2  0
 27 28  1  0
 27 49  1  0
 28 29  2  0
 28 50  1  0
 30 31  1  0
 30 51  1  0
 31 32  2  0
 31 52  1  0
 32 33  1  0
M  END
>  <i_m_ct_stereo_status>  (36) 
1

>  <s_m_source_file>  (36) 
/var/tmp/pbs.5102103.sched01/tmpf9vmf5rd/00u30c83p.sdf

>  <i_m_source_file_index>  (36) 
16

>  <i_lp_mmshare_version>  (36) 
48012

>  <i_f3d_flags>  (36) 
0

>  <s_epik_input>  (36) 
bjFbY0hdW2NIXW5uMS1jMltjSF1bY0hdYyhGKVtjSF1jMkMoPU8pTjNbQ0gyXVtDSDJdT1tDSDJdW0NASF0zW0NIMl1jNFtjSF1jKFtjSF1bY0hdYzRGKS1uNW5bY0hdW2NIXW41

>  <s_epik_cmdline>  (36) 
J2VwaWtfcHl0aG9uJywgJy1waHQnLCAnMi4wJywgJy1waCcsICc3LjAnLCAnLXRuJywgJzgnLCAnLW1hJywgJzIwMCcsICctaW1hZScsICc8aW5maWxlLm1hZT4nLCAnLW9tYWUnLCAnPG91dGZpbGUubWFlPic=

>  <r_lp_tautomer_probability>  (36) 
1

>  <r_epik_Ionization_Penalty>  (36) 
8.43867e-12

>  <r_epik_Ionization_Penalty_Charging>  (36) 
0

>  <r_epik_Ionization_Penalty_Neutral>  (36) 
8.43867e-12

>  <r_epik_State_Penalty>  (36) 
-0

>  <r_epik_Charging_Adjusted_Penalty>  (36) 
0

>  <i_epik_Tot_Q>  (36) 
0

>  <i_epik_Tot_abs_Q>  (36) 
0

>  <s_lp_Force_Field>  (36) 
OPLS3e

>  <r_lp_Energy>  (36) 
47.7906

>  <b_lp_Chiralities_Consistent>  (36) 
1

>  <s_lp_Variant>  (36) 
11:0-1

>  <s_i_glide_gridfile>  (36) 
pfpi4k_grid

>  <i_i_glide_lignum>  (36) 
16

>  <i_i_glide_rotatable_bonds>  (36) 
6

>  <r_i_docking_score>  (36) 
-2.15872

>  <r_i_glide_ligand_efficiency>  (36) 
-0.0654158

>  <r_i_glide_ligand_efficiency_sa>  (36) 
-0.209824

>  <r_i_glide_ligand_efficiency_ln>  (36) 
-0.480089

>  <r_i_glide_gscore>  (36) 
-2.15872

>  <r_i_glide_lipo>  (36) 
-0.043636

>  <r_i_glide_hbond>  (36) 
-0.106961

>  <r_i_glide_metal>  (36) 
-0

>  <r_i_glide_rewards>  (36) 
-0.331431

>  <r_i_glide_evdw>  (36) 
-29.7753

>  <r_i_glide_ecoul>  (36) 
-3.93992

>  <r_i_glide_erotb>  (36) 
0.590526

>  <r_i_glide_esite>  (36) 
-0.187468

>  <r_i_glide_emodel>  (36) 
-35.6712

>  <r_i_glide_energy>  (36) 
-33.7152

>  <r_i_glide_einternal>  (36) 
3.14693

>  <r_i_glide_intrahb_reward>  (36) 
-0

>  <i_i_glide_confnum>  (36) 
2

>  <i_i_glide_posenum>  (36) 
2

>  <r_i_glide_eff_state_penalty>  (36) 
0

>  <ligand_id>  (36) 
11

>  <original_smiles>  (36) 
O=C(c1cc(F)ccc1-n1nccn1)N1CCOCC1Cc1cc(-n2nccn2)ccc1F

>  <smiles>  (36) 
[H]c1nn(-c2c([H])c([H])c(F)c(C([H])([H])C3([H])N(C(=O)c4c([H])c(F)c([H])c([H])c4-n4nc([H])c([H])n4)C([H])([H])C([H])([H])OC3([H])[H])c2[H])nc1[H]

$$$$
12:0:0
     RDKit          3D

 24 24  0  0  1  0  0  0  0  0999 V2000
    2.9582    0.2650   -5.5470 O   0  0  0  0  0  0  0  0  0  0  0  0
    3.2268    0.2394   -4.1707 C   0  0  0  0  0  0  0  0  0  0  0  0
    4.2165   -0.9158   -3.8570 C   0  0  2  0  0  0  0  0  0  0  0  0
    3.7071   -2.2000   -4.2824 O   0  0  0  0  0  0  0  0  0  0  0  0
    2.5724   -2.6591   -3.6180 C   0  0  1  0  0  0  0  0  0  0  0  0
    2.2205   -3.8694   -4.2058 O   0  0  0  0  0  0  0  0  0  0  0  0
    2.8506   -2.8006   -2.1008 C   0  0  1  0  0  0  0  0  0  0  0  0
    3.8054   -3.8399   -1.9177 O   0  0  0  0  0  0  0  0  0  0  0  0
    3.4403   -1.4990   -1.5277 C   0  0  1  0  0  0  0  0  0  0  0  0
    3.6954   -1.5575   -0.1161 O   0  0  0  0  0  0  0  0  0  0  0  0
    4.6305   -1.0006   -2.3604 C   0  0  1  0  0  0  0  0  0  0  0  0
    5.7637   -1.8595   -2.2027 O   0  0  0  0  0  0  0  0  0  0  0  0
    2.0795    0.6582   -5.6819 H   0  0  0  0  0  0  0  0  0  0  0  0
    3.7226    1.1850   -3.9226 H   0  0  0  0  0  0  0  0  0  0  0  0
    2.2872    0.2037   -3.6259 H   0  0  0  0  0  0  0  0  0  0  0  0
    5.0260   -0.7392   -4.5479 H   0  0  0  0  0  0  0  0  0  0  0  0
    1.7902   -1.9320   -3.8794 H   0  0  0  0  0  0  0  0  0  0  0  0
    1.2998   -4.1008   -3.9560 H   0  0  0  0  0  0  0  0  0  0  0  0
    1.9198   -3.0730   -1.6313 H   0  0  0  0  0  0  0  0  0  0  0  0
    3.4454   -4.6222   -2.3413 H   0  0  0  0  0  0  0  0  0  0  0  0
    2.6661   -0.7486   -1.6527 H   0  0  0  0  0  0  0  0  0  0  0  0
    2.8619   -1.7673    0.3254 H   0  0  0  0  0  0  0  0  0  0  0  0
    4.9228   -0.0118   -2.0111 H   0  0  0  0  0  0  0  0  0  0  0  0
    5.4350   -2.7813   -2.2675 H   0  0  0  0  0  0  0  0  0  0  0  0
  1  2  1  0
  1 13  1  0
  2  3  1  0
  2 14  1  0
  2 15  1  0
  3 11  1  0
  3  4  1  0
  3 16  1  6
  4  5  1  0
  5  6  1  0
  5  7  1  0
  5 17  1  1
  6 18  1  0
  7  8  1  0
  7  9  1  0
  7 19  1  1
  8 20  1  0
  9 10  1  0
  9 11  1  0
  9 21  1  1
 10 22  1  0
 11 12  1  0
 11 23  1  1
 12 24  1  0
M  END
>  <i_m_ct_stereo_status>  (37) 
1

>  <s_m_source_file>  (37) 
/var/tmp/pbs.5102103.sched01/tmpf9vmf5rd/00u30c83p.sdf

>  <i_m_source_file_index>  (37) 
17

>  <i_lp_mmshare_version>  (37) 
48012

>  <i_f3d_flags>  (37) 
0

>  <s_epik_input>  (37) 
W09IXVtDSDJdW0NAQEhdMU9bQ0BASF0oW09IXSlbQ0BASF0oW09IXSlbQ0BASF0oW09IXSlbQ0BIXTFbT0hd

>  <s_epik_cmdline>  (37) 
J2VwaWtfcHl0aG9uJywgJy1waHQnLCAnMi4wJywgJy1waCcsICc3LjAnLCAnLXRuJywgJzgnLCAnLW1hJywgJzIwMCcsICctaW1hZScsICc8aW5maWxlLm1hZT4nLCAnLW9tYWUnLCAnPG91dGZpbGUubWFlPic=

>  <r_lp_tautomer_probability>  (37) 
1

>  <r_epik_Ionization_Penalty>  (37) 
2.91483e-06

>  <r_epik_Ionization_Penalty_Charging>  (37) 
0

>  <r_epik_Ionization_Penalty_Neutral>  (37) 
2.91483e-06

>  <r_epik_State_Penalty>  (37) 
-0

>  <r_epik_Charging_Adjusted_Penalty>  (37) 
0

>  <i_epik_Tot_Q>  (37) 
0

>  <i_epik_Tot_abs_Q>  (37) 
0

>  <s_epik_Chemistry_Notes>  (37) 
This compound contains an acetal/aminal-like group ( X-CH(R)-Y where X, Y are N, S, or O) that may be acid/base labile, releasing an aldehyde.

>  <s_lp_Force_Field>  (37) 
OPLS3e

>  <r_lp_Energy>  (37) 
14.5669

>  <b_lp_Chiralities_Consistent>  (37) 
1

>  <s_lp_Variant>  (37) 
12:0-1

>  <s_i_glide_gridfile>  (37) 
pfpi4k_grid

>  <i_i_glide_lignum>  (37) 
17

>  <i_i_glide_rotatable_bonds>  (37) 
6

>  <r_i_docking_score>  (37) 
-6.22987

>  <r_i_glide_ligand_efficiency>  (37) 
-0.519156

>  <r_i_glide_ligand_efficiency_sa>  (37) 
-1.18857

>  <r_i_glide_ligand_efficiency_ln>  (37) 
-1.78767

>  <r_i_glide_gscore>  (37) 
-6.22987

>  <r_i_glide_lipo>  (37) 
-0.175772

>  <r_i_glide_hbond>  (37) 
-0.288

>  <r_i_glide_metal>  (37) 
-0

>  <r_i_glide_rewards>  (37) 
-3.05084

>  <r_i_glide_evdw>  (37) 
-6.12146

>  <r_i_glide_ecoul>  (37) 
-18.3265

>  <r_i_glide_erotb>  (37) 
0.339794

>  <r_i_glide_esite>  (37) 
0

>  <r_i_glide_emodel>  (37) 
-37.4237

>  <r_i_glide_energy>  (37) 
-24.448

>  <r_i_glide_einternal>  (37) 
6.39156

>  <r_i_glide_intrahb_reward>  (37) 
-0.5

>  <i_i_glide_confnum>  (37) 
6

>  <i_i_glide_posenum>  (37) 
36

>  <r_i_glide_eff_state_penalty>  (37) 
0

>  <ligand_id>  (37) 
12

>  <original_smiles>  (37) 
OCC1OC(O)C(O)C(O)C1O

>  <smiles>  (37) 
[H]OC([H])([H])C1([H])OC([H])(O[H])C([H])(O[H])C([H])(O[H])C1([H])O[H]

$$$$
12:0:1
     RDKit          3D

 24 24  0  0  1  0  0  0  0  0999 V2000
    2.8182    0.5271   -4.6058 O   0  0  0  0  0  0  0  0  0  0  0  0
    3.7752    0.1052   -3.6348 C   0  0  0  0  0  0  0  0  0  0  0  0
    3.2364   -0.9892   -2.6457 C   0  0  2  0  0  0  0  0  0  0  0  0
    4.0646   -1.0506   -1.4581 O   0  0  0  0  0  0  0  0  0  0  0  0
    5.3954   -1.4957   -1.6204 C   0  0  1  0  0  0  0  0  0  0  0  0
    6.0555   -1.4070   -0.3604 O   0  0  0  0  0  0  0  0  0  0  0  0
    5.4340   -2.9325   -2.2117 C   0  0  1  0  0  0  0  0  0  0  0  0
    4.9787   -3.8445   -1.2298 O   0  0  0  0  0  0  0  0  0  0  0  0
    4.5339   -2.9808   -3.4646 C   0  0  1  0  0  0  0  0  0  0  0  0
    4.4904   -4.2704   -4.0470 O   0  0  0  0  0  0  0  0  0  0  0  0
    3.1205   -2.4199   -3.2182 C   0  0  1  0  0  0  0  0  0  0  0  0
    2.3650   -3.2613   -2.3347 O   0  0  0  0  0  0  0  0  0  0  0  0
    2.1987    1.1209   -4.1321 H   0  0  0  0  0  0  0  0  0  0  0  0
    4.6391   -0.2390   -4.1926 H   0  0  0  0  0  0  0  0  0  0  0  0
    4.1058    0.9915   -3.0838 H   0  0  0  0  0  0  0  0  0  0  0  0
    2.2611   -0.6723   -2.3235 H   0  0  0  0  0  0  0  0  0  0  0  0
    5.8301   -0.7653   -2.3081 H   0  0  0  0  0  0  0  0  0  0  0  0
    5.8985   -0.5218   -0.0014 H   0  0  0  0  0  0  0  0  0  0  0  0
    6.4692   -3.1737   -2.4625 H   0  0  0  0  0  0  0  0  0  0  0  0
    4.0508   -3.6159   -1.0622 H   0  0  0  0  0  0  0  0  0  0  0  0
    5.0126   -2.3460   -4.1977 H   0  0  0  0  0  0  0  0  0  0  0  0
    4.2184   -4.9165   -3.3766 H   0  0  0  0  0  0  0  0  0  0  0  0
    2.5877   -2.3669   -4.1719 H   0  0  0  0  0  0  0  0  0  0  0  0
    2.2505   -4.1387   -2.7376 H   0  0  0  0  0  0  0  0  0  0  0  0
  1  2  1  0
  1 13  1  0
  2  3  1  0
  2 14  1  0
  2 15  1  0
  3 11  1  0
  3  4  1  0
  3 16  1  1
  4  5  1  0
  5  6  1  0
  5  7  1  0
  5 17  1  6
  6 18  1  0
  7  8  1  0
  7  9  1  0
  7 19  1  6
  8 20  1  0
  9 10  1  0
  9 11  1  0
  9 21  1  6
 10 22  1  0
 11 12  1  0
 11 23  1  6
 12 24  1  0
M  END
>  <i_m_ct_stereo_status>  (38) 
1

>  <s_m_source_file>  (38) 
/var/tmp/pbs.5102103.sched01/tmpf9vmf5rd/00u30c83p.sdf

>  <i_m_source_file_index>  (38) 
17

>  <i_lp_mmshare_version>  (38) 
48012

>  <i_f3d_flags>  (38) 
0

>  <s_epik_input>  (38) 
W09IXVtDSDJdW0NAQEhdMU9bQ0BASF0oW09IXSlbQ0BASF0oW09IXSlbQ0BASF0oW09IXSlbQ0BIXTFbT0hd

>  <s_epik_cmdline>  (38) 
J2VwaWtfcHl0aG9uJywgJy1waHQnLCAnMi4wJywgJy1waCcsICc3LjAnLCAnLXRuJywgJzgnLCAnLW1hJywgJzIwMCcsICctaW1hZScsICc8aW5maWxlLm1hZT4nLCAnLW9tYWUnLCAnPG91dGZpbGUubWFlPic=

>  <r_lp_tautomer_probability>  (38) 
1

>  <r_epik_Ionization_Penalty>  (38) 
2.91483e-06

>  <r_epik_Ionization_Penalty_Charging>  (38) 
0

>  <r_epik_Ionization_Penalty_Neutral>  (38) 
2.91483e-06

>  <r_epik_State_Penalty>  (38) 
-0

>  <r_epik_Charging_Adjusted_Penalty>  (38) 
0

>  <i_epik_Tot_Q>  (38) 
0

>  <i_epik_Tot_abs_Q>  (38) 
0

>  <s_epik_Chemistry_Notes>  (38) 
This compound contains an acetal/aminal-like group ( X-CH(R)-Y where X, Y are N, S, or O) that may be acid/base labile, releasing an aldehyde.

>  <s_lp_Force_Field>  (38) 
OPLS3e

>  <r_lp_Energy>  (38) 
14.5669

>  <b_lp_Chiralities_Consistent>  (38) 
1

>  <s_lp_Variant>  (38) 
12:0-1

>  <s_i_glide_gridfile>  (38) 
pfpi4k_grid

>  <i_i_glide_lignum>  (38) 
17

>  <i_i_glide_rotatable_bonds>  (38) 
6

>  <r_i_docking_score>  (38) 
-5.1721

>  <r_i_glide_ligand_efficiency>  (38) 
-0.431009

>  <r_i_glide_ligand_efficiency_sa>  (38) 
-0.986764

>  <r_i_glide_ligand_efficiency_ln>  (38) 
-1.48414

>  <r_i_glide_gscore>  (38) 
-5.1721

>  <r_i_glide_lipo>  (38) 
-0.419798

>  <r_i_glide_hbond>  (38) 
-0.248292

>  <r_i_glide_metal>  (38) 
-0

>  <r_i_glide_rewards>  (38) 
-2.68076

>  <r_i_glide_evdw>  (38) 
-17.1955

>  <r_i_glide_ecoul>  (38) 
-9.25558

>  <r_i_glide_erotb>  (38) 
0.48542

>  <r_i_glide_esite>  (38) 
-0.0605695

>  <r_i_glide_emodel>  (38) 
-40.2184

>  <r_i_glide_energy>  (38) 
-26.451

>  <r_i_glide_einternal>  (38) 
1.22207

>  <r_i_glide_intrahb_reward>  (38) 
-0.5

>  <i_i_glide_confnum>  (38) 
1

>  <i_i_glide_posenum>  (38) 
29

>  <r_i_glide_eff_state_penalty>  (38) 
0

>  <ligand_id>  (38) 
12

>  <original_smiles>  (38) 
OCC1OC(O)C(O)C(O)C1O

>  <smiles>  (38) 
[H]OC([H])([H])C1([H])OC([H])(O[H])C([H])(O[H])C([H])(O[H])C1([H])O[H]

$$$$
12:0:2
     RDKit          3D

 24 24  0  0  1  0  0  0  0  0999 V2000
    2.8811    0.5494   -4.6427 O   0  0  0  0  0  0  0  0  0  0  0  0
    3.8230    0.1504   -3.6544 C   0  0  0  0  0  0  0  0  0  0  0  0
    3.2261   -0.8835   -2.6509 C   0  0  2  0  0  0  0  0  0  0  0  0
    4.0393   -0.9999   -1.4619 O   0  0  0  0  0  0  0  0  0  0  0  0
    5.3394   -1.5175   -1.6194 C   0  0  1  0  0  0  0  0  0  0  0  0
    5.9949   -1.4546   -0.3583 O   0  0  0  0  0  0  0  0  0  0  0  0
    5.2899   -2.9576   -2.1988 C   0  0  1  0  0  0  0  0  0  0  0  0
    4.7597   -3.8249   -1.2058 O   0  0  0  0  0  0  0  0  0  0  0  0
    4.3743   -2.9678   -3.4407 C   0  0  1  0  0  0  0  0  0  0  0  0
    4.2487   -4.2515   -4.0060 O   0  0  0  0  0  0  0  0  0  0  0  0
    2.9891   -2.2984   -3.1961 C   0  0  1  0  0  0  0  0  0  0  0  0
    2.1825   -3.0213   -2.2640 O   0  0  0  0  0  0  0  0  0  0  0  0
    2.2910    1.1904   -4.2016 H   0  0  0  0  0  0  0  0  0  0  0  0
    4.6788   -0.2397   -4.1914 H   0  0  0  0  0  0  0  0  0  0  0  0
    4.1657    1.0450   -3.1243 H   0  0  0  0  0  0  0  0  0  0  0  0
    2.2649   -0.4889   -2.3312 H   0  0  0  0  0  0  0  0  0  0  0  0
    5.8200   -0.8208   -2.3020 H   0  0  0  0  0  0  0  0  0  0  0  0
    5.8958   -0.5602   -0.0104 H   0  0  0  0  0  0  0  0  0  0  0  0
    6.2994   -3.2701   -2.4476 H   0  0  0  0  0  0  0  0  0  0  0  0
    3.8203   -3.5794   -1.1154 H   0  0  0  0  0  0  0  0  0  0  0  0
    4.8769   -2.3877   -4.1971 H   0  0  0  0  0  0  0  0  0  0  0  0
    3.8737   -4.8681   -3.3472 H   0  0  0  0  0  0  0  0  0  0  0  0
    2.4460   -2.2314   -4.1428 H   0  0  0  0  0  0  0  0  0  0  0  0
    1.4249   -2.4518   -2.0177 H   0  0  0  0  0  0  0  0  0  0  0  0
  1  2  1  0
  1 13  1  0
  2  3  1  0
  2 14  1  0
  2 15  1  0
  3 11  1  0
  3  4  1  0
  3 16  1  1
  4  5  1  0
  5  6  1  0
  5  7  1  0
  5 17  1  6
  6 18  1  0
  7  8  1  0
  7  9  1  0
  7 19  1  6
  8 20  1  0
  9 10  1  0
  9 11  1  0
  9 21  1  6
 10 22  1  0
 11 12  1  0
 11 23  1  6
 12 24  1  0
M  END
>  <i_m_ct_stereo_status>  (39) 
1

>  <s_m_source_file>  (39) 
/var/tmp/pbs.5102103.sched01/tmpf9vmf5rd/00u30c83p.sdf

>  <i_m_source_file_index>  (39) 
17

>  <i_lp_mmshare_version>  (39) 
48012

>  <i_f3d_flags>  (39) 
0

>  <s_epik_input>  (39) 
W09IXVtDSDJdW0NAQEhdMU9bQ0BASF0oW09IXSlbQ0BASF0oW09IXSlbQ0BASF0oW09IXSlbQ0BIXTFbT0hd

>  <s_epik_cmdline>  (39) 
J2VwaWtfcHl0aG9uJywgJy1waHQnLCAnMi4wJywgJy1waCcsICc3LjAnLCAnLXRuJywgJzgnLCAnLW1hJywgJzIwMCcsICctaW1hZScsICc8aW5maWxlLm1hZT4nLCAnLW9tYWUnLCAnPG91dGZpbGUubWFlPic=

>  <r_lp_tautomer_probability>  (39) 
1

>  <r_epik_Ionization_Penalty>  (39) 
2.91483e-06

>  <r_epik_Ionization_Penalty_Charging>  (39) 
0

>  <r_epik_Ionization_Penalty_Neutral>  (39) 
2.91483e-06

>  <r_epik_State_Penalty>  (39) 
-0

>  <r_epik_Charging_Adjusted_Penalty>  (39) 
0

>  <i_epik_Tot_Q>  (39) 
0

>  <i_epik_Tot_abs_Q>  (39) 
0

>  <s_epik_Chemistry_Notes>  (39) 
This compound contains an acetal/aminal-like group ( X-CH(R)-Y where X, Y are N, S, or O) that may be acid/base labile, releasing an aldehyde.

>  <s_lp_Force_Field>  (39) 
OPLS3e

>  <r_lp_Energy>  (39) 
14.5669

>  <b_lp_Chiralities_Consistent>  (39) 
1

>  <s_lp_Variant>  (39) 
12:0-1

>  <s_i_glide_gridfile>  (39) 
pfpi4k_grid

>  <i_i_glide_lignum>  (39) 
17

>  <i_i_glide_rotatable_bonds>  (39) 
6

>  <r_i_docking_score>  (39) 
-5.05884

>  <r_i_glide_ligand_efficiency>  (39) 
-0.42157

>  <r_i_glide_ligand_efficiency_sa>  (39) 
-0.965154

>  <r_i_glide_ligand_efficiency_ln>  (39) 
-1.45164

>  <r_i_glide_gscore>  (39) 
-5.05884

>  <r_i_glide_lipo>  (39) 
-0.389388

>  <r_i_glide_hbond>  (39) 
-0.259327

>  <r_i_glide_metal>  (39) 
-0

>  <r_i_glide_rewards>  (39) 
-2.68076

>  <r_i_glide_evdw>  (39) 
-16.5993

>  <r_i_glide_ecoul>  (39) 
-8.85509

>  <r_i_glide_erotb>  (39) 
0.48542

>  <r_i_glide_esite>  (39) 
-0.0565562

>  <r_i_glide_emodel>  (39) 
-38.8258

>  <r_i_glide_energy>  (39) 
-25.4544

>  <r_i_glide_einternal>  (39) 
1.36726

>  <r_i_glide_intrahb_reward>  (39) 
-0.5

>  <i_i_glide_confnum>  (39) 
1

>  <i_i_glide_posenum>  (39) 
25

>  <r_i_glide_eff_state_penalty>  (39) 
0

>  <ligand_id>  (39) 
12

>  <original_smiles>  (39) 
OCC1OC(O)C(O)C(O)C1O

>  <smiles>  (39) 
[H]OC([H])([H])C1([H])OC([H])(O[H])C([H])(O[H])C([H])(O[H])C1([H])O[H]

$$$$
13:0:0
     RDKit          3D

 24 26  0  0  1  0  0  0  0  0999 V2000
    3.3226   -7.4807    1.6892 C   0  0  0  0  0  0  0  0  0  0  0  0
    2.0154   -7.0073    1.4202 C   0  0  0  0  0  0  0  0  0  0  0  0
    1.7997   -5.7929    0.8863 N   0  0  0  0  0  0  0  0  0  0  0  0
    2.8332   -5.0075    0.6115 C   0  0  0  0  0  0  0  0  0  0  0  0
    4.1856   -5.4232    0.7012 C   0  0  0  0  0  0  0  0  0  0  0  0
    5.3015   -4.6075    0.3206 N   0  0  0  0  0  0  0  0  0  0  0  0
    6.4963   -4.6622    0.9946 N   0  0  0  0  0  0  0  0  0  0  0  0
    7.3239   -3.8753    0.3676 N   0  0  0  0  0  0  0  0  0  0  0  0
    6.7231   -3.2902   -0.7538 N   0  0  0  0  0  0  0  0  0  0  0  0
    5.4760   -3.7548   -0.7375 C   0  0  0  0  0  0  0  0  0  0  0  0
    4.4962   -3.3178   -1.7748 C   0  0  0  0  0  0  0  0  0  0  0  0
    4.8837   -2.8092   -3.0438 C   0  0  0  0  0  0  0  0  0  0  0  0
    3.9529   -2.4073   -3.9707 N   0  0  0  0  0  0  0  0  0  0  0  0
    2.6523   -2.5387   -3.6329 C   0  0  0  0  0  0  0  0  0  0  0  0
    2.2703   -3.0395   -2.4036 C   0  0  0  0  0  0  0  0  0  0  0  0
    3.2007   -3.4056   -1.5179 N   0  0  0  0  0  0  0  0  0  0  0  0
    4.4193   -6.6911    1.2943 C   0  0  0  0  0  0  0  0  0  0  0  0
    3.4398   -8.4400    2.1853 H   0  0  0  0  0  0  0  0  0  0  0  0
    1.1133   -7.5691    1.6884 H   0  0  0  0  0  0  0  0  0  0  0  0
    2.5612   -4.0076    0.3906 H   0  0  0  0  0  0  0  0  0  0  0  0
    5.9156   -2.7111   -3.3308 H   0  0  0  0  0  0  0  0  0  0  0  0
    1.9043   -2.2191   -4.3242 H   0  0  0  0  0  0  0  0  0  0  0  0
    1.2587   -3.1398   -2.1065 H   0  0  0  0  0  0  0  0  0  0  0  0
    5.4335   -7.0500    1.5278 H   0  0  0  0  0  0  0  0  0  0  0  0
  1 17  2  0
  1  2  1  0
  1 18  1  0
  2  3  2  0
  2 19  1  0
  3  4  1  0
  4  5  2  0
  4 20  1  0
  5  6  1  0
  5 17  1  0
  6 10  1  0
  6  7  1  0
  7  8  2  0
  8  9  1  0
  9 10  2  0
 10 11  1  0
 11 16  1  0
 11 12  2  0
 12 13  1  0
 12 21  1  0
 13 14  2  0
 14 15  1  0
 14 22  1  0
 15 16  2  0
 15 23  1  0
 17 24  1  0
M  END
>  <i_m_ct_stereo_status>  (40) 
1

>  <s_m_source_file>  (40) 
/var/tmp/pbs.5102103.sched01/tmpf9vmf5rd/00u30c83p.sdf

>  <i_m_source_file_index>  (40) 
18

>  <i_lp_mmshare_version>  (40) 
48012

>  <i_f3d_flags>  (40) 
0

>  <s_epik_input>  (40) 
W2NIXTFbY0hdW2NIXW5bY0hdYzEtbjJubm5jMi1jM1tjSF1uW2NIXVtjSF1uMw==

>  <s_epik_cmdline>  (40) 
J2VwaWtfcHl0aG9uJywgJy1waHQnLCAnMi4wJywgJy1waCcsICc3LjAnLCAnLXRuJywgJzgnLCAnLW1hJywgJzIwMCcsICctaW1hZScsICc8aW5maWxlLm1hZT4nLCAnLW9tYWUnLCAnPG91dGZpbGUubWFlPic=

>  <r_lp_tautomer_probability>  (40) 
1

>  <r_epik_Ionization_Penalty>  (40) 
1.10348e-05

>  <r_epik_Ionization_Penalty_Charging>  (40) 
0

>  <r_epik_Ionization_Penalty_Neutral>  (40) 
1.10348e-05

>  <r_epik_State_Penalty>  (40) 
-0

>  <r_epik_Charging_Adjusted_Penalty>  (40) 
0

>  <i_epik_Tot_Q>  (40) 
0

>  <i_epik_Tot_abs_Q>  (40) 
0

>  <s_lp_Force_Field>  (40) 
OPLS3e

>  <r_lp_Energy>  (40) 
33.599

>  <b_lp_Chiralities_Consistent>  (40) 
1

>  <s_lp_Variant>  (40) 
13:0-1

>  <s_i_glide_gridfile>  (40) 
pfpi4k_grid

>  <i_i_glide_lignum>  (40) 
18

>  <i_i_glide_rotatable_bonds>  (40) 
2

>  <r_i_docking_score>  (40) 
-4.35821

>  <r_i_glide_ligand_efficiency>  (40) 
-0.256365

>  <r_i_glide_ligand_efficiency_sa>  (40) 
-0.659188

>  <r_i_glide_ligand_efficiency_ln>  (40) 
-1.13696

>  <r_i_glide_gscore>  (40) 
-4.35821

>  <r_i_glide_lipo>  (40) 
-0.650773

>  <r_i_glide_hbond>  (40) 
-0.279097

>  <r_i_glide_metal>  (40) 
-0

>  <r_i_glide_rewards>  (40) 
-2.04537

>  <r_i_glide_evdw>  (40) 
-25.1132

>  <r_i_glide_ecoul>  (40) 
-5.30893

>  <r_i_glide_erotb>  (40) 
0.669031

>  <r_i_glide_esite>  (40) 
0

>  <r_i_glide_emodel>  (40) 
-35.4265

>  <r_i_glide_energy>  (40) 
-30.4221

>  <r_i_glide_einternal>  (40) 
1.4749

>  <r_i_glide_intrahb_reward>  (40) 
-0

>  <i_i_glide_confnum>  (40) 
6

>  <i_i_glide_posenum>  (40) 
18

>  <r_i_glide_eff_state_penalty>  (40) 
0

>  <ligand_id>  (40) 
13

>  <original_smiles>  (40) 
c1cncc(-n2nnnc2-c2cnccn2)c1

>  <smiles>  (40) 
[H]c1nc([H])c(-c2nnnn2-c2c([H])nc([H])c([H])c2[H])nc1[H]

$$$$
13:0:1
     RDKit          3D

 24 26  0  0  1  0  0  0  0  0999 V2000
    4.0343   -6.7189    1.0131 C   0  0  0  0  0  0  0  0  0  0  0  0
    2.7218   -6.2267    0.8887 C   0  0  0  0  0  0  0  0  0  0  0  0
    2.4425   -4.9798    0.4655 N   0  0  0  0  0  0  0  0  0  0  0  0
    3.4743   -4.1773    0.1203 C   0  0  0  0  0  0  0  0  0  0  0  0
    4.8286   -4.5797    0.1871 C   0  0  0  0  0  0  0  0  0  0  0  0
    5.9115   -3.7207   -0.1367 N   0  0  0  0  0  0  0  0  0  0  0  0
    7.1154   -3.7624    0.4835 N   0  0  0  0  0  0  0  0  0  0  0  0
    7.8559   -2.8646   -0.0850 N   0  0  0  0  0  0  0  0  0  0  0  0
    7.1726   -2.2510   -1.1131 N   0  0  0  0  0  0  0  0  0  0  0  0
    5.9536   -2.7841   -1.1084 C   0  0  0  0  0  0  0  0  0  0  0  0
    4.9409   -2.3629   -2.0788 C   0  0  0  0  0  0  0  0  0  0  0  0
    4.1917   -3.2860   -2.8352 C   0  0  0  0  0  0  0  0  0  0  0  0
    3.2585   -2.8940   -3.7323 N   0  0  0  0  0  0  0  0  0  0  0  0
    3.0617   -1.5658   -3.8558 C   0  0  0  0  0  0  0  0  0  0  0  0
    3.8357   -0.6367   -3.1335 C   0  0  0  0  0  0  0  0  0  0  0  0
    4.7812   -1.0276   -2.2572 N   0  0  0  0  0  0  0  0  0  0  0  0
    5.1011   -5.8819    0.6619 C   0  0  0  0  0  0  0  0  0  0  0  0
    4.2142   -7.7219    1.3725 H   0  0  0  0  0  0  0  0  0  0  0  0
    1.8774   -6.8527    1.1314 H   0  0  0  0  0  0  0  0  0  0  0  0
    3.1888   -3.1824   -0.1912 H   0  0  0  0  0  0  0  0  0  0  0  0
    4.3335   -4.3445   -2.7128 H   0  0  0  0  0  0  0  0  0  0  0  0
    2.3021   -1.2324   -4.5413 H   0  0  0  0  0  0  0  0  0  0  0  0
    3.6993    0.4229   -3.2661 H   0  0  0  0  0  0  0  0  0  0  0  0
    6.1191   -6.2291    0.7689 H   0  0  0  0  0  0  0  0  0  0  0  0
  1 17  2  0
  1  2  1  0
  1 18  1  0
  2  3  2  0
  2 19  1  0
  3  4  1  0
  4  5  2  0
  4 20  1  0
  5  6  1  0
  5 17  1  0
  6 10  1  0
  6  7  1  0
  7  8  2  0
  8  9  1  0
  9 10  2  0
 10 11  1  0
 11 16  1  0
 11 12  2  0
 12 13  1  0
 12 21  1  0
 13 14  2  0
 14 15  1  0
 14 22  1  0
 15 16  2  0
 15 23  1  0
 17 24  1  0
M  END
>  <i_m_ct_stereo_status>  (41) 
1

>  <s_m_source_file>  (41) 
/var/tmp/pbs.5102103.sched01/tmpf9vmf5rd/00u30c83p.sdf

>  <i_m_source_file_index>  (41) 
18

>  <i_lp_mmshare_version>  (41) 
48012

>  <i_f3d_flags>  (41) 
0

>  <s_epik_input>  (41) 
W2NIXTFbY0hdW2NIXW5bY0hdYzEtbjJubm5jMi1jM1tjSF1uW2NIXVtjSF1uMw==

>  <s_epik_cmdline>  (41) 
J2VwaWtfcHl0aG9uJywgJy1waHQnLCAnMi4wJywgJy1waCcsICc3LjAnLCAnLXRuJywgJzgnLCAnLW1hJywgJzIwMCcsICctaW1hZScsICc8aW5maWxlLm1hZT4nLCAnLW9tYWUnLCAnPG91dGZpbGUubWFlPic=

>  <r_lp_tautomer_probability>  (41) 
1

>  <r_epik_Ionization_Penalty>  (41) 
1.10348e-05

>  <r_epik_Ionization_Penalty_Charging>  (41) 
0

>  <r_epik_Ionization_Penalty_Neutral>  (41) 
1.10348e-05

>  <r_epik_State_Penalty>  (41) 
-0

>  <r_epik_Charging_Adjusted_Penalty>  (41) 
0

>  <i_epik_Tot_Q>  (41) 
0

>  <i_epik_Tot_abs_Q>  (41) 
0

>  <s_lp_Force_Field>  (41) 
OPLS3e

>  <r_lp_Energy>  (41) 
33.599

>  <b_lp_Chiralities_Consistent>  (41) 
1

>  <s_lp_Variant>  (41) 
13:0-1

>  <s_i_glide_gridfile>  (41) 
pfpi4k_grid

>  <i_i_glide_lignum>  (41) 
18

>  <i_i_glide_rotatable_bonds>  (41) 
2

>  <r_i_docking_score>  (41) 
-3.87254

>  <r_i_glide_ligand_efficiency>  (41) 
-0.227797

>  <r_i_glide_ligand_efficiency_sa>  (41) 
-0.585729

>  <r_i_glide_ligand_efficiency_ln>  (41) 
-1.01026

>  <r_i_glide_gscore>  (41) 
-3.87254

>  <r_i_glide_lipo>  (41) 
-0.576369

>  <r_i_glide_hbond>  (41) 
0

>  <r_i_glide_metal>  (41) 
-0

>  <r_i_glide_rewards>  (41) 
-1.963

>  <r_i_glide_evdw>  (41) 
-26.9434

>  <r_i_glide_ecoul>  (41) 
-3.8521

>  <r_i_glide_erotb>  (41) 
0.669031

>  <r_i_glide_esite>  (41) 
-0.0772201

>  <r_i_glide_emodel>  (41) 
-36.5117

>  <r_i_glide_energy>  (41) 
-30.7955

>  <r_i_glide_einternal>  (41) 
4.4079

>  <r_i_glide_intrahb_reward>  (41) 
-0

>  <i_i_glide_confnum>  (41) 
6

>  <i_i_glide_posenum>  (41) 
29

>  <r_i_glide_eff_state_penalty>  (41) 
0

>  <ligand_id>  (41) 
13

>  <original_smiles>  (41) 
c1cncc(-n2nnnc2-c2cnccn2)c1

>  <smiles>  (41) 
[H]c1nc([H])c(-c2nnnn2-c2c([H])nc([H])c([H])c2[H])nc1[H]

$$$$
13:0:2
     RDKit          3D

 24 26  0  0  1  0  0  0  0  0999 V2000
    2.9954    0.0629    1.9201 C   0  0  0  0  0  0  0  0  0  0  0  0
    2.0742   -0.9699    2.1829 C   0  0  0  0  0  0  0  0  0  0  0  0
    2.2926   -2.2582    1.8469 N   0  0  0  0  0  0  0  0  0  0  0  0
    3.4408   -2.5518    1.1984 C   0  0  0  0  0  0  0  0  0  0  0  0
    4.4240   -1.5920    0.8715 C   0  0  0  0  0  0  0  0  0  0  0  0
    5.6322   -1.9628    0.2423 N   0  0  0  0  0  0  0  0  0  0  0  0
    6.8466   -1.7716    0.7955 N   0  0  0  0  0  0  0  0  0  0  0  0
    7.7072   -2.2518   -0.0494 N   0  0  0  0  0  0  0  0  0  0  0  0
    7.0793   -2.7106   -1.1887 N   0  0  0  0  0  0  0  0  0  0  0  0
    5.7759   -2.5194   -0.9830 C   0  0  0  0  0  0  0  0  0  0  0  0
    4.7622   -2.8543   -1.9969 C   0  0  0  0  0  0  0  0  0  0  0  0
    5.1326   -3.4482   -3.2314 C   0  0  0  0  0  0  0  0  0  0  0  0
    4.2330   -3.7351   -4.1963 N   0  0  0  0  0  0  0  0  0  0  0  0
    2.9403   -3.4445   -3.9203 C   0  0  0  0  0  0  0  0  0  0  0  0
    2.5606   -2.8698   -2.6940 C   0  0  0  0  0  0  0  0  0  0  0  0
    3.4673   -2.5606   -1.7490 N   0  0  0  0  0  0  0  0  0  0  0  0
    4.1927   -0.2550    1.2507 C   0  0  0  0  0  0  0  0  0  0  0  0
    2.7867    1.0743    2.2376 H   0  0  0  0  0  0  0  0  0  0  0  0
    1.1429   -0.7655    2.6833 H   0  0  0  0  0  0  0  0  0  0  0  0
    3.5785   -3.5919    0.9358 H   0  0  0  0  0  0  0  0  0  0  0  0
    6.1569   -3.6655   -3.4825 H   0  0  0  0  0  0  0  0  0  0  0  0
    2.1951   -3.6814   -4.6650 H   0  0  0  0  0  0  0  0  0  0  0  0
    1.5307   -2.6567   -2.4660 H   0  0  0  0  0  0  0  0  0  0  0  0
    4.9260    0.5136    1.0454 H   0  0  0  0  0  0  0  0  0  0  0  0
  1 17  2  0
  1  2  1  0
  1 18  1  0
  2  3  2  0
  2 19  1  0
  3  4  1  0
  4  5  2  0
  4 20  1  0
  5  6  1  0
  5 17  1  0
  6 10  1  0
  6  7  1  0
  7  8  2  0
  8  9  1  0
  9 10  2  0
 10 11  1  0
 11 16  1  0
 11 12  2  0
 12 13  1  0
 12 21  1  0
 13 14  2  0
 14 15  1  0
 14 22  1  0
 15 16  2  0
 15 23  1  0
 17 24  1  0
M  END
>  <i_m_ct_stereo_status>  (42) 
1

>  <s_m_source_file>  (42) 
/var/tmp/pbs.5102103.sched01/tmpf9vmf5rd/00u30c83p.sdf

>  <i_m_source_file_index>  (42) 
18

>  <i_lp_mmshare_version>  (42) 
48012

>  <i_f3d_flags>  (42) 
0

>  <s_epik_input>  (42) 
W2NIXTFbY0hdW2NIXW5bY0hdYzEtbjJubm5jMi1jM1tjSF1uW2NIXVtjSF1uMw==

>  <s_epik_cmdline>  (42) 
J2VwaWtfcHl0aG9uJywgJy1waHQnLCAnMi4wJywgJy1waCcsICc3LjAnLCAnLXRuJywgJzgnLCAnLW1hJywgJzIwMCcsICctaW1hZScsICc8aW5maWxlLm1hZT4nLCAnLW9tYWUnLCAnPG91dGZpbGUubWFlPic=

>  <r_lp_tautomer_probability>  (42) 
1

>  <r_epik_Ionization_Penalty>  (42) 
1.10348e-05

>  <r_epik_Ionization_Penalty_Charging>  (42) 
0

>  <r_epik_Ionization_Penalty_Neutral>  (42) 
1.10348e-05

>  <r_epik_State_Penalty>  (42) 
-0

>  <r_epik_Charging_Adjusted_Penalty>  (42) 
0

>  <i_epik_Tot_Q>  (42) 
0

>  <i_epik_Tot_abs_Q>  (42) 
0

>  <s_lp_Force_Field>  (42) 
OPLS3e

>  <r_lp_Energy>  (42) 
33.599

>  <b_lp_Chiralities_Consistent>  (42) 
1

>  <s_lp_Variant>  (42) 
13:0-1

>  <s_i_glide_gridfile>  (42) 
pfpi4k_grid

>  <i_i_glide_lignum>  (42) 
18

>  <i_i_glide_rotatable_bonds>  (42) 
2

>  <r_i_docking_score>  (42) 
-3.50964

>  <r_i_glide_ligand_efficiency>  (42) 
-0.20645

>  <r_i_glide_ligand_efficiency_sa>  (42) 
-0.53084

>  <r_i_glide_ligand_efficiency_ln>  (42) 
-0.915588

>  <r_i_glide_gscore>  (42) 
-3.50964

>  <r_i_glide_lipo>  (42) 
-0.458061

>  <r_i_glide_hbond>  (42) 
-0.0368664

>  <r_i_glide_metal>  (42) 
-0

>  <r_i_glide_rewards>  (42) 
-1.92385

>  <r_i_glide_evdw>  (42) 
-26.8162

>  <r_i_glide_ecoul>  (42) 
-2.46811

>  <r_i_glide_erotb>  (42) 
0.669031

>  <r_i_glide_esite>  (42) 
-0.0488684

>  <r_i_glide_emodel>  (42) 
-35.8343

>  <r_i_glide_energy>  (42) 
-29.2843

>  <r_i_glide_einternal>  (42) 
1.35166

>  <r_i_glide_intrahb_reward>  (42) 
-0

>  <i_i_glide_confnum>  (42) 
3

>  <i_i_glide_posenum>  (42) 
2

>  <r_i_glide_eff_state_penalty>  (42) 
0

>  <ligand_id>  (42) 
13

>  <original_smiles>  (42) 
c1cncc(-n2nnnc2-c2cnccn2)c1

>  <smiles>  (42) 
[H]c1nc([H])c(-c2nnnn2-c2c([H])nc([H])c([H])c2[H])nc1[H]

$$$$
14:0:0
     RDKit          3D

 21 24  0  0  1  0  0  0  0  0999 V2000
   -4.5261  -12.0303   -7.5416 O   0  0  0  0  0  0  0  0  0  0  0  0
   -5.2904  -10.9086   -7.4607 C   0  0  0  0  0  0  0  0  0  0  0  0
   -6.3753  -10.5413   -8.2345 C   0  0  0  0  0  0  0  0  0  0  0  0
   -6.7423   -9.3184   -7.7581 N   0  0  0  0  0  0  0  0  0  0  0  0
   -5.9460   -8.9883   -6.7584 C   0  0  0  0  0  0  0  0  0  0  0  0
   -5.0388   -9.9286   -6.5308 N   0  0  0  0  0  0  0  0  0  0  0  0
   -6.3206   -7.7016   -6.2434 C   0  0  0  0  0  0  0  0  0  0  0  0
   -5.7624   -6.6282   -4.9468 S   0  0  0  0  0  0  0  0  0  0  0  0
   -7.0780   -5.6594   -5.5759 C   0  0  0  0  0  0  0  0  0  0  0  0
   -7.5158   -4.3890   -5.1241 C   0  0  0  0  0  0  0  0  0  0  0  0
   -8.6035   -3.9641   -5.8834 C   0  0  0  0  0  0  0  0  0  0  0  0
   -9.0897   -5.0855   -7.1543 S   0  0  0  0  0  0  0  0  0  0  0  0
   -7.8112   -6.0777   -6.5975 C   0  0  0  0  0  0  0  0  0  0  0  0
   -7.3915   -7.3010   -7.0188 C   0  0  0  0  0  0  0  0  0  0  0  0
   -7.7616   -8.3064   -8.0607 C   0  0  0  0  0  0  0  0  0  0  0  0
   -4.3229   -9.9238   -5.8118 H   0  0  0  0  0  0  0  0  0  0  0  0
   -6.8753  -11.0242   -9.0515 H   0  0  0  0  0  0  0  0  0  0  0  0
   -7.0612   -3.8434   -4.3132 H   0  0  0  0  0  0  0  0  0  0  0  0
   -9.1641   -3.0539   -5.7875 H   0  0  0  0  0  0  0  0  0  0  0  0
   -8.7502   -8.7423   -7.8946 H   0  0  0  0  0  0  0  0  0  0  0  0
   -7.6026   -7.9346   -9.0762 H   0  0  0  0  0  0  0  0  0  0  0  0
  1  2  1  0
  2  3  2  0
  2  6  1  0
  3  4  1  0
  3 17  1  0
  4  5  2  0
  4 15  1  0
  5  7  1  0
  5  6  1  0
  6 16  1  0
  7 14  2  0
  7  8  1  0
  8  9  1  0
  9 13  2  0
  9 10  1  0
 10 11  2  0
 10 18  1  0
 11 12  1  0
 11 19  1  0
 12 13  1  0
 13 14  1  0
 14 15  1  0
 15 20  1  0
 15 21  1  0
M  CHG  2   1  -1   4   1
M  END
>  <i_m_ct_stereo_status>  (43) 
1

>  <s_m_source_file>  (43) 
/var/tmp/pbs.5102103.sched01/tmpf9vmf5rd/00u30c83p.sdf

>  <i_m_source_file_index>  (43) 
19

>  <i_lp_mmshare_version>  (43) 
48012

>  <i_f3d_flags>  (43) 
0

>  <s_epik_input>  (43) 
W09IXWMoW2NIXTEpbmMobjEyKWMzYyhbQ0gyXTIpYzRjKHMzKVtjSF1bY0hdczQ=

>  <s_epik_cmdline>  (43) 
J2VwaWtfcHl0aG9uJywgJy1waHQnLCAnMi4wJywgJy1waCcsICc3LjAnLCAnLXRuJywgJzgnLCAnLW1hJywgJzIwMCcsICctaW1hZScsICc8aW5maWxlLm1hZT4nLCAnLW9tYWUnLCAnPG91dGZpbGUubWFlPic=

>  <r_lp_tautomer_probability>  (43) 
0.959642

>  <r_epik_Ionization_Penalty>  (43) 
3.15856e-06

>  <r_epik_Ionization_Penalty_Charging>  (43) 
2.47494e-06

>  <r_epik_Ionization_Penalty_Neutral>  (43) 
6.83623e-07

>  <r_epik_State_Penalty>  (43) 
0.0197939

>  <r_epik_Charging_Adjusted_Penalty>  (43) 
0.0197964

>  <i_epik_Tot_Q>  (43) 
0

>  <i_epik_Tot_abs_Q>  (43) 
2

>  <s_lp_Force_Field>  (43) 
OPLS3e

>  <r_lp_Energy>  (43) 
-4.77139

>  <b_lp_Chiralities_Consistent>  (43) 
1

>  <s_lp_Variant>  (43) 
14:0-1

>  <s_i_glide_gridfile>  (43) 
pfpi4k_grid

>  <i_i_glide_lignum>  (43) 
19

>  <i_i_glide_rotatable_bonds>  (43) 
0

>  <r_i_docking_score>  (43) 
-6.95829

>  <r_i_glide_ligand_efficiency>  (43) 
-0.463886

>  <r_i_glide_ligand_efficiency_sa>  (43) 
-1.14404

>  <r_i_glide_ligand_efficiency_ln>  (43) 
-1.87654

>  <r_i_glide_gscore>  (43) 
-6.95829

>  <r_i_glide_lipo>  (43) 
-2.4802

>  <r_i_glide_hbond>  (43) 
0

>  <r_i_glide_metal>  (43) 
-0

>  <r_i_glide_rewards>  (43) 
-2.98699

>  <r_i_glide_evdw>  (43) 
-27.3311

>  <r_i_glide_ecoul>  (43) 
-0.830271

>  <r_i_glide_erotb>  (43) 
0

>  <r_i_glide_esite>  (43) 
0

>  <r_i_glide_emodel>  (43) 
-42.1157

>  <r_i_glide_energy>  (43) 
-28.1614

>  <r_i_glide_einternal>  (43) 
0

>  <r_i_glide_intrahb_reward>  (43) 
-0

>  <i_i_glide_confnum>  (43) 
1

>  <i_i_glide_posenum>  (43) 
4

>  <r_i_glide_eff_state_penalty>  (43) 
0

>  <ligand_id>  (43) 
14

>  <original_smiles>  (43) 
Oc1cn2c(n1)-c1sc3ccsc3c1C2

>  <smiles>  (43) 
[H]c1sc2c3c(sc2c1[H])-c1n([H])c([O-])c([H])[n+]1C3([H])[H]

$$$$
14:0:1
     RDKit          3D

 21 24  0  0  1  0  0  0  0  0999 V2000
   -6.2823   -4.2141   -4.4334 O   0  0  0  0  0  0  0  0  0  0  0  0
   -6.5942   -5.2901   -5.1881 C   0  0  0  0  0  0  0  0  0  0  0  0
   -6.0428   -6.5593   -5.1574 C   0  0  0  0  0  0  0  0  0  0  0  0
   -6.7036   -7.2358   -6.1440 N   0  0  0  0  0  0  0  0  0  0  0  0
   -7.5861   -6.4223   -6.7028 C   0  0  0  0  0  0  0  0  0  0  0  0
   -7.5616   -5.2250   -6.1553 N   0  0  0  0  0  0  0  0  0  0  0  0
   -8.2749   -7.0979   -7.7426 C   0  0  0  0  0  0  0  0  0  0  0  0
   -9.5692   -6.7115   -8.8896 S   0  0  0  0  0  0  0  0  0  0  0  0
   -9.2866   -8.3785   -9.3374 C   0  0  0  0  0  0  0  0  0  0  0  0
   -9.9401   -9.1323  -10.3381 C   0  0  0  0  0  0  0  0  0  0  0  0
   -9.4185  -10.4244  -10.3645 C   0  0  0  0  0  0  0  0  0  0  0  0
   -8.1571  -10.7336   -9.1842 S   0  0  0  0  0  0  0  0  0  0  0  0
   -8.3715   -9.1109   -8.7151 C   0  0  0  0  0  0  0  0  0  0  0  0
   -7.7452   -8.3762   -7.7485 C   0  0  0  0  0  0  0  0  0  0  0  0
   -6.6846   -8.5684   -6.7212 C   0  0  0  0  0  0  0  0  0  0  0  0
   -8.1355   -4.4345   -6.3954 H   0  0  0  0  0  0  0  0  0  0  0  0
   -5.2768   -6.9937   -4.5563 H   0  0  0  0  0  0  0  0  0  0  0  0
  -10.7242   -8.7504  -10.9689 H   0  0  0  0  0  0  0  0  0  0  0  0
   -9.7045  -11.2246  -10.9971 H   0  0  0  0  0  0  0  0  0  0  0  0
   -6.9672   -9.2978   -5.9426 H   0  0  0  0  0  0  0  0  0  0  0  0
   -5.6936   -8.7562   -7.1688 H   0  0  0  0  0  0  0  0  0  0  0  0
  1  2  1  0
  2  3  2  0
  2  6  1  0
  3  4  1  0
  3 17  1  0
  4  5  2  0
  4 15  1  0
  5  7  1  0
  5  6  1  0
  6 16  1  0
  7 14  2  0
  7  8  1  0
  8  9  1  0
  9 13  2  0
  9 10  1  0
 10 11  2  0
 10 18  1  0
 11 12  1  0
 11 19  1  0
 12 13  1  0
 13 14  1  0
 14 15  1  0
 15 20  1  0
 15 21  1  0
M  CHG  2   1  -1   4   1
M  END
>  <i_m_ct_stereo_status>  (44) 
1

>  <s_m_source_file>  (44) 
/var/tmp/pbs.5102103.sched01/tmpf9vmf5rd/00u30c83p.sdf

>  <i_m_source_file_index>  (44) 
19

>  <i_lp_mmshare_version>  (44) 
48012

>  <i_f3d_flags>  (44) 
0

>  <s_epik_input>  (44) 
W09IXWMoW2NIXTEpbmMobjEyKWMzYyhbQ0gyXTIpYzRjKHMzKVtjSF1bY0hdczQ=

>  <s_epik_cmdline>  (44) 
J2VwaWtfcHl0aG9uJywgJy1waHQnLCAnMi4wJywgJy1waCcsICc3LjAnLCAnLXRuJywgJzgnLCAnLW1hJywgJzIwMCcsICctaW1hZScsICc8aW5maWxlLm1hZT4nLCAnLW9tYWUnLCAnPG91dGZpbGUubWFlPic=

>  <r_lp_tautomer_probability>  (44) 
0.959642

>  <r_epik_Ionization_Penalty>  (44) 
3.15856e-06

>  <r_epik_Ionization_Penalty_Charging>  (44) 
2.47494e-06

>  <r_epik_Ionization_Penalty_Neutral>  (44) 
6.83623e-07

>  <r_epik_State_Penalty>  (44) 
0.0197939

>  <r_epik_Charging_Adjusted_Penalty>  (44) 
0.0197964

>  <i_epik_Tot_Q>  (44) 
0

>  <i_epik_Tot_abs_Q>  (44) 
2

>  <s_lp_Force_Field>  (44) 
OPLS3e

>  <r_lp_Energy>  (44) 
-4.77139

>  <b_lp_Chiralities_Consistent>  (44) 
1

>  <s_lp_Variant>  (44) 
14:0-1

>  <s_i_glide_gridfile>  (44) 
pfpi4k_grid

>  <i_i_glide_lignum>  (44) 
19

>  <i_i_glide_rotatable_bonds>  (44) 
0

>  <r_i_docking_score>  (44) 
-5.05516

>  <r_i_glide_ligand_efficiency>  (44) 
-0.33701

>  <r_i_glide_ligand_efficiency_sa>  (44) 
-0.831139

>  <r_i_glide_ligand_efficiency_ln>  (44) 
-1.36329

>  <r_i_glide_gscore>  (44) 
-5.05516

>  <r_i_glide_lipo>  (44) 
-1.40689

>  <r_i_glide_hbond>  (44) 
0

>  <r_i_glide_metal>  (44) 
-0

>  <r_i_glide_rewards>  (44) 
-2.60104

>  <r_i_glide_evdw>  (44) 
-21.093

>  <r_i_glide_ecoul>  (44) 
0.049524

>  <r_i_glide_erotb>  (44) 
0

>  <r_i_glide_esite>  (44) 
0

>  <r_i_glide_emodel>  (44) 
-31.0834

>  <r_i_glide_energy>  (44) 
-21.0435

>  <r_i_glide_einternal>  (44) 
0

>  <r_i_glide_intrahb_reward>  (44) 
-0

>  <i_i_glide_confnum>  (44) 
1

>  <i_i_glide_posenum>  (44) 
7

>  <r_i_glide_eff_state_penalty>  (44) 
0

>  <ligand_id>  (44) 
14

>  <original_smiles>  (44) 
Oc1cn2c(n1)-c1sc3ccsc3c1C2

>  <smiles>  (44) 
[H]c1sc2c3c(sc2c1[H])-c1n([H])c([O-])c([H])[n+]1C3([H])[H]

$$$$
14:0:2
     RDKit          3D

 21 24  0  0  1  0  0  0  0  0999 V2000
    4.5023   -1.0091    0.7599 O   0  0  0  0  0  0  0  0  0  0  0  0
    3.6967   -0.3612    1.6204 C   0  0  0  0  0  0  0  0  0  0  0  0
    3.9918    0.1314    2.8742 C   0  0  0  0  0  0  0  0  0  0  0  0
    2.8372    0.7115    3.3153 N   0  0  0  0  0  0  0  0  0  0  0  0
    1.9099    0.5708    2.3863 C   0  0  0  0  0  0  0  0  0  0  0  0
    2.3720   -0.1019    1.3180 N   0  0  0  0  0  0  0  0  0  0  0  0
    0.6838    1.1394    2.8364 C   0  0  0  0  0  0  0  0  0  0  0  0
   -0.9304    1.3343    2.1607 S   0  0  0  0  0  0  0  0  0  0  0  0
   -1.1600    2.1338    3.6957 C   0  0  0  0  0  0  0  0  0  0  0  0
   -2.3412    2.7301    4.1931 C   0  0  0  0  0  0  0  0  0  0  0  0
   -2.1099    3.2428    5.4667 C   0  0  0  0  0  0  0  0  0  0  0  0
   -0.4574    3.0271    6.0587 S   0  0  0  0  0  0  0  0  0  0  0  0
   -0.1652    2.2310    4.5824 C   0  0  0  0  0  0  0  0  0  0  0  0
    0.9593    1.6467    4.0881 C   0  0  0  0  0  0  0  0  0  0  0  0
    2.3713    1.4227    4.5143 C   0  0  0  0  0  0  0  0  0  0  0  0
    1.8191   -0.3596    0.5051 H   0  0  0  0  0  0  0  0  0  0  0  0
    4.8869    0.1323    3.4710 H   0  0  0  0  0  0  0  0  0  0  0  0
   -3.2829    2.7559    3.6565 H   0  0  0  0  0  0  0  0  0  0  0  0
   -2.8026    3.7368    6.1291 H   0  0  0  0  0  0  0  0  0  0  0  0
    2.9255    2.3519    4.6155 H   0  0  0  0  0  0  0  0  0  0  0  0
    2.4395    0.7655    5.3769 H   0  0  0  0  0  0  0  0  0  0  0  0
  1  2  1  0
  2  3  2  0
  2  6  1  0
  3  4  1  0
  3 17  1  0
  4  5  2  0
  4 15  1  0
  5  7  1  0
  5  6  1  0
  6 16  1  0
  7 14  2  0
  7  8  1  0
  8  9  1  0
  9 13  2  0
  9 10  1  0
 10 11  2  0
 10 18  1  0
 11 12  1  0
 11 19  1  0
 12 13  1  0
 13 14  1  0
 14 15  1  0
 15 20  1  0
 15 21  1  0
M  CHG  2   1  -1   4   1
M  END
>  <i_m_ct_stereo_status>  (45) 
1

>  <s_m_source_file>  (45) 
/var/tmp/pbs.5102103.sched01/tmpf9vmf5rd/00u30c83p.sdf

>  <i_m_source_file_index>  (45) 
19

>  <i_lp_mmshare_version>  (45) 
48012

>  <i_f3d_flags>  (45) 
0

>  <s_epik_input>  (45) 
W09IXWMoW2NIXTEpbmMobjEyKWMzYyhbQ0gyXTIpYzRjKHMzKVtjSF1bY0hdczQ=

>  <s_epik_cmdline>  (45) 
J2VwaWtfcHl0aG9uJywgJy1waHQnLCAnMi4wJywgJy1waCcsICc3LjAnLCAnLXRuJywgJzgnLCAnLW1hJywgJzIwMCcsICctaW1hZScsICc8aW5maWxlLm1hZT4nLCAnLW9tYWUnLCAnPG91dGZpbGUubWFlPic=

>  <r_lp_tautomer_probability>  (45) 
0.959642

>  <r_epik_Ionization_Penalty>  (45) 
3.15856e-06

>  <r_epik_Ionization_Penalty_Charging>  (45) 
2.47494e-06

>  <r_epik_Ionization_Penalty_Neutral>  (45) 
6.83623e-07

>  <r_epik_State_Penalty>  (45) 
0.0197939

>  <r_epik_Charging_Adjusted_Penalty>  (45) 
0.0197964

>  <i_epik_Tot_Q>  (45) 
0

>  <i_epik_Tot_abs_Q>  (45) 
2

>  <s_lp_Force_Field>  (45) 
OPLS3e

>  <r_lp_Energy>  (45) 
-4.77139

>  <b_lp_Chiralities_Consistent>  (45) 
1

>  <s_lp_Variant>  (45) 
14:0-1

>  <s_i_glide_gridfile>  (45) 
pfpi4k_grid

>  <i_i_glide_lignum>  (45) 
19

>  <i_i_glide_rotatable_bonds>  (45) 
0

>  <r_i_docking_score>  (45) 
-3.58471

>  <r_i_glide_ligand_efficiency>  (45) 
-0.238981

>  <r_i_glide_ligand_efficiency_sa>  (45) 
-0.589377

>  <r_i_glide_ligand_efficiency_ln>  (45) 
-0.966737

>  <r_i_glide_gscore>  (45) 
-3.58471

>  <r_i_glide_lipo>  (45) 
-0.0170784

>  <r_i_glide_hbond>  (45) 
-0.16

>  <r_i_glide_metal>  (45) 
-0

>  <r_i_glide_rewards>  (45) 
-2.11159

>  <r_i_glide_evdw>  (45) 
-16.5291

>  <r_i_glide_ecoul>  (45) 
-2.52079

>  <r_i_glide_erotb>  (45) 
0

>  <r_i_glide_esite>  (45) 
-0.0914609

>  <r_i_glide_emodel>  (45) 
-26.1249

>  <r_i_glide_energy>  (45) 
-19.0499

>  <r_i_glide_einternal>  (45) 
0

>  <r_i_glide_intrahb_reward>  (45) 
-0

>  <i_i_glide_confnum>  (45) 
2

>  <i_i_glide_posenum>  (45) 
25

>  <r_i_glide_eff_state_penalty>  (45) 
0

>  <ligand_id>  (45) 
14

>  <original_smiles>  (45) 
Oc1cn2c(n1)-c1sc3ccsc3c1C2

>  <smiles>  (45) 
[H]c1sc2c3c(sc2c1[H])-c1n([H])c([O-])c([H])[n+]1C3([H])[H]

$$$$
14:1:0
     RDKit          3D

 21 24  0  0  1  0  0  0  0  0999 V2000
    4.8121   -2.1623    5.0750 O   0  0  0  0  0  0  0  0  0  0  0  0
    4.6483   -1.9961    3.8664 C   0  0  0  0  0  0  0  0  0  0  0  0
    5.1122   -0.7049    3.1770 C   0  0  0  0  0  0  0  0  0  0  0  0
    4.7433   -0.9899    1.8339 N   0  0  0  0  0  0  0  0  0  0  0  0
    4.1709   -2.2128    1.8600 C   0  0  0  0  0  0  0  0  0  0  0  0
    4.0650   -2.8772    2.9591 N   0  0  0  0  0  0  0  0  0  0  0  0
    3.7903   -2.4869    0.5180 C   0  0  0  0  0  0  0  0  0  0  0  0
    3.0037   -3.8525   -0.2924 S   0  0  0  0  0  0  0  0  0  0  0  0
    3.2454   -2.8180   -1.6626 C   0  0  0  0  0  0  0  0  0  0  0  0
    2.8606   -3.0545   -3.0003 C   0  0  0  0  0  0  0  0  0  0  0  0
    3.2120   -1.9662   -3.7811 C   0  0  0  0  0  0  0  0  0  0  0  0
    4.0054   -0.6578   -2.9153 S   0  0  0  0  0  0  0  0  0  0  0  0
    3.8314   -1.6292   -1.5260 C   0  0  0  0  0  0  0  0  0  0  0  0
    4.1617   -1.3857   -0.2306 C   0  0  0  0  0  0  0  0  0  0  0  0
    4.8046   -0.2722    0.5633 C   0  0  0  0  0  0  0  0  0  0  0  0
    6.1771   -0.5632    3.2946 H   0  0  0  0  0  0  0  0  0  0  0  0
    4.6107    0.1602    3.5889 H   0  0  0  0  0  0  0  0  0  0  0  0
    2.3448   -3.9412   -3.3221 H   0  0  0  0  0  0  0  0  0  0  0  0
    3.0054   -1.8234   -4.8144 H   0  0  0  0  0  0  0  0  0  0  0  0
    5.8428   -0.0747    0.2655 H   0  0  0  0  0  0  0  0  0  0  0  0
    4.2071    0.6499    0.5887 H   0  0  0  0  0  0  0  0  0  0  0  0
  1  2  2  0
  2  3  1  0
  2  6  1  0
  3  4  1  0
  3 17  1  0
  3 16  1  0
  4  5  1  0
  4 15  1  0
  5  7  1  0
  5  6  2  0
  7 14  2  0
  7  8  1  0
  8  9  1  0
  9 13  2  0
  9 10  1  0
 10 11  2  0
 10 18  1  0
 11 12  1  0
 11 19  1  0
 12 13  1  0
 13 14  1  0
 14 15  1  0
 15 20  1  0
 15 21  1  0
M  END
>  <i_m_ct_stereo_status>  (46) 
1

>  <s_m_source_file>  (46) 
/var/tmp/pbs.5102103.sched01/tmpf9vmf5rd/00u30c83p.sdf

>  <i_m_source_file_index>  (46) 
20

>  <i_lp_mmshare_version>  (46) 
48012

>  <i_f3d_flags>  (46) 
0

>  <s_epik_input>  (46) 
W09IXWMoW2NIXTEpbmMobjEyKWMzYyhbQ0gyXTIpYzRjKHMzKVtjSF1bY0hdczQ=

>  <s_epik_cmdline>  (46) 
J2VwaWtfcHl0aG9uJywgJy1waHQnLCAnMi4wJywgJy1waCcsICc3LjAnLCAnLXRuJywgJzgnLCAnLW1hJywgJzIwMCcsICctaW1hZScsICc8aW5maWxlLm1hZT4nLCAnLW9tYWUnLCAnPG91dGZpbGUubWFlPic=

>  <r_lp_tautomer_probability>  (46) 
0.0403252

>  <r_epik_Ionization_Penalty>  (46) 
0.00433284

>  <r_epik_Ionization_Penalty_Charging>  (46) 
0

>  <r_epik_Ionization_Penalty_Neutral>  (46) 
0.00433284

>  <r_epik_State_Penalty>  (46) 
2.0237

>  <r_epik_Charging_Adjusted_Penalty>  (46) 
2.0237

>  <i_epik_Tot_Q>  (46) 
0

>  <i_epik_Tot_abs_Q>  (46) 
0

>  <s_epik_Chemistry_Notes>  (46) 
This compound has an imine and may undergo hydrolysis.

>  <s_lp_Force_Field>  (46) 
OPLS3e

>  <r_lp_Energy>  (46) 
4.06123

>  <b_lp_Chiralities_Consistent>  (46) 
1

>  <s_lp_Variant>  (46) 
14:0-2

>  <s_i_glide_gridfile>  (46) 
pfpi4k_grid

>  <i_i_glide_lignum>  (46) 
20

>  <i_i_glide_rotatable_bonds>  (46) 
0

>  <r_i_docking_score>  (46) 
-3.9027

>  <r_i_glide_ligand_efficiency>  (46) 
-0.26018

>  <r_i_glide_ligand_efficiency_sa>  (46) 
-0.641659

>  <r_i_glide_ligand_efficiency_ln>  (46) 
-1.05249

>  <r_i_glide_gscore>  (46) 
-3.9027

>  <r_i_glide_lipo>  (46) 
-0.637147

>  <r_i_glide_hbond>  (46) 
0

>  <r_i_glide_metal>  (46) 
-0

>  <r_i_glide_rewards>  (46) 
-1.97592

>  <r_i_glide_evdw>  (46) 
-23.3641

>  <r_i_glide_ecoul>  (46) 
-0.809529

>  <r_i_glide_erotb>  (46) 
0

>  <r_i_glide_esite>  (46) 
0

>  <r_i_glide_emodel>  (46) 
-29.846

>  <r_i_glide_energy>  (46) 
-24.1736

>  <r_i_glide_einternal>  (46) 
0

>  <r_i_glide_intrahb_reward>  (46) 
-0

>  <i_i_glide_confnum>  (46) 
1

>  <i_i_glide_posenum>  (46) 
7

>  <r_i_glide_eff_state_penalty>  (46) 
0

>  <ligand_id>  (46) 
14

>  <original_smiles>  (46) 
Oc1cn2c(n1)-c1sc3ccsc3c1C2

>  <smiles>  (46) 
[H]c1sc2c3c(sc2c1[H])C1=NC(=O)C([H])([H])N1C3([H])[H]

$$$$
14:1:1
     RDKit          3D

 21 24  0  0  1  0  0  0  0  0999 V2000
    5.6713   -5.0024    4.1896 O   0  0  0  0  0  0  0  0  0  0  0  0
    5.3182   -4.6551    3.0707 C   0  0  0  0  0  0  0  0  0  0  0  0
    4.7306   -5.6696    2.0743 C   0  0  0  0  0  0  0  0  0  0  0  0
    4.5049   -4.8046    0.9793 N   0  0  0  0  0  0  0  0  0  0  0  0
    4.9168   -3.5760    1.3618 C   0  0  0  0  0  0  0  0  0  0  0  0
    5.3940   -3.3713    2.5322 N   0  0  0  0  0  0  0  0  0  0  0  0
    4.6909   -2.7358    0.2197 C   0  0  0  0  0  0  0  0  0  0  0  0
    4.9615   -1.0210   -0.1209 S   0  0  0  0  0  0  0  0  0  0  0  0
    4.2972   -1.4980   -1.6592 C   0  0  0  0  0  0  0  0  0  0  0  0
    4.0622   -0.6665   -2.7830 C   0  0  0  0  0  0  0  0  0  0  0  0
    3.5025   -1.4049   -3.8171 C   0  0  0  0  0  0  0  0  0  0  0  0
    3.2464   -3.1020   -3.4183 S   0  0  0  0  0  0  0  0  0  0  0  0
    3.9221   -2.7499   -1.8832 C   0  0  0  0  0  0  0  0  0  0  0  0
    4.1432   -3.5237   -0.7811 C   0  0  0  0  0  0  0  0  0  0  0  0
    3.9701   -4.9636   -0.3535 C   0  0  0  0  0  0  0  0  0  0  0  0
    3.8161   -6.1098    2.4522 H   0  0  0  0  0  0  0  0  0  0  0  0
    5.4328   -6.4638    1.8447 H   0  0  0  0  0  0  0  0  0  0  0  0
    4.2646    0.3954   -2.7933 H   0  0  0  0  0  0  0  0  0  0  0  0
    3.1785   -1.0449   -4.7677 H   0  0  0  0  0  0  0  0  0  0  0  0
    2.9260   -5.2917   -0.3379 H   0  0  0  0  0  0  0  0  0  0  0  0
    4.5851   -5.6469   -0.9514 H   0  0  0  0  0  0  0  0  0  0  0  0
  1  2  2  0
  2  3  1  0
  2  6  1  0
  3  4  1  0
  3 17  1  0
  3 16  1  0
  4  5  1  0
  4 15  1  0
  5  7  1  0
  5  6  2  0
  7 14  2  0
  7  8  1  0
  8  9  1  0
  9 13  2  0
  9 10  1  0
 10 11  2  0
 10 18  1  0
 11 12  1  0
 11 19  1  0
 12 13  1  0
 13 14  1  0
 14 15  1  0
 15 20  1  0
 15 21  1  0
M  END
>  <i_m_ct_stereo_status>  (47) 
1

>  <s_m_source_file>  (47) 
/var/tmp/pbs.5102103.sched01/tmpf9vmf5rd/00u30c83p.sdf

>  <i_m_source_file_index>  (47) 
20

>  <i_lp_mmshare_version>  (47) 
48012

>  <i_f3d_flags>  (47) 
0

>  <s_epik_input>  (47) 
W09IXWMoW2NIXTEpbmMobjEyKWMzYyhbQ0gyXTIpYzRjKHMzKVtjSF1bY0hdczQ=

>  <s_epik_cmdline>  (47) 
J2VwaWtfcHl0aG9uJywgJy1waHQnLCAnMi4wJywgJy1waCcsICc3LjAnLCAnLXRuJywgJzgnLCAnLW1hJywgJzIwMCcsICctaW1hZScsICc8aW5maWxlLm1hZT4nLCAnLW9tYWUnLCAnPG91dGZpbGUubWFlPic=

>  <r_lp_tautomer_probability>  (47) 
0.0403252

>  <r_epik_Ionization_Penalty>  (47) 
0.00433284

>  <r_epik_Ionization_Penalty_Charging>  (47) 
0

>  <r_epik_Ionization_Penalty_Neutral>  (47) 
0.00433284

>  <r_epik_State_Penalty>  (47) 
2.0237

>  <r_epik_Charging_Adjusted_Penalty>  (47) 
2.0237

>  <i_epik_Tot_Q>  (47) 
0

>  <i_epik_Tot_abs_Q>  (47) 
0

>  <s_epik_Chemistry_Notes>  (47) 
This compound has an imine and may undergo hydrolysis.

>  <s_lp_Force_Field>  (47) 
OPLS3e

>  <r_lp_Energy>  (47) 
4.06123

>  <b_lp_Chiralities_Consistent>  (47) 
1

>  <s_lp_Variant>  (47) 
14:0-2

>  <s_i_glide_gridfile>  (47) 
pfpi4k_grid

>  <i_i_glide_lignum>  (47) 
20

>  <i_i_glide_rotatable_bonds>  (47) 
0

>  <r_i_docking_score>  (47) 
-3.64311

>  <r_i_glide_ligand_efficiency>  (47) 
-0.242874

>  <r_i_glide_ligand_efficiency_sa>  (47) 
-0.598979

>  <r_i_glide_ligand_efficiency_ln>  (47) 
-0.982487

>  <r_i_glide_gscore>  (47) 
-3.64311

>  <r_i_glide_lipo>  (47) 
-0.459448

>  <r_i_glide_hbond>  (47) 
0

>  <r_i_glide_metal>  (47) 
-0

>  <r_i_glide_rewards>  (47) 
-1.91928

>  <r_i_glide_evdw>  (47) 
-21.6889

>  <r_i_glide_ecoul>  (47) 
-1.19957

>  <r_i_glide_erotb>  (47) 
0

>  <r_i_glide_esite>  (47) 
0

>  <r_i_glide_emodel>  (47) 
-28.2023

>  <r_i_glide_energy>  (47) 
-22.8885

>  <r_i_glide_einternal>  (47) 
0

>  <r_i_glide_intrahb_reward>  (47) 
-0

>  <i_i_glide_confnum>  (47) 
1

>  <i_i_glide_posenum>  (47) 
1

>  <r_i_glide_eff_state_penalty>  (47) 
0

>  <ligand_id>  (47) 
14

>  <original_smiles>  (47) 
Oc1cn2c(n1)-c1sc3ccsc3c1C2

>  <smiles>  (47) 
[H]c1sc2c3c(sc2c1[H])C1=NC(=O)C([H])([H])N1C3([H])[H]

$$$$
14:1:2
     RDKit          3D

 21 24  0  0  1  0  0  0  0  0999 V2000
   -0.4337   -3.3719    8.0044 O   0  0  0  0  0  0  0  0  0  0  0  0
   -0.1195   -4.4390    7.4868 C   0  0  0  0  0  0  0  0  0  0  0  0
    0.8852   -5.3890    8.1644 C   0  0  0  0  0  0  0  0  0  0  0  0
    0.8797   -6.4609    7.2228 N   0  0  0  0  0  0  0  0  0  0  0  0
    0.0331   -6.0829    6.2287 C   0  0  0  0  0  0  0  0  0  0  0  0
   -0.5822   -4.9574    6.2775 N   0  0  0  0  0  0  0  0  0  0  0  0
    0.0444   -7.1708    5.2835 C   0  0  0  0  0  0  0  0  0  0  0  0
   -0.8000   -7.5147    3.7524 S   0  0  0  0  0  0  0  0  0  0  0  0
    0.1599   -8.9675    3.8585 C   0  0  0  0  0  0  0  0  0  0  0  0
    0.2014  -10.0535    2.9437 C   0  0  0  0  0  0  0  0  0  0  0  0
    1.0859  -11.0270    3.3986 C   0  0  0  0  0  0  0  0  0  0  0  0
    1.8790  -10.6187    4.9242 S   0  0  0  0  0  0  0  0  0  0  0  0
    0.9730   -9.1664    4.8938 C   0  0  0  0  0  0  0  0  0  0  0  0
    0.9298   -8.1207    5.7723 C   0  0  0  0  0  0  0  0  0  0  0  0
    1.5722   -7.7413    7.0825 C   0  0  0  0  0  0  0  0  0  0  0  0
    0.5386   -5.6975    9.1460 H   0  0  0  0  0  0  0  0  0  0  0  0
    1.8611   -4.9201    8.2614 H   0  0  0  0  0  0  0  0  0  0  0  0
   -0.3867  -10.1124    2.0422 H   0  0  0  0  0  0  0  0  0  0  0  0
    1.3171  -11.9729    2.9384 H   0  0  0  0  0  0  0  0  0  0  0  0
    1.3226   -8.4133    7.9036 H   0  0  0  0  0  0  0  0  0  0  0  0
    2.6501   -7.5954    7.0093 H   0  0  0  0  0  0  0  0  0  0  0  0
  1  2  2  0
  2  3  1  0
  2  6  1  0
  3  4  1  0
  3 17  1  0
  3 16  1  0
  4  5  1  0
  4 15  1  0
  5  7  1  0
  5  6  2  0
  7 14  2  0
  7  8  1  0
  8  9  1  0
  9 13  2  0
  9 10  1  0
 10 11  2  0
 10 18  1  0
 11 12  1  0
 11 19  1  0
 12 13  1  0
 13 14  1  0
 14 15  1  0
 15 20  1  0
 15 21  1  0
M  END
>  <i_m_ct_stereo_status>  (48) 
1

>  <s_m_source_file>  (48) 
/var/tmp/pbs.5102103.sched01/tmpf9vmf5rd/00u30c83p.sdf

>  <i_m_source_file_index>  (48) 
20

>  <i_lp_mmshare_version>  (48) 
48012

>  <i_f3d_flags>  (48) 
0

>  <s_epik_input>  (48) 
W09IXWMoW2NIXTEpbmMobjEyKWMzYyhbQ0gyXTIpYzRjKHMzKVtjSF1bY0hdczQ=

>  <s_epik_cmdline>  (48) 
J2VwaWtfcHl0aG9uJywgJy1waHQnLCAnMi4wJywgJy1waCcsICc3LjAnLCAnLXRuJywgJzgnLCAnLW1hJywgJzIwMCcsICctaW1hZScsICc8aW5maWxlLm1hZT4nLCAnLW9tYWUnLCAnPG91dGZpbGUubWFlPic=

>  <r_lp_tautomer_probability>  (48) 
0.0403252

>  <r_epik_Ionization_Penalty>  (48) 
0.00433284

>  <r_epik_Ionization_Penalty_Charging>  (48) 
0

>  <r_epik_Ionization_Penalty_Neutral>  (48) 
0.00433284

>  <r_epik_State_Penalty>  (48) 
2.0237

>  <r_epik_Charging_Adjusted_Penalty>  (48) 
2.0237

>  <i_epik_Tot_Q>  (48) 
0

>  <i_epik_Tot_abs_Q>  (48) 
0

>  <s_epik_Chemistry_Notes>  (48) 
This compound has an imine and may undergo hydrolysis.

>  <s_lp_Force_Field>  (48) 
OPLS3e

>  <r_lp_Energy>  (48) 
4.06123

>  <b_lp_Chiralities_Consistent>  (48) 
1

>  <s_lp_Variant>  (48) 
14:0-2

>  <s_i_glide_gridfile>  (48) 
pfpi4k_grid

>  <i_i_glide_lignum>  (48) 
20

>  <i_i_glide_rotatable_bonds>  (48) 
0

>  <r_i_docking_score>  (48) 
-3.28743

>  <r_i_glide_ligand_efficiency>  (48) 
-0.219162

>  <r_i_glide_ligand_efficiency_sa>  (48) 
-0.5405

>  <r_i_glide_ligand_efficiency_ln>  (48) 
-0.886565

>  <r_i_glide_gscore>  (48) 
-3.28743

>  <r_i_glide_lipo>  (48) 
-0.229107

>  <r_i_glide_hbond>  (48) 
-0.0441034

>  <r_i_glide_metal>  (48) 
-0

>  <r_i_glide_rewards>  (48) 
-1.81159

>  <r_i_glide_evdw>  (48) 
-18.9721

>  <r_i_glide_ecoul>  (48) 
-1.58555

>  <r_i_glide_erotb>  (48) 
0

>  <r_i_glide_esite>  (48) 
-0.0161832

>  <r_i_glide_emodel>  (48) 
-25.3323

>  <r_i_glide_energy>  (48) 
-20.5577

>  <r_i_glide_einternal>  (48) 
0

>  <r_i_glide_intrahb_reward>  (48) 
-0

>  <i_i_glide_confnum>  (48) 
2

>  <i_i_glide_posenum>  (48) 
15

>  <r_i_glide_eff_state_penalty>  (48) 
0

>  <ligand_id>  (48) 
14

>  <original_smiles>  (48) 
Oc1cn2c(n1)-c1sc3ccsc3c1C2

>  <smiles>  (48) 
[H]c1sc2c3c(sc2c1[H])C1=NC(=O)C([H])([H])N1C3([H])[H]

$$$$
15:0:0
     RDKit          3D

 27 28  0  0  1  0  0  0  0  0999 V2000
   -1.9763   -9.3006    2.0874 C   0  0  0  0  0  0  0  0  0  0  0  0
   -1.9578   -8.4906    3.3880 C   0  0  0  0  0  0  0  0  0  0  0  0
   -0.2766   -8.2184    4.0314 S   0  0  0  0  0  0  0  0  0  0  0  0
    0.4300   -7.3016    2.7042 C   0  0  0  0  0  0  0  0  0  0  0  0
   -0.1854   -6.7052    1.6846 N   0  0  0  0  0  0  0  0  0  0  0  0
    0.8113   -6.2561    0.8663 N   0  0  0  0  0  0  0  0  0  0  0  0
    1.9526   -6.4629    1.5307 C   0  0  0  0  0  0  0  0  0  0  0  0
    3.3111   -6.0612    1.1582 C   0  0  0  0  0  0  0  0  0  0  0  0
    4.5436   -6.5300    1.6831 C   0  0  0  0  0  0  0  0  0  0  0  0
    5.4965   -5.8444    0.9781 C   0  0  0  0  0  0  0  0  0  0  0  0
    6.9841   -5.9037    1.0554 C   0  0  0  0  0  0  0  0  0  0  0  0
    4.8242   -5.0108    0.1097 N   0  0  0  0  0  0  0  0  0  0  0  0
    5.3484   -4.0907   -0.8859 C   0  0  0  0  0  0  0  0  0  0  0  0
    3.4887   -5.1324    0.2332 N   0  0  0  0  0  0  0  0  0  0  0  0
    1.7807   -7.1603    2.6802 O   0  0  0  0  0  0  0  0  0  0  0  0
   -2.9922   -9.4699    1.7532 H   0  0  0  0  0  0  0  0  0  0  0  0
   -1.4897  -10.2598    2.2250 H   0  0  0  0  0  0  0  0  0  0  0  0
   -1.4617   -8.8136    1.2697 H   0  0  0  0  0  0  0  0  0  0  0  0
   -2.4607   -7.5329    3.2609 H   0  0  0  0  0  0  0  0  0  0  0  0
   -2.5226   -9.0386    4.1428 H   0  0  0  0  0  0  0  0  0  0  0  0
    4.7093   -7.2668    2.4514 H   0  0  0  0  0  0  0  0  0  0  0  0
    7.3015   -6.6790    1.7512 H   0  0  0  0  0  0  0  0  0  0  0  0
    7.3917   -4.9510    1.3989 H   0  0  0  0  0  0  0  0  0  0  0  0
    7.4148   -6.1294    0.0810 H   0  0  0  0  0  0  0  0  0  0  0  0
    6.3215   -3.7155   -0.5749 H   0  0  0  0  0  0  0  0  0  0  0  0
    4.6745   -3.2430   -1.0152 H   0  0  0  0  0  0  0  0  0  0  0  0
    5.4408   -4.6002   -1.8465 H   0  0  0  0  0  0  0  0  0  0  0  0
  1  2  1  0
  1 16  1  0
  1 17  1  0
  1 18  1  0
  2  3  1  0
  2 19  1  0
  2 20  1  0
  3  4  1  0
  4 15  1  0
  4  5  2  0
  5  6  1  0
  6  7  2  0
  7  8  1  0
  7 15  1  0
  8 14  2  0
  8  9  1  0
  9 10  2  0
  9 21  1  0
 10 11  1  0
 10 12  1  0
 11 22  1  0
 11 23  1  0
 11 24  1  0
 12 13  1  0
 12 14  1  0
 13 25  1  0
 13 26  1  0
 13 27  1  0
M  END
>  <i_m_ct_stereo_status>  (49) 
1

>  <s_m_source_file>  (49) 
/var/tmp/pbs.5102103.sched01/tmpf9vmf5rd/00u30c83p.sdf

>  <i_m_source_file_index>  (49) 
21

>  <i_lp_mmshare_version>  (49) 
48012

>  <i_f3d_flags>  (49) 
0

>  <s_epik_input>  (49) 
W0NIM11bQ0gyXVNjMW5uYyhvMSktYzJbY0hdYyhbQ0gzXSluKG4yKVtDSDNd

>  <s_epik_cmdline>  (49) 
J2VwaWtfcHl0aG9uJywgJy1waHQnLCAnMi4wJywgJy1waCcsICc3LjAnLCAnLXRuJywgJzgnLCAnLW1hJywgJzIwMCcsICctaW1hZScsICc8aW5maWxlLm1hZT4nLCAnLW9tYWUnLCAnPG91dGZpbGUubWFlPic=

>  <r_lp_tautomer_probability>  (49) 
1

>  <r_epik_Ionization_Penalty>  (49) 
2.04882e-05

>  <r_epik_Ionization_Penalty_Charging>  (49) 
0

>  <r_epik_Ionization_Penalty_Neutral>  (49) 
2.04882e-05

>  <r_epik_State_Penalty>  (49) 
-0

>  <r_epik_Charging_Adjusted_Penalty>  (49) 
0

>  <i_epik_Tot_Q>  (49) 
0

>  <i_epik_Tot_abs_Q>  (49) 
0

>  <s_lp_Force_Field>  (49) 
OPLS3e

>  <r_lp_Energy>  (49) 
7.43799

>  <b_lp_Chiralities_Consistent>  (49) 
1

>  <s_lp_Variant>  (49) 
15:0-1

>  <s_i_glide_gridfile>  (49) 
pfpi4k_grid

>  <i_i_glide_lignum>  (49) 
21

>  <i_i_glide_rotatable_bonds>  (49) 
3

>  <r_i_docking_score>  (49) 
-3.37775

>  <r_i_glide_ligand_efficiency>  (49) 
-0.225183

>  <r_i_glide_ligand_efficiency_sa>  (49) 
-0.555349

>  <r_i_glide_ligand_efficiency_ln>  (49) 
-0.910923

>  <r_i_glide_gscore>  (49) 
-3.37775

>  <r_i_glide_lipo>  (49) 
-0.481002

>  <r_i_glide_hbond>  (49) 
0

>  <r_i_glide_metal>  (49) 
-0

>  <r_i_glide_rewards>  (49) 
-1.92059

>  <r_i_glide_evdw>  (49) 
-20.8243

>  <r_i_glide_ecoul>  (49) 
-2.7243

>  <r_i_glide_erotb>  (49) 
0.67371

>  <r_i_glide_esite>  (49) 
-0.2

>  <r_i_glide_emodel>  (49) 
-28.382

>  <r_i_glide_energy>  (49) 
-23.5486

>  <r_i_glide_einternal>  (49) 
2.27371

>  <r_i_glide_intrahb_reward>  (49) 
-0

>  <i_i_glide_confnum>  (49) 
3

>  <i_i_glide_posenum>  (49) 
32

>  <r_i_glide_eff_state_penalty>  (49) 
0

>  <ligand_id>  (49) 
15

>  <original_smiles>  (49) 
CCSc1nnc(-c2cc(C)n(C)n2)o1

>  <smiles>  (49) 
[H]c1c(-c2nnc(SC([H])([H])C([H])([H])[H])o2)nn(C([H])([H])[H])c1C([H])([H])[H]

$$$$
15:0:1
     RDKit          3D

 27 28  0  0  1  0  0  0  0  0999 V2000
   -0.5197   -7.3755    5.2224 C   0  0  0  0  0  0  0  0  0  0  0  0
   -1.0646   -8.6540    4.5682 C   0  0  0  0  0  0  0  0  0  0  0  0
   -1.6921   -8.3841    2.8799 S   0  0  0  0  0  0  0  0  0  0  0  0
   -0.2489   -7.7494    2.1047 C   0  0  0  0  0  0  0  0  0  0  0  0
   -0.1792   -6.6564    1.3405 N   0  0  0  0  0  0  0  0  0  0  0  0
    1.1586   -6.4733    1.0755 N   0  0  0  0  0  0  0  0  0  0  0  0
    1.7932   -7.4822    1.6903 C   0  0  0  0  0  0  0  0  0  0  0  0
    3.2164   -7.8154    1.6645 C   0  0  0  0  0  0  0  0  0  0  0  0
    3.8277   -9.1046    1.6722 C   0  0  0  0  0  0  0  0  0  0  0  0
    5.1682   -8.8458    1.6054 C   0  0  0  0  0  0  0  0  0  0  0  0
    6.3270   -9.7829    1.5682 C   0  0  0  0  0  0  0  0  0  0  0  0
    5.3134   -7.4741    1.5719 N   0  0  0  0  0  0  0  0  0  0  0  0
    6.5259   -6.6788    1.5192 C   0  0  0  0  0  0  0  0  0  0  0  0
    4.1191   -6.8455    1.5946 N   0  0  0  0  0  0  0  0  0  0  0  0
    0.9559   -8.3267    2.3481 O   0  0  0  0  0  0  0  0  0  0  0  0
   -0.1865   -7.5848    6.2389 H   0  0  0  0  0  0  0  0  0  0  0  0
   -1.2804   -6.5941    5.2699 H   0  0  0  0  0  0  0  0  0  0  0  0
    0.3412   -6.9803    4.6852 H   0  0  0  0  0  0  0  0  0  0  0  0
   -0.3211   -9.4526    4.5657 H   0  0  0  0  0  0  0  0  0  0  0  0
   -1.8974   -9.0170    5.1707 H   0  0  0  0  0  0  0  0  0  0  0  0
    3.3523  -10.0779    1.6941 H   0  0  0  0  0  0  0  0  0  0  0  0
    5.9890  -10.8164    1.5013 H   0  0  0  0  0  0  0  0  0  0  0  0
    6.9295   -9.6801    2.4694 H   0  0  0  0  0  0  0  0  0  0  0  0
    6.9614   -9.5742    0.7086 H   0  0  0  0  0  0  0  0  0  0  0  0
    7.3519   -7.2087    1.9924 H   0  0  0  0  0  0  0  0  0  0  0  0
    6.3776   -5.7343    2.0427 H   0  0  0  0  0  0  0  0  0  0  0  0
    6.7851   -6.4661    0.4820 H   0  0  0  0  0  0  0  0  0  0  0  0
  1  2  1  0
  1 16  1  0
  1 17  1  0
  1 18  1  0
  2  3  1  0
  2 19  1  0
  2 20  1  0
  3  4  1  0
  4 15  1  0
  4  5  2  0
  5  6  1  0
  6  7  2  0
  7  8  1  0
  7 15  1  0
  8 14  2  0
  8  9  1  0
  9 10  2  0
  9 21  1  0
 10 11  1  0
 10 12  1  0
 11 22  1  0
 11 23  1  0
 11 24  1  0
 12 13  1  0
 12 14  1  0
 13 25  1  0
 13 26  1  0
 13 27  1  0
M  END
>  <i_m_ct_stereo_status>  (50) 
1

>  <s_m_source_file>  (50) 
/var/tmp/pbs.5102103.sched01/tmpf9vmf5rd/00u30c83p.sdf

>  <i_m_source_file_index>  (50) 
21

>  <i_lp_mmshare_version>  (50) 
48012

>  <i_f3d_flags>  (50) 
0

>  <s_epik_input>  (50) 
W0NIM11bQ0gyXVNjMW5uYyhvMSktYzJbY0hdYyhbQ0gzXSluKG4yKVtDSDNd

>  <s_epik_cmdline>  (50) 
J2VwaWtfcHl0aG9uJywgJy1waHQnLCAnMi4wJywgJy1waCcsICc3LjAnLCAnLXRuJywgJzgnLCAnLW1hJywgJzIwMCcsICctaW1hZScsICc8aW5maWxlLm1hZT4nLCAnLW9tYWUnLCAnPG91dGZpbGUubWFlPic=

>  <r_lp_tautomer_probability>  (50) 
1

>  <r_epik_Ionization_Penalty>  (50) 
2.04882e-05

>  <r_epik_Ionization_Penalty_Charging>  (50) 
0

>  <r_epik_Ionization_Penalty_Neutral>  (50) 
2.04882e-05

>  <r_epik_State_Penalty>  (50) 
-0

>  <r_epik_Charging_Adjusted_Penalty>  (50) 
0

>  <i_epik_Tot_Q>  (50) 
0

>  <i_epik_Tot_abs_Q>  (50) 
0

>  <s_lp_Force_Field>  (50) 
OPLS3e

>  <r_lp_Energy>  (50) 
7.43799

>  <b_lp_Chiralities_Consistent>  (50) 
1

>  <s_lp_Variant>  (50) 
15:0-1

>  <s_i_glide_gridfile>  (50) 
pfpi4k_grid

>  <i_i_glide_lignum>  (50) 
21

>  <i_i_glide_rotatable_bonds>  (50) 
3

>  <r_i_docking_score>  (50) 
-3.30381

>  <r_i_glide_ligand_efficiency>  (50) 
-0.220254

>  <r_i_glide_ligand_efficiency_sa>  (50) 
-0.543194

>  <r_i_glide_ligand_efficiency_ln>  (50) 
-0.890984

>  <r_i_glide_gscore>  (50) 
-3.30381

>  <r_i_glide_lipo>  (50) 
-0.0924994

>  <r_i_glide_hbond>  (50) 
0

>  <r_i_glide_metal>  (50) 
-0

>  <r_i_glide_rewards>  (50) 
-1.98696

>  <r_i_glide_evdw>  (50) 
-22.393

>  <r_i_glide_ecoul>  (50) 
-4.00323

>  <r_i_glide_erotb>  (50) 
0.67371

>  <r_i_glide_esite>  (50) 
-0.177937

>  <r_i_glide_emodel>  (50) 
-30.1894

>  <r_i_glide_energy>  (50) 
-26.3962

>  <r_i_glide_einternal>  (50) 
4.45804

>  <r_i_glide_intrahb_reward>  (50) 
-0

>  <i_i_glide_confnum>  (50) 
4

>  <i_i_glide_posenum>  (50) 
16

>  <r_i_glide_eff_state_penalty>  (50) 
0

>  <ligand_id>  (50) 
15

>  <original_smiles>  (50) 
CCSc1nnc(-c2cc(C)n(C)n2)o1

>  <smiles>  (50) 
[H]c1c(-c2nnc(SC([H])([H])C([H])([H])[H])o2)nn(C([H])([H])[H])c1C([H])([H])[H]

$$$$
15:0:2
     RDKit          3D

 27 28  0  0  1  0  0  0  0  0999 V2000
   -1.9317   -7.7594    3.7243 C   0  0  0  0  0  0  0  0  0  0  0  0
   -1.6222   -8.9945    2.8594 C   0  0  0  0  0  0  0  0  0  0  0  0
    0.1370   -9.4490    2.9053 S   0  0  0  0  0  0  0  0  0  0  0  0
    0.8308   -8.0708    2.0560 C   0  0  0  0  0  0  0  0  0  0  0  0
    0.2056   -7.0803    1.4054 N   0  0  0  0  0  0  0  0  0  0  0  0
    1.1944   -6.2517    0.9500 N   0  0  0  0  0  0  0  0  0  0  0  0
    2.3488   -6.7934    1.3582 C   0  0  0  0  0  0  0  0  0  0  0  0
    3.7139   -6.3191    1.1329 C   0  0  0  0  0  0  0  0  0  0  0  0
    4.9487   -6.9367    1.4894 C   0  0  0  0  0  0  0  0  0  0  0  0
    5.9097   -6.0806    1.0240 C   0  0  0  0  0  0  0  0  0  0  0  0
    7.3967   -6.1744    1.0806 C   0  0  0  0  0  0  0  0  0  0  0  0
    5.2498   -5.0234    0.4326 N   0  0  0  0  0  0  0  0  0  0  0  0
    5.7926   -3.8550   -0.2377 C   0  0  0  0  0  0  0  0  0  0  0  0
    3.9109   -5.1674    0.5073 N   0  0  0  0  0  0  0  0  0  0  0  0
    2.1827   -7.9539    2.0481 O   0  0  0  0  0  0  0  0  0  0  0  0
   -2.9906   -7.5222    3.6849 H   0  0  0  0  0  0  0  0  0  0  0  0
   -1.4033   -6.8667    3.4016 H   0  0  0  0  0  0  0  0  0  0  0  0
   -1.6670   -7.9392    4.7653 H   0  0  0  0  0  0  0  0  0  0  0  0
   -2.1909   -9.8446    3.2315 H   0  0  0  0  0  0  0  0  0  0  0  0
   -1.9338   -8.8539    1.8265 H   0  0  0  0  0  0  0  0  0  0  0  0
    5.1118   -7.8718    2.0031 H   0  0  0  0  0  0  0  0  0  0  0  0
    7.7086   -7.1229    1.5123 H   0  0  0  0  0  0  0  0  0  0  0  0
    7.8105   -5.3699    1.6883 H   0  0  0  0  0  0  0  0  0  0  0  0
    7.8247   -6.1022    0.0818 H   0  0  0  0  0  0  0  0  0  0  0  0
    6.7603   -3.5932    0.1787 H   0  0  0  0  0  0  0  0  0  0  0  0
    5.1226   -3.0033   -0.1160 H   0  0  0  0  0  0  0  0  0  0  0  0
    5.9048   -4.0554   -1.3047 H   0  0  0  0  0  0  0  0  0  0  0  0
  1  2  1  0
  1 16  1  0
  1 17  1  0
  1 18  1  0
  2  3  1  0
  2 19  1  0
  2 20  1  0
  3  4  1  0
  4 15  1  0
  4  5  2  0
  5  6  1  0
  6  7  2  0
  7  8  1  0
  7 15  1  0
  8 14  2  0
  8  9  1  0
  9 10  2  0
  9 21  1  0
 10 11  1  0
 10 12  1  0
 11 22  1  0
 11 23  1  0
 11 24  1  0
 12 13  1  0
 12 14  1  0
 13 25  1  0
 13 26  1  0
 13 27  1  0
M  END
>  <i_m_ct_stereo_status>  (51) 
1

>  <s_m_source_file>  (51) 
/var/tmp/pbs.5102103.sched01/tmpf9vmf5rd/00u30c83p.sdf

>  <i_m_source_file_index>  (51) 
21

>  <i_lp_mmshare_version>  (51) 
48012

>  <i_f3d_flags>  (51) 
0

>  <s_epik_input>  (51) 
W0NIM11bQ0gyXVNjMW5uYyhvMSktYzJbY0hdYyhbQ0gzXSluKG4yKVtDSDNd

>  <s_epik_cmdline>  (51) 
J2VwaWtfcHl0aG9uJywgJy1waHQnLCAnMi4wJywgJy1waCcsICc3LjAnLCAnLXRuJywgJzgnLCAnLW1hJywgJzIwMCcsICctaW1hZScsICc8aW5maWxlLm1hZT4nLCAnLW9tYWUnLCAnPG91dGZpbGUubWFlPic=

>  <r_lp_tautomer_probability>  (51) 
1

>  <r_epik_Ionization_Penalty>  (51) 
2.04882e-05

>  <r_epik_Ionization_Penalty_Charging>  (51) 
0

>  <r_epik_Ionization_Penalty_Neutral>  (51) 
2.04882e-05

>  <r_epik_State_Penalty>  (51) 
-0

>  <r_epik_Charging_Adjusted_Penalty>  (51) 
0

>  <i_epik_Tot_Q>  (51) 
0

>  <i_epik_Tot_abs_Q>  (51) 
0

>  <s_lp_Force_Field>  (51) 
OPLS3e

>  <r_lp_Energy>  (51) 
7.43799

>  <b_lp_Chiralities_Consistent>  (51) 
1

>  <s_lp_Variant>  (51) 
15:0-1

>  <s_i_glide_gridfile>  (51) 
pfpi4k_grid

>  <i_i_glide_lignum>  (51) 
21

>  <i_i_glide_rotatable_bonds>  (51) 
3

>  <r_i_docking_score>  (51) 
-3.19507

>  <r_i_glide_ligand_efficiency>  (51) 
-0.213005

>  <r_i_glide_ligand_efficiency_sa>  (51) 
-0.525315

>  <r_i_glide_ligand_efficiency_ln>  (51) 
-0.861659

>  <r_i_glide_gscore>  (51) 
-3.19507

>  <r_i_glide_lipo>  (51) 
-0.305795

>  <r_i_glide_hbond>  (51) 
0

>  <r_i_glide_metal>  (51) 
-0

>  <r_i_glide_rewards>  (51) 
-1.99848

>  <r_i_glide_evdw>  (51) 
-22.6263

>  <r_i_glide_ecoul>  (51) 
-1.62745

>  <r_i_glide_erotb>  (51) 
0.67371

>  <r_i_glide_esite>  (51) 
-0.189078

>  <r_i_glide_emodel>  (51) 
-29.2302

>  <r_i_glide_energy>  (51) 
-24.2537

>  <r_i_glide_einternal>  (51) 
1.81105

>  <r_i_glide_intrahb_reward>  (51) 
-0

>  <i_i_glide_confnum>  (51) 
3

>  <i_i_glide_posenum>  (51) 
13

>  <r_i_glide_eff_state_penalty>  (51) 
0

>  <ligand_id>  (51) 
15

>  <original_smiles>  (51) 
CCSc1nnc(-c2cc(C)n(C)n2)o1

>  <smiles>  (51) 
[H]c1c(-c2nnc(SC([H])([H])C([H])([H])[H])o2)nn(C([H])([H])[H])c1C([H])([H])[H]

$$$$
16:0:0
     RDKit          3D

 54 60  0  0  1  0  0  0  0  0999 V2000
    6.1658   -0.1430    3.8461 C   0  0  0  0  0  0  0  0  0  0  0  0
    4.7456   -0.3807    3.3331 C   0  0  0  0  0  0  0  0  0  0  0  0
    3.7782    0.2949    4.3549 C   0  0  0  0  0  0  0  0  0  0  0  0
    4.4745   -1.8811    2.9905 C   0  0  1  0  0  0  0  0  0  0  0  0
    5.4931   -2.4174    1.9395 C   0  0  0  0  0  0  0  0  0  0  0  0
    6.3098   -3.5290    1.9394 C   0  0  0  0  0  0  0  0  0  0  0  0
    6.4189   -4.6414    0.8459 C   0  0  1  0  0  0  0  0  0  0  0  0
    7.8775   -5.1166    0.6663 C   0  0  0  0  0  0  0  0  0  0  0  0
    5.4162   -5.8000    1.2042 C   0  0  0  0  0  0  0  0  0  0  0  0
    5.6650   -6.9961    1.3120 O   0  0  0  0  0  0  0  0  0  0  0  0
    4.0675   -5.1337    1.3304 C   0  0  2  0  0  0  0  0  0  0  0  0
    4.1695   -4.6085    2.6207 O   0  0  0  0  0  0  0  0  0  0  0  0
    4.2299   -5.0850    3.8489 C   0  0  0  0  0  0  0  0  0  0  0  0
    4.3854   -6.2491    4.2202 O   0  0  0  0  0  0  0  0  0  0  0  0
    4.1350   -3.9931    4.5962 O   0  0  0  0  0  0  0  0  0  0  0  0
    3.7257   -2.6742    4.1137 C   0  0  2  0  0  0  0  0  0  0  0  0
    2.9474   -2.3210    2.8322 C   0  0  2  0  0  0  0  0  0  0  0  0
    2.1151   -3.2516    1.8232 C   0  0  2  0  0  0  0  0  0  0  0  0
    1.8294   -4.6571    2.0504 O   0  0  0  0  0  0  0  0  0  0  0  0
    2.6471   -5.6622    1.4587 C   0  0  0  0  0  0  0  0  0  0  0  0
    2.3130   -6.8088    1.2010 O   0  0  0  0  0  0  0  0  0  0  0  0
    2.2113   -2.8876    0.4901 O   0  0  0  0  0  0  0  0  0  0  0  0
    3.3558   -3.0532   -0.2703 C   0  0  2  0  0  0  0  0  0  0  0  0
    3.8131   -1.7198   -0.8177 C   0  0  0  0  0  0  0  0  0  0  0  0
    4.3484   -0.6569   -0.6344 O   0  0  0  0  0  0  0  0  0  0  0  0
    3.1218   -2.6694   -1.7434 C   0  0  1  0  0  0  0  0  0  0  0  0
    3.9631   -3.1765   -2.9076 C   0  0  0  0  0  0  0  0  0  0  0  0
    5.1883   -2.4622   -3.0260 O   0  0  0  0  0  0  0  0  0  0  0  0
    6.2994   -3.0237   -2.3980 C   0  0  0  0  0  0  0  0  0  0  0  0
    6.2276   -3.0524   -1.0059 O   0  0  0  0  0  0  0  0  0  0  0  0
    5.6899   -4.2497   -0.4346 C   0  0  2  0  0  0  0  0  0  0  0  0
    4.1845   -4.3083   -0.0203 C   0  0  1  0  0  0  0  0  0  0  0  0
    6.2723   -0.6314    4.8180 H   0  0  0  0  0  0  0  0  0  0  0  0
    6.3730    0.9145    3.9997 H   0  0  0  0  0  0  0  0  0  0  0  0
    6.9256   -0.4933    3.1474 H   0  0  0  0  0  0  0  0  0  0  0  0
    4.6503    0.1469    2.3884 H   0  0  0  0  0  0  0  0  0  0  0  0
    3.8708   -0.1189    5.3632 H   0  0  0  0  0  0  0  0  0  0  0  0
    2.7264    0.2454    4.0744 H   0  0  0  0  0  0  0  0  0  0  0  0
    3.9874    1.3622    4.4610 H   0  0  0  0  0  0  0  0  0  0  0  0
    5.3120   -2.0097    0.9811 H   0  0  0  0  0  0  0  0  0  0  0  0
    6.4586   -4.0206    2.8775 H   0  0  0  0  0  0  0  0  0  0  0  0
    8.2995   -5.4643    1.6091 H   0  0  0  0  0  0  0  0  0  0  0  0
    8.5156   -4.3079    0.3075 H   0  0  0  0  0  0  0  0  0  0  0  0
    7.9609   -5.9545   -0.0235 H   0  0  0  0  0  0  0  0  0  0  0  0
    3.3777   -2.1701    5.0102 H   0  0  0  0  0  0  0  0  0  0  0  0
    2.2980   -1.4519    2.9196 H   0  0  0  0  0  0  0  0  0  0  0  0
    1.1219   -2.8927    2.0736 H   0  0  0  0  0  0  0  0  0  0  0  0
    2.0964   -2.4566   -2.0207 H   0  0  0  0  0  0  0  0  0  0  0  0
    4.1331   -4.2464   -2.8256 H   0  0  0  0  0  0  0  0  0  0  0  0
    3.3880   -3.0164   -3.8220 H   0  0  0  0  0  0  0  0  0  0  0  0
    6.5424   -3.9863   -2.8285 H   0  0  0  0  0  0  0  0  0  0  0  0
    7.1478   -2.3865   -2.6348 H   0  0  0  0  0  0  0  0  0  0  0  0
    5.8182   -5.0631   -1.1450 H   0  0  0  0  0  0  0  0  0  0  0  0
    3.7446   -5.0059   -0.7323 H   0  0  0  0  0  0  0  0  0  0  0  0
  1  2  1  0
  1 33  1  0
  1 34  1  0
  1 35  1  0
  2  3  1  0
  4  2  1  1
  2 36  1  0
  3 37  1  0
  3 38  1  0
  3 39  1  0
  4 16  1  0
  4 17  1  0
  4  5  1  0
  5  6  2  3
  5 40  1  0
  6  7  1  0
  6 41  1  0
  7 31  1  0
  7  8  1  6
  7  9  1  0
  8 42  1  0
  8 43  1  0
  8 44  1  0
  9 10  2  0
  9 11  1  0
 11 20  1  0
 11 32  1  0
 11 12  1  1
 12 13  1  0
 13 14  2  0
 13 15  1  0
 15 16  1  0
 16 17  1  0
 16 45  1  1
 17 18  1  0
 17 46  1  1
 18 19  1  0
 18 22  1  0
 18 47  1  1
 19 20  1  0
 20 21  2  0
 22 23  1  0
 23 26  1  0
 23 32  1  0
 23 24  1  1
 24 25  2  0
 24 26  1  0
 26 27  1  0
 26 48  1  6
 27 28  1  0
 27 49  1  0
 27 50  1  0
 28 29  1  0
 29 30  1  0
 29 51  1  0
 29 52  1  0
 30 31  1  0
 31 32  1  0
 31 53  1  6
 32 54  1  6
M  END
>  <i_m_ct_stereo_status>  (52) 
1

>  <s_m_source_file>  (52) 
/var/tmp/pbs.5102103.sched01/tmpf9vmf5rd/00u30c83p.sdf

>  <i_m_source_file_index>  (52) 
22

>  <i_lp_mmshare_version>  (52) 
48012

>  <i_f3d_flags>  (52) 
2

>  <s_epik_input>  (52) 
Tz1DMU9bQ0BASF0oTzIpW0NAQEhdM1tDQEhdKE9DKE80KT1PKVtDQF0zKFtDSF0oW0NIM10pW0NIM10pL1tDSF09W0NIXS9bQ0BdKFtDSDNdKShDNT1PKVtDQEBIXTZPW0NIMl1PW0NIMl1bQ0hdKEM3PU8pQzI3W0NASF02QzE0NQ==

>  <s_epik_cmdline>  (52) 
J2VwaWtfcHl0aG9uJywgJy1waHQnLCAnMi4wJywgJy1waCcsICc3LjAnLCAnLXRuJywgJzgnLCAnLW1hJywgJzIwMCcsICctaW1hZScsICc8aW5maWxlLm1hZT4nLCAnLW9tYWUnLCAnPG91dGZpbGUubWFlPic=

>  <r_lp_tautomer_probability>  (52) 
1

>  <r_epik_Ionization_Penalty>  (52) 
5.60078e-09

>  <r_epik_Ionization_Penalty_Charging>  (52) 
0

>  <r_epik_Ionization_Penalty_Neutral>  (52) 
5.60078e-09

>  <r_epik_State_Penalty>  (52) 
-0

>  <r_epik_Charging_Adjusted_Penalty>  (52) 
0

>  <i_epik_Tot_Q>  (52) 
0

>  <i_epik_Tot_abs_Q>  (52) 
0

>  <s_epik_Chemistry_Notes>  (52) 
This compound has an ester and may undergo hydrolysis at high or low pH. This compound contains an acetal/aminal-like group ( X-CH(R)-Y where X, Y are N, S, or O) that may be acid/base labile, releasing an aldehyde.

>  <s_lp_Force_Field>  (52) 
OPLS3e

>  <r_lp_Energy>  (52) 
180.542

>  <b_lp_Chiralities_Consistent>  (52) 
0

>  <s_lp_Variant>  (52) 
16:0-1

>  <s_i_glide_gridfile>  (52) 
pfpi4k_grid

>  <i_i_glide_lignum>  (52) 
22

>  <i_i_glide_rotatable_bonds>  (52) 
1

>  <r_i_docking_score>  (52) 
-2.81304

>  <r_i_glide_ligand_efficiency>  (52) 
-0.0879075

>  <r_i_glide_ligand_efficiency_sa>  (52) 
-0.279089

>  <r_i_glide_ligand_efficiency_ln>  (52) 
-0.629916

>  <r_i_glide_gscore>  (52) 
-2.81304

>  <r_i_glide_lipo>  (52) 
-0.628632

>  <r_i_glide_hbond>  (52) 
-0.0206847

>  <r_i_glide_metal>  (52) 
-0

>  <r_i_glide_rewards>  (52) 
-0.619947

>  <r_i_glide_evdw>  (52) 
-15.7717

>  <r_i_glide_ecoul>  (52) 
-4.41592

>  <r_i_glide_erotb>  (52) 
0

>  <r_i_glide_esite>  (52) 
-0.0928017

>  <r_i_glide_emodel>  (52) 
-17.2307

>  <r_i_glide_energy>  (52) 
-20.1876

>  <r_i_glide_einternal>  (52) 
9.00833

>  <r_i_glide_intrahb_reward>  (52) 
-0

>  <i_i_glide_confnum>  (52) 
1

>  <i_i_glide_posenum>  (52) 
12

>  <r_i_glide_eff_state_penalty>  (52) 
0

>  <ligand_id>  (52) 
16

>  <original_smiles>  (52) 
CC(C)C12C=CC3(C)C(=O)C45OC(=O)OC1C2C(OC4=O)OC12C(=O)C1COCOC3C52

>  <smiles>  (52) 
[H]C1=C([H])C2(C([H])(C([H])([H])[H])C([H])([H])[H])C3([H])OC(=O)OC45C(=O)OC([H])(OC67C(=O)C6([H])C([H])([H])OC([H])([H])OC([H])(C1(C([H])([H])[H])C4=O)C57[H])C32[H]

$$$$
16:0:1
     RDKit          3D

 54 60  0  0  1  0  0  0  0  0999 V2000
    5.4918   -1.1416    5.4245 C   0  0  0  0  0  0  0  0  0  0  0  0
    5.1928   -1.1380    3.9045 C   0  0  0  0  0  0  0  0  0  0  0  0
    4.2453    0.0271    3.5613 C   0  0  0  0  0  0  0  0  0  0  0  0
    4.7222   -2.5048    3.3427 C   0  0  1  0  0  0  0  0  0  0  0  0
    5.6816   -3.0125    2.2271 C   0  0  0  0  0  0  0  0  0  0  0  0
    6.4000   -4.1813    2.0781 C   0  0  0  0  0  0  0  0  0  0  0  0
    6.3362   -5.1358    0.8306 C   0  0  1  0  0  0  0  0  0  0  0  0
    7.7241   -5.7298    0.5169 C   0  0  0  0  0  0  0  0  0  0  0  0
    5.2020   -6.2170    1.0272 C   0  0  0  0  0  0  0  0  0  0  0  0
    5.2985   -7.4370    0.9496 O   0  0  0  0  0  0  0  0  0  0  0  0
    3.9288   -5.4206    1.2687 C   0  0  2  0  0  0  0  0  0  0  0  0
    4.1169   -5.0911    2.6099 O   0  0  0  0  0  0  0  0  0  0  0  0
    4.1298   -5.7446    3.7624 C   0  0  0  0  0  0  0  0  0  0  0  0
    4.1582   -6.9597    3.9669 O   0  0  0  0  0  0  0  0  0  0  0  0
    4.1305   -4.7573    4.6652 O   0  0  0  0  0  0  0  0  0  0  0  0
    3.8874   -3.3496    4.3669 C   0  0  2  0  0  0  0  0  0  0  0  0
    3.1366   -2.7486    3.1823 C   0  0  2  0  0  0  0  0  0  0  0  0
    2.1725   -3.4242    2.0790 C   0  0  2  0  0  0  0  0  0  0  0  0
    1.7606   -4.8136    2.1107 O   0  0  0  0  0  0  0  0  0  0  0  0
    2.4605   -5.7925    1.3587 C   0  0  0  0  0  0  0  0  0  0  0  0
    1.9710   -6.8269    0.9269 O   0  0  0  0  0  0  0  0  0  0  0  0
    2.2525   -2.8860    0.7949 O   0  0  0  0  0  0  0  0  0  0  0  0
    3.4205   -3.0420    0.0153 C   0  0  2  0  0  0  0  0  0  0  0  0
    3.9855   -1.6855   -0.3633 C   0  0  0  0  0  0  0  0  0  0  0  0
    4.6165   -0.6757   -0.0646 O   0  0  0  0  0  0  0  0  0  0  0  0
    3.2243   -2.4477   -1.3946 C   0  0  1  0  0  0  0  0  0  0  0  0
    4.0000   -2.9019   -2.6310 C   0  0  0  0  0  0  0  0  0  0  0  0
    5.2935   -2.3104   -2.6982 O   0  0  0  0  0  0  0  0  0  0  0  0
    6.3433   -3.0641   -2.1820 C   0  0  0  0  0  0  0  0  0  0  0  0
    6.2841   -3.2801   -0.7968 O   0  0  0  0  0  0  0  0  0  0  0  0
    5.6274   -4.4659   -0.3625 C   0  0  2  0  0  0  0  0  0  0  0  0
    4.1222   -4.4103    0.0601 C   0  0  1  0  0  0  0  0  0  0  0  0
    4.5979   -1.2486    6.0380 H   0  0  0  0  0  0  0  0  0  0  0  0
    5.9498   -0.2034    5.7328 H   0  0  0  0  0  0  0  0  0  0  0  0
    6.1771   -1.9459    5.6960 H   0  0  0  0  0  0  0  0  0  0  0  0
    6.1364   -0.9044    3.4064 H   0  0  0  0  0  0  0  0  0  0  0  0
    3.2960   -0.0325    4.0907 H   0  0  0  0  0  0  0  0  0  0  0  0
    4.0331    0.0589    2.4916 H   0  0  0  0  0  0  0  0  0  0  0  0
    4.6732    0.9852    3.8418 H   0  0  0  0  0  0  0  0  0  0  0  0
    5.5059   -2.4892    1.3161 H   0  0  0  0  0  0  0  0  0  0  0  0
    6.5744   -4.7698    2.9785 H   0  0  0  0  0  0  0  0  0  0  0  0
    8.1221   -6.2682    1.3795 H   0  0  0  0  0  0  0  0  0  0  0  0
    8.4375   -4.9464    0.2650 H   0  0  0  0  0  0  0  0  0  0  0  0
    7.7436   -6.4425   -0.3060 H   0  0  0  0  0  0  0  0  0  0  0  0
    3.6106   -2.9103    5.3205 H   0  0  0  0  0  0  0  0  0  0  0  0
    2.5513   -1.8956    3.5131 H   0  0  0  0  0  0  0  0  0  0  0  0
    1.2074   -3.0179    2.3859 H   0  0  0  0  0  0  0  0  0  0  0  0
    2.2279   -2.1193   -1.6477 H   0  0  0  0  0  0  0  0  0  0  0  0
    4.0141   -3.9886   -2.7217 H   0  0  0  0  0  0  0  0  0  0  0  0
    3.4434   -2.5441   -3.4997 H   0  0  0  0  0  0  0  0  0  0  0  0
    6.4672   -3.9751   -2.7595 H   0  0  0  0  0  0  0  0  0  0  0  0
    7.2457   -2.4820   -2.3531 H   0  0  0  0  0  0  0  0  0  0  0  0
    5.6639   -5.1857   -1.1735 H   0  0  0  0  0  0  0  0  0  0  0  0
    3.6038   -4.9474   -0.7332 H   0  0  0  0  0  0  0  0  0  0  0  0
  1  2  1  0
  1 33  1  0
  1 34  1  0
  1 35  1  0
  2  3  1  0
  4  2  1  1
  2 36  1  0
  3 37  1  0
  3 38  1  0
  3 39  1  0
  4 16  1  0
  4 17  1  0
  4  5  1  0
  5  6  2  3
  5 40  1  0
  6  7  1  0
  6 41  1  0
  7 31  1  0
  7  8  1  6
  7  9  1  0
  8 42  1  0
  8 43  1  0
  8 44  1  0
  9 10  2  0
  9 11  1  0
 11 20  1  0
 11 32  1  0
 11 12  1  1
 12 13  1  0
 13 14  2  0
 13 15  1  0
 15 16  1  0
 16 17  1  0
 16 45  1  1
 17 18  1  0
 17 46  1  1
 18 19  1  0
 18 22  1  0
 18 47  1  1
 19 20  1  0
 20 21  2  0
 22 23  1  0
 23 26  1  0
 23 32  1  0
 23 24  1  1
 24 25  2  0
 24 26  1  0
 26 27  1  0
 26 48  1  6
 27 28  1  0
 27 49  1  0
 27 50  1  0
 28 29  1  0
 29 30  1  0
 29 51  1  0
 29 52  1  0
 30 31  1  0
 31 32  1  0
 31 53  1  6
 32 54  1  6
M  END
>  <i_m_ct_stereo_status>  (53) 
1

>  <s_m_source_file>  (53) 
/var/tmp/pbs.5102103.sched01/tmpf9vmf5rd/00u30c83p.sdf

>  <i_m_source_file_index>  (53) 
22

>  <i_lp_mmshare_version>  (53) 
48012

>  <i_f3d_flags>  (53) 
2

>  <s_epik_input>  (53) 
Tz1DMU9bQ0BASF0oTzIpW0NAQEhdM1tDQEhdKE9DKE80KT1PKVtDQF0zKFtDSF0oW0NIM10pW0NIM10pL1tDSF09W0NIXS9bQ0BdKFtDSDNdKShDNT1PKVtDQEBIXTZPW0NIMl1PW0NIMl1bQ0hdKEM3PU8pQzI3W0NASF02QzE0NQ==

>  <s_epik_cmdline>  (53) 
J2VwaWtfcHl0aG9uJywgJy1waHQnLCAnMi4wJywgJy1waCcsICc3LjAnLCAnLXRuJywgJzgnLCAnLW1hJywgJzIwMCcsICctaW1hZScsICc8aW5maWxlLm1hZT4nLCAnLW9tYWUnLCAnPG91dGZpbGUubWFlPic=

>  <r_lp_tautomer_probability>  (53) 
1

>  <r_epik_Ionization_Penalty>  (53) 
5.60078e-09

>  <r_epik_Ionization_Penalty_Charging>  (53) 
0

>  <r_epik_Ionization_Penalty_Neutral>  (53) 
5.60078e-09

>  <r_epik_State_Penalty>  (53) 
-0

>  <r_epik_Charging_Adjusted_Penalty>  (53) 
0

>  <i_epik_Tot_Q>  (53) 
0

>  <i_epik_Tot_abs_Q>  (53) 
0

>  <s_epik_Chemistry_Notes>  (53) 
This compound has an ester and may undergo hydrolysis at high or low pH. This compound contains an acetal/aminal-like group ( X-CH(R)-Y where X, Y are N, S, or O) that may be acid/base labile, releasing an aldehyde.

>  <s_lp_Force_Field>  (53) 
OPLS3e

>  <r_lp_Energy>  (53) 
180.542

>  <b_lp_Chiralities_Consistent>  (53) 
0

>  <s_lp_Variant>  (53) 
16:0-1

>  <s_i_glide_gridfile>  (53) 
pfpi4k_grid

>  <i_i_glide_lignum>  (53) 
22

>  <i_i_glide_rotatable_bonds>  (53) 
1

>  <r_i_docking_score>  (53) 
-2.62261

>  <r_i_glide_ligand_efficiency>  (53) 
-0.0819565

>  <r_i_glide_ligand_efficiency_sa>  (53) 
-0.260196

>  <r_i_glide_ligand_efficiency_ln>  (53) 
-0.587273

>  <r_i_glide_gscore>  (53) 
-2.62261

>  <r_i_glide_lipo>  (53) 
-0.445683

>  <r_i_glide_hbond>  (53) 
-0.0140417

>  <r_i_glide_metal>  (53) 
-0

>  <r_i_glide_rewards>  (53) 
-0.633921

>  <r_i_glide_evdw>  (53) 
-16.8962

>  <r_i_glide_ecoul>  (53) 
-4.06851

>  <r_i_glide_erotb>  (53) 
0

>  <r_i_glide_esite>  (53) 
-0.0738748

>  <r_i_glide_emodel>  (53) 
-19.2713

>  <r_i_glide_energy>  (53) 
-20.9647

>  <r_i_glide_einternal>  (53) 
7.12948

>  <r_i_glide_intrahb_reward>  (53) 
-0

>  <i_i_glide_confnum>  (53) 
1

>  <i_i_glide_posenum>  (53) 
1

>  <r_i_glide_eff_state_penalty>  (53) 
0

>  <ligand_id>  (53) 
16

>  <original_smiles>  (53) 
CC(C)C12C=CC3(C)C(=O)C45OC(=O)OC1C2C(OC4=O)OC12C(=O)C1COCOC3C52

>  <smiles>  (53) 
[H]C1=C([H])C2(C([H])(C([H])([H])[H])C([H])([H])[H])C3([H])OC(=O)OC45C(=O)OC([H])(OC67C(=O)C6([H])C([H])([H])OC([H])([H])OC([H])(C1(C([H])([H])[H])C4=O)C57[H])C32[H]

$$$$
16:0:2
     RDKit          3D

 54 60  0  0  1  0  0  0  0  0999 V2000
    4.1946    0.6370    4.0165 C   0  0  0  0  0  0  0  0  0  0  0  0
    3.6811    0.0180    2.6890 C   0  0  0  0  0  0  0  0  0  0  0  0
    2.2318    0.4702    2.4297 C   0  0  0  0  0  0  0  0  0  0  0  0
    3.8873   -1.5088    2.5978 C   0  0  1  0  0  0  0  0  0  0  0  0
    5.0827   -1.8305    1.6891 C   0  0  0  0  0  0  0  0  0  0  0  0
    6.2140   -2.5176    1.9609 C   0  0  0  0  0  0  0  0  0  0  0  0
    6.8055   -3.7684    1.1624 C   0  0  1  0  0  0  0  0  0  0  0  0
    8.3550   -3.8219    1.0675 C   0  0  0  0  0  0  0  0  0  0  0  0
    6.2184   -5.1189    1.7121 C   0  0  0  0  0  0  0  0  0  0  0  0
    6.8216   -6.1390    2.0436 O   0  0  0  0  0  0  0  0  0  0  0  0
    4.7206   -4.9644    1.6613 C   0  0  2  0  0  0  0  0  0  0  0  0
    4.5443   -4.2022    2.8195 O   0  0  0  0  0  0  0  0  0  0  0  0
    4.6311   -4.3938    4.1200 C   0  0  0  0  0  0  0  0  0  0  0  0
    5.1246   -5.3445    4.7188 O   0  0  0  0  0  0  0  0  0  0  0  0
    4.1016   -3.2734    4.6280 O   0  0  0  0  0  0  0  0  0  0  0  0
    3.3524   -2.2798    3.8630 C   0  0  2  0  0  0  0  0  0  0  0  0
    2.6126   -2.4881    2.5287 C   0  0  2  0  0  0  0  0  0  0  0  0
    2.2433   -3.8284    1.7328 C   0  0  2  0  0  0  0  0  0  0  0  0
    2.4072   -5.1950    2.1882 O   0  0  0  0  0  0  0  0  0  0  0  0
    3.5663   -5.9370    1.8464 C   0  0  0  0  0  0  0  0  0  0  0  0
    3.6581   -7.1483    1.7870 O   0  0  0  0  0  0  0  0  0  0  0  0
    2.2149   -3.6937    0.3341 O   0  0  0  0  0  0  0  0  0  0  0  0
    3.4833   -3.5618   -0.3422 C   0  0  2  0  0  0  0  0  0  0  0  0
    3.5388   -2.2796   -1.1488 C   0  0  0  0  0  0  0  0  0  0  0  0
    3.6943   -1.0528   -1.2081 O   0  0  0  0  0  0  0  0  0  0  0  0
    3.3098   -3.5401   -1.8703 C   0  0  1  0  0  0  0  0  0  0  0  0
    4.3904   -3.9396   -2.8769 C   0  0  0  0  0  0  0  0  0  0  0  0
    5.3435   -2.9109   -3.1092 O   0  0  0  0  0  0  0  0  0  0  0  0
    6.5110   -2.9845   -2.3512 C   0  0  0  0  0  0  0  0  0  0  0  0
    6.2916   -2.7385   -0.9712 O   0  0  0  0  0  0  0  0  0  0  0  0
    6.1021   -3.8970   -0.1763 C   0  0  2  0  0  0  0  0  0  0  0  0
    4.6670   -4.4092    0.1717 C   0  0  1  0  0  0  0  0  0  0  0  0
    3.6239    0.3070    4.8816 H   0  0  0  0  0  0  0  0  0  0  0  0
    4.1000    1.7209    3.9875 H   0  0  0  0  0  0  0  0  0  0  0  0
    5.2421    0.3938    4.2014 H   0  0  0  0  0  0  0  0  0  0  0  0
    4.2740    0.4598    1.8827 H   0  0  0  0  0  0  0  0  0  0  0  0
    1.5665    0.1174    3.2218 H   0  0  0  0  0  0  0  0  0  0  0  0
    1.8755    0.0603    1.4763 H   0  0  0  0  0  0  0  0  0  0  0  0
    2.1259    1.5429    2.3783 H   0  0  0  0  0  0  0  0  0  0  0  0
    4.8500   -1.7363    0.6641 H   0  0  0  0  0  0  0  0  0  0  0  0
    6.3333   -2.6061    3.0164 H   0  0  0  0  0  0  0  0  0  0  0  0
    8.8498   -3.8975    2.0597 H   0  0  0  0  0  0  0  0  0  0  0  0
    8.7496   -2.9211    0.5910 H   0  0  0  0  0  0  0  0  0  0  0  0
    8.7192   -4.6780    0.4696 H   0  0  0  0  0  0  0  0  0  0  0  0
    2.8033   -1.6960    4.5947 H   0  0  0  0  0  0  0  0  0  0  0  0
    1.6627   -1.9675    2.5482 H   0  0  0  0  0  0  0  0  0  0  0  0
    1.2280   -3.8349    2.0832 H   0  0  0  0  0  0  0  0  0  0  0  0
    2.3083   -3.7636   -2.2130 H   0  0  0  0  0  0  0  0  0  0  0  0
    4.8786   -4.8637   -2.5727 H   0  0  0  0  0  0  0  0  0  0  0  0
    3.8895   -4.1552   -3.8169 H   0  0  0  0  0  0  0  0  0  0  0  0
    7.0846   -3.8642   -2.5575 H   0  0  0  0  0  0  0  0  0  0  0  0
    7.1681   -2.2495   -2.6777 H   0  0  0  0  0  0  0  0  0  0  0  0
    6.5996   -4.7112   -0.6948 H   0  0  0  0  0  0  0  0  0  0  0  0
    4.5714   -5.3277   -0.4168 H   0  0  0  0  0  0  0  0  0  0  0  0
  1  2  1  0
  1 33  1  0
  1 34  1  0
  1 35  1  0
  2  3  1  0
  4  2  1  1
  2 36  1  0
  3 37  1  0
  3 38  1  0
  3 39  1  0
  4 16  1  0
  4 17  1  0
  4  5  1  0
  5  6  2  3
  5 40  1  0
  6  7  1  0
  6 41  1  0
  7 31  1  0
  7  8  1  6
  7  9  1  0
  8 42  1  0
  8 43  1  0
  8 44  1  0
  9 10  2  0
  9 11  1  0
 11 20  1  0
 11 32  1  0
 11 12  1  1
 12 13  1  0
 13 14  2  0
 13 15  1  0
 15 16  1  0
 16 17  1  0
 16 45  1  1
 17 18  1  0
 17 46  1  1
 18 19  1  0
 18 22  1  0
 18 47  1  1
 19 20  1  0
 20 21  2  0
 22 23  1  0
 23 26  1  0
 23 32  1  0
 23 24  1  1
 24 25  2  0
 24 26  1  0
 26 27  1  0
 26 48  1  1
 27 28  1  0
 27 49  1  0
 27 50  1  0
 28 29  1  0
 29 30  1  0
 29 51  1  0
 29 52  1  0
 30 31  1  0
 31 32  1  0
 31 53  1  6
 32 54  1  6
M  END
>  <i_m_ct_stereo_status>  (54) 
1

>  <s_m_source_file>  (54) 
/var/tmp/pbs.5102103.sched01/tmpf9vmf5rd/00u30c83p.sdf

>  <i_m_source_file_index>  (54) 
22

>  <i_lp_mmshare_version>  (54) 
48012

>  <i_f3d_flags>  (54) 
2

>  <s_epik_input>  (54) 
Tz1DMU9bQ0BASF0oTzIpW0NAQEhdM1tDQEhdKE9DKE80KT1PKVtDQF0zKFtDSF0oW0NIM10pW0NIM10pL1tDSF09W0NIXS9bQ0BdKFtDSDNdKShDNT1PKVtDQEBIXTZPW0NIMl1PW0NIMl1bQ0hdKEM3PU8pQzI3W0NASF02QzE0NQ==

>  <s_epik_cmdline>  (54) 
J2VwaWtfcHl0aG9uJywgJy1waHQnLCAnMi4wJywgJy1waCcsICc3LjAnLCAnLXRuJywgJzgnLCAnLW1hJywgJzIwMCcsICctaW1hZScsICc8aW5maWxlLm1hZT4nLCAnLW9tYWUnLCAnPG91dGZpbGUubWFlPic=

>  <r_lp_tautomer_probability>  (54) 
1

>  <r_epik_Ionization_Penalty>  (54) 
5.60078e-09

>  <r_epik_Ionization_Penalty_Charging>  (54) 
0

>  <r_epik_Ionization_Penalty_Neutral>  (54) 
5.60078e-09

>  <r_epik_State_Penalty>  (54) 
-0

>  <r_epik_Charging_Adjusted_Penalty>  (54) 
0

>  <i_epik_Tot_Q>  (54) 
0

>  <i_epik_Tot_abs_Q>  (54) 
0

>  <s_epik_Chemistry_Notes>  (54) 
This compound has an ester and may undergo hydrolysis at high or low pH. This compound contains an acetal/aminal-like group ( X-CH(R)-Y where X, Y are N, S, or O) that may be acid/base labile, releasing an aldehyde.

>  <s_lp_Force_Field>  (54) 
OPLS3e

>  <r_lp_Energy>  (54) 
180.542

>  <b_lp_Chiralities_Consistent>  (54) 
0

>  <s_lp_Variant>  (54) 
16:0-1

>  <s_i_glide_gridfile>  (54) 
pfpi4k_grid

>  <i_i_glide_lignum>  (54) 
22

>  <i_i_glide_rotatable_bonds>  (54) 
1

>  <r_i_docking_score>  (54) 
-2.49832

>  <r_i_glide_ligand_efficiency>  (54) 
-0.0780725

>  <r_i_glide_ligand_efficiency_sa>  (54) 
-0.247865

>  <r_i_glide_ligand_efficiency_ln>  (54) 
-0.559442

>  <r_i_glide_gscore>  (54) 
-2.49832

>  <r_i_glide_lipo>  (54) 
-0.428443

>  <r_i_glide_hbond>  (54) 
0

>  <r_i_glide_metal>  (54) 
-0

>  <r_i_glide_rewards>  (54) 
-0.512901

>  <r_i_glide_evdw>  (54) 
-16.5812

>  <r_i_glide_ecoul>  (54) 
-4.36054

>  <r_i_glide_erotb>  (54) 
0

>  <r_i_glide_esite>  (54) 
-0.0738335

>  <r_i_glide_emodel>  (54) 
-18.4821

>  <r_i_glide_energy>  (54) 
-20.9418

>  <r_i_glide_einternal>  (54) 
5.7807

>  <r_i_glide_intrahb_reward>  (54) 
-0

>  <i_i_glide_confnum>  (54) 
2

>  <i_i_glide_posenum>  (54) 
38

>  <r_i_glide_eff_state_penalty>  (54) 
0

>  <ligand_id>  (54) 
16

>  <original_smiles>  (54) 
CC(C)C12C=CC3(C)C(=O)C45OC(=O)OC1C2C(OC4=O)OC12C(=O)C1COCOC3C52

>  <smiles>  (54) 
[H]C1=C([H])C2(C([H])(C([H])([H])[H])C([H])([H])[H])C3([H])OC(=O)OC45C(=O)OC([H])(OC67C(=O)C6([H])C([H])([H])OC([H])([H])OC([H])(C1(C([H])([H])[H])C4=O)C57[H])C32[H]

$$$$
16:1:0
     RDKit          3D

 54 60  0  0  1  0  0  0  0  0999 V2000
    3.9516   -0.3584    4.5445 C   0  0  0  0  0  0  0  0  0  0  0  0
    5.0776   -1.2112    3.8970 C   0  0  0  0  0  0  0  0  0  0  0  0
    5.8197   -0.3539    2.8609 C   0  0  0  0  0  0  0  0  0  0  0  0
    4.6020   -2.5983    3.3390 C   0  0  1  0  0  0  0  0  0  0  0  0
    5.6037   -3.1598    2.2858 C   0  0  0  0  0  0  0  0  0  0  0  0
    6.3452   -4.3082    2.0933 C   0  0  0  0  0  0  0  0  0  0  0  0
    6.2878   -5.3271    0.9177 C   0  0  1  0  0  0  0  0  0  0  0  0
    7.7187   -5.9280    0.6645 C   0  0  0  0  0  0  0  0  0  0  0  0
    5.1578   -6.3955    1.1143 C   0  0  0  0  0  0  0  0  0  0  0  0
    5.2805   -7.5996    1.0587 O   0  0  0  0  0  0  0  0  0  0  0  0
    3.8838   -5.5498    1.3050 C   0  0  2  0  0  0  0  0  0  0  0  0
    4.0095   -5.1786    2.6509 O   0  0  0  0  0  0  0  0  0  0  0  0
    4.0269   -5.7960    3.8236 C   0  0  0  0  0  0  0  0  0  0  0  0
    4.0747   -6.9886    4.0613 O   0  0  0  0  0  0  0  0  0  0  0  0
    3.9950   -4.7857    4.7087 O   0  0  0  0  0  0  0  0  0  0  0  0
    3.7685   -3.3856    4.3820 C   0  0  2  0  0  0  0  0  0  0  0  0
    3.0385   -2.8145    3.1476 C   0  0  2  0  0  0  0  0  0  0  0  0
    2.1013   -3.5030    2.0342 C   0  0  2  0  0  0  0  0  0  0  0  0
    1.6924   -4.9006    2.0768 O   0  0  0  0  0  0  0  0  0  0  0  0
    2.4167   -5.8937    1.3646 C   0  0  0  0  0  0  0  0  0  0  0  0
    1.9208   -6.9450    0.9398 O   0  0  0  0  0  0  0  0  0  0  0  0
    2.2372   -2.9876    0.7423 O   0  0  0  0  0  0  0  0  0  0  0  0
    3.4332   -3.1656   -0.0026 C   0  0  2  0  0  0  0  0  0  0  0  0
    4.0148   -1.8306   -0.4254 C   0  0  0  0  0  0  0  0  0  0  0  0
    4.6237   -0.7877   -0.1633 O   0  0  0  0  0  0  0  0  0  0  0  0
    3.2739   -2.6041   -1.4417 C   0  0  1  0  0  0  0  0  0  0  0  0
    4.0968   -3.0859   -2.6460 C   0  0  0  0  0  0  0  0  0  0  0  0
    5.3995   -2.5124   -2.6904 O   0  0  0  0  0  0  0  0  0  0  0  0
    6.4364   -3.2531   -2.1305 C   0  0  0  0  0  0  0  0  0  0  0  0
    6.3252   -3.4566   -0.7450 O   0  0  0  0  0  0  0  0  0  0  0  0
    5.6395   -4.6452   -0.3110 C   0  0  2  0  0  0  0  0  0  0  0  0
    4.1297   -4.5521    0.0812 C   0  0  1  0  0  0  0  0  0  0  0  0
    3.2149   -0.0334    3.8076 H   0  0  0  0  0  0  0  0  0  0  0  0
    4.3275    0.5498    5.0124 H   0  0  0  0  0  0  0  0  0  0  0  0
    3.4157   -0.8916    5.3277 H   0  0  0  0  0  0  0  0  0  0  0  0
    5.7900   -1.3996    4.7021 H   0  0  0  0  0  0  0  0  0  0  0  0
    5.1596   -0.0657    2.0487 H   0  0  0  0  0  0  0  0  0  0  0  0
    6.6774   -0.8734    2.4371 H   0  0  0  0  0  0  0  0  0  0  0  0
    6.2127    0.5607    3.2997 H   0  0  0  0  0  0  0  0  0  0  0  0
    5.5609   -2.5799    1.3972 H   0  0  0  0  0  0  0  0  0  0  0  0
    7.0727   -3.9084    1.4781 H   0  0  0  0  0  0  0  0  0  0  0  0
    8.1152   -6.4213    1.5513 H   0  0  0  0  0  0  0  0  0  0  0  0
    8.4455   -5.1413    0.4209 H   0  0  0  0  0  0  0  0  0  0  0  0
    7.7624   -6.6270   -0.1539 H   0  0  0  0  0  0  0  0  0  0  0  0
    3.5904   -2.8969    5.3365 H   0  0  0  0  0  0  0  0  0  0  0  0
    2.4763   -1.9204    3.3747 H   0  0  0  0  0  0  0  0  0  0  0  0
    1.1293   -3.0829    2.3075 H   0  0  0  0  0  0  0  0  0  0  0  0
    2.3061   -2.1999   -1.7408 H   0  0  0  0  0  0  0  0  0  0  0  0
    4.1233   -4.1730   -2.7237 H   0  0  0  0  0  0  0  0  0  0  0  0
    3.5931   -2.7520   -3.5537 H   0  0  0  0  0  0  0  0  0  0  0  0
    6.5940   -4.1602   -2.7101 H   0  0  0  0  0  0  0  0  0  0  0  0
    7.3343   -2.6526   -2.2782 H   0  0  0  0  0  0  0  0  0  0  0  0
    5.7305   -5.3683   -1.1144 H   0  0  0  0  0  0  0  0  0  0  0  0
    3.6425   -5.0711   -0.7370 H   0  0  0  0  0  0  0  0  0  0  0  0
  1  2  1  0
  1 33  1  0
  1 34  1  0
  1 35  1  0
  2  3  1  0
  4  2  1  1
  2 36  1  0
  3 37  1  0
  3 38  1  0
  3 39  1  0
  4 16  1  0
  4 17  1  0
  4  5  1  0
  5  6  2  3
  5 40  1  0
  6  7  1  0
  6 41  1  0
  7 31  1  0
  7  8  1  6
  7  9  1  0
  8 42  1  0
  8 43  1  0
  8 44  1  0
  9 10  2  0
  9 11  1  0
 11 20  1  0
 11 32  1  0
 11 12  1  1
 12 13  1  0
 13 14  2  0
 13 15  1  0
 15 16  1  0
 16 17  1  0
 16 45  1  1
 17 18  1  0
 17 46  1  1
 18 19  1  0
 18 22  1  0
 18 47  1  1
 19 20  1  0
 20 21  2  0
 22 23  1  0
 23 26  1  0
 23 32  1  0
 23 24  1  1
 24 25  2  0
 24 26  1  0
 26 27  1  0
 26 48  1  6
 27 28  1  0
 27 49  1  0
 27 50  1  0
 28 29  1  0
 29 30  1  0
 29 51  1  0
 29 52  1  0
 30 31  1  0
 31 32  1  0
 31 53  1  6
 32 54  1  6
M  END
>  <i_m_ct_stereo_status>  (55) 
1

>  <s_m_source_file>  (55) 
/var/tmp/pbs.5102103.sched01/tmp13xrk0lu/22amefgkkz.sdf

>  <i_m_source_file_index>  (55) 
1

>  <i_lp_mmshare_version>  (55) 
48012

>  <i_f3d_flags>  (55) 
3

>  <s_epik_input>  (55) 
Tz1DMU9bQ0BASF0oTzIpW0NAQEhdM1tDQEhdKE9DKE80KT1PKVtDQF0zKFtDSF0oW0NIM10pW0NIM10pL1tDSF09W0NIXS9bQ0BdKFtDSDNdKShDNT1PKVtDQEBIXTZPW0NIMl1PW0NIMl1bQ0hdKEM3PU8pQzI3W0NASF02QzE0NQ==

>  <s_epik_cmdline>  (55) 
J2VwaWtfcHl0aG9uJywgJy1waHQnLCAnMi4wJywgJy1waCcsICc3LjAnLCAnLXRuJywgJzgnLCAnLW1hJywgJzIwMCcsICctaW1hZScsICc8aW5maWxlLm1hZT4nLCAnLW9tYWUnLCAnPG91dGZpbGUubWFlPic=

>  <r_lp_tautomer_probability>  (55) 
1

>  <r_epik_Ionization_Penalty>  (55) 
5.60078e-09

>  <r_epik_Ionization_Penalty_Charging>  (55) 
0

>  <r_epik_Ionization_Penalty_Neutral>  (55) 
5.60078e-09

>  <r_epik_State_Penalty>  (55) 
-0

>  <r_epik_Charging_Adjusted_Penalty>  (55) 
0

>  <i_epik_Tot_Q>  (55) 
0

>  <i_epik_Tot_abs_Q>  (55) 
0

>  <s_epik_Chemistry_Notes>  (55) 
This compound has an ester and may undergo hydrolysis at high or low pH. This compound contains an acetal/aminal-like group ( X-CH(R)-Y where X, Y are N, S, or O) that may be acid/base labile, releasing an aldehyde.

>  <s_lp_Force_Field>  (55) 
OPLS3e

>  <r_lp_Energy>  (55) 
180.542

>  <b_lp_Chiralities_Consistent>  (55) 
0

>  <s_lp_Variant>  (55) 
16:0-2

>  <s_i_glide_gridfile>  (55) 
pfpi4k_grid

>  <i_i_glide_lignum>  (55) 
1

>  <i_i_glide_rotatable_bonds>  (55) 
1

>  <r_i_docking_score>  (55) 
-2.68746

>  <r_i_glide_ligand_efficiency>  (55) 
-0.0839831

>  <r_i_glide_ligand_efficiency_sa>  (55) 
-0.26663

>  <r_i_glide_ligand_efficiency_ln>  (55) 
-0.601795

>  <r_i_glide_gscore>  (55) 
-2.68746

>  <r_i_glide_lipo>  (55) 
-0.446787

>  <r_i_glide_hbond>  (55) 
-0.0225294

>  <r_i_glide_metal>  (55) 
-0

>  <r_i_glide_rewards>  (55) 
-0.681492

>  <r_i_glide_evdw>  (55) 
-16.7525

>  <r_i_glide_ecoul>  (55) 
-4.19068

>  <r_i_glide_erotb>  (55) 
0

>  <r_i_glide_esite>  (55) 
-0.0704237

>  <r_i_glide_emodel>  (55) 
-17.3168

>  <r_i_glide_energy>  (55) 
-20.9432

>  <r_i_glide_einternal>  (55) 
6.26866

>  <r_i_glide_intrahb_reward>  (55) 
-0

>  <i_i_glide_confnum>  (55) 
2

>  <i_i_glide_posenum>  (55) 
25

>  <r_i_glide_eff_state_penalty>  (55) 
0

>  <ligand_id>  (55) 
16

>  <original_smiles>  (55) 
CC(C)C12C=CC3(C)C(=O)C45OC(=O)OC1C2C(OC4=O)OC12C(=O)C1COCOC3C52

>  <smiles>  (55) 
[H]C1=C([H])C2(C([H])(C([H])([H])[H])C([H])([H])[H])C3([H])OC(=O)OC45C(=O)OC([H])(OC67C(=O)C6([H])C([H])([H])OC([H])([H])OC([H])(C1(C([H])([H])[H])C4=O)C57[H])C32[H]

$$$$
16:1:1
     RDKit          3D

 54 60  0  0  1  0  0  0  0  0999 V2000
    5.3305   -0.1967    4.7863 C   0  0  0  0  0  0  0  0  0  0  0  0
    4.8179   -0.4177    3.3449 C   0  0  0  0  0  0  0  0  0  0  0  0
    3.6265    0.5226    3.0698 C   0  0  0  0  0  0  0  0  0  0  0  0
    4.5079   -1.9079    3.0012 C   0  0  1  0  0  0  0  0  0  0  0  0
    5.5815   -2.4584    1.9998 C   0  0  0  0  0  0  0  0  0  0  0  0
    6.4164   -3.5434    1.9417 C   0  0  0  0  0  0  0  0  0  0  0  0
    6.4692   -4.7407    0.9200 C   0  0  1  0  0  0  0  0  0  0  0  0
    7.9602   -5.2220    0.7142 C   0  0  0  0  0  0  0  0  0  0  0  0
    5.4650   -5.8856    1.2818 C   0  0  0  0  0  0  0  0  0  0  0  0
    5.7253   -7.0756    1.3793 O   0  0  0  0  0  0  0  0  0  0  0  0
    4.1159   -5.1731    1.3763 C   0  0  2  0  0  0  0  0  0  0  0  0
    4.2359   -4.6070    2.6529 O   0  0  0  0  0  0  0  0  0  0  0  0
    4.2936   -5.0579    3.9038 C   0  0  0  0  0  0  0  0  0  0  0  0
    4.4733   -6.2060    4.3067 O   0  0  0  0  0  0  0  0  0  0  0  0
    4.1503   -3.9522    4.6535 O   0  0  0  0  0  0  0  0  0  0  0  0
    3.7552   -2.6412    4.1454 C   0  0  2  0  0  0  0  0  0  0  0  0
    2.9740   -2.3364    2.8672 C   0  0  2  0  0  0  0  0  0  0  0  0
    2.1068   -3.2647    1.8571 C   0  0  2  0  0  0  0  0  0  0  0  0
    1.8474   -4.6759    2.0817 O   0  0  0  0  0  0  0  0  0  0  0  0
    2.6844   -5.6801    1.5156 C   0  0  0  0  0  0  0  0  0  0  0  0
    2.3230   -6.8318    1.2579 O   0  0  0  0  0  0  0  0  0  0  0  0
    2.1763   -2.9187    0.5015 O   0  0  0  0  0  0  0  0  0  0  0  0
    3.3466   -3.0633   -0.2099 C   0  0  2  0  0  0  0  0  0  0  0  0
    3.8332   -1.7281   -0.8026 C   0  0  0  0  0  0  0  0  0  0  0  0
    4.3461   -0.6628   -0.6716 O   0  0  0  0  0  0  0  0  0  0  0  0
    3.1605   -2.7100   -1.7162 C   0  0  1  0  0  0  0  0  0  0  0  0
    4.0355   -3.2451   -2.8687 C   0  0  0  0  0  0  0  0  0  0  0  0
    5.2666   -2.5480   -3.0058 O   0  0  0  0  0  0  0  0  0  0  0  0
    6.3772   -3.0897   -2.3679 C   0  0  0  0  0  0  0  0  0  0  0  0
    6.2947   -3.1123   -0.9718 O   0  0  0  0  0  0  0  0  0  0  0  0
    5.7314   -4.3050   -0.3844 C   0  0  2  0  0  0  0  0  0  0  0  0
    4.2152   -4.3278    0.0297 C   0  0  1  0  0  0  0  0  0  0  0  0
    4.5795   -0.4182    5.5446 H   0  0  0  0  0  0  0  0  0  0  0  0
    5.6156    0.8460    4.9548 H   0  0  0  0  0  0  0  0  0  0  0  0
    6.2056   -0.8025    5.0065 H   0  0  0  0  0  0  0  0  0  0  0  0
    5.6210   -0.0713    2.6970 H   0  0  0  0  0  0  0  0  0  0  0  0
    2.7873    0.3307    3.7422 H   0  0  0  0  0  0  0  0  0  0  0  0
    3.2731    0.4076    2.0418 H   0  0  0  0  0  0  0  0  0  0  0  0
    3.8524    1.5765    3.2203 H   0  0  0  0  0  0  0  0  0  0  0  0
    5.4548   -2.0080    1.0391 H   0  0  0  0  0  0  0  0  0  0  0  0
    7.0907   -3.2079    1.3056 H   0  0  0  0  0  0  0  0  0  0  0  0
    8.3948   -5.5378    1.6598 H   0  0  0  0  0  0  0  0  0  0  0  0
    8.5861   -4.3865    0.3533 H   0  0  0  0  0  0  0  0  0  0  0  0
    8.0347   -6.0210    0.0025 H   0  0  0  0  0  0  0  0  0  0  0  0
    3.4893   -2.0448    5.0134 H   0  0  0  0  0  0  0  0  0  0  0  0
    2.3030   -1.4995    2.9995 H   0  0  0  0  0  0  0  0  0  0  0  0
    1.1076   -2.9062    2.0916 H   0  0  0  0  0  0  0  0  0  0  0  0
    2.1618   -2.4515   -2.0362 H   0  0  0  0  0  0  0  0  0  0  0  0
    4.2118   -4.3125   -2.7969 H   0  0  0  0  0  0  0  0  0  0  0  0
    3.4816   -3.1030   -3.8029 H   0  0  0  0  0  0  0  0  0  0  0  0
    6.6431   -4.0440   -2.8045 H   0  0  0  0  0  0  0  0  0  0  0  0
    7.1996   -2.4246   -2.6072 H   0  0  0  0  0  0  0  0  0  0  0  0
    5.8420   -5.1068   -1.1020 H   0  0  0  0  0  0  0  0  0  0  0  0
    3.8102   -5.0175   -0.7127 H   0  0  0  0  0  0  0  0  0  0  0  0
  1  2  1  0
  1 33  1  0
  1 34  1  0
  1 35  1  0
  2  3  1  0
  4  2  1  1
  2 36  1  0
  3 37  1  0
  3 38  1  0
  3 39  1  0
  4 16  1  0
  4 17  1  0
  4  5  1  0
  5  6  2  3
  5 40  1  0
  6  7  1  0
  6 41  1  0
  7 31  1  0
  7  8  1  6
  7  9  1  0
  8 42  1  0
  8 43  1  0
  8 44  1  0
  9 10  2  0
  9 11  1  0
 11 20  1  0
 11 32  1  0
 11 12  1  1
 12 13  1  0
 13 14  2  0
 13 15  1  0
 15 16  1  0
 16 17  1  0
 16 45  1  1
 17 18  1  0
 17 46  1  1
 18 19  1  0
 18 22  1  0
 18 47  1  1
 19 20  1  0
 20 21  2  0
 22 23  1  0
 23 26  1  0
 23 32  1  0
 23 24  1  1
 24 25  2  0
 24 26  1  0
 26 27  1  0
 26 48  1  6
 27 28  1  0
 27 49  1  0
 27 50  1  0
 28 29  1  0
 29 30  1  0
 29 51  1  0
 29 52  1  0
 30 31  1  0
 31 32  1  0
 31 53  1  6
 32 54  1  6
M  END
>  <i_m_ct_stereo_status>  (56) 
1

>  <s_m_source_file>  (56) 
/var/tmp/pbs.5102103.sched01/tmp13xrk0lu/22amefgkkz.sdf

>  <i_m_source_file_index>  (56) 
1

>  <i_lp_mmshare_version>  (56) 
48012

>  <i_f3d_flags>  (56) 
3

>  <s_epik_input>  (56) 
Tz1DMU9bQ0BASF0oTzIpW0NAQEhdM1tDQEhdKE9DKE80KT1PKVtDQF0zKFtDSF0oW0NIM10pW0NIM10pL1tDSF09W0NIXS9bQ0BdKFtDSDNdKShDNT1PKVtDQEBIXTZPW0NIMl1PW0NIMl1bQ0hdKEM3PU8pQzI3W0NASF02QzE0NQ==

>  <s_epik_cmdline>  (56) 
J2VwaWtfcHl0aG9uJywgJy1waHQnLCAnMi4wJywgJy1waCcsICc3LjAnLCAnLXRuJywgJzgnLCAnLW1hJywgJzIwMCcsICctaW1hZScsICc8aW5maWxlLm1hZT4nLCAnLW9tYWUnLCAnPG91dGZpbGUubWFlPic=

>  <r_lp_tautomer_probability>  (56) 
1

>  <r_epik_Ionization_Penalty>  (56) 
5.60078e-09

>  <r_epik_Ionization_Penalty_Charging>  (56) 
0

>  <r_epik_Ionization_Penalty_Neutral>  (56) 
5.60078e-09

>  <r_epik_State_Penalty>  (56) 
-0

>  <r_epik_Charging_Adjusted_Penalty>  (56) 
0

>  <i_epik_Tot_Q>  (56) 
0

>  <i_epik_Tot_abs_Q>  (56) 
0

>  <s_epik_Chemistry_Notes>  (56) 
This compound has an ester and may undergo hydrolysis at high or low pH. This compound contains an acetal/aminal-like group ( X-CH(R)-Y where X, Y are N, S, or O) that may be acid/base labile, releasing an aldehyde.

>  <s_lp_Force_Field>  (56) 
OPLS3e

>  <r_lp_Energy>  (56) 
180.542

>  <b_lp_Chiralities_Consistent>  (56) 
0

>  <s_lp_Variant>  (56) 
16:0-2

>  <s_i_glide_gridfile>  (56) 
pfpi4k_grid

>  <i_i_glide_lignum>  (56) 
1

>  <i_i_glide_rotatable_bonds>  (56) 
1

>  <r_i_docking_score>  (56) 
-2.39712

>  <r_i_glide_ligand_efficiency>  (56) 
-0.07491

>  <r_i_glide_ligand_efficiency_sa>  (56) 
-0.237824

>  <r_i_glide_ligand_efficiency_ln>  (56) 
-0.53678

>  <r_i_glide_gscore>  (56) 
-2.39712

>  <r_i_glide_lipo>  (56) 
-0.599517

>  <r_i_glide_hbond>  (56) 
-0.0198034

>  <r_i_glide_metal>  (56) 
-0

>  <r_i_glide_rewards>  (56) 
-0.610119

>  <r_i_glide_evdw>  (56) 
-14.9211

>  <r_i_glide_ecoul>  (56) 
-4.50609

>  <r_i_glide_erotb>  (56) 
0

>  <r_i_glide_esite>  (56) 
-0.0877206

>  <r_i_glide_emodel>  (56) 
-13.4298

>  <r_i_glide_energy>  (56) 
-19.4272

>  <r_i_glide_einternal>  (56) 
6.43354

>  <r_i_glide_intrahb_reward>  (56) 
-0

>  <i_i_glide_confnum>  (56) 
2

>  <i_i_glide_posenum>  (56) 
4

>  <r_i_glide_eff_state_penalty>  (56) 
0

>  <ligand_id>  (56) 
16

>  <original_smiles>  (56) 
CC(C)C12C=CC3(C)C(=O)C45OC(=O)OC1C2C(OC4=O)OC12C(=O)C1COCOC3C52

>  <smiles>  (56) 
[H]C1=C([H])C2(C([H])(C([H])([H])[H])C([H])([H])[H])C3([H])OC(=O)OC45C(=O)OC([H])(OC67C(=O)C6([H])C([H])([H])OC([H])([H])OC([H])(C1(C([H])([H])[H])C4=O)C57[H])C32[H]

$$$$
16:1:2
     RDKit          3D

 54 60  0  0  1  0  0  0  0  0999 V2000
    3.3862    0.5972    4.1006 C   0  0  0  0  0  0  0  0  0  0  0  0
    3.9120    0.0383    2.7563 C   0  0  0  0  0  0  0  0  0  0  0  0
    3.0389    0.5765    1.6130 C   0  0  0  0  0  0  0  0  0  0  0  0
    4.0649   -1.5052    2.7071 C   0  0  1  0  0  0  0  0  0  0  0  0
    5.2624   -1.8954    1.8038 C   0  0  0  0  0  0  0  0  0  0  0  0
    6.3708   -2.6868    1.9562 C   0  0  0  0  0  0  0  0  0  0  0  0
    6.8463   -3.9647    1.1809 C   0  0  1  0  0  0  0  0  0  0  0  0
    8.4247   -4.0152    1.0293 C   0  0  0  0  0  0  0  0  0  0  0  0
    6.2251   -5.2693    1.7584 C   0  0  0  0  0  0  0  0  0  0  0  0
    6.8217   -6.2887    2.0779 O   0  0  0  0  0  0  0  0  0  0  0  0
    4.7073   -4.9915    1.7427 C   0  0  2  0  0  0  0  0  0  0  0  0
    4.5935   -4.1914    2.8823 O   0  0  0  0  0  0  0  0  0  0  0  0
    4.7493   -4.3605    4.1980 C   0  0  0  0  0  0  0  0  0  0  0  0
    5.2459   -5.2974    4.8059 O   0  0  0  0  0  0  0  0  0  0  0  0
    4.2614   -3.2267    4.7211 O   0  0  0  0  0  0  0  0  0  0  0  0
    3.5233   -2.2192    3.9848 C   0  0  2  0  0  0  0  0  0  0  0  0
    2.7234   -2.3755    2.6823 C   0  0  2  0  0  0  0  0  0  0  0  0
    2.2120   -3.6961    1.8868 C   0  0  2  0  0  0  0  0  0  0  0  0
    2.3658   -5.0580    2.3802 O   0  0  0  0  0  0  0  0  0  0  0  0
    3.4875   -5.8614    1.9957 C   0  0  0  0  0  0  0  0  0  0  0  0
    3.4964   -7.0949    1.9580 O   0  0  0  0  0  0  0  0  0  0  0  0
    2.2603   -3.6051    0.4958 O   0  0  0  0  0  0  0  0  0  0  0  0
    3.4635   -3.5251   -0.2243 C   0  0  2  0  0  0  0  0  0  0  0  0
    3.5064   -2.2675   -1.0791 C   0  0  0  0  0  0  0  0  0  0  0  0
    3.6794   -1.0638   -1.2246 O   0  0  0  0  0  0  0  0  0  0  0  0
    3.1979   -3.5417   -1.7489 C   0  0  1  0  0  0  0  0  0  0  0  0
    4.2451   -4.0019   -2.7878 C   0  0  0  0  0  0  0  0  0  0  0  0
    5.2270   -3.0183   -3.0866 O   0  0  0  0  0  0  0  0  0  0  0  0
    6.4132   -3.0810   -2.3704 C   0  0  0  0  0  0  0  0  0  0  0  0
    6.2833   -2.8615   -0.9932 O   0  0  0  0  0  0  0  0  0  0  0  0
    6.0784   -4.0311   -0.1760 C   0  0  2  0  0  0  0  0  0  0  0  0
    4.6111   -4.4242    0.2542 C   0  0  1  0  0  0  0  0  0  0  0  0
    2.3605    0.2694    4.2975 H   0  0  0  0  0  0  0  0  0  0  0  0
    3.3734    1.6877    4.1279 H   0  0  0  0  0  0  0  0  0  0  0  0
    4.0152    0.2698    4.9333 H   0  0  0  0  0  0  0  0  0  0  0  0
    4.8943    0.4911    2.6359 H   0  0  0  0  0  0  0  0  0  0  0  0
    2.0077    0.2285    1.6646 H   0  0  0  0  0  0  0  0  0  0  0  0
    3.4415    0.2718    0.6601 H   0  0  0  0  0  0  0  0  0  0  0  0
    3.0066    1.6660    1.6080 H   0  0  0  0  0  0  0  0  0  0  0  0
    5.0554   -1.7108    0.7691 H   0  0  0  0  0  0  0  0  0  0  0  0
    6.9662   -2.3457    1.2145 H   0  0  0  0  0  0  0  0  0  0  0  0
    8.9089   -4.0200    2.0049 H   0  0  0  0  0  0  0  0  0  0  0  0
    8.7951   -3.1208    0.5118 H   0  0  0  0  0  0  0  0  0  0  0  0
    8.7491   -4.8746    0.4686 H   0  0  0  0  0  0  0  0  0  0  0  0
    3.0547   -1.6124    4.7543 H   0  0  0  0  0  0  0  0  0  0  0  0
    1.8671   -1.7015    2.6496 H   0  0  0  0  0  0  0  0  0  0  0  0
    1.1359   -3.6377    2.0905 H   0  0  0  0  0  0  0  0  0  0  0  0
    2.1786   -3.6642   -2.1021 H   0  0  0  0  0  0  0  0  0  0  0  0
    4.7045   -4.9541   -2.5117 H   0  0  0  0  0  0  0  0  0  0  0  0
    3.7193   -4.2143   -3.7256 H   0  0  0  0  0  0  0  0  0  0  0  0
    6.9970   -3.9405   -2.6454 H   0  0  0  0  0  0  0  0  0  0  0  0
    7.0100   -2.3077   -2.7514 H   0  0  0  0  0  0  0  0  0  0  0  0
    6.5253   -4.8569   -0.7137 H   0  0  0  0  0  0  0  0  0  0  0  0
    4.4610   -5.3284   -0.3369 H   0  0  0  0  0  0  0  0  0  0  0  0
  1  2  1  0
  1 33  1  0
  1 34  1  0
  1 35  1  0
  2  3  1  0
  4  2  1  1
  2 36  1  0
  3 37  1  0
  3 38  1  0
  3 39  1  0
  4 16  1  0
  4 17  1  0
  4  5  1  0
  5  6  2  3
  5 40  1  0
  6  7  1  0
  6 41  1  0
  7 31  1  0
  7  8  1  6
  7  9  1  0
  8 42  1  0
  8 43  1  0
  8 44  1  0
  9 10  2  0
  9 11  1  0
 11 20  1  0
 11 32  1  0
 11 12  1  1
 12 13  1  0
 13 14  2  0
 13 15  1  0
 15 16  1  0
 16 17  1  0
 16 45  1  1
 17 18  1  0
 17 46  1  1
 18 19  1  0
 18 22  1  0
 18 47  1  6
 19 20  1  0
 20 21  2  0
 22 23  1  0
 23 26  1  0
 23 32  1  0
 23 24  1  1
 24 25  2  0
 24 26  1  0
 26 27  1  0
 26 48  1  1
 27 28  1  0
 27 49  1  0
 27 50  1  0
 28 29  1  0
 29 30  1  0
 29 51  1  0
 29 52  1  0
 30 31  1  0
 31 32  1  0
 31 53  1  6
 32 54  1  6
M  END
>  <i_m_ct_stereo_status>  (57) 
1

>  <s_m_source_file>  (57) 
/var/tmp/pbs.5102103.sched01/tmp13xrk0lu/22amefgkkz.sdf

>  <i_m_source_file_index>  (57) 
1

>  <i_lp_mmshare_version>  (57) 
48012

>  <i_f3d_flags>  (57) 
3

>  <s_epik_input>  (57) 
Tz1DMU9bQ0BASF0oTzIpW0NAQEhdM1tDQEhdKE9DKE80KT1PKVtDQF0zKFtDSF0oW0NIM10pW0NIM10pL1tDSF09W0NIXS9bQ0BdKFtDSDNdKShDNT1PKVtDQEBIXTZPW0NIMl1PW0NIMl1bQ0hdKEM3PU8pQzI3W0NASF02QzE0NQ==

>  <s_epik_cmdline>  (57) 
J2VwaWtfcHl0aG9uJywgJy1waHQnLCAnMi4wJywgJy1waCcsICc3LjAnLCAnLXRuJywgJzgnLCAnLW1hJywgJzIwMCcsICctaW1hZScsICc8aW5maWxlLm1hZT4nLCAnLW9tYWUnLCAnPG91dGZpbGUubWFlPic=

>  <r_lp_tautomer_probability>  (57) 
1

>  <r_epik_Ionization_Penalty>  (57) 
5.60078e-09

>  <r_epik_Ionization_Penalty_Charging>  (57) 
0

>  <r_epik_Ionization_Penalty_Neutral>  (57) 
5.60078e-09

>  <r_epik_State_Penalty>  (57) 
-0

>  <r_epik_Charging_Adjusted_Penalty>  (57) 
0

>  <i_epik_Tot_Q>  (57) 
0

>  <i_epik_Tot_abs_Q>  (57) 
0

>  <s_epik_Chemistry_Notes>  (57) 
This compound has an ester and may undergo hydrolysis at high or low pH. This compound contains an acetal/aminal-like group ( X-CH(R)-Y where X, Y are N, S, or O) that may be acid/base labile, releasing an aldehyde.

>  <s_lp_Force_Field>  (57) 
OPLS3e

>  <r_lp_Energy>  (57) 
180.542

>  <b_lp_Chiralities_Consistent>  (57) 
0

>  <s_lp_Variant>  (57) 
16:0-2

>  <s_i_glide_gridfile>  (57) 
pfpi4k_grid

>  <i_i_glide_lignum>  (57) 
1

>  <i_i_glide_rotatable_bonds>  (57) 
1

>  <r_i_docking_score>  (57) 
-2.2339

>  <r_i_glide_ligand_efficiency>  (57) 
-0.0698093

>  <r_i_glide_ligand_efficiency_sa>  (57) 
-0.221631

>  <r_i_glide_ligand_efficiency_ln>  (57) 
-0.500231

>  <r_i_glide_gscore>  (57) 
-2.2339

>  <r_i_glide_lipo>  (57) 
-0.602095

>  <r_i_glide_hbond>  (57) 
0

>  <r_i_glide_metal>  (57) 
-0

>  <r_i_glide_rewards>  (57) 
-0.588299

>  <r_i_glide_evdw>  (57) 
-9.78301

>  <r_i_glide_ecoul>  (57) 
-4.38991

>  <r_i_glide_erotb>  (57) 
0

>  <r_i_glide_esite>  (57) 
-0.0736053

>  <r_i_glide_emodel>  (57) 
-9.07282

>  <r_i_glide_energy>  (57) 
-14.1729

>  <r_i_glide_einternal>  (57) 
5.33441

>  <r_i_glide_intrahb_reward>  (57) 
-0

>  <i_i_glide_confnum>  (57) 
2

>  <i_i_glide_posenum>  (57) 
1

>  <r_i_glide_eff_state_penalty>  (57) 
0

>  <ligand_id>  (57) 
16

>  <original_smiles>  (57) 
CC(C)C12C=CC3(C)C(=O)C45OC(=O)OC1C2C(OC4=O)OC12C(=O)C1COCOC3C52

>  <smiles>  (57) 
[H]C1=C([H])C2(C([H])(C([H])([H])[H])C([H])([H])[H])C3([H])OC(=O)OC45C(=O)OC([H])(OC67C(=O)C6([H])C([H])([H])OC([H])([H])OC([H])(C1(C([H])([H])[H])C4=O)C57[H])C32[H]

$$$$
17:0:0
     RDKit          3D

 40 42  0  0  1  0  0  0  0  0999 V2000
    3.6297   -0.9765   -2.7730 C   0  0  0  0  0  0  0  0  0  0  0  0
    3.7004   -2.0428   -1.8458 O   0  0  0  0  0  0  0  0  0  0  0  0
    4.8206   -2.2465   -1.1396 C   0  0  0  0  0  0  0  0  0  0  0  0
    5.8154   -1.5179   -1.2084 O   0  0  0  0  0  0  0  0  0  0  0  0
    4.7345   -3.4579   -0.2748 C   0  0  0  0  0  0  0  0  0  0  0  0
    5.8621   -3.8929    0.4566 C   0  0  0  0  0  0  0  0  0  0  0  0
    5.8655   -4.9914    1.2479 N   0  0  0  0  0  0  0  0  0  0  0  0
    4.7173   -5.6982    1.3439 C   0  0  0  0  0  0  0  0  0  0  0  0
    3.5315   -5.3493    0.6885 C   0  0  0  0  0  0  0  0  0  0  0  0
    3.5379   -4.2112   -0.1522 C   0  0  0  0  0  0  0  0  0  0  0  0
    2.3047   -6.1843    0.9170 C   0  0  0  0  0  0  0  0  0  0  0  0
    1.2239   -5.8530    0.4282 O   0  0  0  0  0  0  0  0  0  0  0  0
    2.4661   -7.2948    1.6831 N   0  0  0  0  0  0  0  0  0  0  0  0
    1.2788   -8.1070    2.0571 C   0  0  0  0  0  0  0  0  0  0  0  0
    0.7362   -7.6971    3.3913 C   0  0  0  0  0  0  0  0  0  0  0  0
   -0.0820   -6.6693    3.6605 N   0  0  0  0  0  0  0  0  0  0  0  0
   -0.3607   -6.7569    5.0101 N   0  0  0  0  0  0  0  0  0  0  0  0
    0.3144   -7.8239    5.4531 C   0  0  0  0  0  0  0  0  0  0  0  0
    0.3881   -8.3601    6.8440 C   0  0  0  0  0  0  0  0  0  0  0  0
    1.0251   -8.4500    4.4819 O   0  0  0  0  0  0  0  0  0  0  0  0
    3.8337   -7.8310    1.8904 C   0  0  0  0  0  0  0  0  0  0  0  0
    3.9159   -8.7633    3.1207 C   0  0  0  0  0  0  0  0  0  0  0  0
    4.3060   -8.5835    0.6178 C   0  0  0  0  0  0  0  0  0  0  0  0
    4.7602   -6.8047    2.1614 O   0  0  0  0  0  0  0  0  0  0  0  0
    2.6342   -0.9427   -3.2141 H   0  0  0  0  0  0  0  0  0  0  0  0
    4.3565   -1.1306   -3.5695 H   0  0  0  0  0  0  0  0  0  0  0  0
    3.8322   -0.0101   -2.3167 H   0  0  0  0  0  0  0  0  0  0  0  0
    6.8047   -3.3667    0.4178 H   0  0  0  0  0  0  0  0  0  0  0  0
    2.6419   -3.9299   -0.6916 H   0  0  0  0  0  0  0  0  0  0  0  0
    0.4572   -8.0041    1.3464 H   0  0  0  0  0  0  0  0  0  0  0  0
    1.4770   -9.1746    2.0554 H   0  0  0  0  0  0  0  0  0  0  0  0
   -0.1871   -7.7433    7.5371 H   0  0  0  0  0  0  0  0  0  0  0  0
    1.4253   -8.3746    7.1744 H   0  0  0  0  0  0  0  0  0  0  0  0
    0.0056   -9.3806    6.8706 H   0  0  0  0  0  0  0  0  0  0  0  0
    3.3525   -9.6851    2.9827 H   0  0  0  0  0  0  0  0  0  0  0  0
    3.5567   -8.2380    4.0071 H   0  0  0  0  0  0  0  0  0  0  0  0
    4.9526   -9.0411    3.2926 H   0  0  0  0  0  0  0  0  0  0  0  0
    3.7133   -9.4855    0.4549 H   0  0  0  0  0  0  0  0  0  0  0  0
    5.3518   -8.8598    0.7271 H   0  0  0  0  0  0  0  0  0  0  0  0
    4.2279   -7.9490   -0.2679 H   0  0  0  0  0  0  0  0  0  0  0  0
  1  2  1  0
  1 25  1  0
  1 26  1  0
  1 27  1  0
  2  3  1  0
  3  4  2  0
  3  5  1  0
  5 10  2  0
  5  6  1  0
  6  7  2  0
  6 28  1  0
  7  8  1  0
  8 24  1  0
  8  9  2  0
  9 10  1  0
  9 11  1  0
 10 29  1  0
 11 12  2  0
 11 13  1  0
 13 14  1  0
 13 21  1  0
 14 15  1  0
 14 30  1  0
 14 31  1  0
 15 20  1  0
 15 16  2  0
 16 17  1  0
 17 18  2  0
 18 19  1  0
 18 20  1  0
 19 32  1  0
 19 33  1  0
 19 34  1  0
 21 22  1  0
 21 23  1  0
 21 24  1  0
 22 35  1  0
 22 36  1  0
 22 37  1  0
 23 38  1  0
 23 39  1  0
 23 40  1  0
M  END
>  <i_m_ct_stereo_status>  (58) 
1

>  <s_m_source_file>  (58) 
/var/tmp/pbs.5102103.sched01/tmp13xrk0lu/22amefgkkz.sdf

>  <i_m_source_file_index>  (58) 
2

>  <i_lp_mmshare_version>  (58) 
48012

>  <i_f3d_flags>  (58) 
0

>  <s_epik_input>  (58) 
W0NIM11PQyg9TyljKFtjSF1uMSlbY0hdYyhjMTIpQyg9TylOKEMoTzIpKFtDSDNdKVtDSDNdKVtDSDJdYzNubmMobzMpW0NIM10=

>  <s_epik_cmdline>  (58) 
J2VwaWtfcHl0aG9uJywgJy1waHQnLCAnMi4wJywgJy1waCcsICc3LjAnLCAnLXRuJywgJzgnLCAnLW1hJywgJzIwMCcsICctaW1hZScsICc8aW5maWxlLm1hZT4nLCAnLW9tYWUnLCAnPG91dGZpbGUubWFlPic=

>  <r_lp_tautomer_probability>  (58) 
1

>  <r_epik_Ionization_Penalty>  (58) 
4.00045e-08

>  <r_epik_Ionization_Penalty_Charging>  (58) 
0

>  <r_epik_Ionization_Penalty_Neutral>  (58) 
4.00045e-08

>  <r_epik_State_Penalty>  (58) 
-0

>  <r_epik_Charging_Adjusted_Penalty>  (58) 
0

>  <i_epik_Tot_Q>  (58) 
0

>  <i_epik_Tot_abs_Q>  (58) 
0

>  <s_epik_Chemistry_Notes>  (58) 
This compound has an ester and may undergo hydrolysis at high or low pH.

>  <s_lp_Force_Field>  (58) 
OPLS3e

>  <r_lp_Energy>  (58) 
29.5511

>  <b_lp_Chiralities_Consistent>  (58) 
1

>  <s_lp_Variant>  (58) 
17:0-1

>  <s_i_glide_gridfile>  (58) 
pfpi4k_grid

>  <i_i_glide_lignum>  (58) 
2

>  <i_i_glide_rotatable_bonds>  (58) 
4

>  <r_i_docking_score>  (58) 
-3.454

>  <r_i_glide_ligand_efficiency>  (58) 
-0.143917

>  <r_i_glide_ligand_efficiency_sa>  (58) 
-0.415128

>  <r_i_glide_ligand_efficiency_ln>  (58) 
-0.826702

>  <r_i_glide_gscore>  (58) 
-3.454

>  <r_i_glide_lipo>  (58) 
-0.169355

>  <r_i_glide_hbond>  (58) 
-0.224063

>  <r_i_glide_metal>  (58) 
-0

>  <r_i_glide_rewards>  (58) 
-1.14661

>  <r_i_glide_evdw>  (58) 
-26.9279

>  <r_i_glide_ecoul>  (58) 
-6.2815

>  <r_i_glide_erotb>  (58) 
0.511618

>  <r_i_glide_esite>  (58) 
-0.136971

>  <r_i_glide_emodel>  (58) 
-41.2364

>  <r_i_glide_energy>  (58) 
-33.2094

>  <r_i_glide_einternal>  (58) 
0.498169

>  <r_i_glide_intrahb_reward>  (58) 
-0

>  <i_i_glide_confnum>  (58) 
4

>  <i_i_glide_posenum>  (58) 
25

>  <r_i_glide_eff_state_penalty>  (58) 
0

>  <ligand_id>  (58) 
17

>  <original_smiles>  (58) 
COC(=O)c1cnc2c(c1)C(=O)N(Cc1nnc(C)o1)C(C)(C)O2

>  <smiles>  (58) 
[H]c1nc2c(c([H])c1C(=O)OC([H])([H])[H])C(=O)N(C([H])([H])c1nnc(C([H])([H])[H])o1)C(C([H])([H])[H])(C([H])([H])[H])O2

$$$$
17:0:1
     RDKit          3D

 40 42  0  0  1  0  0  0  0  0999 V2000
    8.0890   -2.8649   -1.1967 C   0  0  0  0  0  0  0  0  0  0  0  0
    7.5929   -3.8549   -0.3184 O   0  0  0  0  0  0  0  0  0  0  0  0
    8.3492   -4.2710    0.7098 C   0  0  0  0  0  0  0  0  0  0  0  0
    9.4143   -3.7478    1.0097 O   0  0  0  0  0  0  0  0  0  0  0  0
    7.7677   -5.4301    1.4369 C   0  0  0  0  0  0  0  0  0  0  0  0
    8.3482   -5.9008    2.6411 C   0  0  0  0  0  0  0  0  0  0  0  0
    7.8674   -6.9412    3.3550 N   0  0  0  0  0  0  0  0  0  0  0  0
    6.7901   -7.5890    2.8716 C   0  0  0  0  0  0  0  0  0  0  0  0
    6.1335   -7.2091    1.6923 C   0  0  0  0  0  0  0  0  0  0  0  0
    6.6272   -6.1073    0.9610 C   0  0  0  0  0  0  0  0  0  0  0  0
    4.9082   -7.9463    1.2729 C   0  0  0  0  0  0  0  0  0  0  0  0
    4.2886   -7.5487    0.2884 O   0  0  0  0  0  0  0  0  0  0  0  0
    4.5463   -9.0054    2.0437 N   0  0  0  0  0  0  0  0  0  0  0  0
    3.2537   -9.6971    1.7647 C   0  0  0  0  0  0  0  0  0  0  0  0
    2.0412   -8.8793    2.1371 C   0  0  0  0  0  0  0  0  0  0  0  0
    1.7491   -7.6095    1.8291 N   0  0  0  0  0  0  0  0  0  0  0  0
    0.4944   -7.3589    2.3487 N   0  0  0  0  0  0  0  0  0  0  0  0
    0.1247   -8.4951    2.9388 C   0  0  0  0  0  0  0  0  0  0  0  0
   -1.1398   -8.7551    3.6710 C   0  0  0  0  0  0  0  0  0  0  0  0
    1.0513   -9.4865    2.8474 O   0  0  0  0  0  0  0  0  0  0  0  0
    5.5783   -9.6300    2.9213 C   0  0  0  0  0  0  0  0  0  0  0  0
    4.9643  -10.4945    4.0414 C   0  0  0  0  0  0  0  0  0  0  0  0
    6.5685  -10.4652    2.0672 C   0  0  0  0  0  0  0  0  0  0  0  0
    6.3232   -8.6471    3.6124 O   0  0  0  0  0  0  0  0  0  0  0  0
    7.3563   -2.6702   -1.9780 H   0  0  0  0  0  0  0  0  0  0  0  0
    9.0064   -3.1975   -1.6856 H   0  0  0  0  0  0  0  0  0  0  0  0
    8.2929   -1.9341   -0.6647 H   0  0  0  0  0  0  0  0  0  0  0  0
    9.2247   -5.4391    3.0691 H   0  0  0  0  0  0  0  0  0  0  0  0
    6.1384   -5.8010    0.0440 H   0  0  0  0  0  0  0  0  0  0  0  0
    3.1891   -9.9102    0.6983 H   0  0  0  0  0  0  0  0  0  0  0  0
    3.1429  -10.6693    2.2464 H   0  0  0  0  0  0  0  0  0  0  0  0
   -1.7567   -7.8563    3.6933 H   0  0  0  0  0  0  0  0  0  0  0  0
   -0.9174   -9.0548    4.6944 H   0  0  0  0  0  0  0  0  0  0  0  0
   -1.6955   -9.5540    3.1821 H   0  0  0  0  0  0  0  0  0  0  0  0
    4.5190  -11.4143    3.6620 H   0  0  0  0  0  0  0  0  0  0  0  0
    4.2203   -9.9164    4.5921 H   0  0  0  0  0  0  0  0  0  0  0  0
    5.7521  -10.7919    4.7382 H   0  0  0  0  0  0  0  0  0  0  0  0
    6.0766  -11.3454    1.6481 H   0  0  0  0  0  0  0  0  0  0  0  0
    7.3994  -10.7932    2.6976 H   0  0  0  0  0  0  0  0  0  0  0  0
    6.9909   -9.8803    1.2456 H   0  0  0  0  0  0  0  0  0  0  0  0
  1  2  1  0
  1 25  1  0
  1 26  1  0
  1 27  1  0
  2  3  1  0
  3  4  2  0
  3  5  1  0
  5 10  2  0
  5  6  1  0
  6  7  2  0
  6 28  1  0
  7  8  1  0
  8 24  1  0
  8  9  2  0
  9 10  1  0
  9 11  1  0
 10 29  1  0
 11 12  2  0
 11 13  1  0
 13 14  1  0
 13 21  1  0
 14 15  1  0
 14 30  1  0
 14 31  1  0
 15 20  1  0
 15 16  2  0
 16 17  1  0
 17 18  2  0
 18 19  1  0
 18 20  1  0
 19 32  1  0
 19 33  1  0
 19 34  1  0
 21 22  1  0
 21 23  1  0
 21 24  1  0
 22 35  1  0
 22 36  1  0
 22 37  1  0
 23 38  1  0
 23 39  1  0
 23 40  1  0
M  END
>  <i_m_ct_stereo_status>  (59) 
1

>  <s_m_source_file>  (59) 
/var/tmp/pbs.5102103.sched01/tmp13xrk0lu/22amefgkkz.sdf

>  <i_m_source_file_index>  (59) 
2

>  <i_lp_mmshare_version>  (59) 
48012

>  <i_f3d_flags>  (59) 
0

>  <s_epik_input>  (59) 
W0NIM11PQyg9TyljKFtjSF1uMSlbY0hdYyhjMTIpQyg9TylOKEMoTzIpKFtDSDNdKVtDSDNdKVtDSDJdYzNubmMobzMpW0NIM10=

>  <s_epik_cmdline>  (59) 
J2VwaWtfcHl0aG9uJywgJy1waHQnLCAnMi4wJywgJy1waCcsICc3LjAnLCAnLXRuJywgJzgnLCAnLW1hJywgJzIwMCcsICctaW1hZScsICc8aW5maWxlLm1hZT4nLCAnLW9tYWUnLCAnPG91dGZpbGUubWFlPic=

>  <r_lp_tautomer_probability>  (59) 
1

>  <r_epik_Ionization_Penalty>  (59) 
4.00045e-08

>  <r_epik_Ionization_Penalty_Charging>  (59) 
0

>  <r_epik_Ionization_Penalty_Neutral>  (59) 
4.00045e-08

>  <r_epik_State_Penalty>  (59) 
-0

>  <r_epik_Charging_Adjusted_Penalty>  (59) 
0

>  <i_epik_Tot_Q>  (59) 
0

>  <i_epik_Tot_abs_Q>  (59) 
0

>  <s_epik_Chemistry_Notes>  (59) 
This compound has an ester and may undergo hydrolysis at high or low pH.

>  <s_lp_Force_Field>  (59) 
OPLS3e

>  <r_lp_Energy>  (59) 
29.5511

>  <b_lp_Chiralities_Consistent>  (59) 
1

>  <s_lp_Variant>  (59) 
17:0-1

>  <s_i_glide_gridfile>  (59) 
pfpi4k_grid

>  <i_i_glide_lignum>  (59) 
2

>  <i_i_glide_rotatable_bonds>  (59) 
4

>  <r_i_docking_score>  (59) 
-3.02497

>  <r_i_glide_ligand_efficiency>  (59) 
-0.126041

>  <r_i_glide_ligand_efficiency_sa>  (59) 
-0.363564

>  <r_i_glide_ligand_efficiency_ln>  (59) 
-0.724015

>  <r_i_glide_gscore>  (59) 
-3.02497

>  <r_i_glide_lipo>  (59) 
-0.281301

>  <r_i_glide_hbond>  (59) 
-0.0418414

>  <r_i_glide_metal>  (59) 
-0

>  <r_i_glide_rewards>  (59) 
-1.34079

>  <r_i_glide_evdw>  (59) 
-27.6109

>  <r_i_glide_ecoul>  (59) 
-2.48878

>  <r_i_glide_erotb>  (59) 
0.511618

>  <r_i_glide_esite>  (59) 
-0.118795

>  <r_i_glide_emodel>  (59) 
-36.8517

>  <r_i_glide_energy>  (59) 
-30.0997

>  <r_i_glide_einternal>  (59) 
0.777544

>  <r_i_glide_intrahb_reward>  (59) 
-0

>  <i_i_glide_confnum>  (59) 
4

>  <i_i_glide_posenum>  (59) 
3

>  <r_i_glide_eff_state_penalty>  (59) 
0

>  <ligand_id>  (59) 
17

>  <original_smiles>  (59) 
COC(=O)c1cnc2c(c1)C(=O)N(Cc1nnc(C)o1)C(C)(C)O2

>  <smiles>  (59) 
[H]c1nc2c(c([H])c1C(=O)OC([H])([H])[H])C(=O)N(C([H])([H])c1nnc(C([H])([H])[H])o1)C(C([H])([H])[H])(C([H])([H])[H])O2

$$$$
17:0:2
     RDKit          3D

 40 42  0  0  1  0  0  0  0  0999 V2000
    0.9649    1.9845    1.6994 C   0  0  0  0  0  0  0  0  0  0  0  0
    1.7381    0.8158    1.8453 O   0  0  0  0  0  0  0  0  0  0  0  0
    2.6990    0.7651    2.7771 C   0  0  0  0  0  0  0  0  0  0  0  0
    2.9797    1.6910    3.5398 O   0  0  0  0  0  0  0  0  0  0  0  0
    3.3833   -0.5530    2.8074 C   0  0  0  0  0  0  0  0  0  0  0  0
    4.4688   -0.7807    3.6872 C   0  0  0  0  0  0  0  0  0  0  0  0
    5.1068   -1.9629    3.8070 N   0  0  0  0  0  0  0  0  0  0  0  0
    4.7211   -2.9751    3.0021 C   0  0  0  0  0  0  0  0  0  0  0  0
    3.6608   -2.8605    2.0792 C   0  0  0  0  0  0  0  0  0  0  0  0
    2.9707   -1.6350    1.9920 C   0  0  0  0  0  0  0  0  0  0  0  0
    3.2830   -4.0426    1.2316 C   0  0  0  0  0  0  0  0  0  0  0  0
    2.3638   -3.9546    0.4053 O   0  0  0  0  0  0  0  0  0  0  0  0
    3.9879   -5.1761    1.4761 N   0  0  0  0  0  0  0  0  0  0  0  0
    3.5457   -6.4593    0.8477 C   0  0  0  0  0  0  0  0  0  0  0  0
    2.2005   -6.9469    1.3116 C   0  0  0  0  0  0  0  0  0  0  0  0
    1.0123   -6.3304    1.2303 N   0  0  0  0  0  0  0  0  0  0  0  0
    0.0833   -7.2011    1.7687 N   0  0  0  0  0  0  0  0  0  0  0  0
    0.7845   -8.2856    2.1310 C   0  0  0  0  0  0  0  0  0  0  0  0
    0.2546   -9.5362    2.7410 C   0  0  0  0  0  0  0  0  0  0  0  0
    2.1201   -8.1794    1.8860 O   0  0  0  0  0  0  0  0  0  0  0  0
    5.3746   -5.0318    2.0166 C   0  0  0  0  0  0  0  0  0  0  0  0
    5.9756   -6.3514    2.5428 C   0  0  0  0  0  0  0  0  0  0  0  0
    6.3028   -4.4464    0.9143 C   0  0  0  0  0  0  0  0  0  0  0  0
    5.4124   -4.1530    3.1278 O   0  0  0  0  0  0  0  0  0  0  0  0
    0.2502    1.8485    0.8884 H   0  0  0  0  0  0  0  0  0  0  0  0
    1.6127    2.8339    1.4743 H   0  0  0  0  0  0  0  0  0  0  0  0
    0.4124    2.1960    2.6161 H   0  0  0  0  0  0  0  0  0  0  0  0
    4.8406    0.0006    4.3358 H   0  0  0  0  0  0  0  0  0  0  0  0
    2.1392   -1.5196    1.3068 H   0  0  0  0  0  0  0  0  0  0  0  0
    3.4866   -6.3129   -0.2267 H   0  0  0  0  0  0  0  0  0  0  0  0
    4.2245   -7.3019    0.9806 H   0  0  0  0  0  0  0  0  0  0  0  0
   -0.8238   -9.4377    2.9051 H   0  0  0  0  0  0  0  0  0  0  0  0
    0.7520   -9.7182    3.6991 H   0  0  0  0  0  0  0  0  0  0  0  0
    0.4345  -10.3892    2.0757 H   0  0  0  0  0  0  0  0  0  0  0  0
    6.2066   -7.0610    1.7435 H   0  0  0  0  0  0  0  0  0  0  0  0
    5.3025   -6.8113    3.2663 H   0  0  0  0  0  0  0  0  0  0  0  0
    6.9177   -6.1271    3.0582 H   0  0  0  0  0  0  0  0  0  0  0  0
    6.4558   -5.1608    0.0966 H   0  0  0  0  0  0  0  0  0  0  0  0
    7.2787   -4.2054    1.3534 H   0  0  0  0  0  0  0  0  0  0  0  0
    5.9031   -3.5190    0.4892 H   0  0  0  0  0  0  0  0  0  0  0  0
  1  2  1  0
  1 25  1  0
  1 26  1  0
  1 27  1  0
  2  3  1  0
  3  4  2  0
  3  5  1  0
  5 10  2  0
  5  6  1  0
  6  7  2  0
  6 28  1  0
  7  8  1  0
  8 24  1  0
  8  9  2  0
  9 10  1  0
  9 11  1  0
 10 29  1  0
 11 12  2  0
 11 13  1  0
 13 14  1  0
 13 21  1  0
 14 15  1  0
 14 30  1  0
 14 31  1  0
 15 20  1  0
 15 16  2  0
 16 17  1  0
 17 18  2  0
 18 19  1  0
 18 20  1  0
 19 32  1  0
 19 33  1  0
 19 34  1  0
 21 22  1  0
 21 23  1  0
 21 24  1  0
 22 35  1  0
 22 36  1  0
 22 37  1  0
 23 38  1  0
 23 39  1  0
 23 40  1  0
M  END
>  <i_m_ct_stereo_status>  (60) 
1

>  <s_m_source_file>  (60) 
/var/tmp/pbs.5102103.sched01/tmp13xrk0lu/22amefgkkz.sdf

>  <i_m_source_file_index>  (60) 
2

>  <i_lp_mmshare_version>  (60) 
48012

>  <i_f3d_flags>  (60) 
0

>  <s_epik_input>  (60) 
W0NIM11PQyg9TyljKFtjSF1uMSlbY0hdYyhjMTIpQyg9TylOKEMoTzIpKFtDSDNdKVtDSDNdKVtDSDJdYzNubmMobzMpW0NIM10=

>  <s_epik_cmdline>  (60) 
J2VwaWtfcHl0aG9uJywgJy1waHQnLCAnMi4wJywgJy1waCcsICc3LjAnLCAnLXRuJywgJzgnLCAnLW1hJywgJzIwMCcsICctaW1hZScsICc8aW5maWxlLm1hZT4nLCAnLW9tYWUnLCAnPG91dGZpbGUubWFlPic=

>  <r_lp_tautomer_probability>  (60) 
1

>  <r_epik_Ionization_Penalty>  (60) 
4.00045e-08

>  <r_epik_Ionization_Penalty_Charging>  (60) 
0

>  <r_epik_Ionization_Penalty_Neutral>  (60) 
4.00045e-08

>  <r_epik_State_Penalty>  (60) 
-0

>  <r_epik_Charging_Adjusted_Penalty>  (60) 
0

>  <i_epik_Tot_Q>  (60) 
0

>  <i_epik_Tot_abs_Q>  (60) 
0

>  <s_epik_Chemistry_Notes>  (60) 
This compound has an ester and may undergo hydrolysis at high or low pH.

>  <s_lp_Force_Field>  (60) 
OPLS3e

>  <r_lp_Energy>  (60) 
29.5511

>  <b_lp_Chiralities_Consistent>  (60) 
1

>  <s_lp_Variant>  (60) 
17:0-1

>  <s_i_glide_gridfile>  (60) 
pfpi4k_grid

>  <i_i_glide_lignum>  (60) 
2

>  <i_i_glide_rotatable_bonds>  (60) 
4

>  <r_i_docking_score>  (60) 
-2.97469

>  <r_i_glide_ligand_efficiency>  (60) 
-0.123945

>  <r_i_glide_ligand_efficiency_sa>  (60) 
-0.35752

>  <r_i_glide_ligand_efficiency_ln>  (60) 
-0.711979

>  <r_i_glide_gscore>  (60) 
-2.97469

>  <r_i_glide_lipo>  (60) 
-0.23972

>  <r_i_glide_hbond>  (60) 
0

>  <r_i_glide_metal>  (60) 
-0

>  <r_i_glide_rewards>  (60) 
-1.22455

>  <r_i_glide_evdw>  (60) 
-23.2985

>  <r_i_glide_ecoul>  (60) 
-4.49686

>  <r_i_glide_erotb>  (60) 
0.511618

>  <r_i_glide_esite>  (60) 
-0.182578

>  <r_i_glide_emodel>  (60) 
-33.8778

>  <r_i_glide_energy>  (60) 
-27.7954

>  <r_i_glide_einternal>  (60) 
1.56444

>  <r_i_glide_intrahb_reward>  (60) 
-0

>  <i_i_glide_confnum>  (60) 
4

>  <i_i_glide_posenum>  (60) 
4

>  <r_i_glide_eff_state_penalty>  (60) 
0

>  <ligand_id>  (60) 
17

>  <original_smiles>  (60) 
COC(=O)c1cnc2c(c1)C(=O)N(Cc1nnc(C)o1)C(C)(C)O2

>  <smiles>  (60) 
[H]c1nc2c(c([H])c1C(=O)OC([H])([H])[H])C(=O)N(C([H])([H])c1nnc(C([H])([H])[H])o1)C(C([H])([H])[H])(C([H])([H])[H])O2

$$$$
19:0:0
     RDKit          3D

 27 28  0  0  1  0  0  0  0  0999 V2000
   -4.5784   -8.3498   -4.9106 C   0  0  0  0  0  0  0  0  0  0  0  0
   -5.8286   -7.7194   -5.3394 N   0  0  0  0  0  0  0  0  0  0  0  0
   -5.9134   -6.3427   -4.8325 C   0  0  0  0  0  0  0  0  0  0  0  0
   -6.4630   -8.0164   -6.9453 S   0  0  0  0  0  0  0  0  0  0  0  0
   -7.6115   -7.0974   -7.1357 O   0  0  0  0  0  0  0  0  0  0  0  0
   -5.3429   -7.9621   -7.8763 O   0  0  0  0  0  0  0  0  0  0  0  0
   -7.1326   -9.7040   -6.9670 C   0  0  0  0  0  0  0  0  0  0  0  0
   -8.5255   -9.8541   -7.1430 C   0  0  0  0  0  0  0  0  0  0  0  0
   -9.0938  -11.1428   -7.1760 C   0  0  0  0  0  0  0  0  0  0  0  0
   -8.2706  -12.2674   -6.9607 C   0  0  0  0  0  0  0  0  0  0  0  0
   -6.8798  -12.1519   -6.7851 C   0  0  0  0  0  0  0  0  0  0  0  0
   -6.1357  -13.2477   -6.5241 N   0  0  0  0  0  0  0  0  0  0  0  0
   -4.8101  -13.0856   -6.3503 C   0  0  0  0  0  0  0  0  0  0  0  0
   -4.2209  -11.8082   -6.4700 C   0  0  0  0  0  0  0  0  0  0  0  0
   -4.9412  -10.7293   -6.8227 N   0  0  0  0  0  0  0  0  0  0  0  0
   -6.2867  -10.8415   -6.8676 C   0  0  0  0  0  0  0  0  0  0  0  0
   -4.4084   -8.2212   -3.8685 H   0  0  0  0  0  0  0  0  0  0  0  0
   -3.7318   -8.0028   -5.5082 H   0  0  0  0  0  0  0  0  0  0  0  0
   -4.6773   -9.4359   -4.9190 H   0  0  0  0  0  0  0  0  0  0  0  0
   -5.7319   -6.3347   -3.7537 H   0  0  0  0  0  0  0  0  0  0  0  0
   -6.9001   -5.8856   -5.0063 H   0  0  0  0  0  0  0  0  0  0  0  0
   -5.1429   -5.7215   -5.3117 H   0  0  0  0  0  0  0  0  0  0  0  0
   -9.1613   -8.9924   -7.3200 H   0  0  0  0  0  0  0  0  0  0  0  0
  -10.1617  -11.2664   -7.3644 H   0  0  0  0  0  0  0  0  0  0  0  0
   -8.7115  -13.2546   -6.9877 H   0  0  0  0  0  0  0  0  0  0  0  0
   -4.2076  -13.9398   -6.1099 H   0  0  0  0  0  0  0  0  0  0  0  0
   -3.1925  -11.6329   -6.1983 H   0  0  0  0  0  0  0  0  0  0  0  0
  1  2  1  0
  1 17  1  0
  1 18  1  0
  1 19  1  0
  2  3  1  0
  2  4  1  0
  3 20  1  0
  3 21  1  0
  3 22  1  0
  4  5  2  0
  4  6  2  0
  4  7  1  0
  7 16  2  0
  7  8  1  0
  8  9  2  0
  8 23  1  0
  9 10  1  0
  9 24  1  0
 10 11  2  0
 10 25  1  0
 11 16  1  0
 11 12  1  0
 12 13  2  0
 13 14  1  0
 13 26  1  0
 14 15  2  0
 14 27  1  0
 15 16  1  0
M  END
>  <i_m_ct_stereo_status>  (61) 
1

>  <s_m_source_file>  (61) 
/var/tmp/pbs.5102103.sched01/tmp13xrk0lu/22amefgkkz.sdf

>  <i_m_source_file_index>  (61) 
4

>  <i_lp_mmshare_version>  (61) 
48012

>  <i_f3d_flags>  (61) 
0

>  <s_epik_input>  (61) 
W0NIM11OKFtDSDNdKVMoPU8pKD1PKWMoW2NIXVtjSF1bY0hdMSljKGMxMiluW2NIXVtjSF1uMg==

>  <s_epik_cmdline>  (61) 
J2VwaWtfcHl0aG9uJywgJy1waHQnLCAnMi4wJywgJy1waCcsICc3LjAnLCAnLXRuJywgJzgnLCAnLW1hJywgJzIwMCcsICctaW1hZScsICc8aW5maWxlLm1hZT4nLCAnLW9tYWUnLCAnPG91dGZpbGUubWFlPic=

>  <r_lp_tautomer_probability>  (61) 
1

>  <r_epik_Ionization_Penalty>  (61) 
4.74938e-09

>  <r_epik_Ionization_Penalty_Charging>  (61) 
0

>  <r_epik_Ionization_Penalty_Neutral>  (61) 
4.74938e-09

>  <r_epik_State_Penalty>  (61) 
-0

>  <r_epik_Charging_Adjusted_Penalty>  (61) 
0

>  <i_epik_Tot_Q>  (61) 
0

>  <i_epik_Tot_abs_Q>  (61) 
0

>  <s_lp_Force_Field>  (61) 
OPLS3e

>  <r_lp_Energy>  (61) 
25.6903

>  <b_lp_Chiralities_Consistent>  (61) 
1

>  <s_lp_Variant>  (61) 
19:0-1

>  <s_i_glide_gridfile>  (61) 
pfpi4k_grid

>  <i_i_glide_lignum>  (61) 
4

>  <i_i_glide_rotatable_bonds>  (61) 
2

>  <r_i_docking_score>  (61) 
-5.02772

>  <r_i_glide_ligand_efficiency>  (61) 
-0.314232

>  <r_i_glide_ligand_efficiency_sa>  (61) 
-0.791816

>  <r_i_glide_ligand_efficiency_ln>  (61) 
-1.3327

>  <r_i_glide_gscore>  (61) 
-5.02772

>  <r_i_glide_lipo>  (61) 
-1.15504

>  <r_i_glide_hbond>  (61) 
0

>  <r_i_glide_metal>  (61) 
-0

>  <r_i_glide_rewards>  (61) 
-2.14335

>  <r_i_glide_evdw>  (61) 
-24.6733

>  <r_i_glide_ecoul>  (61) 
-3.30442

>  <r_i_glide_erotb>  (61) 
0

>  <r_i_glide_esite>  (61) 
0

>  <r_i_glide_emodel>  (61) 
-33.1439

>  <r_i_glide_energy>  (61) 
-27.9777

>  <r_i_glide_einternal>  (61) 
3.9846

>  <r_i_glide_intrahb_reward>  (61) 
-0

>  <i_i_glide_confnum>  (61) 
2

>  <i_i_glide_posenum>  (61) 
24

>  <r_i_glide_eff_state_penalty>  (61) 
0

>  <ligand_id>  (61) 
19

>  <original_smiles>  (61) 
CN(C)S(=O)(=O)c1cccc2nccnc12

>  <smiles>  (61) 
[H]c1nc2c([H])c([H])c([H])c(S(=O)(=O)N(C([H])([H])[H])C([H])([H])[H])c2nc1[H]

$$$$
19:0:1
     RDKit          3D

 27 28  0  0  1  0  0  0  0  0999 V2000
   -5.6258   -4.0838   -5.2830 C   0  0  0  0  0  0  0  0  0  0  0  0
   -6.4304   -5.2876   -5.3283 N   0  0  0  0  0  0  0  0  0  0  0  0
   -6.4318   -6.0275   -4.0606 C   0  0  0  0  0  0  0  0  0  0  0  0
   -7.8301   -5.3049   -6.3541 S   0  0  0  0  0  0  0  0  0  0  0  0
   -8.9881   -5.3957   -5.4715 O   0  0  0  0  0  0  0  0  0  0  0  0
   -7.7864   -4.1730   -7.2878 O   0  0  0  0  0  0  0  0  0  0  0  0
   -7.7198   -6.8438   -7.2692 C   0  0  0  0  0  0  0  0  0  0  0  0
   -6.5761   -7.6670   -7.1351 C   0  0  0  0  0  0  0  0  0  0  0  0
   -6.4645   -8.8544   -7.8758 C   0  0  0  0  0  0  0  0  0  0  0  0
   -7.5108   -9.2349   -8.7354 C   0  0  0  0  0  0  0  0  0  0  0  0
   -8.6732   -8.4413   -8.8640 C   0  0  0  0  0  0  0  0  0  0  0  0
   -9.6566   -8.8559   -9.7072 N   0  0  0  0  0  0  0  0  0  0  0  0
  -10.7646   -8.0865   -9.8012 C   0  0  0  0  0  0  0  0  0  0  0  0
  -10.8926   -6.8944   -9.0733 C   0  0  0  0  0  0  0  0  0  0  0  0
   -9.9040   -6.4611   -8.2556 N   0  0  0  0  0  0  0  0  0  0  0  0
   -8.7872   -7.2307   -8.1275 C   0  0  0  0  0  0  0  0  0  0  0  0
   -4.6513   -4.3126   -4.8531 H   0  0  0  0  0  0  0  0  0  0  0  0
   -6.1209   -3.3285   -4.6691 H   0  0  0  0  0  0  0  0  0  0  0  0
   -5.4733   -3.7102   -6.2928 H   0  0  0  0  0  0  0  0  0  0  0  0
   -5.4142   -6.1952   -3.6999 H   0  0  0  0  0  0  0  0  0  0  0  0
   -6.8913   -7.0038   -4.1924 H   0  0  0  0  0  0  0  0  0  0  0  0
   -6.9601   -5.4558   -3.2971 H   0  0  0  0  0  0  0  0  0  0  0  0
   -5.7478   -7.3894   -6.4956 H   0  0  0  0  0  0  0  0  0  0  0  0
   -5.5705   -9.4732   -7.8086 H   0  0  0  0  0  0  0  0  0  0  0  0
   -7.4331  -10.1393   -9.3149 H   0  0  0  0  0  0  0  0  0  0  0  0
  -11.5423   -8.4338  -10.4687 H   0  0  0  0  0  0  0  0  0  0  0  0
  -11.7845   -6.2826   -9.1431 H   0  0  0  0  0  0  0  0  0  0  0  0
  1  2  1  0
  1 17  1  0
  1 18  1  0
  1 19  1  0
  2  3  1  0
  2  4  1  0
  3 20  1  0
  3 21  1  0
  3 22  1  0
  4  5  2  0
  4  6  2  0
  4  7  1  0
  7 16  2  0
  7  8  1  0
  8  9  2  0
  8 23  1  0
  9 10  1  0
  9 24  1  0
 10 11  2  0
 10 25  1  0
 11 16  1  0
 11 12  1  0
 12 13  2  0
 13 14  1  0
 13 26  1  0
 14 15  2  0
 14 27  1  0
 15 16  1  0
M  END
>  <i_m_ct_stereo_status>  (62) 
1

>  <s_m_source_file>  (62) 
/var/tmp/pbs.5102103.sched01/tmp13xrk0lu/22amefgkkz.sdf

>  <i_m_source_file_index>  (62) 
4

>  <i_lp_mmshare_version>  (62) 
48012

>  <i_f3d_flags>  (62) 
0

>  <s_epik_input>  (62) 
W0NIM11OKFtDSDNdKVMoPU8pKD1PKWMoW2NIXVtjSF1bY0hdMSljKGMxMiluW2NIXVtjSF1uMg==

>  <s_epik_cmdline>  (62) 
J2VwaWtfcHl0aG9uJywgJy1waHQnLCAnMi4wJywgJy1waCcsICc3LjAnLCAnLXRuJywgJzgnLCAnLW1hJywgJzIwMCcsICctaW1hZScsICc8aW5maWxlLm1hZT4nLCAnLW9tYWUnLCAnPG91dGZpbGUubWFlPic=

>  <r_lp_tautomer_probability>  (62) 
1

>  <r_epik_Ionization_Penalty>  (62) 
4.74938e-09

>  <r_epik_Ionization_Penalty_Charging>  (62) 
0

>  <r_epik_Ionization_Penalty_Neutral>  (62) 
4.74938e-09

>  <r_epik_State_Penalty>  (62) 
-0

>  <r_epik_Charging_Adjusted_Penalty>  (62) 
0

>  <i_epik_Tot_Q>  (62) 
0

>  <i_epik_Tot_abs_Q>  (62) 
0

>  <s_lp_Force_Field>  (62) 
OPLS3e

>  <r_lp_Energy>  (62) 
25.6903

>  <b_lp_Chiralities_Consistent>  (62) 
1

>  <s_lp_Variant>  (62) 
19:0-1

>  <s_i_glide_gridfile>  (62) 
pfpi4k_grid

>  <i_i_glide_lignum>  (62) 
4

>  <i_i_glide_rotatable_bonds>  (62) 
2

>  <r_i_docking_score>  (62) 
-4.97287

>  <r_i_glide_ligand_efficiency>  (62) 
-0.310804

>  <r_i_glide_ligand_efficiency_sa>  (62) 
-0.783177

>  <r_i_glide_ligand_efficiency_ln>  (62) 
-1.31816

>  <r_i_glide_gscore>  (62) 
-4.97287

>  <r_i_glide_lipo>  (62) 
-1.26436

>  <r_i_glide_hbond>  (62) 
0

>  <r_i_glide_metal>  (62) 
-0

>  <r_i_glide_rewards>  (62) 
-2.49997

>  <r_i_glide_evdw>  (62) 
-19.0313

>  <r_i_glide_ecoul>  (62) 
-1.71311

>  <r_i_glide_erotb>  (62) 
0

>  <r_i_glide_esite>  (62) 
0

>  <r_i_glide_emodel>  (62) 
-26.5229

>  <r_i_glide_energy>  (62) 
-20.7444

>  <r_i_glide_einternal>  (62) 
5.32988

>  <r_i_glide_intrahb_reward>  (62) 
-0

>  <i_i_glide_confnum>  (62) 
1

>  <i_i_glide_posenum>  (62) 
28

>  <r_i_glide_eff_state_penalty>  (62) 
0

>  <ligand_id>  (62) 
19

>  <original_smiles>  (62) 
CN(C)S(=O)(=O)c1cccc2nccnc12

>  <smiles>  (62) 
[H]c1nc2c([H])c([H])c([H])c(S(=O)(=O)N(C([H])([H])[H])C([H])([H])[H])c2nc1[H]

$$$$
19:0:2
     RDKit          3D

 27 28  0  0  1  0  0  0  0  0999 V2000
   -8.6926   -7.0715   -7.4345 C   0  0  0  0  0  0  0  0  0  0  0  0
   -7.2791   -7.3447   -7.1648 N   0  0  0  0  0  0  0  0  0  0  0  0
   -6.9044   -7.3373   -5.7497 C   0  0  0  0  0  0  0  0  0  0  0  0
   -6.4420   -8.4285   -8.2066 S   0  0  0  0  0  0  0  0  0  0  0  0
   -6.9800   -8.2252   -9.5613 O   0  0  0  0  0  0  0  0  0  0  0  0
   -5.0122   -8.2460   -7.9318 O   0  0  0  0  0  0  0  0  0  0  0  0
   -6.8860  -10.0668   -7.6143 C   0  0  0  0  0  0  0  0  0  0  0  0
   -5.8954  -10.7725   -6.8968 C   0  0  0  0  0  0  0  0  0  0  0  0
   -6.1608  -12.0643   -6.4176 C   0  0  0  0  0  0  0  0  0  0  0  0
   -7.4268  -12.6334   -6.6472 C   0  0  0  0  0  0  0  0  0  0  0  0
   -8.4358  -11.9403   -7.3494 C   0  0  0  0  0  0  0  0  0  0  0  0
   -9.6456  -12.5283   -7.5332 N   0  0  0  0  0  0  0  0  0  0  0  0
  -10.5857  -11.8334   -8.2098 C   0  0  0  0  0  0  0  0  0  0  0  0
  -10.3165  -10.5543   -8.7322 C   0  0  0  0  0  0  0  0  0  0  0  0
   -9.1105   -9.9784   -8.5745 N   0  0  0  0  0  0  0  0  0  0  0  0
   -8.1625  -10.6355   -7.8661 C   0  0  0  0  0  0  0  0  0  0  0  0
   -9.0165   -6.1916   -6.8842 H   0  0  0  0  0  0  0  0  0  0  0  0
   -9.2967   -7.9156   -7.1258 H   0  0  0  0  0  0  0  0  0  0  0  0
   -8.8656   -6.9044   -8.5025 H   0  0  0  0  0  0  0  0  0  0  0  0
   -7.2888   -6.4441   -5.2641 H   0  0  0  0  0  0  0  0  0  0  0  0
   -5.8174   -7.3570   -5.6360 H   0  0  0  0  0  0  0  0  0  0  0  0
   -7.3175   -8.2150   -5.2549 H   0  0  0  0  0  0  0  0  0  0  0  0
   -4.9217  -10.3360   -6.7303 H   0  0  0  0  0  0  0  0  0  0  0  0
   -5.4058  -12.6122   -5.8683 H   0  0  0  0  0  0  0  0  0  0  0  0
   -7.6449  -13.6156   -6.2730 H   0  0  0  0  0  0  0  0  0  0  0  0
  -11.5517  -12.3021   -8.3470 H   0  0  0  0  0  0  0  0  0  0  0  0
  -11.0628   -9.9823   -9.2702 H   0  0  0  0  0  0  0  0  0  0  0  0
  1  2  1  0
  1 17  1  0
  1 18  1  0
  1 19  1  0
  2  3  1  0
  2  4  1  0
  3 20  1  0
  3 21  1  0
  3 22  1  0
  4  5  2  0
  4  6  2  0
  4  7  1  0
  7 16  2  0
  7  8  1  0
  8  9  2  0
  8 23  1  0
  9 10  1  0
  9 24  1  0
 10 11  2  0
 10 25  1  0
 11 16  1  0
 11 12  1  0
 12 13  2  0
 13 14  1  0
 13 26  1  0
 14 15  2  0
 14 27  1  0
 15 16  1  0
M  END
>  <i_m_ct_stereo_status>  (63) 
1

>  <s_m_source_file>  (63) 
/var/tmp/pbs.5102103.sched01/tmp13xrk0lu/22amefgkkz.sdf

>  <i_m_source_file_index>  (63) 
4

>  <i_lp_mmshare_version>  (63) 
48012

>  <i_f3d_flags>  (63) 
0

>  <s_epik_input>  (63) 
W0NIM11OKFtDSDNdKVMoPU8pKD1PKWMoW2NIXVtjSF1bY0hdMSljKGMxMiluW2NIXVtjSF1uMg==

>  <s_epik_cmdline>  (63) 
J2VwaWtfcHl0aG9uJywgJy1waHQnLCAnMi4wJywgJy1waCcsICc3LjAnLCAnLXRuJywgJzgnLCAnLW1hJywgJzIwMCcsICctaW1hZScsICc8aW5maWxlLm1hZT4nLCAnLW9tYWUnLCAnPG91dGZpbGUubWFlPic=

>  <r_lp_tautomer_probability>  (63) 
1

>  <r_epik_Ionization_Penalty>  (63) 
4.74938e-09

>  <r_epik_Ionization_Penalty_Charging>  (63) 
0

>  <r_epik_Ionization_Penalty_Neutral>  (63) 
4.74938e-09

>  <r_epik_State_Penalty>  (63) 
-0

>  <r_epik_Charging_Adjusted_Penalty>  (63) 
0

>  <i_epik_Tot_Q>  (63) 
0

>  <i_epik_Tot_abs_Q>  (63) 
0

>  <s_lp_Force_Field>  (63) 
OPLS3e

>  <r_lp_Energy>  (63) 
25.6903

>  <b_lp_Chiralities_Consistent>  (63) 
1

>  <s_lp_Variant>  (63) 
19:0-1

>  <s_i_glide_gridfile>  (63) 
pfpi4k_grid

>  <i_i_glide_lignum>  (63) 
4

>  <i_i_glide_rotatable_bonds>  (63) 
2

>  <r_i_docking_score>  (63) 
-4.2174

>  <r_i_glide_ligand_efficiency>  (63) 
-0.263588

>  <r_i_glide_ligand_efficiency_sa>  (63) 
-0.664199

>  <r_i_glide_ligand_efficiency_ln>  (63) 
-1.11791

>  <r_i_glide_gscore>  (63) 
-4.2174

>  <r_i_glide_lipo>  (63) 
-1.00172

>  <r_i_glide_hbond>  (63) 
0

>  <r_i_glide_metal>  (63) 
-0

>  <r_i_glide_rewards>  (63) 
-2.14702

>  <r_i_glide_evdw>  (63) 
-18.9073

>  <r_i_glide_ecoul>  (63) 
-0.821984

>  <r_i_glide_erotb>  (63) 
0

>  <r_i_glide_esite>  (63) 
0

>  <r_i_glide_emodel>  (63) 
-26.1631

>  <r_i_glide_energy>  (63) 
-19.7293

>  <r_i_glide_einternal>  (63) 
1.41162

>  <r_i_glide_intrahb_reward>  (63) 
-0

>  <i_i_glide_confnum>  (63) 
2

>  <i_i_glide_posenum>  (63) 
1

>  <r_i_glide_eff_state_penalty>  (63) 
0

>  <ligand_id>  (63) 
19

>  <original_smiles>  (63) 
CN(C)S(=O)(=O)c1cccc2nccnc12

>  <smiles>  (63) 
[H]c1nc2c([H])c([H])c([H])c(S(=O)(=O)N(C([H])([H])[H])C([H])([H])[H])c2nc1[H]

$$$$
20:0:0
     RDKit          3D

 25 27  0  0  1  0  0  0  0  0999 V2000
    3.7483   -3.1523    5.2527 C   0  0  0  0  0  0  0  0  0  0  0  0
    3.9763   -2.5020    3.9812 N   0  0  0  0  0  0  0  0  0  0  0  0
    3.7736   -3.0049    2.7108 C   0  0  0  0  0  0  0  0  0  0  0  0
    4.1515   -2.0171    1.8519 C   0  0  0  0  0  0  0  0  0  0  0  0
    4.1570   -2.0278    0.4017 C   0  0  0  0  0  0  0  0  0  0  0  0
    4.8647   -1.0527   -0.2501 C   0  0  0  0  0  0  0  0  0  0  0  0
    4.9652   -0.9122   -1.6387 N   0  0  0  0  0  0  0  0  0  0  0  0
    4.3042   -1.7368   -2.3761 C   0  0  0  0  0  0  0  0  0  0  0  0
    4.1763   -1.7726   -3.7641 N   0  0  0  0  0  0  0  0  0  0  0  0
    3.3968   -2.7918   -3.9447 C   0  0  0  0  0  0  0  0  0  0  0  0
    3.0164   -3.4556   -2.8158 N   0  0  0  0  0  0  0  0  0  0  0  0
    3.5808   -2.7609   -1.7782 N   0  0  0  0  0  0  0  0  0  0  0  0
    3.4275   -3.0002   -0.4160 C   0  0  0  0  0  0  0  0  0  0  0  0
    2.6879   -3.9728    0.0232 N   0  0  0  0  0  0  0  0  0  0  0  0
    4.5703   -0.9353    2.6858 C   0  0  0  0  0  0  0  0  0  0  0  0
    4.4626   -1.2399    3.9680 N   0  0  0  0  0  0  0  0  0  0  0  0
    3.3220   -4.1409    5.0914 H   0  0  0  0  0  0  0  0  0  0  0  0
    3.0558   -2.5591    5.8509 H   0  0  0  0  0  0  0  0  0  0  0  0
    4.6921   -3.2554    5.7903 H   0  0  0  0  0  0  0  0  0  0  0  0
    3.3993   -4.0058    2.5457 H   0  0  0  0  0  0  0  0  0  0  0  0
    5.3995   -0.2795    0.2835 H   0  0  0  0  0  0  0  0  0  0  0  0
    3.0103   -3.1499   -4.9011 H   0  0  0  0  0  0  0  0  0  0  0  0
    2.2752   -4.4827   -0.7416 H   0  0  0  0  0  0  0  0  0  0  0  0
    4.9307    0.0494    2.4132 H   0  0  0  0  0  0  0  0  0  0  0  0
    2.9094   -4.4761   -2.7609 H   0  0  0  0  0  0  0  0  0  0  0  0
  1  2  1  0
  1 17  1  0
  1 18  1  0
  1 19  1  0
  2 16  1  0
  2  3  1  0
  3  4  2  0
  3 20  1  0
  4  5  1  0
  4 15  1  0
  5 13  1  0
  5  6  2  0
  6  7  1  0
  6 21  1  0
  7  8  2  0
  8 12  1  0
  8  9  1  0
  9 10  2  0
 10 11  1  0
 10 22  1  0
 11 12  1  0
 11 25  1  0
 12 13  1  0
 13 14  2  3
 14 23  1  0
 15 16  2  0
 15 24  1  0
M  END
>  <i_m_ct_stereo_status>  (64) 
1

>  <s_m_source_file>  (64) 
/var/tmp/pbs.5102103.sched01/tmp13xrk0lu/22amefgkkz.sdf

>  <i_m_source_file_index>  (64) 
5

>  <i_lp_mmshare_version>  (64) 
48012

>  <i_f3d_flags>  (64) 
0

>  <s_epik_input>  (64) 
W0NIM11uMVtjSF1jKFtjSF1uMSktYyhbY0hdW25IXTIpL2MoPU4vW0hdKW4oYzIzKW5bY0hdbjM=

>  <s_epik_cmdline>  (64) 
J2VwaWtfcHl0aG9uJywgJy1waHQnLCAnMi4wJywgJy1waCcsICc3LjAnLCAnLXRuJywgJzgnLCAnLW1hJywgJzIwMCcsICctaW1hZScsICc8aW5maWxlLm1hZT4nLCAnLW9tYWUnLCAnPG91dGZpbGUubWFlPic=

>  <r_lp_tautomer_probability>  (64) 
1

>  <r_epik_Ionization_Penalty>  (64) 
21.6681

>  <r_epik_Ionization_Penalty_Charging>  (64) 
21.668

>  <r_epik_Ionization_Penalty_Neutral>  (64) 
0.000128451

>  <r_epik_State_Penalty>  (64) 
-0

>  <r_epik_Charging_Adjusted_Penalty>  (64) 
21.668

>  <i_epik_Tot_Q>  (64) 
0

>  <i_epik_Tot_abs_Q>  (64) 
0

>  <s_lp_Force_Field>  (64) 
OPLS3e

>  <r_lp_Energy>  (64) 
23.6209

>  <b_lp_Chiralities_Consistent>  (64) 
1

>  <s_lp_Variant>  (64) 
20:0-1

>  <s_i_glide_gridfile>  (64) 
pfpi4k_grid

>  <i_i_glide_lignum>  (64) 
5

>  <i_i_glide_rotatable_bonds>  (64) 
1

>  <r_i_docking_score>  (64) 
-4.68911

>  <r_i_glide_ligand_efficiency>  (64) 
-0.293069

>  <r_i_glide_ligand_efficiency_sa>  (64) 
-0.738488

>  <r_i_glide_ligand_efficiency_ln>  (64) 
-1.24294

>  <r_i_glide_gscore>  (64) 
-4.68911

>  <r_i_glide_lipo>  (64) 
-0.0674414

>  <r_i_glide_hbond>  (64) 
-0.32

>  <r_i_glide_metal>  (64) 
-0

>  <r_i_glide_rewards>  (64) 
-2.04152

>  <r_i_glide_evdw>  (64) 
-21.6784

>  <r_i_glide_ecoul>  (64) 
-9.91263

>  <r_i_glide_erotb>  (64) 
0.36115

>  <r_i_glide_esite>  (64) 
-0.0504847

>  <r_i_glide_emodel>  (64) 
-40.709

>  <r_i_glide_energy>  (64) 
-31.591

>  <r_i_glide_einternal>  (64) 
0.48197

>  <r_i_glide_intrahb_reward>  (64) 
-0

>  <i_i_glide_confnum>  (64) 
1

>  <i_i_glide_posenum>  (64) 
3

>  <r_i_glide_eff_state_penalty>  (64) 
0

>  <ligand_id>  (64) 
20

>  <original_smiles>  (64) 
Cn1cc(-c2c[nH]c3ncnn3c2=N)cn1

>  <smiles>  (64) 
[H]N=c1c(-c2c([H])nn(C([H])([H])[H])c2[H])c([H])nc2nc([H])n([H])n12

$$$$
20:0:1
     RDKit          3D

 25 27  0  0  1  0  0  0  0  0999 V2000
   -3.5624    3.5322    2.7388 C   0  0  0  0  0  0  0  0  0  0  0  0
   -2.2308    3.3388    3.2617 N   0  0  0  0  0  0  0  0  0  0  0  0
   -1.2906    2.4049    2.8837 C   0  0  0  0  0  0  0  0  0  0  0  0
   -0.1989    2.6153    3.6769 C   0  0  0  0  0  0  0  0  0  0  0  0
    1.0764    1.9062    3.6939 C   0  0  0  0  0  0  0  0  0  0  0  0
    1.9924    2.2414    4.6552 C   0  0  0  0  0  0  0  0  0  0  0  0
    3.2685    1.6810    4.7894 N   0  0  0  0  0  0  0  0  0  0  0  0
    3.6256    0.7726    3.9401 C   0  0  0  0  0  0  0  0  0  0  0  0
    4.8463    0.1163    3.8117 N   0  0  0  0  0  0  0  0  0  0  0  0
    4.6730   -0.6551    2.7843 C   0  0  0  0  0  0  0  0  0  0  0  0
    3.4210   -0.5706    2.2126 N   0  0  0  0  0  0  0  0  0  0  0  0
    2.7347    0.3708    2.9616 N   0  0  0  0  0  0  0  0  0  0  0  0
    1.4591    0.8778    2.7113 C   0  0  0  0  0  0  0  0  0  0  0  0
    0.7340    0.4842    1.7141 N   0  0  0  0  0  0  0  0  0  0  0  0
   -0.5646    3.7157    4.5100 C   0  0  0  0  0  0  0  0  0  0  0  0
   -1.7898    4.1436    4.2539 N   0  0  0  0  0  0  0  0  0  0  0  0
   -3.7438    2.8412    1.9121 H   0  0  0  0  0  0  0  0  0  0  0  0
   -3.6778    4.5557    2.3819 H   0  0  0  0  0  0  0  0  0  0  0  0
   -4.2913    3.3406    3.5262 H   0  0  0  0  0  0  0  0  0  0  0  0
   -1.4912    1.6977    2.0920 H   0  0  0  0  0  0  0  0  0  0  0  0
    1.7907    3.0095    5.3908 H   0  0  0  0  0  0  0  0  0  0  0  0
    5.4096   -1.3301    2.3414 H   0  0  0  0  0  0  0  0  0  0  0  0
    1.1743   -0.1868    1.1018 H   0  0  0  0  0  0  0  0  0  0  0  0
    0.0093    4.2169    5.2751 H   0  0  0  0  0  0  0  0  0  0  0  0
    2.9227   -1.3381    1.7859 H   0  0  0  0  0  0  0  0  0  0  0  0
  1  2  1  0
  1 17  1  0
  1 18  1  0
  1 19  1  0
  2 16  1  0
  2  3  1  0
  3  4  2  0
  3 20  1  0
  4  5  1  0
  4 15  1  0
  5 13  1  0
  5  6  2  0
  6  7  1  0
  6 21  1  0
  7  8  2  0
  8 12  1  0
  8  9  1  0
  9 10  2  0
 10 11  1  0
 10 22  1  0
 11 12  1  0
 11 25  1  0
 12 13  1  0
 13 14  2  3
 14 23  1  0
 15 16  2  0
 15 24  1  0
M  END
>  <i_m_ct_stereo_status>  (65) 
1

>  <s_m_source_file>  (65) 
/var/tmp/pbs.5102103.sched01/tmp13xrk0lu/22amefgkkz.sdf

>  <i_m_source_file_index>  (65) 
5

>  <i_lp_mmshare_version>  (65) 
48012

>  <i_f3d_flags>  (65) 
0

>  <s_epik_input>  (65) 
W0NIM11uMVtjSF1jKFtjSF1uMSktYyhbY0hdW25IXTIpL2MoPU4vW0hdKW4oYzIzKW5bY0hdbjM=

>  <s_epik_cmdline>  (65) 
J2VwaWtfcHl0aG9uJywgJy1waHQnLCAnMi4wJywgJy1waCcsICc3LjAnLCAnLXRuJywgJzgnLCAnLW1hJywgJzIwMCcsICctaW1hZScsICc8aW5maWxlLm1hZT4nLCAnLW9tYWUnLCAnPG91dGZpbGUubWFlPic=

>  <r_lp_tautomer_probability>  (65) 
1

>  <r_epik_Ionization_Penalty>  (65) 
21.6681

>  <r_epik_Ionization_Penalty_Charging>  (65) 
21.668

>  <r_epik_Ionization_Penalty_Neutral>  (65) 
0.000128451

>  <r_epik_State_Penalty>  (65) 
-0

>  <r_epik_Charging_Adjusted_Penalty>  (65) 
21.668

>  <i_epik_Tot_Q>  (65) 
0

>  <i_epik_Tot_abs_Q>  (65) 
0

>  <s_lp_Force_Field>  (65) 
OPLS3e

>  <r_lp_Energy>  (65) 
23.6209

>  <b_lp_Chiralities_Consistent>  (65) 
1

>  <s_lp_Variant>  (65) 
20:0-1

>  <s_i_glide_gridfile>  (65) 
pfpi4k_grid

>  <i_i_glide_lignum>  (65) 
5

>  <i_i_glide_rotatable_bonds>  (65) 
1

>  <r_i_docking_score>  (65) 
-3.74012

>  <r_i_glide_ligand_efficiency>  (65) 
-0.233757

>  <r_i_glide_ligand_efficiency_sa>  (65) 
-0.589032

>  <r_i_glide_ligand_efficiency_ln>  (65) 
-0.991393

>  <r_i_glide_gscore>  (65) 
-3.74012

>  <r_i_glide_lipo>  (65) 
-0.0642082

>  <r_i_glide_hbond>  (65) 
-0.134127

>  <r_i_glide_metal>  (65) 
-0

>  <r_i_glide_rewards>  (65) 
-2.06684

>  <r_i_glide_evdw>  (65) 
-19.9579

>  <r_i_glide_ecoul>  (65) 
-5.14497

>  <r_i_glide_erotb>  (65) 
0.36115

>  <r_i_glide_esite>  (65) 
-0.0664518

>  <r_i_glide_emodel>  (65) 
-32.598

>  <r_i_glide_energy>  (65) 
-25.1029

>  <r_i_glide_einternal>  (65) 
0.0330219

>  <r_i_glide_intrahb_reward>  (65) 
-0

>  <i_i_glide_confnum>  (65) 
1

>  <i_i_glide_posenum>  (65) 
14

>  <r_i_glide_eff_state_penalty>  (65) 
0

>  <ligand_id>  (65) 
20

>  <original_smiles>  (65) 
Cn1cc(-c2c[nH]c3ncnn3c2=N)cn1

>  <smiles>  (65) 
[H]N=c1c(-c2c([H])nn(C([H])([H])[H])c2[H])c([H])nc2nc([H])n([H])n12

$$$$
20:0:2
     RDKit          3D

 25 27  0  0  1  0  0  0  0  0999 V2000
    3.6839   -6.1584    3.9718 C   0  0  0  0  0  0  0  0  0  0  0  0
    4.1546   -5.1603    3.0394 N   0  0  0  0  0  0  0  0  0  0  0  0
    3.6507   -4.8416    1.7942 C   0  0  0  0  0  0  0  0  0  0  0  0
    4.4450   -3.8432    1.3053 C   0  0  0  0  0  0  0  0  0  0  0  0
    4.3659   -3.1431    0.0331 C   0  0  0  0  0  0  0  0  0  0  0  0
    5.3545   -2.2512   -0.2880 C   0  0  0  0  0  0  0  0  0  0  0  0
    5.4034   -1.4734   -1.4507 N   0  0  0  0  0  0  0  0  0  0  0  0
    4.4452   -1.6172   -2.3052 C   0  0  0  0  0  0  0  0  0  0  0  0
    4.2134   -0.9110   -3.4823 N   0  0  0  0  0  0  0  0  0  0  0  0
    3.1116   -1.4211   -3.9244 C   0  0  0  0  0  0  0  0  0  0  0  0
    2.5924   -2.4366   -3.1535 N   0  0  0  0  0  0  0  0  0  0  0  0
    3.4527   -2.5548   -2.0761 N   0  0  0  0  0  0  0  0  0  0  0  0
    3.2617   -3.3097   -0.9187 C   0  0  0  0  0  0  0  0  0  0  0  0
    2.2173   -4.0520   -0.7365 N   0  0  0  0  0  0  0  0  0  0  0  0
    5.4153   -3.6190    2.3288 C   0  0  0  0  0  0  0  0  0  0  0  0
    5.2312   -4.4162    3.3677 N   0  0  0  0  0  0  0  0  0  0  0  0
    2.7846   -6.6336    3.5829 H   0  0  0  0  0  0  0  0  0  0  0  0
    3.4541   -5.6887    4.9292 H   0  0  0  0  0  0  0  0  0  0  0  0
    4.4533   -6.9184    4.1180 H   0  0  0  0  0  0  0  0  0  0  0  0
    2.7887   -5.3506    1.3909 H   0  0  0  0  0  0  0  0  0  0  0  0
    6.1800   -2.0549    0.3831 H   0  0  0  0  0  0  0  0  0  0  0  0
    2.5840   -1.1113   -4.8261 H   0  0  0  0  0  0  0  0  0  0  0  0
    1.6220   -4.0223   -1.5460 H   0  0  0  0  0  0  0  0  0  0  0  0
    6.2290   -2.9100    2.3539 H   0  0  0  0  0  0  0  0  0  0  0  0
    2.0605   -3.2325   -3.4871 H   0  0  0  0  0  0  0  0  0  0  0  0
  1  2  1  0
  1 17  1  0
  1 18  1  0
  1 19  1  0
  2 16  1  0
  2  3  1  0
  3  4  2  0
  3 20  1  0
  4  5  1  0
  4 15  1  0
  5 13  1  0
  5  6  2  0
  6  7  1  0
  6 21  1  0
  7  8  2  0
  8 12  1  0
  8  9  1  0
  9 10  2  0
 10 11  1  0
 10 22  1  0
 11 12  1  0
 11 25  1  0
 12 13  1  0
 13 14  2  3
 14 23  1  0
 15 16  2  0
 15 24  1  0
M  END
>  <i_m_ct_stereo_status>  (66) 
1

>  <s_m_source_file>  (66) 
/var/tmp/pbs.5102103.sched01/tmp13xrk0lu/22amefgkkz.sdf

>  <i_m_source_file_index>  (66) 
5

>  <i_lp_mmshare_version>  (66) 
48012

>  <i_f3d_flags>  (66) 
0

>  <s_epik_input>  (66) 
W0NIM11uMVtjSF1jKFtjSF1uMSktYyhbY0hdW25IXTIpL2MoPU4vW0hdKW4oYzIzKW5bY0hdbjM=

>  <s_epik_cmdline>  (66) 
J2VwaWtfcHl0aG9uJywgJy1waHQnLCAnMi4wJywgJy1waCcsICc3LjAnLCAnLXRuJywgJzgnLCAnLW1hJywgJzIwMCcsICctaW1hZScsICc8aW5maWxlLm1hZT4nLCAnLW9tYWUnLCAnPG91dGZpbGUubWFlPic=

>  <r_lp_tautomer_probability>  (66) 
1

>  <r_epik_Ionization_Penalty>  (66) 
21.6681

>  <r_epik_Ionization_Penalty_Charging>  (66) 
21.668

>  <r_epik_Ionization_Penalty_Neutral>  (66) 
0.000128451

>  <r_epik_State_Penalty>  (66) 
-0

>  <r_epik_Charging_Adjusted_Penalty>  (66) 
21.668

>  <i_epik_Tot_Q>  (66) 
0

>  <i_epik_Tot_abs_Q>  (66) 
0

>  <s_lp_Force_Field>  (66) 
OPLS3e

>  <r_lp_Energy>  (66) 
23.6209

>  <b_lp_Chiralities_Consistent>  (66) 
1

>  <s_lp_Variant>  (66) 
20:0-1

>  <s_i_glide_gridfile>  (66) 
pfpi4k_grid

>  <i_i_glide_lignum>  (66) 
5

>  <i_i_glide_rotatable_bonds>  (66) 
1

>  <r_i_docking_score>  (66) 
-3.73618

>  <r_i_glide_ligand_efficiency>  (66) 
-0.233511

>  <r_i_glide_ligand_efficiency_sa>  (66) 
-0.588411

>  <r_i_glide_ligand_efficiency_ln>  (66) 
-0.990349

>  <r_i_glide_gscore>  (66) 
-3.73618

>  <r_i_glide_lipo>  (66) 
-0.149817

>  <r_i_glide_hbond>  (66) 
0

>  <r_i_glide_metal>  (66) 
-0

>  <r_i_glide_rewards>  (66) 
-2.09097

>  <r_i_glide_evdw>  (66) 
-21.9578

>  <r_i_glide_ecoul>  (66) 
-4.67687

>  <r_i_glide_erotb>  (66) 
0.36115

>  <r_i_glide_esite>  (66) 
-0.0571168

>  <r_i_glide_emodel>  (66) 
-34.0861

>  <r_i_glide_energy>  (66) 
-26.6347

>  <r_i_glide_einternal>  (66) 
0.0315989

>  <r_i_glide_intrahb_reward>  (66) 
-0

>  <i_i_glide_confnum>  (66) 
1

>  <i_i_glide_posenum>  (66) 
9

>  <r_i_glide_eff_state_penalty>  (66) 
0

>  <ligand_id>  (66) 
20

>  <original_smiles>  (66) 
Cn1cc(-c2c[nH]c3ncnn3c2=N)cn1

>  <smiles>  (66) 
[H]N=c1c(-c2c([H])nn(C([H])([H])[H])c2[H])c([H])nc2nc([H])n([H])n12

$$$$
20:1:0
     RDKit          3D

 25 27  0  0  1  0  0  0  0  0999 V2000
    3.7597    0.5203   -4.6383 C   0  0  0  0  0  0  0  0  0  0  0  0
    3.8586   -0.6502   -3.7978 N   0  0  0  0  0  0  0  0  0  0  0  0
    4.0978   -0.6992   -2.4436 C   0  0  0  0  0  0  0  0  0  0  0  0
    4.0870   -2.0224   -2.0890 C   0  0  0  0  0  0  0  0  0  0  0  0
    4.2692   -2.6125   -0.7696 C   0  0  0  0  0  0  0  0  0  0  0  0
    3.9196   -3.9269   -0.6185 C   0  0  0  0  0  0  0  0  0  0  0  0
    3.9970   -4.6656    0.5629 N   0  0  0  0  0  0  0  0  0  0  0  0
    4.4443   -4.0621    1.6214 C   0  0  0  0  0  0  0  0  0  0  0  0
    4.5641   -4.5169    2.9308 N   0  0  0  0  0  0  0  0  0  0  0  0
    5.0581   -3.4994    3.5673 C   0  0  0  0  0  0  0  0  0  0  0  0
    5.2784   -2.3829    2.7935 N   0  0  0  0  0  0  0  0  0  0  0  0
    4.8860   -2.7504    1.5169 N   0  0  0  0  0  0  0  0  0  0  0  0
    4.7915   -1.9088    0.4098 C   0  0  0  0  0  0  0  0  0  0  0  0
    5.1416   -0.6740    0.4875 N   0  0  0  0  0  0  0  0  0  0  0  0
    3.8312   -2.7174   -3.3104 C   0  0  0  0  0  0  0  0  0  0  0  0
    3.7296   -1.8808   -4.3297 N   0  0  0  0  0  0  0  0  0  0  0  0
    3.8178    1.4238   -4.0324 H   0  0  0  0  0  0  0  0  0  0  0  0
    2.8179    0.5113   -5.1932 H   0  0  0  0  0  0  0  0  0  0  0  0
    4.5947    0.5540   -5.3352 H   0  0  0  0  0  0  0  0  0  0  0  0
    4.2211    0.2038   -1.8742 H   0  0  0  0  0  0  0  0  0  0  0  0
    3.4844   -4.4825   -1.4282 H   0  0  0  0  0  0  0  0  0  0  0  0
    5.2912   -3.4168    4.6276 H   0  0  0  0  0  0  0  0  0  0  0  0
    4.9610   -0.2116   -0.3792 H   0  0  0  0  0  0  0  0  0  0  0  0
    3.7361   -3.7785   -3.4889 H   0  0  0  0  0  0  0  0  0  0  0  0
    6.0057   -1.6902    2.8936 H   0  0  0  0  0  0  0  0  0  0  0  0
  1  2  1  0
  1 17  1  0
  1 18  1  0
  1 19  1  0
  2 16  1  0
  2  3  1  0
  3  4  2  0
  3 20  1  0
  4  5  1  0
  4 15  1  0
  5 13  1  0
  5  6  2  0
  6  7  1  0
  6 21  1  0
  7  8  2  0
  8 12  1  0
  8  9  1  0
  9 10  2  0
 10 11  1  0
 10 22  1  0
 11 12  1  0
 11 25  1  0
 12 13  1  0
 13 14  2  3
 14 23  1  0
 15 16  2  0
 15 24  1  0
M  END
>  <i_m_ct_stereo_status>  (67) 
1

>  <s_m_source_file>  (67) 
/var/tmp/pbs.5102103.sched01/tmp13xrk0lu/22amefgkkz.sdf

>  <i_m_source_file_index>  (67) 
6

>  <i_lp_mmshare_version>  (67) 
48012

>  <i_f3d_flags>  (67) 
0

>  <s_epik_input>  (67) 
W0NIM11uMVtjSF1jKFtjSF1uMSktYyhbY0hdW25IXTIpL2MoPU4vW0hdKW4oYzIzKW5bY0hdbjM=

>  <s_epik_cmdline>  (67) 
J2VwaWtfcHl0aG9uJywgJy1waHQnLCAnMi4wJywgJy1waCcsICc3LjAnLCAnLXRuJywgJzgnLCAnLW1hJywgJzIwMCcsICctaW1hZScsICc8aW5maWxlLm1hZT4nLCAnLW9tYWUnLCAnPG91dGZpbGUubWFlPic=

>  <r_lp_tautomer_probability>  (67) 
1

>  <r_epik_Ionization_Penalty>  (67) 
21.6681

>  <r_epik_Ionization_Penalty_Charging>  (67) 
21.668

>  <r_epik_Ionization_Penalty_Neutral>  (67) 
0.000128451

>  <r_epik_State_Penalty>  (67) 
-0

>  <r_epik_Charging_Adjusted_Penalty>  (67) 
21.668

>  <i_epik_Tot_Q>  (67) 
0

>  <i_epik_Tot_abs_Q>  (67) 
0

>  <s_lp_Force_Field>  (67) 
OPLS3e

>  <r_lp_Energy>  (67) 
22.7822

>  <b_lp_Chiralities_Consistent>  (67) 
1

>  <s_lp_Variant>  (67) 
20:0-2

>  <s_i_glide_gridfile>  (67) 
pfpi4k_grid

>  <i_i_glide_lignum>  (67) 
6

>  <i_i_glide_rotatable_bonds>  (67) 
1

>  <r_i_docking_score>  (67) 
-4.47818

>  <r_i_glide_ligand_efficiency>  (67) 
-0.279886

>  <r_i_glide_ligand_efficiency_sa>  (67) 
-0.705269

>  <r_i_glide_ligand_efficiency_ln>  (67) 
-1.18703

>  <r_i_glide_gscore>  (67) 
-4.47818

>  <r_i_glide_lipo>  (67) 
-0.345636

>  <r_i_glide_hbond>  (67) 
-0.34276

>  <r_i_glide_metal>  (67) 
-0

>  <r_i_glide_rewards>  (67) 
-2.39052

>  <r_i_glide_evdw>  (67) 
-21.7947

>  <r_i_glide_ecoul>  (67) 
-4.47121

>  <r_i_glide_erotb>  (67) 
0.36115

>  <r_i_glide_esite>  (67) 
0

>  <r_i_glide_emodel>  (67) 
-33.7128

>  <r_i_glide_energy>  (67) 
-26.2659

>  <r_i_glide_einternal>  (67) 
0.702022

>  <r_i_glide_intrahb_reward>  (67) 
-0

>  <i_i_glide_confnum>  (67) 
1

>  <i_i_glide_posenum>  (67) 
3

>  <r_i_glide_eff_state_penalty>  (67) 
0

>  <ligand_id>  (67) 
20

>  <original_smiles>  (67) 
Cn1cc(-c2c[nH]c3ncnn3c2=N)cn1

>  <smiles>  (67) 
[H]N=c1c(-c2c([H])nn(C([H])([H])[H])c2[H])c([H])nc2nc([H])n([H])n12

$$$$
20:1:1
     RDKit          3D

 25 27  0  0  1  0  0  0  0  0999 V2000
    0.0739    5.8026    3.1892 C   0  0  0  0  0  0  0  0  0  0  0  0
   -0.4913    4.5687    3.6773 N   0  0  0  0  0  0  0  0  0  0  0  0
    0.1156    3.3329    3.7541 C   0  0  0  0  0  0  0  0  0  0  0  0
   -0.8205    2.4814    4.2690 C   0  0  0  0  0  0  0  0  0  0  0  0
   -0.7233    1.0558    4.5632 C   0  0  0  0  0  0  0  0  0  0  0  0
   -1.7428    0.4704    5.2578 C   0  0  0  0  0  0  0  0  0  0  0  0
   -1.7869   -0.8737    5.6561 N   0  0  0  0  0  0  0  0  0  0  0  0
   -0.7907   -1.6307    5.3403 C   0  0  0  0  0  0  0  0  0  0  0  0
   -0.5423   -2.9609    5.6847 N   0  0  0  0  0  0  0  0  0  0  0  0
    0.5990   -3.2071    5.1233 C   0  0  0  0  0  0  0  0  0  0  0  0
    1.1399   -2.1470    4.4342 N   0  0  0  0  0  0  0  0  0  0  0  0
    0.2411   -1.1176    4.5887 N   0  0  0  0  0  0  0  0  0  0  0  0
    0.4280    0.2096    4.2035 C   0  0  0  0  0  0  0  0  0  0  0  0
    1.5126    0.5832    3.6183 N   0  0  0  0  0  0  0  0  0  0  0  0
   -1.9806    3.2950    4.4660 C   0  0  0  0  0  0  0  0  0  0  0  0
   -1.7728    4.5484    4.0959 N   0  0  0  0  0  0  0  0  0  0  0  0
    1.1251    5.6613    2.9412 H   0  0  0  0  0  0  0  0  0  0  0  0
   -0.0123    6.5815    3.9468 H   0  0  0  0  0  0  0  0  0  0  0  0
   -0.4526    6.1259    2.2901 H   0  0  0  0  0  0  0  0  0  0  0  0
    1.1414    3.2076    3.4373 H   0  0  0  0  0  0  0  0  0  0  0  0
   -2.5819    1.0389    5.6121 H   0  0  0  0  0  0  0  0  0  0  0  0
    1.1603   -4.1413    5.1582 H   0  0  0  0  0  0  0  0  0  0  0  0
    1.4725    1.5722    3.4479 H   0  0  0  0  0  0  0  0  0  0  0  0
   -2.9532    3.0229    4.8544 H   0  0  0  0  0  0  0  0  0  0  0  0
    1.7541   -2.1705    3.6317 H   0  0  0  0  0  0  0  0  0  0  0  0
  1  2  1  0
  1 17  1  0
  1 18  1  0
  1 19  1  0
  2 16  1  0
  2  3  1  0
  3  4  2  0
  3 20  1  0
  4  5  1  0
  4 15  1  0
  5 13  1  0
  5  6  2  0
  6  7  1  0
  6 21  1  0
  7  8  2  0
  8 12  1  0
  8  9  1  0
  9 10  2  0
 10 11  1  0
 10 22  1  0
 11 12  1  0
 11 25  1  0
 12 13  1  0
 13 14  2  3
 14 23  1  0
 15 16  2  0
 15 24  1  0
M  END
>  <i_m_ct_stereo_status>  (68) 
1

>  <s_m_source_file>  (68) 
/var/tmp/pbs.5102103.sched01/tmp13xrk0lu/22amefgkkz.sdf

>  <i_m_source_file_index>  (68) 
6

>  <i_lp_mmshare_version>  (68) 
48012

>  <i_f3d_flags>  (68) 
0

>  <s_epik_input>  (68) 
W0NIM11uMVtjSF1jKFtjSF1uMSktYyhbY0hdW25IXTIpL2MoPU4vW0hdKW4oYzIzKW5bY0hdbjM=

>  <s_epik_cmdline>  (68) 
J2VwaWtfcHl0aG9uJywgJy1waHQnLCAnMi4wJywgJy1waCcsICc3LjAnLCAnLXRuJywgJzgnLCAnLW1hJywgJzIwMCcsICctaW1hZScsICc8aW5maWxlLm1hZT4nLCAnLW9tYWUnLCAnPG91dGZpbGUubWFlPic=

>  <r_lp_tautomer_probability>  (68) 
1

>  <r_epik_Ionization_Penalty>  (68) 
21.6681

>  <r_epik_Ionization_Penalty_Charging>  (68) 
21.668

>  <r_epik_Ionization_Penalty_Neutral>  (68) 
0.000128451

>  <r_epik_State_Penalty>  (68) 
-0

>  <r_epik_Charging_Adjusted_Penalty>  (68) 
21.668

>  <i_epik_Tot_Q>  (68) 
0

>  <i_epik_Tot_abs_Q>  (68) 
0

>  <s_lp_Force_Field>  (68) 
OPLS3e

>  <r_lp_Energy>  (68) 
22.7822

>  <b_lp_Chiralities_Consistent>  (68) 
1

>  <s_lp_Variant>  (68) 
20:0-2

>  <s_i_glide_gridfile>  (68) 
pfpi4k_grid

>  <i_i_glide_lignum>  (68) 
6

>  <i_i_glide_rotatable_bonds>  (68) 
1

>  <r_i_docking_score>  (68) 
-3.80351

>  <r_i_glide_ligand_efficiency>  (68) 
-0.237719

>  <r_i_glide_ligand_efficiency_sa>  (68) 
-0.599015

>  <r_i_glide_ligand_efficiency_ln>  (68) 
-1.0082

>  <r_i_glide_gscore>  (68) 
-3.80351

>  <r_i_glide_lipo>  (68) 
0

>  <r_i_glide_hbond>  (68) 
-0.162535

>  <r_i_glide_metal>  (68) 
-0

>  <r_i_glide_rewards>  (68) 
-1.94172

>  <r_i_glide_evdw>  (68) 
-16.6159

>  <r_i_glide_ecoul>  (68) 
-7.24817

>  <r_i_glide_erotb>  (68) 
0.36115

>  <r_i_glide_esite>  (68) 
-0.142389

>  <r_i_glide_emodel>  (68) 
-30.3225

>  <r_i_glide_energy>  (68) 
-23.864

>  <r_i_glide_einternal>  (68) 
0.291094

>  <r_i_glide_intrahb_reward>  (68) 
-0

>  <i_i_glide_confnum>  (68) 
1

>  <i_i_glide_posenum>  (68) 
26

>  <r_i_glide_eff_state_penalty>  (68) 
0

>  <ligand_id>  (68) 
20

>  <original_smiles>  (68) 
Cn1cc(-c2c[nH]c3ncnn3c2=N)cn1

>  <smiles>  (68) 
[H]N=c1c(-c2c([H])nn(C([H])([H])[H])c2[H])c([H])nc2nc([H])n([H])n12

$$$$
20:1:2
     RDKit          3D

 25 27  0  0  1  0  0  0  0  0999 V2000
   -3.4002    3.5742    2.5722 C   0  0  0  0  0  0  0  0  0  0  0  0
   -2.1211    3.3836    3.2117 N   0  0  0  0  0  0  0  0  0  0  0  0
   -1.1280    2.4846    2.8859 C   0  0  0  0  0  0  0  0  0  0  0  0
   -0.1135    2.6934    3.7791 C   0  0  0  0  0  0  0  0  0  0  0  0
    1.1750    2.0137    3.8890 C   0  0  0  0  0  0  0  0  0  0  0  0
    1.9134    2.2119    5.0229 C   0  0  0  0  0  0  0  0  0  0  0  0
    3.1771    1.6586    5.2757 N   0  0  0  0  0  0  0  0  0  0  0  0
    3.6863    0.8762    4.3781 C   0  0  0  0  0  0  0  0  0  0  0  0
    4.9334    0.2572    4.3396 N   0  0  0  0  0  0  0  0  0  0  0  0
    4.9392   -0.3607    3.1974 C   0  0  0  0  0  0  0  0  0  0  0  0
    3.7866   -0.2035    2.4596 N   0  0  0  0  0  0  0  0  0  0  0  0
    2.9679    0.5943    3.2349 N   0  0  0  0  0  0  0  0  0  0  0  0
    1.7512    1.1537    2.8426 C   0  0  0  0  0  0  0  0  0  0  0  0
    1.2520    0.9150    1.6814 N   0  0  0  0  0  0  0  0  0  0  0  0
   -0.5900    3.7378    4.6279 C   0  0  0  0  0  0  0  0  0  0  0  0
   -1.7990    4.1446    4.2789 N   0  0  0  0  0  0  0  0  0  0  0  0
   -3.4748    2.9404    1.6871 H   0  0  0  0  0  0  0  0  0  0  0  0
   -3.5172    4.6174    2.2743 H   0  0  0  0  0  0  0  0  0  0  0  0
   -4.1922    3.3027    3.2691 H   0  0  0  0  0  0  0  0  0  0  0  0
   -1.2488    1.8051    2.0534 H   0  0  0  0  0  0  0  0  0  0  0  0
    1.5681    2.8545    5.8229 H   0  0  0  0  0  0  0  0  0  0  0  0
    5.7570   -0.9499    2.7747 H   0  0  0  0  0  0  0  0  0  0  0  0
    0.4071    1.4459    1.5386 H   0  0  0  0  0  0  0  0  0  0  0  0
   -0.0972    4.2144    5.4622 H   0  0  0  0  0  0  0  0  0  0  0  0
    3.3679   -0.8576    1.8094 H   0  0  0  0  0  0  0  0  0  0  0  0
  1  2  1  0
  1 17  1  0
  1 18  1  0
  1 19  1  0
  2 16  1  0
  2  3  1  0
  3  4  2  0
  3 20  1  0
  4  5  1  0
  4 15  1  0
  5 13  1  0
  5  6  2  0
  6  7  1  0
  6 21  1  0
  7  8  2  0
  8 12  1  0
  8  9  1  0
  9 10  2  0
 10 11  1  0
 10 22  1  0
 11 12  1  0
 11 25  1  0
 12 13  1  0
 13 14  2  3
 14 23  1  0
 15 16  2  0
 15 24  1  0
M  END
>  <i_m_ct_stereo_status>  (69) 
1

>  <s_m_source_file>  (69) 
/var/tmp/pbs.5102103.sched01/tmp13xrk0lu/22amefgkkz.sdf

>  <i_m_source_file_index>  (69) 
6

>  <i_lp_mmshare_version>  (69) 
48012

>  <i_f3d_flags>  (69) 
0

>  <s_epik_input>  (69) 
W0NIM11uMVtjSF1jKFtjSF1uMSktYyhbY0hdW25IXTIpL2MoPU4vW0hdKW4oYzIzKW5bY0hdbjM=

>  <s_epik_cmdline>  (69) 
J2VwaWtfcHl0aG9uJywgJy1waHQnLCAnMi4wJywgJy1waCcsICc3LjAnLCAnLXRuJywgJzgnLCAnLW1hJywgJzIwMCcsICctaW1hZScsICc8aW5maWxlLm1hZT4nLCAnLW9tYWUnLCAnPG91dGZpbGUubWFlPic=

>  <r_lp_tautomer_probability>  (69) 
1

>  <r_epik_Ionization_Penalty>  (69) 
21.6681

>  <r_epik_Ionization_Penalty_Charging>  (69) 
21.668

>  <r_epik_Ionization_Penalty_Neutral>  (69) 
0.000128451

>  <r_epik_State_Penalty>  (69) 
-0

>  <r_epik_Charging_Adjusted_Penalty>  (69) 
21.668

>  <i_epik_Tot_Q>  (69) 
0

>  <i_epik_Tot_abs_Q>  (69) 
0

>  <s_lp_Force_Field>  (69) 
OPLS3e

>  <r_lp_Energy>  (69) 
22.7822

>  <b_lp_Chiralities_Consistent>  (69) 
1

>  <s_lp_Variant>  (69) 
20:0-2

>  <s_i_glide_gridfile>  (69) 
pfpi4k_grid

>  <i_i_glide_lignum>  (69) 
6

>  <i_i_glide_rotatable_bonds>  (69) 
1

>  <r_i_docking_score>  (69) 
-3.46307

>  <r_i_glide_ligand_efficiency>  (69) 
-0.216442

>  <r_i_glide_ligand_efficiency_sa>  (69) 
-0.545399

>  <r_i_glide_ligand_efficiency_ln>  (69) 
-0.917955

>  <r_i_glide_gscore>  (69) 
-3.46307

>  <r_i_glide_lipo>  (69) 
-0.0513562

>  <r_i_glide_hbond>  (69) 
-0.0387209

>  <r_i_glide_metal>  (69) 
-0

>  <r_i_glide_rewards>  (69) 
-2.12231

>  <r_i_glide_evdw>  (69) 
-20.3445

>  <r_i_glide_ecoul>  (69) 
-3.52729

>  <r_i_glide_erotb>  (69) 
0.36115

>  <r_i_glide_esite>  (69) 
-0.0655061

>  <r_i_glide_emodel>  (69) 
-29.7583

>  <r_i_glide_energy>  (69) 
-23.8718

>  <r_i_glide_einternal>  (69) 
0.270775

>  <r_i_glide_intrahb_reward>  (69) 
-0

>  <i_i_glide_confnum>  (69) 
1

>  <i_i_glide_posenum>  (69) 
4

>  <r_i_glide_eff_state_penalty>  (69) 
0

>  <ligand_id>  (69) 
20

>  <original_smiles>  (69) 
Cn1cc(-c2c[nH]c3ncnn3c2=N)cn1

>  <smiles>  (69) 
[H]N=c1c(-c2c([H])nn(C([H])([H])[H])c2[H])c([H])nc2nc([H])n([H])n12

$$$$
21:0:0
     RDKit          3D

 89 96  0  0  1  0  0  0  0  0999 V2000
    7.6194   -2.4527   -0.3988 C   0  0  0  0  0  0  0  0  0  0  0  0
    6.7296   -2.3636    0.8337 C   0  0  0  0  0  0  0  0  0  0  0  0
    6.0315   -3.6018    1.1991 N   0  0  0  0  0  0  0  0  0  0  0  0
    6.7751   -4.7209    1.6860 C   0  0  0  0  0  0  0  0  0  0  0  0
    8.1211   -4.6513    1.6042 N   0  0  0  0  0  0  0  0  0  0  0  0
    8.8108   -5.7010    2.0167 C   0  0  0  0  0  0  0  0  0  0  0  0
    8.3266   -6.8598    2.4270 N   0  0  0  0  0  0  0  0  0  0  0  0
    6.9944   -6.9832    2.4982 C   0  0  0  0  0  0  0  0  0  0  0  0
    6.5542   -8.2726    2.7546 N   0  0  0  0  0  0  0  0  0  0  0  0
    6.1414   -5.8773    2.2529 C   0  0  0  0  0  0  0  0  0  0  0  0
    4.6187   -5.9247    2.4020 C   0  0  1  0  0  0  0  0  0  0  0  0
    4.0357   -6.7820    3.5653 C   0  0  0  0  0  0  0  0  0  0  0  0
    4.6166   -6.8040    4.6521 O   0  0  0  0  0  0  0  0  0  0  0  0
    2.9183   -7.5159    3.3431 N   0  0  0  0  0  0  0  0  0  0  0  0
    2.4802   -8.5303    4.3300 C   0  0  0  0  0  0  0  0  0  0  0  0
    1.7090   -9.7062    3.6763 C   0  0  2  0  0  0  0  0  0  0  0  0
    2.5656  -10.4026    2.6062 C   0  0  0  0  0  0  0  0  0  0  0  0
    2.2997   -9.5955    1.3313 C   0  0  0  0  0  0  0  0  0  0  0  0
    1.2737   -8.5212    1.7503 C   0  0  2  0  0  0  0  0  0  0  0  0
    1.9665   -7.2395    2.2397 C   0  0  0  0  0  0  0  0  0  0  0  0
    0.5908   -9.1234    2.9058 N   0  0  1  0  0  0  0  0  0  0  0  0
   -0.5090  -10.0591    2.5447 C   0  0  0  0  0  0  0  0  0  0  0  0
    4.0399   -4.4870    2.3776 C   0  0  1  0  0  0  0  0  0  0  0  0
    4.2111   -3.7209    3.7373 C   0  0  2  0  0  0  0  0  0  0  0  0
    2.9379   -3.5914    4.5909 C   0  0  0  0  0  0  0  0  0  0  0  0
    2.6279   -2.0914    4.6935 C   0  0  2  0  0  0  0  0  0  0  0  0
    2.1290   -1.8020    5.9845 O   0  0  0  0  0  0  0  0  0  0  0  0
    1.5546   -1.6075    3.6963 C   0  0  0  0  0  0  0  0  0  0  0  0
    1.6612   -2.1657    2.2625 C   0  0  0  0  0  0  0  0  0  0  0  0
    2.8758   -1.7791    1.3616 C   0  0  1  0  0  0  0  0  0  0  0  0
    3.7917   -0.7262    1.9755 C   0  0  0  0  0  0  0  0  0  0  0  0
    3.8377    0.3918    1.4627 O   0  0  0  0  0  0  0  0  0  0  0  0
    4.6320   -0.9948    3.2154 C   0  0  2  0  0  0  0  0  0  0  0  0
    5.7644    0.0261    3.3313 C   0  0  0  0  0  0  0  0  0  0  0  0
    4.8969   -2.3689    3.7834 C   0  0  1  0  0  0  0  0  0  0  0  0
    3.9668   -1.4021    4.4999 C   0  0  2  0  0  0  0  0  0  0  0  0
    4.5691   -0.8437    5.6637 O   0  0  0  0  0  0  0  0  0  0  0  0
    3.5390   -2.8366    0.3785 C   0  0  1  0  0  0  0  0  0  0  0  0
    2.3737   -3.7161   -0.1826 C   0  0  0  0  0  0  0  0  0  0  0  0
    4.0717   -2.1191   -0.9172 C   0  0  0  0  0  0  0  0  0  0  0  0
    4.6377   -3.0333   -2.0398 C   0  0  0  0  0  0  0  0  0  0  0  0
    4.5714   -3.8295    1.0739 C   0  0  1  0  0  0  0  0  0  0  0  0
    7.2257   -9.0162    2.8877 H   0  0  0  0  0  0  0  0  0  0  0  0
    7.9856   -1.4681   -0.6109 H   0  0  0  0  0  0  0  0  0  0  0  0
    7.1281   -2.7984   -1.2912 H   0  0  0  0  0  0  0  0  0  0  0  0
    8.5207   -3.0166   -0.2347 H   0  0  0  0  0  0  0  0  0  0  0  0
    7.4123   -2.0659    1.6267 H   0  0  0  0  0  0  0  0  0  0  0  0
    6.0485   -1.5276    0.8531 H   0  0  0  0  0  0  0  0  0  0  0  0
    9.8799   -5.6363    1.9483 H   0  0  0  0  0  0  0  0  0  0  0  0
    5.5813   -8.4935    2.8836 H   0  0  0  0  0  0  0  0  0  0  0  0
    4.4018   -6.4351    1.4644 H   0  0  0  0  0  0  0  0  0  0  0  0
    3.3246   -8.9303    4.8850 H   0  0  0  0  0  0  0  0  0  0  0  0
    1.8444   -8.0435    5.0663 H   0  0  0  0  0  0  0  0  0  0  0  0
    1.3468  -10.4142    4.4312 H   0  0  0  0  0  0  0  0  0  0  0  0
    3.6259  -10.4189    2.8606 H   0  0  0  0  0  0  0  0  0  0  0  0
    2.2340  -11.4342    2.4797 H   0  0  0  0  0  0  0  0  0  0  0  0
    3.1962   -9.1599    0.8889 H   0  0  0  0  0  0  0  0  0  0  0  0
    1.8809  -10.2526    0.5814 H   0  0  0  0  0  0  0  0  0  0  0  0
    0.5727   -8.2491    0.9529 H   0  0  0  0  0  0  0  0  0  0  0  0
    1.2243   -6.5386    2.6295 H   0  0  0  0  0  0  0  0  0  0  0  0
    2.3769   -6.7775    1.3414 H   0  0  0  0  0  0  0  0  0  0  0  0
   -0.1487  -10.9210    1.9520 H   0  0  0  0  0  0  0  0  0  0  0  0
   -1.2960   -9.5381    1.9769 H   0  0  0  0  0  0  0  0  0  0  0  0
   -0.9502  -10.4202    3.4764 H   0  0  0  0  0  0  0  0  0  0  0  0
    2.9857   -4.6678    2.2757 H   0  0  0  0  0  0  0  0  0  0  0  0
    4.9148   -4.3108    4.3334 H   0  0  0  0  0  0  0  0  0  0  0  0
    2.0924   -4.1855    4.2425 H   0  0  0  0  0  0  0  0  0  0  0  0
    3.1855   -3.9636    5.5852 H   0  0  0  0  0  0  0  0  0  0  0  0
    2.1309   -0.8599    6.0892 H   0  0  0  0  0  0  0  0  0  0  0  0
    0.5875   -1.9341    4.0763 H   0  0  0  0  0  0  0  0  0  0  0  0
    1.5060   -0.5134    3.6791 H   0  0  0  0  0  0  0  0  0  0  0  0
    1.4907   -3.2299    2.2969 H   0  0  0  0  0  0  0  0  0  0  0  0
    0.7788   -1.7932    1.7535 H   0  0  0  0  0  0  0  0  0  0  0  0
    2.3698   -1.1401    0.6494 H   0  0  0  0  0  0  0  0  0  0  0  0
    6.5179   -0.2404    4.0808 H   0  0  0  0  0  0  0  0  0  0  0  0
    5.3731    0.9944    3.6471 H   0  0  0  0  0  0  0  0  0  0  0  0
    6.2558    0.1014    2.3674 H   0  0  0  0  0  0  0  0  0  0  0  0
    5.8868   -2.4656    4.1854 H   0  0  0  0  0  0  0  0  0  0  0  0
    4.5689   -1.5080    6.3302 H   0  0  0  0  0  0  0  0  0  0  0  0
    2.6815   -4.3645   -0.9954 H   0  0  0  0  0  0  0  0  0  0  0  0
    1.5816   -3.0873   -0.5944 H   0  0  0  0  0  0  0  0  0  0  0  0
    1.9328   -4.4173    0.5213 H   0  0  0  0  0  0  0  0  0  0  0  0
    3.2344   -1.5486   -1.3204 H   0  0  0  0  0  0  0  0  0  0  0  0
    4.7670   -1.3090   -0.6886 H   0  0  0  0  0  0  0  0  0  0  0  0
    5.0856   -2.4048   -2.7991 H   0  0  0  0  0  0  0  0  0  0  0  0
    3.8828   -3.6245   -2.5574 H   0  0  0  0  0  0  0  0  0  0  0  0
    5.3750   -3.7466   -1.6630 H   0  0  0  0  0  0  0  0  0  0  0  0
    4.5988   -4.6383    0.3408 H   0  0  0  0  0  0  0  0  0  0  0  0
    0.1665   -8.3901    3.4678 H   0  0  0  0  0  0  0  0  0  0  0  0
  1  2  1  0
  1 44  1  0
  1 45  1  0
  1 46  1  0
  2 47  1  0
  2 48  1  0
  2  3  1  0
  3  4  1  0
  3 42  1  0
  4  5  1  0
  4 10  2  0
  5  6  2  0
  6 49  1  0
  6  7  1  0
  7  8  2  0
  8 10  1  0
  8  9  1  0
  9 50  1  0
  9 43  1  0
 10 11  1  0
 11 12  1  0
 11 23  1  0
 11 51  1  6
 12 13  2  0
 12 14  1  0
 14 20  1  0
 14 15  1  0
 15 16  1  0
 15 52  1  0
 15 53  1  0
 16 21  1  0
 16 17  1  0
 16 54  1  1
 17 18  1  0
 17 55  1  0
 17 56  1  0
 18 19  1  0
 18 57  1  0
 18 58  1  0
 19 20  1  0
 19 21  1  0
 19 59  1  6
 20 60  1  0
 20 61  1  0
 21 22  1  0
 21 89  1  1
 22 62  1  0
 22 63  1  0
 22 64  1  0
 23 42  1  0
 23 24  1  0
 23 65  1  6
 24 35  1  0
 24 25  1  0
 24 66  1  1
 25 26  1  0
 25 67  1  0
 25 68  1  0
 26 36  1  0
 26 27  1  1
 26 28  1  0
 27 69  1  0
 28 29  1  0
 28 70  1  0
 28 71  1  0
 29 30  1  0
 29 72  1  0
 29 73  1  0
 30 31  1  0
 30 38  1  0
 30 74  1  6
 31 32  2  0
 31 33  1  0
 33 36  1  0
 33 34  1  1
 33 35  1  0
 34 75  1  0
 34 76  1  0
 34 77  1  0
 35 36  1  0
 35 78  1  1
 36 37  1  1
 37 79  1  0
 38 39  1  6
 38 40  1  0
 38 42  1  0
 39 80  1  0
 39 81  1  0
 39 82  1  0
 40 41  1  0
 40 83  1  0
 40 84  1  0
 41 85  1  0
 41 86  1  0
 41 87  1  0
 42 88  1  6
M  CHG  1  21   1
M  END
>  <i_m_ct_stereo_status>  (70) 
1

>  <s_m_source_file>  (70) 
/var/tmp/pbs.5102103.sched01/tmp13xrk0lu/22amefgkkz.sdf

>  <i_m_source_file_index>  (70) 
7

>  <i_lp_mmshare_version>  (70) 
48012

>  <i_f3d_flags>  (70) 
0

>  <s_epik_input>  (70) 
W09IXVtDQEBdMTJbQ0BdMyhbT0hdKVtDQEBdNChbQ0gzXSlbQ0BASF0zW0NAQEhdKFtDSDJdMSlbQ0BIXTVbQ0BASF0oW0NAXShbQ0gzXSkoW0NIMl1bQ0gzXSlbQ0BIXShDND1PKVtDSDJdW0NIMl0yKU4oW0NIMl1bQ0gzXSljNmMoYyg9TlxbSF0pXG5bY0hdW25IXTYpW0NASF01Qyg9TylOKFtDSDJdW0NASF03OClbQ0gyXVtDQEBIXShbQ0gyXVtDSDJdNylOOFtDSDNd

>  <s_epik_cmdline>  (70) 
J2VwaWtfcHl0aG9uJywgJy1waHQnLCAnMi4wJywgJy1waCcsICc3LjAnLCAnLXRuJywgJzgnLCAnLW1hJywgJzIwMCcsICctaW1hZScsICc8aW5maWxlLm1hZT4nLCAnLW9tYWUnLCAnPG91dGZpbGUubWFlPic=

>  <r_lp_tautomer_probability>  (70) 
1

>  <r_epik_Ionization_Penalty>  (70) 
0.185646

>  <r_epik_Ionization_Penalty_Charging>  (70) 
0.0763807

>  <r_epik_Ionization_Penalty_Neutral>  (70) 
0.109265

>  <r_epik_State_Penalty>  (70) 
0.404383

>  <r_epik_Charging_Adjusted_Penalty>  (70) 
0.480764

>  <i_epik_Tot_Q>  (70) 
1

>  <i_epik_Tot_abs_Q>  (70) 
1

>  <s_lp_Force_Field>  (70) 
OPLS3e

>  <r_lp_Energy>  (70) 
125.332

>  <b_lp_Chiralities_Consistent>  (70) 
1

>  <s_lp_Variant>  (70) 
21:0-1

>  <s_i_glide_gridfile>  (70) 
pfpi4k_grid

>  <i_i_glide_lignum>  (70) 
7

>  <i_i_glide_rotatable_bonds>  (70) 
6

>  <r_i_docking_score>  (70) 
-2.46447

>  <r_i_glide_ligand_efficiency>  (70) 
-0.0586778

>  <r_i_glide_ligand_efficiency_sa>  (70) 
-0.203966

>  <r_i_glide_ligand_efficiency_ln>  (70) 
-0.520186

>  <r_i_glide_gscore>  (70) 
-2.46447

>  <r_i_glide_lipo>  (70) 
-0.555448

>  <r_i_glide_hbond>  (70) 
0

>  <r_i_glide_metal>  (70) 
-0

>  <r_i_glide_rewards>  (70) 
-0.131993

>  <r_i_glide_evdw>  (70) 
-23.3394

>  <r_i_glide_ecoul>  (70) 
-3.82137

>  <r_i_glide_erotb>  (70) 
0.0251741

>  <r_i_glide_esite>  (70) 
-0.0620225

>  <r_i_glide_emodel>  (70) 
-29.3564

>  <r_i_glide_energy>  (70) 
-27.1608

>  <r_i_glide_einternal>  (70) 
2.98165

>  <r_i_glide_intrahb_reward>  (70) 
-0

>  <i_i_glide_confnum>  (70) 
3

>  <i_i_glide_posenum>  (70) 
1

>  <r_i_glide_eff_state_penalty>  (70) 
0

>  <ligand_id>  (70) 
21

>  <original_smiles>  (70) 
CCN1c2[nH]cnc(=N)c2C(C(=O)N2CC3CCC(C2)N3C)C2C3CC4(O)CCC(C(=O)C5(C)C3C45O)C(C)(CC)C21

>  <smiles>  (70) 
[H]OC12C([H])([H])C([H])([H])C3([H])C(=O)C4(C([H])([H])[H])C([H])(C([H])(C1([H])[H])C1([H])C([H])(C(=O)N5C([H])([H])C6([H])C([H])([H])C([H])([H])C([H])(C5([H])[H])[N+]6([H])C([H])([H])[H])c5c(N([H])[H])nc([H])nc5N(C([H])([H])C([H])([H])[H])C1([H])C3(C([H])([H])[H])C([H])([H])C([H])([H])[H])C24O[H]

$$$$
21:0:1
     RDKit          3D

 89 96  0  0  1  0  0  0  0  0999 V2000
    1.9487   -4.2030   10.9785 C   0  0  0  0  0  0  0  0  0  0  0  0
    1.5868   -4.1396    9.4808 C   0  0  0  0  0  0  0  0  0  0  0  0
    2.2965   -5.1035    8.6602 N   0  0  0  0  0  0  0  0  0  0  0  0
    1.8098   -6.4530    8.6220 C   0  0  0  0  0  0  0  0  0  0  0  0
    0.6973   -6.7643    9.3244 N   0  0  0  0  0  0  0  0  0  0  0  0
    0.3177   -8.0443    9.3466 C   0  0  0  0  0  0  0  0  0  0  0  0
    0.9344   -9.0747    8.7658 N   0  0  0  0  0  0  0  0  0  0  0  0
    2.0540   -8.7751    8.0791 C   0  0  0  0  0  0  0  0  0  0  0  0
    2.6430   -9.8413    7.4284 N   0  0  0  0  0  0  0  0  0  0  0  0
    2.4407   -7.4409    7.8105 C   0  0  0  0  0  0  0  0  0  0  0  0
    3.5169   -7.0187    6.7753 C   0  0  1  0  0  0  0  0  0  0  0  0
    3.5741   -7.7256    5.3926 C   0  0  0  0  0  0  0  0  0  0  0  0
    4.7050   -7.8523    4.9086 O   0  0  0  0  0  0  0  0  0  0  0  0
    2.4400   -8.0803    4.7171 N   0  0  0  0  0  0  0  0  0  0  0  0
    1.0772   -8.1137    5.2608 C   0  0  0  0  0  0  0  0  0  0  0  0
    0.2305   -9.2403    4.7062 C   0  0  2  0  0  0  0  0  0  0  0  0
    0.8909  -10.6508    4.7567 C   0  0  0  0  0  0  0  0  0  0  0  0
    1.7246  -10.7084    3.4679 C   0  0  0  0  0  0  0  0  0  0  0  0
    1.4699   -9.3485    2.7756 C   0  0  2  0  0  0  0  0  0  0  0  0
    2.4858   -8.2768    3.2405 C   0  0  0  0  0  0  0  0  0  0  0  0
    0.1312   -8.9386    3.2679 N   0  0  1  0  0  0  0  0  0  0  0  0
   -1.0460   -9.5593    2.6047 C   0  0  0  0  0  0  0  0  0  0  0  0
    3.5679   -5.4634    6.6179 C   0  0  1  0  0  0  0  0  0  0  0  0
    2.4744   -4.8512    5.6328 C   0  0  2  0  0  0  0  0  0  0  0  0
    2.9710   -4.4252    4.2347 C   0  0  0  0  0  0  0  0  0  0  0  0
    2.7098   -2.9114    4.1434 C   0  0  2  0  0  0  0  0  0  0  0  0
    2.3845   -2.5608    2.8081 O   0  0  0  0  0  0  0  0  0  0  0  0
    3.9682   -2.0599    4.4574 C   0  0  0  0  0  0  0  0  0  0  0  0
    4.8299   -2.4977    5.6571 C   0  0  0  0  0  0  0  0  0  0  0  0
    4.2267   -2.4135    7.0892 C   0  0  1  0  0  0  0  0  0  0  0  0
    2.8339   -1.7545    7.1692 C   0  0  0  0  0  0  0  0  0  0  0  0
    2.7573   -0.6695    7.7429 O   0  0  0  0  0  0  0  0  0  0  0  0
    1.5614   -2.3597    6.5719 C   0  0  2  0  0  0  0  0  0  0  0  0
    0.3001   -1.7496    7.2012 C   0  0  0  0  0  0  0  0  0  0  0  0
    1.4523   -3.8010    6.0866 C   0  0  1  0  0  0  0  0  0  0  0  0
    1.5337   -2.6566    5.0832 C   0  0  2  0  0  0  0  0  0  0  0  0
    0.2751   -2.3683    4.4505 O   0  0  0  0  0  0  0  0  0  0  0  0
    4.5341   -3.5447    8.1497 C   0  0  1  0  0  0  0  0  0  0  0  0
    6.0205   -4.0167    7.9532 C   0  0  0  0  0  0  0  0  0  0  0  0
    4.5598   -2.9509    9.5991 C   0  0  0  0  0  0  0  0  0  0  0  0
    5.5596   -1.8306    9.9500 C   0  0  0  0  0  0  0  0  0  0  0  0
    3.6293   -4.8806    8.0341 C   0  0  1  0  0  0  0  0  0  0  0  0
    2.1378  -10.7462    7.4087 H   0  0  0  0  0  0  0  0  0  0  0  0
    1.5571   -3.3249   11.4977 H   0  0  0  0  0  0  0  0  0  0  0  0
    3.0127   -4.2365   11.1755 H   0  0  0  0  0  0  0  0  0  0  0  0
    1.5431   -5.0981   11.4445 H   0  0  0  0  0  0  0  0  0  0  0  0
    0.5136   -4.2631    9.3678 H   0  0  0  0  0  0  0  0  0  0  0  0
    1.7864   -3.1424    9.0919 H   0  0  0  0  0  0  0  0  0  0  0  0
   -0.5543   -8.3044    9.9376 H   0  0  0  0  0  0  0  0  0  0  0  0
    3.2426   -9.7203    6.6358 H   0  0  0  0  0  0  0  0  0  0  0  0
    4.4399   -7.3269    7.2958 H   0  0  0  0  0  0  0  0  0  0  0  0
    0.9760   -8.3633    6.2488 H   0  0  0  0  0  0  0  0  0  0  0  0
    0.5676   -7.1623    5.1973 H   0  0  0  0  0  0  0  0  0  0  0  0
   -0.7351   -9.2273    5.2224 H   0  0  0  0  0  0  0  0  0  0  0  0
    1.4762  -10.8510    5.6233 H   0  0  0  0  0  0  0  0  0  0  0  0
    0.1216  -11.4227    4.7526 H   0  0  0  0  0  0  0  0  0  0  0  0
    2.7701  -10.8950    3.6688 H   0  0  0  0  0  0  0  0  0  0  0  0
    1.3480  -11.5220    2.8533 H   0  0  0  0  0  0  0  0  0  0  0  0
    1.4676   -9.4217    1.6957 H   0  0  0  0  0  0  0  0  0  0  0  0
    2.2189   -7.3110    2.7921 H   0  0  0  0  0  0  0  0  0  0  0  0
    3.4878   -8.5314    2.8630 H   0  0  0  0  0  0  0  0  0  0  0  0
   -0.9895  -10.6352    2.6927 H   0  0  0  0  0  0  0  0  0  0  0  0
   -1.0423   -9.2712    1.5680 H   0  0  0  0  0  0  0  0  0  0  0  0
   -1.9693   -9.2045    3.0687 H   0  0  0  0  0  0  0  0  0  0  0  0
    4.5107   -5.2972    6.1183 H   0  0  0  0  0  0  0  0  0  0  0  0
    1.8237   -5.6667    5.4280 H   0  0  0  0  0  0  0  0  0  0  0  0
    3.9978   -4.7015    4.0371 H   0  0  0  0  0  0  0  0  0  0  0  0
    2.3737   -4.9464    3.4850 H   0  0  0  0  0  0  0  0  0  0  0  0
    2.2664   -1.6247    2.7703 H   0  0  0  0  0  0  0  0  0  0  0  0
    4.6313   -2.0973    3.5891 H   0  0  0  0  0  0  0  0  0  0  0  0
    3.6871   -1.0108    4.5483 H   0  0  0  0  0  0  0  0  0  0  0  0
    5.2623   -3.4658    5.4423 H   0  0  0  0  0  0  0  0  0  0  0  0
    5.7067   -1.8487    5.6421 H   0  0  0  0  0  0  0  0  0  0  0  0
    4.8413   -1.6082    7.4662 H   0  0  0  0  0  0  0  0  0  0  0  0
   -0.6049   -2.2948    6.8940 H   0  0  0  0  0  0  0  0  0  0  0  0
    0.1700   -0.7121    6.8887 H   0  0  0  0  0  0  0  0  0  0  0  0
    0.3283   -1.7798    8.2881 H   0  0  0  0  0  0  0  0  0  0  0  0
    0.4793   -4.2530    6.3168 H   0  0  0  0  0  0  0  0  0  0  0  0
    0.2343   -1.4376    4.2840 H   0  0  0  0  0  0  0  0  0  0  0  0
    6.3653   -4.6264    8.7898 H   0  0  0  0  0  0  0  0  0  0  0  0
    6.7076   -3.1794    7.8691 H   0  0  0  0  0  0  0  0  0  0  0  0
    6.2044   -4.6229    7.0730 H   0  0  0  0  0  0  0  0  0  0  0  0
    3.5975   -2.5292    9.8693 H   0  0  0  0  0  0  0  0  0  0  0  0
    4.7806   -3.7597   10.2982 H   0  0  0  0  0  0  0  0  0  0  0  0
    5.4150   -1.5092   10.9849 H   0  0  0  0  0  0  0  0  0  0  0  0
    5.4227   -0.9401    9.3380 H   0  0  0  0  0  0  0  0  0  0  0  0
    6.5981   -2.1505    9.8729 H   0  0  0  0  0  0  0  0  0  0  0  0
    4.2234   -5.5685    8.6319 H   0  0  0  0  0  0  0  0  0  0  0  0
    0.0322   -7.9208    3.1914 H   0  0  0  0  0  0  0  0  0  0  0  0
  1  2  1  0
  1 44  1  0
  1 45  1  0
  1 46  1  0
  2 47  1  0
  2 48  1  0
  2  3  1  0
  3  4  1  0
  3 42  1  0
  4  5  1  0
  4 10  2  0
  5  6  2  0
  6 49  1  0
  6  7  1  0
  7  8  2  0
  8 10  1  0
  8  9  1  0
  9 50  1  0
  9 43  1  0
 10 11  1  0
 11 12  1  0
 11 23  1  0
 11 51  1  1
 12 13  2  0
 12 14  1  0
 14 20  1  0
 14 15  1  0
 15 16  1  0
 15 52  1  0
 15 53  1  0
 16 21  1  0
 16 17  1  0
 16 54  1  1
 17 18  1  0
 17 55  1  0
 17 56  1  0
 18 19  1  0
 18 57  1  0
 18 58  1  0
 19 20  1  0
 19 21  1  0
 19 59  1  6
 20 60  1  0
 20 61  1  0
 21 22  1  0
 21 89  1  1
 22 62  1  0
 22 63  1  0
 22 64  1  0
 23 42  1  0
 23 24  1  0
 23 65  1  6
 24 35  1  0
 24 25  1  0
 24 66  1  6
 25 26  1  0
 25 67  1  0
 25 68  1  0
 26 36  1  0
 26 27  1  6
 26 28  1  0
 27 69  1  0
 28 29  1  0
 28 70  1  0
 28 71  1  0
 29 30  1  0
 29 72  1  0
 29 73  1  0
 30 31  1  0
 30 38  1  0
 30 74  1  1
 31 32  2  0
 31 33  1  0
 33 36  1  0
 33 34  1  1
 33 35  1  0
 34 75  1  0
 34 76  1  0
 34 77  1  0
 35 36  1  0
 35 78  1  1
 36 37  1  6
 37 79  1  0
 38 39  1  6
 38 40  1  0
 38 42  1  0
 39 80  1  0
 39 81  1  0
 39 82  1  0
 40 41  1  0
 40 83  1  0
 40 84  1  0
 41 85  1  0
 41 86  1  0
 41 87  1  0
 42 88  1  1
M  CHG  1  21   1
M  END
>  <i_m_ct_stereo_status>  (71) 
1

>  <s_m_source_file>  (71) 
/var/tmp/pbs.5102103.sched01/tmp13xrk0lu/22amefgkkz.sdf

>  <i_m_source_file_index>  (71) 
7

>  <i_lp_mmshare_version>  (71) 
48012

>  <i_f3d_flags>  (71) 
0

>  <s_epik_input>  (71) 
W09IXVtDQEBdMTJbQ0BdMyhbT0hdKVtDQEBdNChbQ0gzXSlbQ0BASF0zW0NAQEhdKFtDSDJdMSlbQ0BIXTVbQ0BASF0oW0NAXShbQ0gzXSkoW0NIMl1bQ0gzXSlbQ0BIXShDND1PKVtDSDJdW0NIMl0yKU4oW0NIMl1bQ0gzXSljNmMoYyg9TlxbSF0pXG5bY0hdW25IXTYpW0NASF01Qyg9TylOKFtDSDJdW0NASF03OClbQ0gyXVtDQEBIXShbQ0gyXVtDSDJdNylOOFtDSDNd

>  <s_epik_cmdline>  (71) 
J2VwaWtfcHl0aG9uJywgJy1waHQnLCAnMi4wJywgJy1waCcsICc3LjAnLCAnLXRuJywgJzgnLCAnLW1hJywgJzIwMCcsICctaW1hZScsICc8aW5maWxlLm1hZT4nLCAnLW9tYWUnLCAnPG91dGZpbGUubWFlPic=

>  <r_lp_tautomer_probability>  (71) 
1

>  <r_epik_Ionization_Penalty>  (71) 
0.185646

>  <r_epik_Ionization_Penalty_Charging>  (71) 
0.0763807

>  <r_epik_Ionization_Penalty_Neutral>  (71) 
0.109265

>  <r_epik_State_Penalty>  (71) 
0.404383

>  <r_epik_Charging_Adjusted_Penalty>  (71) 
0.480764

>  <i_epik_Tot_Q>  (71) 
1

>  <i_epik_Tot_abs_Q>  (71) 
1

>  <s_lp_Force_Field>  (71) 
OPLS3e

>  <r_lp_Energy>  (71) 
125.332

>  <b_lp_Chiralities_Consistent>  (71) 
1

>  <s_lp_Variant>  (71) 
21:0-1

>  <s_i_glide_gridfile>  (71) 
pfpi4k_grid

>  <i_i_glide_lignum>  (71) 
7

>  <i_i_glide_rotatable_bonds>  (71) 
6

>  <r_i_docking_score>  (71) 
-1.86459

>  <r_i_glide_ligand_efficiency>  (71) 
-0.044395

>  <r_i_glide_ligand_efficiency_sa>  (71) 
-0.154318

>  <r_i_glide_ligand_efficiency_ln>  (71) 
-0.393567

>  <r_i_glide_gscore>  (71) 
-1.86459

>  <r_i_glide_lipo>  (71) 
-0.259662

>  <r_i_glide_hbond>  (71) 
-0.16

>  <r_i_glide_metal>  (71) 
-0

>  <r_i_glide_rewards>  (71) 
0

>  <r_i_glide_evdw>  (71) 
-18.4831

>  <r_i_glide_ecoul>  (71) 
-3.34677

>  <r_i_glide_erotb>  (71) 
0.0251741

>  <r_i_glide_esite>  (71) 
-0.184113

>  <r_i_glide_emodel>  (71) 
-19.0726

>  <r_i_glide_energy>  (71) 
-21.8299

>  <r_i_glide_einternal>  (71) 
4.30749

>  <r_i_glide_intrahb_reward>  (71) 
-0

>  <i_i_glide_confnum>  (71) 
2

>  <i_i_glide_posenum>  (71) 
26

>  <r_i_glide_eff_state_penalty>  (71) 
0

>  <ligand_id>  (71) 
21

>  <original_smiles>  (71) 
CCN1c2[nH]cnc(=N)c2C(C(=O)N2CC3CCC(C2)N3C)C2C3CC4(O)CCC(C(=O)C5(C)C3C45O)C(C)(CC)C21

>  <smiles>  (71) 
[H]OC12C([H])([H])C([H])([H])C3([H])C(=O)C4(C([H])([H])[H])C([H])(C([H])(C1([H])[H])C1([H])C([H])(C(=O)N5C([H])([H])C6([H])C([H])([H])C([H])([H])C([H])(C5([H])[H])[N+]6([H])C([H])([H])[H])c5c(N([H])[H])nc([H])nc5N(C([H])([H])C([H])([H])[H])C1([H])C3(C([H])([H])[H])C([H])([H])C([H])([H])[H])C24O[H]

$$$$
21:0:2
     RDKit          3D

 89 96  0  0  1  0  0  0  0  0999 V2000
    2.9906   -3.2194    9.8689 C   0  0  0  0  0  0  0  0  0  0  0  0
    2.4910   -3.3235    8.4138 C   0  0  0  0  0  0  0  0  0  0  0  0
    3.1170   -4.3939    7.6596 N   0  0  0  0  0  0  0  0  0  0  0  0
    2.6324   -5.7348    7.8636 C   0  0  0  0  0  0  0  0  0  0  0  0
    1.5982   -5.9078    8.7082 N   0  0  0  0  0  0  0  0  0  0  0  0
    1.2112   -7.1768    8.9182 C   0  0  0  0  0  0  0  0  0  0  0  0
    1.7840   -8.2770    8.4640 N   0  0  0  0  0  0  0  0  0  0  0  0
    2.8068   -8.1028    7.5774 C   0  0  0  0  0  0  0  0  0  0  0  0
    3.3831   -9.3008    7.1281 N   0  0  0  0  0  0  0  0  0  0  0  0
    3.1612   -6.8400    7.1272 C   0  0  0  0  0  0  0  0  0  0  0  0
    4.0855   -6.5738    5.9158 C   0  0  1  0  0  0  0  0  0  0  0  0
    3.9216   -7.4671    4.6585 C   0  0  0  0  0  0  0  0  0  0  0  0
    4.9862   -7.6810    4.0774 O   0  0  0  0  0  0  0  0  0  0  0  0
    2.7147   -7.9143    4.1893 N   0  0  0  0  0  0  0  0  0  0  0  0
    1.3833   -7.6627    4.8031 C   0  0  0  0  0  0  0  0  0  0  0  0
    0.4429   -8.8482    4.6211 C   0  0  2  0  0  0  0  0  0  0  0  0
    0.9776  -10.2338    5.0655 C   0  0  0  0  0  0  0  0  0  0  0  0
    1.7403  -10.7328    3.8302 C   0  0  0  0  0  0  0  0  0  0  0  0
    1.5495   -9.6310    2.7510 C   0  0  2  0  0  0  0  0  0  0  0  0
    2.6694   -8.5544    2.8374 C   0  0  0  0  0  0  0  0  0  0  0  0
    0.2833   -8.9640    3.1521 N   0  0  1  0  0  0  0  0  0  0  0  0
   -0.9765   -9.6520    2.7745 C   0  0  0  0  0  0  0  0  0  0  0  0
    4.1360   -5.0622    5.5405 C   0  0  1  0  0  0  0  0  0  0  0  0
    2.9629   -4.5488    4.6124 C   0  0  2  0  0  0  0  0  0  0  0  0
    3.2856   -4.3353    3.1223 C   0  0  0  0  0  0  0  0  0  0  0  0
    3.0141   -2.8472    2.8523 C   0  0  2  0  0  0  0  0  0  0  0  0
    2.5283   -2.7064    1.5308 O   0  0  0  0  0  0  0  0  0  0  0  0
    4.2887   -1.9921    2.9027 C   0  0  0  0  0  0  0  0  0  0  0  0
    5.2681   -2.2986    4.0428 C   0  0  0  0  0  0  0  0  0  0  0  0
    4.8469   -2.0046    5.5134 C   0  0  1  0  0  0  0  0  0  0  0  0
    3.4888   -1.3007    5.6710 C   0  0  0  0  0  0  0  0  0  0  0  0
    3.4718   -0.1475    6.0961 O   0  0  0  0  0  0  0  0  0  0  0  0
    2.1659   -1.9435    5.3033 C   0  0  2  0  0  0  0  0  0  0  0  0
    0.9814   -1.2272    5.9834 C   0  0  0  0  0  0  0  0  0  0  0  0
    2.0082   -3.4260    5.0289 C   0  0  1  0  0  0  0  0  0  0  0  0
    1.9740   -2.4244    3.8859 C   0  0  2  0  0  0  0  0  0  0  0  0
    0.6663   -2.2118    3.3910 O   0  0  0  0  0  0  0  0  0  0  0  0
    5.2773   -2.9839    6.6791 C   0  0  1  0  0  0  0  0  0  0  0  0
    6.7164   -3.5156    6.3847 C   0  0  0  0  0  0  0  0  0  0  0  0
    5.4744   -2.2020    8.0188 C   0  0  0  0  0  0  0  0  0  0  0  0
    6.5371   -1.0895    8.1016 C   0  0  0  0  0  0  0  0  0  0  0  0
    4.3641   -4.2954    6.8585 C   0  0  1  0  0  0  0  0  0  0  0  0
    2.7983  -10.1063    7.2119 H   0  0  0  0  0  0  0  0  0  0  0  0
    2.6789   -2.2661   10.3043 H   0  0  0  0  0  0  0  0  0  0  0  0
    4.0730   -3.2727    9.9610 H   0  0  0  0  0  0  0  0  0  0  0  0
    2.6080   -4.0399   10.4764 H   0  0  0  0  0  0  0  0  0  0  0  0
    1.4027   -3.4275    8.4077 H   0  0  0  0  0  0  0  0  0  0  0  0
    2.6800   -2.3875    7.8993 H   0  0  0  0  0  0  0  0  0  0  0  0
    0.3983   -7.3295    9.6246 H   0  0  0  0  0  0  0  0  0  0  0  0
    3.7854   -9.2486    6.2089 H   0  0  0  0  0  0  0  0  0  0  0  0
    5.0719   -6.8300    6.3279 H   0  0  0  0  0  0  0  0  0  0  0  0
    1.3641   -7.4801    5.8582 H   0  0  0  0  0  0  0  0  0  0  0  0
    0.9031   -6.8063    4.3131 H   0  0  0  0  0  0  0  0  0  0  0  0
   -0.4908   -8.5756    5.1370 H   0  0  0  0  0  0  0  0  0  0  0  0
    1.5658  -10.2126    5.9714 H   0  0  0  0  0  0  0  0  0  0  0  0
    0.1319  -10.8931    5.2766 H   0  0  0  0  0  0  0  0  0  0  0  0
    2.7914  -10.9090    4.0433 H   0  0  0  0  0  0  0  0  0  0  0  0
    1.2936  -11.6716    3.4942 H   0  0  0  0  0  0  0  0  0  0  0  0
    1.4738  -10.0348    1.7336 H   0  0  0  0  0  0  0  0  0  0  0  0
    2.4686   -7.7601    2.1085 H   0  0  0  0  0  0  0  0  0  0  0  0
    3.6181   -9.0101    2.5078 H   0  0  0  0  0  0  0  0  0  0  0  0
   -0.9872  -10.6404    3.2301 H   0  0  0  0  0  0  0  0  0  0  0  0
   -1.0299   -9.7237    1.6899 H   0  0  0  0  0  0  0  0  0  0  0  0
   -1.8325   -9.0878    3.1625 H   0  0  0  0  0  0  0  0  0  0  0  0
    5.0177   -5.0130    4.9186 H   0  0  0  0  0  0  0  0  0  0  0  0
    2.2751   -5.3666    4.6131 H   0  0  0  0  0  0  0  0  0  0  0  0
    4.2816   -4.6747    2.8288 H   0  0  0  0  0  0  0  0  0  0  0  0
    2.5819   -4.9363    2.5443 H   0  0  0  0  0  0  0  0  0  0  0  0
    3.2424   -2.8478    0.9266 H   0  0  0  0  0  0  0  0  0  0  0  0
    4.8551   -2.1613    1.9850 H   0  0  0  0  0  0  0  0  0  0  0  0
    4.0334   -0.9317    2.8918 H   0  0  0  0  0  0  0  0  0  0  0  0
    5.6835   -3.2895    3.9186 H   0  0  0  0  0  0  0  0  0  0  0  0
    6.0946   -1.6436    3.7934 H   0  0  0  0  0  0  0  0  0  0  0  0
    5.5004   -1.1666    5.7035 H   0  0  0  0  0  0  0  0  0  0  0  0
    0.0486   -1.7891    5.8595 H   0  0  0  0  0  0  0  0  0  0  0  0
    0.8282   -0.2391    5.5433 H   0  0  0  0  0  0  0  0  0  0  0  0
    1.1436   -1.1114    7.0535 H   0  0  0  0  0  0  0  0  0  0  0  0
    1.0667   -3.8205    5.3980 H   0  0  0  0  0  0  0  0  0  0  0  0
    0.7264   -1.5297    2.7366 H   0  0  0  0  0  0  0  0  0  0  0  0
    7.1507   -4.0136    7.2504 H   0  0  0  0  0  0  0  0  0  0  0  0
    7.3915   -2.7098    6.1211 H   0  0  0  0  0  0  0  0  0  0  0  0
    6.7956   -4.2377    5.5795 H   0  0  0  0  0  0  0  0  0  0  0  0
    4.5548   -1.7200    8.3276 H   0  0  0  0  0  0  0  0  0  0  0  0
    5.7591   -2.9217    8.7848 H   0  0  0  0  0  0  0  0  0  0  0  0
    6.5137   -0.6345    9.0914 H   0  0  0  0  0  0  0  0  0  0  0  0
    6.3563   -0.2837    7.3950 H   0  0  0  0  0  0  0  0  0  0  0  0
    7.5522   -1.4588    7.9638 H   0  0  0  0  0  0  0  0  0  0  0  0
    5.0194   -4.9292    7.4550 H   0  0  0  0  0  0  0  0  0  0  0  0
    0.2581   -8.0158    2.7645 H   0  0  0  0  0  0  0  0  0  0  0  0
  1  2  1  0
  1 44  1  0
  1 45  1  0
  1 46  1  0
  2 47  1  0
  2 48  1  0
  2  3  1  0
  3  4  1  0
  3 42  1  0
  4  5  1  0
  4 10  2  0
  5  6  2  0
  6 49  1  0
  6  7  1  0
  7  8  2  0
  8 10  1  0
  8  9  1  0
  9 50  1  0
  9 43  1  0
 10 11  1  0
 11 12  1  0
 11 23  1  0
 11 51  1  1
 12 13  2  0
 12 14  1  0
 14 20  1  0
 14 15  1  0
 15 16  1  0
 15 52  1  0
 15 53  1  0
 16 21  1  0
 16 17  1  0
 16 54  1  1
 17 18  1  0
 17 55  1  0
 17 56  1  0
 18 19  1  0
 18 57  1  0
 18 58  1  0
 19 20  1  0
 19 21  1  0
 19 59  1  6
 20 60  1  0
 20 61  1  0
 21 22  1  0
 21 89  1  6
 22 62  1  0
 22 63  1  0
 22 64  1  0
 23 42  1  0
 23 24  1  0
 23 65  1  6
 24 35  1  0
 24 25  1  0
 24 66  1  6
 25 26  1  0
 25 67  1  0
 25 68  1  0
 26 36  1  0
 26 27  1  6
 26 28  1  0
 27 69  1  0
 28 29  1  0
 28 70  1  0
 28 71  1  0
 29 30  1  0
 29 72  1  0
 29 73  1  0
 30 31  1  0
 30 38  1  0
 30 74  1  1
 31 32  2  0
 31 33  1  0
 33 36  1  0
 33 34  1  1
 33 35  1  0
 34 75  1  0
 34 76  1  0
 34 77  1  0
 35 36  1  0
 35 78  1  1
 36 37  1  6
 37 79  1  0
 38 39  1  6
 38 40  1  0
 38 42  1  0
 39 80  1  0
 39 81  1  0
 39 82  1  0
 40 41  1  0
 40 83  1  0
 40 84  1  0
 41 85  1  0
 41 86  1  0
 41 87  1  0
 42 88  1  1
M  CHG  1  21   1
M  END
>  <i_m_ct_stereo_status>  (72) 
1

>  <s_m_source_file>  (72) 
/var/tmp/pbs.5102103.sched01/tmp13xrk0lu/22amefgkkz.sdf

>  <i_m_source_file_index>  (72) 
7

>  <i_lp_mmshare_version>  (72) 
48012

>  <i_f3d_flags>  (72) 
0

>  <s_epik_input>  (72) 
W09IXVtDQEBdMTJbQ0BdMyhbT0hdKVtDQEBdNChbQ0gzXSlbQ0BASF0zW0NAQEhdKFtDSDJdMSlbQ0BIXTVbQ0BASF0oW0NAXShbQ0gzXSkoW0NIMl1bQ0gzXSlbQ0BIXShDND1PKVtDSDJdW0NIMl0yKU4oW0NIMl1bQ0gzXSljNmMoYyg9TlxbSF0pXG5bY0hdW25IXTYpW0NASF01Qyg9TylOKFtDSDJdW0NASF03OClbQ0gyXVtDQEBIXShbQ0gyXVtDSDJdNylOOFtDSDNd

>  <s_epik_cmdline>  (72) 
J2VwaWtfcHl0aG9uJywgJy1waHQnLCAnMi4wJywgJy1waCcsICc3LjAnLCAnLXRuJywgJzgnLCAnLW1hJywgJzIwMCcsICctaW1hZScsICc8aW5maWxlLm1hZT4nLCAnLW9tYWUnLCAnPG91dGZpbGUubWFlPic=

>  <r_lp_tautomer_probability>  (72) 
1

>  <r_epik_Ionization_Penalty>  (72) 
0.185646

>  <r_epik_Ionization_Penalty_Charging>  (72) 
0.0763807

>  <r_epik_Ionization_Penalty_Neutral>  (72) 
0.109265

>  <r_epik_State_Penalty>  (72) 
0.404383

>  <r_epik_Charging_Adjusted_Penalty>  (72) 
0.480764

>  <i_epik_Tot_Q>  (72) 
1

>  <i_epik_Tot_abs_Q>  (72) 
1

>  <s_lp_Force_Field>  (72) 
OPLS3e

>  <r_lp_Energy>  (72) 
125.332

>  <b_lp_Chiralities_Consistent>  (72) 
1

>  <s_lp_Variant>  (72) 
21:0-1

>  <s_i_glide_gridfile>  (72) 
pfpi4k_grid

>  <i_i_glide_lignum>  (72) 
7

>  <i_i_glide_rotatable_bonds>  (72) 
6

>  <r_i_docking_score>  (72) 
-1.16358

>  <r_i_glide_ligand_efficiency>  (72) 
-0.0277044

>  <r_i_glide_ligand_efficiency_sa>  (72) 
-0.0963012

>  <r_i_glide_ligand_efficiency_ln>  (72) 
-0.245603

>  <r_i_glide_gscore>  (72) 
-1.16358

>  <r_i_glide_lipo>  (72) 
-0.224942

>  <r_i_glide_hbond>  (72) 
0

>  <r_i_glide_metal>  (72) 
-0

>  <r_i_glide_rewards>  (72) 
0

>  <r_i_glide_evdw>  (72) 
-15.5951

>  <r_i_glide_ecoul>  (72) 
-0.784708

>  <r_i_glide_erotb>  (72) 
0.0251741

>  <r_i_glide_esite>  (72) 
-0.0663577

>  <r_i_glide_emodel>  (72) 
-14.3835

>  <r_i_glide_energy>  (72) 
-16.3798

>  <r_i_glide_einternal>  (72) 
3.43823

>  <r_i_glide_intrahb_reward>  (72) 
-0

>  <i_i_glide_confnum>  (72) 
1

>  <i_i_glide_posenum>  (72) 
2

>  <r_i_glide_eff_state_penalty>  (72) 
0

>  <ligand_id>  (72) 
21

>  <original_smiles>  (72) 
CCN1c2[nH]cnc(=N)c2C(C(=O)N2CC3CCC(C2)N3C)C2C3CC4(O)CCC(C(=O)C5(C)C3C45O)C(C)(CC)C21

>  <smiles>  (72) 
[H]OC12C([H])([H])C([H])([H])C3([H])C(=O)C4(C([H])([H])[H])C([H])(C([H])(C1([H])[H])C1([H])C([H])(C(=O)N5C([H])([H])C6([H])C([H])([H])C([H])([H])C([H])(C5([H])[H])[N+]6([H])C([H])([H])[H])c5c(N([H])[H])nc([H])nc5N(C([H])([H])C([H])([H])[H])C1([H])C3(C([H])([H])[H])C([H])([H])C([H])([H])[H])C24O[H]

$$$$
21:1:0
     RDKit          3D

 89 96  0  0  1  0  0  0  0  0999 V2000
    2.9972   -6.1310   11.8486 C   0  0  0  0  0  0  0  0  0  0  0  0
    3.4312   -5.6876   10.4108 C   0  0  0  0  0  0  0  0  0  0  0  0
    2.5285   -6.1189    9.3363 N   0  0  0  0  0  0  0  0  0  0  0  0
    1.3810   -5.2973    9.0326 C   0  0  0  0  0  0  0  0  0  0  0  0
    1.0677   -4.3268    9.9092 N   0  0  0  0  0  0  0  0  0  0  0  0
   -0.0556   -3.6596    9.7136 C   0  0  0  0  0  0  0  0  0  0  0  0
   -0.9551   -3.8445    8.7355 N   0  0  0  0  0  0  0  0  0  0  0  0
   -0.6370   -4.7978    7.8376 C   0  0  0  0  0  0  0  0  0  0  0  0
   -1.6492   -5.0323    6.9022 N   0  0  0  0  0  0  0  0  0  0  0  0
    0.5767   -5.5133    7.8697 C   0  0  0  0  0  0  0  0  0  0  0  0
    0.9953   -6.5780    6.8359 C   0  0  1  0  0  0  0  0  0  0  0  0
    0.6966   -6.2787    5.3226 C   0  0  0  0  0  0  0  0  0  0  0  0
    0.5401   -5.1163    4.9601 O   0  0  0  0  0  0  0  0  0  0  0  0
    0.7118   -7.3101    4.4375 N   0  0  0  0  0  0  0  0  0  0  0  0
    1.0210   -7.0761    3.0084 C   0  0  0  0  0  0  0  0  0  0  0  0
    0.3423   -8.1048    2.0679 C   0  0  2  0  0  0  0  0  0  0  0  0
   -1.1872   -8.0648    2.2039 C   0  0  0  0  0  0  0  0  0  0  0  0
   -1.4968   -9.0358    3.3517 C   0  0  0  0  0  0  0  0  0  0  0  0
   -0.1207   -9.5919    3.7725 C   0  0  2  0  0  0  0  0  0  0  0  0
    0.5452   -8.7129    4.8553 C   0  0  0  0  0  0  0  0  0  0  0  0
    0.6522   -9.4895    2.5099 N   0  0  2  0  0  0  0  0  0  0  0  0
    2.0920   -9.9206    2.5392 C   0  0  0  0  0  0  0  0  0  0  0  0
    2.4967   -6.9475    7.0227 C   0  0  1  0  0  0  0  0  0  0  0  0
    3.5086   -5.8947    6.4082 C   0  0  2  0  0  0  0  0  0  0  0  0
    4.1697   -6.3159    5.0810 C   0  0  0  0  0  0  0  0  0  0  0  0
    5.6765   -6.4222    5.3570 C   0  0  2  0  0  0  0  0  0  0  0  0
    6.4063   -6.0052    4.2119 O   0  0  0  0  0  0  0  0  0  0  0  0
    6.1582   -7.8757    5.6108 C   0  0  0  0  0  0  0  0  0  0  0  0
    5.2755   -8.7533    6.5223 C   0  0  0  0  0  0  0  0  0  0  0  0
    5.1213   -8.3738    8.0305 C   0  0  1  0  0  0  0  0  0  0  0  0
    6.0111   -7.2164    8.4850 C   0  0  0  0  0  0  0  0  0  0  0  0
    6.9345   -7.4633    9.2642 O   0  0  0  0  0  0  0  0  0  0  0  0
    5.8386   -5.7709    8.0108 C   0  0  2  0  0  0  0  0  0  0  0  0
    6.5229   -4.7828    8.9769 C   0  0  0  0  0  0  0  0  0  0  0  0
    4.6095   -5.2555    7.2653 C   0  0  1  0  0  0  0  0  0  0  0  0
    5.9209   -5.4671    6.5295 C   0  0  2  0  0  0  0  0  0  0  0  0
    6.5849   -4.2382    6.2072 O   0  0  0  0  0  0  0  0  0  0  0  0
    3.7150   -8.5375    8.7527 C   0  0  1  0  0  0  0  0  0  0  0  0
    3.0596   -9.8452    8.1930 C   0  0  0  0  0  0  0  0  0  0  0  0
    3.9151   -8.8841   10.2701 C   0  0  0  0  0  0  0  0  0  0  0  0
    2.6453   -9.2561   11.1078 C   0  0  0  0  0  0  0  0  0  0  0  0
    2.6685   -7.3391    8.5073 C   0  0  1  0  0  0  0  0  0  0  0  0
   -2.5167   -4.5287    6.9162 H   0  0  0  0  0  0  0  0  0  0  0  0
    3.8354   -5.9578   12.5464 H   0  0  0  0  0  0  0  0  0  0  0  0
    2.8114   -7.1046   11.9650 H   0  0  0  0  0  0  0  0  0  0  0  0
    2.0842   -5.5887   12.1536 H   0  0  0  0  0  0  0  0  0  0  0  0
    3.5541   -4.5864   10.3841 H   0  0  0  0  0  0  0  0  0  0  0  0
    4.4283   -6.0864   10.1932 H   0  0  0  0  0  0  0  0  0  0  0  0
   -0.3217   -2.8788   10.4169 H   0  0  0  0  0  0  0  0  0  0  0  0
   -1.5119   -5.6999    6.1603 H   0  0  0  0  0  0  0  0  0  0  0  0
    0.3843   -7.4198    7.1517 H   0  0  0  0  0  0  0  0  0  0  0  0
    0.7580   -6.0862    2.6759 H   0  0  0  0  0  0  0  0  0  0  0  0
    2.0923   -7.1418    2.8873 H   0  0  0  0  0  0  0  0  0  0  0  0
    0.6671   -7.9626    1.0330 H   0  0  0  0  0  0  0  0  0  0  0  0
   -1.5599   -7.0661    2.3878 H   0  0  0  0  0  0  0  0  0  0  0  0
   -1.6465   -8.4324    1.2897 H   0  0  0  0  0  0  0  0  0  0  0  0
   -2.0223   -8.5602    4.1708 H   0  0  0  0  0  0  0  0  0  0  0  0
   -2.1299   -9.8409    2.9890 H   0  0  0  0  0  0  0  0  0  0  0  0
   -0.1424  -10.6318    4.1088 H   0  0  0  0  0  0  0  0  0  0  0  0
    1.5176   -9.1247    5.1042 H   0  0  0  0  0  0  0  0  0  0  0  0
   -0.0773   -8.8240    5.7349 H   0  0  0  0  0  0  0  0  0  0  0  0
    2.6957   -9.3115    3.2051 H   0  0  0  0  0  0  0  0  0  0  0  0
    2.5058   -9.8503    1.5412 H   0  0  0  0  0  0  0  0  0  0  0  0
    2.1580  -10.9524    2.8660 H   0  0  0  0  0  0  0  0  0  0  0  0
    2.6144   -7.8411    6.4356 H   0  0  0  0  0  0  0  0  0  0  0  0
    2.8918   -5.0281    6.1646 H   0  0  0  0  0  0  0  0  0  0  0  0
    3.7614   -7.2179    4.6423 H   0  0  0  0  0  0  0  0  0  0  0  0
    3.9892   -5.5208    4.3593 H   0  0  0  0  0  0  0  0  0  0  0  0
    7.3286   -6.1311    4.3943 H   0  0  0  0  0  0  0  0  0  0  0  0
    6.1963   -8.3840    4.6469 H   0  0  0  0  0  0  0  0  0  0  0  0
    7.1915   -7.8681    5.9634 H   0  0  0  0  0  0  0  0  0  0  0  0
    4.3276   -8.9186    6.0276 H   0  0  0  0  0  0  0  0  0  0  0  0
    5.7222   -9.7467    6.4815 H   0  0  0  0  0  0  0  0  0  0  0  0
    5.6643   -9.2084    8.4635 H   0  0  0  0  0  0  0  0  0  0  0  0
    6.2646   -3.7404    8.7401 H   0  0  0  0  0  0  0  0  0  0  0  0
    7.6138   -4.8592    8.9202 H   0  0  0  0  0  0  0  0  0  0  0  0
    6.2254   -4.9444   10.0136 H   0  0  0  0  0  0  0  0  0  0  0  0
    4.3342   -4.2497    7.5763 H   0  0  0  0  0  0  0  0  0  0  0  0
    6.1142   -3.8132    5.5109 H   0  0  0  0  0  0  0  0  0  0  0  0
    2.1934  -10.1677    8.7626 H   0  0  0  0  0  0  0  0  0  0  0  0
    3.7526  -10.6850    8.1970 H   0  0  0  0  0  0  0  0  0  0  0  0
    2.6609   -9.7731    7.1898 H   0  0  0  0  0  0  0  0  0  0  0  0
    4.5782   -9.7433   10.3528 H   0  0  0  0  0  0  0  0  0  0  0  0
    4.5033   -8.1081   10.7570 H   0  0  0  0  0  0  0  0  0  0  0  0
    2.9530   -9.3723   12.1534 H   0  0  0  0  0  0  0  0  0  0  0  0
    2.1463  -10.1768   10.8272 H   0  0  0  0  0  0  0  0  0  0  0  0
    1.8776   -8.4911   11.0577 H   0  0  0  0  0  0  0  0  0  0  0  0
    1.7418   -7.8438    8.7961 H   0  0  0  0  0  0  0  0  0  0  0  0
    0.1908  -10.1206    1.8356 H   0  0  0  0  0  0  0  0  0  0  0  0
  1  2  1  0
  1 44  1  0
  1 45  1  0
  1 46  1  0
  2 47  1  0
  2 48  1  0
  2  3  1  0
  3  4  1  0
  3 42  1  0
  4  5  1  0
  4 10  2  0
  5  6  2  0
  6 49  1  0
  6  7  1  0
  7  8  2  0
  8 10  1  0
  8  9  1  0
  9 50  1  0
  9 43  1  0
 10 11  1  0
 11 12  1  0
 11 23  1  0
 11 51  1  1
 12 13  2  0
 12 14  1  0
 14 20  1  0
 14 15  1  0
 15 16  1  0
 15 52  1  0
 15 53  1  0
 16 21  1  0
 16 17  1  0
 16 54  1  6
 17 18  1  0
 17 55  1  0
 17 56  1  0
 18 19  1  0
 18 57  1  0
 18 58  1  0
 19 20  1  0
 19 21  1  0
 19 59  1  1
 20 60  1  0
 20 61  1  0
 21 22  1  0
 21 89  1  6
 22 62  1  0
 22 63  1  0
 22 64  1  0
 23 42  1  0
 23 24  1  0
 23 65  1  6
 24 35  1  0
 24 25  1  0
 24 66  1  6
 25 26  1  0
 25 67  1  0
 25 68  1  0
 26 36  1  0
 26 27  1  6
 26 28  1  0
 27 69  1  0
 28 29  1  0
 28 70  1  0
 28 71  1  0
 29 30  1  0
 29 72  1  0
 29 73  1  0
 30 31  1  0
 30 38  1  0
 30 74  1  1
 31 32  2  0
 31 33  1  0
 33 36  1  0
 33 34  1  1
 33 35  1  0
 34 75  1  0
 34 76  1  0
 34 77  1  0
 35 36  1  0
 35 78  1  1
 36 37  1  1
 37 79  1  0
 38 39  1  6
 38 40  1  0
 38 42  1  0
 39 80  1  0
 39 81  1  0
 39 82  1  0
 40 41  1  0
 40 83  1  0
 40 84  1  0
 41 85  1  0
 41 86  1  0
 41 87  1  0
 42 88  1  1
M  CHG  1  21   1
M  END
>  <i_m_ct_stereo_status>  (73) 
1

>  <s_m_source_file>  (73) 
/var/tmp/pbs.5102103.sched01/tmp13xrk0lu/22amefgkkz.sdf

>  <i_m_source_file_index>  (73) 
8

>  <i_lp_mmshare_version>  (73) 
48012

>  <i_f3d_flags>  (73) 
0

>  <s_epik_input>  (73) 
W09IXVtDQEBdMTJbQ0BdMyhbT0hdKVtDQEBdNChbQ0gzXSlbQ0BASF0zW0NAQEhdKFtDSDJdMSlbQ0BIXTVbQ0BASF0oW0NAXShbQ0gzXSkoW0NIMl1bQ0gzXSlbQ0BIXShDND1PKVtDSDJdW0NIMl0yKU4oW0NIMl1bQ0gzXSljNmMoYyg9TlxbSF0pXG5bY0hdW25IXTYpW0NASF01Qyg9TylOKFtDSDJdW0NASF03OClbQ0gyXVtDQEBIXShbQ0gyXVtDSDJdNylOOFtDSDNd

>  <s_epik_cmdline>  (73) 
J2VwaWtfcHl0aG9uJywgJy1waHQnLCAnMi4wJywgJy1waCcsICc3LjAnLCAnLXRuJywgJzgnLCAnLW1hJywgJzIwMCcsICctaW1hZScsICc8aW5maWxlLm1hZT4nLCAnLW9tYWUnLCAnPG91dGZpbGUubWFlPic=

>  <r_lp_tautomer_probability>  (73) 
1

>  <r_epik_Ionization_Penalty>  (73) 
0.185646

>  <r_epik_Ionization_Penalty_Charging>  (73) 
0.0763807

>  <r_epik_Ionization_Penalty_Neutral>  (73) 
0.109265

>  <r_epik_State_Penalty>  (73) 
0.404383

>  <r_epik_Charging_Adjusted_Penalty>  (73) 
0.480764

>  <i_epik_Tot_Q>  (73) 
1

>  <i_epik_Tot_abs_Q>  (73) 
1

>  <s_lp_Force_Field>  (73) 
OPLS3e

>  <r_lp_Energy>  (73) 
130.549

>  <b_lp_Chiralities_Consistent>  (73) 
1

>  <s_lp_Variant>  (73) 
21:0-2

>  <s_i_glide_gridfile>  (73) 
pfpi4k_grid

>  <i_i_glide_lignum>  (73) 
8

>  <i_i_glide_rotatable_bonds>  (73) 
6

>  <r_i_docking_score>  (73) 
-1.98949

>  <r_i_glide_ligand_efficiency>  (73) 
-0.0473688

>  <r_i_glide_ligand_efficiency_sa>  (73) 
-0.164655

>  <r_i_glide_ligand_efficiency_ln>  (73) 
-0.41993

>  <r_i_glide_gscore>  (73) 
-1.98949

>  <r_i_glide_lipo>  (73) 
-0.0740445

>  <r_i_glide_hbond>  (73) 
-0.0651878

>  <r_i_glide_metal>  (73) 
-0

>  <r_i_glide_rewards>  (73) 
0

>  <r_i_glide_evdw>  (73) 
-21.7085

>  <r_i_glide_ecoul>  (73) 
-4.9583

>  <r_i_glide_erotb>  (73) 
0.0251741

>  <r_i_glide_esite>  (73) 
-0.0462605

>  <r_i_glide_emodel>  (73) 
-27.2175

>  <r_i_glide_energy>  (73) 
-26.6668

>  <r_i_glide_einternal>  (73) 
5.2035

>  <r_i_glide_intrahb_reward>  (73) 
-0

>  <i_i_glide_confnum>  (73) 
4

>  <i_i_glide_posenum>  (73) 
3

>  <r_i_glide_eff_state_penalty>  (73) 
0

>  <ligand_id>  (73) 
21

>  <original_smiles>  (73) 
CCN1c2[nH]cnc(=N)c2C(C(=O)N2CC3CCC(C2)N3C)C2C3CC4(O)CCC(C(=O)C5(C)C3C45O)C(C)(CC)C21

>  <smiles>  (73) 
[H]OC12C([H])([H])C([H])([H])C3([H])C(=O)C4(C([H])([H])[H])C([H])(C([H])(C1([H])[H])C1([H])C([H])(C(=O)N5C([H])([H])C6([H])C([H])([H])C([H])([H])C([H])(C5([H])[H])[N+]6([H])C([H])([H])[H])c5c(N([H])[H])nc([H])nc5N(C([H])([H])C([H])([H])[H])C1([H])C3(C([H])([H])[H])C([H])([H])C([H])([H])[H])C24O[H]

$$$$
21:1:1
     RDKit          3D

 89 96  0  0  1  0  0  0  0  0999 V2000
    4.9588   -5.2203    9.6006 C   0  0  0  0  0  0  0  0  0  0  0  0
    4.1531   -5.3230    8.3066 C   0  0  0  0  0  0  0  0  0  0  0  0
    4.4867   -6.4540    7.4209 N   0  0  0  0  0  0  0  0  0  0  0  0
    3.9260   -7.7304    7.7157 C   0  0  0  0  0  0  0  0  0  0  0  0
    3.2700   -7.8824    8.8956 N   0  0  0  0  0  0  0  0  0  0  0  0
    2.8604   -9.1212    9.2318 C   0  0  0  0  0  0  0  0  0  0  0  0
    3.0637  -10.2166    8.5324 N   0  0  0  0  0  0  0  0  0  0  0  0
    3.6623  -10.1056    7.3420 C   0  0  0  0  0  0  0  0  0  0  0  0
    3.8562  -11.2931    6.6547 N   0  0  0  0  0  0  0  0  0  0  0  0
    4.0542   -8.8241    6.8270 C   0  0  0  0  0  0  0  0  0  0  0  0
    4.6039   -8.5930    5.4094 C   0  0  1  0  0  0  0  0  0  0  0  0
    4.0088   -9.4319    4.2309 C   0  0  0  0  0  0  0  0  0  0  0  0
    4.8233   -9.9522    3.4827 O   0  0  0  0  0  0  0  0  0  0  0  0
    2.6697   -9.6080    4.0719 N   0  0  0  0  0  0  0  0  0  0  0  0
    1.6352   -8.7908    4.7492 C   0  0  0  0  0  0  0  0  0  0  0  0
    0.2693   -9.4286    4.9763 C   0  0  2  0  0  0  0  0  0  0  0  0
    0.4765  -10.6350    5.8489 C   0  0  0  0  0  0  0  0  0  0  0  0
    0.8014  -11.7528    4.8585 C   0  0  0  0  0  0  0  0  0  0  0  0
    0.7509  -11.0676    3.4672 C   0  0  2  0  0  0  0  0  0  0  0  0
    2.1399  -10.5390    3.0624 C   0  0  0  0  0  0  0  0  0  0  0  0
   -0.1924   -9.9691    3.7075 N   0  0  2  0  0  0  0  0  0  0  0  0
   -0.4359   -8.9996    2.6025 C   0  0  0  0  0  0  0  0  0  0  0  0
    4.7570   -7.0762    5.0634 C   0  0  1  0  0  0  0  0  0  0  0  0
    3.5379   -6.2755    4.5258 C   0  0  2  0  0  0  0  0  0  0  0  0
    3.2573   -6.2023    3.0283 C   0  0  0  0  0  0  0  0  0  0  0  0
    3.0514   -4.6989    2.8483 C   0  0  2  0  0  0  0  0  0  0  0  0
    2.2192   -4.4664    1.7435 O   0  0  0  0  0  0  0  0  0  0  0  0
    4.3652   -3.9891    2.5221 C   0  0  0  0  0  0  0  0  0  0  0  0
    5.6191   -4.4139    3.3191 C   0  0  0  0  0  0  0  0  0  0  0  0
    5.6810   -4.1283    4.8686 C   0  0  1  0  0  0  0  0  0  0  0  0
    4.4933   -3.2928    5.4106 C   0  0  0  0  0  0  0  0  0  0  0  0
    4.7475   -2.1559    5.7832 O   0  0  0  0  0  0  0  0  0  0  0  0
    3.0662   -3.7733    5.4459 C   0  0  2  0  0  0  0  0  0  0  0  0
    2.2198   -2.9990    6.4807 C   0  0  0  0  0  0  0  0  0  0  0  0
    2.7448   -5.2130    5.2564 C   0  0  1  0  0  0  0  0  0  0  0  0
    2.4034   -4.2103    4.1589 C   0  0  2  0  0  0  0  0  0  0  0  0
    1.0238   -3.8980    4.0818 O   0  0  0  0  0  0  0  0  0  0  0  0
    6.3477   -5.1953    5.8472 C   0  0  1  0  0  0  0  0  0  0  0  0
    7.5778   -5.8133    5.1020 C   0  0  0  0  0  0  0  0  0  0  0  0
    7.0134   -4.4682    7.0634 C   0  0  0  0  0  0  0  0  0  0  0  0
    7.8756   -5.3225    8.0426 C   0  0  0  0  0  0  0  0  0  0  0  0
    5.4371   -6.4222    6.2689 C   0  0  1  0  0  0  0  0  0  0  0  0
    3.4859  -12.1615    7.0259 H   0  0  0  0  0  0  0  0  0  0  0  0
    4.8960   -4.2300   10.0553 H   0  0  0  0  0  0  0  0  0  0  0  0
    6.0383   -5.2143    9.4497 H   0  0  0  0  0  0  0  0  0  0  0  0
    4.8268   -6.0548   10.2803 H   0  0  0  0  0  0  0  0  0  0  0  0
    3.0943   -5.3777    8.6078 H   0  0  0  0  0  0  0  0  0  0  0  0
    4.2455   -4.4149    7.7218 H   0  0  0  0  0  0  0  0  0  0  0  0
    2.3631   -9.2420   10.1758 H   0  0  0  0  0  0  0  0  0  0  0  0
    4.2307  -11.3333    5.7165 H   0  0  0  0  0  0  0  0  0  0  0  0
    5.6216   -8.9837    5.5226 H   0  0  0  0  0  0  0  0  0  0  0  0
    1.8796   -8.4638    5.7140 H   0  0  0  0  0  0  0  0  0  0  0  0
    1.3740   -7.9990    4.1090 H   0  0  0  0  0  0  0  0  0  0  0  0
   -0.3650   -8.6670    5.4234 H   0  0  0  0  0  0  0  0  0  0  0  0
    1.2608  -10.4749    6.5808 H   0  0  0  0  0  0  0  0  0  0  0  0
   -0.4092  -10.8272    6.4493 H   0  0  0  0  0  0  0  0  0  0  0  0
    1.7532  -12.2424    5.0633 H   0  0  0  0  0  0  0  0  0  0  0  0
    0.0300  -12.5056    4.9405 H   0  0  0  0  0  0  0  0  0  0  0  0
    0.3697  -11.7394    2.7033 H   0  0  0  0  0  0  0  0  0  0  0  0
    2.0975  -10.0077    2.1145 H   0  0  0  0  0  0  0  0  0  0  0  0
    2.8230  -11.3608    2.9111 H   0  0  0  0  0  0  0  0  0  0  0  0
    0.4389   -8.4707    2.2429 H   0  0  0  0  0  0  0  0  0  0  0  0
   -1.1642   -8.2449    2.9002 H   0  0  0  0  0  0  0  0  0  0  0  0
   -0.8525   -9.5312    1.7495 H   0  0  0  0  0  0  0  0  0  0  0  0
    5.4231   -7.1022    4.2090 H   0  0  0  0  0  0  0  0  0  0  0  0
    2.8285   -6.9862    4.9096 H   0  0  0  0  0  0  0  0  0  0  0  0
    4.0754   -6.6371    2.4391 H   0  0  0  0  0  0  0  0  0  0  0  0
    2.3650   -6.7336    2.7026 H   0  0  0  0  0  0  0  0  0  0  0  0
    2.2118   -3.5315    1.6022 H   0  0  0  0  0  0  0  0  0  0  0  0
    4.5962   -4.1978    1.4755 H   0  0  0  0  0  0  0  0  0  0  0  0
    4.2198   -2.9147    2.5745 H   0  0  0  0  0  0  0  0  0  0  0  0
    5.8718   -5.4365    3.0657 H   0  0  0  0  0  0  0  0  0  0  0  0
    6.4142   -3.8776    2.8145 H   0  0  0  0  0  0  0  0  0  0  0  0
    6.4407   -3.3570    4.9162 H   0  0  0  0  0  0  0  0  0  0  0  0
    1.2543   -3.4829    6.6392 H   0  0  0  0  0  0  0  0  0  0  0  0
    2.0418   -1.9966    6.1058 H   0  0  0  0  0  0  0  0  0  0  0  0
    2.7184   -2.9426    7.4463 H   0  0  0  0  0  0  0  0  0  0  0  0
    1.9289   -5.5829    5.8880 H   0  0  0  0  0  0  0  0  0  0  0  0
    0.9490   -3.0743    3.6046 H   0  0  0  0  0  0  0  0  0  0  0  0
    8.2237   -6.3906    5.7438 H   0  0  0  0  0  0  0  0  0  0  0  0
    8.2339   -5.0964    4.6564 H   0  0  0  0  0  0  0  0  0  0  0  0
    7.3532   -6.5084    4.3070 H   0  0  0  0  0  0  0  0  0  0  0  0
    7.6848   -3.6922    6.7051 H   0  0  0  0  0  0  0  0  0  0  0  0
    6.2650   -3.8794    7.5944 H   0  0  0  0  0  0  0  0  0  0  0  0
    8.1826   -4.6885    8.8781 H   0  0  0  0  0  0  0  0  0  0  0  0
    8.7758   -5.7773    7.6268 H   0  0  0  0  0  0  0  0  0  0  0  0
    7.3691   -6.2131    8.4208 H   0  0  0  0  0  0  0  0  0  0  0  0
    6.1735   -7.1355    6.6318 H   0  0  0  0  0  0  0  0  0  0  0  0
   -1.0833  -10.3584    3.9782 H   0  0  0  0  0  0  0  0  0  0  0  0
  1  2  1  0
  1 44  1  0
  1 45  1  0
  1 46  1  0
  2 47  1  0
  2 48  1  0
  2  3  1  0
  3  4  1  0
  3 42  1  0
  4  5  1  0
  4 10  2  0
  5  6  2  0
  6 49  1  0
  6  7  1  0
  7  8  2  0
  8 10  1  0
  8  9  1  0
  9 50  1  0
  9 43  1  0
 10 11  1  0
 11 12  1  0
 11 23  1  0
 11 51  1  1
 12 13  2  0
 12 14  1  0
 14 20  1  0
 14 15  1  0
 15 16  1  0
 15 52  1  0
 15 53  1  0
 16 21  1  0
 16 17  1  0
 16 54  1  1
 17 18  1  0
 17 55  1  0
 17 56  1  0
 18 19  1  0
 18 57  1  0
 18 58  1  0
 19 20  1  0
 19 21  1  0
 19 59  1  6
 20 60  1  0
 20 61  1  0
 21 22  1  0
 21 89  1  1
 22 62  1  0
 22 63  1  0
 22 64  1  0
 23 42  1  0
 23 24  1  0
 23 65  1  6
 24 35  1  0
 24 25  1  0
 24 66  1  1
 25 26  1  0
 25 67  1  0
 25 68  1  0
 26 36  1  0
 26 27  1  6
 26 28  1  0
 27 69  1  0
 28 29  1  0
 28 70  1  0
 28 71  1  0
 29 30  1  0
 29 72  1  0
 29 73  1  0
 30 31  1  0
 30 38  1  0
 30 74  1  6
 31 32  2  0
 31 33  1  0
 33 36  1  0
 33 34  1  1
 33 35  1  0
 34 75  1  0
 34 76  1  0
 34 77  1  0
 35 36  1  0
 35 78  1  1
 36 37  1  6
 37 79  1  0
 38 39  1  6
 38 40  1  0
 38 42  1  0
 39 80  1  0
 39 81  1  0
 39 82  1  0
 40 41  1  0
 40 83  1  0
 40 84  1  0
 41 85  1  0
 41 86  1  0
 41 87  1  0
 42 88  1  1
M  CHG  1  21   1
M  END
>  <i_m_ct_stereo_status>  (74) 
1

>  <s_m_source_file>  (74) 
/var/tmp/pbs.5102103.sched01/tmp13xrk0lu/22amefgkkz.sdf

>  <i_m_source_file_index>  (74) 
8

>  <i_lp_mmshare_version>  (74) 
48012

>  <i_f3d_flags>  (74) 
0

>  <s_epik_input>  (74) 
W09IXVtDQEBdMTJbQ0BdMyhbT0hdKVtDQEBdNChbQ0gzXSlbQ0BASF0zW0NAQEhdKFtDSDJdMSlbQ0BIXTVbQ0BASF0oW0NAXShbQ0gzXSkoW0NIMl1bQ0gzXSlbQ0BIXShDND1PKVtDSDJdW0NIMl0yKU4oW0NIMl1bQ0gzXSljNmMoYyg9TlxbSF0pXG5bY0hdW25IXTYpW0NASF01Qyg9TylOKFtDSDJdW0NASF03OClbQ0gyXVtDQEBIXShbQ0gyXVtDSDJdNylOOFtDSDNd

>  <s_epik_cmdline>  (74) 
J2VwaWtfcHl0aG9uJywgJy1waHQnLCAnMi4wJywgJy1waCcsICc3LjAnLCAnLXRuJywgJzgnLCAnLW1hJywgJzIwMCcsICctaW1hZScsICc8aW5maWxlLm1hZT4nLCAnLW9tYWUnLCAnPG91dGZpbGUubWFlPic=

>  <r_lp_tautomer_probability>  (74) 
1

>  <r_epik_Ionization_Penalty>  (74) 
0.185646

>  <r_epik_Ionization_Penalty_Charging>  (74) 
0.0763807

>  <r_epik_Ionization_Penalty_Neutral>  (74) 
0.109265

>  <r_epik_State_Penalty>  (74) 
0.404383

>  <r_epik_Charging_Adjusted_Penalty>  (74) 
0.480764

>  <i_epik_Tot_Q>  (74) 
1

>  <i_epik_Tot_abs_Q>  (74) 
1

>  <s_lp_Force_Field>  (74) 
OPLS3e

>  <r_lp_Energy>  (74) 
130.549

>  <b_lp_Chiralities_Consistent>  (74) 
1

>  <s_lp_Variant>  (74) 
21:0-2

>  <s_i_glide_gridfile>  (74) 
pfpi4k_grid

>  <i_i_glide_lignum>  (74) 
8

>  <i_i_glide_rotatable_bonds>  (74) 
6

>  <r_i_docking_score>  (74) 
-1.18078

>  <r_i_glide_ligand_efficiency>  (74) 
-0.0281139

>  <r_i_glide_ligand_efficiency_sa>  (74) 
-0.0977248

>  <r_i_glide_ligand_efficiency_ln>  (74) 
-0.249233

>  <r_i_glide_gscore>  (74) 
-1.18078

>  <r_i_glide_lipo>  (74) 
-0.221577

>  <r_i_glide_hbond>  (74) 
-0.234825

>  <r_i_glide_metal>  (74) 
-0

>  <r_i_glide_rewards>  (74) 
-0.00802527

>  <r_i_glide_evdw>  (74) 
-15.4868

>  <r_i_glide_ecoul>  (74) 
-5.91938

>  <r_i_glide_erotb>  (74) 
0.0251741

>  <r_i_glide_esite>  (74) 
-0.183523

>  <r_i_glide_emodel>  (74) 
-17.1467

>  <r_i_glide_energy>  (74) 
-21.4062

>  <r_i_glide_einternal>  (74) 
4.18018

>  <r_i_glide_intrahb_reward>  (74) 
-0

>  <i_i_glide_confnum>  (74) 
2

>  <i_i_glide_posenum>  (74) 
9

>  <r_i_glide_eff_state_penalty>  (74) 
0

>  <ligand_id>  (74) 
21

>  <original_smiles>  (74) 
CCN1c2[nH]cnc(=N)c2C(C(=O)N2CC3CCC(C2)N3C)C2C3CC4(O)CCC(C(=O)C5(C)C3C45O)C(C)(CC)C21

>  <smiles>  (74) 
[H]OC12C([H])([H])C([H])([H])C3([H])C(=O)C4(C([H])([H])[H])C([H])(C([H])(C1([H])[H])C1([H])C([H])(C(=O)N5C([H])([H])C6([H])C([H])([H])C([H])([H])C([H])(C5([H])[H])[N+]6([H])C([H])([H])[H])c5c(N([H])[H])nc([H])nc5N(C([H])([H])C([H])([H])[H])C1([H])C3(C([H])([H])[H])C([H])([H])C([H])([H])[H])C24O[H]

$$$$
21:1:2
     RDKit          3D

 89 96  0  0  1  0  0  0  0  0999 V2000
    2.8664   -1.9209    8.8276 C   0  0  0  0  0  0  0  0  0  0  0  0
    2.3312   -2.1632    7.3706 C   0  0  0  0  0  0  0  0  0  0  0  0
    2.4335   -3.5525    6.9076 N   0  0  0  0  0  0  0  0  0  0  0  0
    1.3530   -4.4554    7.2431 C   0  0  0  0  0  0  0  0  0  0  0  0
    0.4629   -4.0233    8.1464 N   0  0  0  0  0  0  0  0  0  0  0  0
   -0.4369   -4.8999    8.5782 C   0  0  0  0  0  0  0  0  0  0  0  0
   -0.5602   -6.1786    8.2126 N   0  0  0  0  0  0  0  0  0  0  0  0
    0.2946   -6.6137    7.2465 C   0  0  0  0  0  0  0  0  0  0  0  0
    0.1615   -7.9463    6.9892 N   0  0  0  0  0  0  0  0  0  0  0  0
    1.2471   -5.7510    6.6510 C   0  0  0  0  0  0  0  0  0  0  0  0
    2.2137   -6.1916    5.5307 C   0  0  1  0  0  0  0  0  0  0  0  0
    1.6655   -7.1726    4.4206 C   0  0  0  0  0  0  0  0  0  0  0  0
    0.8404   -6.7679    3.6039 O   0  0  0  0  0  0  0  0  0  0  0  0
    2.2205   -8.4057    4.3140 N   0  0  0  0  0  0  0  0  0  0  0  0
    2.4571   -9.0169    2.9916 C   0  0  0  0  0  0  0  0  0  0  0  0
    2.2974  -10.5588    3.0122 C   0  0  2  0  0  0  0  0  0  0  0  0
    0.8707  -10.9681    3.4098 C   0  0  0  0  0  0  0  0  0  0  0  0
    0.9075  -11.0331    4.9441 C   0  0  0  0  0  0  0  0  0  0  0  0
    2.3694  -10.6968    5.3162 C   0  0  2  0  0  0  0  0  0  0  0  0
    2.6361   -9.1771    5.5044 C   0  0  0  0  0  0  0  0  0  0  0  0
    3.1050  -11.1541    4.1148 N   0  0  2  0  0  0  0  0  0  0  0  0
    4.5937  -10.9313    4.1030 C   0  0  0  0  0  0  0  0  0  0  0  0
    2.9220   -4.9386    4.9234 C   0  0  1  0  0  0  0  0  0  0  0  0
    2.0417   -4.1174    3.8934 C   0  0  2  0  0  0  0  0  0  0  0  0
    2.4084   -4.3395    2.4154 C   0  0  0  0  0  0  0  0  0  0  0  0
    2.8574   -2.9751    1.8682 C   0  0  2  0  0  0  0  0  0  0  0  0
    2.4483   -2.8611    0.5098 O   0  0  0  0  0  0  0  0  0  0  0  0
    4.3875   -2.8012    1.8336 C   0  0  0  0  0  0  0  0  0  0  0  0
    5.1516   -3.3061    3.0689 C   0  0  0  0  0  0  0  0  0  0  0  0
    4.9507   -2.5964    4.4471 C   0  0  1  0  0  0  0  0  0  0  0  0
    4.0902   -1.3387    4.3884 C   0  0  0  0  0  0  0  0  0  0  0  0
    4.6283   -0.2462    4.5748 O   0  0  0  0  0  0  0  0  0  0  0  0
    2.6034   -1.3564    4.0709 C   0  0  2  0  0  0  0  0  0  0  0  0
    1.9042   -0.0758    4.5580 C   0  0  0  0  0  0  0  0  0  0  0  0
    1.7627   -2.6203    4.0617 C   0  0  1  0  0  0  0  0  0  0  0  0
    2.1532   -1.9400    2.7485 C   0  0  2  0  0  0  0  0  0  0  0  0
    1.0559   -1.2572    2.1317 O   0  0  0  0  0  0  0  0  0  0  0  0
    4.9336   -3.4479    5.7850 C   0  0  1  0  0  0  0  0  0  0  0  0
    5.9951   -4.5917    5.6350 C   0  0  0  0  0  0  0  0  0  0  0  0
    5.5159   -2.6109    6.9783 C   0  0  0  0  0  0  0  0  0  0  0  0
    5.7446   -3.3475    8.3437 C   0  0  0  0  0  0  0  0  0  0  0  0
    3.5293   -4.1530    6.1168 C   0  0  1  0  0  0  0  0  0  0  0  0
   -0.4881   -8.5437    7.4374 H   0  0  0  0  0  0  0  0  0  0  0  0
    2.9543   -0.8270    8.9943 H   0  0  0  0  0  0  0  0  0  0  0  0
    3.7948   -2.2823    9.0045 H   0  0  0  0  0  0  0  0  0  0  0  0
    2.1835   -2.3989    9.5610 H   0  0  0  0  0  0  0  0  0  0  0  0
    1.2793   -1.8067    7.2879 H   0  0  0  0  0  0  0  0  0  0  0  0
    2.8953   -1.5376    6.6691 H   0  0  0  0  0  0  0  0  0  0  0  0
   -1.1627   -4.5974    9.3224 H   0  0  0  0  0  0  0  0  0  0  0  0
    0.7629   -8.3985    6.2581 H   0  0  0  0  0  0  0  0  0  0  0  0
    2.9913   -6.7250    6.0723 H   0  0  0  0  0  0  0  0  0  0  0  0
    1.8379   -8.6075    2.2097 H   0  0  0  0  0  0  0  0  0  0  0  0
    3.4676   -8.7600    2.7231 H   0  0  0  0  0  0  0  0  0  0  0  0
    2.6217  -10.9999    2.0738 H   0  0  0  0  0  0  0  0  0  0  0  0
    0.1268  -10.2779    3.0367 H   0  0  0  0  0  0  0  0  0  0  0  0
    0.6422  -11.9513    3.0077 H   0  0  0  0  0  0  0  0  0  0  0  0
    0.1920  -10.3689    5.4074 H   0  0  0  0  0  0  0  0  0  0  0  0
    0.6615  -12.0370    5.2858 H   0  0  0  0  0  0  0  0  0  0  0  0
    2.6963  -11.2292    6.2104 H   0  0  0  0  0  0  0  0  0  0  0  0
    3.6864   -8.9608    5.7042 H   0  0  0  0  0  0  0  0  0  0  0  0
    2.1497   -8.9120    6.4200 H   0  0  0  0  0  0  0  0  0  0  0  0
    4.8632   -9.8819    4.1379 H   0  0  0  0  0  0  0  0  0  0  0  0
    5.0017  -11.3569    3.2013 H   0  0  0  0  0  0  0  0  0  0  0  0
    5.0361  -11.4230    4.9584 H   0  0  0  0  0  0  0  0  0  0  0  0
    3.7295   -5.3802    4.3575 H   0  0  0  0  0  0  0  0  0  0  0  0
    1.0263   -4.4887    4.0302 H   0  0  0  0  0  0  0  0  0  0  0  0
    3.1327   -5.1255    2.2378 H   0  0  0  0  0  0  0  0  0  0  0  0
    1.5050   -4.6561    1.9017 H   0  0  0  0  0  0  0  0  0  0  0  0
    2.3549   -1.9436    0.2773 H   0  0  0  0  0  0  0  0  0  0  0  0
    4.7624   -3.3739    0.9878 H   0  0  0  0  0  0  0  0  0  0  0  0
    4.6417   -1.7638    1.6083 H   0  0  0  0  0  0  0  0  0  0  0  0
    5.0715   -4.3850    3.1265 H   0  0  0  0  0  0  0  0  0  0  0  0
    6.1948   -3.1832    2.7808 H   0  0  0  0  0  0  0  0  0  0  0  0
    5.9188   -2.1296    4.5400 H   0  0  0  0  0  0  0  0  0  0  0  0
    0.8089   -0.1601    4.4922 H   0  0  0  0  0  0  0  0  0  0  0  0
    2.1951    0.7852    3.9481 H   0  0  0  0  0  0  0  0  0  0  0  0
    2.1361    0.1480    5.5999 H   0  0  0  0  0  0  0  0  0  0  0  0
    0.7639   -2.4599    4.4707 H   0  0  0  0  0  0  0  0  0  0  0  0
    1.2541   -1.0453    1.2278 H   0  0  0  0  0  0  0  0  0  0  0  0
    6.1935   -5.1171    6.5644 H   0  0  0  0  0  0  0  0  0  0  0  0
    6.9642   -4.2153    5.3146 H   0  0  0  0  0  0  0  0  0  0  0  0
    5.7166   -5.3966    4.9660 H   0  0  0  0  0  0  0  0  0  0  0  0
    6.4868   -2.2106    6.6905 H   0  0  0  0  0  0  0  0  0  0  0  0
    4.9428   -1.6937    7.1090 H   0  0  0  0  0  0  0  0  0  0  0  0
    6.0555   -2.6000    9.0821 H   0  0  0  0  0  0  0  0  0  0  0  0
    6.5206   -4.1134    8.3428 H   0  0  0  0  0  0  0  0  0  0  0  0
    4.8343   -3.8192    8.7062 H   0  0  0  0  0  0  0  0  0  0  0  0
    3.8657   -4.9052    6.8374 H   0  0  0  0  0  0  0  0  0  0  0  0
    2.9618  -12.1763    4.0761 H   0  0  0  0  0  0  0  0  0  0  0  0
  1  2  1  0
  1 44  1  0
  1 45  1  0
  1 46  1  0
  2 47  1  0
  2 48  1  0
  2  3  1  0
  3  4  1  0
  3 42  1  0
  4  5  1  0
  4 10  2  0
  5  6  2  0
  6 49  1  0
  6  7  1  0
  7  8  2  0
  8 10  1  0
  8  9  1  0
  9 50  1  0
  9 43  1  0
 10 11  1  0
 11 12  1  0
 11 23  1  0
 11 51  1  1
 12 13  2  0
 12 14  1  0
 14 20  1  0
 14 15  1  0
 15 16  1  0
 15 52  1  0
 15 53  1  0
 16 21  1  0
 16 17  1  0
 16 54  1  6
 17 18  1  0
 17 55  1  0
 17 56  1  0
 18 19  1  0
 18 57  1  0
 18 58  1  0
 19 20  1  0
 19 21  1  0
 19 59  1  1
 20 60  1  0
 20 61  1  0
 21 22  1  0
 21 89  1  6
 22 62  1  0
 22 63  1  0
 22 64  1  0
 23 42  1  0
 23 24  1  0
 23 65  1  6
 24 35  1  0
 24 25  1  0
 24 66  1  6
 25 26  1  0
 25 67  1  0
 25 68  1  0
 26 36  1  0
 26 27  1  6
 26 28  1  0
 27 69  1  0
 28 29  1  0
 28 70  1  0
 28 71  1  0
 29 30  1  0
 29 72  1  0
 29 73  1  0
 30 31  1  0
 30 38  1  0
 30 74  1  1
 31 32  2  0
 31 33  1  0
 33 36  1  0
 33 34  1  1
 33 35  1  0
 34 75  1  0
 34 76  1  0
 34 77  1  0
 35 36  1  0
 35 78  1  1
 36 37  1  6
 37 79  1  0
 38 39  1  6
 38 40  1  0
 38 42  1  0
 39 80  1  0
 39 81  1  0
 39 82  1  0
 40 41  1  0
 40 83  1  0
 40 84  1  0
 41 85  1  0
 41 86  1  0
 41 87  1  0
 42 88  1  1
M  CHG  1  21   1
M  END
>  <i_m_ct_stereo_status>  (75) 
1

>  <s_m_source_file>  (75) 
/var/tmp/pbs.5102103.sched01/tmp13xrk0lu/22amefgkkz.sdf

>  <i_m_source_file_index>  (75) 
8

>  <i_lp_mmshare_version>  (75) 
48012

>  <i_f3d_flags>  (75) 
0

>  <s_epik_input>  (75) 
W09IXVtDQEBdMTJbQ0BdMyhbT0hdKVtDQEBdNChbQ0gzXSlbQ0BASF0zW0NAQEhdKFtDSDJdMSlbQ0BIXTVbQ0BASF0oW0NAXShbQ0gzXSkoW0NIMl1bQ0gzXSlbQ0BIXShDND1PKVtDSDJdW0NIMl0yKU4oW0NIMl1bQ0gzXSljNmMoYyg9TlxbSF0pXG5bY0hdW25IXTYpW0NASF01Qyg9TylOKFtDSDJdW0NASF03OClbQ0gyXVtDQEBIXShbQ0gyXVtDSDJdNylOOFtDSDNd

>  <s_epik_cmdline>  (75) 
J2VwaWtfcHl0aG9uJywgJy1waHQnLCAnMi4wJywgJy1waCcsICc3LjAnLCAnLXRuJywgJzgnLCAnLW1hJywgJzIwMCcsICctaW1hZScsICc8aW5maWxlLm1hZT4nLCAnLW9tYWUnLCAnPG91dGZpbGUubWFlPic=

>  <r_lp_tautomer_probability>  (75) 
1

>  <r_epik_Ionization_Penalty>  (75) 
0.185646

>  <r_epik_Ionization_Penalty_Charging>  (75) 
0.0763807

>  <r_epik_Ionization_Penalty_Neutral>  (75) 
0.109265

>  <r_epik_State_Penalty>  (75) 
0.404383

>  <r_epik_Charging_Adjusted_Penalty>  (75) 
0.480764

>  <i_epik_Tot_Q>  (75) 
1

>  <i_epik_Tot_abs_Q>  (75) 
1

>  <s_lp_Force_Field>  (75) 
OPLS3e

>  <r_lp_Energy>  (75) 
130.549

>  <b_lp_Chiralities_Consistent>  (75) 
1

>  <s_lp_Variant>  (75) 
21:0-2

>  <s_i_glide_gridfile>  (75) 
pfpi4k_grid

>  <i_i_glide_lignum>  (75) 
8

>  <i_i_glide_rotatable_bonds>  (75) 
6

>  <r_i_docking_score>  (75) 
-1.05593

>  <r_i_glide_ligand_efficiency>  (75) 
-0.0251412

>  <r_i_glide_ligand_efficiency_sa>  (75) 
-0.0873915

>  <r_i_glide_ligand_efficiency_ln>  (75) 
-0.22288

>  <r_i_glide_gscore>  (75) 
-1.05593

>  <r_i_glide_lipo>  (75) 
-0.300365

>  <r_i_glide_hbond>  (75) 
-0.0879537

>  <r_i_glide_metal>  (75) 
-0

>  <r_i_glide_rewards>  (75) 
0

>  <r_i_glide_evdw>  (75) 
-16.4942

>  <r_i_glide_ecoul>  (75) 
-8.10734

>  <r_i_glide_erotb>  (75) 
0.0251741

>  <r_i_glide_esite>  (75) 
-0.0597421

>  <r_i_glide_emodel>  (75) 
-17.1114

>  <r_i_glide_energy>  (75) 
-24.6016

>  <r_i_glide_einternal>  (75) 
9.19042

>  <r_i_glide_intrahb_reward>  (75) 
-0

>  <i_i_glide_confnum>  (75) 
4

>  <i_i_glide_posenum>  (75) 
1

>  <r_i_glide_eff_state_penalty>  (75) 
0

>  <ligand_id>  (75) 
21

>  <original_smiles>  (75) 
CCN1c2[nH]cnc(=N)c2C(C(=O)N2CC3CCC(C2)N3C)C2C3CC4(O)CCC(C(=O)C5(C)C3C45O)C(C)(CC)C21

>  <smiles>  (75) 
[H]OC12C([H])([H])C([H])([H])C3([H])C(=O)C4(C([H])([H])[H])C([H])(C([H])(C1([H])[H])C1([H])C([H])(C(=O)N5C([H])([H])C6([H])C([H])([H])C([H])([H])C([H])(C5([H])[H])[N+]6([H])C([H])([H])[H])c5c(N([H])[H])nc([H])nc5N(C([H])([H])C([H])([H])[H])C1([H])C3(C([H])([H])[H])C([H])([H])C([H])([H])[H])C24O[H]

$$$$
21:2:0
     RDKit          3D

 90 97  0  0  1  0  0  0  0  0999 V2000
    5.4320   -2.5776    7.6792 C   0  0  0  0  0  0  0  0  0  0  0  0
    4.2684   -2.0350    6.8458 C   0  0  0  0  0  0  0  0  0  0  0  0
    3.3806   -3.0639    6.2904 N   0  0  0  0  0  0  0  0  0  0  0  0
    2.4072   -3.6319    7.1440 C   0  0  0  0  0  0  0  0  0  0  0  0
    1.9619   -2.8753    8.1824 N   0  0  0  0  0  0  0  0  0  0  0  0
    1.0360   -3.3519    9.0183 C   0  0  0  0  0  0  0  0  0  0  0  0
    0.5068   -4.5602    8.8926 N   0  0  0  0  0  0  0  0  0  0  0  0
    0.9238   -5.3611    7.9039 C   0  0  0  0  0  0  0  0  0  0  0  0
    0.3584   -6.6354    7.9264 N   0  0  0  0  0  0  0  0  0  0  0  0
    1.8745   -4.9296    6.9440 C   0  0  0  0  0  0  0  0  0  0  0  0
    2.3884   -5.8497    5.8310 C   0  0  1  0  0  0  0  0  0  0  0  0
    1.2112   -6.4787    5.0033 C   0  0  0  0  0  0  0  0  0  0  0  0
    0.3515   -5.7376    4.5345 O   0  0  0  0  0  0  0  0  0  0  0  0
    1.0883   -7.8299    4.9129 N   0  0  0  0  0  0  0  0  0  0  0  0
    2.1172   -8.7945    5.3543 C   0  0  0  0  0  0  0  0  0  0  0  0
    2.1930  -10.0759    4.4936 C   0  0  2  0  0  0  0  0  0  0  0  0
    2.4207   -9.8156    2.9870 C   0  0  0  0  0  0  0  0  0  0  0  0
    0.9962   -9.5680    2.4538 C   0  0  0  0  0  0  0  0  0  0  0  0
    0.0738   -9.7920    3.6713 C   0  0  2  0  0  0  0  0  0  0  0  0
   -0.1720   -8.4666    4.4413 C   0  0  0  0  0  0  0  0  0  0  0  0
    0.8626  -10.6727    4.5458 N   0  0  1  0  0  0  0  0  0  0  0  0
    0.8590  -12.1007    4.1827 C   0  0  0  0  0  0  0  0  0  0  0  0
    3.5963   -5.2188    5.0376 C   0  0  1  0  0  0  0  0  0  0  0  0
    4.2433   -6.0535    3.8921 C   0  0  2  0  0  0  0  0  0  0  0  0
    5.7158   -5.8124    3.5290 C   0  0  0  0  0  0  0  0  0  0  0  0
    5.7788   -5.6966    1.9901 C   0  0  2  0  0  0  0  0  0  0  0  0
    6.8669   -6.4908    1.5452 O   0  0  0  0  0  0  0  0  0  0  0  0
    6.0714   -4.2460    1.5249 C   0  0  0  0  0  0  0  0  0  0  0  0
    5.3526   -3.1023    2.2817 C   0  0  0  0  0  0  0  0  0  0  0  0
    3.7990   -3.1175    2.3525 C   0  0  1  0  0  0  0  0  0  0  0  0
    3.1253   -4.0226    1.3093 C   0  0  0  0  0  0  0  0  0  0  0  0
    2.5838   -3.5005    0.3375 O   0  0  0  0  0  0  0  0  0  0  0  0
    3.1201   -5.5254    1.3899 C   0  0  2  0  0  0  0  0  0  0  0  0
    1.9844   -6.1215    0.5464 C   0  0  0  0  0  0  0  0  0  0  0  0
    3.4564   -6.2890    2.6275 C   0  0  1  0  0  0  0  0  0  0  0  0
    4.4468   -6.2452    1.4800 C   0  0  2  0  0  0  0  0  0  0  0  0
    4.4632   -7.4497    0.7206 O   0  0  0  0  0  0  0  0  0  0  0  0
    3.0708   -2.8086    3.7350 C   0  0  1  0  0  0  0  0  0  0  0  0
    3.3459   -1.2912    3.9442 C   0  0  0  0  0  0  0  0  0  0  0  0
    1.5282   -2.9220    3.5295 C   0  0  0  0  0  0  0  0  0  0  0  0
    0.5769   -2.4669    4.6511 C   0  0  0  0  0  0  0  0  0  0  0  0
    3.6420   -3.6556    4.9616 C   0  0  1  0  0  0  0  0  0  0  0  0
   -0.3215   -6.8935    8.6226 H   0  0  0  0  0  0  0  0  0  0  0  0
    6.0640   -1.7456    7.9968 H   0  0  0  0  0  0  0  0  0  0  0  0
    6.0635   -3.2546    7.1019 H   0  0  0  0  0  0  0  0  0  0  0  0
    5.0819   -3.0912    8.5737 H   0  0  0  0  0  0  0  0  0  0  0  0
    3.7018   -1.2840    7.3974 H   0  0  0  0  0  0  0  0  0  0  0  0
    4.7318   -1.4869    6.0373 H   0  0  0  0  0  0  0  0  0  0  0  0
    0.7014   -2.6993    9.8133 H   0  0  0  0  0  0  0  0  0  0  0  0
    0.5615   -7.3327    7.2287 H   0  0  0  0  0  0  0  0  0  0  0  0
    2.8301   -6.6126    6.4688 H   0  0  0  0  0  0  0  0  0  0  0  0
    3.1227   -8.4076    5.3471 H   0  0  0  0  0  0  0  0  0  0  0  0
    1.9032   -9.0364    6.4024 H   0  0  0  0  0  0  0  0  0  0  0  0
    2.9859  -10.7189    4.8951 H   0  0  0  0  0  0  0  0  0  0  0  0
    3.1729   -9.0257    2.8199 H   0  0  0  0  0  0  0  0  0  0  0  0
    2.8326  -10.6910    2.4929 H   0  0  0  0  0  0  0  0  0  0  0  0
    0.8073   -8.5914    2.0108 H   0  0  0  0  0  0  0  0  0  0  0  0
    0.7653  -10.3013    1.6883 H   0  0  0  0  0  0  0  0  0  0  0  0
   -0.8876  -10.2490    3.3815 H   0  0  0  0  0  0  0  0  0  0  0  0
   -0.7701   -8.6821    5.3260 H   0  0  0  0  0  0  0  0  0  0  0  0
   -0.7827   -7.7862    3.8535 H   0  0  0  0  0  0  0  0  0  0  0  0
    1.2370  -12.2620    3.1602 H   0  0  0  0  0  0  0  0  0  0  0  0
   -0.1476  -12.5181    4.2505 H   0  0  0  0  0  0  0  0  0  0  0  0
    1.5016  -12.6525    4.8789 H   0  0  0  0  0  0  0  0  0  0  0  0
    4.3791   -5.3733    5.7960 H   0  0  0  0  0  0  0  0  0  0  0  0
    4.3181   -7.0498    4.3199 H   0  0  0  0  0  0  0  0  0  0  0  0
    6.1670   -4.9780    4.0706 H   0  0  0  0  0  0  0  0  0  0  0  0
    6.2861   -6.6955    3.8463 H   0  0  0  0  0  0  0  0  0  0  0  0
    7.6678   -6.1490    1.9068 H   0  0  0  0  0  0  0  0  0  0  0  0
    7.1401   -4.0568    1.6468 H   0  0  0  0  0  0  0  0  0  0  0  0
    5.8834   -4.1707    0.4504 H   0  0  0  0  0  0  0  0  0  0  0  0
    5.7945   -2.9751    3.2601 H   0  0  0  0  0  0  0  0  0  0  0  0
    5.6450   -2.1855    1.7727 H   0  0  0  0  0  0  0  0  0  0  0  0
    3.6008   -2.1924    1.8164 H   0  0  0  0  0  0  0  0  0  0  0  0
    1.9283   -7.1994    0.6661 H   0  0  0  0  0  0  0  0  0  0  0  0
    2.1191   -5.9135   -0.5129 H   0  0  0  0  0  0  0  0  0  0  0  0
    1.0167   -5.7535    0.8612 H   0  0  0  0  0  0  0  0  0  0  0  0
    2.6586   -7.0186    2.7533 H   0  0  0  0  0  0  0  0  0  0  0  0
    4.8854   -8.1201    1.2223 H   0  0  0  0  0  0  0  0  0  0  0  0
    2.9120   -0.8944    4.8576 H   0  0  0  0  0  0  0  0  0  0  0  0
    2.9113   -0.6843    3.1505 H   0  0  0  0  0  0  0  0  0  0  0  0
    4.4098   -1.0512    3.9506 H   0  0  0  0  0  0  0  0  0  0  0  0
    1.2710   -2.3132    2.6617 H   0  0  0  0  0  0  0  0  0  0  0  0
    1.2743   -3.9333    3.2379 H   0  0  0  0  0  0  0  0  0  0  0  0
   -0.4438   -2.4517    4.2753 H   0  0  0  0  0  0  0  0  0  0  0  0
    0.7913   -1.4670    5.0247 H   0  0  0  0  0  0  0  0  0  0  0  0
    0.5588   -3.1515    5.4892 H   0  0  0  0  0  0  0  0  0  0  0  0
    4.7086   -3.4914    4.9063 H   0  0  0  0  0  0  0  0  0  0  0  0
    0.4992  -10.6274    5.5072 H   0  0  0  0  0  0  0  0  0  0  0  0
    2.3365   -1.9383    8.3305 H   0  0  0  0  0  0  0  0  0  0  0  0
  1  2  1  0
  1 44  1  0
  1 45  1  0
  1 46  1  0
  2 47  1  0
  2 48  1  0
  2  3  1  0
  3  4  1  0
  3 42  1  0
  4  5  1  0
  4 10  2  0
  5  6  2  0
  5 90  1  0
  6 49  1  0
  6  7  1  0
  7  8  2  0
  8 10  1  0
  8  9  1  0
  9 50  1  0
  9 43  1  0
 10 11  1  0
 11 12  1  0
 11 23  1  0
 11 51  1  1
 12 13  2  0
 12 14  1  0
 14 20  1  0
 14 15  1  0
 15 16  1  0
 15 52  1  0
 15 53  1  0
 16 21  1  0
 16 17  1  0
 16 54  1  1
 17 18  1  0
 17 55  1  0
 17 56  1  0
 18 19  1  0
 18 57  1  0
 18 58  1  0
 19 20  1  0
 19 21  1  0
 19 59  1  6
 20 60  1  0
 20 61  1  0
 21 22  1  0
 21 89  1  1
 22 62  1  0
 22 63  1  0
 22 64  1  0
 23 42  1  0
 23 24  1  0
 23 65  1  1
 24 35  1  0
 24 25  1  0
 24 66  1  1
 25 26  1  0
 25 67  1  0
 25 68  1  0
 26 36  1  0
 26 27  1  6
 26 28  1  0
 27 69  1  0
 28 29  1  0
 28 70  1  0
 28 71  1  0
 29 30  1  0
 29 72  1  0
 29 73  1  0
 30 31  1  0
 30 38  1  0
 30 74  1  6
 31 32  2  0
 31 33  1  0
 33 36  1  0
 33 34  1  6
 33 35  1  0
 34 75  1  0
 34 76  1  0
 34 77  1  0
 35 36  1  0
 35 78  1  1
 36 37  1  6
 37 79  1  0
 38 39  1  1
 38 40  1  0
 38 42  1  0
 39 80  1  0
 39 81  1  0
 39 82  1  0
 40 41  1  0
 40 83  1  0
 40 84  1  0
 41 85  1  0
 41 86  1  0
 41 87  1  0
 42 88  1  6
M  CHG  2   5   1  21   1
M  END
>  <i_m_ct_stereo_status>  (76) 
1

>  <s_m_source_file>  (76) 
/var/tmp/pbs.5102103.sched01/tmp13xrk0lu/22amefgkkz.sdf

>  <i_m_source_file_index>  (76) 
9

>  <i_lp_mmshare_version>  (76) 
48012

>  <i_f3d_flags>  (76) 
0

>  <s_epik_input>  (76) 
W09IXVtDQEBdMTJbQ0BdMyhbT0hdKVtDQEBdNChbQ0gzXSlbQ0BASF0zW0NAQEhdKFtDSDJdMSlbQ0BIXTVbQ0BASF0oW0NAXShbQ0gzXSkoW0NIMl1bQ0gzXSlbQ0BIXShDND1PKVtDSDJdW0NIMl0yKU4oW0NIMl1bQ0gzXSljNmMoYyg9TlxbSF0pXG5bY0hdW25IXTYpW0NASF01Qyg9TylOKFtDSDJdW0NASF03OClbQ0gyXVtDQEBIXShbQ0gyXVtDSDJdNylOOFtDSDNd

>  <s_epik_cmdline>  (76) 
J2VwaWtfcHl0aG9uJywgJy1waHQnLCAnMi4wJywgJy1waCcsICc3LjAnLCAnLXRuJywgJzgnLCAnLW1hJywgJzIwMCcsICctaW1hZScsICc8aW5maWxlLm1hZT4nLCAnLW9tYWUnLCAnPG91dGZpbGUubWFlPic=

>  <r_lp_tautomer_probability>  (76) 
0.999336

>  <r_epik_Ionization_Penalty>  (76) 
1.18239

>  <r_epik_Ionization_Penalty_Charging>  (76) 
1.18238

>  <r_epik_Ionization_Penalty_Neutral>  (76) 
9.66087e-06

>  <r_epik_State_Penalty>  (76) 
0.552173

>  <r_epik_Charging_Adjusted_Penalty>  (76) 
1.73455

>  <i_epik_Tot_Q>  (76) 
2

>  <i_epik_Tot_abs_Q>  (76) 
2

>  <s_lp_Force_Field>  (76) 
OPLS3e

>  <r_lp_Energy>  (76) 
132.742

>  <b_lp_Chiralities_Consistent>  (76) 
1

>  <s_lp_Variant>  (76) 
21:0-3

>  <s_i_glide_gridfile>  (76) 
pfpi4k_grid

>  <i_i_glide_lignum>  (76) 
9

>  <i_i_glide_rotatable_bonds>  (76) 
6

>  <r_i_docking_score>  (76) 
-2.19222

>  <r_i_glide_ligand_efficiency>  (76) 
-0.0521958

>  <r_i_glide_ligand_efficiency_sa>  (76) 
-0.181434

>  <r_i_glide_ligand_efficiency_ln>  (76) 
-0.462722

>  <r_i_glide_gscore>  (76) 
-2.19222

>  <r_i_glide_lipo>  (76) 
-0.380135

>  <r_i_glide_hbond>  (76) 
0

>  <r_i_glide_metal>  (76) 
-0

>  <r_i_glide_rewards>  (76) 
0

>  <r_i_glide_evdw>  (76) 
-24.9596

>  <r_i_glide_ecoul>  (76) 
-3.42916

>  <r_i_glide_erotb>  (76) 
0.023844

>  <r_i_glide_esite>  (76) 
-0.0735771

>  <r_i_glide_emodel>  (76) 
-31.9465

>  <r_i_glide_energy>  (76) 
-28.3888

>  <r_i_glide_einternal>  (76) 
1.1301

>  <r_i_glide_intrahb_reward>  (76) 
-0

>  <i_i_glide_confnum>  (76) 
3

>  <i_i_glide_posenum>  (76) 
1

>  <r_i_glide_eff_state_penalty>  (76) 
0

>  <ligand_id>  (76) 
21

>  <original_smiles>  (76) 
CCN1c2[nH]cnc(=N)c2C(C(=O)N2CC3CCC(C2)N3C)C2C3CC4(O)CCC(C(=O)C5(C)C3C45O)C(C)(CC)C21

>  <smiles>  (76) 
[H]OC12C([H])([H])C([H])([H])C3([H])C(=O)C4(C([H])([H])[H])C([H])(C([H])(C1([H])[H])C1([H])C([H])(C(=O)N5C([H])([H])C6([H])C([H])([H])C([H])([H])C([H])(C5([H])[H])[N+]6([H])C([H])([H])[H])c5c(N([H])[H])nc([H])[n+]([H])c5N(C([H])([H])C([H])([H])[H])C1([H])C3(C([H])([H])[H])C([H])([H])C([H])([H])[H])C24O[H]

$$$$
21:2:1
     RDKit          3D

 90 97  0  0  1  0  0  0  0  0999 V2000
    5.4727   -2.4197    7.6889 C   0  0  0  0  0  0  0  0  0  0  0  0
    4.3227   -1.9511    6.7901 C   0  0  0  0  0  0  0  0  0  0  0  0
    3.4412   -3.0185    6.3158 N   0  0  0  0  0  0  0  0  0  0  0  0
    2.4860   -3.5564    7.2123 C   0  0  0  0  0  0  0  0  0  0  0  0
    2.0482   -2.7435    8.2213 N   0  0  0  0  0  0  0  0  0  0  0  0
    1.1400   -3.1858    9.1012 C   0  0  0  0  0  0  0  0  0  0  0  0
    0.6268   -4.4003    9.0405 N   0  0  0  0  0  0  0  0  0  0  0  0
    1.0362   -5.2519    8.0925 C   0  0  0  0  0  0  0  0  0  0  0  0
    0.4793   -6.5198    8.1812 N   0  0  0  0  0  0  0  0  0  0  0  0
    1.9692   -4.8582    7.0959 C   0  0  0  0  0  0  0  0  0  0  0  0
    2.4692   -5.8257    6.0042 C   0  0  1  0  0  0  0  0  0  0  0  0
    1.2792   -6.4922    5.2284 C   0  0  0  0  0  0  0  0  0  0  0  0
    0.3837   -5.7681    4.7926 O   0  0  0  0  0  0  0  0  0  0  0  0
    1.1974   -7.8549    5.1380 N   0  0  0  0  0  0  0  0  0  0  0  0
    2.2850   -8.7688    5.5319 C   0  0  0  0  0  0  0  0  0  0  0  0
    2.4157  -10.0306    4.6318 C   0  0  2  0  0  0  0  0  0  0  0  0
    2.5698   -9.7547    3.1230 C   0  0  0  0  0  0  0  0  0  0  0  0
    1.1101   -9.5791    2.6585 C   0  0  0  0  0  0  0  0  0  0  0  0
    0.2443   -9.8564    3.9166 C   0  0  2  0  0  0  0  0  0  0  0  0
   -0.0324   -8.5499    4.7122 C   0  0  0  0  0  0  0  0  0  0  0  0
    1.1090  -10.7114    4.7591 N   0  0  1  0  0  0  0  0  0  0  0  0
    1.1692  -12.1300    4.3551 C   0  0  0  0  0  0  0  0  0  0  0  0
    3.6573   -5.2123    5.1608 C   0  0  1  0  0  0  0  0  0  0  0  0
    4.2848   -6.0935    4.0329 C   0  0  2  0  0  0  0  0  0  0  0  0
    5.7570   -5.8628    3.6310 C   0  0  0  0  0  0  0  0  0  0  0  0
    5.7934   -5.8142    2.0899 C   0  0  2  0  0  0  0  0  0  0  0  0
    6.8922   -6.5917    1.6247 O   0  0  0  0  0  0  0  0  0  0  0  0
    6.0445   -4.3905    1.5534 C   0  0  0  0  0  0  0  0  0  0  0  0
    5.3329   -3.2195    2.2673 C   0  0  0  0  0  0  0  0  0  0  0  0
    3.7871   -3.2345    2.3728 C   0  0  1  0  0  0  0  0  0  0  0  0
    3.0932   -4.2172    1.3837 C   0  0  0  0  0  0  0  0  0  0  0  0
    2.5239   -3.7407    0.4040 O   0  0  0  0  0  0  0  0  0  0  0  0
    3.1165   -5.7059    1.5269 C   0  0  2  0  0  0  0  0  0  0  0  0
    1.9637   -6.3593    0.7455 C   0  0  0  0  0  0  0  0  0  0  0  0
    3.4652   -6.3996    2.8112 C   0  0  1  0  0  0  0  0  0  0  0  0
    4.4492   -6.4188    1.6375 C   0  0  2  0  0  0  0  0  0  0  0  0
    4.4915   -7.6456    0.9205 O   0  0  0  0  0  0  0  0  0  0  0  0
    3.0788   -2.8834    3.7510 C   0  0  1  0  0  0  0  0  0  0  0  0
    3.3379   -1.3499    3.8844 C   0  0  0  0  0  0  0  0  0  0  0  0
    1.5329   -3.0236    3.5864 C   0  0  0  0  0  0  0  0  0  0  0  0
    0.5948   -2.5055    4.6951 C   0  0  0  0  0  0  0  0  0  0  0  0
    3.6814   -3.6565    5.0119 C   0  0  1  0  0  0  0  0  0  0  0  0
   -0.1754   -6.7613    8.9084 H   0  0  0  0  0  0  0  0  0  0  0  0
    6.1056   -1.5696    7.9546 H   0  0  0  0  0  0  0  0  0  0  0  0
    6.1077   -3.1477    7.1853 H   0  0  0  0  0  0  0  0  0  0  0  0
    5.0998   -2.8550    8.6126 H   0  0  0  0  0  0  0  0  0  0  0  0
    3.7434   -1.1598    7.2651 H   0  0  0  0  0  0  0  0  0  0  0  0
    4.7979   -1.4697    5.9410 H   0  0  0  0  0  0  0  0  0  0  0  0
    0.8174   -2.4912    9.8610 H   0  0  0  0  0  0  0  0  0  0  0  0
    0.6818   -7.2463    7.5096 H   0  0  0  0  0  0  0  0  0  0  0  0
    2.9206   -6.5764    6.6587 H   0  0  0  0  0  0  0  0  0  0  0  0
    3.2602   -8.3385    5.5425 H   0  0  0  0  0  0  0  0  0  0  0  0
    2.1235   -9.0381    6.5788 H   0  0  0  0  0  0  0  0  0  0  0  0
    3.2590  -10.6365    5.0069 H   0  0  0  0  0  0  0  0  0  0  0  0
    3.2770   -8.9893    2.9098 H   0  0  0  0  0  0  0  0  0  0  0  0
    2.9969  -10.6165    2.6090 H   0  0  0  0  0  0  0  0  0  0  0  0
    0.8241   -8.6256    2.2421 H   0  0  0  0  0  0  0  0  0  0  0  0
    0.8768  -10.3278    1.8864 H   0  0  0  0  0  0  0  0  0  0  0  0
   -0.6881  -10.3602    3.6677 H   0  0  0  0  0  0  0  0  0  0  0  0
   -0.5755   -8.8169    5.6097 H   0  0  0  0  0  0  0  0  0  0  0  0
   -0.7145   -7.9162    4.1515 H   0  0  0  0  0  0  0  0  0  0  0  0
    1.5095  -12.2432    3.3366 H   0  0  0  0  0  0  0  0  0  0  0  0
    0.1965  -12.5901    4.4604 H   0  0  0  0  0  0  0  0  0  0  0  0
    1.8700  -12.6519    5.0048 H   0  0  0  0  0  0  0  0  0  0  0  0
    4.4524   -5.3292    5.9073 H   0  0  0  0  0  0  0  0  0  0  0  0
    4.4215   -7.0418    4.5015 H   0  0  0  0  0  0  0  0  0  0  0  0
    6.2035   -4.9942    4.1251 H   0  0  0  0  0  0  0  0  0  0  0  0
    6.3368   -6.7248    3.9872 H   0  0  0  0  0  0  0  0  0  0  0  0
    6.8017   -7.4770    1.9438 H   0  0  0  0  0  0  0  0  0  0  0  0
    7.1130   -4.1967    1.6500 H   0  0  0  0  0  0  0  0  0  0  0  0
    5.8432   -4.3739    0.4848 H   0  0  0  0  0  0  0  0  0  0  0  0
    5.8018   -3.0409    3.2240 H   0  0  0  0  0  0  0  0  0  0  0  0
    5.6134   -2.3308    1.7063 H   0  0  0  0  0  0  0  0  0  0  0  0
    3.5683   -2.3477    1.7961 H   0  0  0  0  0  0  0  0  0  0  0  0
    1.9540   -7.4382    0.8830 H   0  0  0  0  0  0  0  0  0  0  0  0
    2.0801   -6.2094   -0.3223 H   0  0  0  0  0  0  0  0  0  0  0  0
    0.9855   -5.9905    1.0577 H   0  0  0  0  0  0  0  0  0  0  0  0
    2.6548   -7.0563    3.0066 H   0  0  0  0  0  0  0  0  0  0  0  0
    4.8241   -8.3503    1.4613 H   0  0  0  0  0  0  0  0  0  0  0  0
    2.9225   -0.9141    4.7925 H   0  0  0  0  0  0  0  0  0  0  0  0
    2.8810   -0.7787    3.0764 H   0  0  0  0  0  0  0  0  0  0  0  0
    4.3991   -1.0959    3.8617 H   0  0  0  0  0  0  0  0  0  0  0  0
    1.2453   -2.4770    2.6890 H   0  0  0  0  0  0  0  0  0  0  0  0
    1.2838   -4.0539    3.3687 H   0  0  0  0  0  0  0  0  0  0  0  0
   -0.4333   -2.5222    4.3389 H   0  0  0  0  0  0  0  0  0  0  0  0
    0.8030   -1.4820    4.9982 H   0  0  0  0  0  0  0  0  0  0  0  0
    0.5999   -3.1345    5.5747 H   0  0  0  0  0  0  0  0  0  0  0  0
    4.7475   -3.4901    4.9177 H   0  0  0  0  0  0  0  0  0  0  0  0
    0.8064  -10.6872    5.7231 H   0  0  0  0  0  0  0  0  0  0  0  0
    2.4152   -1.8016    8.3135 H   0  0  0  0  0  0  0  0  0  0  0  0
  1  2  1  0
  1 44  1  0
  1 45  1  0
  1 46  1  0
  2 47  1  0
  2 48  1  0
  2  3  1  0
  3  4  1  0
  3 42  1  0
  4  5  1  0
  4 10  2  0
  5  6  2  0
  5 90  1  0
  6 49  1  0
  6  7  1  0
  7  8  2  0
  8 10  1  0
  8  9  1  0
  9 50  1  0
  9 43  1  0
 10 11  1  0
 11 12  1  0
 11 23  1  0
 11 51  1  1
 12 13  2  0
 12 14  1  0
 14 20  1  0
 14 15  1  0
 15 16  1  0
 15 52  1  0
 15 53  1  0
 16 21  1  0
 16 17  1  0
 16 54  1  1
 17 18  1  0
 17 55  1  0
 17 56  1  0
 18 19  1  0
 18 57  1  0
 18 58  1  0
 19 20  1  0
 19 21  1  0
 19 59  1  6
 20 60  1  0
 20 61  1  0
 21 22  1  0
 21 89  1  1
 22 62  1  0
 22 63  1  0
 22 64  1  0
 23 42  1  0
 23 24  1  0
 23 65  1  1
 24 35  1  0
 24 25  1  0
 24 66  1  1
 25 26  1  0
 25 67  1  0
 25 68  1  0
 26 36  1  0
 26 27  1  6
 26 28  1  0
 27 69  1  0
 28 29  1  0
 28 70  1  0
 28 71  1  0
 29 30  1  0
 29 72  1  0
 29 73  1  0
 30 31  1  0
 30 38  1  0
 30 74  1  6
 31 32  2  0
 31 33  1  0
 33 36  1  0
 33 34  1  6
 33 35  1  0
 34 75  1  0
 34 76  1  0
 34 77  1  0
 35 36  1  0
 35 78  1  1
 36 37  1  6
 37 79  1  0
 38 39  1  1
 38 40  1  0
 38 42  1  0
 39 80  1  0
 39 81  1  0
 39 82  1  0
 40 41  1  0
 40 83  1  0
 40 84  1  0
 41 85  1  0
 41 86  1  0
 41 87  1  0
 42 88  1  6
M  CHG  2   5   1  21   1
M  END
>  <i_m_ct_stereo_status>  (77) 
1

>  <s_m_source_file>  (77) 
/var/tmp/pbs.5102103.sched01/tmp13xrk0lu/22amefgkkz.sdf

>  <i_m_source_file_index>  (77) 
9

>  <i_lp_mmshare_version>  (77) 
48012

>  <i_f3d_flags>  (77) 
0

>  <s_epik_input>  (77) 
W09IXVtDQEBdMTJbQ0BdMyhbT0hdKVtDQEBdNChbQ0gzXSlbQ0BASF0zW0NAQEhdKFtDSDJdMSlbQ0BIXTVbQ0BASF0oW0NAXShbQ0gzXSkoW0NIMl1bQ0gzXSlbQ0BIXShDND1PKVtDSDJdW0NIMl0yKU4oW0NIMl1bQ0gzXSljNmMoYyg9TlxbSF0pXG5bY0hdW25IXTYpW0NASF01Qyg9TylOKFtDSDJdW0NASF03OClbQ0gyXVtDQEBIXShbQ0gyXVtDSDJdNylOOFtDSDNd

>  <s_epik_cmdline>  (77) 
J2VwaWtfcHl0aG9uJywgJy1waHQnLCAnMi4wJywgJy1waCcsICc3LjAnLCAnLXRuJywgJzgnLCAnLW1hJywgJzIwMCcsICctaW1hZScsICc8aW5maWxlLm1hZT4nLCAnLW9tYWUnLCAnPG91dGZpbGUubWFlPic=

>  <r_lp_tautomer_probability>  (77) 
0.999336

>  <r_epik_Ionization_Penalty>  (77) 
1.18239

>  <r_epik_Ionization_Penalty_Charging>  (77) 
1.18238

>  <r_epik_Ionization_Penalty_Neutral>  (77) 
9.66087e-06

>  <r_epik_State_Penalty>  (77) 
0.552173

>  <r_epik_Charging_Adjusted_Penalty>  (77) 
1.73455

>  <i_epik_Tot_Q>  (77) 
2

>  <i_epik_Tot_abs_Q>  (77) 
2

>  <s_lp_Force_Field>  (77) 
OPLS3e

>  <r_lp_Energy>  (77) 
132.742

>  <b_lp_Chiralities_Consistent>  (77) 
1

>  <s_lp_Variant>  (77) 
21:0-3

>  <s_i_glide_gridfile>  (77) 
pfpi4k_grid

>  <i_i_glide_lignum>  (77) 
9

>  <i_i_glide_rotatable_bonds>  (77) 
6

>  <r_i_docking_score>  (77) 
-2.15567

>  <r_i_glide_ligand_efficiency>  (77) 
-0.0513254

>  <r_i_glide_ligand_efficiency_sa>  (77) 
-0.178409

>  <r_i_glide_ligand_efficiency_ln>  (77) 
-0.455006

>  <r_i_glide_gscore>  (77) 
-2.15567

>  <r_i_glide_lipo>  (77) 
-0.357234

>  <r_i_glide_hbond>  (77) 
0

>  <r_i_glide_metal>  (77) 
-0

>  <r_i_glide_rewards>  (77) 
0

>  <r_i_glide_evdw>  (77) 
-24.7355

>  <r_i_glide_ecoul>  (77) 
-3.46666

>  <r_i_glide_erotb>  (77) 
0.023844

>  <r_i_glide_esite>  (77) 
-0.0655038

>  <r_i_glide_emodel>  (77) 
-30.8441

>  <r_i_glide_energy>  (77) 
-28.2022

>  <r_i_glide_einternal>  (77) 
1.189

>  <r_i_glide_intrahb_reward>  (77) 
-0

>  <i_i_glide_confnum>  (77) 
2

>  <i_i_glide_posenum>  (77) 
9

>  <r_i_glide_eff_state_penalty>  (77) 
0

>  <ligand_id>  (77) 
21

>  <original_smiles>  (77) 
CCN1c2[nH]cnc(=N)c2C(C(=O)N2CC3CCC(C2)N3C)C2C3CC4(O)CCC(C(=O)C5(C)C3C45O)C(C)(CC)C21

>  <smiles>  (77) 
[H]OC12C([H])([H])C([H])([H])C3([H])C(=O)C4(C([H])([H])[H])C([H])(C([H])(C1([H])[H])C1([H])C([H])(C(=O)N5C([H])([H])C6([H])C([H])([H])C([H])([H])C([H])(C5([H])[H])[N+]6([H])C([H])([H])[H])c5c(N([H])[H])nc([H])[n+]([H])c5N(C([H])([H])C([H])([H])[H])C1([H])C3(C([H])([H])[H])C([H])([H])C([H])([H])[H])C24O[H]

$$$$
21:2:2
     RDKit          3D

 90 97  0  0  1  0  0  0  0  0999 V2000
    5.6820   -2.7937    7.8902 C   0  0  0  0  0  0  0  0  0  0  0  0
    4.4961   -2.2109    7.1124 C   0  0  0  0  0  0  0  0  0  0  0  0
    3.6108   -3.2217    6.5100 N   0  0  0  0  0  0  0  0  0  0  0  0
    2.6994   -3.8980    7.3528 C   0  0  0  0  0  0  0  0  0  0  0  0
    2.2951   -3.2642    8.4842 N   0  0  0  0  0  0  0  0  0  0  0  0
    1.4233   -3.8392    9.3218 C   0  0  0  0  0  0  0  0  0  0  0  0
    0.9325   -5.0584    9.1156 N   0  0  0  0  0  0  0  0  0  0  0  0
    1.3037   -5.7407    8.0298 C   0  0  0  0  0  0  0  0  0  0  0  0
    0.7820   -7.0330    7.9586 N   0  0  0  0  0  0  0  0  0  0  0  0
    2.1920   -5.1941    7.0646 C   0  0  0  0  0  0  0  0  0  0  0  0
    2.6753   -5.9844    5.8429 C   0  0  1  0  0  0  0  0  0  0  0  0
    1.4759   -6.5680    5.0227 C   0  0  0  0  0  0  0  0  0  0  0  0
    0.6237   -5.8011    4.5848 O   0  0  0  0  0  0  0  0  0  0  0  0
    1.3010   -7.9174    4.9335 N   0  0  0  0  0  0  0  0  0  0  0  0
    2.3378   -8.9046    5.3106 C   0  0  0  0  0  0  0  0  0  0  0  0
    2.2865  -10.1804    4.4468 C   0  0  2  0  0  0  0  0  0  0  0  0
    2.4098   -9.8701    2.9359 C   0  0  0  0  0  0  0  0  0  0  0  0
    0.9495   -9.6241    2.4847 C   0  0  0  0  0  0  0  0  0  0  0  0
    0.1217   -9.8277    3.7693 C   0  0  2  0  0  0  0  0  0  0  0  0
   -0.0211   -8.4968    4.5566 C   0  0  0  0  0  0  0  0  0  0  0  0
    0.9377  -10.7413    4.5946 N   0  0  1  0  0  0  0  0  0  0  0  0
    0.8445  -12.1670    4.2253 C   0  0  0  0  0  0  0  0  0  0  0  0
    3.8043   -5.2388    5.0450 C   0  0  1  0  0  0  0  0  0  0  0  0
    4.4149   -5.9679    3.8078 C   0  0  2  0  0  0  0  0  0  0  0  0
    5.8600   -5.6185    3.3861 C   0  0  0  0  0  0  0  0  0  0  0  0
    5.8323   -5.3302    1.8694 C   0  0  2  0  0  0  0  0  0  0  0  0
    6.9096   -6.0142    1.2561 O   0  0  0  0  0  0  0  0  0  0  0  0
    6.0612   -3.8424    1.5242 C   0  0  0  0  0  0  0  0  0  0  0  0
    5.3479   -2.8051    2.4187 C   0  0  0  0  0  0  0  0  0  0  0  0
    3.8036   -2.8843    2.5702 C   0  0  1  0  0  0  0  0  0  0  0  0
    3.0960   -3.7287    1.4889 C   0  0  0  0  0  0  0  0  0  0  0  0
    2.5056   -3.1199    0.5975 O   0  0  0  0  0  0  0  0  0  0  0  0
    3.1282   -5.2367    1.4397 C   0  0  2  0  0  0  0  0  0  0  0  0
    1.9826   -5.7830    0.5841 C   0  0  0  0  0  0  0  0  0  0  0  0
    3.5833   -6.1408    2.5560 C   0  0  1  0  0  0  0  0  0  0  0  0
    4.4963   -5.8803    1.3684 C   0  0  2  0  0  0  0  0  0  0  0  0
    4.5619   -6.9869    0.4837 O   0  0  0  0  0  0  0  0  0  0  0  0
    3.1507   -2.7309    4.0116 C   0  0  1  0  0  0  0  0  0  0  0  0
    3.3921   -1.2270    4.3568 C   0  0  0  0  0  0  0  0  0  0  0  0
    1.6010   -2.8700    3.8742 C   0  0  0  0  0  0  0  0  0  0  0  0
    0.6984   -2.5595    5.0851 C   0  0  0  0  0  0  0  0  0  0  0  0
    3.8153   -3.6738    5.1214 C   0  0  1  0  0  0  0  0  0  0  0  0
    0.1709   -7.3791    8.6819 H   0  0  0  0  0  0  0  0  0  0  0  0
    6.3097   -1.9786    8.2528 H   0  0  0  0  0  0  0  0  0  0  0  0
    6.3092   -3.4235    7.2565 H   0  0  0  0  0  0  0  0  0  0  0  0
    5.3605   -3.3747    8.7563 H   0  0  0  0  0  0  0  0  0  0  0  0
    3.9282   -1.5160    7.7321 H   0  0  0  0  0  0  0  0  0  0  0  0
    4.9328   -1.6014    6.3273 H   0  0  0  0  0  0  0  0  0  0  0  0
    1.1222   -3.2760   10.1916 H   0  0  0  0  0  0  0  0  0  0  0  0
    0.9789   -7.6556    7.1898 H   0  0  0  0  0  0  0  0  0  0  0  0
    3.1843   -6.7955    6.3552 H   0  0  0  0  0  0  0  0  0  0  0  0
    3.3465   -8.5123    5.2019 H   0  0  0  0  0  0  0  0  0  0  0  0
    2.1903   -9.1594    6.3662 H   0  0  0  0  0  0  0  0  0  0  0  0
    3.0672  -10.8625    4.7734 H   0  0  0  0  0  0  0  0  0  0  0  0
    3.0835   -9.0388    2.7374 H   0  0  0  0  0  0  0  0  0  0  0  0
    2.8101  -10.7333    2.3938 H   0  0  0  0  0  0  0  0  0  0  0  0
    0.7860   -8.6407    2.0361 H   0  0  0  0  0  0  0  0  0  0  0  0
    0.6631  -10.3744    1.7462 H   0  0  0  0  0  0  0  0  0  0  0  0
   -0.8608  -10.2402    3.5443 H   0  0  0  0  0  0  0  0  0  0  0  0
   -0.5726   -8.6970    5.4827 H   0  0  0  0  0  0  0  0  0  0  0  0
   -0.6402   -7.7905    3.9914 H   0  0  0  0  0  0  0  0  0  0  0  0
    1.1473  -12.3184    3.1847 H   0  0  0  0  0  0  0  0  0  0  0  0
   -0.1742  -12.5376    4.3673 H   0  0  0  0  0  0  0  0  0  0  0  0
    1.5120  -12.7372    4.8751 H   0  0  0  0  0  0  0  0  0  0  0  0
    4.6330   -5.4280    5.7347 H   0  0  0  0  0  0  0  0  0  0  0  0
    4.5238   -6.9956    4.1562 H   0  0  0  0  0  0  0  0  0  0  0  0
    6.2976   -4.8217    3.9795 H   0  0  0  0  0  0  0  0  0  0  0  0
    6.4849   -6.4974    3.5739 H   0  0  0  0  0  0  0  0  0  0  0  0
    6.8432   -5.9027    0.3217 H   0  0  0  0  0  0  0  0  0  0  0  0
    7.1291   -3.6316    1.6079 H   0  0  0  0  0  0  0  0  0  0  0  0
    5.8113   -3.6700    0.4758 H   0  0  0  0  0  0  0  0  0  0  0  0
    5.8233   -2.7594    3.3911 H   0  0  0  0  0  0  0  0  0  0  0  0
    5.5848   -1.8293    1.9905 H   0  0  0  0  0  0  0  0  0  0  0  0
    3.5453   -1.9202    2.1384 H   0  0  0  0  0  0  0  0  0  0  0  0
    1.9662   -6.8712    0.5869 H   0  0  0  0  0  0  0  0  0  0  0  0
    2.0659   -5.4676   -0.4549 H   0  0  0  0  0  0  0  0  0  0  0  0
    1.0277   -5.4697    0.9876 H   0  0  0  0  0  0  0  0  0  0  0  0
    2.9721   -7.0279    2.5871 H   0  0  0  0  0  0  0  0  0  0  0  0
    4.5947   -6.6599   -0.4056 H   0  0  0  0  0  0  0  0  0  0  0  0
    2.9998   -0.9413    5.3299 H   0  0  0  0  0  0  0  0  0  0  0  0
    2.8922   -0.5676    3.6482 H   0  0  0  0  0  0  0  0  0  0  0  0
    4.4478   -0.9587    4.3325 H   0  0  0  0  0  0  0  0  0  0  0  0
    1.2797   -2.1845    3.0856 H   0  0  0  0  0  0  0  0  0  0  0  0
    1.3575   -3.8560    3.4933 H   0  0  0  0  0  0  0  0  0  0  0  0
   -0.3417   -2.5466    4.7640 H   0  0  0  0  0  0  0  0  0  0  0  0
    0.9014   -1.5914    5.5418 H   0  0  0  0  0  0  0  0  0  0  0  0
    0.7483   -3.3220    5.8526 H   0  0  0  0  0  0  0  0  0  0  0  0
    4.8763   -3.4639    5.0229 H   0  0  0  0  0  0  0  0  0  0  0  0
    0.6512  -10.6784    5.5624 H   0  0  0  0  0  0  0  0  0  0  0  0
    2.6514   -2.3281    8.7000 H   0  0  0  0  0  0  0  0  0  0  0  0
  1  2  1  0
  1 44  1  0
  1 45  1  0
  1 46  1  0
  2 47  1  0
  2 48  1  0
  2  3  1  0
  3  4  1  0
  3 42  1  0
  4  5  1  0
  4 10  2  0
  5  6  2  0
  5 90  1  0
  6 49  1  0
  6  7  1  0
  7  8  2  0
  8 10  1  0
  8  9  1  0
  9 50  1  0
  9 43  1  0
 10 11  1  0
 11 12  1  0
 11 23  1  0
 11 51  1  1
 12 13  2  0
 12 14  1  0
 14 20  1  0
 14 15  1  0
 15 16  1  0
 15 52  1  0
 15 53  1  0
 16 21  1  0
 16 17  1  0
 16 54  1  1
 17 18  1  0
 17 55  1  0
 17 56  1  0
 18 19  1  0
 18 57  1  0
 18 58  1  0
 19 20  1  0
 19 21  1  0
 19 59  1  6
 20 60  1  0
 20 61  1  0
 21 22  1  0
 21 89  1  1
 22 62  1  0
 22 63  1  0
 22 64  1  0
 23 42  1  0
 23 24  1  0
 23 65  1  1
 24 35  1  0
 24 25  1  0
 24 66  1  1
 25 26  1  0
 25 67  1  0
 25 68  1  0
 26 36  1  0
 26 27  1  6
 26 28  1  0
 27 69  1  0
 28 29  1  0
 28 70  1  0
 28 71  1  0
 29 30  1  0
 29 72  1  0
 29 73  1  0
 30 31  1  0
 30 38  1  0
 30 74  1  6
 31 32  2  0
 31 33  1  0
 33 36  1  0
 33 34  1  6
 33 35  1  0
 34 75  1  0
 34 76  1  0
 34 77  1  0
 35 36  1  0
 35 78  1  6
 36 37  1  6
 37 79  1  0
 38 39  1  1
 38 40  1  0
 38 42  1  0
 39 80  1  0
 39 81  1  0
 39 82  1  0
 40 41  1  0
 40 83  1  0
 40 84  1  0
 41 85  1  0
 41 86  1  0
 41 87  1  0
 42 88  1  6
M  CHG  2   5   1  21   1
M  END
>  <i_m_ct_stereo_status>  (78) 
1

>  <s_m_source_file>  (78) 
/var/tmp/pbs.5102103.sched01/tmp13xrk0lu/22amefgkkz.sdf

>  <i_m_source_file_index>  (78) 
9

>  <i_lp_mmshare_version>  (78) 
48012

>  <i_f3d_flags>  (78) 
0

>  <s_epik_input>  (78) 
W09IXVtDQEBdMTJbQ0BdMyhbT0hdKVtDQEBdNChbQ0gzXSlbQ0BASF0zW0NAQEhdKFtDSDJdMSlbQ0BIXTVbQ0BASF0oW0NAXShbQ0gzXSkoW0NIMl1bQ0gzXSlbQ0BIXShDND1PKVtDSDJdW0NIMl0yKU4oW0NIMl1bQ0gzXSljNmMoYyg9TlxbSF0pXG5bY0hdW25IXTYpW0NASF01Qyg9TylOKFtDSDJdW0NASF03OClbQ0gyXVtDQEBIXShbQ0gyXVtDSDJdNylOOFtDSDNd

>  <s_epik_cmdline>  (78) 
J2VwaWtfcHl0aG9uJywgJy1waHQnLCAnMi4wJywgJy1waCcsICc3LjAnLCAnLXRuJywgJzgnLCAnLW1hJywgJzIwMCcsICctaW1hZScsICc8aW5maWxlLm1hZT4nLCAnLW9tYWUnLCAnPG91dGZpbGUubWFlPic=

>  <r_lp_tautomer_probability>  (78) 
0.999336

>  <r_epik_Ionization_Penalty>  (78) 
1.18239

>  <r_epik_Ionization_Penalty_Charging>  (78) 
1.18238

>  <r_epik_Ionization_Penalty_Neutral>  (78) 
9.66087e-06

>  <r_epik_State_Penalty>  (78) 
0.552173

>  <r_epik_Charging_Adjusted_Penalty>  (78) 
1.73455

>  <i_epik_Tot_Q>  (78) 
2

>  <i_epik_Tot_abs_Q>  (78) 
2

>  <s_lp_Force_Field>  (78) 
OPLS3e

>  <r_lp_Energy>  (78) 
132.742

>  <b_lp_Chiralities_Consistent>  (78) 
1

>  <s_lp_Variant>  (78) 
21:0-3

>  <s_i_glide_gridfile>  (78) 
pfpi4k_grid

>  <i_i_glide_lignum>  (78) 
9

>  <i_i_glide_rotatable_bonds>  (78) 
6

>  <r_i_docking_score>  (78) 
-2.13317

>  <r_i_glide_ligand_efficiency>  (78) 
-0.0507898

>  <r_i_glide_ligand_efficiency_sa>  (78) 
-0.176547

>  <r_i_glide_ligand_efficiency_ln>  (78) 
-0.450257

>  <r_i_glide_gscore>  (78) 
-2.13317

>  <r_i_glide_lipo>  (78) 
-0.337161

>  <r_i_glide_hbond>  (78) 
0

>  <r_i_glide_metal>  (78) 
-0

>  <r_i_glide_rewards>  (78) 
0

>  <r_i_glide_evdw>  (78) 
-23.7742

>  <r_i_glide_ecoul>  (78) 
-3.81342

>  <r_i_glide_erotb>  (78) 
0.023844

>  <r_i_glide_esite>  (78) 
-0.0591302

>  <r_i_glide_emodel>  (78) 
-31.4775

>  <r_i_glide_energy>  (78) 
-27.5876

>  <r_i_glide_einternal>  (78) 
1.1589

>  <r_i_glide_intrahb_reward>  (78) 
-0

>  <i_i_glide_confnum>  (78) 
2

>  <i_i_glide_posenum>  (78) 
22

>  <r_i_glide_eff_state_penalty>  (78) 
0

>  <ligand_id>  (78) 
21

>  <original_smiles>  (78) 
CCN1c2[nH]cnc(=N)c2C(C(=O)N2CC3CCC(C2)N3C)C2C3CC4(O)CCC(C(=O)C5(C)C3C45O)C(C)(CC)C21

>  <smiles>  (78) 
[H]OC12C([H])([H])C([H])([H])C3([H])C(=O)C4(C([H])([H])[H])C([H])(C([H])(C1([H])[H])C1([H])C([H])(C(=O)N5C([H])([H])C6([H])C([H])([H])C([H])([H])C([H])(C5([H])[H])[N+]6([H])C([H])([H])[H])c5c(N([H])[H])nc([H])[n+]([H])c5N(C([H])([H])C([H])([H])[H])C1([H])C3(C([H])([H])[H])C([H])([H])C([H])([H])[H])C24O[H]

$$$$
21:3:0
     RDKit          3D

 90 97  0  0  1  0  0  0  0  0999 V2000
    5.3404   -1.4356    5.6837 C   0  0  0  0  0  0  0  0  0  0  0  0
    4.8910   -1.7534    4.2519 C   0  0  0  0  0  0  0  0  0  0  0  0
    4.1934   -3.0445    4.0908 N   0  0  0  0  0  0  0  0  0  0  0  0
    2.8658   -3.1674    4.5254 C   0  0  0  0  0  0  0  0  0  0  0  0
    2.1349   -2.0353    4.7056 N   0  0  0  0  0  0  0  0  0  0  0  0
    0.8733   -2.0887    5.0933 C   0  0  0  0  0  0  0  0  0  0  0  0
    0.2517   -3.2426    5.3574 N   0  0  0  0  0  0  0  0  0  0  0  0
    0.9271   -4.3895    5.2350 C   0  0  0  0  0  0  0  0  0  0  0  0
    0.1803   -5.5152    5.6114 N   0  0  0  0  0  0  0  0  0  0  0  0
    2.2675   -4.4474    4.7818 C   0  0  0  0  0  0  0  0  0  0  0  0
    3.0914   -5.7583    4.6983 C   0  0  1  0  0  0  0  0  0  0  0  0
    2.3454   -6.8976    3.9416 C   0  0  0  0  0  0  0  0  0  0  0  0
    1.7776   -6.5930    2.8875 O   0  0  0  0  0  0  0  0  0  0  0  0
    2.2077   -8.1418    4.4825 N   0  0  0  0  0  0  0  0  0  0  0  0
    1.1679   -9.0147    3.8915 C   0  0  0  0  0  0  0  0  0  0  0  0
    0.7096  -10.1751    4.8187 C   0  0  2  0  0  0  0  0  0  0  0  0
    0.1148   -9.6305    6.1284 C   0  0  0  0  0  0  0  0  0  0  0  0
    1.2977   -9.4974    7.0983 C   0  0  0  0  0  0  0  0  0  0  0  0
    2.4865   -9.9466    6.2647 C   0  0  2  0  0  0  0  0  0  0  0  0
    3.0659   -8.7260    5.5527 C   0  0  0  0  0  0  0  0  0  0  0  0
    1.8907  -10.9073    5.2811 N   0  0  2  0  0  0  0  0  0  0  0  0
    2.7787  -11.5243    4.2720 C   0  0  0  0  0  0  0  0  0  0  0  0
    4.5739   -5.5048    4.2363 C   0  0  1  0  0  0  0  0  0  0  0  0
    5.4939   -6.7709    4.0514 C   0  0  2  0  0  0  0  0  0  0  0  0
    7.0158   -6.5693    3.9307 C   0  0  0  0  0  0  0  0  0  0  0  0
    7.4724   -7.3434    2.6610 C   0  0  2  0  0  0  0  0  0  0  0  0
    8.6277   -8.0909    3.0090 O   0  0  0  0  0  0  0  0  0  0  0  0
    7.8993   -6.4891    1.4663 C   0  0  0  0  0  0  0  0  0  0  0  0
    7.1081   -5.1939    1.2725 C   0  0  0  0  0  0  0  0  0  0  0  0
    5.5636   -5.2352    1.0878 C   0  0  1  0  0  0  0  0  0  0  0  0
    4.8968   -6.5968    0.7875 C   0  0  0  0  0  0  0  0  0  0  0  0
    4.2425   -6.6864   -0.2366 O   0  0  0  0  0  0  0  0  0  0  0  0
    5.0224   -7.8843    1.5905 C   0  0  2  0  0  0  0  0  0  0  0  0
    4.0887   -8.9812    1.0426 C   0  0  0  0  0  0  0  0  0  0  0  0
    5.1368   -7.8719    3.0606 C   0  0  1  0  0  0  0  0  0  0  0  0
    6.3343   -8.2479    2.2459 C   0  0  2  0  0  0  0  0  0  0  0  0
    6.5653   -9.6459    2.3429 O   0  0  0  0  0  0  0  0  0  0  0  0
    4.7448   -4.0893    1.8173 C   0  0  1  0  0  0  0  0  0  0  0  0
    5.4096   -2.7629    1.3311 C   0  0  0  0  0  0  0  0  0  0  0  0
    3.2582   -3.9845    1.3479 C   0  0  0  0  0  0  0  0  0  0  0  0
    2.9476   -3.8031   -0.1544 C   0  0  0  0  0  0  0  0  0  0  0  0
    4.8285   -4.1858    3.4029 C   0  0  1  0  0  0  0  0  0  0  0  0
   -0.7766   -5.4319    5.9282 H   0  0  0  0  0  0  0  0  0  0  0  0
    5.8969   -0.4941    5.6898 H   0  0  0  0  0  0  0  0  0  0  0  0
    6.0091   -2.2013    6.0805 H   0  0  0  0  0  0  0  0  0  0  0  0
    4.4946   -1.3192    6.3596 H   0  0  0  0  0  0  0  0  0  0  0  0
    4.2832   -0.9455    3.8452 H   0  0  0  0  0  0  0  0  0  0  0  0
    5.7940   -1.7619    3.6579 H   0  0  0  0  0  0  0  0  0  0  0  0
    0.3303   -1.1602    5.2066 H   0  0  0  0  0  0  0  0  0  0  0  0
    0.5427   -6.4457    5.5400 H   0  0  0  0  0  0  0  0  0  0  0  0
    3.1282   -6.0401    5.7505 H   0  0  0  0  0  0  0  0  0  0  0  0
    0.2760   -8.4663    3.5826 H   0  0  0  0  0  0  0  0  0  0  0  0
    1.5610   -9.4028    2.9577 H   0  0  0  0  0  0  0  0  0  0  0  0
    0.0183  -10.8456    4.2907 H   0  0  0  0  0  0  0  0  0  0  0  0
   -0.4098   -8.6912    5.9875 H   0  0  0  0  0  0  0  0  0  0  0  0
   -0.5815  -10.3480    6.5515 H   0  0  0  0  0  0  0  0  0  0  0  0
    1.4426   -8.4801    7.4750 H   0  0  0  0  0  0  0  0  0  0  0  0
    1.1925  -10.1690    7.9581 H   0  0  0  0  0  0  0  0  0  0  0  0
    3.2699  -10.4347    6.8583 H   0  0  0  0  0  0  0  0  0  0  0  0
    3.9259   -9.2188    5.1702 H   0  0  0  0  0  0  0  0  0  0  0  0
    3.4721   -8.0040    6.2498 H   0  0  0  0  0  0  0  0  0  0  0  0
    3.2434  -10.8115    3.5841 H   0  0  0  0  0  0  0  0  0  0  0  0
    2.2225  -12.2356    3.6540 H   0  0  0  0  0  0  0  0  0  0  0  0
    3.5936  -12.0808    4.7399 H   0  0  0  0  0  0  0  0  0  0  0  0
    4.9843   -5.1411    5.1931 H   0  0  0  0  0  0  0  0  0  0  0  0
    5.3902   -7.2508    5.0244 H   0  0  0  0  0  0  0  0  0  0  0  0
    7.3551   -5.5285    3.9669 H   0  0  0  0  0  0  0  0  0  0  0  0
    7.4752   -7.0273    4.8179 H   0  0  0  0  0  0  0  0  0  0  0  0
    9.2763   -7.9847    2.3370 H   0  0  0  0  0  0  0  0  0  0  0  0
    8.9405   -6.1988    1.6080 H   0  0  0  0  0  0  0  0  0  0  0  0
    7.8752   -7.0997    0.5619 H   0  0  0  0  0  0  0  0  0  0  0  0
    7.3832   -4.5315    2.0763 H   0  0  0  0  0  0  0  0  0  0  0  0
    7.5344   -4.7188    0.3957 H   0  0  0  0  0  0  0  0  0  0  0  0
    5.5136   -4.8706    0.0634 H   0  0  0  0  0  0  0  0  0  0  0  0
    4.0781   -9.8589    1.6822 H   0  0  0  0  0  0  0  0  0  0  0  0
    4.4134   -9.3211    0.0646 H   0  0  0  0  0  0  0  0  0  0  0  0
    3.0530   -8.6455    0.9902 H   0  0  0  0  0  0  0  0  0  0  0  0
    4.5885   -8.6854    3.4614 H   0  0  0  0  0  0  0  0  0  0  0  0
    5.8153  -10.1139    2.0327 H   0  0  0  0  0  0  0  0  0  0  0  0
    4.8539   -1.8746    1.6236 H   0  0  0  0  0  0  0  0  0  0  0  0
    5.4804   -2.6989    0.2476 H   0  0  0  0  0  0  0  0  0  0  0  0
    6.4338   -2.6297    1.6753 H   0  0  0  0  0  0  0  0  0  0  0  0
    2.7284   -4.8622    1.6730 H   0  0  0  0  0  0  0  0  0  0  0  0
    2.7732   -3.1470    1.8549 H   0  0  0  0  0  0  0  0  0  0  0  0
    1.8830   -3.6295   -0.2983 H   0  0  0  0  0  0  0  0  0  0  0  0
    3.1556   -4.6848   -0.7462 H   0  0  0  0  0  0  0  0  0  0  0  0
    3.4748   -2.9708   -0.6177 H   0  0  0  0  0  0  0  0  0  0  0  0
    5.8673   -3.9952    3.6086 H   0  0  0  0  0  0  0  0  0  0  0  0
    1.5663  -11.6757    5.8919 H   0  0  0  0  0  0  0  0  0  0  0  0
    2.5701   -1.1132    4.5484 H   0  0  0  0  0  0  0  0  0  0  0  0
  1  2  1  0
  1 44  1  0
  1 45  1  0
  1 46  1  0
  2 47  1  0
  2 48  1  0
  2  3  1  0
  3  4  1  0
  3 42  1  0
  4  5  1  0
  4 10  2  0
  5  6  2  0
  5 90  1  0
  6 49  1  0
  6  7  1  0
  7  8  2  0
  8 10  1  0
  8  9  1  0
  9 50  1  0
  9 43  1  0
 10 11  1  0
 11 12  1  0
 11 23  1  0
 11 51  1  1
 12 13  2  0
 12 14  1  0
 14 20  1  0
 14 15  1  0
 15 16  1  0
 15 52  1  0
 15 53  1  0
 16 21  1  0
 16 17  1  0
 16 54  1  6
 17 18  1  0
 17 55  1  0
 17 56  1  0
 18 19  1  0
 18 57  1  0
 18 58  1  0
 19 20  1  0
 19 21  1  0
 19 59  1  1
 20 60  1  0
 20 61  1  0
 21 22  1  0
 21 89  1  1
 22 62  1  0
 22 63  1  0
 22 64  1  0
 23 42  1  0
 23 24  1  0
 23 65  1  1
 24 35  1  0
 24 25  1  0
 24 66  1  1
 25 26  1  0
 25 67  1  0
 25 68  1  0
 26 36  1  0
 26 27  1  1
 26 28  1  0
 27 69  1  0
 28 29  1  0
 28 70  1  0
 28 71  1  0
 29 30  1  0
 29 72  1  0
 29 73  1  0
 30 31  1  0
 30 38  1  0
 30 74  1  6
 31 32  2  0
 31 33  1  0
 33 36  1  0
 33 34  1  1
 33 35  1  0
 34 75  1  0
 34 76  1  0
 34 77  1  0
 35 36  1  0
 35 78  1  1
 36 37  1  1
 37 79  1  0
 38 39  1  6
 38 40  1  0
 38 42  1  0
 39 80  1  0
 39 81  1  0
 39 82  1  0
 40 41  1  0
 40 83  1  0
 40 84  1  0
 41 85  1  0
 41 86  1  0
 41 87  1  0
 42 88  1  6
M  CHG  2   5   1  21   1
M  END
>  <i_m_ct_stereo_status>  (79) 
1

>  <s_m_source_file>  (79) 
/var/tmp/pbs.5102103.sched01/tmp13xrk0lu/22amefgkkz.sdf

>  <i_m_source_file_index>  (79) 
10

>  <i_lp_mmshare_version>  (79) 
48012

>  <i_f3d_flags>  (79) 
0

>  <s_epik_input>  (79) 
W09IXVtDQEBdMTJbQ0BdMyhbT0hdKVtDQEBdNChbQ0gzXSlbQ0BASF0zW0NAQEhdKFtDSDJdMSlbQ0BIXTVbQ0BASF0oW0NAXShbQ0gzXSkoW0NIMl1bQ0gzXSlbQ0BIXShDND1PKVtDSDJdW0NIMl0yKU4oW0NIMl1bQ0gzXSljNmMoYyg9TlxbSF0pXG5bY0hdW25IXTYpW0NASF01Qyg9TylOKFtDSDJdW0NASF03OClbQ0gyXVtDQEBIXShbQ0gyXVtDSDJdNylOOFtDSDNd

>  <s_epik_cmdline>  (79) 
J2VwaWtfcHl0aG9uJywgJy1waHQnLCAnMi4wJywgJy1waCcsICc3LjAnLCAnLXRuJywgJzgnLCAnLW1hJywgJzIwMCcsICctaW1hZScsICc8aW5maWxlLm1hZT4nLCAnLW9tYWUnLCAnPG91dGZpbGUubWFlPic=

>  <r_lp_tautomer_probability>  (79) 
0.999336

>  <r_epik_Ionization_Penalty>  (79) 
1.18239

>  <r_epik_Ionization_Penalty_Charging>  (79) 
1.18238

>  <r_epik_Ionization_Penalty_Neutral>  (79) 
9.66087e-06

>  <r_epik_State_Penalty>  (79) 
0.552173

>  <r_epik_Charging_Adjusted_Penalty>  (79) 
1.73455

>  <i_epik_Tot_Q>  (79) 
2

>  <i_epik_Tot_abs_Q>  (79) 
2

>  <s_lp_Force_Field>  (79) 
OPLS3e

>  <r_lp_Energy>  (79) 
133.72

>  <b_lp_Chiralities_Consistent>  (79) 
1

>  <s_lp_Variant>  (79) 
21:0-4

>  <s_i_glide_gridfile>  (79) 
pfpi4k_grid

>  <i_i_glide_lignum>  (79) 
10

>  <i_i_glide_rotatable_bonds>  (79) 
6

>  <r_i_docking_score>  (79) 
-3.38765

>  <r_i_glide_ligand_efficiency>  (79) 
-0.0806584

>  <r_i_glide_ligand_efficiency_sa>  (79) 
-0.280371

>  <r_i_glide_ligand_efficiency_ln>  (79) 
-0.715046

>  <r_i_glide_gscore>  (79) 
-3.38765

>  <r_i_glide_lipo>  (79) 
-0.456192

>  <r_i_glide_hbond>  (79) 
-0.198108

>  <r_i_glide_metal>  (79) 
-0

>  <r_i_glide_rewards>  (79) 
-0.158595

>  <r_i_glide_evdw>  (79) 
-25.2874

>  <r_i_glide_ecoul>  (79) 
-8.24714

>  <r_i_glide_erotb>  (79) 
0.023844

>  <r_i_glide_esite>  (79) 
-0.0971617

>  <r_i_glide_emodel>  (79) 
-39.451

>  <r_i_glide_energy>  (79) 
-33.5345

>  <r_i_glide_einternal>  (79) 
3.11396

>  <r_i_glide_intrahb_reward>  (79) 
-0

>  <i_i_glide_confnum>  (79) 
3

>  <i_i_glide_posenum>  (79) 
27

>  <r_i_glide_eff_state_penalty>  (79) 
0

>  <ligand_id>  (79) 
21

>  <original_smiles>  (79) 
CCN1c2[nH]cnc(=N)c2C(C(=O)N2CC3CCC(C2)N3C)C2C3CC4(O)CCC(C(=O)C5(C)C3C45O)C(C)(CC)C21

>  <smiles>  (79) 
[H]OC12C([H])([H])C([H])([H])C3([H])C(=O)C4(C([H])([H])[H])C([H])(C([H])(C1([H])[H])C1([H])C([H])(C(=O)N5C([H])([H])C6([H])C([H])([H])C([H])([H])C([H])(C5([H])[H])[N+]6([H])C([H])([H])[H])c5c(N([H])[H])nc([H])[n+]([H])c5N(C([H])([H])C([H])([H])[H])C1([H])C3(C([H])([H])[H])C([H])([H])C([H])([H])[H])C24O[H]

$$$$
21:3:1
     RDKit          3D

 90 97  0  0  1  0  0  0  0  0999 V2000
    5.8833   -0.9962    6.1486 C   0  0  0  0  0  0  0  0  0  0  0  0
    5.0023   -1.2460    4.9187 C   0  0  0  0  0  0  0  0  0  0  0  0
    4.1621   -2.4458    5.0265 N   0  0  0  0  0  0  0  0  0  0  0  0
    3.1369   -2.5009    6.0063 C   0  0  0  0  0  0  0  0  0  0  0  0
    2.7290   -1.3304    6.5579 N   0  0  0  0  0  0  0  0  0  0  0  0
    1.7170   -1.3084    7.4332 C   0  0  0  0  0  0  0  0  0  0  0  0
    1.0886   -2.4139    7.8314 N   0  0  0  0  0  0  0  0  0  0  0  0
    1.4827   -3.6034    7.3566 C   0  0  0  0  0  0  0  0  0  0  0  0
    0.8235   -4.6890    7.9316 N   0  0  0  0  0  0  0  0  0  0  0  0
    2.5142   -3.7176    6.3776 C   0  0  0  0  0  0  0  0  0  0  0  0
    3.0267   -5.0696    5.8369 C   0  0  1  0  0  0  0  0  0  0  0  0
    1.8722   -6.0360    5.4242 C   0  0  0  0  0  0  0  0  0  0  0  0
    0.9208   -5.5654    4.7959 O   0  0  0  0  0  0  0  0  0  0  0  0
    1.8751   -7.3529    5.7880 N   0  0  0  0  0  0  0  0  0  0  0  0
    0.8413   -8.2404    5.1835 C   0  0  0  0  0  0  0  0  0  0  0  0
    0.6562   -9.5829    5.9228 C   0  0  2  0  0  0  0  0  0  0  0  0
    0.2101   -9.3334    7.3616 C   0  0  0  0  0  0  0  0  0  0  0  0
    1.5258   -9.2178    8.1668 C   0  0  0  0  0  0  0  0  0  0  0  0
    2.6282   -9.3868    7.1196 C   0  0  2  0  0  0  0  0  0  0  0  0
    3.0028   -8.0124    6.5092 C   0  0  0  0  0  0  0  0  0  0  0  0
    1.9709  -10.2565    6.1001 N   0  0  2  0  0  0  0  0  0  0  0  0
    2.7509  -10.6581    4.8767 C   0  0  0  0  0  0  0  0  0  0  0  0
    4.1854   -4.9002    4.7831 C   0  0  1  0  0  0  0  0  0  0  0  0
    4.7724   -6.1924    4.1178 C   0  0  2  0  0  0  0  0  0  0  0  0
    6.1139   -6.1508    3.3599 C   0  0  0  0  0  0  0  0  0  0  0  0
    5.8676   -6.8359    1.9867 C   0  0  2  0  0  0  0  0  0  0  0  0
    6.9318   -7.7523    1.7335 O   0  0  0  0  0  0  0  0  0  0  0  0
    5.8491   -5.8792    0.7845 C   0  0  0  0  0  0  0  0  0  0  0  0
    5.2370   -4.4990    1.0492 C   0  0  0  0  0  0  0  0  0  0  0  0
    3.7693   -4.3491    1.5624 C   0  0  1  0  0  0  0  0  0  0  0  0
    2.8399   -5.5846    1.4612 C   0  0  0  0  0  0  0  0  0  0  0  0
    1.7792   -5.4311    0.8443 O   0  0  0  0  0  0  0  0  0  0  0  0
    3.1263   -6.9606    2.0554 C   0  0  2  0  0  0  0  0  0  0  0  0
    1.9348   -7.9055    1.8371 C   0  0  0  0  0  0  0  0  0  0  0  0
    3.8561   -7.1431    3.3696 C   0  0  1  0  0  0  0  0  0  0  0  0
    4.5316   -7.5658    2.0964 C   0  0  2  0  0  0  0  0  0  0  0  0
    4.5467   -8.9648    1.8997 O   0  0  0  0  0  0  0  0  0  0  0  0
    3.5069   -3.2279    2.6614 C   0  0  1  0  0  0  0  0  0  0  0  0
    4.0771   -1.9295    1.9994 C   0  0  0  0  0  0  0  0  0  0  0  0
    1.9722   -2.9760    2.8570 C   0  0  0  0  0  0  0  0  0  0  0  0
    1.4642   -1.5959    3.3565 C   0  0  0  0  0  0  0  0  0  0  0  0
    4.2594   -3.5297    4.0332 C   0  0  1  0  0  0  0  0  0  0  0  0
    0.1173   -4.5365    8.6385 H   0  0  0  0  0  0  0  0  0  0  0  0
    6.5192   -0.1311    5.9712 H   0  0  0  0  0  0  0  0  0  0  0  0
    6.5284   -1.8531    6.3518 H   0  0  0  0  0  0  0  0  0  0  0  0
    5.2939   -0.7950    7.0443 H   0  0  0  0  0  0  0  0  0  0  0  0
    4.3738   -0.3783    4.7125 H   0  0  0  0  0  0  0  0  0  0  0  0
    5.6594   -1.3559    4.0589 H   0  0  0  0  0  0  0  0  0  0  0  0
    1.3977   -0.3453    7.7974 H   0  0  0  0  0  0  0  0  0  0  0  0
    0.9917   -5.6388    7.6415 H   0  0  0  0  0  0  0  0  0  0  0  0
    3.4780   -5.4654    6.7345 H   0  0  0  0  0  0  0  0  0  0  0  0
   -0.1334   -7.7464    5.0987 H   0  0  0  0  0  0  0  0  0  0  0  0
    1.1610   -8.4868    4.1764 H   0  0  0  0  0  0  0  0  0  0  0  0
   -0.0357  -10.2254    5.3774 H   0  0  0  0  0  0  0  0  0  0  0  0
   -0.3963   -8.4269    7.4390 H   0  0  0  0  0  0  0  0  0  0  0  0
   -0.3744  -10.1885    7.7012 H   0  0  0  0  0  0  0  0  0  0  0  0
    1.6128   -8.2566    8.6811 H   0  0  0  0  0  0  0  0  0  0  0  0
    1.5733  -10.0177    8.9065 H   0  0  0  0  0  0  0  0  0  0  0  0
    3.5039   -9.8818    7.5355 H   0  0  0  0  0  0  0  0  0  0  0  0
    3.8099   -8.2149    5.8203 H   0  0  0  0  0  0  0  0  0  0  0  0
    3.3758   -7.4091    7.3421 H   0  0  0  0  0  0  0  0  0  0  0  0
    3.0382   -9.8021    4.2741 H   0  0  0  0  0  0  0  0  0  0  0  0
    2.1509  -11.3353    4.2689 H   0  0  0  0  0  0  0  0  0  0  0  0
    3.6510  -11.1820    5.1867 H   0  0  0  0  0  0  0  0  0  0  0  0
    5.0029   -4.7201    5.4881 H   0  0  0  0  0  0  0  0  0  0  0  0
    5.0509   -6.7723    5.0024 H   0  0  0  0  0  0  0  0  0  0  0  0
    6.5703   -5.1668    3.3157 H   0  0  0  0  0  0  0  0  0  0  0  0
    6.8206   -6.7588    3.9307 H   0  0  0  0  0  0  0  0  0  0  0  0
    6.9489   -8.4049    2.4188 H   0  0  0  0  0  0  0  0  0  0  0  0
    6.8772   -5.7088    0.4633 H   0  0  0  0  0  0  0  0  0  0  0  0
    5.3432   -6.3590   -0.0572 H   0  0  0  0  0  0  0  0  0  0  0  0
    5.9223   -3.9592    1.7004 H   0  0  0  0  0  0  0  0  0  0  0  0
    5.3023   -3.9546    0.1044 H   0  0  0  0  0  0  0  0  0  0  0  0
    3.3445   -3.8586    0.6876 H   0  0  0  0  0  0  0  0  0  0  0  0
    2.0813   -8.8626    2.3337 H   0  0  0  0  0  0  0  0  0  0  0  0
    1.7545   -8.1358    0.7885 H   0  0  0  0  0  0  0  0  0  0  0  0
    1.0234   -7.4790    2.2495 H   0  0  0  0  0  0  0  0  0  0  0  0
    3.5146   -7.9410    3.9908 H   0  0  0  0  0  0  0  0  0  0  0  0
    5.0320   -9.3614    2.6066 H   0  0  0  0  0  0  0  0  0  0  0  0
    3.8688   -1.0285    2.5626 H   0  0  0  0  0  0  0  0  0  0  0  0
    3.6435   -1.7631    1.0150 H   0  0  0  0  0  0  0  0  0  0  0  0
    5.1544   -1.9527    1.8637 H   0  0  0  0  0  0  0  0  0  0  0  0
    1.4818   -3.1221    1.9003 H   0  0  0  0  0  0  0  0  0  0  0  0
    1.5859   -3.7511    3.5038 H   0  0  0  0  0  0  0  0  0  0  0  0
    0.4079   -1.6721    3.6195 H   0  0  0  0  0  0  0  0  0  0  0  0
    1.5672   -0.8133    2.5986 H   0  0  0  0  0  0  0  0  0  0  0  0
    1.9765   -1.2178    4.2361 H   0  0  0  0  0  0  0  0  0  0  0  0
    5.3050   -3.4811    3.7559 H   0  0  0  0  0  0  0  0  0  0  0  0
    1.7588  -11.1455    6.6147 H   0  0  0  0  0  0  0  0  0  0  0  0
    3.1674   -0.4521    6.2799 H   0  0  0  0  0  0  0  0  0  0  0  0
  1  2  1  0
  1 44  1  0
  1 45  1  0
  1 46  1  0
  2 47  1  0
  2 48  1  0
  2  3  1  0
  3  4  1  0
  3 42  1  0
  4  5  1  0
  4 10  2  0
  5  6  2  0
  5 90  1  0
  6 49  1  0
  6  7  1  0
  7  8  2  0
  8 10  1  0
  8  9  1  0
  9 50  1  0
  9 43  1  0
 10 11  1  0
 11 12  1  0
 11 23  1  0
 11 51  1  1
 12 13  2  0
 12 14  1  0
 14 20  1  0
 14 15  1  0
 15 16  1  0
 15 52  1  0
 15 53  1  0
 16 21  1  0
 16 17  1  0
 16 54  1  6
 17 18  1  0
 17 55  1  0
 17 56  1  0
 18 19  1  0
 18 57  1  0
 18 58  1  0
 19 20  1  0
 19 21  1  0
 19 59  1  1
 20 60  1  0
 20 61  1  0
 21 22  1  0
 21 89  1  1
 22 62  1  0
 22 63  1  0
 22 64  1  0
 23 42  1  0
 23 24  1  0
 23 65  1  1
 24 35  1  0
 24 25  1  0
 24 66  1  1
 25 26  1  0
 25 67  1  0
 25 68  1  0
 26 36  1  0
 26 27  1  6
 26 28  1  0
 27 69  1  0
 28 29  1  0
 28 70  1  0
 28 71  1  0
 29 30  1  0
 29 72  1  0
 29 73  1  0
 30 31  1  0
 30 38  1  0
 30 74  1  6
 31 32  2  0
 31 33  1  0
 33 36  1  0
 33 34  1  1
 33 35  1  0
 34 75  1  0
 34 76  1  0
 34 77  1  0
 35 36  1  0
 35 78  1  1
 36 37  1  1
 37 79  1  0
 38 39  1  6
 38 40  1  0
 38 42  1  0
 39 80  1  0
 39 81  1  0
 39 82  1  0
 40 41  1  0
 40 83  1  0
 40 84  1  0
 41 85  1  0
 41 86  1  0
 41 87  1  0
 42 88  1  6
M  CHG  2   5   1  21   1
M  END
>  <i_m_ct_stereo_status>  (80) 
1

>  <s_m_source_file>  (80) 
/var/tmp/pbs.5102103.sched01/tmp13xrk0lu/22amefgkkz.sdf

>  <i_m_source_file_index>  (80) 
10

>  <i_lp_mmshare_version>  (80) 
48012

>  <i_f3d_flags>  (80) 
0

>  <s_epik_input>  (80) 
W09IXVtDQEBdMTJbQ0BdMyhbT0hdKVtDQEBdNChbQ0gzXSlbQ0BASF0zW0NAQEhdKFtDSDJdMSlbQ0BIXTVbQ0BASF0oW0NAXShbQ0gzXSkoW0NIMl1bQ0gzXSlbQ0BIXShDND1PKVtDSDJdW0NIMl0yKU4oW0NIMl1bQ0gzXSljNmMoYyg9TlxbSF0pXG5bY0hdW25IXTYpW0NASF01Qyg9TylOKFtDSDJdW0NASF03OClbQ0gyXVtDQEBIXShbQ0gyXVtDSDJdNylOOFtDSDNd

>  <s_epik_cmdline>  (80) 
J2VwaWtfcHl0aG9uJywgJy1waHQnLCAnMi4wJywgJy1waCcsICc3LjAnLCAnLXRuJywgJzgnLCAnLW1hJywgJzIwMCcsICctaW1hZScsICc8aW5maWxlLm1hZT4nLCAnLW9tYWUnLCAnPG91dGZpbGUubWFlPic=

>  <r_lp_tautomer_probability>  (80) 
0.999336

>  <r_epik_Ionization_Penalty>  (80) 
1.18239

>  <r_epik_Ionization_Penalty_Charging>  (80) 
1.18238

>  <r_epik_Ionization_Penalty_Neutral>  (80) 
9.66087e-06

>  <r_epik_State_Penalty>  (80) 
0.552173

>  <r_epik_Charging_Adjusted_Penalty>  (80) 
1.73455

>  <i_epik_Tot_Q>  (80) 
2

>  <i_epik_Tot_abs_Q>  (80) 
2

>  <s_lp_Force_Field>  (80) 
OPLS3e

>  <r_lp_Energy>  (80) 
133.72

>  <b_lp_Chiralities_Consistent>  (80) 
1

>  <s_lp_Variant>  (80) 
21:0-4

>  <s_i_glide_gridfile>  (80) 
pfpi4k_grid

>  <i_i_glide_lignum>  (80) 
10

>  <i_i_glide_rotatable_bonds>  (80) 
6

>  <r_i_docking_score>  (80) 
-3.1521

>  <r_i_glide_ligand_efficiency>  (80) 
-0.0750501

>  <r_i_glide_ligand_efficiency_sa>  (80) 
-0.260876

>  <r_i_glide_ligand_efficiency_ln>  (80) 
-0.665328

>  <r_i_glide_gscore>  (80) 
-3.1521

>  <r_i_glide_lipo>  (80) 
-0.310754

>  <r_i_glide_hbond>  (80) 
-0.305491

>  <r_i_glide_metal>  (80) 
-0

>  <r_i_glide_rewards>  (80) 
-0.00229824

>  <r_i_glide_evdw>  (80) 
-21.1437

>  <r_i_glide_ecoul>  (80) 
-9.24546

>  <r_i_glide_erotb>  (80) 
0.023844

>  <r_i_glide_esite>  (80) 
-0.1134

>  <r_i_glide_emodel>  (80) 
-37.056

>  <r_i_glide_energy>  (80) 
-30.3892

>  <r_i_glide_einternal>  (80) 
2.23915

>  <r_i_glide_intrahb_reward>  (80) 
-0

>  <i_i_glide_confnum>  (80) 
3

>  <i_i_glide_posenum>  (80) 
30

>  <r_i_glide_eff_state_penalty>  (80) 
0

>  <ligand_id>  (80) 
21

>  <original_smiles>  (80) 
CCN1c2[nH]cnc(=N)c2C(C(=O)N2CC3CCC(C2)N3C)C2C3CC4(O)CCC(C(=O)C5(C)C3C45O)C(C)(CC)C21

>  <smiles>  (80) 
[H]OC12C([H])([H])C([H])([H])C3([H])C(=O)C4(C([H])([H])[H])C([H])(C([H])(C1([H])[H])C1([H])C([H])(C(=O)N5C([H])([H])C6([H])C([H])([H])C([H])([H])C([H])(C5([H])[H])[N+]6([H])C([H])([H])[H])c5c(N([H])[H])nc([H])[n+]([H])c5N(C([H])([H])C([H])([H])[H])C1([H])C3(C([H])([H])[H])C([H])([H])C([H])([H])[H])C24O[H]

$$$$
21:3:2
     RDKit          3D

 90 97  0  0  1  0  0  0  0  0999 V2000
    8.5484   -8.8112    4.5553 C   0  0  0  0  0  0  0  0  0  0  0  0
    7.2148   -9.2367    3.9282 C   0  0  0  0  0  0  0  0  0  0  0  0
    6.3078   -8.1075    3.6598 N   0  0  0  0  0  0  0  0  0  0  0  0
    6.7259   -7.1327    2.7395 C   0  0  0  0  0  0  0  0  0  0  0  0
    7.7528   -7.4082    1.9034 N   0  0  0  0  0  0  0  0  0  0  0  0
    8.1484   -6.5466    0.9783 C   0  0  0  0  0  0  0  0  0  0  0  0
    7.5445   -5.3626    0.8120 N   0  0  0  0  0  0  0  0  0  0  0  0
    6.5255   -5.0086    1.6201 C   0  0  0  0  0  0  0  0  0  0  0  0
    6.0129   -3.7828    1.3206 N   0  0  0  0  0  0  0  0  0  0  0  0
    6.0414   -5.8735    2.6508 C   0  0  0  0  0  0  0  0  0  0  0  0
    4.9188   -5.4808    3.6480 C   0  0  1  0  0  0  0  0  0  0  0  0
    3.6870   -4.7894    2.9506 C   0  0  0  0  0  0  0  0  0  0  0  0
    2.8904   -5.4985    2.3349 O   0  0  0  0  0  0  0  0  0  0  0  0
    3.5125   -3.4336    2.9596 N   0  0  0  0  0  0  0  0  0  0  0  0
    2.3764   -2.8837    2.1765 C   0  0  0  0  0  0  0  0  0  0  0  0
    2.5712   -1.3953    1.7436 C   0  0  2  0  0  0  0  0  0  0  0  0
    3.8136   -1.1994    0.8620 C   0  0  0  0  0  0  0  0  0  0  0  0
    4.9673   -0.8357    1.8473 C   0  0  0  0  0  0  0  0  0  0  0  0
    4.3143   -0.9982    3.2283 C   0  0  2  0  0  0  0  0  0  0  0  0
    4.3157   -2.4802    3.7668 C   0  0  0  0  0  0  0  0  0  0  0  0
    2.9184   -0.5687    2.9360 N   0  0  2  0  0  0  0  0  0  0  0  0
    1.9490   -0.5697    4.0827 C   0  0  0  0  0  0  0  0  0  0  0  0
    4.5691   -6.6387    4.6323 C   0  0  1  0  0  0  0  0  0  0  0  0
    3.4647   -6.3652    5.7114 C   0  0  2  0  0  0  0  0  0  0  0  0
    3.2923   -7.3409    6.8978 C   0  0  0  0  0  0  0  0  0  0  0  0
    1.8048   -7.7775    6.9388 C   0  0  2  0  0  0  0  0  0  0  0  0
    1.3340   -7.6429    8.2758 O   0  0  0  0  0  0  0  0  0  0  0  0
    1.5192   -9.2349    6.5480 C   0  0  0  0  0  0  0  0  0  0  0  0
    2.4108   -9.7944    5.4402 C   0  0  0  0  0  0  0  0  0  0  0  0
    2.4724   -9.1000    4.0413 C   0  0  1  0  0  0  0  0  0  0  0  0
    1.3830   -8.0589    3.6921 C   0  0  0  0  0  0  0  0  0  0  0  0
    0.7107   -8.2563    2.6794 O   0  0  0  0  0  0  0  0  0  0  0  0
    1.0451   -6.8148    4.5005 C   0  0  2  0  0  0  0  0  0  0  0  0
   -0.0384   -5.9811    3.7949 C   0  0  0  0  0  0  0  0  0  0  0  0
    2.0647   -6.0032    5.2539 C   0  0  1  0  0  0  0  0  0  0  0  0
    1.0574   -6.8268    6.0089 C   0  0  2  0  0  0  0  0  0  0  0  0
    0.0495   -6.0395    6.5848 O   0  0  0  0  0  0  0  0  0  0  0  0
    3.9017   -9.0222    3.3401 C   0  0  1  0  0  0  0  0  0  0  0  0
    4.4010  -10.5059    3.3428 C   0  0  0  0  0  0  0  0  0  0  0  0
    3.7509   -8.6389    1.8254 C   0  0  0  0  0  0  0  0  0  0  0  0
    4.8753   -8.9873    0.8079 C   0  0  0  0  0  0  0  0  0  0  0  0
    4.9136   -8.0932    4.1527 C   0  0  1  0  0  0  0  0  0  0  0  0
    6.5431   -3.1764    0.6981 H   0  0  0  0  0  0  0  0  0  0  0  0
    9.1368   -9.6964    4.7878 H   0  0  0  0  0  0  0  0  0  0  0  0
    8.3762   -8.2507    5.4761 H   0  0  0  0  0  0  0  0  0  0  0  0
    9.1484   -8.1904    3.8883 H   0  0  0  0  0  0  0  0  0  0  0  0
    7.3851   -9.7892    3.0023 H   0  0  0  0  0  0  0  0  0  0  0  0
    6.7200   -9.9181    4.6103 H   0  0  0  0  0  0  0  0  0  0  0  0
    8.8918   -6.8370    0.2584 H   0  0  0  0  0  0  0  0  0  0  0  0
    5.3493   -3.3782    1.9664 H   0  0  0  0  0  0  0  0  0  0  0  0
    5.3972   -4.7562    4.2923 H   0  0  0  0  0  0  0  0  0  0  0  0
    2.2092   -3.4557    1.2677 H   0  0  0  0  0  0  0  0  0  0  0  0
    1.4774   -3.0144    2.7641 H   0  0  0  0  0  0  0  0  0  0  0  0
    1.6590   -1.0167    1.2774 H   0  0  0  0  0  0  0  0  0  0  0  0
    4.0012   -2.0909    0.2552 H   0  0  0  0  0  0  0  0  0  0  0  0
    3.6594   -0.3749    0.1663 H   0  0  0  0  0  0  0  0  0  0  0  0
    5.8984   -1.4175    1.7573 H   0  0  0  0  0  0  0  0  0  0  0  0
    5.2400    0.2122    1.6731 H   0  0  0  0  0  0  0  0  0  0  0  0
    4.7847   -0.3431    3.9579 H   0  0  0  0  0  0  0  0  0  0  0  0
    3.9116   -2.5359    4.7666 H   0  0  0  0  0  0  0  0  0  0  0  0
    5.3530   -2.7650    3.8654 H   0  0  0  0  0  0  0  0  0  0  0  0
    1.8087   -1.5551    4.5217 H   0  0  0  0  0  0  0  0  0  0  0  0
    0.9996   -0.2016    3.7198 H   0  0  0  0  0  0  0  0  0  0  0  0
    2.3343    0.0971    4.8391 H   0  0  0  0  0  0  0  0  0  0  0  0
    5.4163   -6.5272    5.3155 H   0  0  0  0  0  0  0  0  0  0  0  0
    3.8092   -5.4284    6.1789 H   0  0  0  0  0  0  0  0  0  0  0  0
    3.9991   -8.1598    6.9122 H   0  0  0  0  0  0  0  0  0  0  0  0
    3.5096   -6.7685    7.7973 H   0  0  0  0  0  0  0  0  0  0  0  0
    1.7522   -8.3131    8.8019 H   0  0  0  0  0  0  0  0  0  0  0  0
    1.6845   -9.8621    7.4156 H   0  0  0  0  0  0  0  0  0  0  0  0
    0.4616   -9.3623    6.2907 H   0  0  0  0  0  0  0  0  0  0  0  0
    3.4112   -9.9118    5.8515 H   0  0  0  0  0  0  0  0  0  0  0  0
    2.0921  -10.8282    5.2897 H   0  0  0  0  0  0  0  0  0  0  0  0
    2.0241   -9.9040    3.4568 H   0  0  0  0  0  0  0  0  0  0  0  0
   -0.1921   -5.0286    4.2973 H   0  0  0  0  0  0  0  0  0  0  0  0
   -0.9976   -6.5098    3.7599 H   0  0  0  0  0  0  0  0  0  0  0  0
    0.2707   -5.7384    2.7779 H   0  0  0  0  0  0  0  0  0  0  0  0
    1.8917   -4.9404    5.2503 H   0  0  0  0  0  0  0  0  0  0  0  0
   -0.5360   -6.6320    7.0273 H   0  0  0  0  0  0  0  0  0  0  0  0
    5.3136  -10.6626    2.7788 H   0  0  0  0  0  0  0  0  0  0  0  0
    3.6748  -11.1750    2.8834 H   0  0  0  0  0  0  0  0  0  0  0  0
    4.5903  -10.9062    4.3349 H   0  0  0  0  0  0  0  0  0  0  0  0
    2.8454   -9.1109    1.4520 H   0  0  0  0  0  0  0  0  0  0  0  0
    3.5754   -7.5766    1.7616 H   0  0  0  0  0  0  0  0  0  0  0  0
    4.6816   -8.4358   -0.1177 H   0  0  0  0  0  0  0  0  0  0  0  0
    4.9385  -10.0606    0.5901 H   0  0  0  0  0  0  0  0  0  0  0  0
    5.8885   -8.7006    1.1288 H   0  0  0  0  0  0  0  0  0  0  0  0
    5.0249   -8.6192    5.0841 H   0  0  0  0  0  0  0  0  0  0  0  0
    2.9916    0.3794    2.5955 H   0  0  0  0  0  0  0  0  0  0  0  0
    8.2576   -8.3069    1.9538 H   0  0  0  0  0  0  0  0  0  0  0  0
  1  2  1  0
  1 44  1  0
  1 45  1  0
  1 46  1  0
  2 47  1  0
  2 48  1  0
  2  3  1  0
  3  4  1  0
  3 42  1  0
  4  5  1  0
  4 10  2  0
  5  6  2  0
  5 90  1  0
  6 49  1  0
  6  7  1  0
  7  8  2  0
  8 10  1  0
  8  9  1  0
  9 50  1  0
  9 43  1  0
 10 11  1  0
 11 12  1  0
 11 23  1  0
 11 51  1  1
 12 13  2  0
 12 14  1  0
 14 20  1  0
 14 15  1  0
 15 16  1  0
 15 52  1  0
 15 53  1  0
 16 21  1  0
 16 17  1  0
 16 54  1  6
 17 18  1  0
 17 55  1  0
 17 56  1  0
 18 19  1  0
 18 57  1  0
 18 58  1  0
 19 20  1  0
 19 21  1  0
 19 59  1  1
 20 60  1  0
 20 61  1  0
 21 22  1  0
 21 89  1  6
 22 62  1  0
 22 63  1  0
 22 64  1  0
 23 42  1  0
 23 24  1  0
 23 65  1  1
 24 35  1  0
 24 25  1  0
 24 66  1  1
 25 26  1  0
 25 67  1  0
 25 68  1  0
 26 36  1  0
 26 27  1  1
 26 28  1  0
 27 69  1  0
 28 29  1  0
 28 70  1  0
 28 71  1  0
 29 30  1  0
 29 72  1  0
 29 73  1  0
 30 31  1  0
 30 38  1  0
 30 74  1  6
 31 32  2  0
 31 33  1  0
 33 36  1  0
 33 34  1  1
 33 35  1  0
 34 75  1  0
 34 76  1  0
 34 77  1  0
 35 36  1  0
 35 78  1  1
 36 37  1  1
 37 79  1  0
 38 39  1  6
 38 40  1  0
 38 42  1  0
 39 80  1  0
 39 81  1  0
 39 82  1  0
 40 41  1  0
 40 83  1  0
 40 84  1  0
 41 85  1  0
 41 86  1  0
 41 87  1  0
 42 88  1  1
M  CHG  2   5   1  21   1
M  END
>  <i_m_ct_stereo_status>  (81) 
1

>  <s_m_source_file>  (81) 
/var/tmp/pbs.5102103.sched01/tmp13xrk0lu/22amefgkkz.sdf

>  <i_m_source_file_index>  (81) 
10

>  <i_lp_mmshare_version>  (81) 
48012

>  <i_f3d_flags>  (81) 
0

>  <s_epik_input>  (81) 
W09IXVtDQEBdMTJbQ0BdMyhbT0hdKVtDQEBdNChbQ0gzXSlbQ0BASF0zW0NAQEhdKFtDSDJdMSlbQ0BIXTVbQ0BASF0oW0NAXShbQ0gzXSkoW0NIMl1bQ0gzXSlbQ0BIXShDND1PKVtDSDJdW0NIMl0yKU4oW0NIMl1bQ0gzXSljNmMoYyg9TlxbSF0pXG5bY0hdW25IXTYpW0NASF01Qyg9TylOKFtDSDJdW0NASF03OClbQ0gyXVtDQEBIXShbQ0gyXVtDSDJdNylOOFtDSDNd

>  <s_epik_cmdline>  (81) 
J2VwaWtfcHl0aG9uJywgJy1waHQnLCAnMi4wJywgJy1waCcsICc3LjAnLCAnLXRuJywgJzgnLCAnLW1hJywgJzIwMCcsICctaW1hZScsICc8aW5maWxlLm1hZT4nLCAnLW9tYWUnLCAnPG91dGZpbGUubWFlPic=

>  <r_lp_tautomer_probability>  (81) 
0.999336

>  <r_epik_Ionization_Penalty>  (81) 
1.18239

>  <r_epik_Ionization_Penalty_Charging>  (81) 
1.18238

>  <r_epik_Ionization_Penalty_Neutral>  (81) 
9.66087e-06

>  <r_epik_State_Penalty>  (81) 
0.552173

>  <r_epik_Charging_Adjusted_Penalty>  (81) 
1.73455

>  <i_epik_Tot_Q>  (81) 
2

>  <i_epik_Tot_abs_Q>  (81) 
2

>  <s_lp_Force_Field>  (81) 
OPLS3e

>  <r_lp_Energy>  (81) 
133.72

>  <b_lp_Chiralities_Consistent>  (81) 
1

>  <s_lp_Variant>  (81) 
21:0-4

>  <s_i_glide_gridfile>  (81) 
pfpi4k_grid

>  <i_i_glide_lignum>  (81) 
10

>  <i_i_glide_rotatable_bonds>  (81) 
6

>  <r_i_docking_score>  (81) 
-2.40957

>  <r_i_glide_ligand_efficiency>  (81) 
-0.0573706

>  <r_i_glide_ligand_efficiency_sa>  (81) 
-0.199422

>  <r_i_glide_ligand_efficiency_ln>  (81) 
-0.508598

>  <r_i_glide_gscore>  (81) 
-2.40957

>  <r_i_glide_lipo>  (81) 
-0.294688

>  <r_i_glide_hbond>  (81) 
0

>  <r_i_glide_metal>  (81) 
-0

>  <r_i_glide_rewards>  (81) 
-0.0045852

>  <r_i_glide_evdw>  (81) 
-26.0679

>  <r_i_glide_ecoul>  (81) 
-4.87265

>  <r_i_glide_erotb>  (81) 
0.023844

>  <r_i_glide_esite>  (81) 
-0.0998455

>  <r_i_glide_emodel>  (81) 
-35.4265

>  <r_i_glide_energy>  (81) 
-30.9406

>  <r_i_glide_einternal>  (81) 
3.14939

>  <r_i_glide_intrahb_reward>  (81) 
-0

>  <i_i_glide_confnum>  (81) 
3

>  <i_i_glide_posenum>  (81) 
11

>  <r_i_glide_eff_state_penalty>  (81) 
0

>  <ligand_id>  (81) 
21

>  <original_smiles>  (81) 
CCN1c2[nH]cnc(=N)c2C(C(=O)N2CC3CCC(C2)N3C)C2C3CC4(O)CCC(C(=O)C5(C)C3C45O)C(C)(CC)C21

>  <smiles>  (81) 
[H]OC12C([H])([H])C([H])([H])C3([H])C(=O)C4(C([H])([H])[H])C([H])(C([H])(C1([H])[H])C1([H])C([H])(C(=O)N5C([H])([H])C6([H])C([H])([H])C([H])([H])C([H])(C5([H])[H])[N+]6([H])C([H])([H])[H])c5c(N([H])[H])nc([H])[n+]([H])c5N(C([H])([H])C([H])([H])[H])C1([H])C3(C([H])([H])[H])C([H])([H])C([H])([H])[H])C24O[H]

$$$$
21:4:0
     RDKit          3D

 88 95  0  0  1  0  0  0  0  0999 V2000
    1.1116   -0.4393    8.9627 C   0  0  0  0  0  0  0  0  0  0  0  0
    1.0018   -0.8119    7.4715 C   0  0  0  0  0  0  0  0  0  0  0  0
    1.7012   -2.0316    7.1144 N   0  0  0  0  0  0  0  0  0  0  0  0
    1.0616   -3.2825    7.3866 C   0  0  0  0  0  0  0  0  0  0  0  0
   -0.1491   -3.3004    7.9802 N   0  0  0  0  0  0  0  0  0  0  0  0
   -0.6787   -4.4938    8.2864 C   0  0  0  0  0  0  0  0  0  0  0  0
   -0.1194   -5.6957    8.1217 N   0  0  0  0  0  0  0  0  0  0  0  0
    1.1326   -5.6745    7.5407 C   0  0  0  0  0  0  0  0  0  0  0  0
    1.6798   -6.9811    7.3637 N   0  0  0  0  0  0  0  0  0  0  0  0
    1.6817   -4.5379    7.0137 C   0  0  0  0  0  0  0  0  0  0  0  0
    2.9018   -4.4973    6.0348 C   0  0  1  0  0  0  0  0  0  0  0  0
    3.0118   -5.5907    4.9268 C   0  0  0  0  0  0  0  0  0  0  0  0
    4.1524   -5.9243    4.6032 O   0  0  0  0  0  0  0  0  0  0  0  0
    1.8983   -6.0997    4.3201 N   0  0  0  0  0  0  0  0  0  0  0  0
    0.5032   -5.6966    4.5681 C   0  0  0  0  0  0  0  0  0  0  0  0
   -0.5297   -6.7777    4.3396 C   0  0  2  0  0  0  0  0  0  0  0  0
   -0.2636   -8.1201    5.0772 C   0  0  0  0  0  0  0  0  0  0  0  0
    0.6692   -8.8582    4.1305 C   0  0  0  0  0  0  0  0  0  0  0  0
    0.8264   -7.8958    2.9314 C   0  0  2  0  0  0  0  0  0  0  0  0
    2.0344   -6.9582    3.1091 C   0  0  0  0  0  0  0  0  0  0  0  0
   -0.3793   -7.0585    2.9090 N   0  0  0  0  0  0  0  0  0  0  0  0
   -1.5602   -7.7322    2.4101 C   0  0  0  0  0  0  0  0  0  0  0  0
    3.1717   -3.0708    5.4696 C   0  0  1  0  0  0  0  0  0  0  0  0
    2.3138   -2.6598    4.1900 C   0  0  2  0  0  0  0  0  0  0  0  0
    3.0418   -2.7180    2.8350 C   0  0  0  0  0  0  0  0  0  0  0  0
    3.0211   -1.2810    2.2927 C   0  0  2  0  0  0  0  0  0  0  0  0
    2.9608   -1.3084    0.8711 O   0  0  0  0  0  0  0  0  0  0  0  0
    4.3308   -0.5040    2.5742 C   0  0  0  0  0  0  0  0  0  0  0  0
    4.9496   -0.6467    3.9754 C   0  0  0  0  0  0  0  0  0  0  0  0
    4.1685   -0.0890    5.2045 C   0  0  1  0  0  0  0  0  0  0  0  0
    2.8908    0.6977    4.8578 C   0  0  0  0  0  0  0  0  0  0  0  0
    2.9027    1.9048    5.0885 O   0  0  0  0  0  0  0  0  0  0  0  0
    1.6365    0.0699    4.2427 C   0  0  2  0  0  0  0  0  0  0  0  0
    0.4005    0.9556    4.4610 C   0  0  0  0  0  0  0  0  0  0  0  0
    1.3940   -1.4322    4.1646 C   0  0  1  0  0  0  0  0  0  0  0  0
    1.7793   -0.6458    2.9100 C   0  0  2  0  0  0  0  0  0  0  0  0
    0.6730   -0.4540    2.0265 O   0  0  0  0  0  0  0  0  0  0  0  0
    4.1647   -0.8834    6.5721 C   0  0  1  0  0  0  0  0  0  0  0  0
    5.5855   -1.5174    6.7785 C   0  0  0  0  0  0  0  0  0  0  0  0
    4.0516    0.1029    7.7854 C   0  0  0  0  0  0  0  0  0  0  0  0
    5.1400    1.1759    8.0002 C   0  0  0  0  0  0  0  0  0  0  0  0
    3.1172   -2.1101    6.6650 C   0  0  1  0  0  0  0  0  0  0  0  0
    1.0588   -7.7388    7.4441 H   0  0  0  0  0  0  0  0  0  0  0  0
    0.7790    0.5856    9.1202 H   0  0  0  0  0  0  0  0  0  0  0  0
    2.1153   -0.5087    9.3613 H   0  0  0  0  0  0  0  0  0  0  0  0
    0.5118   -1.1004    9.5825 H   0  0  0  0  0  0  0  0  0  0  0  0
   -0.0471   -0.8817    7.1925 H   0  0  0  0  0  0  0  0  0  0  0  0
    1.3911   -0.0040    6.8572 H   0  0  0  0  0  0  0  0  0  0  0  0
   -1.6314   -4.4925    8.8130 H   0  0  0  0  0  0  0  0  0  0  0  0
    2.3267   -7.0812    6.5981 H   0  0  0  0  0  0  0  0  0  0  0  0
    3.7170   -4.7432    6.7255 H   0  0  0  0  0  0  0  0  0  0  0  0
    0.2337   -5.4711    5.5371 H   0  0  0  0  0  0  0  0  0  0  0  0
    0.2252   -4.7871    4.0548 H   0  0  0  0  0  0  0  0  0  0  0  0
   -1.4968   -6.3632    4.6235 H   0  0  0  0  0  0  0  0  0  0  0  0
    0.1270   -8.0337    6.0582 H   0  0  0  0  0  0  0  0  0  0  0  0
   -1.2004   -8.6535    5.2319 H   0  0  0  0  0  0  0  0  0  0  0  0
    1.6235   -9.1149    4.5918 H   0  0  0  0  0  0  0  0  0  0  0  0
    0.1845   -9.7857    3.8247 H   0  0  0  0  0  0  0  0  0  0  0  0
    0.9225   -8.4339    2.0023 H   0  0  0  0  0  0  0  0  0  0  0  0
    2.0965   -6.2820    2.2549 H   0  0  0  0  0  0  0  0  0  0  0  0
    2.9505   -7.5602    3.1347 H   0  0  0  0  0  0  0  0  0  0  0  0
   -1.3836   -7.9570    1.3667 H   0  0  0  0  0  0  0  0  0  0  0  0
   -2.4157   -7.0646    2.4809 H   0  0  0  0  0  0  0  0  0  0  0  0
   -1.7876   -8.6490    2.9423 H   0  0  0  0  0  0  0  0  0  0  0  0
    4.1870   -3.1315    5.1101 H   0  0  0  0  0  0  0  0  0  0  0  0
    1.5943   -3.4325    4.1087 H   0  0  0  0  0  0  0  0  0  0  0  0
    4.0356   -3.1323    2.8974 H   0  0  0  0  0  0  0  0  0  0  0  0
    2.4842   -3.3811    2.1667 H   0  0  0  0  0  0  0  0  0  0  0  0
    2.0851   -1.1337    0.5628 H   0  0  0  0  0  0  0  0  0  0  0  0
    5.0892   -0.8598    1.8768 H   0  0  0  0  0  0  0  0  0  0  0  0
    4.1926    0.5453    2.3187 H   0  0  0  0  0  0  0  0  0  0  0  0
    5.2741   -1.6709    4.1129 H   0  0  0  0  0  0  0  0  0  0  0  0
    5.9019   -0.1123    3.9290 H   0  0  0  0  0  0  0  0  0  0  0  0
    4.8436    0.7255    5.4506 H   0  0  0  0  0  0  0  0  0  0  0  0
   -0.5244    0.4422    4.1622 H   0  0  0  0  0  0  0  0  0  0  0  0
    0.4629    1.8655    3.8607 H   0  0  0  0  0  0  0  0  0  0  0  0
    0.2752    1.2409    5.5042 H   0  0  0  0  0  0  0  0  0  0  0  0
    0.3449   -1.7007    4.3453 H   0  0  0  0  0  0  0  0  0  0  0  0
    0.9386   -0.5362    1.1196 H   0  0  0  0  0  0  0  0  0  0  0  0
    5.7293   -1.8775    7.7994 H   0  0  0  0  0  0  0  0  0  0  0  0
    6.3825   -0.8033    6.5838 H   0  0  0  0  0  0  0  0  0  0  0  0
    5.8099   -2.3708    6.1466 H   0  0  0  0  0  0  0  0  0  0  0  0
    3.1312    0.6752    7.7427 H   0  0  0  0  0  0  0  0  0  0  0  0
    4.0412   -0.4814    8.7068 H   0  0  0  0  0  0  0  0  0  0  0  0
    4.8899    1.7977    8.8640 H   0  0  0  0  0  0  0  0  0  0  0  0
    5.2272    1.8558    7.1542 H   0  0  0  0  0  0  0  0  0  0  0  0
    6.1201    0.7499    8.2084 H   0  0  0  0  0  0  0  0  0  0  0  0
    3.5341   -2.6536    7.5129 H   0  0  0  0  0  0  0  0  0  0  0  0
  1  2  1  0
  1 44  1  0
  1 45  1  0
  1 46  1  0
  2 47  1  0
  2 48  1  0
  2  3  1  0
  3  4  1  0
  3 42  1  0
  4  5  1  0
  4 10  2  0
  5  6  2  0
  6 49  1  0
  6  7  1  0
  7  8  2  0
  8 10  1  0
  8  9  1  0
  9 50  1  0
  9 43  1  0
 10 11  1  0
 11 12  1  0
 11 23  1  0
 11 51  1  1
 12 13  2  0
 12 14  1  0
 14 20  1  0
 14 15  1  0
 15 16  1  0
 15 52  1  0
 15 53  1  0
 16 21  1  0
 16 17  1  0
 16 54  1  6
 17 18  1  0
 17 55  1  0
 17 56  1  0
 18 19  1  0
 18 57  1  0
 18 58  1  0
 19 20  1  0
 19 21  1  0
 19 59  1  6
 20 60  1  0
 20 61  1  0
 21 22  1  0
 22 62  1  0
 22 63  1  0
 22 64  1  0
 23 42  1  0
 23 24  1  0
 23 65  1  6
 24 35  1  0
 24 25  1  0
 24 66  1  6
 25 26  1  0
 25 67  1  0
 25 68  1  0
 26 36  1  0
 26 27  1  6
 26 28  1  0
 27 69  1  0
 28 29  1  0
 28 70  1  0
 28 71  1  0
 29 30  1  0
 29 72  1  0
 29 73  1  0
 30 31  1  0
 30 38  1  0
 30 74  1  1
 31 32  2  0
 31 33  1  0
 33 36  1  0
 33 34  1  6
 33 35  1  0
 34 75  1  0
 34 76  1  0
 34 77  1  0
 35 36  1  0
 35 78  1  6
 36 37  1  6
 37 79  1  0
 38 39  1  1
 38 40  1  0
 38 42  1  0
 39 80  1  0
 39 81  1  0
 39 82  1  0
 40 41  1  0
 40 83  1  0
 40 84  1  0
 41 85  1  0
 41 86  1  0
 41 87  1  0
 42 88  1  1
M  END
>  <i_m_ct_stereo_status>  (82) 
1

>  <s_m_source_file>  (82) 
/var/tmp/pbs.5102103.sched01/tmp13xrk0lu/22amefgkkz.sdf

>  <i_m_source_file_index>  (82) 
11

>  <i_lp_mmshare_version>  (82) 
48012

>  <i_f3d_flags>  (82) 
0

>  <s_epik_input>  (82) 
W09IXVtDQEBdMTJbQ0BdMyhbT0hdKVtDQEBdNChbQ0gzXSlbQ0BASF0zW0NAQEhdKFtDSDJdMSlbQ0BIXTVbQ0BASF0oW0NAXShbQ0gzXSkoW0NIMl1bQ0gzXSlbQ0BIXShDND1PKVtDSDJdW0NIMl0yKU4oW0NIMl1bQ0gzXSljNmMoYyg9TlxbSF0pXG5bY0hdW25IXTYpW0NASF01Qyg9TylOKFtDSDJdW0NASF03OClbQ0gyXVtDQEBIXShbQ0gyXVtDSDJdNylOOFtDSDNd

>  <s_epik_cmdline>  (82) 
J2VwaWtfcHl0aG9uJywgJy1waHQnLCAnMi4wJywgJy1waCcsICc3LjAnLCAnLXRuJywgJzgnLCAnLW1hJywgJzIwMCcsICctaW1hZScsICc8aW5maWxlLm1hZT4nLCAnLW9tYWUnLCAnPG91dGZpbGUubWFlPic=

>  <r_lp_tautomer_probability>  (82) 
1

>  <r_epik_Ionization_Penalty>  (82) 
1.42061

>  <r_epik_Ionization_Penalty_Charging>  (82) 
0

>  <r_epik_Ionization_Penalty_Neutral>  (82) 
1.42061

>  <r_epik_State_Penalty>  (82) 
1.53075

>  <r_epik_Charging_Adjusted_Penalty>  (82) 
1.53075

>  <i_epik_Tot_Q>  (82) 
0

>  <i_epik_Tot_abs_Q>  (82) 
0

>  <s_lp_Force_Field>  (82) 
OPLS3e

>  <r_lp_Energy>  (82) 
129.98

>  <b_lp_Chiralities_Consistent>  (82) 
1

>  <s_lp_Variant>  (82) 
21:0-5

>  <s_i_glide_gridfile>  (82) 
pfpi4k_grid

>  <i_i_glide_lignum>  (82) 
11

>  <i_i_glide_rotatable_bonds>  (82) 
6

>  <r_i_docking_score>  (82) 
-2.34885

>  <r_i_glide_ligand_efficiency>  (82) 
-0.055925

>  <r_i_glide_ligand_efficiency_sa>  (82) 
-0.194397

>  <r_i_glide_ligand_efficiency_ln>  (82) 
-0.495782

>  <r_i_glide_gscore>  (82) 
-2.34885

>  <r_i_glide_lipo>  (82) 
-0.167754

>  <r_i_glide_hbond>  (82) 
-0.0796914

>  <r_i_glide_metal>  (82) 
-0

>  <r_i_glide_rewards>  (82) 
0

>  <r_i_glide_evdw>  (82) 
-23.2202

>  <r_i_glide_ecoul>  (82) 
-8.03996

>  <r_i_glide_erotb>  (82) 
0.0265127

>  <r_i_glide_esite>  (82) 
-0.0197673

>  <r_i_glide_emodel>  (82) 
-29.224

>  <r_i_glide_energy>  (82) 
-31.2602

>  <r_i_glide_einternal>  (82) 
6.31319

>  <r_i_glide_intrahb_reward>  (82) 
-0

>  <i_i_glide_confnum>  (82) 
5

>  <i_i_glide_posenum>  (82) 
4

>  <r_i_glide_eff_state_penalty>  (82) 
0

>  <ligand_id>  (82) 
21

>  <original_smiles>  (82) 
CCN1c2[nH]cnc(=N)c2C(C(=O)N2CC3CCC(C2)N3C)C2C3CC4(O)CCC(C(=O)C5(C)C3C45O)C(C)(CC)C21

>  <smiles>  (82) 
[H]OC12C([H])([H])C([H])([H])C3([H])C(=O)C4(C([H])([H])[H])C([H])(C([H])(C1([H])[H])C1([H])C([H])(C(=O)N5C([H])([H])C6([H])N(C([H])([H])[H])C([H])(C5([H])[H])C([H])([H])C6([H])[H])c5c(N([H])[H])nc([H])nc5N(C([H])([H])C([H])([H])[H])C1([H])C3(C([H])([H])[H])C([H])([H])C([H])([H])[H])C24O[H]

$$$$
21:4:1
     RDKit          3D

 88 95  0  0  1  0  0  0  0  0999 V2000
    1.9577   -1.1862    8.6413 C   0  0  0  0  0  0  0  0  0  0  0  0
    1.6947   -1.6089    7.1798 C   0  0  0  0  0  0  0  0  0  0  0  0
    2.2660   -2.8996    6.8370 N   0  0  0  0  0  0  0  0  0  0  0  0
    1.5376   -4.0756    7.1987 C   0  0  0  0  0  0  0  0  0  0  0  0
    0.3698   -3.9373    7.8605 N   0  0  0  0  0  0  0  0  0  0  0  0
   -0.2425   -5.0585    8.2385 C   0  0  0  0  0  0  0  0  0  0  0  0
    0.1869   -6.3078    8.1150 N   0  0  0  0  0  0  0  0  0  0  0  0
    1.3478   -6.4703    7.3972 C   0  0  0  0  0  0  0  0  0  0  0  0
    1.7677   -7.8060    7.2794 N   0  0  0  0  0  0  0  0  0  0  0  0
    1.9793   -5.3865    6.8001 C   0  0  0  0  0  0  0  0  0  0  0  0
    3.1253   -5.5070    5.7589 C   0  0  1  0  0  0  0  0  0  0  0  0
    3.0099   -6.6321    4.6911 C   0  0  0  0  0  0  0  0  0  0  0  0
    4.0977   -7.1228    4.3638 O   0  0  0  0  0  0  0  0  0  0  0  0
    1.8185   -7.0154    4.1487 N   0  0  0  0  0  0  0  0  0  0  0  0
    0.4907   -6.3770    4.4050 C   0  0  0  0  0  0  0  0  0  0  0  0
   -0.6677   -7.3407    4.2160 C   0  0  2  0  0  0  0  0  0  0  0  0
   -0.5875   -8.6385    5.0754 C   0  0  0  0  0  0  0  0  0  0  0  0
    0.2159   -9.5731    4.1707 C   0  0  0  0  0  0  0  0  0  0  0  0
    0.4978   -8.7503    2.8881 C   0  0  2  0  0  0  0  0  0  0  0  0
    1.8308   -7.9809    3.0025 C   0  0  0  0  0  0  0  0  0  0  0  0
   -0.5742   -7.7488    2.8042 N   0  0  0  0  0  0  0  0  0  0  0  0
   -1.8523   -8.2743    2.3682 C   0  0  0  0  0  0  0  0  0  0  0  0
    3.5063   -4.1359    5.1307 C   0  0  1  0  0  0  0  0  0  0  0  0
    2.6178   -3.6840    3.8932 C   0  0  2  0  0  0  0  0  0  0  0  0
    3.2384   -3.8614    2.4931 C   0  0  0  0  0  0  0  0  0  0  0  0
    3.3090   -2.4499    1.8857 C   0  0  2  0  0  0  0  0  0  0  0  0
    3.0887   -2.5559    0.4920 O   0  0  0  0  0  0  0  0  0  0  0  0
    4.6925   -1.8027    2.0464 C   0  0  0  0  0  0  0  0  0  0  0  0
    5.3592   -1.9710    3.4158 C   0  0  0  0  0  0  0  0  0  0  0  0
    4.7501   -1.2894    4.6731 C   0  0  1  0  0  0  0  0  0  0  0  0
    3.5503   -0.3805    4.3882 C   0  0  0  0  0  0  0  0  0  0  0  0
    3.6801    0.8304    4.5592 O   0  0  0  0  0  0  0  0  0  0  0  0
    2.2161   -0.8919    3.8755 C   0  0  2  0  0  0  0  0  0  0  0  0
    1.0838    0.1158    4.1368 C   0  0  0  0  0  0  0  0  0  0  0  0
    1.8409   -2.3618    3.8687 C   0  0  1  0  0  0  0  0  0  0  0  0
    2.2075   -1.6498    2.5631 C   0  0  2  0  0  0  0  0  0  0  0  0
    1.0745   -1.3599    1.7424 O   0  0  0  0  0  0  0  0  0  0  0  0
    4.7700   -2.0285    6.0710 C   0  0  1  0  0  0  0  0  0  0  0  0
    6.1169   -2.8121    6.2316 C   0  0  0  0  0  0  0  0  0  0  0  0
    4.8494   -0.9965    7.2369 C   0  0  0  0  0  0  0  0  0  0  0  0
    6.0382   -0.0195    7.3225 C   0  0  0  0  0  0  0  0  0  0  0  0
    3.6245   -3.1367    6.2922 C   0  0  1  0  0  0  0  0  0  0  0  0
    1.0711   -8.5125    7.4241 H   0  0  0  0  0  0  0  0  0  0  0  0
    1.7499   -0.1188    8.7654 H   0  0  0  0  0  0  0  0  0  0  0  0
    2.9807   -1.3471    8.9671 H   0  0  0  0  0  0  0  0  0  0  0  0
    1.3499   -1.7652    9.3369 H   0  0  0  0  0  0  0  0  0  0  0  0
    0.6214   -1.5881    6.9830 H   0  0  0  0  0  0  0  0  0  0  0  0
    2.1138   -0.8624    6.5084 H   0  0  0  0  0  0  0  0  0  0  0  0
   -1.1654   -4.9488    8.8153 H   0  0  0  0  0  0  0  0  0  0  0  0
    2.3346   -8.0151    6.4839 H   0  0  0  0  0  0  0  0  0  0  0  0
    3.9720   -5.8104    6.3942 H   0  0  0  0  0  0  0  0  0  0  0  0
    0.3364   -6.0099    5.3806 H   0  0  0  0  0  0  0  0  0  0  0  0
    0.3052   -5.5657    3.6969 H   0  0  0  0  0  0  0  0  0  0  0  0
   -1.5639   -6.7615    4.4606 H   0  0  0  0  0  0  0  0  0  0  0  0
   -0.1519   -8.4878    6.0493 H   0  0  0  0  0  0  0  0  0  0  0  0
   -1.6049   -9.0202    5.2352 H   0  0  0  0  0  0  0  0  0  0  0  0
    1.1306   -9.9243    4.6556 H   0  0  0  0  0  0  0  0  0  0  0  0
   -0.3881  -10.4476    3.9258 H   0  0  0  0  0  0  0  0  0  0  0  0
    0.5014   -9.3795    2.0061 H   0  0  0  0  0  0  0  0  0  0  0  0
    2.0027   -7.4101    2.0821 H   0  0  0  0  0  0  0  0  0  0  0  0
    2.6587   -8.7131    3.0621 H   0  0  0  0  0  0  0  0  0  0  0  0
   -1.7212   -8.6017    1.3453 H   0  0  0  0  0  0  0  0  0  0  0  0
   -2.5899   -7.4716    2.4140 H   0  0  0  0  0  0  0  0  0  0  0  0
   -2.1913   -9.1008    2.9868 H   0  0  0  0  0  0  0  0  0  0  0  0
    4.4814   -4.3388    4.7086 H   0  0  0  0  0  0  0  0  0  0  0  0
    1.8230   -4.3644    3.9057 H   0  0  0  0  0  0  0  0  0  0  0  0
    4.1864   -4.3924    2.4929 H   0  0  0  0  0  0  0  0  0  0  0  0
    2.5473   -4.4720    1.9086 H   0  0  0  0  0  0  0  0  0  0  0  0
    3.7352   -3.1325    0.1265 H   0  0  0  0  0  0  0  0  0  0  0  0
    5.3674   -2.2623    1.3257 H   0  0  0  0  0  0  0  0  0  0  0  0
    4.6441   -0.7500    1.7691 H   0  0  0  0  0  0  0  0  0  0  0  0
    5.6230   -3.0093    3.5761 H   0  0  0  0  0  0  0  0  0  0  0  0
    6.3066   -1.4856    3.2480 H   0  0  0  0  0  0  0  0  0  0  0  0
    5.5115   -0.5394    4.8302 H   0  0  0  0  0  0  0  0  0  0  0  0
    0.0933   -0.3181    3.9235 H   0  0  0  0  0  0  0  0  0  0  0  0
    1.1910    0.9934    3.4939 H   0  0  0  0  0  0  0  0  0  0  0  0
    1.0612    0.4483    5.1733 H   0  0  0  0  0  0  0  0  0  0  0  0
    0.7874   -2.5242    4.1061 H   0  0  0  0  0  0  0  0  0  0  0  0
    1.3590   -1.1603    0.8448 H   0  0  0  0  0  0  0  0  0  0  0  0
    6.2749   -3.1588    7.2516 H   0  0  0  0  0  0  0  0  0  0  0  0
    6.9762   -2.1752    6.0897 H   0  0  0  0  0  0  0  0  0  0  0  0
    6.2287   -3.6885    5.5942 H   0  0  0  0  0  0  0  0  0  0  0  0
    3.9819   -0.3477    7.2367 H   0  0  0  0  0  0  0  0  0  0  0  0
    4.8755   -1.5523    8.1746 H   0  0  0  0  0  0  0  0  0  0  0  0
    5.9074    0.6449    8.1788 H   0  0  0  0  0  0  0  0  0  0  0  0
    6.1128    0.6271    6.4502 H   0  0  0  0  0  0  0  0  0  0  0  0
    6.9926   -0.5229    7.4731 H   0  0  0  0  0  0  0  0  0  0  0  0
    4.0476   -3.7041    7.1192 H   0  0  0  0  0  0  0  0  0  0  0  0
  1  2  1  0
  1 44  1  0
  1 45  1  0
  1 46  1  0
  2 47  1  0
  2 48  1  0
  2  3  1  0
  3  4  1  0
  3 42  1  0
  4  5  1  0
  4 10  2  0
  5  6  2  0
  6 49  1  0
  6  7  1  0
  7  8  2  0
  8 10  1  0
  8  9  1  0
  9 50  1  0
  9 43  1  0
 10 11  1  0
 11 12  1  0
 11 23  1  0
 11 51  1  1
 12 13  2  0
 12 14  1  0
 14 20  1  0
 14 15  1  0
 15 16  1  0
 15 52  1  0
 15 53  1  0
 16 21  1  0
 16 17  1  0
 16 54  1  6
 17 18  1  0
 17 55  1  0
 17 56  1  0
 18 19  1  0
 18 57  1  0
 18 58  1  0
 19 20  1  0
 19 21  1  0
 19 59  1  6
 20 60  1  0
 20 61  1  0
 21 22  1  0
 22 62  1  0
 22 63  1  0
 22 64  1  0
 23 42  1  0
 23 24  1  0
 23 65  1  6
 24 35  1  0
 24 25  1  0
 24 66  1  6
 25 26  1  0
 25 67  1  0
 25 68  1  0
 26 36  1  0
 26 27  1  6
 26 28  1  0
 27 69  1  0
 28 29  1  0
 28 70  1  0
 28 71  1  0
 29 30  1  0
 29 72  1  0
 29 73  1  0
 30 31  1  0
 30 38  1  0
 30 74  1  1
 31 32  2  0
 31 33  1  0
 33 36  1  0
 33 34  1  6
 33 35  1  0
 34 75  1  0
 34 76  1  0
 34 77  1  0
 35 36  1  0
 35 78  1  6
 36 37  1  6
 37 79  1  0
 38 39  1  6
 38 40  1  0
 38 42  1  0
 39 80  1  0
 39 81  1  0
 39 82  1  0
 40 41  1  0
 40 83  1  0
 40 84  1  0
 41 85  1  0
 41 86  1  0
 41 87  1  0
 42 88  1  1
M  END
>  <i_m_ct_stereo_status>  (83) 
1

>  <s_m_source_file>  (83) 
/var/tmp/pbs.5102103.sched01/tmp13xrk0lu/22amefgkkz.sdf

>  <i_m_source_file_index>  (83) 
11

>  <i_lp_mmshare_version>  (83) 
48012

>  <i_f3d_flags>  (83) 
0

>  <s_epik_input>  (83) 
W09IXVtDQEBdMTJbQ0BdMyhbT0hdKVtDQEBdNChbQ0gzXSlbQ0BASF0zW0NAQEhdKFtDSDJdMSlbQ0BIXTVbQ0BASF0oW0NAXShbQ0gzXSkoW0NIMl1bQ0gzXSlbQ0BIXShDND1PKVtDSDJdW0NIMl0yKU4oW0NIMl1bQ0gzXSljNmMoYyg9TlxbSF0pXG5bY0hdW25IXTYpW0NASF01Qyg9TylOKFtDSDJdW0NASF03OClbQ0gyXVtDQEBIXShbQ0gyXVtDSDJdNylOOFtDSDNd

>  <s_epik_cmdline>  (83) 
J2VwaWtfcHl0aG9uJywgJy1waHQnLCAnMi4wJywgJy1waCcsICc3LjAnLCAnLXRuJywgJzgnLCAnLW1hJywgJzIwMCcsICctaW1hZScsICc8aW5maWxlLm1hZT4nLCAnLW9tYWUnLCAnPG91dGZpbGUubWFlPic=

>  <r_lp_tautomer_probability>  (83) 
1

>  <r_epik_Ionization_Penalty>  (83) 
1.42061

>  <r_epik_Ionization_Penalty_Charging>  (83) 
0

>  <r_epik_Ionization_Penalty_Neutral>  (83) 
1.42061

>  <r_epik_State_Penalty>  (83) 
1.53075

>  <r_epik_Charging_Adjusted_Penalty>  (83) 
1.53075

>  <i_epik_Tot_Q>  (83) 
0

>  <i_epik_Tot_abs_Q>  (83) 
0

>  <s_lp_Force_Field>  (83) 
OPLS3e

>  <r_lp_Energy>  (83) 
129.98

>  <b_lp_Chiralities_Consistent>  (83) 
1

>  <s_lp_Variant>  (83) 
21:0-5

>  <s_i_glide_gridfile>  (83) 
pfpi4k_grid

>  <i_i_glide_lignum>  (83) 
11

>  <i_i_glide_rotatable_bonds>  (83) 
6

>  <r_i_docking_score>  (83) 
-1.71939

>  <r_i_glide_ligand_efficiency>  (83) 
-0.0409378

>  <r_i_glide_ligand_efficiency_sa>  (83) 
-0.142301

>  <r_i_glide_ligand_efficiency_ln>  (83) 
-0.362919

>  <r_i_glide_gscore>  (83) 
-1.71939

>  <r_i_glide_lipo>  (83) 
-0.362144

>  <r_i_glide_hbond>  (83) 
0

>  <r_i_glide_metal>  (83) 
-0

>  <r_i_glide_rewards>  (83) 
-0.0140954

>  <r_i_glide_evdw>  (83) 
-19.3381

>  <r_i_glide_ecoul>  (83) 
-2.5851

>  <r_i_glide_erotb>  (83) 
0.0265127

>  <r_i_glide_esite>  (83) 
-0.0149892

>  <r_i_glide_emodel>  (83) 
-20.6082

>  <r_i_glide_energy>  (83) 
-21.9232

>  <r_i_glide_einternal>  (83) 
3.70247

>  <r_i_glide_intrahb_reward>  (83) 
-0

>  <i_i_glide_confnum>  (83) 
2

>  <i_i_glide_posenum>  (83) 
10

>  <r_i_glide_eff_state_penalty>  (83) 
0

>  <ligand_id>  (83) 
21

>  <original_smiles>  (83) 
CCN1c2[nH]cnc(=N)c2C(C(=O)N2CC3CCC(C2)N3C)C2C3CC4(O)CCC(C(=O)C5(C)C3C45O)C(C)(CC)C21

>  <smiles>  (83) 
[H]OC12C([H])([H])C([H])([H])C3([H])C(=O)C4(C([H])([H])[H])C([H])(C([H])(C1([H])[H])C1([H])C([H])(C(=O)N5C([H])([H])C6([H])N(C([H])([H])[H])C([H])(C5([H])[H])C([H])([H])C6([H])[H])c5c(N([H])[H])nc([H])nc5N(C([H])([H])C([H])([H])[H])C1([H])C3(C([H])([H])[H])C([H])([H])C([H])([H])[H])C24O[H]

$$$$
21:4:2
     RDKit          3D

 88 95  0  0  1  0  0  0  0  0999 V2000
   -0.0340   -0.2404    6.6413 C   0  0  0  0  0  0  0  0  0  0  0  0
    0.5221   -1.1196    5.4939 C   0  0  0  0  0  0  0  0  0  0  0  0
    1.4123   -2.2157    5.9206 N   0  0  0  0  0  0  0  0  0  0  0  0
    0.8357   -3.4102    6.3977 C   0  0  0  0  0  0  0  0  0  0  0  0
   -0.5124   -3.4797    6.5716 N   0  0  0  0  0  0  0  0  0  0  0  0
   -1.0225   -4.5891    7.0748 C   0  0  0  0  0  0  0  0  0  0  0  0
   -0.3524   -5.6627    7.5147 N   0  0  0  0  0  0  0  0  0  0  0  0
    0.9851   -5.6323    7.3335 C   0  0  0  0  0  0  0  0  0  0  0  0
    1.6556   -6.7663    7.8439 N   0  0  0  0  0  0  0  0  0  0  0  0
    1.6366   -4.5774    6.6845 C   0  0  0  0  0  0  0  0  0  0  0  0
    3.1174   -4.5943    6.2395 C   0  0  1  0  0  0  0  0  0  0  0  0
    3.6952   -5.9423    5.7107 C   0  0  0  0  0  0  0  0  0  0  0  0
    4.8539   -6.2006    6.0694 O   0  0  0  0  0  0  0  0  0  0  0  0
    2.9735   -6.7706    4.9096 N   0  0  0  0  0  0  0  0  0  0  0  0
    1.6201   -6.4694    4.3452 C   0  0  0  0  0  0  0  0  0  0  0  0
    0.7877   -7.6877    4.0234 C   0  0  2  0  0  0  0  0  0  0  0  0
    0.5538   -8.5961    5.2417 C   0  0  0  0  0  0  0  0  0  0  0  0
    1.7616   -9.5188    5.2117 C   0  0  0  0  0  0  0  0  0  0  0  0
    2.5709   -9.0642    3.9787 C   0  0  2  0  0  0  0  0  0  0  0  0
    3.6116   -7.9843    4.3390 C   0  0  0  0  0  0  0  0  0  0  0  0
    1.6004   -8.4422    3.0764 N   0  0  0  0  0  0  0  0  0  0  0  0
    0.7785   -9.3763    2.3397 C   0  0  0  0  0  0  0  0  0  0  0  0
    3.4780   -3.3977    5.3111 C   0  0  1  0  0  0  0  0  0  0  0  0
    3.1390   -3.5854    3.7754 C   0  0  2  0  0  0  0  0  0  0  0  0
    4.2988   -3.9627    2.8373 C   0  0  0  0  0  0  0  0  0  0  0  0
    4.3647   -2.8246    1.8050 C   0  0  2  0  0  0  0  0  0  0  0  0
    4.7935   -3.3386    0.5526 O   0  0  0  0  0  0  0  0  0  0  0  0
    5.4045   -1.7484    2.1695 C   0  0  0  0  0  0  0  0  0  0  0  0
    5.4553   -1.2996    3.6412 C   0  0  0  0  0  0  0  0  0  0  0  0
    4.2445   -0.5418    4.2672 C   0  0  1  0  0  0  0  0  0  0  0  0
    3.1366   -0.1886    3.2668 C   0  0  0  0  0  0  0  0  0  0  0  0
    2.9679    0.9937    2.9955 O   0  0  0  0  0  0  0  0  0  0  0  0
    2.2641   -1.2126    2.5657 C   0  0  2  0  0  0  0  0  0  0  0  0
    0.9661   -0.5829    2.0439 C   0  0  0  0  0  0  0  0  0  0  0  0
    2.1905   -2.6651    3.0002 C   0  0  1  0  0  0  0  0  0  0  0  0
    2.9267   -2.2793    1.7044 C   0  0  2  0  0  0  0  0  0  0  0  0
    2.1896   -2.6602    0.5137 O   0  0  0  0  0  0  0  0  0  0  0  0
    3.8042   -0.8341    5.7675 C   0  0  1  0  0  0  0  0  0  0  0  0
    5.1129   -1.0565    6.6012 C   0  0  0  0  0  0  0  0  0  0  0  0
    3.1937    0.4463    6.4242 C   0  0  0  0  0  0  0  0  0  0  0  0
    2.8416    0.3961    7.9457 C   0  0  0  0  0  0  0  0  0  0  0  0
    2.9014   -2.1343    5.9836 C   0  0  1  0  0  0  0  0  0  0  0  0
    1.1227   -7.5667    8.1316 H   0  0  0  0  0  0  0  0  0  0  0  0
   -0.4982    0.6748    6.2364 H   0  0  0  0  0  0  0  0  0  0  0  0
    0.6719    0.1768    7.2505 H   0  0  0  0  0  0  0  0  0  0  0  0
   -0.6945   -0.8102    7.3022 H   0  0  0  0  0  0  0  0  0  0  0  0
   -0.3372   -1.5360    4.9237 H   0  0  0  0  0  0  0  0  0  0  0  0
    1.0644   -0.4959    4.7742 H   0  0  0  0  0  0  0  0  0  0  0  0
   -2.0952   -4.6134    7.2550 H   0  0  0  0  0  0  0  0  0  0  0  0
    2.5948   -6.9586    7.5434 H   0  0  0  0  0  0  0  0  0  0  0  0
    3.6367   -4.4322    7.1917 H   0  0  0  0  0  0  0  0  0  0  0  0
    0.9875   -5.8694    4.9446 H   0  0  0  0  0  0  0  0  0  0  0  0
    1.7069   -6.0062    3.3629 H   0  0  0  0  0  0  0  0  0  0  0  0
   -0.1402   -7.3004    3.6048 H   0  0  0  0  0  0  0  0  0  0  0  0
    0.4501   -8.0327    6.1613 H   0  0  0  0  0  0  0  0  0  0  0  0
   -0.3876   -9.1270    5.1145 H   0  0  0  0  0  0  0  0  0  0  0  0
    2.3451   -9.4736    6.1304 H   0  0  0  0  0  0  0  0  0  0  0  0
    1.4089  -10.5358    5.0825 H   0  0  0  0  0  0  0  0  0  0  0  0
    3.0656   -9.8933    3.4874 H   0  0  0  0  0  0  0  0  0  0  0  0
    4.1547   -7.6800    3.4428 H   0  0  0  0  0  0  0  0  0  0  0  0
    4.3431   -8.4230    5.0259 H   0  0  0  0  0  0  0  0  0  0  0  0
    1.4205   -9.9470    1.6822 H   0  0  0  0  0  0  0  0  0  0  0  0
    0.0623   -8.8278    1.7289 H   0  0  0  0  0  0  0  0  0  0  0  0
    0.2365  -10.0494    2.9949 H   0  0  0  0  0  0  0  0  0  0  0  0
    4.5629   -3.3757    5.3529 H   0  0  0  0  0  0  0  0  0  0  0  0
    2.5508   -4.4057    3.8159 H   0  0  0  0  0  0  0  0  0  0  0  0
    5.2398   -4.1361    3.3523 H   0  0  0  0  0  0  0  0  0  0  0  0
    4.0475   -4.9024    2.3439 H   0  0  0  0  0  0  0  0  0  0  0  0
    4.5979   -2.6779   -0.0944 H   0  0  0  0  0  0  0  0  0  0  0  0
    6.3869   -2.1552    1.9387 H   0  0  0  0  0  0  0  0  0  0  0  0
    5.2882   -0.8924    1.5073 H   0  0  0  0  0  0  0  0  0  0  0  0
    5.7971   -2.1301    4.2467 H   0  0  0  0  0  0  0  0  0  0  0  0
    6.3035   -0.6158    3.6835 H   0  0  0  0  0  0  0  0  0  0  0  0
    4.7107    0.4323    4.3893 H   0  0  0  0  0  0  0  0  0  0  0  0
    0.2743   -1.3470    1.6794 H   0  0  0  0  0  0  0  0  0  0  0  0
    1.1746    0.0818    1.2061 H   0  0  0  0  0  0  0  0  0  0  0  0
    0.4360   -0.0149    2.8041 H   0  0  0  0  0  0  0  0  0  0  0  0
    1.1899   -3.0936    2.9250 H   0  0  0  0  0  0  0  0  0  0  0  0
    1.7800   -1.8659    0.1421 H   0  0  0  0  0  0  0  0  0  0  0  0
    4.9343   -1.0636    7.6724 H   0  0  0  0  0  0  0  0  0  0  0  0
    5.8484   -0.2783    6.4169 H   0  0  0  0  0  0  0  0  0  0  0  0
    5.6167   -2.0036    6.4418 H   0  0  0  0  0  0  0  0  0  0  0  0
    3.9026    1.2677    6.3276 H   0  0  0  0  0  0  0  0  0  0  0  0
    2.3526    0.7992    5.8289 H   0  0  0  0  0  0  0  0  0  0  0  0
    2.3543    1.3409    8.2136 H   0  0  0  0  0  0  0  0  0  0  0  0
    3.6745    0.2591    8.6225 H   0  0  0  0  0  0  0  0  0  0  0  0
    2.1828   -0.4256    8.2052 H   0  0  0  0  0  0  0  0  0  0  0  0
    3.0267   -2.2985    7.0535 H   0  0  0  0  0  0  0  0  0  0  0  0
  1  2  1  0
  1 44  1  0
  1 45  1  0
  1 46  1  0
  2 47  1  0
  2 48  1  0
  2  3  1  0
  3  4  1  0
  3 42  1  0
  4  5  1  0
  4 10  2  0
  5  6  2  0
  6 49  1  0
  6  7  1  0
  7  8  2  0
  8 10  1  0
  8  9  1  0
  9 50  1  0
  9 43  1  0
 10 11  1  0
 11 12  1  0
 11 23  1  0
 11 51  1  1
 12 13  2  0
 12 14  1  0
 14 20  1  0
 14 15  1  0
 15 16  1  0
 15 52  1  0
 15 53  1  0
 16 21  1  0
 16 17  1  0
 16 54  1  6
 17 18  1  0
 17 55  1  0
 17 56  1  0
 18 19  1  0
 18 57  1  0
 18 58  1  0
 19 20  1  0
 19 21  1  0
 19 59  1  6
 20 60  1  0
 20 61  1  0
 21 22  1  0
 22 62  1  0
 22 63  1  0
 22 64  1  0
 23 42  1  0
 23 24  1  0
 23 65  1  6
 24 35  1  0
 24 25  1  0
 24 66  1  1
 25 26  1  0
 25 67  1  0
 25 68  1  0
 26 36  1  0
 26 27  1  6
 26 28  1  0
 27 69  1  0
 28 29  1  0
 28 70  1  0
 28 71  1  0
 29 30  1  0
 29 72  1  0
 29 73  1  0
 30 31  1  0
 30 38  1  0
 30 74  1  1
 31 32  2  0
 31 33  1  0
 33 36  1  0
 33 34  1  6
 33 35  1  0
 34 75  1  0
 34 76  1  0
 34 77  1  0
 35 36  1  0
 35 78  1  6
 36 37  1  6
 37 79  1  0
 38 39  1  1
 38 40  1  0
 38 42  1  0
 39 80  1  0
 39 81  1  0
 39 82  1  0
 40 41  1  0
 40 83  1  0
 40 84  1  0
 41 85  1  0
 41 86  1  0
 41 87  1  0
 42 88  1  1
M  END
>  <i_m_ct_stereo_status>  (84) 
1

>  <s_m_source_file>  (84) 
/var/tmp/pbs.5102103.sched01/tmp13xrk0lu/22amefgkkz.sdf

>  <i_m_source_file_index>  (84) 
11

>  <i_lp_mmshare_version>  (84) 
48012

>  <i_f3d_flags>  (84) 
0

>  <s_epik_input>  (84) 
W09IXVtDQEBdMTJbQ0BdMyhbT0hdKVtDQEBdNChbQ0gzXSlbQ0BASF0zW0NAQEhdKFtDSDJdMSlbQ0BIXTVbQ0BASF0oW0NAXShbQ0gzXSkoW0NIMl1bQ0gzXSlbQ0BIXShDND1PKVtDSDJdW0NIMl0yKU4oW0NIMl1bQ0gzXSljNmMoYyg9TlxbSF0pXG5bY0hdW25IXTYpW0NASF01Qyg9TylOKFtDSDJdW0NASF03OClbQ0gyXVtDQEBIXShbQ0gyXVtDSDJdNylOOFtDSDNd

>  <s_epik_cmdline>  (84) 
J2VwaWtfcHl0aG9uJywgJy1waHQnLCAnMi4wJywgJy1waCcsICc3LjAnLCAnLXRuJywgJzgnLCAnLW1hJywgJzIwMCcsICctaW1hZScsICc8aW5maWxlLm1hZT4nLCAnLW9tYWUnLCAnPG91dGZpbGUubWFlPic=

>  <r_lp_tautomer_probability>  (84) 
1

>  <r_epik_Ionization_Penalty>  (84) 
1.42061

>  <r_epik_Ionization_Penalty_Charging>  (84) 
0

>  <r_epik_Ionization_Penalty_Neutral>  (84) 
1.42061

>  <r_epik_State_Penalty>  (84) 
1.53075

>  <r_epik_Charging_Adjusted_Penalty>  (84) 
1.53075

>  <i_epik_Tot_Q>  (84) 
0

>  <i_epik_Tot_abs_Q>  (84) 
0

>  <s_lp_Force_Field>  (84) 
OPLS3e

>  <r_lp_Energy>  (84) 
129.98

>  <b_lp_Chiralities_Consistent>  (84) 
1

>  <s_lp_Variant>  (84) 
21:0-5

>  <s_i_glide_gridfile>  (84) 
pfpi4k_grid

>  <i_i_glide_lignum>  (84) 
11

>  <i_i_glide_rotatable_bonds>  (84) 
6

>  <r_i_docking_score>  (84) 
-1.63407

>  <r_i_glide_ligand_efficiency>  (84) 
-0.0389063

>  <r_i_glide_ligand_efficiency_sa>  (84) 
-0.135239

>  <r_i_glide_ligand_efficiency_ln>  (84) 
-0.344909

>  <r_i_glide_gscore>  (84) 
-1.63407

>  <r_i_glide_lipo>  (84) 
-0.20555

>  <r_i_glide_hbond>  (84) 
0

>  <r_i_glide_metal>  (84) 
-0

>  <r_i_glide_rewards>  (84) 
0

>  <r_i_glide_evdw>  (84) 
-18.1505

>  <r_i_glide_ecoul>  (84) 
-5.36949

>  <r_i_glide_erotb>  (84) 
0.0185589

>  <r_i_glide_esite>  (84) 
-0.00320616

>  <r_i_glide_emodel>  (84) 
-21.5973

>  <r_i_glide_energy>  (84) 
-23.52

>  <r_i_glide_einternal>  (84) 
2.67806

>  <r_i_glide_intrahb_reward>  (84) 
-0

>  <i_i_glide_confnum>  (84) 
3

>  <i_i_glide_posenum>  (84) 
28

>  <r_i_glide_eff_state_penalty>  (84) 
0

>  <ligand_id>  (84) 
21

>  <original_smiles>  (84) 
CCN1c2[nH]cnc(=N)c2C(C(=O)N2CC3CCC(C2)N3C)C2C3CC4(O)CCC(C(=O)C5(C)C3C45O)C(C)(CC)C21

>  <smiles>  (84) 
[H]OC12C([H])([H])C([H])([H])C3([H])C(=O)C4(C([H])([H])[H])C([H])(C([H])(C1([H])[H])C1([H])C([H])(C(=O)N5C([H])([H])C6([H])N(C([H])([H])[H])C([H])(C5([H])[H])C([H])([H])C6([H])[H])c5c(N([H])[H])nc([H])nc5N(C([H])([H])C([H])([H])[H])C1([H])C3(C([H])([H])[H])C([H])([H])C([H])([H])[H])C24O[H]

$$$$
21:5:0
     RDKit          3D

 89 96  0  0  1  0  0  0  0  0999 V2000
    4.9176  -13.2749    9.1979 C   0  0  0  0  0  0  0  0  0  0  0  0
    5.6205  -11.9921    8.7164 C   0  0  0  0  0  0  0  0  0  0  0  0
    4.7705  -11.0282    8.0040 N   0  0  0  0  0  0  0  0  0  0  0  0
    3.6769  -10.4346    8.6610 C   0  0  0  0  0  0  0  0  0  0  0  0
    3.6149  -10.5111   10.0166 N   0  0  0  0  0  0  0  0  0  0  0  0
    2.5597  -10.0263   10.6722 C   0  0  0  0  0  0  0  0  0  0  0  0
    1.5190   -9.4723   10.0579 N   0  0  0  0  0  0  0  0  0  0  0  0
    1.5203   -9.3660    8.7264 C   0  0  0  0  0  0  0  0  0  0  0  0
    0.3350   -8.8384    8.2045 N   0  0  0  0  0  0  0  0  0  0  0  0
    2.6201   -9.7988    7.9445 C   0  0  0  0  0  0  0  0  0  0  0  0
    2.5724   -9.8534    6.4147 C   0  0  1  0  0  0  0  0  0  0  0  0
    2.1653   -8.4834    5.7803 C   0  0  0  0  0  0  0  0  0  0  0  0
    2.7056   -7.4630    6.1917 O   0  0  0  0  0  0  0  0  0  0  0  0
    1.1839   -8.4340    4.8562 N   0  0  0  0  0  0  0  0  0  0  0  0
    0.9880   -7.1742    4.0910 C   0  0  0  0  0  0  0  0  0  0  0  0
   -0.2940   -7.1284    3.2432 C   0  0  2  0  0  0  0  0  0  0  0  0
   -1.5473   -7.0704    4.1207 C   0  0  0  0  0  0  0  0  0  0  0  0
   -1.8487   -8.5228    4.4026 C   0  0  0  0  0  0  0  0  0  0  0  0
   -0.8232   -9.3025    3.5913 C   0  0  2  0  0  0  0  0  0  0  0  0
    0.3929   -9.6102    4.4394 C   0  0  0  0  0  0  0  0  0  0  0  0
   -0.3826   -8.4005    2.5415 N   0  0  0  0  0  0  0  0  0  0  0  0
   -1.3475   -8.3976    1.4705 C   0  0  0  0  0  0  0  0  0  0  0  0
    3.8077  -10.5571    5.7877 C   0  0  1  0  0  0  0  0  0  0  0  0
    3.8200  -10.8206    4.2424 C   0  0  2  0  0  0  0  0  0  0  0  0
    4.7922  -11.8981    3.7699 C   0  0  0  0  0  0  0  0  0  0  0  0
    5.9014  -11.1767    2.9904 C   0  0  2  0  0  0  0  0  0  0  0  0
    6.2583  -12.0532    1.9250 O   0  0  0  0  0  0  0  0  0  0  0  0
    7.1899  -11.0052    3.8337 C   0  0  0  0  0  0  0  0  0  0  0  0
    7.5656   -9.5930    4.2830 C   0  0  0  0  0  0  0  0  0  0  0  0
    6.5854   -8.8327    5.2109 C   0  0  1  0  0  0  0  0  0  0  0  0
    5.5319   -8.0511    4.4308 C   0  0  0  0  0  0  0  0  0  0  0  0
    5.2221   -6.9211    4.8377 O   0  0  0  0  0  0  0  0  0  0  0  0
    4.9308   -8.5377    3.1357 C   0  0  2  0  0  0  0  0  0  0  0  0
    4.5551   -7.3356    2.2650 C   0  0  0  0  0  0  0  0  0  0  0  0
    3.9512   -9.6747    3.2343 C   0  0  1  0  0  0  0  0  0  0  0  0
    5.2639   -9.8839    2.4834 C   0  0  2  0  0  0  0  0  0  0  0  0
    5.0710   -9.8569    1.0857 O   0  0  0  0  0  0  0  0  0  0  0  0
    6.2078   -9.3935    6.6398 C   0  0  1  0  0  0  0  0  0  0  0  0
    7.5366   -9.9527    7.2300 C   0  0  0  0  0  0  0  0  0  0  0  0
    5.7731   -8.2467    7.6157 C   0  0  0  0  0  0  0  0  0  0  0  0
    6.6983   -7.0173    7.7578 C   0  0  0  0  0  0  0  0  0  0  0  0
    5.1153  -10.5544    6.6494 C   0  0  1  0  0  0  0  0  0  0  0  0
   -0.3960   -8.5088    8.8146 H   0  0  0  0  0  0  0  0  0  0  0  0
    5.6483  -13.9383    9.6624 H   0  0  0  0  0  0  0  0  0  0  0  0
    4.4552  -13.8161    8.3704 H   0  0  0  0  0  0  0  0  0  0  0  0
    4.1479  -13.0846    9.9453 H   0  0  0  0  0  0  0  0  0  0  0  0
    6.0940  -11.4873    9.5585 H   0  0  0  0  0  0  0  0  0  0  0  0
    6.4256  -12.3013    8.0525 H   0  0  0  0  0  0  0  0  0  0  0  0
    2.5552  -10.1073   11.7478 H   0  0  0  0  0  0  0  0  0  0  0  0
    0.1898   -8.7023    7.2161 H   0  0  0  0  0  0  0  0  0  0  0  0
    1.7845  -10.5911    6.2974 H   0  0  0  0  0  0  0  0  0  0  0  0
    1.0628   -6.2923    4.7290 H   0  0  0  0  0  0  0  0  0  0  0  0
    1.8311   -7.1025    3.4165 H   0  0  0  0  0  0  0  0  0  0  0  0
   -0.2417   -6.3037    2.5319 H   0  0  0  0  0  0  0  0  0  0  0  0
   -1.4121   -6.4709    5.0227 H   0  0  0  0  0  0  0  0  0  0  0  0
   -2.3866   -6.6836    3.5603 H   0  0  0  0  0  0  0  0  0  0  0  0
   -1.7676   -8.7696    5.4576 H   0  0  0  0  0  0  0  0  0  0  0  0
   -2.8446   -8.7746    4.0542 H   0  0  0  0  0  0  0  0  0  0  0  0
   -1.2314  -10.2467    3.2203 H   0  0  0  0  0  0  0  0  0  0  0  0
    1.0314  -10.2344    3.8309 H   0  0  0  0  0  0  0  0  0  0  0  0
    0.0171  -10.2072    5.2735 H   0  0  0  0  0  0  0  0  0  0  0  0
   -1.4139   -9.4112    1.0966 H   0  0  0  0  0  0  0  0  0  0  0  0
   -0.9586   -7.7492    0.6829 H   0  0  0  0  0  0  0  0  0  0  0  0
   -2.3577   -8.1291    1.7753 H   0  0  0  0  0  0  0  0  0  0  0  0
    3.5086  -11.5855    6.0257 H   0  0  0  0  0  0  0  0  0  0  0  0
    2.8500  -11.2793    4.0328 H   0  0  0  0  0  0  0  0  0  0  0  0
    5.1338  -12.5739    4.5526 H   0  0  0  0  0  0  0  0  0  0  0  0
    4.2307  -12.5213    3.0712 H   0  0  0  0  0  0  0  0  0  0  0  0
    5.4872  -12.2354    1.3924 H   0  0  0  0  0  0  0  0  0  0  0  0
    7.1817  -11.6813    4.6893 H   0  0  0  0  0  0  0  0  0  0  0  0
    8.0401  -11.3353    3.2341 H   0  0  0  0  0  0  0  0  0  0  0  0
    8.5450   -9.6335    4.7627 H   0  0  0  0  0  0  0  0  0  0  0  0
    7.7474   -8.9822    3.3943 H   0  0  0  0  0  0  0  0  0  0  0  0
    7.2401   -8.0094    5.4684 H   0  0  0  0  0  0  0  0  0  0  0  0
    4.0289   -7.6290    1.3551 H   0  0  0  0  0  0  0  0  0  0  0  0
    5.4470   -6.7763    1.9763 H   0  0  0  0  0  0  0  0  0  0  0  0
    3.8884   -6.6482    2.7884 H   0  0  0  0  0  0  0  0  0  0  0  0
    3.0613   -9.5337    2.6308 H   0  0  0  0  0  0  0  0  0  0  0  0
    4.7104  -10.7211    0.8136 H   0  0  0  0  0  0  0  0  0  0  0  0
    7.4698  -10.1948    8.2871 H   0  0  0  0  0  0  0  0  0  0  0  0
    8.3491   -9.2344    7.1512 H   0  0  0  0  0  0  0  0  0  0  0  0
    7.8848  -10.8452    6.7147 H   0  0  0  0  0  0  0  0  0  0  0  0
    4.7909   -7.8922    7.3318 H   0  0  0  0  0  0  0  0  0  0  0  0
    5.6406   -8.6444    8.6232 H   0  0  0  0  0  0  0  0  0  0  0  0
    6.3120   -6.3596    8.5338 H   0  0  0  0  0  0  0  0  0  0  0  0
    6.7377   -6.4103    6.8536 H   0  0  0  0  0  0  0  0  0  0  0  0
    7.7178   -7.2780    8.0433 H   0  0  0  0  0  0  0  0  0  0  0  0
    5.6531  -11.4004    6.2486 H   0  0  0  0  0  0  0  0  0  0  0  0
    4.3542  -11.0021   10.5303 H   0  0  0  0  0  0  0  0  0  0  0  0
  1  2  1  0
  1 44  1  0
  1 45  1  0
  1 46  1  0
  2 47  1  0
  2 48  1  0
  2  3  1  0
  3  4  1  0
  3 42  1  0
  4  5  1  0
  4 10  2  0
  5  6  2  0
  5 89  1  0
  6 49  1  0
  6  7  1  0
  7  8  2  0
  8 10  1  0
  8  9  1  0
  9 50  1  0
  9 43  1  0
 10 11  1  0
 11 12  1  0
 11 23  1  0
 11 51  1  1
 12 13  2  0
 12 14  1  0
 14 20  1  0
 14 15  1  0
 15 16  1  0
 15 52  1  0
 15 53  1  0
 16 21  1  0
 16 17  1  0
 16 54  1  6
 17 18  1  0
 17 55  1  0
 17 56  1  0
 18 19  1  0
 18 57  1  0
 18 58  1  0
 19 20  1  0
 19 21  1  0
 19 59  1  6
 20 60  1  0
 20 61  1  0
 21 22  1  0
 22 62  1  0
 22 63  1  0
 22 64  1  0
 23 42  1  0
 23 24  1  0
 23 65  1  1
 24 35  1  0
 24 25  1  0
 24 66  1  6
 25 26  1  0
 25 67  1  0
 25 68  1  0
 26 36  1  0
 26 27  1  6
 26 28  1  0
 27 69  1  0
 28 29  1  0
 28 70  1  0
 28 71  1  0
 29 30  1  0
 29 72  1  0
 29 73  1  0
 30 31  1  0
 30 38  1  0
 30 74  1  1
 31 32  2  0
 31 33  1  0
 33 36  1  0
 33 34  1  6
 33 35  1  0
 34 75  1  0
 34 76  1  0
 34 77  1  0
 35 36  1  0
 35 78  1  6
 36 37  1  6
 37 79  1  0
 38 39  1  1
 38 40  1  0
 38 42  1  0
 39 80  1  0
 39 81  1  0
 39 82  1  0
 40 41  1  0
 40 83  1  0
 40 84  1  0
 41 85  1  0
 41 86  1  0
 41 87  1  0
 42 88  1  6
M  CHG  1   5   1
M  END
>  <i_m_ct_stereo_status>  (85) 
1

>  <s_m_source_file>  (85) 
/var/tmp/pbs.5102103.sched01/tmp13xrk0lu/22amefgkkz.sdf

>  <i_m_source_file_index>  (85) 
12

>  <i_lp_mmshare_version>  (85) 
48012

>  <i_f3d_flags>  (85) 
0

>  <s_epik_input>  (85) 
W09IXVtDQEBdMTJbQ0BdMyhbT0hdKVtDQEBdNChbQ0gzXSlbQ0BASF0zW0NAQEhdKFtDSDJdMSlbQ0BIXTVbQ0BASF0oW0NAXShbQ0gzXSkoW0NIMl1bQ0gzXSlbQ0BIXShDND1PKVtDSDJdW0NIMl0yKU4oW0NIMl1bQ0gzXSljNmMoYyg9TlxbSF0pXG5bY0hdW25IXTYpW0NASF01Qyg9TylOKFtDSDJdW0NASF03OClbQ0gyXVtDQEBIXShbQ0gyXVtDSDJdNylOOFtDSDNd

>  <s_epik_cmdline>  (85) 
J2VwaWtfcHl0aG9uJywgJy1waHQnLCAnMi4wJywgJy1waCcsICc3LjAnLCAnLXRuJywgJzgnLCAnLW1hJywgJzIwMCcsICctaW1hZScsICc8aW5maWxlLm1hZT4nLCAnLW9tYWUnLCAnPG91dGZpbGUubWFlPic=

>  <r_epik_Ionization_Penalty>  (85) 
2.38087

>  <r_epik_Ionization_Penalty_Charging>  (85) 
0.899419

>  <r_epik_Ionization_Penalty_Neutral>  (85) 
1.48145

>  <r_epik_State_Penalty>  (85) 
2.20649

>  <r_epik_Charging_Adjusted_Penalty>  (85) 
3.10591

>  <i_epik_Tot_Q>  (85) 
1

>  <i_epik_Tot_abs_Q>  (85) 
1

>  <s_lp_Force_Field>  (85) 
OPLS3e

>  <r_lp_Energy>  (85) 
138.635

>  <b_lp_Chiralities_Consistent>  (85) 
1

>  <s_lp_Variant>  (85) 
21:0-6

>  <s_i_glide_gridfile>  (85) 
pfpi4k_grid

>  <i_i_glide_lignum>  (85) 
12

>  <i_i_glide_rotatable_bonds>  (85) 
6

>  <r_i_docking_score>  (85) 
-2.84523

>  <r_i_glide_ligand_efficiency>  (85) 
-0.0677435

>  <r_i_glide_ligand_efficiency_sa>  (85) 
-0.235478

>  <r_i_glide_ligand_efficiency_ln>  (85) 
-0.600554

>  <r_i_glide_gscore>  (85) 
-2.84523

>  <r_i_glide_lipo>  (85) 
-0.0205526

>  <r_i_glide_hbond>  (85) 
0

>  <r_i_glide_metal>  (85) 
-0

>  <r_i_glide_rewards>  (85) 
0

>  <r_i_glide_evdw>  (85) 
-15.8001

>  <r_i_glide_ecoul>  (85) 
-12.6324

>  <r_i_glide_erotb>  (85) 
0.0251741

>  <r_i_glide_esite>  (85) 
-0.164986

>  <r_i_glide_emodel>  (85) 
-33.374

>  <r_i_glide_energy>  (85) 
-28.4325

>  <r_i_glide_einternal>  (85) 
3.24032

>  <r_i_glide_intrahb_reward>  (85) 
-0

>  <i_i_glide_confnum>  (85) 
1

>  <i_i_glide_posenum>  (85) 
8

>  <r_i_glide_eff_state_penalty>  (85) 
0

>  <ligand_id>  (85) 
21

>  <original_smiles>  (85) 
CCN1c2[nH]cnc(=N)c2C(C(=O)N2CC3CCC(C2)N3C)C2C3CC4(O)CCC(C(=O)C5(C)C3C45O)C(C)(CC)C21

>  <smiles>  (85) 
[H]OC12C([H])([H])C([H])([H])C3([H])C(=O)C4(C([H])([H])[H])C([H])(C([H])(C1([H])[H])C1([H])C([H])(C(=O)N5C([H])([H])C6([H])N(C([H])([H])[H])C([H])(C5([H])[H])C([H])([H])C6([H])[H])c5c(N([H])[H])nc([H])[n+]([H])c5N(C([H])([H])C([H])([H])[H])C1([H])C3(C([H])([H])[H])C([H])([H])C([H])([H])[H])C24O[H]

$$$$
21:5:1
     RDKit          3D

 89 96  0  0  1  0  0  0  0  0999 V2000
    5.3898  -13.2180    9.3679 C   0  0  0  0  0  0  0  0  0  0  0  0
    6.1896  -12.0317    8.7952 C   0  0  0  0  0  0  0  0  0  0  0  0
    5.4238  -11.1084    7.9404 N   0  0  0  0  0  0  0  0  0  0  0  0
    4.3100  -10.4251    8.4756 C   0  0  0  0  0  0  0  0  0  0  0  0
    4.1864  -10.3459    9.8207 N   0  0  0  0  0  0  0  0  0  0  0  0
    3.1347   -9.7400   10.3794 C   0  0  0  0  0  0  0  0  0  0  0  0
    2.1532   -9.2020    9.6575 N   0  0  0  0  0  0  0  0  0  0  0  0
    2.2189   -9.2429    8.3251 C   0  0  0  0  0  0  0  0  0  0  0  0
    1.1030   -8.6740    7.6958 N   0  0  0  0  0  0  0  0  0  0  0  0
    3.3080   -9.8305    7.6403 C   0  0  0  0  0  0  0  0  0  0  0  0
    3.3404  -10.0155    6.1179 C   0  0  1  0  0  0  0  0  0  0  0  0
    3.0318   -8.6717    5.3722 C   0  0  0  0  0  0  0  0  0  0  0  0
    3.7818   -7.7109    5.5633 O   0  0  0  0  0  0  0  0  0  0  0  0
    1.9159   -8.5449    4.6245 N   0  0  0  0  0  0  0  0  0  0  0  0
    1.6614   -7.2559    3.9207 C   0  0  0  0  0  0  0  0  0  0  0  0
    0.2314   -7.1027    3.3463 C   0  0  2  0  0  0  0  0  0  0  0  0
   -0.8353   -7.0005    4.4541 C   0  0  0  0  0  0  0  0  0  0  0  0
   -1.1595   -8.4550    4.7581 C   0  0  0  0  0  0  0  0  0  0  0  0
   -0.3343   -9.2645    3.7401 C   0  0  2  0  0  0  0  0  0  0  0  0
    1.0165   -9.6867    4.3206 C   0  0  0  0  0  0  0  0  0  0  0  0
   -0.0738   -8.3440    2.6362 N   0  0  0  0  0  0  0  0  0  0  0  0
   -1.2176   -8.2585    1.7421 C   0  0  0  0  0  0  0  0  0  0  0  0
    4.5961  -10.8034    5.6335 C   0  0  1  0  0  0  0  0  0  0  0  0
    4.6658  -11.2113    4.1231 C   0  0  2  0  0  0  0  0  0  0  0  0
    5.6063  -12.3865    3.8211 C   0  0  0  0  0  0  0  0  0  0  0  0
    6.8006  -11.7959    3.0575 C   0  0  2  0  0  0  0  0  0  0  0  0
    7.1702  -12.7822    2.1058 O   0  0  0  0  0  0  0  0  0  0  0  0
    8.0574  -11.6122    3.9403 C   0  0  0  0  0  0  0  0  0  0  0  0
    8.4869  -10.1820    4.2687 C   0  0  0  0  0  0  0  0  0  0  0  0
    7.5021   -9.2865    5.0618 C   0  0  1  0  0  0  0  0  0  0  0  0
    6.5603   -8.5157    4.1387 C   0  0  0  0  0  0  0  0  0  0  0  0
    6.3929   -7.3107    4.3623 O   0  0  0  0  0  0  0  0  0  0  0  0
    5.9676   -9.1167    2.8768 C   0  0  2  0  0  0  0  0  0  0  0  0
    5.6890   -7.9994    1.8732 C   0  0  0  0  0  0  0  0  0  0  0  0
    4.9197  -10.1855    3.0206 C   0  0  1  0  0  0  0  0  0  0  0  0
    6.2683  -10.5327    2.3722 C   0  0  2  0  0  0  0  0  0  0  0  0
    6.2157  -10.6398    0.9478 O   0  0  0  0  0  0  0  0  0  0  0  0
    7.0116   -9.6828    6.5123 C   0  0  1  0  0  0  0  0  0  0  0  0
    8.2784  -10.2404    7.2298 C   0  0  0  0  0  0  0  0  0  0  0  0
    6.5835   -8.4211    7.3404 C   0  0  0  0  0  0  0  0  0  0  0  0
    7.5693   -7.2339    7.4292 C   0  0  0  0  0  0  0  0  0  0  0  0
    5.8608  -10.7869    6.5660 C   0  0  1  0  0  0  0  0  0  0  0  0
    0.3655   -8.2645    8.2391 H   0  0  0  0  0  0  0  0  0  0  0  0
    6.0589  -13.8663    9.9335 H   0  0  0  0  0  0  0  0  0  0  0  0
    4.9355  -13.8184    8.5767 H   0  0  0  0  0  0  0  0  0  0  0  0
    4.5977  -12.9129   10.0539 H   0  0  0  0  0  0  0  0  0  0  0  0
    6.6464  -11.4637    9.6075 H   0  0  0  0  0  0  0  0  0  0  0  0
    7.0064  -12.4491    8.2053 H   0  0  0  0  0  0  0  0  0  0  0  0
    3.0770   -9.7095   11.4564 H   0  0  0  0  0  0  0  0  0  0  0  0
    1.0106   -8.6490    6.6926 H   0  0  0  0  0  0  0  0  0  0  0  0
    2.5339  -10.7395    5.9835 H   0  0  0  0  0  0  0  0  0  0  0  0
    1.8954   -6.4097    4.5755 H   0  0  0  0  0  0  0  0  0  0  0  0
    2.3820   -7.1948    3.1065 H   0  0  0  0  0  0  0  0  0  0  0  0
    0.1989   -6.2431    2.6748 H   0  0  0  0  0  0  0  0  0  0  0  0
   -0.4780   -6.4517    5.3298 H   0  0  0  0  0  0  0  0  0  0  0  0
   -1.7318   -6.5033    4.0828 H   0  0  0  0  0  0  0  0  0  0  0  0
   -0.9210   -8.7307    5.7852 H   0  0  0  0  0  0  0  0  0  0  0  0
   -2.2167   -8.6506    4.6070 H   0  0  0  0  0  0  0  0  0  0  0  0
   -0.8701  -10.1600    3.4208 H   0  0  0  0  0  0  0  0  0  0  0  0
    1.5420  -10.3211    3.6023 H   0  0  0  0  0  0  0  0  0  0  0  0
    0.7596  -10.2915    5.1990 H   0  0  0  0  0  0  0  0  0  0  0  0
   -1.3989   -9.2401    1.3010 H   0  0  0  0  0  0  0  0  0  0  0  0
   -0.9804   -7.5629    0.9361 H   0  0  0  0  0  0  0  0  0  0  0  0
   -2.1289   -7.9450    2.2550 H   0  0  0  0  0  0  0  0  0  0  0  0
    4.2599  -11.7988    5.9518 H   0  0  0  0  0  0  0  0  0  0  0  0
    3.6629  -11.5919    3.9045 H   0  0  0  0  0  0  0  0  0  0  0  0
    5.8725  -12.9938    4.6846 H   0  0  0  0  0  0  0  0  0  0  0  0
    5.0537  -13.0529    3.1550 H   0  0  0  0  0  0  0  0  0  0  0  0
    6.4029  -13.0110    1.6085 H   0  0  0  0  0  0  0  0  0  0  0  0
    7.9688  -12.1969    4.8549 H   0  0  0  0  0  0  0  0  0  0  0  0
    8.9192  -12.0397    3.4211 H   0  0  0  0  0  0  0  0  0  0  0  0
    9.4399  -10.2197    4.8056 H   0  0  0  0  0  0  0  0  0  0  0  0
    8.7451   -9.6697    3.3380 H   0  0  0  0  0  0  0  0  0  0  0  0
    8.1939   -8.4792    5.2821 H   0  0  0  0  0  0  0  0  0  0  0  0
    5.2077   -8.3590    0.9626 H   0  0  0  0  0  0  0  0  0  0  0  0
    6.6155   -7.5005    1.5866 H   0  0  0  0  0  0  0  0  0  0  0  0
    5.0152   -7.2508    2.2928 H   0  0  0  0  0  0  0  0  0  0  0  0
    4.0684  -10.0654    2.3560 H   0  0  0  0  0  0  0  0  0  0  0  0
    5.4681  -11.2066    0.7369 H   0  0  0  0  0  0  0  0  0  0  0  0
    8.1401  -10.3690    8.2980 H   0  0  0  0  0  0  0  0  0  0  0  0
    9.1298   -9.5704    7.1254 H   0  0  0  0  0  0  0  0  0  0  0  0
    8.6007  -11.1965    6.8241 H   0  0  0  0  0  0  0  0  0  0  0  0
    5.6390   -8.0455    6.9694 H   0  0  0  0  0  0  0  0  0  0  0  0
    6.3790   -8.7119    8.3684 H   0  0  0  0  0  0  0  0  0  0  0  0
    7.1792   -6.4848    8.1164 H   0  0  0  0  0  0  0  0  0  0  0  0
    7.7000   -6.7238    6.4760 H   0  0  0  0  0  0  0  0  0  0  0  0
    8.5529   -7.5198    7.8012 H   0  0  0  0  0  0  0  0  0  0  0  0
    6.3837  -11.6929    6.2811 H   0  0  0  0  0  0  0  0  0  0  0  0
    4.8850  -10.7978   10.4263 H   0  0  0  0  0  0  0  0  0  0  0  0
  1  2  1  0
  1 44  1  0
  1 45  1  0
  1 46  1  0
  2 47  1  0
  2 48  1  0
  2  3  1  0
  3  4  1  0
  3 42  1  0
  4  5  1  0
  4 10  2  0
  5  6  2  0
  5 89  1  0
  6 49  1  0
  6  7  1  0
  7  8  2  0
  8 10  1  0
  8  9  1  0
  9 50  1  0
  9 43  1  0
 10 11  1  0
 11 12  1  0
 11 23  1  0
 11 51  1  1
 12 13  2  0
 12 14  1  0
 14 20  1  0
 14 15  1  0
 15 16  1  0
 15 52  1  0
 15 53  1  0
 16 21  1  0
 16 17  1  0
 16 54  1  6
 17 18  1  0
 17 55  1  0
 17 56  1  0
 18 19  1  0
 18 57  1  0
 18 58  1  0
 19 20  1  0
 19 21  1  0
 19 59  1  6
 20 60  1  0
 20 61  1  0
 21 22  1  0
 22 62  1  0
 22 63  1  0
 22 64  1  0
 23 42  1  0
 23 24  1  0
 23 65  1  1
 24 35  1  0
 24 25  1  0
 24 66  1  6
 25 26  1  0
 25 67  1  0
 25 68  1  0
 26 36  1  0
 26 27  1  6
 26 28  1  0
 27 69  1  0
 28 29  1  0
 28 70  1  0
 28 71  1  0
 29 30  1  0
 29 72  1  0
 29 73  1  0
 30 31  1  0
 30 38  1  0
 30 74  1  1
 31 32  2  0
 31 33  1  0
 33 36  1  0
 33 34  1  6
 33 35  1  0
 34 75  1  0
 34 76  1  0
 34 77  1  0
 35 36  1  0
 35 78  1  6
 36 37  1  6
 37 79  1  0
 38 39  1  1
 38 40  1  0
 38 42  1  0
 39 80  1  0
 39 81  1  0
 39 82  1  0
 40 41  1  0
 40 83  1  0
 40 84  1  0
 41 85  1  0
 41 86  1  0
 41 87  1  0
 42 88  1  6
M  CHG  1   5   1
M  END
>  <i_m_ct_stereo_status>  (86) 
1

>  <s_m_source_file>  (86) 
/var/tmp/pbs.5102103.sched01/tmp13xrk0lu/22amefgkkz.sdf

>  <i_m_source_file_index>  (86) 
12

>  <i_lp_mmshare_version>  (86) 
48012

>  <i_f3d_flags>  (86) 
0

>  <s_epik_input>  (86) 
W09IXVtDQEBdMTJbQ0BdMyhbT0hdKVtDQEBdNChbQ0gzXSlbQ0BASF0zW0NAQEhdKFtDSDJdMSlbQ0BIXTVbQ0BASF0oW0NAXShbQ0gzXSkoW0NIMl1bQ0gzXSlbQ0BIXShDND1PKVtDSDJdW0NIMl0yKU4oW0NIMl1bQ0gzXSljNmMoYyg9TlxbSF0pXG5bY0hdW25IXTYpW0NASF01Qyg9TylOKFtDSDJdW0NASF03OClbQ0gyXVtDQEBIXShbQ0gyXVtDSDJdNylOOFtDSDNd

>  <s_epik_cmdline>  (86) 
J2VwaWtfcHl0aG9uJywgJy1waHQnLCAnMi4wJywgJy1waCcsICc3LjAnLCAnLXRuJywgJzgnLCAnLW1hJywgJzIwMCcsICctaW1hZScsICc8aW5maWxlLm1hZT4nLCAnLW9tYWUnLCAnPG91dGZpbGUubWFlPic=

>  <r_epik_Ionization_Penalty>  (86) 
2.38087

>  <r_epik_Ionization_Penalty_Charging>  (86) 
0.899419

>  <r_epik_Ionization_Penalty_Neutral>  (86) 
1.48145

>  <r_epik_State_Penalty>  (86) 
2.20649

>  <r_epik_Charging_Adjusted_Penalty>  (86) 
3.10591

>  <i_epik_Tot_Q>  (86) 
1

>  <i_epik_Tot_abs_Q>  (86) 
1

>  <s_lp_Force_Field>  (86) 
OPLS3e

>  <r_lp_Energy>  (86) 
138.635

>  <b_lp_Chiralities_Consistent>  (86) 
1

>  <s_lp_Variant>  (86) 
21:0-6

>  <s_i_glide_gridfile>  (86) 
pfpi4k_grid

>  <i_i_glide_lignum>  (86) 
12

>  <i_i_glide_rotatable_bonds>  (86) 
6

>  <r_i_docking_score>  (86) 
-2.77462

>  <r_i_glide_ligand_efficiency>  (86) 
-0.0660625

>  <r_i_glide_ligand_efficiency_sa>  (86) 
-0.229635

>  <r_i_glide_ligand_efficiency_ln>  (86) 
-0.585652

>  <r_i_glide_gscore>  (86) 
-2.77462

>  <r_i_glide_lipo>  (86) 
-0.102334

>  <r_i_glide_hbond>  (86) 
0

>  <r_i_glide_metal>  (86) 
-0

>  <r_i_glide_rewards>  (86) 
-0.00459681

>  <r_i_glide_evdw>  (86) 
-24.3427

>  <r_i_glide_ecoul>  (86) 
-9.20877

>  <r_i_glide_erotb>  (86) 
0.0251741

>  <r_i_glide_esite>  (86) 
-0.0944185

>  <r_i_glide_emodel>  (86) 
-38.7769

>  <r_i_glide_energy>  (86) 
-33.5514

>  <r_i_glide_einternal>  (86) 
2.72812

>  <r_i_glide_intrahb_reward>  (86) 
-0

>  <i_i_glide_confnum>  (86) 
1

>  <i_i_glide_posenum>  (86) 
1

>  <r_i_glide_eff_state_penalty>  (86) 
0

>  <ligand_id>  (86) 
21

>  <original_smiles>  (86) 
CCN1c2[nH]cnc(=N)c2C(C(=O)N2CC3CCC(C2)N3C)C2C3CC4(O)CCC(C(=O)C5(C)C3C45O)C(C)(CC)C21

>  <smiles>  (86) 
[H]OC12C([H])([H])C([H])([H])C3([H])C(=O)C4(C([H])([H])[H])C([H])(C([H])(C1([H])[H])C1([H])C([H])(C(=O)N5C([H])([H])C6([H])N(C([H])([H])[H])C([H])(C5([H])[H])C([H])([H])C6([H])[H])c5c(N([H])[H])nc([H])[n+]([H])c5N(C([H])([H])C([H])([H])[H])C1([H])C3(C([H])([H])[H])C([H])([H])C([H])([H])[H])C24O[H]

$$$$
21:5:2
     RDKit          3D

 89 96  0  0  1  0  0  0  0  0999 V2000
    6.4286  -10.9188    8.9639 C   0  0  0  0  0  0  0  0  0  0  0  0
    6.7001   -9.5334    8.3583 C   0  0  0  0  0  0  0  0  0  0  0  0
    5.5476   -8.9137    7.6981 N   0  0  0  0  0  0  0  0  0  0  0  0
    4.4451   -8.4664    8.4689 C   0  0  0  0  0  0  0  0  0  0  0  0
    4.6358   -8.2963    9.8050 N   0  0  0  0  0  0  0  0  0  0  0  0
    3.6275   -7.8757   10.5828 C   0  0  0  0  0  0  0  0  0  0  0  0
    2.4054   -7.6588   10.1124 N   0  0  0  0  0  0  0  0  0  0  0  0
    2.1509   -7.8325    8.8141 C   0  0  0  0  0  0  0  0  0  0  0  0
    0.8135   -7.6636    8.4659 N   0  0  0  0  0  0  0  0  0  0  0  0
    3.1672   -8.2295    7.9003 C   0  0  0  0  0  0  0  0  0  0  0  0
    2.8764   -8.5430    6.4278 C   0  0  1  0  0  0  0  0  0  0  0  0
    2.0941   -7.4148    5.6979 C   0  0  0  0  0  0  0  0  0  0  0  0
    2.4035   -6.2486    5.9209 O   0  0  0  0  0  0  0  0  0  0  0  0
    1.0697   -7.7272    4.8754 N   0  0  0  0  0  0  0  0  0  0  0  0
    0.5661   -6.6899    3.9324 C   0  0  0  0  0  0  0  0  0  0  0  0
   -0.6919   -7.1011    3.1404 C   0  0  2  0  0  0  0  0  0  0  0  0
   -1.8974   -7.1863    4.0657 C   0  0  0  0  0  0  0  0  0  0  0  0
   -1.8340   -8.6112    4.5731 C   0  0  0  0  0  0  0  0  0  0  0  0
   -0.6595   -9.2454    3.8487 C   0  0  2  0  0  0  0  0  0  0  0  0
    0.6024   -9.1214    4.6716 C   0  0  0  0  0  0  0  0  0  0  0  0
   -0.4786   -8.4567    2.6524 N   0  0  0  0  0  0  0  0  0  0  0  0
   -1.4415   -8.8710    1.6517 C   0  0  0  0  0  0  0  0  0  0  0  0
    4.1354   -9.0868    5.6789 C   0  0  1  0  0  0  0  0  0  0  0  0
    3.9721   -9.6321    4.2134 C   0  0  2  0  0  0  0  0  0  0  0  0
    5.0759  -10.5649    3.7198 C   0  0  0  0  0  0  0  0  0  0  0  0
    5.8276   -9.8028    2.6309 C   0  0  2  0  0  0  0  0  0  0  0  0
    6.2161  -10.7662    1.6519 O   0  0  0  0  0  0  0  0  0  0  0  0
    7.1271   -9.2052    3.1922 C   0  0  0  0  0  0  0  0  0  0  0  0
    7.2557   -7.6904    3.3185 C   0  0  0  0  0  0  0  0  0  0  0  0
    6.3063   -6.9647    4.2994 C   0  0  1  0  0  0  0  0  0  0  0  0
    4.9674   -6.5884    3.6489 C   0  0  0  0  0  0  0  0  0  0  0  0
    4.4559   -5.5152    3.9738 O   0  0  0  0  0  0  0  0  0  0  0  0
    4.3198   -7.4219    2.5672 C   0  0  2  0  0  0  0  0  0  0  0  0
    3.5653   -6.4927    1.5976 C   0  0  0  0  0  0  0  0  0  0  0  0
    3.6579   -8.6914    3.0315 C   0  0  1  0  0  0  0  0  0  0  0  0
    4.8351   -8.7768    2.0617 C   0  0  2  0  0  0  0  0  0  0  0  0
    4.3938   -9.0576    0.7390 O   0  0  0  0  0  0  0  0  0  0  0  0
    6.3135   -7.3169    5.8412 C   0  0  1  0  0  0  0  0  0  0  0  0
    7.8176   -7.4727    6.2199 C   0  0  0  0  0  0  0  0  0  0  0  0
    5.7845   -6.1160    6.6953 C   0  0  0  0  0  0  0  0  0  0  0  0
    6.3873   -4.7155    6.4424 C   0  0  0  0  0  0  0  0  0  0  0  0
    5.5395   -8.6561    6.2466 C   0  0  1  0  0  0  0  0  0  0  0  0
    0.1686   -7.3161    9.1585 H   0  0  0  0  0  0  0  0  0  0  0  0
    7.3551  -11.3194    9.3766 H   0  0  0  0  0  0  0  0  0  0  0  0
    6.0798  -11.6295    8.2125 H   0  0  0  0  0  0  0  0  0  0  0  0
    5.6992  -10.8871    9.7744 H   0  0  0  0  0  0  0  0  0  0  0  0
    7.0959   -8.8539    9.1137 H   0  0  0  0  0  0  0  0  0  0  0  0
    7.4903   -9.6701    7.6237 H   0  0  0  0  0  0  0  0  0  0  0  0
    3.8369   -7.7359   11.6331 H   0  0  0  0  0  0  0  0  0  0  0  0
    0.4834   -7.7118    7.5138 H   0  0  0  0  0  0  0  0  0  0  0  0
    2.2281   -9.4005    6.5563 H   0  0  0  0  0  0  0  0  0  0  0  0
    0.4227   -5.7130    4.4168 H   0  0  0  0  0  0  0  0  0  0  0  0
    1.3445   -6.5607    3.1895 H   0  0  0  0  0  0  0  0  0  0  0  0
   -0.8556   -6.4337    2.2978 H   0  0  0  0  0  0  0  0  0  0  0  0
   -1.8858   -6.4561    4.8756 H   0  0  0  0  0  0  0  0  0  0  0  0
   -2.8218   -7.0951    3.5080 H   0  0  0  0  0  0  0  0  0  0  0  0
   -1.6942   -8.7044    5.6430 H   0  0  0  0  0  0  0  0  0  0  0  0
   -2.7783   -9.0666    4.2822 H   0  0  0  0  0  0  0  0  0  0  0  0
   -0.8209  -10.2904    3.6225 H   0  0  0  0  0  0  0  0  0  0  0  0
    1.3143   -9.6691    4.0845 H   0  0  0  0  0  0  0  0  0  0  0  0
    0.4183   -9.6584    5.6148 H   0  0  0  0  0  0  0  0  0  0  0  0
   -1.2876   -9.9178    1.3745 H   0  0  0  0  0  0  0  0  0  0  0  0
   -1.2569   -8.2541    0.7725 H   0  0  0  0  0  0  0  0  0  0  0  0
   -2.4858   -8.7731    1.9528 H   0  0  0  0  0  0  0  0  0  0  0  0
    4.1301  -10.0841    6.1315 H   0  0  0  0  0  0  0  0  0  0  0  0
    3.1420  -10.3312    4.2905 H   0  0  0  0  0  0  0  0  0  0  0  0
    5.6915  -10.9948    4.5114 H   0  0  0  0  0  0  0  0  0  0  0  0
    4.5664  -11.4098    3.2568 H   0  0  0  0  0  0  0  0  0  0  0  0
    5.4524  -11.2567    1.3486 H   0  0  0  0  0  0  0  0  0  0  0  0
    7.4460   -9.7023    4.1050 H   0  0  0  0  0  0  0  0  0  0  0  0
    7.9020   -9.4476    2.4891 H   0  0  0  0  0  0  0  0  0  0  0  0
    8.2900   -7.4539    3.5799 H   0  0  0  0  0  0  0  0  0  0  0  0
    7.1487   -7.2466    2.3245 H   0  0  0  0  0  0  0  0  0  0  0  0
    6.7905   -5.9920    4.2857 H   0  0  0  0  0  0  0  0  0  0  0  0
    2.9439   -7.0522    0.9011 H   0  0  0  0  0  0  0  0  0  0  0  0
    4.2633   -5.8837    1.0232 H   0  0  0  0  0  0  0  0  0  0  0  0
    2.9006   -5.8031    2.1112 H   0  0  0  0  0  0  0  0  0  0  0  0
    2.6791   -8.8581    2.5971 H   0  0  0  0  0  0  0  0  0  0  0  0
    4.2236   -9.9866    0.6584 H   0  0  0  0  0  0  0  0  0  0  0  0
    7.9811   -7.5135    7.2926 H   0  0  0  0  0  0  0  0  0  0  0  0
    8.4142   -6.6352    5.8667 H   0  0  0  0  0  0  0  0  0  0  0  0
    8.2665   -8.3650    5.7864 H   0  0  0  0  0  0  0  0  0  0  0  0
    4.7108   -6.0437    6.5812 H   0  0  0  0  0  0  0  0  0  0  0  0
    5.9413   -6.3245    7.7522 H   0  0  0  0  0  0  0  0  0  0  0  0
    6.0019   -4.0144    7.1818 H   0  0  0  0  0  0  0  0  0  0  0  0
    6.1101   -4.3059    5.4717 H   0  0  0  0  0  0  0  0  0  0  0  0
    7.4747   -4.6964    6.5181 H   0  0  0  0  0  0  0  0  0  0  0  0
    6.1902   -9.4409    5.8770 H   0  0  0  0  0  0  0  0  0  0  0  0
    5.5468   -8.4897   10.2213 H   0  0  0  0  0  0  0  0  0  0  0  0
  1  2  1  0
  1 44  1  0
  1 45  1  0
  1 46  1  0
  2 47  1  0
  2 48  1  0
  2  3  1  0
  3  4  1  0
  3 42  1  0
  4  5  1  0
  4 10  2  0
  5  6  2  0
  5 89  1  0
  6 49  1  0
  6  7  1  0
  7  8  2  0
  8 10  1  0
  8  9  1  0
  9 50  1  0
  9 43  1  0
 10 11  1  0
 11 12  1  0
 11 23  1  0
 11 51  1  1
 12 13  2  0
 12 14  1  0
 14 20  1  0
 14 15  1  0
 15 16  1  0
 15 52  1  0
 15 53  1  0
 16 21  1  0
 16 17  1  0
 16 54  1  6
 17 18  1  0
 17 55  1  0
 17 56  1  0
 18 19  1  0
 18 57  1  0
 18 58  1  0
 19 20  1  0
 19 21  1  0
 19 59  1  6
 20 60  1  0
 20 61  1  0
 21 22  1  0
 22 62  1  0
 22 63  1  0
 22 64  1  0
 23 42  1  0
 23 24  1  0
 23 65  1  1
 24 35  1  0
 24 25  1  0
 24 66  1  1
 25 26  1  0
 25 67  1  0
 25 68  1  0
 26 36  1  0
 26 27  1  6
 26 28  1  0
 27 69  1  0
 28 29  1  0
 28 70  1  0
 28 71  1  0
 29 30  1  0
 29 72  1  0
 29 73  1  0
 30 31  1  0
 30 38  1  0
 30 74  1  1
 31 32  2  0
 31 33  1  0
 33 36  1  0
 33 34  1  6
 33 35  1  0
 34 75  1  0
 34 76  1  0
 34 77  1  0
 35 36  1  0
 35 78  1  6
 36 37  1  6
 37 79  1  0
 38 39  1  1
 38 40  1  0
 38 42  1  0
 39 80  1  0
 39 81  1  0
 39 82  1  0
 40 41  1  0
 40 83  1  0
 40 84  1  0
 41 85  1  0
 41 86  1  0
 41 87  1  0
 42 88  1  6
M  CHG  1   5   1
M  END
>  <i_m_ct_stereo_status>  (87) 
1

>  <s_m_source_file>  (87) 
/var/tmp/pbs.5102103.sched01/tmp13xrk0lu/22amefgkkz.sdf

>  <i_m_source_file_index>  (87) 
12

>  <i_lp_mmshare_version>  (87) 
48012

>  <i_f3d_flags>  (87) 
0

>  <s_epik_input>  (87) 
W09IXVtDQEBdMTJbQ0BdMyhbT0hdKVtDQEBdNChbQ0gzXSlbQ0BASF0zW0NAQEhdKFtDSDJdMSlbQ0BIXTVbQ0BASF0oW0NAXShbQ0gzXSkoW0NIMl1bQ0gzXSlbQ0BIXShDND1PKVtDSDJdW0NIMl0yKU4oW0NIMl1bQ0gzXSljNmMoYyg9TlxbSF0pXG5bY0hdW25IXTYpW0NASF01Qyg9TylOKFtDSDJdW0NASF03OClbQ0gyXVtDQEBIXShbQ0gyXVtDSDJdNylOOFtDSDNd

>  <s_epik_cmdline>  (87) 
J2VwaWtfcHl0aG9uJywgJy1waHQnLCAnMi4wJywgJy1waCcsICc3LjAnLCAnLXRuJywgJzgnLCAnLW1hJywgJzIwMCcsICctaW1hZScsICc8aW5maWxlLm1hZT4nLCAnLW9tYWUnLCAnPG91dGZpbGUubWFlPic=

>  <r_epik_Ionization_Penalty>  (87) 
2.38087

>  <r_epik_Ionization_Penalty_Charging>  (87) 
0.899419

>  <r_epik_Ionization_Penalty_Neutral>  (87) 
1.48145

>  <r_epik_State_Penalty>  (87) 
2.20649

>  <r_epik_Charging_Adjusted_Penalty>  (87) 
3.10591

>  <i_epik_Tot_Q>  (87) 
1

>  <i_epik_Tot_abs_Q>  (87) 
1

>  <s_lp_Force_Field>  (87) 
OPLS3e

>  <r_lp_Energy>  (87) 
138.635

>  <b_lp_Chiralities_Consistent>  (87) 
1

>  <s_lp_Variant>  (87) 
21:0-6

>  <s_i_glide_gridfile>  (87) 
pfpi4k_grid

>  <i_i_glide_lignum>  (87) 
12

>  <i_i_glide_rotatable_bonds>  (87) 
6

>  <r_i_docking_score>  (87) 
-1.81275

>  <r_i_glide_ligand_efficiency>  (87) 
-0.0431607

>  <r_i_glide_ligand_efficiency_sa>  (87) 
-0.150028

>  <r_i_glide_ligand_efficiency_ln>  (87) 
-0.382625

>  <r_i_glide_gscore>  (87) 
-1.81275

>  <r_i_glide_lipo>  (87) 
-0.11403

>  <r_i_glide_hbond>  (87) 
0

>  <r_i_glide_metal>  (87) 
-0

>  <r_i_glide_rewards>  (87) 
0

>  <r_i_glide_evdw>  (87) 
-16.6403

>  <r_i_glide_ecoul>  (87) 
-5.71106

>  <r_i_glide_erotb>  (87) 
0.0251741

>  <r_i_glide_esite>  (87) 
-0.0352219

>  <r_i_glide_emodel>  (87) 
-23.877

>  <r_i_glide_energy>  (87) 
-22.3513

>  <r_i_glide_einternal>  (87) 
3.02158

>  <r_i_glide_intrahb_reward>  (87) 
-0

>  <i_i_glide_confnum>  (87) 
2

>  <i_i_glide_posenum>  (87) 
34

>  <r_i_glide_eff_state_penalty>  (87) 
0

>  <ligand_id>  (87) 
21

>  <original_smiles>  (87) 
CCN1c2[nH]cnc(=N)c2C(C(=O)N2CC3CCC(C2)N3C)C2C3CC4(O)CCC(C(=O)C5(C)C3C45O)C(C)(CC)C21

>  <smiles>  (87) 
[H]OC12C([H])([H])C([H])([H])C3([H])C(=O)C4(C([H])([H])[H])C([H])(C([H])(C1([H])[H])C1([H])C([H])(C(=O)N5C([H])([H])C6([H])N(C([H])([H])[H])C([H])(C5([H])[H])C([H])([H])C6([H])[H])c5c(N([H])[H])nc([H])[n+]([H])c5N(C([H])([H])C([H])([H])[H])C1([H])C3(C([H])([H])[H])C([H])([H])C([H])([H])[H])C24O[H]

$$$$
22:0:0
     RDKit          3D

 50 54  0  0  1  0  0  0  0  0999 V2000
    4.2758   -1.2199   -2.8034 C   0  0  0  0  0  0  0  0  0  0  0  0
    5.0058   -0.7436   -1.6846 O   0  0  0  0  0  0  0  0  0  0  0  0
    4.7900   -1.3717   -0.4829 C   0  0  0  0  0  0  0  0  0  0  0  0
    5.3887   -0.8355    0.6036 C   0  0  0  0  0  0  0  0  0  0  0  0
    5.2721   -1.3250    2.0538 C   0  0  1  0  0  0  0  0  0  0  0  0
    6.1199   -0.5480    2.8724 O   0  0  0  0  0  0  0  0  0  0  0  0
    3.8335   -1.3252    2.5972 C   0  0  0  0  0  0  0  0  0  0  0  0
    3.2324   -0.0655    2.8222 C   0  0  0  0  0  0  0  0  0  0  0  0
    1.9136    0.0653    3.3180 C   0  0  0  0  0  0  0  0  0  0  0  0
    1.1731   -1.1141    3.6056 C   0  0  0  0  0  0  0  0  0  0  0  0
    1.7711   -2.3704    3.3742 C   0  0  0  0  0  0  0  0  0  0  0  0
    3.0829   -2.5067    2.8736 C   0  0  0  0  0  0  0  0  0  0  0  0
    3.6170   -3.9341    2.6663 C   0  0  0  0  0  0  0  0  0  0  0  0
    3.5383   -4.4251    1.2209 C   0  0  1  0  0  0  0  0  0  0  0  0
    4.3632   -3.6311    0.2882 C   0  0  0  0  0  0  0  0  0  0  0  0
    3.9137   -2.5204   -0.3258 C   0  0  0  0  0  0  0  0  0  0  0  0
    3.1906   -5.8523    0.8928 C   0  0  0  0  0  0  0  0  0  0  0  0
    2.2357   -4.7897    0.7429 O   0  0  0  0  0  0  0  0  0  0  0  0
   -0.0871   -1.0745    4.0939 N   0  0  0  0  0  0  0  0  0  0  0  0
   -0.6735    0.1175    4.2880 C   0  0  0  0  0  0  0  0  0  0  0  0
   -0.0353    1.3392    4.0335 C   0  0  0  0  0  0  0  0  0  0  0  0
   -0.7094    2.5488    4.2717 C   0  0  0  0  0  0  0  0  0  0  0  0
   -0.0630    3.7681    4.0167 C   0  0  0  0  0  0  0  0  0  0  0  0
   -0.7197    4.9439    4.2212 O   0  0  0  0  0  0  0  0  0  0  0  0
    1.2628    3.7978    3.5363 C   0  0  0  0  0  0  0  0  0  0  0  0
    1.8135    5.0454    3.3196 O   0  0  0  0  0  0  0  0  0  0  0  0
    3.1914    5.1221    2.9902 C   0  0  0  0  0  0  0  0  0  0  0  0
    1.9328    2.5721    3.2904 C   0  0  0  0  0  0  0  0  0  0  0  0
    1.2928    1.3299    3.5378 C   0  0  0  0  0  0  0  0  0  0  0  0
    4.5409   -0.6197   -3.6739 H   0  0  0  0  0  0  0  0  0  0  0  0
    3.1984   -1.1222   -2.6525 H   0  0  0  0  0  0  0  0  0  0  0  0
    4.5261   -2.2578   -3.0292 H   0  0  0  0  0  0  0  0  0  0  0  0
    5.9937    0.0472    0.4549 H   0  0  0  0  0  0  0  0  0  0  0  0
    5.7108   -2.3199    2.1014 H   0  0  0  0  0  0  0  0  0  0  0  0
    6.9302   -0.3817    2.4077 H   0  0  0  0  0  0  0  0  0  0  0  0
    3.8297    0.8002    2.5962 H   0  0  0  0  0  0  0  0  0  0  0  0
    1.1976   -3.2601    3.5913 H   0  0  0  0  0  0  0  0  0  0  0  0
    4.6473   -4.0136    3.0174 H   0  0  0  0  0  0  0  0  0  0  0  0
    3.0430   -4.6235    3.2860 H   0  0  0  0  0  0  0  0  0  0  0  0
    5.4263   -3.7734    0.4064 H   0  0  0  0  0  0  0  0  0  0  0  0
    2.8466   -2.3268   -0.3293 H   0  0  0  0  0  0  0  0  0  0  0  0
    3.5604   -6.2787   -0.0395 H   0  0  0  0  0  0  0  0  0  0  0  0
    2.9601   -6.5497    1.6967 H   0  0  0  0  0  0  0  0  0  0  0  0
   -1.6868    0.0921    4.6659 H   0  0  0  0  0  0  0  0  0  0  0  0
   -1.7226    2.5417    4.6469 H   0  0  0  0  0  0  0  0  0  0  0  0
   -0.1497    5.6323    3.9062 H   0  0  0  0  0  0  0  0  0  0  0  0
    3.4690    6.1609    2.8243 H   0  0  0  0  0  0  0  0  0  0  0  0
    3.4348    4.5720    2.0813 H   0  0  0  0  0  0  0  0  0  0  0  0
    3.8010    4.7400    3.8084 H   0  0  0  0  0  0  0  0  0  0  0  0
    2.9360    2.5965    2.9033 H   0  0  0  0  0  0  0  0  0  0  0  0
  1  2  1  0
  1 30  1  0
  1 31  1  0
  1 32  1  0
  2  3  1  0
  3 16  1  0
  3  4  2  3
  4  5  1  0
  4 33  1  0
  5  6  1  0
  5  7  1  0
  5 34  1  6
  6 35  1  0
  7 12  2  0
  7  8  1  0
  8  9  2  0
  8 36  1  0
  9 29  1  0
  9 10  1  0
 10 11  2  0
 10 19  1  0
 11 12  1  0
 11 37  1  0
 12 13  1  0
 13 14  1  0
 13 38  1  0
 13 39  1  0
 14 18  1  6
 14 15  1  0
 14 17  1  0
 15 16  2  3
 15 40  1  0
 16 41  1  0
 17 18  1  0
 17 42  1  0
 17 43  1  0
 19 20  2  0
 20 21  1  0
 20 44  1  0
 21 29  2  0
 21 22  1  0
 22 23  2  0
 22 45  1  0
 23 24  1  0
 23 25  1  0
 24 46  1  0
 25 26  1  0
 25 28  2  0
 26 27  1  0
 27 47  1  0
 27 48  1  0
 27 49  1  0
 28 29  1  0
 28 50  1  0
M  END
>  <i_m_ct_stereo_status>  (88) 
1

>  <s_m_source_file>  (88) 
/var/tmp/pbs.5102103.sched01/tmp13xrk0lu/22amefgkkz.sdf

>  <i_m_source_file_index>  (88) 
13

>  <i_lp_mmshare_version>  (88) 
48012

>  <i_f3d_flags>  (88) 
0

>  <s_epik_input>  (88) 
W0NIM11PL0MoQyhcW0hdKT1bQ0hdXDEpPVtDSF0vW0NAQEhdKFtPSF0pYyhjMltDSDJdW0NAXTEzW0NIMl1PMylbY0hdYzRjKFtjSF0yKW5bY0hdYzVjNFtjSF1jKGMoW2NIXTUpW09IXSlPW0NIM10=

>  <s_epik_cmdline>  (88) 
J2VwaWtfcHl0aG9uJywgJy1waHQnLCAnMi4wJywgJy1waCcsICc3LjAnLCAnLXRuJywgJzgnLCAnLW1hJywgJzIwMCcsICctaW1hZScsICc8aW5maWxlLm1hZT4nLCAnLW9tYWUnLCAnPG91dGZpbGUubWFlPic=

>  <r_epik_Ionization_Penalty>  (88) 
0.027119

>  <r_epik_Ionization_Penalty_Charging>  (88) 
0

>  <r_epik_Ionization_Penalty_Neutral>  (88) 
0.027119

>  <r_epik_State_Penalty>  (88) 
0.0334349

>  <r_epik_Charging_Adjusted_Penalty>  (88) 
0.0334349

>  <i_epik_Tot_Q>  (88) 
0

>  <i_epik_Tot_abs_Q>  (88) 
0

>  <s_lp_Force_Field>  (88) 
OPLS3e

>  <r_lp_Energy>  (88) 
71.8532

>  <b_lp_Chiralities_Consistent>  (88) 
1

>  <s_lp_Variant>  (88) 
22:0-1

>  <s_i_glide_gridfile>  (88) 
pfpi4k_grid

>  <i_i_glide_lignum>  (88) 
13

>  <i_i_glide_rotatable_bonds>  (88) 
4

>  <r_i_docking_score>  (88) 
-3.41797

>  <r_i_glide_ligand_efficiency>  (88) 
-0.117861

>  <r_i_glide_ligand_efficiency_sa>  (88) 
-0.362106

>  <r_i_glide_ligand_efficiency_ln>  (88) 
-0.782627

>  <r_i_glide_gscore>  (88) 
-3.41797

>  <r_i_glide_lipo>  (88) 
-0.409797

>  <r_i_glide_hbond>  (88) 
-0.234823

>  <r_i_glide_metal>  (88) 
-0

>  <r_i_glide_rewards>  (88) 
-0.740342

>  <r_i_glide_evdw>  (88) 
-29.2297

>  <r_i_glide_ecoul>  (88) 
-3.81013

>  <r_i_glide_erotb>  (88) 
0

>  <r_i_glide_esite>  (88) 
0

>  <r_i_glide_emodel>  (88) 
-40.3022

>  <r_i_glide_energy>  (88) 
-33.0398

>  <r_i_glide_einternal>  (88) 
0.627804

>  <r_i_glide_intrahb_reward>  (88) 
-0

>  <i_i_glide_confnum>  (88) 
1

>  <i_i_glide_posenum>  (88) 
35

>  <r_i_glide_eff_state_penalty>  (88) 
0

>  <ligand_id>  (88) 
22

>  <original_smiles>  (88) 
COC1=CC(O)c2cc3c(cc2CC2(C=C1)CO2)ncc1cc(O)c(OC)cc13

>  <smiles>  (88) 
[H]Oc1c(OC([H])([H])[H])c([H])c2c(c([H])nc3c([H])c4c(c([H])c32)C([H])(O[H])C([H])=C(OC([H])([H])[H])C([H])=C([H])C2(OC2([H])[H])C4([H])[H])c1[H]

$$$$
22:0:1
     RDKit          3D

 50 54  0  0  1  0  0  0  0  0999 V2000
    3.7962   -2.7530   -1.6033 C   0  0  0  0  0  0  0  0  0  0  0  0
    4.4570   -2.1595   -0.4957 O   0  0  0  0  0  0  0  0  0  0  0  0
    4.0793   -2.5782    0.7548 C   0  0  0  0  0  0  0  0  0  0  0  0
    4.6487   -1.9518    1.8073 C   0  0  0  0  0  0  0  0  0  0  0  0
    4.3582   -2.2016    3.2923 C   0  0  1  0  0  0  0  0  0  0  0  0
    5.2317   -1.4074    4.0610 O   0  0  0  0  0  0  0  0  0  0  0  0
    2.8914   -1.9629    3.6923 C   0  0  0  0  0  0  0  0  0  0  0  0
    2.4338   -0.6266    3.6808 C   0  0  0  0  0  0  0  0  0  0  0  0
    1.1060   -0.2806    4.0265 C   0  0  0  0  0  0  0  0  0  0  0  0
    0.2088   -1.3145    4.4094 C   0  0  0  0  0  0  0  0  0  0  0  0
    0.6640   -2.6493    4.4119 C   0  0  0  0  0  0  0  0  0  0  0  0
    1.9833   -3.0007    4.0591 C   0  0  0  0  0  0  0  0  0  0  0  0
    2.3553   -4.4938    4.1053 C   0  0  0  0  0  0  0  0  0  0  0  0
    2.3345   -5.1864    2.7457 C   0  0  1  0  0  0  0  0  0  0  0  0
    3.3212   -4.6370    1.7932 C   0  0  0  0  0  0  0  0  0  0  0  0
    3.0624   -3.5900    0.9892 C   0  0  0  0  0  0  0  0  0  0  0  0
    1.8408   -6.6019    2.5914 C   0  0  0  0  0  0  0  0  0  0  0  0
    1.0415   -5.4749    2.2023 O   0  0  0  0  0  0  0  0  0  0  0  0
   -1.0721   -1.0674    4.7652 N   0  0  0  0  0  0  0  0  0  0  0  0
   -1.5210    0.1973    4.7291 C   0  0  0  0  0  0  0  0  0  0  0  0
   -0.7217    1.2911    4.3664 C   0  0  0  0  0  0  0  0  0  0  0  0
   -1.2583    2.5922    4.3657 C   0  0  0  0  0  0  0  0  0  0  0  0
   -0.4517    3.6820    4.0020 C   0  0  0  0  0  0  0  0  0  0  0  0
   -0.9770    4.9429    3.9622 O   0  0  0  0  0  0  0  0  0  0  0  0
    0.9004    3.4913    3.6493 C   0  0  0  0  0  0  0  0  0  0  0  0
    1.6209    4.6229    3.3168 O   0  0  0  0  0  0  0  0  0  0  0  0
    2.9849    4.4752    2.9514 C   0  0  0  0  0  0  0  0  0  0  0  0
    1.4324    2.1758    3.6414 C   0  0  0  0  0  0  0  0  0  0  0  0
    0.6295    1.0620    4.0033 C   0  0  0  0  0  0  0  0  0  0  0  0
    4.1976   -2.3206   -2.5197 H   0  0  0  0  0  0  0  0  0  0  0  0
    2.7229   -2.5516   -1.5885 H   0  0  0  0  0  0  0  0  0  0  0  0
    3.9692   -3.8302   -1.6427 H   0  0  0  0  0  0  0  0  0  0  0  0
    5.3691   -1.1762    1.5930 H   0  0  0  0  0  0  0  0  0  0  0  0
    4.6647   -3.2185    3.5258 H   0  0  0  0  0  0  0  0  0  0  0  0
    6.1163   -1.6057    3.7908 H   0  0  0  0  0  0  0  0  0  0  0  0
    3.1529    0.1220    3.3936 H   0  0  0  0  0  0  0  0  0  0  0  0
   -0.0290   -3.4291    4.6930 H   0  0  0  0  0  0  0  0  0  0  0  0
    3.3366   -4.6301    4.5618 H   0  0  0  0  0  0  0  0  0  0  0  0
    1.6533   -5.0146    4.7584 H   0  0  0  0  0  0  0  0  0  0  0  0
    4.3451   -4.8763    2.0315 H   0  0  0  0  0  0  0  0  0  0  0  0
    2.0364   -3.2752    0.8557 H   0  0  0  0  0  0  0  0  0  0  0  0
    2.2205   -7.2051    1.7674 H   0  0  0  0  0  0  0  0  0  0  0  0
    1.4611   -7.1392    3.4597 H   0  0  0  0  0  0  0  0  0  0  0  0
   -2.5588    0.3358    5.0034 H   0  0  0  0  0  0  0  0  0  0  0  0
   -2.2926    2.7479    4.6379 H   0  0  0  0  0  0  0  0  0  0  0  0
   -0.3554    5.4866    3.4902 H   0  0  0  0  0  0  0  0  0  0  0  0
    3.3995    5.4460    2.6871 H   0  0  0  0  0  0  0  0  0  0  0  0
    3.1055    3.8259    2.0842 H   0  0  0  0  0  0  0  0  0  0  0  0
    3.5674    4.0818    3.7836 H   0  0  0  0  0  0  0  0  0  0  0  0
    2.4603    2.0328    3.3523 H   0  0  0  0  0  0  0  0  0  0  0  0
  1  2  1  0
  1 30  1  0
  1 31  1  0
  1 32  1  0
  2  3  1  0
  3 16  1  0
  3  4  2  3
  4  5  1  0
  4 33  1  0
  5  6  1  0
  5  7  1  0
  5 34  1  1
  6 35  1  0
  7 12  2  0
  7  8  1  0
  8  9  2  0
  8 36  1  0
  9 29  1  0
  9 10  1  0
 10 11  2  0
 10 19  1  0
 11 12  1  0
 11 37  1  0
 12 13  1  0
 13 14  1  0
 13 38  1  0
 13 39  1  0
 14 18  1  6
 14 15  1  0
 14 17  1  0
 15 16  2  3
 15 40  1  0
 16 41  1  0
 17 18  1  0
 17 42  1  0
 17 43  1  0
 19 20  2  0
 20 21  1  0
 20 44  1  0
 21 29  2  0
 21 22  1  0
 22 23  2  0
 22 45  1  0
 23 24  1  0
 23 25  1  0
 24 46  1  0
 25 26  1  0
 25 28  2  0
 26 27  1  0
 27 47  1  0
 27 48  1  0
 27 49  1  0
 28 29  1  0
 28 50  1  0
M  END
>  <i_m_ct_stereo_status>  (89) 
1

>  <s_m_source_file>  (89) 
/var/tmp/pbs.5102103.sched01/tmp13xrk0lu/22amefgkkz.sdf

>  <i_m_source_file_index>  (89) 
13

>  <i_lp_mmshare_version>  (89) 
48012

>  <i_f3d_flags>  (89) 
0

>  <s_epik_input>  (89) 
W0NIM11PL0MoQyhcW0hdKT1bQ0hdXDEpPVtDSF0vW0NAQEhdKFtPSF0pYyhjMltDSDJdW0NAXTEzW0NIMl1PMylbY0hdYzRjKFtjSF0yKW5bY0hdYzVjNFtjSF1jKGMoW2NIXTUpW09IXSlPW0NIM10=

>  <s_epik_cmdline>  (89) 
J2VwaWtfcHl0aG9uJywgJy1waHQnLCAnMi4wJywgJy1waCcsICc3LjAnLCAnLXRuJywgJzgnLCAnLW1hJywgJzIwMCcsICctaW1hZScsICc8aW5maWxlLm1hZT4nLCAnLW9tYWUnLCAnPG91dGZpbGUubWFlPic=

>  <r_epik_Ionization_Penalty>  (89) 
0.027119

>  <r_epik_Ionization_Penalty_Charging>  (89) 
0

>  <r_epik_Ionization_Penalty_Neutral>  (89) 
0.027119

>  <r_epik_State_Penalty>  (89) 
0.0334349

>  <r_epik_Charging_Adjusted_Penalty>  (89) 
0.0334349

>  <i_epik_Tot_Q>  (89) 
0

>  <i_epik_Tot_abs_Q>  (89) 
0

>  <s_lp_Force_Field>  (89) 
OPLS3e

>  <r_lp_Energy>  (89) 
71.8532

>  <b_lp_Chiralities_Consistent>  (89) 
1

>  <s_lp_Variant>  (89) 
22:0-1

>  <s_i_glide_gridfile>  (89) 
pfpi4k_grid

>  <i_i_glide_lignum>  (89) 
13

>  <i_i_glide_rotatable_bonds>  (89) 
4

>  <r_i_docking_score>  (89) 
-2.86348

>  <r_i_glide_ligand_efficiency>  (89) 
-0.0987408

>  <r_i_glide_ligand_efficiency_sa>  (89) 
-0.303363

>  <r_i_glide_ligand_efficiency_ln>  (89) 
-0.655665

>  <r_i_glide_gscore>  (89) 
-2.86348

>  <r_i_glide_lipo>  (89) 
-0.172797

>  <r_i_glide_hbond>  (89) 
-0.0770113

>  <r_i_glide_metal>  (89) 
-0

>  <r_i_glide_rewards>  (89) 
-0.740342

>  <r_i_glide_evdw>  (89) 
-24.2917

>  <r_i_glide_ecoul>  (89) 
-4.39164

>  <r_i_glide_erotb>  (89) 
0

>  <r_i_glide_esite>  (89) 
0

>  <r_i_glide_emodel>  (89) 
-34.8664

>  <r_i_glide_energy>  (89) 
-28.6834

>  <r_i_glide_einternal>  (89) 
0.31401

>  <r_i_glide_intrahb_reward>  (89) 
-0

>  <i_i_glide_confnum>  (89) 
1

>  <i_i_glide_posenum>  (89) 
38

>  <r_i_glide_eff_state_penalty>  (89) 
0

>  <ligand_id>  (89) 
22

>  <original_smiles>  (89) 
COC1=CC(O)c2cc3c(cc2CC2(C=C1)CO2)ncc1cc(O)c(OC)cc13

>  <smiles>  (89) 
[H]Oc1c(OC([H])([H])[H])c([H])c2c(c([H])nc3c([H])c4c(c([H])c32)C([H])(O[H])C([H])=C(OC([H])([H])[H])C([H])=C([H])C2(OC2([H])[H])C4([H])[H])c1[H]

$$$$
22:0:2
     RDKit          3D

 50 54  0  0  1  0  0  0  0  0999 V2000
    4.2401   -1.3571   -2.7849 C   0  0  0  0  0  0  0  0  0  0  0  0
    4.9752   -0.8781   -1.6697 O   0  0  0  0  0  0  0  0  0  0  0  0
    4.7457   -1.4881   -0.4612 C   0  0  0  0  0  0  0  0  0  0  0  0
    5.3462   -0.9454    0.6194 C   0  0  0  0  0  0  0  0  0  0  0  0
    5.2146   -1.4169    2.0728 C   0  0  1  0  0  0  0  0  0  0  0  0
    6.0790   -0.6533    2.8818 O   0  0  0  0  0  0  0  0  0  0  0  0
    3.7773   -1.3939    2.6156 C   0  0  0  0  0  0  0  0  0  0  0  0
    3.1879   -0.1256    2.8216 C   0  0  0  0  0  0  0  0  0  0  0  0
    1.8703    0.0231    3.3146 C   0  0  0  0  0  0  0  0  0  0  0  0
    1.1170   -1.1441    3.6156 C   0  0  0  0  0  0  0  0  0  0  0  0
    1.7022   -2.4095    3.4004 C   0  0  0  0  0  0  0  0  0  0  0  0
    3.0143   -2.5652    2.9030 C   0  0  0  0  0  0  0  0  0  0  0  0
    3.5359   -4.0022    2.7152 C   0  0  0  0  0  0  0  0  0  0  0  0
    3.4724   -4.5121    1.2780 C   0  0  1  0  0  0  0  0  0  0  0  0
    4.2993   -3.7323    0.3382 C   0  0  0  0  0  0  0  0  0  0  0  0
    3.8591   -2.6279   -0.2921 C   0  0  0  0  0  0  0  0  0  0  0  0
    3.1156   -5.9464    0.9687 C   0  0  0  0  0  0  0  0  0  0  0  0
    2.1808   -4.8747    0.7896 O   0  0  0  0  0  0  0  0  0  0  0  0
   -0.1427   -1.0853    4.0979 N   0  0  0  0  0  0  0  0  0  0  0  0
   -0.7191    0.1165    4.2746 C   0  0  0  0  0  0  0  0  0  0  0  0
   -0.0657    1.3272    4.0047 C   0  0  0  0  0  0  0  0  0  0  0  0
   -0.7292    2.5474    4.2233 C   0  0  0  0  0  0  0  0  0  0  0  0
   -0.0688    3.7584    3.9576 C   0  0  0  0  0  0  0  0  0  0  0  0
   -0.7167    4.9456    4.1477 O   0  0  0  0  0  0  0  0  0  0  0  0
    1.2614    3.7674    3.4873 C   0  0  0  0  0  0  0  0  0  0  0  0
    1.8287    5.0056    3.2682 O   0  0  0  0  0  0  0  0  0  0  0  0
    3.2150    5.0699    2.9652 C   0  0  0  0  0  0  0  0  0  0  0  0
    1.9174    2.5301    3.2556 C   0  0  0  0  0  0  0  0  0  0  0  0
    1.2623    1.2985    3.5150 C   0  0  0  0  0  0  0  0  0  0  0  0
    4.5152   -0.7701   -3.6605 H   0  0  0  0  0  0  0  0  0  0  0  0
    3.1640   -1.2428   -2.6370 H   0  0  0  0  0  0  0  0  0  0  0  0
    4.4750   -2.4014   -2.9976 H   0  0  0  0  0  0  0  0  0  0  0  0
    5.9734   -0.0796    0.4699 H   0  0  0  0  0  0  0  0  0  0  0  0
    5.6416   -2.4142    2.1378 H   0  0  0  0  0  0  0  0  0  0  0  0
    5.6502    0.1614    3.0941 H   0  0  0  0  0  0  0  0  0  0  0  0
    3.7886    0.7332    2.5790 H   0  0  0  0  0  0  0  0  0  0  0  0
    1.1181   -3.2929    3.6251 H   0  0  0  0  0  0  0  0  0  0  0  0
    4.5624   -4.0859    3.0752 H   0  0  0  0  0  0  0  0  0  0  0  0
    2.9518   -4.6784    3.3423 H   0  0  0  0  0  0  0  0  0  0  0  0
    5.3594   -3.8851    0.4598 H   0  0  0  0  0  0  0  0  0  0  0  0
    2.7929   -2.4231   -0.3044 H   0  0  0  0  0  0  0  0  0  0  0  0
    3.4735   -6.3921    0.0429 H   0  0  0  0  0  0  0  0  0  0  0  0
    2.8547   -6.6260    1.7765 H   0  0  0  0  0  0  0  0  0  0  0  0
   -1.7329    0.1039    4.6468 H   0  0  0  0  0  0  0  0  0  0  0  0
   -1.7434    2.5554    4.5958 H   0  0  0  0  0  0  0  0  0  0  0  0
   -0.1425    5.6286    3.8253 H   0  0  0  0  0  0  0  0  0  0  0  0
    3.4988    6.1037    2.7831 H   0  0  0  0  0  0  0  0  0  0  0  0
    3.4803    4.5052    2.0731 H   0  0  0  0  0  0  0  0  0  0  0  0
    3.8026    4.7023    3.8049 H   0  0  0  0  0  0  0  0  0  0  0  0
    2.9225    2.5417    2.8727 H   0  0  0  0  0  0  0  0  0  0  0  0
  1  2  1  0
  1 30  1  0
  1 31  1  0
  1 32  1  0
  2  3  1  0
  3 16  1  0
  3  4  2  3
  4  5  1  0
  4 33  1  0
  5  6  1  0
  5  7  1  0
  5 34  1  6
  6 35  1  0
  7 12  2  0
  7  8  1  0
  8  9  2  0
  8 36  1  0
  9 29  1  0
  9 10  1  0
 10 11  2  0
 10 19  1  0
 11 12  1  0
 11 37  1  0
 12 13  1  0
 13 14  1  0
 13 38  1  0
 13 39  1  0
 14 18  1  6
 14 15  1  0
 14 17  1  0
 15 16  2  3
 15 40  1  0
 16 41  1  0
 17 18  1  0
 17 42  1  0
 17 43  1  0
 19 20  2  0
 20 21  1  0
 20 44  1  0
 21 29  2  0
 21 22  1  0
 22 23  2  0
 22 45  1  0
 23 24  1  0
 23 25  1  0
 24 46  1  0
 25 26  1  0
 25 28  2  0
 26 27  1  0
 27 47  1  0
 27 48  1  0
 27 49  1  0
 28 29  1  0
 28 50  1  0
M  END
>  <i_m_ct_stereo_status>  (90) 
1

>  <s_m_source_file>  (90) 
/var/tmp/pbs.5102103.sched01/tmp13xrk0lu/22amefgkkz.sdf

>  <i_m_source_file_index>  (90) 
13

>  <i_lp_mmshare_version>  (90) 
48012

>  <i_f3d_flags>  (90) 
0

>  <s_epik_input>  (90) 
W0NIM11PL0MoQyhcW0hdKT1bQ0hdXDEpPVtDSF0vW0NAQEhdKFtPSF0pYyhjMltDSDJdW0NAXTEzW0NIMl1PMylbY0hdYzRjKFtjSF0yKW5bY0hdYzVjNFtjSF1jKGMoW2NIXTUpW09IXSlPW0NIM10=

>  <s_epik_cmdline>  (90) 
J2VwaWtfcHl0aG9uJywgJy1waHQnLCAnMi4wJywgJy1waCcsICc3LjAnLCAnLXRuJywgJzgnLCAnLW1hJywgJzIwMCcsICctaW1hZScsICc8aW5maWxlLm1hZT4nLCAnLW9tYWUnLCAnPG91dGZpbGUubWFlPic=

>  <r_epik_Ionization_Penalty>  (90) 
0.027119

>  <r_epik_Ionization_Penalty_Charging>  (90) 
0

>  <r_epik_Ionization_Penalty_Neutral>  (90) 
0.027119

>  <r_epik_State_Penalty>  (90) 
0.0334349

>  <r_epik_Charging_Adjusted_Penalty>  (90) 
0.0334349

>  <i_epik_Tot_Q>  (90) 
0

>  <i_epik_Tot_abs_Q>  (90) 
0

>  <s_lp_Force_Field>  (90) 
OPLS3e

>  <r_lp_Energy>  (90) 
71.8532

>  <b_lp_Chiralities_Consistent>  (90) 
1

>  <s_lp_Variant>  (90) 
22:0-1

>  <s_i_glide_gridfile>  (90) 
pfpi4k_grid

>  <i_i_glide_lignum>  (90) 
13

>  <i_i_glide_rotatable_bonds>  (90) 
4

>  <r_i_docking_score>  (90) 
-2.83832

>  <r_i_glide_ligand_efficiency>  (90) 
-0.097873

>  <r_i_glide_ligand_efficiency_sa>  (90) 
-0.300697

>  <r_i_glide_ligand_efficiency_ln>  (90) 
-0.649903

>  <r_i_glide_gscore>  (90) 
-2.83832

>  <r_i_glide_lipo>  (90) 
-0.395253

>  <r_i_glide_hbond>  (90) 
-0.0244215

>  <r_i_glide_metal>  (90) 
-0

>  <r_i_glide_rewards>  (90) 
-0.740342

>  <r_i_glide_evdw>  (90) 
-29.3048

>  <r_i_glide_ecoul>  (90) 
-1.4204

>  <r_i_glide_erotb>  (90) 
0

>  <r_i_glide_esite>  (90) 
0

>  <r_i_glide_emodel>  (90) 
-36.4724

>  <r_i_glide_energy>  (90) 
-30.7252

>  <r_i_glide_einternal>  (90) 
0.896348

>  <r_i_glide_intrahb_reward>  (90) 
-0

>  <i_i_glide_confnum>  (90) 
1

>  <i_i_glide_posenum>  (90) 
30

>  <r_i_glide_eff_state_penalty>  (90) 
0

>  <ligand_id>  (90) 
22

>  <original_smiles>  (90) 
COC1=CC(O)c2cc3c(cc2CC2(C=C1)CO2)ncc1cc(O)c(OC)cc13

>  <smiles>  (90) 
[H]Oc1c(OC([H])([H])[H])c([H])c2c(c([H])nc3c([H])c4c(c([H])c32)C([H])(O[H])C([H])=C(OC([H])([H])[H])C([H])=C([H])C2(OC2([H])[H])C4([H])[H])c1[H]

$$$$
22:1:0
     RDKit          3D

 50 54  0  0  1  0  0  0  0  0999 V2000
    2.0351    1.9160    7.8341 C   0  0  0  0  0  0  0  0  0  0  0  0
    0.9759    1.0662    7.4076 O   0  0  0  0  0  0  0  0  0  0  0  0
   -0.2247    1.6612    7.0995 C   0  0  0  0  0  0  0  0  0  0  0  0
   -1.1962    0.9236    6.5371 C   0  0  0  0  0  0  0  0  0  0  0  0
   -0.9305   -0.3357    5.7549 C   0  0  1  0  0  0  0  0  0  0  0  0
   -2.1604   -0.9433    5.4289 O   0  0  0  0  0  0  0  0  0  0  0  0
   -0.0600   -0.0703    4.5080 C   0  0  0  0  0  0  0  0  0  0  0  0
    0.9807   -0.9980    4.2708 C   0  0  0  0  0  0  0  0  0  0  0  0
    1.9013   -0.8545    3.2033 C   0  0  0  0  0  0  0  0  0  0  0  0
    1.7792    0.2679    2.3398 C   0  0  0  0  0  0  0  0  0  0  0  0
    0.7343    1.1868    2.5650 C   0  0  0  0  0  0  0  0  0  0  0  0
   -0.1921    1.0485    3.6213 C   0  0  0  0  0  0  0  0  0  0  0  0
   -1.2597    2.1592    3.7031 C   0  0  0  0  0  0  0  0  0  0  0  0
   -0.7874    3.4719    4.3649 C   0  0  1  0  0  0  0  0  0  0  0  0
    0.1162    3.3311    5.5417 C   0  0  0  0  0  0  0  0  0  0  0  0
   -0.3655    3.0656    6.7728 C   0  0  0  0  0  0  0  0  0  0  0  0
   -0.7200    4.7355    3.5430 C   0  0  0  0  0  0  0  0  0  0  0  0
   -1.7760    4.5065    4.4826 O   0  0  0  0  0  0  0  0  0  0  0  0
    2.6239    0.4810    1.3057 N   0  0  0  0  0  0  0  0  0  0  0  0
    3.6004   -0.4076    1.0644 C   0  0  0  0  0  0  0  0  0  0  0  0
    3.8141   -1.5431    1.8570 C   0  0  0  0  0  0  0  0  0  0  0  0
    4.8683   -2.4245    1.5604 C   0  0  0  0  0  0  0  0  0  0  0  0
    5.0866   -3.5601    2.3600 C   0  0  0  0  0  0  0  0  0  0  0  0
    6.1110   -4.4142    2.0523 O   0  0  0  0  0  0  0  0  0  0  0  0
    4.2569   -3.8224    3.4726 C   0  0  0  0  0  0  0  0  0  0  0  0
    4.5388   -4.9526    4.2107 O   0  0  0  0  0  0  0  0  0  0  0  0
    3.7302   -5.2525    5.3375 C   0  0  0  0  0  0  0  0  0  0  0  0
    3.1911   -2.9292    3.7628 C   0  0  0  0  0  0  0  0  0  0  0  0
    2.9558   -1.7829    2.9591 C   0  0  0  0  0  0  0  0  0  0  0  0
    2.8561    1.3056    8.2118 H   0  0  0  0  0  0  0  0  0  0  0  0
    1.7337    2.5910    8.6367 H   0  0  0  0  0  0  0  0  0  0  0  0
    2.4304    2.4976    7.0011 H   0  0  0  0  0  0  0  0  0  0  0  0
   -2.1030    1.4266    6.2342 H   0  0  0  0  0  0  0  0  0  0  0  0
   -0.4070   -1.0269    6.4155 H   0  0  0  0  0  0  0  0  0  0  0  0
   -1.9679   -1.6726    4.8578 H   0  0  0  0  0  0  0  0  0  0  0  0
    1.0659   -1.8236    4.9553 H   0  0  0  0  0  0  0  0  0  0  0  0
    0.6382    2.0273    1.8908 H   0  0  0  0  0  0  0  0  0  0  0  0
   -1.5904    2.3941    2.6905 H   0  0  0  0  0  0  0  0  0  0  0  0
   -2.1570    1.7980    4.1985 H   0  0  0  0  0  0  0  0  0  0  0  0
    1.0247    2.8202    5.2529 H   0  0  0  0  0  0  0  0  0  0  0  0
   -1.3376    3.4767    7.0160 H   0  0  0  0  0  0  0  0  0  0  0  0
   -0.0164    5.5162    3.8233 H   0  0  0  0  0  0  0  0  0  0  0  0
   -1.0485    4.7221    2.5075 H   0  0  0  0  0  0  0  0  0  0  0  0
    4.2330   -0.1964    0.2134 H   0  0  0  0  0  0  0  0  0  0  0  0
    5.5048   -2.2187    0.7103 H   0  0  0  0  0  0  0  0  0  0  0  0
    6.5918   -4.1669    1.2755 H   0  0  0  0  0  0  0  0  0  0  0  0
    4.0895   -6.1711    5.7976 H   0  0  0  0  0  0  0  0  0  0  0  0
    2.6908   -5.4157    5.0515 H   0  0  0  0  0  0  0  0  0  0  0  0
    3.7835   -4.4659    6.0892 H   0  0  0  0  0  0  0  0  0  0  0  0
    2.5608   -3.1351    4.6080 H   0  0  0  0  0  0  0  0  0  0  0  0
  1  2  1  0
  1 30  1  0
  1 31  1  0
  1 32  1  0
  2  3  1  0
  3 16  1  0
  3  4  2  3
  4  5  1  0
  4 33  1  0
  5  6  1  0
  5  7  1  0
  5 34  1  1
  6 35  1  0
  7 12  2  0
  7  8  1  0
  8  9  2  0
  8 36  1  0
  9 29  1  0
  9 10  1  0
 10 11  2  0
 10 19  1  0
 11 12  1  0
 11 37  1  0
 12 13  1  0
 13 14  1  0
 13 38  1  0
 13 39  1  0
 14 18  1  1
 14 15  1  0
 14 17  1  0
 15 16  2  3
 15 40  1  0
 16 41  1  0
 17 18  1  0
 17 42  1  0
 17 43  1  0
 19 20  2  0
 20 21  1  0
 20 44  1  0
 21 29  2  0
 21 22  1  0
 22 23  2  0
 22 45  1  0
 23 24  1  0
 23 25  1  0
 24 46  1  0
 25 26  1  0
 25 28  2  0
 26 27  1  0
 27 47  1  0
 27 48  1  0
 27 49  1  0
 28 29  1  0
 28 50  1  0
M  END
>  <i_m_ct_stereo_status>  (91) 
1

>  <s_m_source_file>  (91) 
/var/tmp/pbs.5102103.sched01/tmp13xrk0lu/22amefgkkz.sdf

>  <i_m_source_file_index>  (91) 
14

>  <i_lp_mmshare_version>  (91) 
48012

>  <i_f3d_flags>  (91) 
0

>  <s_epik_input>  (91) 
W0NIM11PL0MoQyhcW0hdKT1bQ0hdXDEpPVtDSF0vW0NAQEhdKFtPSF0pYyhjMltDSDJdW0NAXTEzW0NIMl1PMylbY0hdYzRjKFtjSF0yKW5bY0hdYzVjNFtjSF1jKGMoW2NIXTUpW09IXSlPW0NIM10=

>  <s_epik_cmdline>  (91) 
J2VwaWtfcHl0aG9uJywgJy1waHQnLCAnMi4wJywgJy1waCcsICc3LjAnLCAnLXRuJywgJzgnLCAnLW1hJywgJzIwMCcsICctaW1hZScsICc8aW5maWxlLm1hZT4nLCAnLW9tYWUnLCAnPG91dGZpbGUubWFlPic=

>  <r_epik_Ionization_Penalty>  (91) 
0.027119

>  <r_epik_Ionization_Penalty_Charging>  (91) 
0

>  <r_epik_Ionization_Penalty_Neutral>  (91) 
0.027119

>  <r_epik_State_Penalty>  (91) 
0.0334349

>  <r_epik_Charging_Adjusted_Penalty>  (91) 
0.0334349

>  <i_epik_Tot_Q>  (91) 
0

>  <i_epik_Tot_abs_Q>  (91) 
0

>  <s_lp_Force_Field>  (91) 
OPLS3e

>  <r_lp_Energy>  (91) 
107.062

>  <b_lp_Chiralities_Consistent>  (91) 
1

>  <s_lp_Variant>  (91) 
22:0-2

>  <s_i_glide_gridfile>  (91) 
pfpi4k_grid

>  <i_i_glide_lignum>  (91) 
14

>  <i_i_glide_rotatable_bonds>  (91) 
4

>  <r_i_docking_score>  (91) 
-2.60968

>  <r_i_glide_ligand_efficiency>  (91) 
-0.089989

>  <r_i_glide_ligand_efficiency_sa>  (91) 
-0.276475

>  <r_i_glide_ligand_efficiency_ln>  (91) 
-0.59755

>  <r_i_glide_gscore>  (91) 
-2.60968

>  <r_i_glide_lipo>  (91) 
-0.0811373

>  <r_i_glide_hbond>  (91) 
-0.10037

>  <r_i_glide_metal>  (91) 
-0

>  <r_i_glide_rewards>  (91) 
-0.740342

>  <r_i_glide_evdw>  (91) 
-22.0034

>  <r_i_glide_ecoul>  (91) 
-3.91775

>  <r_i_glide_erotb>  (91) 
0

>  <r_i_glide_esite>  (91) 
0

>  <r_i_glide_emodel>  (91) 
-30.4662

>  <r_i_glide_energy>  (91) 
-25.9211

>  <r_i_glide_einternal>  (91) 
0.808658

>  <r_i_glide_intrahb_reward>  (91) 
-0

>  <i_i_glide_confnum>  (91) 
2

>  <i_i_glide_posenum>  (91) 
22

>  <r_i_glide_eff_state_penalty>  (91) 
0

>  <ligand_id>  (91) 
22

>  <original_smiles>  (91) 
COC1=CC(O)c2cc3c(cc2CC2(C=C1)CO2)ncc1cc(O)c(OC)cc13

>  <smiles>  (91) 
[H]Oc1c(OC([H])([H])[H])c([H])c2c(c([H])nc3c([H])c4c(c([H])c32)C([H])(O[H])C([H])=C(OC([H])([H])[H])C([H])=C([H])C2(OC2([H])[H])C4([H])[H])c1[H]

$$$$
22:1:1
     RDKit          3D

 50 54  0  0  1  0  0  0  0  0999 V2000
    2.2463   -4.5822    3.8333 C   0  0  0  0  0  0  0  0  0  0  0  0
    3.1854   -3.5615    4.1502 O   0  0  0  0  0  0  0  0  0  0  0  0
    4.2011   -3.3346    3.2495 C   0  0  0  0  0  0  0  0  0  0  0  0
    5.0009   -2.2691    3.4203 C   0  0  0  0  0  0  0  0  0  0  0  0
    4.5897   -1.0291    4.1727 C   0  0  1  0  0  0  0  0  0  0  0  0
    5.6807   -0.1356    4.2358 O   0  0  0  0  0  0  0  0  0  0  0  0
    3.3571   -0.3553    3.5442 C   0  0  0  0  0  0  0  0  0  0  0  0
    2.3527    0.0775    4.4447 C   0  0  0  0  0  0  0  0  0  0  0  0
    1.1499    0.6802    4.0026 C   0  0  0  0  0  0  0  0  0  0  0  0
    0.9416    0.8427    2.6068 C   0  0  0  0  0  0  0  0  0  0  0  0
    1.9446    0.4239    1.7128 C   0  0  0  0  0  0  0  0  0  0  0  0
    3.1533   -0.1632    2.1376 C   0  0  0  0  0  0  0  0  0  0  0  0
    4.1297   -0.5529    1.0051 C   0  0  0  0  0  0  0  0  0  0  0  0
    3.8033   -1.8791    0.2838 C   0  0  1  0  0  0  0  0  0  0  0  0
    3.3071   -2.9894    1.1422 C   0  0  0  0  0  0  0  0  0  0  0  0
    4.1529   -3.7548    1.8632 C   0  0  0  0  0  0  0  0  0  0  0  0
    3.4201   -1.8620   -1.1745 C   0  0  0  0  0  0  0  0  0  0  0  0
    4.7257   -2.2668   -0.7429 O   0  0  0  0  0  0  0  0  0  0  0  0
   -0.1849    1.3907    2.1088 N   0  0  0  0  0  0  0  0  0  0  0  0
   -1.1338    1.8309    2.9471 C   0  0  0  0  0  0  0  0  0  0  0  0
   -1.0276    1.7251    4.3404 C   0  0  0  0  0  0  0  0  0  0  0  0
   -2.0649    2.1964    5.1625 C   0  0  0  0  0  0  0  0  0  0  0  0
   -1.9689    2.0737    6.5573 C   0  0  0  0  0  0  0  0  0  0  0  0
   -3.0139    2.4961    7.3236 O   0  0  0  0  0  0  0  0  0  0  0  0
   -0.8199    1.4901    7.1437 C   0  0  0  0  0  0  0  0  0  0  0  0
   -0.7051    1.3013    8.5011 O   0  0  0  0  0  0  0  0  0  0  0  0
   -0.6617    2.4792    9.3018 C   0  0  0  0  0  0  0  0  0  0  0  0
    0.2100    1.0058    6.3080 C   0  0  0  0  0  0  0  0  0  0  0  0
    0.1310    1.1290    4.8970 C   0  0  0  0  0  0  0  0  0  0  0  0
    1.6199   -4.7738    4.7054 H   0  0  0  0  0  0  0  0  0  0  0  0
    2.7245   -5.5248    3.5595 H   0  0  0  0  0  0  0  0  0  0  0  0
    1.5826   -4.2646    3.0293 H   0  0  0  0  0  0  0  0  0  0  0  0
    5.7496   -2.0725    2.6672 H   0  0  0  0  0  0  0  0  0  0  0  0
    4.3550   -1.3413    5.1902 H   0  0  0  0  0  0  0  0  0  0  0  0
    5.4538    0.5740    4.8173 H   0  0  0  0  0  0  0  0  0  0  0  0
    2.5321   -0.0736    5.4950 H   0  0  0  0  0  0  0  0  0  0  0  0
    1.7723    0.5462    0.6549 H   0  0  0  0  0  0  0  0  0  0  0  0
    4.1389    0.2423    0.2592 H   0  0  0  0  0  0  0  0  0  0  0  0
    5.1550   -0.5721    1.3664 H   0  0  0  0  0  0  0  0  0  0  0  0
    2.3891   -2.6905    1.6314 H   0  0  0  0  0  0  0  0  0  0  0  0
    5.1267   -3.9412    1.4266 H   0  0  0  0  0  0  0  0  0  0  0  0
    2.7866   -2.6586   -1.5599 H   0  0  0  0  0  0  0  0  0  0  0  0
    3.3850   -0.9101   -1.7012 H   0  0  0  0  0  0  0  0  0  0  0  0
   -2.0011    2.2810    2.4879 H   0  0  0  0  0  0  0  0  0  0  0  0
   -2.9539    2.6202    4.7192 H   0  0  0  0  0  0  0  0  0  0  0  0
   -2.7926    2.5178    8.2422 H   0  0  0  0  0  0  0  0  0  0  0  0
   -0.6585    2.2015   10.3581 H   0  0  0  0  0  0  0  0  0  0  0  0
   -1.5095    3.1489    9.1602 H   0  0  0  0  0  0  0  0  0  0  0  0
    0.2465    3.0431    9.0894 H   0  0  0  0  0  0  0  0  0  0  0  0
    1.0508    0.5496    6.8033 H   0  0  0  0  0  0  0  0  0  0  0  0
  1  2  1  0
  1 30  1  0
  1 31  1  0
  1 32  1  0
  2  3  1  0
  3 16  1  0
  3  4  2  3
  4  5  1  0
  4 33  1  0
  5  6  1  0
  5  7  1  0
  5 34  1  1
  6 35  1  0
  7 12  2  0
  7  8  1  0
  8  9  2  0
  8 36  1  0
  9 29  1  0
  9 10  1  0
 10 11  2  0
 10 19  1  0
 11 12  1  0
 11 37  1  0
 12 13  1  0
 13 14  1  0
 13 38  1  0
 13 39  1  0
 14 18  1  6
 14 15  1  0
 14 17  1  0
 15 16  2  3
 15 40  1  0
 16 41  1  0
 17 18  1  0
 17 42  1  0
 17 43  1  0
 19 20  2  0
 20 21  1  0
 20 44  1  0
 21 29  2  0
 21 22  1  0
 22 23  2  0
 22 45  1  0
 23 24  1  0
 23 25  1  0
 24 46  1  0
 25 26  1  0
 25 28  2  0
 26 27  1  0
 27 47  1  0
 27 48  1  0
 27 49  1  0
 28 29  1  0
 28 50  1  0
M  END
>  <i_m_ct_stereo_status>  (92) 
1

>  <s_m_source_file>  (92) 
/var/tmp/pbs.5102103.sched01/tmp13xrk0lu/22amefgkkz.sdf

>  <i_m_source_file_index>  (92) 
14

>  <i_lp_mmshare_version>  (92) 
48012

>  <i_f3d_flags>  (92) 
0

>  <s_epik_input>  (92) 
W0NIM11PL0MoQyhcW0hdKT1bQ0hdXDEpPVtDSF0vW0NAQEhdKFtPSF0pYyhjMltDSDJdW0NAXTEzW0NIMl1PMylbY0hdYzRjKFtjSF0yKW5bY0hdYzVjNFtjSF1jKGMoW2NIXTUpW09IXSlPW0NIM10=

>  <s_epik_cmdline>  (92) 
J2VwaWtfcHl0aG9uJywgJy1waHQnLCAnMi4wJywgJy1waCcsICc3LjAnLCAnLXRuJywgJzgnLCAnLW1hJywgJzIwMCcsICctaW1hZScsICc8aW5maWxlLm1hZT4nLCAnLW9tYWUnLCAnPG91dGZpbGUubWFlPic=

>  <r_epik_Ionization_Penalty>  (92) 
0.027119

>  <r_epik_Ionization_Penalty_Charging>  (92) 
0

>  <r_epik_Ionization_Penalty_Neutral>  (92) 
0.027119

>  <r_epik_State_Penalty>  (92) 
0.0334349

>  <r_epik_Charging_Adjusted_Penalty>  (92) 
0.0334349

>  <i_epik_Tot_Q>  (92) 
0

>  <i_epik_Tot_abs_Q>  (92) 
0

>  <s_lp_Force_Field>  (92) 
OPLS3e

>  <r_lp_Energy>  (92) 
107.062

>  <b_lp_Chiralities_Consistent>  (92) 
1

>  <s_lp_Variant>  (92) 
22:0-2

>  <s_i_glide_gridfile>  (92) 
pfpi4k_grid

>  <i_i_glide_lignum>  (92) 
14

>  <i_i_glide_rotatable_bonds>  (92) 
4

>  <r_i_docking_score>  (92) 
-2.54374

>  <r_i_glide_ligand_efficiency>  (92) 
-0.0877152

>  <r_i_glide_ligand_efficiency_sa>  (92) 
-0.269489

>  <r_i_glide_ligand_efficiency_ln>  (92) 
-0.582452

>  <r_i_glide_gscore>  (92) 
-2.54374

>  <r_i_glide_lipo>  (92) 
-0.203852

>  <r_i_glide_hbond>  (92) 
0

>  <r_i_glide_metal>  (92) 
-0

>  <r_i_glide_rewards>  (92) 
-0.740342

>  <r_i_glide_evdw>  (92) 
-26.5389

>  <r_i_glide_ecoul>  (92) 
-1.81735

>  <r_i_glide_erotb>  (92) 
0

>  <r_i_glide_esite>  (92) 
0

>  <r_i_glide_emodel>  (92) 
-29.5439

>  <r_i_glide_energy>  (92) 
-28.3562

>  <r_i_glide_einternal>  (92) 
7.12956

>  <r_i_glide_intrahb_reward>  (92) 
-0

>  <i_i_glide_confnum>  (92) 
2

>  <i_i_glide_posenum>  (92) 
5

>  <r_i_glide_eff_state_penalty>  (92) 
0

>  <ligand_id>  (92) 
22

>  <original_smiles>  (92) 
COC1=CC(O)c2cc3c(cc2CC2(C=C1)CO2)ncc1cc(O)c(OC)cc13

>  <smiles>  (92) 
[H]Oc1c(OC([H])([H])[H])c([H])c2c(c([H])nc3c([H])c4c(c([H])c32)C([H])(O[H])C([H])=C(OC([H])([H])[H])C([H])=C([H])C2(OC2([H])[H])C4([H])[H])c1[H]

$$$$
22:1:2
     RDKit          3D

 50 54  0  0  1  0  0  0  0  0999 V2000
    2.8473   -4.5707    3.6166 C   0  0  0  0  0  0  0  0  0  0  0  0
    3.7288   -3.4871    3.8887 O   0  0  0  0  0  0  0  0  0  0  0  0
    4.6504   -3.1626    2.9216 C   0  0  0  0  0  0  0  0  0  0  0  0
    5.3789   -2.0405    3.0614 C   0  0  0  0  0  0  0  0  0  0  0  0
    4.9446   -0.8612    3.8956 C   0  0  1  0  0  0  0  0  0  0  0  0
    5.9552    0.1250    3.9216 O   0  0  0  0  0  0  0  0  0  0  0  0
    3.6278   -0.2667    3.3778 C   0  0  0  0  0  0  0  0  0  0  0  0
    2.6696    0.0697    4.3579 C   0  0  0  0  0  0  0  0  0  0  0  0
    1.3999    0.5968    4.0228 C   0  0  0  0  0  0  0  0  0  0  0  0
    1.0744    0.7917    2.6548 C   0  0  0  0  0  0  0  0  0  0  0  0
    2.0324    0.4600    1.6819 C   0  0  0  0  0  0  0  0  0  0  0  0
    3.3055   -0.0536    1.9973 C   0  0  0  0  0  0  0  0  0  0  0  0
    4.2233   -0.3403    0.7897 C   0  0  0  0  0  0  0  0  0  0  0  0
    3.9285   -1.6621    0.0466 C   0  0  1  0  0  0  0  0  0  0  0  0
    3.5784   -2.8311    0.9017 C   0  0  0  0  0  0  0  0  0  0  0  0
    4.5270   -3.5518    1.5322 C   0  0  0  0  0  0  0  0  0  0  0  0
    3.4330   -1.6354   -1.3781 C   0  0  0  0  0  0  0  0  0  0  0  0
    4.7948   -1.9521   -1.0576 O   0  0  0  0  0  0  0  0  0  0  0  0
   -0.1198    1.2781    2.2548 N   0  0  0  0  0  0  0  0  0  0  0  0
   -1.0312    1.6196    3.1765 C   0  0  0  0  0  0  0  0  0  0  0  0
   -0.8059    1.4661    4.5524 C   0  0  0  0  0  0  0  0  0  0  0  0
   -1.7960    1.8368    5.4717 C   0  0  0  0  0  0  0  0  0  0  0  0
   -1.5933    1.6590    6.8496 C   0  0  0  0  0  0  0  0  0  0  0  0
   -2.5840    1.9945    7.7267 O   0  0  0  0  0  0  0  0  0  0  0  0
   -0.3784    1.1225    7.3284 C   0  0  0  0  0  0  0  0  0  0  0  0
   -0.2576    0.9726    8.6935 O   0  0  0  0  0  0  0  0  0  0  0  0
    0.9682    0.4894    9.2221 C   0  0  0  0  0  0  0  0  0  0  0  0
    0.6323    0.7701    6.3963 C   0  0  0  0  0  0  0  0  0  0  0  0
    0.4265    0.9370    5.0028 C   0  0  0  0  0  0  0  0  0  0  0  0
    2.3024   -4.8271    4.5265 H   0  0  0  0  0  0  0  0  0  0  0  0
    3.3729   -5.4695    3.2838 H   0  0  0  0  0  0  0  0  0  0  0  0
    2.1061   -4.2866    2.8706 H   0  0  0  0  0  0  0  0  0  0  0  0
    6.0493   -1.7741    2.2591 H   0  0  0  0  0  0  0  0  0  0  0  0
    4.8029   -1.2232    4.9149 H   0  0  0  0  0  0  0  0  0  0  0  0
    6.7525   -0.2642    4.2436 H   0  0  0  0  0  0  0  0  0  0  0  0
    2.9472   -0.0975    5.3816 H   0  0  0  0  0  0  0  0  0  0  0  0
    1.7659    0.5963    0.6490 H   0  0  0  0  0  0  0  0  0  0  0  0
    4.1369    0.4776    0.0803 H   0  0  0  0  0  0  0  0  0  0  0  0
    5.2734   -0.2995    1.0699 H   0  0  0  0  0  0  0  0  0  0  0  0
    2.6840   -2.6104    1.4672 H   0  0  0  0  0  0  0  0  0  0  0  0
    5.4766   -3.6559    1.0200 H   0  0  0  0  0  0  0  0  0  0  0  0
    2.8342   -2.4676   -1.7412 H   0  0  0  0  0  0  0  0  0  0  0  0
    3.2948   -0.6789   -1.8768 H   0  0  0  0  0  0  0  0  0  0  0  0
   -1.9680    2.0153    2.8030 H   0  0  0  0  0  0  0  0  0  0  0  0
   -2.7250    2.2394    5.0998 H   0  0  0  0  0  0  0  0  0  0  0  0
   -3.2659    2.5336    7.3524 H   0  0  0  0  0  0  0  0  0  0  0  0
    0.9025    0.4594   10.3081 H   0  0  0  0  0  0  0  0  0  0  0  0
    1.8061    1.1369    8.9618 H   0  0  0  0  0  0  0  0  0  0  0  0
    1.1690   -0.5235    8.8758 H   0  0  0  0  0  0  0  0  0  0  0  0
    1.5621    0.3741    6.7645 H   0  0  0  0  0  0  0  0  0  0  0  0
  1  2  1  0
  1 30  1  0
  1 31  1  0
  1 32  1  0
  2  3  1  0
  3 16  1  0
  3  4  2  3
  4  5  1  0
  4 33  1  0
  5  6  1  0
  5  7  1  0
  5 34  1  1
  6 35  1  0
  7 12  2  0
  7  8  1  0
  8  9  2  0
  8 36  1  0
  9 29  1  0
  9 10  1  0
 10 11  2  0
 10 19  1  0
 11 12  1  0
 11 37  1  0
 12 13  1  0
 13 14  1  0
 13 38  1  0
 13 39  1  0
 14 18  1  6
 14 15  1  0
 14 17  1  0
 15 16  2  3
 15 40  1  0
 16 41  1  0
 17 18  1  0
 17 42  1  0
 17 43  1  0
 19 20  2  0
 20 21  1  0
 20 44  1  0
 21 29  2  0
 21 22  1  0
 22 23  2  0
 22 45  1  0
 23 24  1  0
 23 25  1  0
 24 46  1  0
 25 26  1  0
 25 28  2  0
 26 27  1  0
 27 47  1  0
 27 48  1  0
 27 49  1  0
 28 29  1  0
 28 50  1  0
M  END
>  <i_m_ct_stereo_status>  (93) 
1

>  <s_m_source_file>  (93) 
/var/tmp/pbs.5102103.sched01/tmp13xrk0lu/22amefgkkz.sdf

>  <i_m_source_file_index>  (93) 
14

>  <i_lp_mmshare_version>  (93) 
48012

>  <i_f3d_flags>  (93) 
0

>  <s_epik_input>  (93) 
W0NIM11PL0MoQyhcW0hdKT1bQ0hdXDEpPVtDSF0vW0NAQEhdKFtPSF0pYyhjMltDSDJdW0NAXTEzW0NIMl1PMylbY0hdYzRjKFtjSF0yKW5bY0hdYzVjNFtjSF1jKGMoW2NIXTUpW09IXSlPW0NIM10=

>  <s_epik_cmdline>  (93) 
J2VwaWtfcHl0aG9uJywgJy1waHQnLCAnMi4wJywgJy1waCcsICc3LjAnLCAnLXRuJywgJzgnLCAnLW1hJywgJzIwMCcsICctaW1hZScsICc8aW5maWxlLm1hZT4nLCAnLW9tYWUnLCAnPG91dGZpbGUubWFlPic=

>  <r_epik_Ionization_Penalty>  (93) 
0.027119

>  <r_epik_Ionization_Penalty_Charging>  (93) 
0

>  <r_epik_Ionization_Penalty_Neutral>  (93) 
0.027119

>  <r_epik_State_Penalty>  (93) 
0.0334349

>  <r_epik_Charging_Adjusted_Penalty>  (93) 
0.0334349

>  <i_epik_Tot_Q>  (93) 
0

>  <i_epik_Tot_abs_Q>  (93) 
0

>  <s_lp_Force_Field>  (93) 
OPLS3e

>  <r_lp_Energy>  (93) 
107.062

>  <b_lp_Chiralities_Consistent>  (93) 
1

>  <s_lp_Variant>  (93) 
22:0-2

>  <s_i_glide_gridfile>  (93) 
pfpi4k_grid

>  <i_i_glide_lignum>  (93) 
14

>  <i_i_glide_rotatable_bonds>  (93) 
4

>  <r_i_docking_score>  (93) 
-2.53845

>  <r_i_glide_ligand_efficiency>  (93) 
-0.0875327

>  <r_i_glide_ligand_efficiency_sa>  (93) 
-0.268928

>  <r_i_glide_ligand_efficiency_ln>  (93) 
-0.58124

>  <r_i_glide_gscore>  (93) 
-2.53845

>  <r_i_glide_lipo>  (93) 
-0.340597

>  <r_i_glide_hbond>  (93) 
0

>  <r_i_glide_metal>  (93) 
-0

>  <r_i_glide_rewards>  (93) 
-0.740342

>  <r_i_glide_evdw>  (93) 
-25.2682

>  <r_i_glide_ecoul>  (93) 
-1.29402

>  <r_i_glide_erotb>  (93) 
0

>  <r_i_glide_esite>  (93) 
0

>  <r_i_glide_emodel>  (93) 
-31.2074

>  <r_i_glide_energy>  (93) 
-26.5622

>  <r_i_glide_einternal>  (93) 
0.228553

>  <r_i_glide_intrahb_reward>  (93) 
-0

>  <i_i_glide_confnum>  (93) 
1

>  <i_i_glide_posenum>  (93) 
32

>  <r_i_glide_eff_state_penalty>  (93) 
0

>  <ligand_id>  (93) 
22

>  <original_smiles>  (93) 
COC1=CC(O)c2cc3c(cc2CC2(C=C1)CO2)ncc1cc(O)c(OC)cc13

>  <smiles>  (93) 
[H]Oc1c(OC([H])([H])[H])c([H])c2c(c([H])nc3c([H])c4c(c([H])c32)C([H])(O[H])C([H])=C(OC([H])([H])[H])C([H])=C([H])C2(OC2([H])[H])C4([H])[H])c1[H]

$$$$
22:2:0
     RDKit          3D

 50 54  0  0  1  0  0  0  0  0999 V2000
   -1.3582   -9.1720    2.9888 C   0  0  0  0  0  0  0  0  0  0  0  0
   -0.3566   -8.6459    2.1191 O   0  0  0  0  0  0  0  0  0  0  0  0
    0.9497   -8.8574    2.4714 C   0  0  0  0  0  0  0  0  0  0  0  0
    1.8631   -8.2192    1.7142 C   0  0  0  0  0  0  0  0  0  0  0  0
    3.3794   -8.1813    1.8973 C   0  0  1  0  0  0  0  0  0  0  0  0
    4.0511   -8.6397    0.7429 O   0  0  0  0  0  0  0  0  0  0  0  0
    3.8534   -6.7895    2.3288 C   0  0  0  0  0  0  0  0  0  0  0  0
    4.0374   -5.7809    1.3568 C   0  0  0  0  0  0  0  0  0  0  0  0
    4.4835   -4.4800    1.7007 C   0  0  0  0  0  0  0  0  0  0  0  0
    4.7427   -4.1818    3.0702 C   0  0  0  0  0  0  0  0  0  0  0  0
    4.5465   -5.1946    4.0322 C   0  0  0  0  0  0  0  0  0  0  0  0
    4.0963   -6.4814    3.6904 C   0  0  0  0  0  0  0  0  0  0  0  0
    3.8774   -7.5075    4.8050 C   0  0  0  0  0  0  0  0  0  0  0  0
    2.4078   -7.8536    5.0074 C   0  0  1  0  0  0  0  0  0  0  0  0
    1.9947   -9.2564    4.7127 C   0  0  0  0  0  0  0  0  0  0  0  0
    1.3233   -9.6847    3.6288 C   0  0  0  0  0  0  0  0  0  0  0  0
    1.6247   -7.1103    6.0593 C   0  0  0  0  0  0  0  0  0  0  0  0
    1.4539   -6.8418    4.6736 O   0  0  0  0  0  0  0  0  0  0  0  0
    5.1682   -2.9672    3.4816 N   0  0  0  0  0  0  0  0  0  0  0  0
    5.3652   -1.9986    2.5689 C   0  0  0  0  0  0  0  0  0  0  0  0
    5.1349   -2.1857    1.2017 C   0  0  0  0  0  0  0  0  0  0  0  0
    5.3360   -1.1192    0.3062 C   0  0  0  0  0  0  0  0  0  0  0  0
    5.0669   -1.3004   -1.0573 C   0  0  0  0  0  0  0  0  0  0  0  0
    5.1934   -0.2597   -1.9268 O   0  0  0  0  0  0  0  0  0  0  0  0
    4.6494   -2.5461   -1.5592 C   0  0  0  0  0  0  0  0  0  0  0  0
    4.4656   -2.6188   -2.9248 O   0  0  0  0  0  0  0  0  0  0  0  0
    3.9437   -3.8171   -3.4690 C   0  0  0  0  0  0  0  0  0  0  0  0
    4.4479   -3.6207   -0.6518 C   0  0  0  0  0  0  0  0  0  0  0  0
    4.6824   -3.4455    0.7422 C   0  0  0  0  0  0  0  0  0  0  0  0
   -2.3417   -9.0106    2.5406 H   0  0  0  0  0  0  0  0  0  0  0  0
   -1.3356   -8.6504    3.9454 H   0  0  0  0  0  0  0  0  0  0  0  0
   -1.2614  -10.2578    3.1667 H   0  0  0  0  0  0  0  0  0  0  0  0
    1.4700   -7.6142    0.9108 H   0  0  0  0  0  0  0  0  0  0  0  0
    3.6690   -8.9152    2.6390 H   0  0  0  0  0  0  0  0  0  0  0  0
    3.8190   -9.5510    0.6051 H   0  0  0  0  0  0  0  0  0  0  0  0
    3.8242   -6.0483    0.3303 H   0  0  0  0  0  0  0  0  0  0  0  0
    4.7523   -4.9594    5.0705 H   0  0  0  0  0  0  0  0  0  0  0  0
    4.4555   -8.4094    4.6147 H   0  0  0  0  0  0  0  0  0  0  0  0
    4.2555   -7.1049    5.7413 H   0  0  0  0  0  0  0  0  0  0  0  0
    2.2524   -9.9782    5.4657 H   0  0  0  0  0  0  0  0  0  0  0  0
    1.1116  -10.7454    3.5841 H   0  0  0  0  0  0  0  0  0  0  0  0
    0.7663   -7.5911    6.5282 H   0  0  0  0  0  0  0  0  0  0  0  0
    2.0791   -6.2841    6.5980 H   0  0  0  0  0  0  0  0  0  0  0  0
    5.7175   -1.0468    2.9554 H   0  0  0  0  0  0  0  0  0  0  0  0
    5.6823   -0.1619    0.6819 H   0  0  0  0  0  0  0  0  0  0  0  0
    5.3163    0.6121   -1.5407 H   0  0  0  0  0  0  0  0  0  0  0  0
    3.8444   -3.7447   -4.5469 H   0  0  0  0  0  0  0  0  0  0  0  0
    2.9397   -3.9627   -3.0738 H   0  0  0  0  0  0  0  0  0  0  0  0
    4.6159   -4.6478   -3.2544 H   0  0  0  0  0  0  0  0  0  0  0  0
    4.0986   -4.5699   -1.0317 H   0  0  0  0  0  0  0  0  0  0  0  0
  1  2  1  0
  1 30  1  0
  1 31  1  0
  1 32  1  0
  2  3  1  0
  3 16  1  0
  3  4  2  3
  4  5  1  0
  4 33  1  0
  5  6  1  0
  5  7  1  0
  5 34  1  1
  6 35  1  0
  7 12  2  0
  7  8  1  0
  8  9  2  0
  8 36  1  0
  9 29  1  0
  9 10  1  0
 10 11  2  0
 10 19  1  0
 11 12  1  0
 11 37  1  0
 12 13  1  0
 13 14  1  0
 13 38  1  0
 13 39  1  0
 14 18  1  6
 14 15  1  0
 14 17  1  0
 15 16  2  3
 15 40  1  0
 16 41  1  0
 17 18  1  0
 17 42  1  0
 17 43  1  0
 19 20  2  0
 20 21  1  0
 20 44  1  0
 21 29  2  0
 21 22  1  0
 22 23  2  0
 22 45  1  0
 23 24  1  0
 23 25  1  0
 24 46  1  0
 25 26  1  0
 25 28  2  0
 26 27  1  0
 27 47  1  0
 27 48  1  0
 27 49  1  0
 28 29  1  0
 28 50  1  0
M  END
>  <i_m_ct_stereo_status>  (94) 
1

>  <s_m_source_file>  (94) 
/var/tmp/pbs.5102103.sched01/tmp13xrk0lu/22amefgkkz.sdf

>  <i_m_source_file_index>  (94) 
15

>  <i_lp_mmshare_version>  (94) 
48012

>  <i_f3d_flags>  (94) 
0

>  <s_epik_input>  (94) 
W0NIM11PL0MoQyhcW0hdKT1bQ0hdXDEpPVtDSF0vW0NAQEhdKFtPSF0pYyhjMltDSDJdW0NAXTEzW0NIMl1PMylbY0hdYzRjKFtjSF0yKW5bY0hdYzVjNFtjSF1jKGMoW2NIXTUpW09IXSlPW0NIM10=

>  <s_epik_cmdline>  (94) 
J2VwaWtfcHl0aG9uJywgJy1waHQnLCAnMi4wJywgJy1waCcsICc3LjAnLCAnLXRuJywgJzgnLCAnLW1hJywgJzIwMCcsICctaW1hZScsICc8aW5maWxlLm1hZT4nLCAnLW9tYWUnLCAnPG91dGZpbGUubWFlPic=

>  <r_epik_Ionization_Penalty>  (94) 
0.027119

>  <r_epik_Ionization_Penalty_Charging>  (94) 
0

>  <r_epik_Ionization_Penalty_Neutral>  (94) 
0.027119

>  <r_epik_State_Penalty>  (94) 
0.0334349

>  <r_epik_Charging_Adjusted_Penalty>  (94) 
0.0334349

>  <i_epik_Tot_Q>  (94) 
0

>  <i_epik_Tot_abs_Q>  (94) 
0

>  <s_lp_Force_Field>  (94) 
OPLS3e

>  <r_lp_Energy>  (94) 
56.878

>  <b_lp_Chiralities_Consistent>  (94) 
1

>  <s_lp_Variant>  (94) 
22:0-3

>  <s_i_glide_gridfile>  (94) 
pfpi4k_grid

>  <i_i_glide_lignum>  (94) 
15

>  <i_i_glide_rotatable_bonds>  (94) 
4

>  <r_i_docking_score>  (94) 
-3.4616

>  <r_i_glide_ligand_efficiency>  (94) 
-0.119365

>  <r_i_glide_ligand_efficiency_sa>  (94) 
-0.366728

>  <r_i_glide_ligand_efficiency_ln>  (94) 
-0.792618

>  <r_i_glide_gscore>  (94) 
-3.4616

>  <r_i_glide_lipo>  (94) 
-0.326456

>  <r_i_glide_hbond>  (94) 
0

>  <r_i_glide_metal>  (94) 
-0

>  <r_i_glide_rewards>  (94) 
-0.740342

>  <r_i_glide_evdw>  (94) 
-20.243

>  <r_i_glide_ecoul>  (94) 
-9.21767

>  <r_i_glide_erotb>  (94) 
0

>  <r_i_glide_esite>  (94) 
0

>  <r_i_glide_emodel>  (94) 
-35.9876

>  <r_i_glide_energy>  (94) 
-29.4606

>  <r_i_glide_einternal>  (94) 
1.25524

>  <r_i_glide_intrahb_reward>  (94) 
-0

>  <i_i_glide_confnum>  (94) 
2

>  <i_i_glide_posenum>  (94) 
3

>  <r_i_glide_eff_state_penalty>  (94) 
0

>  <ligand_id>  (94) 
22

>  <original_smiles>  (94) 
COC1=CC(O)c2cc3c(cc2CC2(C=C1)CO2)ncc1cc(O)c(OC)cc13

>  <smiles>  (94) 
[H]Oc1c(OC([H])([H])[H])c([H])c2c(c([H])nc3c([H])c4c(c([H])c32)C([H])(O[H])C([H])=C(OC([H])([H])[H])C([H])=C([H])C2(OC2([H])[H])C4([H])[H])c1[H]

$$$$
22:2:1
     RDKit          3D

 50 54  0  0  1  0  0  0  0  0999 V2000
   -2.0923   -9.1495    2.3216 C   0  0  0  0  0  0  0  0  0  0  0  0
   -1.0930   -8.2750    1.8200 O   0  0  0  0  0  0  0  0  0  0  0  0
    0.1053   -8.2371    2.4913 C   0  0  0  0  0  0  0  0  0  0  0  0
    1.1051   -7.6141    1.8394 C   0  0  0  0  0  0  0  0  0  0  0  0
    2.5449   -7.4559    2.2892 C   0  0  1  0  0  0  0  0  0  0  0  0
    3.3977   -8.0230    1.3152 O   0  0  0  0  0  0  0  0  0  0  0  0
    2.8807   -5.9953    2.5744 C   0  0  0  0  0  0  0  0  0  0  0  0
    3.2326   -5.1512    1.5013 C   0  0  0  0  0  0  0  0  0  0  0  0
    3.5491   -3.7880    1.7078 C   0  0  0  0  0  0  0  0  0  0  0  0
    3.5097   -3.2509    3.0252 C   0  0  0  0  0  0  0  0  0  0  0  0
    3.1434   -4.0982    4.0862 C   0  0  0  0  0  0  0  0  0  0  0  0
    2.8202   -5.4571    3.8835 C   0  0  0  0  0  0  0  0  0  0  0  0
    2.4053   -6.2942    5.0864 C   0  0  0  0  0  0  0  0  0  0  0  0
    0.9438   -6.7127    5.0449 C   0  0  1  0  0  0  0  0  0  0  0  0
    0.6559   -8.1681    4.9200 C   0  0  0  0  0  0  0  0  0  0  0  0
    0.2564   -8.8330    3.8166 C   0  0  0  0  0  0  0  0  0  0  0  0
   -0.0681   -5.8484    5.7595 C   0  0  0  0  0  0  0  0  0  0  0  0
    0.0401   -5.8456    4.3397 O   0  0  0  0  0  0  0  0  0  0  0  0
    3.8082   -1.9615    3.2987 N   0  0  0  0  0  0  0  0  0  0  0  0
    4.1459   -1.1455    2.2915 C   0  0  0  0  0  0  0  0  0  0  0  0
    4.2077   -1.5842    0.9599 C   0  0  0  0  0  0  0  0  0  0  0  0
    4.5640   -0.6798   -0.0463 C   0  0  0  0  0  0  0  0  0  0  0  0
    4.6239   -1.1262   -1.3744 C   0  0  0  0  0  0  0  0  0  0  0  0
    4.9742   -0.2627   -2.3567 O   0  0  0  0  0  0  0  0  0  0  0  0
    4.3359   -2.4440   -1.7349 C   0  0  0  0  0  0  0  0  0  0  0  0
    4.4512   -2.7259   -3.0858 O   0  0  0  0  0  0  0  0  0  0  0  0
    4.0775   -3.9950   -3.5431 C   0  0  0  0  0  0  0  0  0  0  0  0
    3.9683   -3.3627   -0.7169 C   0  0  0  0  0  0  0  0  0  0  0  0
    3.9051   -2.9309    0.6382 C   0  0  0  0  0  0  0  0  0  0  0  0
   -2.9728   -9.0571    1.6832 H   0  0  0  0  0  0  0  0  0  0  0  0
   -2.3916   -8.9192    3.3462 H   0  0  0  0  0  0  0  0  0  0  0  0
   -1.7591  -10.1868    2.2601 H   0  0  0  0  0  0  0  0  0  0  0  0
    0.8837   -7.2034    0.8664 H   0  0  0  0  0  0  0  0  0  0  0  0
    2.7247   -8.0524    3.1796 H   0  0  0  0  0  0  0  0  0  0  0  0
    3.2218   -8.9525    1.2737 H   0  0  0  0  0  0  0  0  0  0  0  0
    3.2544   -5.5939    0.5188 H   0  0  0  0  0  0  0  0  0  0  0  0
    3.1124   -3.6821    5.0810 H   0  0  0  0  0  0  0  0  0  0  0  0
    3.0461   -7.1710    5.1819 H   0  0  0  0  0  0  0  0  0  0  0  0
    2.5620   -5.7184    5.9989 H   0  0  0  0  0  0  0  0  0  0  0  0
    0.7665   -8.7403    5.8297 H   0  0  0  0  0  0  0  0  0  0  0  0
    0.0851   -9.8942    3.9206 H   0  0  0  0  0  0  0  0  0  0  0  0
   -0.9889   -6.2835    6.1280 H   0  0  0  0  0  0  0  0  0  0  0  0
    0.2425   -4.9120    6.2185 H   0  0  0  0  0  0  0  0  0  0  0  0
    4.3703   -0.1190    2.5495 H   0  0  0  0  0  0  0  0  0  0  0  0
    4.7836    0.3469    0.2111 H   0  0  0  0  0  0  0  0  0  0  0  0
    5.0131    0.6281   -2.0288 H   0  0  0  0  0  0  0  0  0  0  0  0
    4.2332   -4.1131   -4.6136 H   0  0  0  0  0  0  0  0  0  0  0  0
    3.0123   -4.1416   -3.3614 H   0  0  0  0  0  0  0  0  0  0  0  0
    4.6753   -4.7531   -3.0398 H   0  0  0  0  0  0  0  0  0  0  0  0
    3.7473   -4.3765   -1.0023 H   0  0  0  0  0  0  0  0  0  0  0  0
  1  2  1  0
  1 30  1  0
  1 31  1  0
  1 32  1  0
  2  3  1  0
  3 16  1  0
  3  4  2  3
  4  5  1  0
  4 33  1  0
  5  6  1  0
  5  7  1  0
  5 34  1  1
  6 35  1  0
  7 12  2  0
  7  8  1  0
  8  9  2  0
  8 36  1  0
  9 29  1  0
  9 10  1  0
 10 11  2  0
 10 19  1  0
 11 12  1  0
 11 37  1  0
 12 13  1  0
 13 14  1  0
 13 38  1  0
 13 39  1  0
 14 18  1  6
 14 15  1  0
 14 17  1  0
 15 16  2  3
 15 40  1  0
 16 41  1  0
 17 18  1  0
 17 42  1  0
 17 43  1  0
 19 20  2  0
 20 21  1  0
 20 44  1  0
 21 29  2  0
 21 22  1  0
 22 23  2  0
 22 45  1  0
 23 24  1  0
 23 25  1  0
 24 46  1  0
 25 26  1  0
 25 28  2  0
 26 27  1  0
 27 47  1  0
 27 48  1  0
 27 49  1  0
 28 29  1  0
 28 50  1  0
M  END
>  <i_m_ct_stereo_status>  (95) 
1

>  <s_m_source_file>  (95) 
/var/tmp/pbs.5102103.sched01/tmp13xrk0lu/22amefgkkz.sdf

>  <i_m_source_file_index>  (95) 
15

>  <i_lp_mmshare_version>  (95) 
48012

>  <i_f3d_flags>  (95) 
0

>  <s_epik_input>  (95) 
W0NIM11PL0MoQyhcW0hdKT1bQ0hdXDEpPVtDSF0vW0NAQEhdKFtPSF0pYyhjMltDSDJdW0NAXTEzW0NIMl1PMylbY0hdYzRjKFtjSF0yKW5bY0hdYzVjNFtjSF1jKGMoW2NIXTUpW09IXSlPW0NIM10=

>  <s_epik_cmdline>  (95) 
J2VwaWtfcHl0aG9uJywgJy1waHQnLCAnMi4wJywgJy1waCcsICc3LjAnLCAnLXRuJywgJzgnLCAnLW1hJywgJzIwMCcsICctaW1hZScsICc8aW5maWxlLm1hZT4nLCAnLW9tYWUnLCAnPG91dGZpbGUubWFlPic=

>  <r_epik_Ionization_Penalty>  (95) 
0.027119

>  <r_epik_Ionization_Penalty_Charging>  (95) 
0

>  <r_epik_Ionization_Penalty_Neutral>  (95) 
0.027119

>  <r_epik_State_Penalty>  (95) 
0.0334349

>  <r_epik_Charging_Adjusted_Penalty>  (95) 
0.0334349

>  <i_epik_Tot_Q>  (95) 
0

>  <i_epik_Tot_abs_Q>  (95) 
0

>  <s_lp_Force_Field>  (95) 
OPLS3e

>  <r_lp_Energy>  (95) 
56.878

>  <b_lp_Chiralities_Consistent>  (95) 
1

>  <s_lp_Variant>  (95) 
22:0-3

>  <s_i_glide_gridfile>  (95) 
pfpi4k_grid

>  <i_i_glide_lignum>  (95) 
15

>  <i_i_glide_rotatable_bonds>  (95) 
4

>  <r_i_docking_score>  (95) 
-3.2206

>  <r_i_glide_ligand_efficiency>  (95) 
-0.111055

>  <r_i_glide_ligand_efficiency_sa>  (95) 
-0.341196

>  <r_i_glide_ligand_efficiency_ln>  (95) 
-0.737435

>  <r_i_glide_gscore>  (95) 
-3.2206

>  <r_i_glide_lipo>  (95) 
-0.327107

>  <r_i_glide_hbond>  (95) 
0

>  <r_i_glide_metal>  (95) 
-0

>  <r_i_glide_rewards>  (95) 
-0.740342

>  <r_i_glide_evdw>  (95) 
-25.6891

>  <r_i_glide_ecoul>  (95) 
-5.79129

>  <r_i_glide_erotb>  (95) 
0

>  <r_i_glide_esite>  (95) 
0

>  <r_i_glide_emodel>  (95) 
-37.65

>  <r_i_glide_energy>  (95) 
-31.4804

>  <r_i_glide_einternal>  (95) 
0.851683

>  <r_i_glide_intrahb_reward>  (95) 
-0

>  <i_i_glide_confnum>  (95) 
2

>  <i_i_glide_posenum>  (95) 
21

>  <r_i_glide_eff_state_penalty>  (95) 
0

>  <ligand_id>  (95) 
22

>  <original_smiles>  (95) 
COC1=CC(O)c2cc3c(cc2CC2(C=C1)CO2)ncc1cc(O)c(OC)cc13

>  <smiles>  (95) 
[H]Oc1c(OC([H])([H])[H])c([H])c2c(c([H])nc3c([H])c4c(c([H])c32)C([H])(O[H])C([H])=C(OC([H])([H])[H])C([H])=C([H])C2(OC2([H])[H])C4([H])[H])c1[H]

$$$$
22:2:2
     RDKit          3D

 50 54  0  0  1  0  0  0  0  0999 V2000
    5.6008   -2.7074   -2.5313 C   0  0  0  0  0  0  0  0  0  0  0  0
    5.3373   -1.7286   -1.5340 O   0  0  0  0  0  0  0  0  0  0  0  0
    5.4723   -2.1149   -0.2201 C   0  0  0  0  0  0  0  0  0  0  0  0
    5.0448   -1.2227    0.6961 C   0  0  0  0  0  0  0  0  0  0  0  0
    5.0909   -1.3533    2.2120 C   0  0  1  0  0  0  0  0  0  0  0  0
    5.8134   -0.2601    2.7468 O   0  0  0  0  0  0  0  0  0  0  0  0
    3.6915   -1.4774    2.8195 C   0  0  0  0  0  0  0  0  0  0  0  0
    2.9357   -0.3031    3.0536 C   0  0  0  0  0  0  0  0  0  0  0  0
    1.6315   -0.3473    3.6094 C   0  0  0  0  0  0  0  0  0  0  0  0
    1.0720   -1.6128    3.9441 C   0  0  0  0  0  0  0  0  0  0  0  0
    1.8270   -2.7785    3.6966 C   0  0  0  0  0  0  0  0  0  0  0  0
    3.1208   -2.7341    3.1369 C   0  0  0  0  0  0  0  0  0  0  0  0
    3.8549   -4.0473    2.8769 C   0  0  0  0  0  0  0  0  0  0  0  0
    4.0345   -4.3467    1.3961 C   0  0  1  0  0  0  0  0  0  0  0  0
    5.4270   -4.3657    0.8704 C   0  0  0  0  0  0  0  0  0  0  0  0
    6.0393   -3.4147    0.1378 C   0  0  0  0  0  0  0  0  0  0  0  0
    3.0208   -5.2276    0.7001 C   0  0  0  0  0  0  0  0  0  0  0  0
    3.0399   -3.8151    0.5076 O   0  0  0  0  0  0  0  0  0  0  0  0
   -0.1598   -1.7388    4.4899 N   0  0  0  0  0  0  0  0  0  0  0  0
   -0.8901   -0.6333    4.7104 C   0  0  0  0  0  0  0  0  0  0  0  0
   -0.4362    0.6602    4.4071 C   0  0  0  0  0  0  0  0  0  0  0  0
   -1.2537    1.7742    4.6614 C   0  0  0  0  0  0  0  0  0  0  0  0
   -0.7981    3.0706    4.3671 C   0  0  0  0  0  0  0  0  0  0  0  0
   -1.6225    4.1323    4.6283 O   0  0  0  0  0  0  0  0  0  0  0  0
    0.4902    3.2675    3.8221 C   0  0  0  0  0  0  0  0  0  0  0  0
    0.8852    4.5703    3.6034 O   0  0  0  0  0  0  0  0  0  0  0  0
    2.1350    4.8057    2.9678 C   0  0  0  0  0  0  0  0  0  0  0  0
    1.3035    2.1361    3.5494 C   0  0  0  0  0  0  0  0  0  0  0  0
    0.8531    0.8213    3.8434 C   0  0  0  0  0  0  0  0  0  0  0  0
    5.4110   -2.2648   -3.5087 H   0  0  0  0  0  0  0  0  0  0  0  0
    4.9333   -3.5651   -2.4343 H   0  0  0  0  0  0  0  0  0  0  0  0
    6.6392   -3.0432   -2.5209 H   0  0  0  0  0  0  0  0  0  0  0  0
    4.6090   -0.3054    0.3324 H   0  0  0  0  0  0  0  0  0  0  0  0
    5.6917   -2.2168    2.4906 H   0  0  0  0  0  0  0  0  0  0  0  0
    6.6656   -0.2178    2.3316 H   0  0  0  0  0  0  0  0  0  0  0  0
    3.3977    0.6314    2.7846 H   0  0  0  0  0  0  0  0  0  0  0  0
    1.3930   -3.7355    3.9475 H   0  0  0  0  0  0  0  0  0  0  0  0
    4.8242   -4.0518    3.3788 H   0  0  0  0  0  0  0  0  0  0  0  0
    3.2921   -4.8707    3.3159 H   0  0  0  0  0  0  0  0  0  0  0  0
    5.9830   -5.2641    1.0961 H   0  0  0  0  0  0  0  0  0  0  0  0
    7.0589   -3.6131   -0.1572 H   0  0  0  0  0  0  0  0  0  0  0  0
    3.3160   -5.7941   -0.1808 H   0  0  0  0  0  0  0  0  0  0  0  0
    2.1361   -5.5674    1.2330 H   0  0  0  0  0  0  0  0  0  0  0  0
   -1.8723   -0.7872    5.1391 H   0  0  0  0  0  0  0  0  0  0  0  0
   -2.2323    1.6229    5.0925 H   0  0  0  0  0  0  0  0  0  0  0  0
   -2.4432    3.8458    4.9924 H   0  0  0  0  0  0  0  0  0  0  0  0
    2.2683    5.8776    2.8398 H   0  0  0  0  0  0  0  0  0  0  0  0
    2.2101    4.3462    1.9810 H   0  0  0  0  0  0  0  0  0  0  0  0
    2.9551    4.4451    3.5855 H   0  0  0  0  0  0  0  0  0  0  0  0
    2.2804    2.2896    3.1254 H   0  0  0  0  0  0  0  0  0  0  0  0
  1  2  1  0
  1 30  1  0
  1 31  1  0
  1 32  1  0
  2  3  1  0
  3 16  1  0
  3  4  2  3
  4  5  1  0
  4 33  1  0
  5  6  1  0
  5  7  1  0
  5 34  1  6
  6 35  1  0
  7 12  2  0
  7  8  1  0
  8  9  2  0
  8 36  1  0
  9 29  1  0
  9 10  1  0
 10 11  2  0
 10 19  1  0
 11 12  1  0
 11 37  1  0
 12 13  1  0
 13 14  1  0
 13 38  1  0
 13 39  1  0
 14 18  1  6
 14 15  1  0
 14 17  1  0
 15 16  2  3
 15 40  1  0
 16 41  1  0
 17 18  1  0
 17 42  1  0
 17 43  1  0
 19 20  2  0
 20 21  1  0
 20 44  1  0
 21 29  2  0
 21 22  1  0
 22 23  2  0
 22 45  1  0
 23 24  1  0
 23 25  1  0
 24 46  1  0
 25 26  1  0
 25 28  2  0
 26 27  1  0
 27 47  1  0
 27 48  1  0
 27 49  1  0
 28 29  1  0
 28 50  1  0
M  END
>  <i_m_ct_stereo_status>  (96) 
1

>  <s_m_source_file>  (96) 
/var/tmp/pbs.5102103.sched01/tmp13xrk0lu/22amefgkkz.sdf

>  <i_m_source_file_index>  (96) 
15

>  <i_lp_mmshare_version>  (96) 
48012

>  <i_f3d_flags>  (96) 
0

>  <s_epik_input>  (96) 
W0NIM11PL0MoQyhcW0hdKT1bQ0hdXDEpPVtDSF0vW0NAQEhdKFtPSF0pYyhjMltDSDJdW0NAXTEzW0NIMl1PMylbY0hdYzRjKFtjSF0yKW5bY0hdYzVjNFtjSF1jKGMoW2NIXTUpW09IXSlPW0NIM10=

>  <s_epik_cmdline>  (96) 
J2VwaWtfcHl0aG9uJywgJy1waHQnLCAnMi4wJywgJy1waCcsICc3LjAnLCAnLXRuJywgJzgnLCAnLW1hJywgJzIwMCcsICctaW1hZScsICc8aW5maWxlLm1hZT4nLCAnLW9tYWUnLCAnPG91dGZpbGUubWFlPic=

>  <r_epik_Ionization_Penalty>  (96) 
0.027119

>  <r_epik_Ionization_Penalty_Charging>  (96) 
0

>  <r_epik_Ionization_Penalty_Neutral>  (96) 
0.027119

>  <r_epik_State_Penalty>  (96) 
0.0334349

>  <r_epik_Charging_Adjusted_Penalty>  (96) 
0.0334349

>  <i_epik_Tot_Q>  (96) 
0

>  <i_epik_Tot_abs_Q>  (96) 
0

>  <s_lp_Force_Field>  (96) 
OPLS3e

>  <r_lp_Energy>  (96) 
56.878

>  <b_lp_Chiralities_Consistent>  (96) 
1

>  <s_lp_Variant>  (96) 
22:0-3

>  <s_i_glide_gridfile>  (96) 
pfpi4k_grid

>  <i_i_glide_lignum>  (96) 
15

>  <i_i_glide_rotatable_bonds>  (96) 
4

>  <r_i_docking_score>  (96) 
-3.15185

>  <r_i_glide_ligand_efficiency>  (96) 
-0.108684

>  <r_i_glide_ligand_efficiency_sa>  (96) 
-0.333913

>  <r_i_glide_ligand_efficiency_ln>  (96) 
-0.721693

>  <r_i_glide_gscore>  (96) 
-3.15185

>  <r_i_glide_lipo>  (96) 
-0.455046

>  <r_i_glide_hbond>  (96) 
-0.361017

>  <r_i_glide_metal>  (96) 
-0

>  <r_i_glide_rewards>  (96) 
-0.740342

>  <r_i_glide_evdw>  (96) 
-29.1848

>  <r_i_glide_ecoul>  (96) 
-0.908019

>  <r_i_glide_erotb>  (96) 
0

>  <r_i_glide_esite>  (96) 
0

>  <r_i_glide_emodel>  (96) 
-36.7237

>  <r_i_glide_energy>  (96) 
-30.0928

>  <r_i_glide_einternal>  (96) 
0.285012

>  <r_i_glide_intrahb_reward>  (96) 
-0

>  <i_i_glide_confnum>  (96) 
1

>  <i_i_glide_posenum>  (96) 
2

>  <r_i_glide_eff_state_penalty>  (96) 
0

>  <ligand_id>  (96) 
22

>  <original_smiles>  (96) 
COC1=CC(O)c2cc3c(cc2CC2(C=C1)CO2)ncc1cc(O)c(OC)cc13

>  <smiles>  (96) 
[H]Oc1c(OC([H])([H])[H])c([H])c2c(c([H])nc3c([H])c4c(c([H])c32)C([H])(O[H])C([H])=C(OC([H])([H])[H])C([H])=C([H])C2(OC2([H])[H])C4([H])[H])c1[H]

$$$$
22:3:0
     RDKit          3D

 50 54  0  0  1  0  0  0  0  0999 V2000
    4.5442   -8.2674    6.6906 C   0  0  0  0  0  0  0  0  0  0  0  0
    3.2431   -8.1013    6.1231 O   0  0  0  0  0  0  0  0  0  0  0  0
    2.5820   -9.2431    5.6772 C   0  0  0  0  0  0  0  0  0  0  0  0
    3.0597  -10.1091    4.7860 C   0  0  0  0  0  0  0  0  0  0  0  0
    4.1831   -9.8516    3.7752 C   0  0  1  0  0  0  0  0  0  0  0  0
    4.4462  -10.9926    2.9813 O   0  0  0  0  0  0  0  0  0  0  0  0
    3.9217   -8.6009    2.9138 C   0  0  0  0  0  0  0  0  0  0  0  0
    5.0478   -7.7874    2.6284 C   0  0  0  0  0  0  0  0  0  0  0  0
    4.9788   -6.6326    1.8242 C   0  0  0  0  0  0  0  0  0  0  0  0
    3.7138   -6.2656    1.2755 C   0  0  0  0  0  0  0  0  0  0  0  0
    2.5932   -7.0636    1.5657 C   0  0  0  0  0  0  0  0  0  0  0  0
    2.6473   -8.2165    2.3881 C   0  0  0  0  0  0  0  0  0  0  0  0
    1.3330   -8.9843    2.6426 C   0  0  0  0  0  0  0  0  0  0  0  0
    0.3957   -8.3504    3.6947 C   0  0  1  0  0  0  0  0  0  0  0  0
    0.2280   -8.9851    5.0374 C   0  0  0  0  0  0  0  0  0  0  0  0
    1.1605   -9.3159    5.9566 C   0  0  0  0  0  0  0  0  0  0  0  0
   -0.0148   -6.8914    3.6199 C   0  0  0  0  0  0  0  0  0  0  0  0
   -0.8653   -7.9278    3.1405 O   0  0  0  0  0  0  0  0  0  0  0  0
    3.5593   -5.1885    0.4783 N   0  0  0  0  0  0  0  0  0  0  0  0
    4.6250   -4.4335    0.1750 C   0  0  0  0  0  0  0  0  0  0  0  0
    5.9225   -4.7039    0.6627 C   0  0  0  0  0  0  0  0  0  0  0  0
    6.9918   -3.8701    0.3063 C   0  0  0  0  0  0  0  0  0  0  0  0
    8.2866   -4.1448    0.7915 C   0  0  0  0  0  0  0  0  0  0  0  0
    9.3338   -3.3382    0.4403 O   0  0  0  0  0  0  0  0  0  0  0  0
    8.5054   -5.2481    1.6461 C   0  0  0  0  0  0  0  0  0  0  0  0
    9.7940   -5.4593    2.0709 O   0  0  0  0  0  0  0  0  0  0  0  0
   10.0124   -6.2600    3.2279 C   0  0  0  0  0  0  0  0  0  0  0  0
    7.4133   -6.0837    2.0005 C   0  0  0  0  0  0  0  0  0  0  0  0
    6.1120   -5.8211    1.5107 C   0  0  0  0  0  0  0  0  0  0  0  0
    4.9244   -7.2697    6.9397 H   0  0  0  0  0  0  0  0  0  0  0  0
    5.3113   -8.7412    6.0815 H   0  0  0  0  0  0  0  0  0  0  0  0
    4.4295   -8.8499    7.6028 H   0  0  0  0  0  0  0  0  0  0  0  0
    2.4156  -10.9442    4.5189 H   0  0  0  0  0  0  0  0  0  0  0  0
    5.1578   -9.7415    4.2629 H   0  0  0  0  0  0  0  0  0  0  0  0
    3.8117  -11.1290    2.2874 H   0  0  0  0  0  0  0  0  0  0  0  0
    5.9844   -8.1012    3.0603 H   0  0  0  0  0  0  0  0  0  0  0  0
    1.6542   -6.7852    1.0988 H   0  0  0  0  0  0  0  0  0  0  0  0
    0.8002   -8.9491    1.6943 H   0  0  0  0  0  0  0  0  0  0  0  0
    1.4598  -10.0558    2.8038 H   0  0  0  0  0  0  0  0  0  0  0  0
   -0.7972   -9.1509    5.3107 H   0  0  0  0  0  0  0  0  0  0  0  0
    0.8253   -9.7322    6.8975 H   0  0  0  0  0  0  0  0  0  0  0  0
   -0.3968   -6.3905    4.5091 H   0  0  0  0  0  0  0  0  0  0  0  0
    0.3715   -6.2508    2.8330 H   0  0  0  0  0  0  0  0  0  0  0  0
    4.4401   -3.5883   -0.4714 H   0  0  0  0  0  0  0  0  0  0  0  0
    6.8102   -3.0169   -0.3342 H   0  0  0  0  0  0  0  0  0  0  0  0
    9.1369   -2.6514   -0.1842 H   0  0  0  0  0  0  0  0  0  0  0  0
   11.0853   -6.3207    3.4030 H   0  0  0  0  0  0  0  0  0  0  0  0
    9.6668   -7.2817    3.0906 H   0  0  0  0  0  0  0  0  0  0  0  0
    9.5361   -5.8476    4.1172 H   0  0  0  0  0  0  0  0  0  0  0  0
    7.6021   -6.9326    2.6318 H   0  0  0  0  0  0  0  0  0  0  0  0
  1  2  1  0
  1 30  1  0
  1 31  1  0
  1 32  1  0
  2  3  1  0
  3 16  1  0
  3  4  2  3
  4  5  1  0
  4 33  1  0
  5  6  1  0
  5  7  1  0
  5 34  1  1
  6 35  1  0
  7 12  2  0
  7  8  1  0
  8  9  2  0
  8 36  1  0
  9 29  1  0
  9 10  1  0
 10 11  2  0
 10 19  1  0
 11 12  1  0
 11 37  1  0
 12 13  1  0
 13 14  1  0
 13 38  1  0
 13 39  1  0
 14 18  1  6
 14 15  1  0
 14 17  1  0
 15 16  2  3
 15 40  1  0
 16 41  1  0
 17 18  1  0
 17 42  1  0
 17 43  1  0
 19 20  2  0
 20 21  1  0
 20 44  1  0
 21 29  2  0
 21 22  1  0
 22 23  2  0
 22 45  1  0
 23 24  1  0
 23 25  1  0
 24 46  1  0
 25 26  1  0
 25 28  2  0
 26 27  1  0
 27 47  1  0
 27 48  1  0
 27 49  1  0
 28 29  1  0
 28 50  1  0
M  END
>  <i_m_ct_stereo_status>  (97) 
1

>  <s_m_source_file>  (97) 
/var/tmp/pbs.5102103.sched01/tmp13xrk0lu/22amefgkkz.sdf

>  <i_m_source_file_index>  (97) 
16

>  <i_lp_mmshare_version>  (97) 
48012

>  <i_f3d_flags>  (97) 
0

>  <s_epik_input>  (97) 
W0NIM11PL0MoQyhcW0hdKT1bQ0hdXDEpPVtDSF0vW0NAQEhdKFtPSF0pYyhjMltDSDJdW0NAXTEzW0NIMl1PMylbY0hdYzRjKFtjSF0yKW5bY0hdYzVjNFtjSF1jKGMoW2NIXTUpW09IXSlPW0NIM10=

>  <s_epik_cmdline>  (97) 
J2VwaWtfcHl0aG9uJywgJy1waHQnLCAnMi4wJywgJy1waCcsICc3LjAnLCAnLXRuJywgJzgnLCAnLW1hJywgJzIwMCcsICctaW1hZScsICc8aW5maWxlLm1hZT4nLCAnLW9tYWUnLCAnPG91dGZpbGUubWFlPic=

>  <r_epik_Ionization_Penalty>  (97) 
0.027119

>  <r_epik_Ionization_Penalty_Charging>  (97) 
0

>  <r_epik_Ionization_Penalty_Neutral>  (97) 
0.027119

>  <r_epik_State_Penalty>  (97) 
0.0334349

>  <r_epik_Charging_Adjusted_Penalty>  (97) 
0.0334349

>  <i_epik_Tot_Q>  (97) 
0

>  <i_epik_Tot_abs_Q>  (97) 
0

>  <s_lp_Force_Field>  (97) 
OPLS3e

>  <r_lp_Energy>  (97) 
70.8059

>  <b_lp_Chiralities_Consistent>  (97) 
1

>  <s_lp_Variant>  (97) 
22:0-4

>  <s_i_glide_gridfile>  (97) 
pfpi4k_grid

>  <i_i_glide_lignum>  (97) 
16

>  <i_i_glide_rotatable_bonds>  (97) 
4

>  <r_i_docking_score>  (97) 
-3.23897

>  <r_i_glide_ligand_efficiency>  (97) 
-0.111689

>  <r_i_glide_ligand_efficiency_sa>  (97) 
-0.343143

>  <r_i_glide_ligand_efficiency_ln>  (97) 
-0.741642

>  <r_i_glide_gscore>  (97) 
-3.23897

>  <r_i_glide_lipo>  (97) 
-0.578487

>  <r_i_glide_hbond>  (97) 
-0.112177

>  <r_i_glide_metal>  (97) 
-0

>  <r_i_glide_rewards>  (97) 
-0.740342

>  <r_i_glide_evdw>  (97) 
-24.8719

>  <r_i_glide_ecoul>  (97) 
-3.76247

>  <r_i_glide_erotb>  (97) 
0

>  <r_i_glide_esite>  (97) 
0

>  <r_i_glide_emodel>  (97) 
-29.5932

>  <r_i_glide_energy>  (97) 
-28.6343

>  <r_i_glide_einternal>  (97) 
10.5489

>  <r_i_glide_intrahb_reward>  (97) 
-0

>  <i_i_glide_confnum>  (97) 
1

>  <i_i_glide_posenum>  (97) 
3

>  <r_i_glide_eff_state_penalty>  (97) 
0

>  <ligand_id>  (97) 
22

>  <original_smiles>  (97) 
COC1=CC(O)c2cc3c(cc2CC2(C=C1)CO2)ncc1cc(O)c(OC)cc13

>  <smiles>  (97) 
[H]Oc1c(OC([H])([H])[H])c([H])c2c(c([H])nc3c([H])c4c(c([H])c32)C([H])(O[H])C([H])=C(OC([H])([H])[H])C([H])=C([H])C2(OC2([H])[H])C4([H])[H])c1[H]

$$$$
22:3:1
     RDKit          3D

 50 54  0  0  1  0  0  0  0  0999 V2000
   -0.3415   -7.4260    1.1908 C   0  0  0  0  0  0  0  0  0  0  0  0
   -0.5363   -7.0097    2.5355 O   0  0  0  0  0  0  0  0  0  0  0  0
   -0.3594   -7.9680    3.5083 C   0  0  0  0  0  0  0  0  0  0  0  0
   -0.2650   -7.5849    4.7876 C   0  0  0  0  0  0  0  0  0  0  0  0
   -0.0107   -6.1646    5.2083 C   0  0  1  0  0  0  0  0  0  0  0  0
   -0.0434   -6.0733    6.6159 O   0  0  0  0  0  0  0  0  0  0  0  0
    1.2929   -5.5884    4.6383 C   0  0  0  0  0  0  0  0  0  0  0  0
    1.2784   -4.2062    4.3269 C   0  0  0  0  0  0  0  0  0  0  0  0
    2.4093   -3.5398    3.7944 C   0  0  0  0  0  0  0  0  0  0  0  0
    3.5994   -4.2845    3.5801 C   0  0  0  0  0  0  0  0  0  0  0  0
    3.6155   -5.6553    3.9079 C   0  0  0  0  0  0  0  0  0  0  0  0
    2.4881   -6.3427    4.4120 C   0  0  0  0  0  0  0  0  0  0  0  0
    2.6568   -7.8490    4.7085 C   0  0  0  0  0  0  0  0  0  0  0  0
    2.5590   -8.7876    3.4830 C   0  0  1  0  0  0  0  0  0  0  0  0
    1.3603   -9.6775    3.2801 C   0  0  0  0  0  0  0  0  0  0  0  0
    0.0574   -9.3239    3.2144 C   0  0  0  0  0  0  0  0  0  0  0  0
    3.4059   -8.5353    2.2496 C   0  0  0  0  0  0  0  0  0  0  0  0
    3.7852   -9.4916    3.2350 O   0  0  0  0  0  0  0  0  0  0  0  0
    4.7213   -3.7194    3.0812 N   0  0  0  0  0  0  0  0  0  0  0  0
    4.7198   -2.4120    2.7737 C   0  0  0  0  0  0  0  0  0  0  0  0
    3.6041   -1.5827    2.9572 C   0  0  0  0  0  0  0  0  0  0  0  0
    3.6724   -0.2182    2.6244 C   0  0  0  0  0  0  0  0  0  0  0  0
    2.5562    0.6179    2.8057 C   0  0  0  0  0  0  0  0  0  0  0  0
    2.6438    1.9324    2.4357 O   0  0  0  0  0  0  0  0  0  0  0  0
    1.3611    0.0824    3.3496 C   0  0  0  0  0  0  0  0  0  0  0  0
    0.2289    0.8404    3.5434 O   0  0  0  0  0  0  0  0  0  0  0  0
    0.3473    1.9346    4.4492 C   0  0  0  0  0  0  0  0  0  0  0  0
    1.2909   -1.2958    3.6555 C   0  0  0  0  0  0  0  0  0  0  0  0
    2.4120   -2.1467    3.4765 C   0  0  0  0  0  0  0  0  0  0  0  0
   -0.5779   -6.5939    0.5261 H   0  0  0  0  0  0  0  0  0  0  0  0
   -0.9901   -8.2530    0.9188 H   0  0  0  0  0  0  0  0  0  0  0  0
    0.6986   -7.7062    1.0142 H   0  0  0  0  0  0  0  0  0  0  0  0
   -0.0687   -8.3361    5.5424 H   0  0  0  0  0  0  0  0  0  0  0  0
   -0.8449   -5.5814    4.8244 H   0  0  0  0  0  0  0  0  0  0  0  0
    0.1253   -5.1770    6.8598 H   0  0  0  0  0  0  0  0  0  0  0  0
    0.3651   -3.6659    4.5167 H   0  0  0  0  0  0  0  0  0  0  0  0
    4.5417   -6.1878    3.7610 H   0  0  0  0  0  0  0  0  0  0  0  0
    3.6679   -7.9570    5.0998 H   0  0  0  0  0  0  0  0  0  0  0  0
    2.0614   -8.2075    5.5453 H   0  0  0  0  0  0  0  0  0  0  0  0
    1.5952  -10.7158    3.0968 H   0  0  0  0  0  0  0  0  0  0  0  0
   -0.6837  -10.0851    3.0122 H   0  0  0  0  0  0  0  0  0  0  0  0
    3.1117   -8.9696    1.2982 H   0  0  0  0  0  0  0  0  0  0  0  0
    4.0628   -7.6720    2.2059 H   0  0  0  0  0  0  0  0  0  0  0  0
    5.6456   -2.0176    2.3812 H   0  0  0  0  0  0  0  0  0  0  0  0
    4.5869    0.1786    2.2102 H   0  0  0  0  0  0  0  0  0  0  0  0
    3.5185    2.2026    2.1821 H   0  0  0  0  0  0  0  0  0  0  0  0
   -0.5618    2.5378    4.4109 H   0  0  0  0  0  0  0  0  0  0  0  0
    1.1796    2.6092    4.2497 H   0  0  0  0  0  0  0  0  0  0  0  0
    0.4619    1.5526    5.4637 H   0  0  0  0  0  0  0  0  0  0  0  0
    0.3481   -1.6526    4.0405 H   0  0  0  0  0  0  0  0  0  0  0  0
  1  2  1  0
  1 30  1  0
  1 31  1  0
  1 32  1  0
  2  3  1  0
  3 16  1  0
  3  4  2  3
  4  5  1  0
  4 33  1  0
  5  6  1  0
  5  7  1  0
  5 34  1  6
  6 35  1  0
  7 12  2  0
  7  8  1  0
  8  9  2  0
  8 36  1  0
  9 29  1  0
  9 10  1  0
 10 11  2  0
 10 19  1  0
 11 12  1  0
 11 37  1  0
 12 13  1  0
 13 14  1  0
 13 38  1  0
 13 39  1  0
 14 18  1  1
 14 15  1  0
 14 17  1  0
 15 16  2  3
 15 40  1  0
 16 41  1  0
 17 18  1  0
 17 42  1  0
 17 43  1  0
 19 20  2  0
 20 21  1  0
 20 44  1  0
 21 29  2  0
 21 22  1  0
 22 23  2  0
 22 45  1  0
 23 24  1  0
 23 25  1  0
 24 46  1  0
 25 26  1  0
 25 28  2  0
 26 27  1  0
 27 47  1  0
 27 48  1  0
 27 49  1  0
 28 29  1  0
 28 50  1  0
M  END
>  <i_m_ct_stereo_status>  (98) 
1

>  <s_m_source_file>  (98) 
/var/tmp/pbs.5102103.sched01/tmp13xrk0lu/22amefgkkz.sdf

>  <i_m_source_file_index>  (98) 
16

>  <i_lp_mmshare_version>  (98) 
48012

>  <i_f3d_flags>  (98) 
0

>  <s_epik_input>  (98) 
W0NIM11PL0MoQyhcW0hdKT1bQ0hdXDEpPVtDSF0vW0NAQEhdKFtPSF0pYyhjMltDSDJdW0NAXTEzW0NIMl1PMylbY0hdYzRjKFtjSF0yKW5bY0hdYzVjNFtjSF1jKGMoW2NIXTUpW09IXSlPW0NIM10=

>  <s_epik_cmdline>  (98) 
J2VwaWtfcHl0aG9uJywgJy1waHQnLCAnMi4wJywgJy1waCcsICc3LjAnLCAnLXRuJywgJzgnLCAnLW1hJywgJzIwMCcsICctaW1hZScsICc8aW5maWxlLm1hZT4nLCAnLW9tYWUnLCAnPG91dGZpbGUubWFlPic=

>  <r_epik_Ionization_Penalty>  (98) 
0.027119

>  <r_epik_Ionization_Penalty_Charging>  (98) 
0

>  <r_epik_Ionization_Penalty_Neutral>  (98) 
0.027119

>  <r_epik_State_Penalty>  (98) 
0.0334349

>  <r_epik_Charging_Adjusted_Penalty>  (98) 
0.0334349

>  <i_epik_Tot_Q>  (98) 
0

>  <i_epik_Tot_abs_Q>  (98) 
0

>  <s_lp_Force_Field>  (98) 
OPLS3e

>  <r_lp_Energy>  (98) 
70.8059

>  <b_lp_Chiralities_Consistent>  (98) 
1

>  <s_lp_Variant>  (98) 
22:0-4

>  <s_i_glide_gridfile>  (98) 
pfpi4k_grid

>  <i_i_glide_lignum>  (98) 
16

>  <i_i_glide_rotatable_bonds>  (98) 
4

>  <r_i_docking_score>  (98) 
-2.80591

>  <r_i_glide_ligand_efficiency>  (98) 
-0.0967555

>  <r_i_glide_ligand_efficiency_sa>  (98) 
-0.297264

>  <r_i_glide_ligand_efficiency_ln>  (98) 
-0.642482

>  <r_i_glide_gscore>  (98) 
-2.80591

>  <r_i_glide_lipo>  (98) 
-0.0866039

>  <r_i_glide_hbond>  (98) 
-0.152495

>  <r_i_glide_metal>  (98) 
-0

>  <r_i_glide_rewards>  (98) 
-0.740342

>  <r_i_glide_evdw>  (98) 
-24.5414

>  <r_i_glide_ecoul>  (98) 
-3.996

>  <r_i_glide_erotb>  (98) 
0

>  <r_i_glide_esite>  (98) 
0

>  <r_i_glide_emodel>  (98) 
-30.5447

>  <r_i_glide_energy>  (98) 
-28.5374

>  <r_i_glide_einternal>  (98) 
7.42322

>  <r_i_glide_intrahb_reward>  (98) 
-0

>  <i_i_glide_confnum>  (98) 
1

>  <i_i_glide_posenum>  (98) 
10

>  <r_i_glide_eff_state_penalty>  (98) 
0

>  <ligand_id>  (98) 
22

>  <original_smiles>  (98) 
COC1=CC(O)c2cc3c(cc2CC2(C=C1)CO2)ncc1cc(O)c(OC)cc13

>  <smiles>  (98) 
[H]Oc1c(OC([H])([H])[H])c([H])c2c(c([H])nc3c([H])c4c(c([H])c32)C([H])(O[H])C([H])=C(OC([H])([H])[H])C([H])=C([H])C2(OC2([H])[H])C4([H])[H])c1[H]

$$$$
22:3:2
     RDKit          3D

 50 54  0  0  1  0  0  0  0  0999 V2000
   -1.4511   -7.3932    2.8782 C   0  0  0  0  0  0  0  0  0  0  0  0
   -0.8607   -6.8095    4.0312 O   0  0  0  0  0  0  0  0  0  0  0  0
    0.0515   -7.5832    4.7107 C   0  0  0  0  0  0  0  0  0  0  0  0
    0.6851   -7.0702    5.7712 C   0  0  0  0  0  0  0  0  0  0  0  0
    0.7282   -5.6025    6.0858 C   0  0  1  0  0  0  0  0  0  0  0  0
    1.3986   -5.4014    7.3106 O   0  0  0  0  0  0  0  0  0  0  0  0
    1.3527   -4.7611    4.9642 C   0  0  0  0  0  0  0  0  0  0  0  0
    0.8221   -3.4583    4.7943 C   0  0  0  0  0  0  0  0  0  0  0  0
    1.3015   -2.5712    3.7979 C   0  0  0  0  0  0  0  0  0  0  0  0
    2.3563   -3.0052    2.9517 C   0  0  0  0  0  0  0  0  0  0  0  0
    2.8977   -4.2936    3.1403 C   0  0  0  0  0  0  0  0  0  0  0  0
    2.4144   -5.2010    4.1106 C   0  0  0  0  0  0  0  0  0  0  0  0
    3.1033   -6.5818    4.1859 C   0  0  0  0  0  0  0  0  0  0  0  0
    2.6401   -7.6180    3.1357 C   0  0  1  0  0  0  0  0  0  0  0  0
    1.7911   -8.8021    3.5299 C   0  0  0  0  0  0  0  0  0  0  0  0
    0.5977   -8.8078    4.1677 C   0  0  0  0  0  0  0  0  0  0  0  0
    2.6321   -7.2638    1.6612 C   0  0  0  0  0  0  0  0  0  0  0  0
    3.6975   -8.0066    2.2467 O   0  0  0  0  0  0  0  0  0  0  0  0
    2.8661   -2.2191    1.9789 N   0  0  0  0  0  0  0  0  0  0  0  0
    2.3628   -0.9861    1.7935 C   0  0  0  0  0  0  0  0  0  0  0  0
    1.3321   -0.4539    2.5806 C   0  0  0  0  0  0  0  0  0  0  0  0
    0.8532    0.8498    2.3400 C   0  0  0  0  0  0  0  0  0  0  0  0
   -0.1778    1.3901    3.1312 C   0  0  0  0  0  0  0  0  0  0  0  0
   -0.6338    2.6552    2.8677 O   0  0  0  0  0  0  0  0  0  0  0  0
   -0.7370    0.6093    4.1782 C   0  0  0  0  0  0  0  0  0  0  0  0
   -1.7727    1.0533    4.9683 O   0  0  0  0  0  0  0  0  0  0  0  0
   -1.5100    2.2112    5.7541 C   0  0  0  0  0  0  0  0  0  0  0  0
   -0.2702   -0.7077    4.3948 C   0  0  0  0  0  0  0  0  0  0  0  0
    0.7785   -1.2537    3.6121 C   0  0  0  0  0  0  0  0  0  0  0  0
   -2.1798   -6.6926    2.4769 H   0  0  0  0  0  0  0  0  0  0  0  0
   -1.9812   -8.3158    3.1178 H   0  0  0  0  0  0  0  0  0  0  0  0
   -0.7120   -7.5846    2.0985 H   0  0  0  0  0  0  0  0  0  0  0  0
    1.4304   -7.6785    6.2689 H   0  0  0  0  0  0  0  0  0  0  0  0
   -0.3050   -5.2846    6.2314 H   0  0  0  0  0  0  0  0  0  0  0  0
    2.2820   -5.7240    7.2223 H   0  0  0  0  0  0  0  0  0  0  0  0
    0.0338   -3.1577    5.4655 H   0  0  0  0  0  0  0  0  0  0  0  0
    3.7190   -4.5807    2.5042 H   0  0  0  0  0  0  0  0  0  0  0  0
    4.1592   -6.3930    3.9914 H   0  0  0  0  0  0  0  0  0  0  0  0
    3.1422   -7.0064    5.1859 H   0  0  0  0  0  0  0  0  0  0  0  0
    2.1645   -9.7559    3.1859 H   0  0  0  0  0  0  0  0  0  0  0  0
    0.0817   -9.7448    4.3257 H   0  0  0  0  0  0  0  0  0  0  0  0
    2.0098   -7.8371    0.9817 H   0  0  0  0  0  0  0  0  0  0  0  0
    2.9266   -6.2704    1.3335 H   0  0  0  0  0  0  0  0  0  0  0  0
    2.8065   -0.4080    0.9974 H   0  0  0  0  0  0  0  0  0  0  0  0
    1.2784    1.4287    1.5312 H   0  0  0  0  0  0  0  0  0  0  0  0
   -0.2173    3.1033    2.1302 H   0  0  0  0  0  0  0  0  0  0  0  0
   -2.4392    2.5442    6.2214 H   0  0  0  0  0  0  0  0  0  0  0  0
   -1.1148    3.0615    5.1987 H   0  0  0  0  0  0  0  0  0  0  0  0
   -0.7985    1.9636    6.5424 H   0  0  0  0  0  0  0  0  0  0  0  0
   -0.7499   -1.2638    5.1836 H   0  0  0  0  0  0  0  0  0  0  0  0
  1  2  1  0
  1 30  1  0
  1 31  1  0
  1 32  1  0
  2  3  1  0
  3 16  1  0
  3  4  2  3
  4  5  1  0
  4 33  1  0
  5  6  1  0
  5  7  1  0
  5 34  1  1
  6 35  1  0
  7 12  2  0
  7  8  1  0
  8  9  2  0
  8 36  1  0
  9 29  1  0
  9 10  1  0
 10 11  2  0
 10 19  1  0
 11 12  1  0
 11 37  1  0
 12 13  1  0
 13 14  1  0
 13 38  1  0
 13 39  1  0
 14 18  1  6
 14 15  1  0
 14 17  1  0
 15 16  2  3
 15 40  1  0
 16 41  1  0
 17 18  1  0
 17 42  1  0
 17 43  1  0
 19 20  2  0
 20 21  1  0
 20 44  1  0
 21 29  2  0
 21 22  1  0
 22 23  2  0
 22 45  1  0
 23 24  1  0
 23 25  1  0
 24 46  1  0
 25 26  1  0
 25 28  2  0
 26 27  1  0
 27 47  1  0
 27 48  1  0
 27 49  1  0
 28 29  1  0
 28 50  1  0
M  END
>  <i_m_ct_stereo_status>  (99) 
1

>  <s_m_source_file>  (99) 
/var/tmp/pbs.5102103.sched01/tmp13xrk0lu/22amefgkkz.sdf

>  <i_m_source_file_index>  (99) 
16

>  <i_lp_mmshare_version>  (99) 
48012

>  <i_f3d_flags>  (99) 
0

>  <s_epik_input>  (99) 
W0NIM11PL0MoQyhcW0hdKT1bQ0hdXDEpPVtDSF0vW0NAQEhdKFtPSF0pYyhjMltDSDJdW0NAXTEzW0NIMl1PMylbY0hdYzRjKFtjSF0yKW5bY0hdYzVjNFtjSF1jKGMoW2NIXTUpW09IXSlPW0NIM10=

>  <s_epik_cmdline>  (99) 
J2VwaWtfcHl0aG9uJywgJy1waHQnLCAnMi4wJywgJy1waCcsICc3LjAnLCAnLXRuJywgJzgnLCAnLW1hJywgJzIwMCcsICctaW1hZScsICc8aW5maWxlLm1hZT4nLCAnLW9tYWUnLCAnPG91dGZpbGUubWFlPic=

>  <r_epik_Ionization_Penalty>  (99) 
0.027119

>  <r_epik_Ionization_Penalty_Charging>  (99) 
0

>  <r_epik_Ionization_Penalty_Neutral>  (99) 
0.027119

>  <r_epik_State_Penalty>  (99) 
0.0334349

>  <r_epik_Charging_Adjusted_Penalty>  (99) 
0.0334349

>  <i_epik_Tot_Q>  (99) 
0

>  <i_epik_Tot_abs_Q>  (99) 
0

>  <s_lp_Force_Field>  (99) 
OPLS3e

>  <r_lp_Energy>  (99) 
70.8059

>  <b_lp_Chiralities_Consistent>  (99) 
1

>  <s_lp_Variant>  (99) 
22:0-4

>  <s_i_glide_gridfile>  (99) 
pfpi4k_grid

>  <i_i_glide_lignum>  (99) 
16

>  <i_i_glide_rotatable_bonds>  (99) 
4

>  <r_i_docking_score>  (99) 
-2.55445

>  <r_i_glide_ligand_efficiency>  (99) 
-0.0880844

>  <r_i_glide_ligand_efficiency_sa>  (99) 
-0.270623

>  <r_i_glide_ligand_efficiency_ln>  (99) 
-0.584904

>  <r_i_glide_gscore>  (99) 
-2.55445

>  <r_i_glide_lipo>  (99) 
-0.0453336

>  <r_i_glide_hbond>  (99) 
-0.0183255

>  <r_i_glide_metal>  (99) 
-0

>  <r_i_glide_rewards>  (99) 
-0.740342

>  <r_i_glide_evdw>  (99) 
-25.235

>  <r_i_glide_ecoul>  (99) 
-3.25798

>  <r_i_glide_erotb>  (99) 
0

>  <r_i_glide_esite>  (99) 
0

>  <r_i_glide_emodel>  (99) 
-30.3978

>  <r_i_glide_energy>  (99) 
-28.493

>  <r_i_glide_einternal>  (99) 
6.53104

>  <r_i_glide_intrahb_reward>  (99) 
-0

>  <i_i_glide_confnum>  (99) 
2

>  <i_i_glide_posenum>  (99) 
2

>  <r_i_glide_eff_state_penalty>  (99) 
0

>  <ligand_id>  (99) 
22

>  <original_smiles>  (99) 
COC1=CC(O)c2cc3c(cc2CC2(C=C1)CO2)ncc1cc(O)c(OC)cc13

>  <smiles>  (99) 
[H]Oc1c(OC([H])([H])[H])c([H])c2c(c([H])nc3c([H])c4c(c([H])c32)C([H])(O[H])C([H])=C(OC([H])([H])[H])C([H])=C([H])C2(OC2([H])[H])C4([H])[H])c1[H]

$$$$
22:4:0
     RDKit          3D

 51 55  0  0  1  0  0  0  0  0999 V2000
    4.6815   -1.8964   -3.0788 C   0  0  0  0  0  0  0  0  0  0  0  0
    4.9789   -1.0908   -1.9477 O   0  0  0  0  0  0  0  0  0  0  0  0
    4.7755   -1.6587   -0.7157 C   0  0  0  0  0  0  0  0  0  0  0  0
    4.9656   -0.8837    0.3726 C   0  0  0  0  0  0  0  0  0  0  0  0
    4.8759   -1.3503    1.8269 C   0  0  1  0  0  0  0  0  0  0  0  0
    5.8192   -0.6338    2.5890 O   0  0  0  0  0  0  0  0  0  0  0  0
    3.4734   -1.2338    2.4304 C   0  0  0  0  0  0  0  0  0  0  0  0
    2.9932    0.0744    2.6783 C   0  0  0  0  0  0  0  0  0  0  0  0
    1.7144    0.3113    3.2314 C   0  0  0  0  0  0  0  0  0  0  0  0
    0.9161   -0.8158    3.5440 C   0  0  0  0  0  0  0  0  0  0  0  0
    1.3799   -2.1273    3.3082 C   0  0  0  0  0  0  0  0  0  0  0  0
    2.6515   -2.3589    2.7484 C   0  0  0  0  0  0  0  0  0  0  0  0
    3.0576   -3.8270    2.5047 C   0  0  0  0  0  0  0  0  0  0  0  0
    2.9433   -4.3085    1.0565 C   0  0  1  0  0  0  0  0  0  0  0  0
    3.1520   -3.2599    0.0409 C   0  0  0  0  0  0  0  0  0  0  0  0
    4.3495   -3.0324   -0.5188 C   0  0  0  0  0  0  0  0  0  0  0  0
    3.1645   -5.7589    0.7179 C   0  0  0  0  0  0  0  0  0  0  0  0
    1.8489   -5.1876    0.7792 O   0  0  0  0  0  0  0  0  0  0  0  0
   -0.3106   -0.6411    4.0801 N   0  0  0  0  0  0  0  0  0  0  0  0
   -0.8482    0.5715    4.3143 C   0  0  0  0  0  0  0  0  0  0  0  0
   -0.1091    1.7310    4.0264 C   0  0  0  0  0  0  0  0  0  0  0  0
   -0.6682    2.9962    4.2829 C   0  0  0  0  0  0  0  0  0  0  0  0
    0.0638    4.1562    3.9912 C   0  0  0  0  0  0  0  0  0  0  0  0
   -0.4994    5.3783    4.2006 O   0  0  0  0  0  0  0  0  0  0  0  0
    1.3693    4.0785    3.4650 C   0  0  0  0  0  0  0  0  0  0  0  0
    2.0072    5.2774    3.2150 O   0  0  0  0  0  0  0  0  0  0  0  0
    3.4008    5.2473    2.9430 C   0  0  0  0  0  0  0  0  0  0  0  0
    1.9254    2.8026    3.2019 C   0  0  0  0  0  0  0  0  0  0  0  0
    1.1978    1.6177    3.4779 C   0  0  0  0  0  0  0  0  0  0  0  0
    4.8892   -1.3196   -3.9795 H   0  0  0  0  0  0  0  0  0  0  0  0
    3.6253   -2.1723   -3.1032 H   0  0  0  0  0  0  0  0  0  0  0  0
    5.3012   -2.7957   -3.1108 H   0  0  0  0  0  0  0  0  0  0  0  0
    5.2524    0.1462    0.2238 H   0  0  0  0  0  0  0  0  0  0  0  0
    5.2212   -2.3820    1.8709 H   0  0  0  0  0  0  0  0  0  0  0  0
    6.6532   -0.6435    2.1381 H   0  0  0  0  0  0  0  0  0  0  0  0
    3.6539    0.8840    2.4223 H   0  0  0  0  0  0  0  0  0  0  0  0
    0.7452   -2.9688    3.5511 H   0  0  0  0  0  0  0  0  0  0  0  0
    4.0905   -3.9655    2.8201 H   0  0  0  0  0  0  0  0  0  0  0  0
    2.4709   -4.4937    3.1429 H   0  0  0  0  0  0  0  0  0  0  0  0
    2.4210   -2.4667    0.0516 H   0  0  0  0  0  0  0  0  0  0  0  0
    5.1136   -3.7909   -0.4102 H   0  0  0  0  0  0  0  0  0  0  0  0
    3.5169   -6.0150   -0.2791 H   0  0  0  0  0  0  0  0  0  0  0  0
    3.4009   -6.4541    1.5222 H   0  0  0  0  0  0  0  0  0  0  0  0
   -1.8501    0.5866    4.7235 H   0  0  0  0  0  0  0  0  0  0  0  0
   -1.6620    3.0831    4.6991 H   0  0  0  0  0  0  0  0  0  0  0  0
    0.0723    6.0402    3.8322 H   0  0  0  0  0  0  0  0  0  0  0  0
    3.7539    6.2563    2.7347 H   0  0  0  0  0  0  0  0  0  0  0  0
    3.6585    4.6323    2.0813 H   0  0  0  0  0  0  0  0  0  0  0  0
    3.9296    4.8803    3.8233 H   0  0  0  0  0  0  0  0  0  0  0  0
    2.9093    2.7431    2.7728 H   0  0  0  0  0  0  0  0  0  0  0  0
   -0.8562   -1.4726    4.2952 H   0  0  0  0  0  0  0  0  0  0  0  0
  1  2  1  0
  1 30  1  0
  1 31  1  0
  1 32  1  0
  2  3  1  0
  3 16  1  0
  3  4  2  3
  4  5  1  0
  4 33  1  0
  5  6  1  0
  5  7  1  0
  5 34  1  6
  6 35  1  0
  7 12  2  0
  7  8  1  0
  8  9  2  0
  8 36  1  0
  9 29  1  0
  9 10  1  0
 10 11  2  0
 10 19  1  0
 11 12  1  0
 11 37  1  0
 12 13  1  0
 13 14  1  0
 13 38  1  0
 13 39  1  0
 14 18  1  1
 14 15  1  0
 14 17  1  0
 15 16  2  3
 15 40  1  0
 16 41  1  0
 17 18  1  0
 17 42  1  0
 17 43  1  0
 19 20  2  0
 19 51  1  0
 20 21  1  0
 20 44  1  0
 21 29  2  0
 21 22  1  0
 22 23  2  0
 22 45  1  0
 23 24  1  0
 23 25  1  0
 24 46  1  0
 25 26  1  0
 25 28  2  0
 26 27  1  0
 27 47  1  0
 27 48  1  0
 27 49  1  0
 28 29  1  0
 28 50  1  0
M  CHG  1  19   1
M  END
>  <i_m_ct_stereo_status>  (100) 
1

>  <s_m_source_file>  (100) 
/var/tmp/pbs.5102103.sched01/tmp13xrk0lu/22amefgkkz.sdf

>  <i_m_source_file_index>  (100) 
17

>  <i_lp_mmshare_version>  (100) 
48012

>  <i_f3d_flags>  (100) 
0

>  <s_epik_input>  (100) 
W0NIM11PL0MoQyhcW0hdKT1bQ0hdXDEpPVtDSF0vW0NAQEhdKFtPSF0pYyhjMltDSDJdW0NAXTEzW0NIMl1PMylbY0hdYzRjKFtjSF0yKW5bY0hdYzVjNFtjSF1jKGMoW2NIXTUpW09IXSlPW0NIM10=

>  <s_epik_cmdline>  (100) 
J2VwaWtfcHl0aG9uJywgJy1waHQnLCAnMi4wJywgJy1waCcsICc3LjAnLCAnLXRuJywgJzgnLCAnLW1hJywgJzIwMCcsICctaW1hZScsICc8aW5maWxlLm1hZT4nLCAnLW9tYWUnLCAnPG91dGZpbGUubWFlPic=

>  <r_epik_Ionization_Penalty>  (100) 
1.95437

>  <r_epik_Ionization_Penalty_Charging>  (100) 
1.92903

>  <r_epik_Ionization_Penalty_Neutral>  (100) 
0.0253446

>  <r_epik_State_Penalty>  (100) 
1.78196

>  <r_epik_Charging_Adjusted_Penalty>  (100) 
3.71098

>  <i_epik_Tot_Q>  (100) 
1

>  <i_epik_Tot_abs_Q>  (100) 
1

>  <s_lp_Force_Field>  (100) 
OPLS3e

>  <r_lp_Energy>  (100) 
72.0578

>  <b_lp_Chiralities_Consistent>  (100) 
1

>  <s_lp_Variant>  (100) 
22:0-5

>  <s_i_glide_gridfile>  (100) 
pfpi4k_grid

>  <i_i_glide_lignum>  (100) 
17

>  <i_i_glide_rotatable_bonds>  (100) 
4

>  <r_i_docking_score>  (100) 
-3.84827

>  <r_i_glide_ligand_efficiency>  (100) 
-0.132699

>  <r_i_glide_ligand_efficiency_sa>  (100) 
-0.407694

>  <r_i_glide_ligand_efficiency_ln>  (100) 
-0.881157

>  <r_i_glide_gscore>  (100) 
-3.84827

>  <r_i_glide_lipo>  (100) 
-0.333308

>  <r_i_glide_hbond>  (100) 
-0.116047

>  <r_i_glide_metal>  (100) 
-0

>  <r_i_glide_rewards>  (100) 
-0.733469

>  <r_i_glide_evdw>  (100) 
-29.0729

>  <r_i_glide_ecoul>  (100) 
-7.96201

>  <r_i_glide_erotb>  (100) 
0

>  <r_i_glide_esite>  (100) 
-0.0175018

>  <r_i_glide_emodel>  (100) 
-45.2781

>  <r_i_glide_energy>  (100) 
-37.0349

>  <r_i_glide_einternal>  (100) 
0.820546

>  <r_i_glide_intrahb_reward>  (100) 
-0

>  <i_i_glide_confnum>  (100) 
1

>  <i_i_glide_posenum>  (100) 
1

>  <r_i_glide_eff_state_penalty>  (100) 
0

>  <ligand_id>  (100) 
22

>  <original_smiles>  (100) 
COC1=CC(O)c2cc3c(cc2CC2(C=C1)CO2)ncc1cc(O)c(OC)cc13

>  <smiles>  (100) 
[H]Oc1c(OC([H])([H])[H])c([H])c2c(c1[H])c([H])[n+]([H])c1c([H])c3c(c([H])c21)C([H])(O[H])C([H])=C(OC([H])([H])[H])C([H])=C([H])C1(OC1([H])[H])C3([H])[H]

$$$$
22:4:1
     RDKit          3D

 51 55  0  0  1  0  0  0  0  0999 V2000
    4.7610   -2.0184   -3.0293 C   0  0  0  0  0  0  0  0  0  0  0  0
    5.0592   -1.1910   -1.9124 O   0  0  0  0  0  0  0  0  0  0  0  0
    4.8346   -1.7241   -0.6674 C   0  0  0  0  0  0  0  0  0  0  0  0
    5.0204   -0.9264    0.4074 C   0  0  0  0  0  0  0  0  0  0  0  0
    4.8831   -1.3628    1.8719 C   0  0  1  0  0  0  0  0  0  0  0  0
    5.8234   -0.6821    2.6700 O   0  0  0  0  0  0  0  0  0  0  0  0
    3.4725   -1.2130    2.4408 C   0  0  0  0  0  0  0  0  0  0  0  0
    3.0010    0.1059    2.6415 C   0  0  0  0  0  0  0  0  0  0  0  0
    1.7176    0.3688    3.1721 C   0  0  0  0  0  0  0  0  0  0  0  0
    0.9060   -0.7441    3.5050 C   0  0  0  0  0  0  0  0  0  0  0  0
    1.3588   -2.0659    3.3031 C   0  0  0  0  0  0  0  0  0  0  0  0
    2.6368   -2.3220    2.7703 C   0  0  0  0  0  0  0  0  0  0  0  0
    3.0373   -3.7985    2.5709 C   0  0  0  0  0  0  0  0  0  0  0  0
    2.9423   -4.3167    1.1329 C   0  0  1  0  0  0  0  0  0  0  0  0
    3.1789   -3.2944    0.0936 C   0  0  0  0  0  0  0  0  0  0  0  0
    4.3904   -3.0887   -0.4471 C   0  0  0  0  0  0  0  0  0  0  0  0
    3.1588   -5.7766    0.8354 C   0  0  0  0  0  0  0  0  0  0  0  0
    1.8466   -5.1954    0.8569 O   0  0  0  0  0  0  0  0  0  0  0  0
   -0.3266   -0.5421    4.0169 N   0  0  0  0  0  0  0  0  0  0  0  0
   -0.8579    0.6809    4.2066 C   0  0  0  0  0  0  0  0  0  0  0  0
   -0.1048    1.8274    3.8992 C   0  0  0  0  0  0  0  0  0  0  0  0
   -0.6553    3.1054    4.1106 C   0  0  0  0  0  0  0  0  0  0  0  0
    0.0932    4.2535    3.8037 C   0  0  0  0  0  0  0  0  0  0  0  0
   -0.4578    5.4905    3.9775 O   0  0  0  0  0  0  0  0  0  0  0  0
    1.4050    4.1459    3.3035 C   0  0  0  0  0  0  0  0  0  0  0  0
    2.0550    5.3316    3.0339 O   0  0  0  0  0  0  0  0  0  0  0  0
    3.4630    5.2961    2.8807 C   0  0  0  0  0  0  0  0  0  0  0  0
    1.9539    2.8584    3.0819 C   0  0  0  0  0  0  0  0  0  0  0  0
    1.2106    1.6869    3.3751 C   0  0  0  0  0  0  0  0  0  0  0  0
    4.9948   -1.4665   -3.9398 H   0  0  0  0  0  0  0  0  0  0  0  0
    3.6992   -2.2706   -3.0634 H   0  0  0  0  0  0  0  0  0  0  0  0
    5.3589   -2.9329   -3.0350 H   0  0  0  0  0  0  0  0  0  0  0  0
    5.3222    0.0963    0.2359 H   0  0  0  0  0  0  0  0  0  0  0  0
    5.2151   -2.3971    1.9337 H   0  0  0  0  0  0  0  0  0  0  0  0
    5.4775    0.1677    2.8920 H   0  0  0  0  0  0  0  0  0  0  0  0
    3.6639    0.9074    2.3705 H   0  0  0  0  0  0  0  0  0  0  0  0
    0.7137   -2.8967    3.5552 H   0  0  0  0  0  0  0  0  0  0  0  0
    4.0642   -3.9383    2.9063 H   0  0  0  0  0  0  0  0  0  0  0  0
    2.4367   -4.4450    3.2164 H   0  0  0  0  0  0  0  0  0  0  0  0
    2.4557   -2.4941    0.0694 H   0  0  0  0  0  0  0  0  0  0  0  0
    5.1448   -3.8513   -0.3057 H   0  0  0  0  0  0  0  0  0  0  0  0
    3.5275   -6.0619   -0.1478 H   0  0  0  0  0  0  0  0  0  0  0  0
    3.3749   -6.4524    1.6618 H   0  0  0  0  0  0  0  0  0  0  0  0
   -1.8685    0.7126    4.5906 H   0  0  0  0  0  0  0  0  0  0  0  0
   -1.6554    3.2086    4.5064 H   0  0  0  0  0  0  0  0  0  0  0  0
    0.0906    6.1478    3.5627 H   0  0  0  0  0  0  0  0  0  0  0  0
    3.8233    6.2955    2.6424 H   0  0  0  0  0  0  0  0  0  0  0  0
    3.7965    4.6376    2.0822 H   0  0  0  0  0  0  0  0  0  0  0  0
    3.9230    4.9868    3.8206 H   0  0  0  0  0  0  0  0  0  0  0  0
    2.9435    2.7803    2.6699 H   0  0  0  0  0  0  0  0  0  0  0  0
   -0.8867   -1.3625    4.2389 H   0  0  0  0  0  0  0  0  0  0  0  0
  1  2  1  0
  1 30  1  0
  1 31  1  0
  1 32  1  0
  2  3  1  0
  3 16  1  0
  3  4  2  3
  4  5  1  0
  4 33  1  0
  5  6  1  0
  5  7  1  0
  5 34  1  6
  6 35  1  0
  7 12  2  0
  7  8  1  0
  8  9  2  0
  8 36  1  0
  9 29  1  0
  9 10  1  0
 10 11  2  0
 10 19  1  0
 11 12  1  0
 11 37  1  0
 12 13  1  0
 13 14  1  0
 13 38  1  0
 13 39  1  0
 14 18  1  6
 14 15  1  0
 14 17  1  0
 15 16  2  3
 15 40  1  0
 16 41  1  0
 17 18  1  0
 17 42  1  0
 17 43  1  0
 19 20  2  0
 19 51  1  0
 20 21  1  0
 20 44  1  0
 21 29  2  0
 21 22  1  0
 22 23  2  0
 22 45  1  0
 23 24  1  0
 23 25  1  0
 24 46  1  0
 25 26  1  0
 25 28  2  0
 26 27  1  0
 27 47  1  0
 27 48  1  0
 27 49  1  0
 28 29  1  0
 28 50  1  0
M  CHG  1  19   1
M  END
>  <i_m_ct_stereo_status>  (101) 
1

>  <s_m_source_file>  (101) 
/var/tmp/pbs.5102103.sched01/tmp13xrk0lu/22amefgkkz.sdf

>  <i_m_source_file_index>  (101) 
17

>  <i_lp_mmshare_version>  (101) 
48012

>  <i_f3d_flags>  (101) 
0

>  <s_epik_input>  (101) 
W0NIM11PL0MoQyhcW0hdKT1bQ0hdXDEpPVtDSF0vW0NAQEhdKFtPSF0pYyhjMltDSDJdW0NAXTEzW0NIMl1PMylbY0hdYzRjKFtjSF0yKW5bY0hdYzVjNFtjSF1jKGMoW2NIXTUpW09IXSlPW0NIM10=

>  <s_epik_cmdline>  (101) 
J2VwaWtfcHl0aG9uJywgJy1waHQnLCAnMi4wJywgJy1waCcsICc3LjAnLCAnLXRuJywgJzgnLCAnLW1hJywgJzIwMCcsICctaW1hZScsICc8aW5maWxlLm1hZT4nLCAnLW9tYWUnLCAnPG91dGZpbGUubWFlPic=

>  <r_epik_Ionization_Penalty>  (101) 
1.95437

>  <r_epik_Ionization_Penalty_Charging>  (101) 
1.92903

>  <r_epik_Ionization_Penalty_Neutral>  (101) 
0.0253446

>  <r_epik_State_Penalty>  (101) 
1.78196

>  <r_epik_Charging_Adjusted_Penalty>  (101) 
3.71098

>  <i_epik_Tot_Q>  (101) 
1

>  <i_epik_Tot_abs_Q>  (101) 
1

>  <s_lp_Force_Field>  (101) 
OPLS3e

>  <r_lp_Energy>  (101) 
72.0578

>  <b_lp_Chiralities_Consistent>  (101) 
1

>  <s_lp_Variant>  (101) 
22:0-5

>  <s_i_glide_gridfile>  (101) 
pfpi4k_grid

>  <i_i_glide_lignum>  (101) 
17

>  <i_i_glide_rotatable_bonds>  (101) 
4

>  <r_i_docking_score>  (101) 
-3.59781

>  <r_i_glide_ligand_efficiency>  (101) 
-0.124062

>  <r_i_glide_ligand_efficiency_sa>  (101) 
-0.381159

>  <r_i_glide_ligand_efficiency_ln>  (101) 
-0.823807

>  <r_i_glide_gscore>  (101) 
-3.59781

>  <r_i_glide_lipo>  (101) 
-0.330879

>  <r_i_glide_hbond>  (101) 
-0.0837567

>  <r_i_glide_metal>  (101) 
-0

>  <r_i_glide_rewards>  (101) 
-0.733469

>  <r_i_glide_evdw>  (101) 
-28.6113

>  <r_i_glide_ecoul>  (101) 
-6.67381

>  <r_i_glide_erotb>  (101) 
0

>  <r_i_glide_esite>  (101) 
-0.0180693

>  <r_i_glide_emodel>  (101) 
-42.3639

>  <r_i_glide_energy>  (101) 
-35.2851

>  <r_i_glide_einternal>  (101) 
1.71577

>  <r_i_glide_intrahb_reward>  (101) 
-0

>  <i_i_glide_confnum>  (101) 
1

>  <i_i_glide_posenum>  (101) 
22

>  <r_i_glide_eff_state_penalty>  (101) 
0

>  <ligand_id>  (101) 
22

>  <original_smiles>  (101) 
COC1=CC(O)c2cc3c(cc2CC2(C=C1)CO2)ncc1cc(O)c(OC)cc13

>  <smiles>  (101) 
[H]Oc1c(OC([H])([H])[H])c([H])c2c(c1[H])c([H])[n+]([H])c1c([H])c3c(c([H])c21)C([H])(O[H])C([H])=C(OC([H])([H])[H])C([H])=C([H])C1(OC1([H])[H])C3([H])[H]

$$$$
22:4:2
     RDKit          3D

 51 55  0  0  1  0  0  0  0  0999 V2000
    4.2146   -1.8612   -3.2390 C   0  0  0  0  0  0  0  0  0  0  0  0
    4.5465   -1.0618   -2.1137 O   0  0  0  0  0  0  0  0  0  0  0  0
    4.4893   -1.6663   -0.8819 C   0  0  0  0  0  0  0  0  0  0  0  0
    4.7374   -0.9047    0.2057 C   0  0  0  0  0  0  0  0  0  0  0  0
    4.8079   -1.4030    1.6540 C   0  0  1  0  0  0  0  0  0  0  0  0
    5.7825   -0.6545    2.3480 O   0  0  0  0  0  0  0  0  0  0  0  0
    3.4616   -1.3842    2.3827 C   0  0  0  0  0  0  0  0  0  0  0  0
    2.9239   -0.1145    2.6985 C   0  0  0  0  0  0  0  0  0  0  0  0
    1.6866    0.0279    3.3658 C   0  0  0  0  0  0  0  0  0  0  0  0
    0.9903   -1.1532    3.7251 C   0  0  0  0  0  0  0  0  0  0  0  0
    1.5099   -2.4274    3.4141 C   0  0  0  0  0  0  0  0  0  0  0  0
    2.7393   -2.5640    2.7401 C   0  0  0  0  0  0  0  0  0  0  0  0
    3.2101   -3.9967    2.4245 C   0  0  0  0  0  0  0  0  0  0  0  0
    2.9837   -4.4583    0.9840 C   0  0  1  0  0  0  0  0  0  0  0  0
    3.0387   -3.3825   -0.0262 C   0  0  0  0  0  0  0  0  0  0  0  0
    4.1651   -3.0686   -0.6849 C   0  0  0  0  0  0  0  0  0  0  0  0
    3.2630   -5.8876    0.6065 C   0  0  0  0  0  0  0  0  0  0  0  0
    1.9218   -5.4011    0.7815 O   0  0  0  0  0  0  0  0  0  0  0  0
   -0.1910   -1.0641    4.3704 N   0  0  0  0  0  0  0  0  0  0  0  0
   -0.7755    0.1091    4.6872 C   0  0  0  0  0  0  0  0  0  0  0  0
   -0.1406    1.3194    4.3540 C   0  0  0  0  0  0  0  0  0  0  0  0
   -0.7465    2.5438    4.6936 C   0  0  0  0  0  0  0  0  0  0  0  0
   -0.1159    3.7591    4.3702 C   0  0  0  0  0  0  0  0  0  0  0  0
   -0.7144    4.9336    4.7359 O   0  0  0  0  0  0  0  0  0  0  0  0
    1.1237    3.7682    3.6965 C   0  0  0  0  0  0  0  0  0  0  0  0
    1.6838    4.9997    3.4295 O   0  0  0  0  0  0  0  0  0  0  0  0
    2.8825    5.0446    2.6713 C   0  0  0  0  0  0  0  0  0  0  0  0
    1.7293    2.5315    3.3569 C   0  0  0  0  0  0  0  0  0  0  0  0
    1.1103    1.2972    3.6814 C   0  0  0  0  0  0  0  0  0  0  0  0
    4.3058   -1.2532   -4.1404 H   0  0  0  0  0  0  0  0  0  0  0  0
    3.1839   -2.2173   -3.1858 H   0  0  0  0  0  0  0  0  0  0  0  0
    4.8915   -2.7125   -3.3475 H   0  0  0  0  0  0  0  0  0  0  0  0
    4.9502    0.1447    0.0686 H   0  0  0  0  0  0  0  0  0  0  0  0
    5.2130   -2.4132    1.6320 H   0  0  0  0  0  0  0  0  0  0  0  0
    6.0052   -1.1089    3.1446 H   0  0  0  0  0  0  0  0  0  0  0  0
    3.5054    0.7409    2.4012 H   0  0  0  0  0  0  0  0  0  0  0  0
    0.9541   -3.3117    3.6934 H   0  0  0  0  0  0  0  0  0  0  0  0
    4.2752   -4.0777    2.6364 H   0  0  0  0  0  0  0  0  0  0  0  0
    2.7328   -4.7125    3.0992 H   0  0  0  0  0  0  0  0  0  0  0  0
    2.2669   -2.6322    0.0629 H   0  0  0  0  0  0  0  0  0  0  0  0
    4.9828   -3.7764   -0.6665 H   0  0  0  0  0  0  0  0  0  0  0  0
    3.5713   -6.0964   -0.4121 H   0  0  0  0  0  0  0  0  0  0  0  0
    3.6116   -6.5750    1.3747 H   0  0  0  0  0  0  0  0  0  0  0  0
   -1.7313    0.0506    5.1853 H   0  0  0  0  0  0  0  0  0  0  0  0
   -1.6951    2.5491    5.2109 H   0  0  0  0  0  0  0  0  0  0  0  0
   -1.3754    4.8029    5.3953 H   0  0  0  0  0  0  0  0  0  0  0  0
    3.1622    6.0836    2.5087 H   0  0  0  0  0  0  0  0  0  0  0  0
    2.7544    4.5741    1.6954 H   0  0  0  0  0  0  0  0  0  0  0  0
    3.7054    4.5654    3.2004 H   0  0  0  0  0  0  0  0  0  0  0  0
    2.6794    2.5432    2.8530 H   0  0  0  0  0  0  0  0  0  0  0  0
   -0.6645   -1.9335    4.6127 H   0  0  0  0  0  0  0  0  0  0  0  0
  1  2  1  0
  1 30  1  0
  1 31  1  0
  1 32  1  0
  2  3  1  0
  3 16  1  0
  3  4  2  3
  4  5  1  0
  4 33  1  0
  5  6  1  0
  5  7  1  0
  5 34  1  6
  6 35  1  0
  7 12  2  0
  7  8  1  0
  8  9  2  0
  8 36  1  0
  9 29  1  0
  9 10  1  0
 10 11  2  0
 10 19  1  0
 11 12  1  0
 11 37  1  0
 12 13  1  0
 13 14  1  0
 13 38  1  0
 13 39  1  0
 14 18  1  1
 14 15  1  0
 14 17  1  0
 15 16  2  3
 15 40  1  0
 16 41  1  0
 17 18  1  0
 17 42  1  0
 17 43  1  0
 19 20  2  0
 19 51  1  0
 20 21  1  0
 20 44  1  0
 21 29  2  0
 21 22  1  0
 22 23  2  0
 22 45  1  0
 23 24  1  0
 23 25  1  0
 24 46  1  0
 25 26  1  0
 25 28  2  0
 26 27  1  0
 27 47  1  0
 27 48  1  0
 27 49  1  0
 28 29  1  0
 28 50  1  0
M  CHG  1  19   1
M  END
>  <i_m_ct_stereo_status>  (102) 
1

>  <s_m_source_file>  (102) 
/var/tmp/pbs.5102103.sched01/tmp13xrk0lu/22amefgkkz.sdf

>  <i_m_source_file_index>  (102) 
17

>  <i_lp_mmshare_version>  (102) 
48012

>  <i_f3d_flags>  (102) 
0

>  <s_epik_input>  (102) 
W0NIM11PL0MoQyhcW0hdKT1bQ0hdXDEpPVtDSF0vW0NAQEhdKFtPSF0pYyhjMltDSDJdW0NAXTEzW0NIMl1PMylbY0hdYzRjKFtjSF0yKW5bY0hdYzVjNFtjSF1jKGMoW2NIXTUpW09IXSlPW0NIM10=

>  <s_epik_cmdline>  (102) 
J2VwaWtfcHl0aG9uJywgJy1waHQnLCAnMi4wJywgJy1waCcsICc3LjAnLCAnLXRuJywgJzgnLCAnLW1hJywgJzIwMCcsICctaW1hZScsICc8aW5maWxlLm1hZT4nLCAnLW9tYWUnLCAnPG91dGZpbGUubWFlPic=

>  <r_epik_Ionization_Penalty>  (102) 
1.95437

>  <r_epik_Ionization_Penalty_Charging>  (102) 
1.92903

>  <r_epik_Ionization_Penalty_Neutral>  (102) 
0.0253446

>  <r_epik_State_Penalty>  (102) 
1.78196

>  <r_epik_Charging_Adjusted_Penalty>  (102) 
3.71098

>  <i_epik_Tot_Q>  (102) 
1

>  <i_epik_Tot_abs_Q>  (102) 
1

>  <s_lp_Force_Field>  (102) 
OPLS3e

>  <r_lp_Energy>  (102) 
72.0578

>  <b_lp_Chiralities_Consistent>  (102) 
1

>  <s_lp_Variant>  (102) 
22:0-5

>  <s_i_glide_gridfile>  (102) 
pfpi4k_grid

>  <i_i_glide_lignum>  (102) 
17

>  <i_i_glide_rotatable_bonds>  (102) 
4

>  <r_i_docking_score>  (102) 
-3.08559

>  <r_i_glide_ligand_efficiency>  (102) 
-0.1064

>  <r_i_glide_ligand_efficiency_sa>  (102) 
-0.326893

>  <r_i_glide_ligand_efficiency_ln>  (102) 
-0.706521

>  <r_i_glide_gscore>  (102) 
-3.08559

>  <r_i_glide_lipo>  (102) 
-0.307547

>  <r_i_glide_hbond>  (102) 
-0.0765608

>  <r_i_glide_metal>  (102) 
-0

>  <r_i_glide_rewards>  (102) 
-0.733469

>  <r_i_glide_evdw>  (102) 
-29.84

>  <r_i_glide_ecoul>  (102) 
-3.06345

>  <r_i_glide_erotb>  (102) 
0

>  <r_i_glide_esite>  (102) 
-0.0164905

>  <r_i_glide_emodel>  (102) 
-39.3327

>  <r_i_glide_energy>  (102) 
-32.9035

>  <r_i_glide_einternal>  (102) 
1.05289

>  <r_i_glide_intrahb_reward>  (102) 
-0

>  <i_i_glide_confnum>  (102) 
2

>  <i_i_glide_posenum>  (102) 
34

>  <r_i_glide_eff_state_penalty>  (102) 
0

>  <ligand_id>  (102) 
22

>  <original_smiles>  (102) 
COC1=CC(O)c2cc3c(cc2CC2(C=C1)CO2)ncc1cc(O)c(OC)cc13

>  <smiles>  (102) 
[H]Oc1c(OC([H])([H])[H])c([H])c2c(c1[H])c([H])[n+]([H])c1c([H])c3c(c([H])c21)C([H])(O[H])C([H])=C(OC([H])([H])[H])C([H])=C([H])C1(OC1([H])[H])C3([H])[H]

$$$$
22:5:0
     RDKit          3D

 51 55  0  0  1  0  0  0  0  0999 V2000
    3.1395   -0.9673   -2.5354 C   0  0  0  0  0  0  0  0  0  0  0  0
    3.8293   -1.0336   -1.2938 O   0  0  0  0  0  0  0  0  0  0  0  0
    4.3357   -2.2559   -0.9419 C   0  0  0  0  0  0  0  0  0  0  0  0
    5.1688   -2.3720    0.1107 C   0  0  0  0  0  0  0  0  0  0  0  0
    5.2020   -1.4137    1.2747 C   0  0  1  0  0  0  0  0  0  0  0  0
    5.8147   -0.2134    0.8755 O   0  0  0  0  0  0  0  0  0  0  0  0
    3.8134   -1.2601    1.9424 C   0  0  0  0  0  0  0  0  0  0  0  0
    3.3107    0.0485    2.1932 C   0  0  0  0  0  0  0  0  0  0  0  0
    2.0487    0.2816    2.7839 C   0  0  0  0  0  0  0  0  0  0  0  0
    1.2693   -0.8489    3.1250 C   0  0  0  0  0  0  0  0  0  0  0  0
    1.7378   -2.1620    2.8906 C   0  0  0  0  0  0  0  0  0  0  0  0
    3.0008   -2.3837    2.3122 C   0  0  0  0  0  0  0  0  0  0  0  0
    3.4010   -3.8652    2.1286 C   0  0  0  0  0  0  0  0  0  0  0  0
    2.8677   -4.5575    0.8613 C   0  0  1  0  0  0  0  0  0  0  0  0
    2.6399   -3.7037   -0.3477 C   0  0  0  0  0  0  0  0  0  0  0  0
    3.6389   -3.4891   -1.2202 C   0  0  0  0  0  0  0  0  0  0  0  0
    3.0493   -6.0457    0.7228 C   0  0  0  0  0  0  0  0  0  0  0  0
    1.7910   -5.4589    1.1018 O   0  0  0  0  0  0  0  0  0  0  0  0
    0.0620   -0.6831    3.6929 N   0  0  0  0  0  0  0  0  0  0  0  0
   -0.4842    0.5219    3.9381 C   0  0  0  0  0  0  0  0  0  0  0  0
    0.2393    1.6865    3.6508 C   0  0  0  0  0  0  0  0  0  0  0  0
   -0.3228    2.9423    3.9507 C   0  0  0  0  0  0  0  0  0  0  0  0
    0.3921    4.1191    3.6824 C   0  0  0  0  0  0  0  0  0  0  0  0
   -0.2053    5.3400    3.8411 O   0  0  0  0  0  0  0  0  0  0  0  0
    1.6840    4.0504    3.1224 C   0  0  0  0  0  0  0  0  0  0  0  0
    2.2682    5.2573    2.8110 O   0  0  0  0  0  0  0  0  0  0  0  0
    3.6810    5.3015    2.7908 C   0  0  0  0  0  0  0  0  0  0  0  0
    2.2366    2.7859    2.8017 C   0  0  0  0  0  0  0  0  0  0  0  0
    1.5295    1.5873    3.0646 C   0  0  0  0  0  0  0  0  0  0  0  0
    2.8675    0.0818   -2.7229 H   0  0  0  0  0  0  0  0  0  0  0  0
    2.2338   -1.5783   -2.5721 H   0  0  0  0  0  0  0  0  0  0  0  0
    3.8137   -1.2872   -3.3351 H   0  0  0  0  0  0  0  0  0  0  0  0
    5.5049   -3.3613    0.3873 H   0  0  0  0  0  0  0  0  0  0  0  0
    5.8660   -1.8492    2.0184 H   0  0  0  0  0  0  0  0  0  0  0  0
    6.6664   -0.1349    1.2806 H   0  0  0  0  0  0  0  0  0  0  0  0
    3.9294    0.8770    1.9124 H   0  0  0  0  0  0  0  0  0  0  0  0
    1.1198   -3.0084    3.1717 H   0  0  0  0  0  0  0  0  0  0  0  0
    4.4838   -3.9639    2.1381 H   0  0  0  0  0  0  0  0  0  0  0  0
    3.0700   -4.4450    2.9980 H   0  0  0  0  0  0  0  0  0  0  0  0
    2.0241   -2.8472   -0.0981 H   0  0  0  0  0  0  0  0  0  0  0  0
    4.3061   -4.3254   -1.3727 H   0  0  0  0  0  0  0  0  0  0  0  0
    3.1256   -6.4288   -0.2858 H   0  0  0  0  0  0  0  0  0  0  0  0
    3.5626   -6.6017    1.5093 H   0  0  0  0  0  0  0  0  0  0  0  0
   -1.4688    0.5235    4.3754 H   0  0  0  0  0  0  0  0  0  0  0  0
   -1.3270    3.0056    4.3462 H   0  0  0  0  0  0  0  0  0  0  0  0
    0.2809    5.9794    3.3325 H   0  0  0  0  0  0  0  0  0  0  0  0
    4.0134    6.2986    2.5056 H   0  0  0  0  0  0  0  0  0  0  0  0
    4.1275    4.6094    2.0801 H   0  0  0  0  0  0  0  0  0  0  0  0
    4.0449    5.0839    3.7965 H   0  0  0  0  0  0  0  0  0  0  0  0
    3.1804    2.7430    2.2946 H   0  0  0  0  0  0  0  0  0  0  0  0
   -0.4641   -1.5229    3.9241 H   0  0  0  0  0  0  0  0  0  0  0  0
  1  2  1  0
  1 30  1  0
  1 31  1  0
  1 32  1  0
  2  3  1  0
  3 16  1  0
  3  4  2  3
  4  5  1  0
  4 33  1  0
  5  6  1  0
  5  7  1  0
  5 34  1  1
  6 35  1  0
  7 12  2  0
  7  8  1  0
  8  9  2  0
  8 36  1  0
  9 29  1  0
  9 10  1  0
 10 11  2  0
 10 19  1  0
 11 12  1  0
 11 37  1  0
 12 13  1  0
 13 14  1  0
 13 38  1  0
 13 39  1  0
 14 18  1  1
 14 15  1  0
 14 17  1  0
 15 16  2  3
 15 40  1  0
 16 41  1  0
 17 18  1  0
 17 42  1  0
 17 43  1  0
 19 20  2  0
 19 51  1  0
 20 21  1  0
 20 44  1  0
 21 29  2  0
 21 22  1  0
 22 23  2  0
 22 45  1  0
 23 24  1  0
 23 25  1  0
 24 46  1  0
 25 26  1  0
 25 28  2  0
 26 27  1  0
 27 47  1  0
 27 48  1  0
 27 49  1  0
 28 29  1  0
 28 50  1  0
M  CHG  1  19   1
M  END
>  <i_m_ct_stereo_status>  (103) 
1

>  <s_m_source_file>  (103) 
/var/tmp/pbs.5102103.sched01/tmp13xrk0lu/22amefgkkz.sdf

>  <i_m_source_file_index>  (103) 
18

>  <i_lp_mmshare_version>  (103) 
48012

>  <i_f3d_flags>  (103) 
0

>  <s_epik_input>  (103) 
W0NIM11PL0MoQyhcW0hdKT1bQ0hdXDEpPVtDSF0vW0NAQEhdKFtPSF0pYyhjMltDSDJdW0NAXTEzW0NIMl1PMylbY0hdYzRjKFtjSF0yKW5bY0hdYzVjNFtjSF1jKGMoW2NIXTUpW09IXSlPW0NIM10=

>  <s_epik_cmdline>  (103) 
J2VwaWtfcHl0aG9uJywgJy1waHQnLCAnMi4wJywgJy1waCcsICc3LjAnLCAnLXRuJywgJzgnLCAnLW1hJywgJzIwMCcsICctaW1hZScsICc8aW5maWxlLm1hZT4nLCAnLW9tYWUnLCAnPG91dGZpbGUubWFlPic=

>  <r_epik_Ionization_Penalty>  (103) 
1.95437

>  <r_epik_Ionization_Penalty_Charging>  (103) 
1.92903

>  <r_epik_Ionization_Penalty_Neutral>  (103) 
0.0253446

>  <r_epik_State_Penalty>  (103) 
1.78196

>  <r_epik_Charging_Adjusted_Penalty>  (103) 
3.71098

>  <i_epik_Tot_Q>  (103) 
1

>  <i_epik_Tot_abs_Q>  (103) 
1

>  <s_lp_Force_Field>  (103) 
OPLS3e

>  <r_lp_Energy>  (103) 
111.251

>  <b_lp_Chiralities_Consistent>  (103) 
1

>  <s_lp_Variant>  (103) 
22:0-6

>  <s_i_glide_gridfile>  (103) 
pfpi4k_grid

>  <i_i_glide_lignum>  (103) 
18

>  <i_i_glide_rotatable_bonds>  (103) 
4

>  <r_i_docking_score>  (103) 
-3.56478

>  <r_i_glide_ligand_efficiency>  (103) 
-0.122923

>  <r_i_glide_ligand_efficiency_sa>  (103) 
-0.37766

>  <r_i_glide_ligand_efficiency_ln>  (103) 
-0.816244

>  <r_i_glide_gscore>  (103) 
-3.56478

>  <r_i_glide_lipo>  (103) 
-0.146448

>  <r_i_glide_hbond>  (103) 
-0.0966914

>  <r_i_glide_metal>  (103) 
-0

>  <r_i_glide_rewards>  (103) 
-0.733469

>  <r_i_glide_evdw>  (103) 
-24.469

>  <r_i_glide_ecoul>  (103) 
-8.99883

>  <r_i_glide_erotb>  (103) 
0

>  <r_i_glide_esite>  (103) 
-0.0148969

>  <r_i_glide_emodel>  (103) 
-36.7737

>  <r_i_glide_energy>  (103) 
-33.4678

>  <r_i_glide_einternal>  (103) 
6.05701

>  <r_i_glide_intrahb_reward>  (103) 
-0

>  <i_i_glide_confnum>  (103) 
2

>  <i_i_glide_posenum>  (103) 
11

>  <r_i_glide_eff_state_penalty>  (103) 
0

>  <ligand_id>  (103) 
22

>  <original_smiles>  (103) 
COC1=CC(O)c2cc3c(cc2CC2(C=C1)CO2)ncc1cc(O)c(OC)cc13

>  <smiles>  (103) 
[H]Oc1c(OC([H])([H])[H])c([H])c2c(c1[H])c([H])[n+]([H])c1c([H])c3c(c([H])c21)C([H])(O[H])C([H])=C(OC([H])([H])[H])C([H])=C([H])C1(OC1([H])[H])C3([H])[H]

$$$$
22:5:1
     RDKit          3D

 51 55  0  0  1  0  0  0  0  0999 V2000
    4.3133   -0.8018    0.3740 C   0  0  0  0  0  0  0  0  0  0  0  0
    4.8218   -0.9317    1.6963 O   0  0  0  0  0  0  0  0  0  0  0  0
    4.9710   -2.2026    2.1993 C   0  0  0  0  0  0  0  0  0  0  0  0
    5.1684   -2.3550    3.5213 C   0  0  0  0  0  0  0  0  0  0  0  0
    4.7245   -1.3542    4.5568 C   0  0  1  0  0  0  0  0  0  0  0  0
    5.6048   -0.2501    4.5711 O   0  0  0  0  0  0  0  0  0  0  0  0
    3.2288   -1.0032    4.4117 C   0  0  0  0  0  0  0  0  0  0  0  0
    2.8617    0.3699    4.3982 C   0  0  0  0  0  0  0  0  0  0  0  0
    1.5238    0.7901    4.2295 C   0  0  0  0  0  0  0  0  0  0  0  0
    0.5305   -0.2086    4.0852 C   0  0  0  0  0  0  0  0  0  0  0  0
    0.8675   -1.5742    4.1043 C   0  0  0  0  0  0  0  0  0  0  0  0
    2.2007   -1.9988    4.2669 C   0  0  0  0  0  0  0  0  0  0  0  0
    2.4233   -3.5288    4.2913 C   0  0  0  0  0  0  0  0  0  0  0  0
    2.5185   -4.2409    2.9245 C   0  0  1  0  0  0  0  0  0  0  0  0
    3.0594   -3.4389    1.7988 C   0  0  0  0  0  0  0  0  0  0  0  0
    4.3879   -3.3805    1.5915 C   0  0  0  0  0  0  0  0  0  0  0  0
    2.5597   -5.7492    2.8665 C   0  0  0  0  0  0  0  0  0  0  0  0
    1.3694   -5.0136    2.5634 O   0  0  0  0  0  0  0  0  0  0  0  0
   -0.7574    0.1517    3.9293 N   0  0  0  0  0  0  0  0  0  0  0  0
   -1.1742    1.4303    3.8862 C   0  0  0  0  0  0  0  0  0  0  0  0
   -0.2384    2.4736    4.0147 C   0  0  0  0  0  0  0  0  0  0  0  0
   -0.6745    3.8107    3.9706 C   0  0  0  0  0  0  0  0  0  0  0  0
    0.2579    4.8641    4.0792 C   0  0  0  0  0  0  0  0  0  0  0  0
   -0.1878    6.1484    4.0628 O   0  0  0  0  0  0  0  0  0  0  0  0
    1.6336    4.5719    4.2314 C   0  0  0  0  0  0  0  0  0  0  0  0
    2.5697    5.5657    4.4028 O   0  0  0  0  0  0  0  0  0  0  0  0
    2.7413    6.4454    3.2966 C   0  0  0  0  0  0  0  0  0  0  0  0
    2.0605    3.2333    4.3086 C   0  0  0  0  0  0  0  0  0  0  0  0
    1.1361    2.1612    4.1866 C   0  0  0  0  0  0  0  0  0  0  0  0
    4.4363    0.2316    0.0581 H   0  0  0  0  0  0  0  0  0  0  0  0
    3.2441   -1.0023    0.3480 H   0  0  0  0  0  0  0  0  0  0  0  0
    4.8232   -1.4422   -0.3507 H   0  0  0  0  0  0  0  0  0  0  0  0
    5.2109   -3.3574    3.9175 H   0  0  0  0  0  0  0  0  0  0  0  0
    4.8562   -1.8334    5.5237 H   0  0  0  0  0  0  0  0  0  0  0  0
    5.5831    0.1566    3.7180 H   0  0  0  0  0  0  0  0  0  0  0  0
    3.6389    1.1056    4.5137 H   0  0  0  0  0  0  0  0  0  0  0  0
    0.0931   -2.3201    3.9974 H   0  0  0  0  0  0  0  0  0  0  0  0
    3.3237   -3.7633    4.8536 H   0  0  0  0  0  0  0  0  0  0  0  0
    1.6178   -3.9971    4.8644 H   0  0  0  0  0  0  0  0  0  0  0  0
    2.5012   -2.5205    1.7078 H   0  0  0  0  0  0  0  0  0  0  0  0
    4.9317   -4.2912    1.8143 H   0  0  0  0  0  0  0  0  0  0  0  0
    3.0348   -6.2314    2.0153 H   0  0  0  0  0  0  0  0  0  0  0  0
    2.5236   -6.3046    3.8016 H   0  0  0  0  0  0  0  0  0  0  0  0
   -2.2334    1.5809    3.7353 H   0  0  0  0  0  0  0  0  0  0  0  0
   -1.7260    4.0262    3.8541 H   0  0  0  0  0  0  0  0  0  0  0  0
    0.3696    6.7428    3.5672 H   0  0  0  0  0  0  0  0  0  0  0  0
    3.4019    7.2661    3.5790 H   0  0  0  0  0  0  0  0  0  0  0  0
    1.8143    6.8972    2.9360 H   0  0  0  0  0  0  0  0  0  0  0  0
    3.1964    5.8937    2.4755 H   0  0  0  0  0  0  0  0  0  0  0  0
    3.1189    3.0886    4.4578 H   0  0  0  0  0  0  0  0  0  0  0  0
   -1.4509   -0.5850    3.8267 H   0  0  0  0  0  0  0  0  0  0  0  0
  1  2  1  0
  1 30  1  0
  1 31  1  0
  1 32  1  0
  2  3  1  0
  3 16  1  0
  3  4  2  3
  4  5  1  0
  4 33  1  0
  5  6  1  0
  5  7  1  0
  5 34  1  1
  6 35  1  0
  7 12  2  0
  7  8  1  0
  8  9  2  0
  8 36  1  0
  9 29  1  0
  9 10  1  0
 10 11  2  0
 10 19  1  0
 11 12  1  0
 11 37  1  0
 12 13  1  0
 13 14  1  0
 13 38  1  0
 13 39  1  0
 14 18  1  6
 14 15  1  0
 14 17  1  0
 15 16  2  3
 15 40  1  0
 16 41  1  0
 17 18  1  0
 17 42  1  0
 17 43  1  0
 19 20  2  0
 19 51  1  0
 20 21  1  0
 20 44  1  0
 21 29  2  0
 21 22  1  0
 22 23  2  0
 22 45  1  0
 23 24  1  0
 23 25  1  0
 24 46  1  0
 25 26  1  0
 25 28  2  0
 26 27  1  0
 27 47  1  0
 27 48  1  0
 27 49  1  0
 28 29  1  0
 28 50  1  0
M  CHG  1  19   1
M  END
>  <i_m_ct_stereo_status>  (104) 
1

>  <s_m_source_file>  (104) 
/var/tmp/pbs.5102103.sched01/tmp13xrk0lu/22amefgkkz.sdf

>  <i_m_source_file_index>  (104) 
18

>  <i_lp_mmshare_version>  (104) 
48012

>  <i_f3d_flags>  (104) 
0

>  <s_epik_input>  (104) 
W0NIM11PL0MoQyhcW0hdKT1bQ0hdXDEpPVtDSF0vW0NAQEhdKFtPSF0pYyhjMltDSDJdW0NAXTEzW0NIMl1PMylbY0hdYzRjKFtjSF0yKW5bY0hdYzVjNFtjSF1jKGMoW2NIXTUpW09IXSlPW0NIM10=

>  <s_epik_cmdline>  (104) 
J2VwaWtfcHl0aG9uJywgJy1waHQnLCAnMi4wJywgJy1waCcsICc3LjAnLCAnLXRuJywgJzgnLCAnLW1hJywgJzIwMCcsICctaW1hZScsICc8aW5maWxlLm1hZT4nLCAnLW9tYWUnLCAnPG91dGZpbGUubWFlPic=

>  <r_epik_Ionization_Penalty>  (104) 
1.95437

>  <r_epik_Ionization_Penalty_Charging>  (104) 
1.92903

>  <r_epik_Ionization_Penalty_Neutral>  (104) 
0.0253446

>  <r_epik_State_Penalty>  (104) 
1.78196

>  <r_epik_Charging_Adjusted_Penalty>  (104) 
3.71098

>  <i_epik_Tot_Q>  (104) 
1

>  <i_epik_Tot_abs_Q>  (104) 
1

>  <s_lp_Force_Field>  (104) 
OPLS3e

>  <r_lp_Energy>  (104) 
111.251

>  <b_lp_Chiralities_Consistent>  (104) 
1

>  <s_lp_Variant>  (104) 
22:0-6

>  <s_i_glide_gridfile>  (104) 
pfpi4k_grid

>  <i_i_glide_lignum>  (104) 
18

>  <i_i_glide_rotatable_bonds>  (104) 
4

>  <r_i_docking_score>  (104) 
-3.53551

>  <r_i_glide_ligand_efficiency>  (104) 
-0.121914

>  <r_i_glide_ligand_efficiency_sa>  (104) 
-0.374559

>  <r_i_glide_ligand_efficiency_ln>  (104) 
-0.809543

>  <r_i_glide_gscore>  (104) 
-3.53551

>  <r_i_glide_lipo>  (104) 
-0.220898

>  <r_i_glide_hbond>  (104) 
-0.00750421

>  <r_i_glide_metal>  (104) 
-0

>  <r_i_glide_rewards>  (104) 
-1.23347

>  <r_i_glide_evdw>  (104) 
-20.1918

>  <r_i_glide_ecoul>  (104) 
-6.93583

>  <r_i_glide_erotb>  (104) 
0

>  <r_i_glide_esite>  (104) 
-0.0236767

>  <r_i_glide_emodel>  (104) 
-34.4496

>  <r_i_glide_energy>  (104) 
-27.1276

>  <r_i_glide_einternal>  (104) 
8.32828

>  <r_i_glide_intrahb_reward>  (104) 
-0.5

>  <i_i_glide_confnum>  (104) 
1

>  <i_i_glide_posenum>  (104) 
17

>  <r_i_glide_eff_state_penalty>  (104) 
0

>  <ligand_id>  (104) 
22

>  <original_smiles>  (104) 
COC1=CC(O)c2cc3c(cc2CC2(C=C1)CO2)ncc1cc(O)c(OC)cc13

>  <smiles>  (104) 
[H]Oc1c(OC([H])([H])[H])c([H])c2c(c1[H])c([H])[n+]([H])c1c([H])c3c(c([H])c21)C([H])(O[H])C([H])=C(OC([H])([H])[H])C([H])=C([H])C1(OC1([H])[H])C3([H])[H]

$$$$
22:5:2
     RDKit          3D

 51 55  0  0  1  0  0  0  0  0999 V2000
    3.9207   -1.3021   -0.6100 C   0  0  0  0  0  0  0  0  0  0  0  0
    4.4504   -1.2472    0.7058 O   0  0  0  0  0  0  0  0  0  0  0  0
    4.7815   -2.4454    1.2865 C   0  0  0  0  0  0  0  0  0  0  0  0
    5.2672   -2.4575    2.5412 C   0  0  0  0  0  0  0  0  0  0  0  0
    4.9940   -1.3851    3.5642 C   0  0  1  0  0  0  0  0  0  0  0  0
    5.7809   -0.2430    3.2958 O   0  0  0  0  0  0  0  0  0  0  0  0
    3.4775   -1.1343    3.7447 C   0  0  0  0  0  0  0  0  0  0  0  0
    3.0110    0.2055    3.7032 C   0  0  0  0  0  0  0  0  0  0  0  0
    1.6388    0.5361    3.8199 C   0  0  0  0  0  0  0  0  0  0  0  0
    0.7197   -0.5276    3.9936 C   0  0  0  0  0  0  0  0  0  0  0  0
    1.1536   -1.8632    4.0477 C   0  0  0  0  0  0  0  0  0  0  0  0
    2.5202   -2.1932    3.9287 C   0  0  0  0  0  0  0  0  0  0  0  0
    2.8579   -3.6941    4.0206 C   0  0  0  0  0  0  0  0  0  0  0  0
    2.6927   -4.5150    2.7241 C   0  0  1  0  0  0  0  0  0  0  0  0
    2.9147   -3.7939    1.4394 C   0  0  0  0  0  0  0  0  0  0  0  0
    4.1541   -3.6984    0.9233 C   0  0  0  0  0  0  0  0  0  0  0  0
    2.8131   -6.0192    2.7834 C   0  0  0  0  0  0  0  0  0  0  0  0
    1.5382   -5.3608    2.6971 O   0  0  0  0  0  0  0  0  0  0  0  0
   -0.5973   -0.2617    4.1146 N   0  0  0  0  0  0  0  0  0  0  0  0
   -1.1080    0.9820    4.0667 C   0  0  0  0  0  0  0  0  0  0  0  0
   -0.2508    2.0811    3.9009 C   0  0  0  0  0  0  0  0  0  0  0  0
   -0.7887    3.3817    3.8627 C   0  0  0  0  0  0  0  0  0  0  0  0
    0.0545    4.4925    3.6841 C   0  0  0  0  0  0  0  0  0  0  0  0
   -0.4862    5.7430    3.6096 O   0  0  0  0  0  0  0  0  0  0  0  0
    1.4493    4.3168    3.5459 C   0  0  0  0  0  0  0  0  0  0  0  0
    2.1965    5.4604    3.3705 O   0  0  0  0  0  0  0  0  0  0  0  0
    3.5884    5.3194    3.1368 C   0  0  0  0  0  0  0  0  0  0  0  0
    1.9895    3.0029    3.5911 C   0  0  0  0  0  0  0  0  0  0  0  0
    1.1495    1.8752    3.7686 C   0  0  0  0  0  0  0  0  0  0  0  0
    3.8568   -0.2858   -0.9925 H   0  0  0  0  0  0  0  0  0  0  0  0
    2.9252   -1.7428   -0.6294 H   0  0  0  0  0  0  0  0  0  0  0  0
    4.5698   -1.8570   -1.2891 H   0  0  0  0  0  0  0  0  0  0  0  0
    5.4534   -3.4160    3.0005 H   0  0  0  0  0  0  0  0  0  0  0  0
    5.3650   -1.7694    4.5121 H   0  0  0  0  0  0  0  0  0  0  0  0
    6.6741   -0.5092    3.1399 H   0  0  0  0  0  0  0  0  0  0  0  0
    3.7436    0.9803    3.5684 H   0  0  0  0  0  0  0  0  0  0  0  0
    0.4337   -2.6591    4.1870 H   0  0  0  0  0  0  0  0  0  0  0  0
    3.8764   -3.8238    4.3793 H   0  0  0  0  0  0  0  0  0  0  0  0
    2.2403   -4.1522    4.7983 H   0  0  0  0  0  0  0  0  0  0  0  0
    2.2953   -2.9080    1.3882 H   0  0  0  0  0  0  0  0  0  0  0  0
    4.7908   -4.5563    1.0937 H   0  0  0  0  0  0  0  0  0  0  0  0
    3.1264   -6.5595    1.8927 H   0  0  0  0  0  0  0  0  0  0  0  0
    3.0363   -6.4827    3.7448 H   0  0  0  0  0  0  0  0  0  0  0  0
   -2.1842    1.0638    4.1557 H   0  0  0  0  0  0  0  0  0  0  0  0
   -1.8536    3.5321    3.9520 H   0  0  0  0  0  0  0  0  0  0  0  0
    0.1118    6.3408    3.1710 H   0  0  0  0  0  0  0  0  0  0  0  0
    4.0398    6.2981    2.9896 H   0  0  0  0  0  0  0  0  0  0  0  0
    3.7849    4.7281    2.2407 H   0  0  0  0  0  0  0  0  0  0  0  0
    4.0810    4.8566    3.9929 H   0  0  0  0  0  0  0  0  0  0  0  0
    3.0518    2.8746    3.4772 H   0  0  0  0  0  0  0  0  0  0  0  0
   -1.2321   -1.0485    4.2410 H   0  0  0  0  0  0  0  0  0  0  0  0
  1  2  1  0
  1 30  1  0
  1 31  1  0
  1 32  1  0
  2  3  1  0
  3 16  1  0
  3  4  2  3
  4  5  1  0
  4 33  1  0
  5  6  1  0
  5  7  1  0
  5 34  1  1
  6 35  1  0
  7 12  2  0
  7  8  1  0
  8  9  2  0
  8 36  1  0
  9 29  1  0
  9 10  1  0
 10 11  2  0
 10 19  1  0
 11 12  1  0
 11 37  1  0
 12 13  1  0
 13 14  1  0
 13 38  1  0
 13 39  1  0
 14 18  1  6
 14 15  1  0
 14 17  1  0
 15 16  2  3
 15 40  1  0
 16 41  1  0
 17 18  1  0
 17 42  1  0
 17 43  1  0
 19 20  2  0
 19 51  1  0
 20 21  1  0
 20 44  1  0
 21 29  2  0
 21 22  1  0
 22 23  2  0
 22 45  1  0
 23 24  1  0
 23 25  1  0
 24 46  1  0
 25 26  1  0
 25 28  2  0
 26 27  1  0
 27 47  1  0
 27 48  1  0
 27 49  1  0
 28 29  1  0
 28 50  1  0
M  CHG  1  19   1
M  END
>  <i_m_ct_stereo_status>  (105) 
1

>  <s_m_source_file>  (105) 
/var/tmp/pbs.5102103.sched01/tmp13xrk0lu/22amefgkkz.sdf

>  <i_m_source_file_index>  (105) 
18

>  <i_lp_mmshare_version>  (105) 
48012

>  <i_f3d_flags>  (105) 
0

>  <s_epik_input>  (105) 
W0NIM11PL0MoQyhcW0hdKT1bQ0hdXDEpPVtDSF0vW0NAQEhdKFtPSF0pYyhjMltDSDJdW0NAXTEzW0NIMl1PMylbY0hdYzRjKFtjSF0yKW5bY0hdYzVjNFtjSF1jKGMoW2NIXTUpW09IXSlPW0NIM10=

>  <s_epik_cmdline>  (105) 
J2VwaWtfcHl0aG9uJywgJy1waHQnLCAnMi4wJywgJy1waCcsICc3LjAnLCAnLXRuJywgJzgnLCAnLW1hJywgJzIwMCcsICctaW1hZScsICc8aW5maWxlLm1hZT4nLCAnLW9tYWUnLCAnPG91dGZpbGUubWFlPic=

>  <r_epik_Ionization_Penalty>  (105) 
1.95437

>  <r_epik_Ionization_Penalty_Charging>  (105) 
1.92903

>  <r_epik_Ionization_Penalty_Neutral>  (105) 
0.0253446

>  <r_epik_State_Penalty>  (105) 
1.78196

>  <r_epik_Charging_Adjusted_Penalty>  (105) 
3.71098

>  <i_epik_Tot_Q>  (105) 
1

>  <i_epik_Tot_abs_Q>  (105) 
1

>  <s_lp_Force_Field>  (105) 
OPLS3e

>  <r_lp_Energy>  (105) 
111.251

>  <b_lp_Chiralities_Consistent>  (105) 
1

>  <s_lp_Variant>  (105) 
22:0-6

>  <s_i_glide_gridfile>  (105) 
pfpi4k_grid

>  <i_i_glide_lignum>  (105) 
18

>  <i_i_glide_rotatable_bonds>  (105) 
4

>  <r_i_docking_score>  (105) 
-3.22609

>  <r_i_glide_ligand_efficiency>  (105) 
-0.111245

>  <r_i_glide_ligand_efficiency_sa>  (105) 
-0.341779

>  <r_i_glide_ligand_efficiency_ln>  (105) 
-0.738694

>  <r_i_glide_gscore>  (105) 
-3.22609

>  <r_i_glide_lipo>  (105) 
-0.222328

>  <r_i_glide_hbond>  (105) 
0

>  <r_i_glide_metal>  (105) 
-0

>  <r_i_glide_rewards>  (105) 
-0.733469

>  <r_i_glide_evdw>  (105) 
-22.5161

>  <r_i_glide_ecoul>  (105) 
-7.48514

>  <r_i_glide_erotb>  (105) 
0

>  <r_i_glide_esite>  (105) 
-0.0217232

>  <r_i_glide_emodel>  (105) 
-35.7553

>  <r_i_glide_energy>  (105) 
-30.0012

>  <r_i_glide_einternal>  (105) 
1.02728

>  <r_i_glide_intrahb_reward>  (105) 
-0

>  <i_i_glide_confnum>  (105) 
1

>  <i_i_glide_posenum>  (105) 
4

>  <r_i_glide_eff_state_penalty>  (105) 
0

>  <ligand_id>  (105) 
22

>  <original_smiles>  (105) 
COC1=CC(O)c2cc3c(cc2CC2(C=C1)CO2)ncc1cc(O)c(OC)cc13

>  <smiles>  (105) 
[H]Oc1c(OC([H])([H])[H])c([H])c2c(c1[H])c([H])[n+]([H])c1c([H])c3c(c([H])c21)C([H])(O[H])C([H])=C(OC([H])([H])[H])C([H])=C([H])C1(OC1([H])[H])C3([H])[H]

$$$$
22:6:0
     RDKit          3D

 51 55  0  0  1  0  0  0  0  0999 V2000
   -2.0514   -9.1474    2.3358 C   0  0  0  0  0  0  0  0  0  0  0  0
   -1.0442   -8.3295    1.7609 O   0  0  0  0  0  0  0  0  0  0  0  0
    0.1682   -8.2821    2.4089 C   0  0  0  0  0  0  0  0  0  0  0  0
    1.1519   -7.6345    1.7551 C   0  0  0  0  0  0  0  0  0  0  0  0
    2.5806   -7.4053    2.2267 C   0  0  1  0  0  0  0  0  0  0  0  0
    3.4922   -7.9381    1.2879 O   0  0  0  0  0  0  0  0  0  0  0  0
    2.8466   -5.9319    2.5011 C   0  0  0  0  0  0  0  0  0  0  0  0
    3.1468   -5.0783    1.4122 C   0  0  0  0  0  0  0  0  0  0  0  0
    3.4055   -3.7026    1.6108 C   0  0  0  0  0  0  0  0  0  0  0  0
    3.3550   -3.1921    2.9342 C   0  0  0  0  0  0  0  0  0  0  0  0
    3.0436   -4.0389    4.0215 C   0  0  0  0  0  0  0  0  0  0  0  0
    2.7808   -5.4071    3.8117 C   0  0  0  0  0  0  0  0  0  0  0  0
    2.4052   -6.2708    5.0075 C   0  0  0  0  0  0  0  0  0  0  0  0
    0.9597   -6.7494    4.9689 C   0  0  1  0  0  0  0  0  0  0  0  0
    0.7399   -8.2183    4.8333 C   0  0  0  0  0  0  0  0  0  0  0  0
    0.3569   -8.8858    3.7252 C   0  0  0  0  0  0  0  0  0  0  0  0
   -0.0862   -5.9441    5.6979 C   0  0  0  0  0  0  0  0  0  0  0  0
    0.0266   -5.9029    4.2742 O   0  0  0  0  0  0  0  0  0  0  0  0
    3.6031   -1.8865    3.1710 N   0  0  0  0  0  0  0  0  0  0  0  0
    3.9008   -1.0143    2.1913 C   0  0  0  0  0  0  0  0  0  0  0  0
    3.9665   -1.4638    0.8617 C   0  0  0  0  0  0  0  0  0  0  0  0
    4.2848   -0.5622   -0.1581 C   0  0  0  0  0  0  0  0  0  0  0  0
    4.3387   -0.9878   -1.4954 C   0  0  0  0  0  0  0  0  0  0  0  0
    4.6176   -0.1135   -2.4960 O   0  0  0  0  0  0  0  0  0  0  0  0
    4.0865   -2.3123   -1.8448 C   0  0  0  0  0  0  0  0  0  0  0  0
    4.1777   -2.5807   -3.1909 O   0  0  0  0  0  0  0  0  0  0  0  0
    3.9048   -3.8871   -3.6218 C   0  0  0  0  0  0  0  0  0  0  0  0
    3.7761   -3.2389   -0.8201 C   0  0  0  0  0  0  0  0  0  0  0  0
    3.7144   -2.8225    0.5369 C   0  0  0  0  0  0  0  0  0  0  0  0
   -2.9325   -9.1067    1.6951 H   0  0  0  0  0  0  0  0  0  0  0  0
   -2.3430   -8.8032    3.3312 H   0  0  0  0  0  0  0  0  0  0  0  0
   -1.7382  -10.1908    2.3906 H   0  0  0  0  0  0  0  0  0  0  0  0
    0.9076   -7.2218    0.7863 H   0  0  0  0  0  0  0  0  0  0  0  0
    2.7733   -8.0009    3.1144 H   0  0  0  0  0  0  0  0  0  0  0  0
    3.3304   -8.8676    1.2090 H   0  0  0  0  0  0  0  0  0  0  0  0
    3.1826   -5.5239    0.4318 H   0  0  0  0  0  0  0  0  0  0  0  0
    3.0056   -3.6233    5.0191 H   0  0  0  0  0  0  0  0  0  0  0  0
    3.0865   -7.1233    5.0886 H   0  0  0  0  0  0  0  0  0  0  0  0
    2.5443   -5.7016    5.9280 H   0  0  0  0  0  0  0  0  0  0  0  0
    0.8746   -8.7966    5.7414 H   0  0  0  0  0  0  0  0  0  0  0  0
    0.2287   -9.9511    3.8195 H   0  0  0  0  0  0  0  0  0  0  0  0
   -0.9862   -6.4421    6.0528 H   0  0  0  0  0  0  0  0  0  0  0  0
    0.1863   -5.0074    6.1799 H   0  0  0  0  0  0  0  0  0  0  0  0
    4.0714    0.0110    2.4924 H   0  0  0  0  0  0  0  0  0  0  0  0
    4.4582    0.4712    0.1065 H   0  0  0  0  0  0  0  0  0  0  0  0
    4.7536    0.7678   -2.1721 H   0  0  0  0  0  0  0  0  0  0  0  0
    4.0239   -3.9759   -4.6966 H   0  0  0  0  0  0  0  0  0  0  0  0
    2.8665   -4.1239   -3.3890 H   0  0  0  0  0  0  0  0  0  0  0  0
    4.5990   -4.5880   -3.1509 H   0  0  0  0  0  0  0  0  0  0  0  0
    3.5878   -4.2580   -1.1007 H   0  0  0  0  0  0  0  0  0  0  0  0
    3.5645   -1.5476    4.1293 H   0  0  0  0  0  0  0  0  0  0  0  0
  1  2  1  0
  1 30  1  0
  1 31  1  0
  1 32  1  0
  2  3  1  0
  3 16  1  0
  3  4  2  3
  4  5  1  0
  4 33  1  0
  5  6  1  0
  5  7  1  0
  5 34  1  1
  6 35  1  0
  7 12  2  0
  7  8  1  0
  8  9  2  0
  8 36  1  0
  9 29  1  0
  9 10  1  0
 10 11  2  0
 10 19  1  0
 11 12  1  0
 11 37  1  0
 12 13  1  0
 13 14  1  0
 13 38  1  0
 13 39  1  0
 14 18  1  6
 14 15  1  0
 14 17  1  0
 15 16  2  3
 15 40  1  0
 16 41  1  0
 17 18  1  0
 17 42  1  0
 17 43  1  0
 19 20  2  0
 19 51  1  0
 20 21  1  0
 20 44  1  0
 21 29  2  0
 21 22  1  0
 22 23  2  0
 22 45  1  0
 23 24  1  0
 23 25  1  0
 24 46  1  0
 25 26  1  0
 25 28  2  0
 26 27  1  0
 27 47  1  0
 27 48  1  0
 27 49  1  0
 28 29  1  0
 28 50  1  0
M  CHG  1  19   1
M  END
>  <i_m_ct_stereo_status>  (106) 
1

>  <s_m_source_file>  (106) 
/var/tmp/pbs.5102103.sched01/tmp13xrk0lu/22amefgkkz.sdf

>  <i_m_source_file_index>  (106) 
19

>  <i_lp_mmshare_version>  (106) 
48012

>  <i_f3d_flags>  (106) 
0

>  <s_epik_input>  (106) 
W0NIM11PL0MoQyhcW0hdKT1bQ0hdXDEpPVtDSF0vW0NAQEhdKFtPSF0pYyhjMltDSDJdW0NAXTEzW0NIMl1PMylbY0hdYzRjKFtjSF0yKW5bY0hdYzVjNFtjSF1jKGMoW2NIXTUpW09IXSlPW0NIM10=

>  <s_epik_cmdline>  (106) 
J2VwaWtfcHl0aG9uJywgJy1waHQnLCAnMi4wJywgJy1waCcsICc3LjAnLCAnLXRuJywgJzgnLCAnLW1hJywgJzIwMCcsICctaW1hZScsICc8aW5maWxlLm1hZT4nLCAnLW9tYWUnLCAnPG91dGZpbGUubWFlPic=

>  <r_epik_Ionization_Penalty>  (106) 
1.95437

>  <r_epik_Ionization_Penalty_Charging>  (106) 
1.92903

>  <r_epik_Ionization_Penalty_Neutral>  (106) 
0.0253446

>  <r_epik_State_Penalty>  (106) 
1.78196

>  <r_epik_Charging_Adjusted_Penalty>  (106) 
3.71098

>  <i_epik_Tot_Q>  (106) 
1

>  <i_epik_Tot_abs_Q>  (106) 
1

>  <s_lp_Force_Field>  (106) 
OPLS3e

>  <r_lp_Energy>  (106) 
58.9007

>  <b_lp_Chiralities_Consistent>  (106) 
1

>  <s_lp_Variant>  (106) 
22:0-7

>  <s_i_glide_gridfile>  (106) 
pfpi4k_grid

>  <i_i_glide_lignum>  (106) 
19

>  <i_i_glide_rotatable_bonds>  (106) 
4

>  <r_i_docking_score>  (106) 
-3.23636

>  <r_i_glide_ligand_efficiency>  (106) 
-0.111599

>  <r_i_glide_ligand_efficiency_sa>  (106) 
-0.342866

>  <r_i_glide_ligand_efficiency_ln>  (106) 
-0.741045

>  <r_i_glide_gscore>  (106) 
-3.23636

>  <r_i_glide_lipo>  (106) 
-0.309036

>  <r_i_glide_hbond>  (106) 
0

>  <r_i_glide_metal>  (106) 
-0

>  <r_i_glide_rewards>  (106) 
-0.733469

>  <r_i_glide_evdw>  (106) 
-24.5415

>  <r_i_glide_ecoul>  (106) 
-6.44444

>  <r_i_glide_erotb>  (106) 
0

>  <r_i_glide_esite>  (106) 
-0.000114101

>  <r_i_glide_emodel>  (106) 
-38.0195

>  <r_i_glide_energy>  (106) 
-30.986

>  <r_i_glide_einternal>  (106) 
0.156608

>  <r_i_glide_intrahb_reward>  (106) 
-0

>  <i_i_glide_confnum>  (106) 
2

>  <i_i_glide_posenum>  (106) 
9

>  <r_i_glide_eff_state_penalty>  (106) 
0

>  <ligand_id>  (106) 
22

>  <original_smiles>  (106) 
COC1=CC(O)c2cc3c(cc2CC2(C=C1)CO2)ncc1cc(O)c(OC)cc13

>  <smiles>  (106) 
[H]Oc1c(OC([H])([H])[H])c([H])c2c(c1[H])c([H])[n+]([H])c1c([H])c3c(c([H])c21)C([H])(O[H])C([H])=C(OC([H])([H])[H])C([H])=C([H])C1(OC1([H])[H])C3([H])[H]

$$$$
22:6:1
     RDKit          3D

 51 55  0  0  1  0  0  0  0  0999 V2000
    3.8948   -3.1635   -3.7716 C   0  0  0  0  0  0  0  0  0  0  0  0
    3.5403   -2.3303   -2.6767 O   0  0  0  0  0  0  0  0  0  0  0  0
    4.4105   -2.2654   -1.6130 C   0  0  0  0  0  0  0  0  0  0  0  0
    3.9868   -1.5397   -0.5595 C   0  0  0  0  0  0  0  0  0  0  0  0
    4.7173   -1.2631    0.7426 C   0  0  1  0  0  0  0  0  0  0  0  0
    4.8177    0.1304    0.9267 O   0  0  0  0  0  0  0  0  0  0  0  0
    4.0503   -1.9402    1.9376 C   0  0  0  0  0  0  0  0  0  0  0  0
    2.9383   -1.3098    2.5455 C   0  0  0  0  0  0  0  0  0  0  0  0
    2.2745   -1.8804    3.6538 C   0  0  0  0  0  0  0  0  0  0  0  0
    2.7550   -3.1184    4.1517 C   0  0  0  0  0  0  0  0  0  0  0  0
    3.8552   -3.7627    3.5498 C   0  0  0  0  0  0  0  0  0  0  0  0
    4.5054   -3.1869    2.4393 C   0  0  0  0  0  0  0  0  0  0  0  0
    5.6655   -3.9423    1.7994 C   0  0  0  0  0  0  0  0  0  0  0  0
    5.3392   -4.4384    0.4022 C   0  0  1  0  0  0  0  0  0  0  0  0
    6.1168   -3.8475   -0.7173 C   0  0  0  0  0  0  0  0  0  0  0  0
    5.7021   -2.9467   -1.6311 C   0  0  0  0  0  0  0  0  0  0  0  0
    4.8323   -5.8538    0.2274 C   0  0  0  0  0  0  0  0  0  0  0  0
    3.9610   -4.7300    0.1241 O   0  0  0  0  0  0  0  0  0  0  0  0
    2.1515   -3.6990    5.2109 N   0  0  0  0  0  0  0  0  0  0  0  0
    1.0870   -3.1579    5.8355 C   0  0  0  0  0  0  0  0  0  0  0  0
    0.5562   -1.9351    5.3837 C   0  0  0  0  0  0  0  0  0  0  0  0
   -0.5574   -1.3770    6.0378 C   0  0  0  0  0  0  0  0  0  0  0  0
   -1.0977   -0.1513    5.6081 C   0  0  0  0  0  0  0  0  0  0  0  0
   -2.1729    0.3783    6.2640 O   0  0  0  0  0  0  0  0  0  0  0  0
   -0.5369    0.5281    4.5036 C   0  0  0  0  0  0  0  0  0  0  0  0
   -1.1294    1.7211    4.1374 O   0  0  0  0  0  0  0  0  0  0  0  0
   -0.6413    2.3912    2.9787 C   0  0  0  0  0  0  0  0  0  0  0  0
    0.5868   -0.0390    3.8483 C   0  0  0  0  0  0  0  0  0  0  0  0
    1.1465   -1.2695    4.2784 C   0  0  0  0  0  0  0  0  0  0  0  0
    3.0925   -3.1235   -4.5092 H   0  0  0  0  0  0  0  0  0  0  0  0
    4.0224   -4.2047   -3.4734 H   0  0  0  0  0  0  0  0  0  0  0  0
    4.8034   -2.8168   -4.2589 H   0  0  0  0  0  0  0  0  0  0  0  0
    3.0106   -1.0948   -0.6376 H   0  0  0  0  0  0  0  0  0  0  0  0
    5.7545   -1.5806    0.6629 H   0  0  0  0  0  0  0  0  0  0  0  0
    3.9492    0.4964    0.8826 H   0  0  0  0  0  0  0  0  0  0  0  0
    2.6146   -0.3748    2.1246 H   0  0  0  0  0  0  0  0  0  0  0  0
    4.1995   -4.7127    3.9379 H   0  0  0  0  0  0  0  0  0  0  0  0
    6.5565   -3.3152    1.7699 H   0  0  0  0  0  0  0  0  0  0  0  0
    5.9333   -4.8036    2.4123 H   0  0  0  0  0  0  0  0  0  0  0  0
    7.1242   -4.2185   -0.7964 H   0  0  0  0  0  0  0  0  0  0  0  0
    6.4141   -2.6544   -2.3904 H   0  0  0  0  0  0  0  0  0  0  0  0
    4.9922   -6.3745   -0.7141 H   0  0  0  0  0  0  0  0  0  0  0  0
    4.6281   -6.4713    1.0997 H   0  0  0  0  0  0  0  0  0  0  0  0
    0.6925   -3.7179    6.6745 H   0  0  0  0  0  0  0  0  0  0  0  0
   -0.9889   -1.8951    6.8776 H   0  0  0  0  0  0  0  0  0  0  0  0
   -2.4249    1.1919    5.8492 H   0  0  0  0  0  0  0  0  0  0  0  0
   -1.2095    3.3080    2.8295 H   0  0  0  0  0  0  0  0  0  0  0  0
   -0.7621    1.7809    2.0826 H   0  0  0  0  0  0  0  0  0  0  0  0
    0.4066    2.6767    3.0802 H   0  0  0  0  0  0  0  0  0  0  0  0
    1.0175    0.4883    3.0136 H   0  0  0  0  0  0  0  0  0  0  0  0
    2.5190   -4.5881    5.5515 H   0  0  0  0  0  0  0  0  0  0  0  0
  1  2  1  0
  1 30  1  0
  1 31  1  0
  1 32  1  0
  2  3  1  0
  3 16  1  0
  3  4  2  3
  4  5  1  0
  4 33  1  0
  5  6  1  0
  5  7  1  0
  5 34  1  6
  6 35  1  0
  7 12  2  0
  7  8  1  0
  8  9  2  0
  8 36  1  0
  9 29  1  0
  9 10  1  0
 10 11  2  0
 10 19  1  0
 11 12  1  0
 11 37  1  0
 12 13  1  0
 13 14  1  0
 13 38  1  0
 13 39  1  0
 14 18  1  6
 14 15  1  0
 14 17  1  0
 15 16  2  3
 15 40  1  0
 16 41  1  0
 17 18  1  0
 17 42  1  0
 17 43  1  0
 19 20  2  0
 19 51  1  0
 20 21  1  0
 20 44  1  0
 21 29  2  0
 21 22  1  0
 22 23  2  0
 22 45  1  0
 23 24  1  0
 23 25  1  0
 24 46  1  0
 25 26  1  0
 25 28  2  0
 26 27  1  0
 27 47  1  0
 27 48  1  0
 27 49  1  0
 28 29  1  0
 28 50  1  0
M  CHG  1  19   1
M  END
>  <i_m_ct_stereo_status>  (107) 
1

>  <s_m_source_file>  (107) 
/var/tmp/pbs.5102103.sched01/tmp13xrk0lu/22amefgkkz.sdf

>  <i_m_source_file_index>  (107) 
19

>  <i_lp_mmshare_version>  (107) 
48012

>  <i_f3d_flags>  (107) 
0

>  <s_epik_input>  (107) 
W0NIM11PL0MoQyhcW0hdKT1bQ0hdXDEpPVtDSF0vW0NAQEhdKFtPSF0pYyhjMltDSDJdW0NAXTEzW0NIMl1PMylbY0hdYzRjKFtjSF0yKW5bY0hdYzVjNFtjSF1jKGMoW2NIXTUpW09IXSlPW0NIM10=

>  <s_epik_cmdline>  (107) 
J2VwaWtfcHl0aG9uJywgJy1waHQnLCAnMi4wJywgJy1waCcsICc3LjAnLCAnLXRuJywgJzgnLCAnLW1hJywgJzIwMCcsICctaW1hZScsICc8aW5maWxlLm1hZT4nLCAnLW9tYWUnLCAnPG91dGZpbGUubWFlPic=

>  <r_epik_Ionization_Penalty>  (107) 
1.95437

>  <r_epik_Ionization_Penalty_Charging>  (107) 
1.92903

>  <r_epik_Ionization_Penalty_Neutral>  (107) 
0.0253446

>  <r_epik_State_Penalty>  (107) 
1.78196

>  <r_epik_Charging_Adjusted_Penalty>  (107) 
3.71098

>  <i_epik_Tot_Q>  (107) 
1

>  <i_epik_Tot_abs_Q>  (107) 
1

>  <s_lp_Force_Field>  (107) 
OPLS3e

>  <r_lp_Energy>  (107) 
58.9007

>  <b_lp_Chiralities_Consistent>  (107) 
1

>  <s_lp_Variant>  (107) 
22:0-7

>  <s_i_glide_gridfile>  (107) 
pfpi4k_grid

>  <i_i_glide_lignum>  (107) 
19

>  <i_i_glide_rotatable_bonds>  (107) 
4

>  <r_i_docking_score>  (107) 
-3.1227

>  <r_i_glide_ligand_efficiency>  (107) 
-0.107679

>  <r_i_glide_ligand_efficiency_sa>  (107) 
-0.330825

>  <r_i_glide_ligand_efficiency_ln>  (107) 
-0.715019

>  <r_i_glide_gscore>  (107) 
-3.1227

>  <r_i_glide_lipo>  (107) 
-0.490622

>  <r_i_glide_hbond>  (107) 
-0.0802382

>  <r_i_glide_metal>  (107) 
-0

>  <r_i_glide_rewards>  (107) 
-0.733469

>  <r_i_glide_evdw>  (107) 
-26.1399

>  <r_i_glide_ecoul>  (107) 
-3.40915

>  <r_i_glide_erotb>  (107) 
0

>  <r_i_glide_esite>  (107) 
0

>  <r_i_glide_emodel>  (107) 
-36.3626

>  <r_i_glide_energy>  (107) 
-29.5491

>  <r_i_glide_einternal>  (107) 
0.377702

>  <r_i_glide_intrahb_reward>  (107) 
-0

>  <i_i_glide_confnum>  (107) 
1

>  <i_i_glide_posenum>  (107) 
4

>  <r_i_glide_eff_state_penalty>  (107) 
0

>  <ligand_id>  (107) 
22

>  <original_smiles>  (107) 
COC1=CC(O)c2cc3c(cc2CC2(C=C1)CO2)ncc1cc(O)c(OC)cc13

>  <smiles>  (107) 
[H]Oc1c(OC([H])([H])[H])c([H])c2c(c1[H])c([H])[n+]([H])c1c([H])c3c(c([H])c21)C([H])(O[H])C([H])=C(OC([H])([H])[H])C([H])=C([H])C1(OC1([H])[H])C3([H])[H]

$$$$
22:6:2
     RDKit          3D

 51 55  0  0  1  0  0  0  0  0999 V2000
   -0.5559   -9.3352    2.8898 C   0  0  0  0  0  0  0  0  0  0  0  0
    0.3566   -8.5767    2.0937 O   0  0  0  0  0  0  0  0  0  0  0  0
    1.4876   -8.1066    2.7101 C   0  0  0  0  0  0  0  0  0  0  0  0
    2.3610   -7.4668    1.9062 C   0  0  0  0  0  0  0  0  0  0  0  0
    3.7010   -6.8553    2.2515 C   0  0  1  0  0  0  0  0  0  0  0  0
    4.7127   -7.4384    1.4574 O   0  0  0  0  0  0  0  0  0  0  0  0
    3.6735   -5.3380    2.0987 C   0  0  0  0  0  0  0  0  0  0  0  0
    3.8730   -4.7772    0.8148 C   0  0  0  0  0  0  0  0  0  0  0  0
    3.8618   -3.3737    0.6109 C   0  0  0  0  0  0  0  0  0  0  0  0
    3.6313   -2.5516    1.7410 C   0  0  0  0  0  0  0  0  0  0  0  0
    3.4088   -3.0984    3.0180 C   0  0  0  0  0  0  0  0  0  0  0  0
    3.4227   -4.4895    3.2111 C   0  0  0  0  0  0  0  0  0  0  0  0
    3.1436   -5.0380    4.6090 C   0  0  0  0  0  0  0  0  0  0  0  0
    1.8246   -5.7759    4.6967 C   0  0  1  0  0  0  0  0  0  0  0  0
    1.8829   -7.2314    5.0037 C   0  0  0  0  0  0  0  0  0  0  0  0
    1.7039   -8.2549    4.1496 C   0  0  0  0  0  0  0  0  0  0  0  0
    0.6038   -5.0270    5.1762 C   0  0  0  0  0  0  0  0  0  0  0  0
    0.7838   -5.3481    3.8045 O   0  0  0  0  0  0  0  0  0  0  0  0
    3.6366   -1.2045    1.6034 N   0  0  0  0  0  0  0  0  0  0  0  0
    3.8697   -0.5960    0.4359 C   0  0  0  0  0  0  0  0  0  0  0  0
    4.0743   -1.3547   -0.7350 C   0  0  0  0  0  0  0  0  0  0  0  0
    4.2638   -0.7338   -1.9854 C   0  0  0  0  0  0  0  0  0  0  0  0
    4.3126   -1.4837   -3.1559 C   0  0  0  0  0  0  0  0  0  0  0  0
    4.2595   -0.9057   -4.3888 O   0  0  0  0  0  0  0  0  0  0  0  0
    4.3864   -2.8755   -3.0834 C   0  0  0  0  0  0  0  0  0  0  0  0
    4.6108   -3.4799   -4.2868 O   0  0  0  0  0  0  0  0  0  0  0  0
    4.2976   -4.8253   -4.3514 C   0  0  0  0  0  0  0  0  0  0  0  0
    4.2817   -3.5272   -1.8317 C   0  0  0  0  0  0  0  0  0  0  0  0
    4.0668   -2.7726   -0.6508 C   0  0  0  0  0  0  0  0  0  0  0  0
   -1.3780   -9.6439    2.2528 H   0  0  0  0  0  0  0  0  0  0  0  0
   -0.9742   -8.7543    3.7096 H   0  0  0  0  0  0  0  0  0  0  0  0
   -0.0964  -10.2397    3.2846 H   0  0  0  0  0  0  0  0  0  0  0  0
    2.0586   -7.3786    0.8777 H   0  0  0  0  0  0  0  0  0  0  0  0
    3.9679   -7.1215    3.2721 H   0  0  0  0  0  0  0  0  0  0  0  0
    4.7448   -8.3640    1.6514 H   0  0  0  0  0  0  0  0  0  0  0  0
    4.0465   -5.4686    0.0028 H   0  0  0  0  0  0  0  0  0  0  0  0
    3.2439   -2.4269    3.8481 H   0  0  0  0  0  0  0  0  0  0  0  0
    3.9550   -5.6807    4.9365 H   0  0  0  0  0  0  0  0  0  0  0  0
    3.1047   -4.2108    5.3138 H   0  0  0  0  0  0  0  0  0  0  0  0
    2.0562   -7.4735    6.0394 H   0  0  0  0  0  0  0  0  0  0  0  0
    1.7746   -9.2543    4.5514 H   0  0  0  0  0  0  0  0  0  0  0  0
   -0.2094   -5.5749    5.6460 H   0  0  0  0  0  0  0  0  0  0  0  0
    0.6492   -3.9557    5.3652 H   0  0  0  0  0  0  0  0  0  0  0  0
    3.8473    0.4887    0.4744 H   0  0  0  0  0  0  0  0  0  0  0  0
    4.3140    0.3390   -2.0807 H   0  0  0  0  0  0  0  0  0  0  0  0
    4.2037    0.0440   -4.3360 H   0  0  0  0  0  0  0  0  0  0  0  0
    4.7354   -5.2220   -5.2680 H   0  0  0  0  0  0  0  0  0  0  0  0
    3.2081   -4.8580   -4.3267 H   0  0  0  0  0  0  0  0  0  0  0  0
    4.7544   -5.4386   -3.5905 H   0  0  0  0  0  0  0  0  0  0  0  0
    4.3459   -4.5974   -1.7894 H   0  0  0  0  0  0  0  0  0  0  0  0
    3.4550   -0.6342    2.4294 H   0  0  0  0  0  0  0  0  0  0  0  0
  1  2  1  0
  1 30  1  0
  1 31  1  0
  1 32  1  0
  2  3  1  0
  3 16  1  0
  3  4  2  3
  4  5  1  0
  4 33  1  0
  5  6  1  0
  5  7  1  0
  5 34  1  1
  6 35  1  0
  7 12  2  0
  7  8  1  0
  8  9  2  0
  8 36  1  0
  9 29  1  0
  9 10  1  0
 10 11  2  0
 10 19  1  0
 11 12  1  0
 11 37  1  0
 12 13  1  0
 13 14  1  0
 13 38  1  0
 13 39  1  0
 14 18  1  6
 14 15  1  0
 14 17  1  0
 15 16  2  3
 15 40  1  0
 16 41  1  0
 17 18  1  0
 17 42  1  0
 17 43  1  0
 19 20  2  0
 19 51  1  0
 20 21  1  0
 20 44  1  0
 21 29  2  0
 21 22  1  0
 22 23  2  0
 22 45  1  0
 23 24  1  0
 23 25  1  0
 24 46  1  0
 25 26  1  0
 25 28  2  0
 26 27  1  0
 27 47  1  0
 27 48  1  0
 27 49  1  0
 28 29  1  0
 28 50  1  0
M  CHG  1  19   1
M  END
>  <i_m_ct_stereo_status>  (108) 
1

>  <s_m_source_file>  (108) 
/var/tmp/pbs.5102103.sched01/tmp13xrk0lu/22amefgkkz.sdf

>  <i_m_source_file_index>  (108) 
19

>  <i_lp_mmshare_version>  (108) 
48012

>  <i_f3d_flags>  (108) 
0

>  <s_epik_input>  (108) 
W0NIM11PL0MoQyhcW0hdKT1bQ0hdXDEpPVtDSF0vW0NAQEhdKFtPSF0pYyhjMltDSDJdW0NAXTEzW0NIMl1PMylbY0hdYzRjKFtjSF0yKW5bY0hdYzVjNFtjSF1jKGMoW2NIXTUpW09IXSlPW0NIM10=

>  <s_epik_cmdline>  (108) 
J2VwaWtfcHl0aG9uJywgJy1waHQnLCAnMi4wJywgJy1waCcsICc3LjAnLCAnLXRuJywgJzgnLCAnLW1hJywgJzIwMCcsICctaW1hZScsICc8aW5maWxlLm1hZT4nLCAnLW9tYWUnLCAnPG91dGZpbGUubWFlPic=

>  <r_epik_Ionization_Penalty>  (108) 
1.95437

>  <r_epik_Ionization_Penalty_Charging>  (108) 
1.92903

>  <r_epik_Ionization_Penalty_Neutral>  (108) 
0.0253446

>  <r_epik_State_Penalty>  (108) 
1.78196

>  <r_epik_Charging_Adjusted_Penalty>  (108) 
3.71098

>  <i_epik_Tot_Q>  (108) 
1

>  <i_epik_Tot_abs_Q>  (108) 
1

>  <s_lp_Force_Field>  (108) 
OPLS3e

>  <r_lp_Energy>  (108) 
58.9007

>  <b_lp_Chiralities_Consistent>  (108) 
1

>  <s_lp_Variant>  (108) 
22:0-7

>  <s_i_glide_gridfile>  (108) 
pfpi4k_grid

>  <i_i_glide_lignum>  (108) 
19

>  <i_i_glide_rotatable_bonds>  (108) 
4

>  <r_i_docking_score>  (108) 
-3.07195

>  <r_i_glide_ligand_efficiency>  (108) 
-0.105929

>  <r_i_glide_ligand_efficiency_sa>  (108) 
-0.325449

>  <r_i_glide_ligand_efficiency_ln>  (108) 
-0.703399

>  <r_i_glide_gscore>  (108) 
-3.07195

>  <r_i_glide_lipo>  (108) 
-0.194364

>  <r_i_glide_hbond>  (108) 
-0.0964034

>  <r_i_glide_metal>  (108) 
-0

>  <r_i_glide_rewards>  (108) 
-0.733469

>  <r_i_glide_evdw>  (108) 
-23.2447

>  <r_i_glide_ecoul>  (108) 
-5.81137

>  <r_i_glide_erotb>  (108) 
0

>  <r_i_glide_esite>  (108) 
-0.0137748

>  <r_i_glide_emodel>  (108) 
-34.4005

>  <r_i_glide_energy>  (108) 
-29.0561

>  <r_i_glide_einternal>  (108) 
1.78771

>  <r_i_glide_intrahb_reward>  (108) 
-0

>  <i_i_glide_confnum>  (108) 
2

>  <i_i_glide_posenum>  (108) 
20

>  <r_i_glide_eff_state_penalty>  (108) 
0

>  <ligand_id>  (108) 
22

>  <original_smiles>  (108) 
COC1=CC(O)c2cc3c(cc2CC2(C=C1)CO2)ncc1cc(O)c(OC)cc13

>  <smiles>  (108) 
[H]Oc1c(OC([H])([H])[H])c([H])c2c(c1[H])c([H])[n+]([H])c1c([H])c3c(c([H])c21)C([H])(O[H])C([H])=C(OC([H])([H])[H])C([H])=C([H])C1(OC1([H])[H])C3([H])[H]

$$$$
22:7:0
     RDKit          3D

 51 55  0  0  1  0  0  0  0  0999 V2000
    4.6897   -0.8711   -0.7441 C   0  0  0  0  0  0  0  0  0  0  0  0
    5.1861   -0.7807    0.5760 O   0  0  0  0  0  0  0  0  0  0  0  0
    5.6384   -1.9427    1.1374 C   0  0  0  0  0  0  0  0  0  0  0  0
    5.8139   -1.9973    2.4576 C   0  0  0  0  0  0  0  0  0  0  0  0
    5.3282   -0.9971    3.4581 C   0  0  1  0  0  0  0  0  0  0  0  0
    6.1458    0.1448    3.4840 O   0  0  0  0  0  0  0  0  0  0  0  0
    3.8273   -0.7356    3.3072 C   0  0  0  0  0  0  0  0  0  0  0  0
    3.3588    0.5966    3.4592 C   0  0  0  0  0  0  0  0  0  0  0  0
    1.9967    0.9354    3.3047 C   0  0  0  0  0  0  0  0  0  0  0  0
    1.1036   -0.1183    3.0008 C   0  0  0  0  0  0  0  0  0  0  0  0
    1.5455   -1.4479    2.8514 C   0  0  0  0  0  0  0  0  0  0  0  0
    2.9048   -1.7870    2.9964 C   0  0  0  0  0  0  0  0  0  0  0  0
    3.2784   -3.2786    2.8365 C   0  0  0  0  0  0  0  0  0  0  0  0
    3.3012   -3.7955    1.3811 C   0  0  1  0  0  0  0  0  0  0  0  0
    4.5759   -4.0522    0.6281 C   0  0  0  0  0  0  0  0  0  0  0  0
    5.6141   -3.2175    0.4510 C   0  0  0  0  0  0  0  0  0  0  0  0
    2.1649   -4.7028    0.9965 C   0  0  0  0  0  0  0  0  0  0  0  0
    2.2357   -3.3529    0.5395 O   0  0  0  0  0  0  0  0  0  0  0  0
   -0.2077    0.1525    2.8586 N   0  0  0  0  0  0  0  0  0  0  0  0
   -0.7370    1.3756    2.9778 C   0  0  0  0  0  0  0  0  0  0  0  0
    0.0949    2.4608    3.2964 C   0  0  0  0  0  0  0  0  0  0  0  0
   -0.4677    3.7406    3.4513 C   0  0  0  0  0  0  0  0  0  0  0  0
    0.3661    4.8472    3.6974 C   0  0  0  0  0  0  0  0  0  0  0  0
   -0.1848    6.1046    3.7560 O   0  0  0  0  0  0  0  0  0  0  0  0
    1.7582    4.6762    3.8440 C   0  0  0  0  0  0  0  0  0  0  0  0
    2.4921    5.8101    4.1253 O   0  0  0  0  0  0  0  0  0  0  0  0
    3.9008    5.7404    3.9930 C   0  0  0  0  0  0  0  0  0  0  0  0
    2.3138    3.3731    3.7224 C   0  0  0  0  0  0  0  0  0  0  0  0
    1.4901    2.2564    3.4407 C   0  0  0  0  0  0  0  0  0  0  0  0
    4.4106    0.1301   -1.0539 H   0  0  0  0  0  0  0  0  0  0  0  0
    3.7949   -1.4952   -0.7775 H   0  0  0  0  0  0  0  0  0  0  0  0
    5.4445   -1.2482   -1.4387 H   0  0  0  0  0  0  0  0  0  0  0  0
    6.0874   -2.9485    2.8813 H   0  0  0  0  0  0  0  0  0  0  0  0
    5.4685   -1.4491    4.4316 H   0  0  0  0  0  0  0  0  0  0  0  0
    6.9838   -0.0619    3.0961 H   0  0  0  0  0  0  0  0  0  0  0  0
    4.0916    1.3510    3.6948 H   0  0  0  0  0  0  0  0  0  0  0  0
    0.8330   -2.2310    2.6190 H   0  0  0  0  0  0  0  0  0  0  0  0
    4.1681   -3.5891    3.3676 H   0  0  0  0  0  0  0  0  0  0  0  0
    2.5199   -3.8311    3.3763 H   0  0  0  0  0  0  0  0  0  0  0  0
    4.6139   -5.0064    0.1246 H   0  0  0  0  0  0  0  0  0  0  0  0
    6.4593   -3.5481   -0.1446 H   0  0  0  0  0  0  0  0  0  0  0  0
    2.2380   -5.4335    0.1922 H   0  0  0  0  0  0  0  0  0  0  0  0
    1.4037   -4.8774    1.7468 H   0  0  0  0  0  0  0  0  0  0  0  0
   -1.8025    1.4519    2.8151 H   0  0  0  0  0  0  0  0  0  0  0  0
   -1.5283    3.8873    3.2857 H   0  0  0  0  0  0  0  0  0  0  0  0
    0.2947    6.7708    3.2749 H   0  0  0  0  0  0  0  0  0  0  0  0
    4.3266    6.7031    4.2585 H   0  0  0  0  0  0  0  0  0  0  0  0
    4.1685    5.5371    2.9567 H   0  0  0  0  0  0  0  0  0  0  0  0
    4.3600    4.9989    4.6503 H   0  0  0  0  0  0  0  0  0  0  0  0
    3.3710    3.2371    3.8511 H   0  0  0  0  0  0  0  0  0  0  0  0
   -0.8225   -0.6298    2.6300 H   0  0  0  0  0  0  0  0  0  0  0  0
  1  2  1  0
  1 30  1  0
  1 31  1  0
  1 32  1  0
  2  3  1  0
  3 16  1  0
  3  4  2  3
  4  5  1  0
  4 33  1  0
  5  6  1  0
  5  7  1  0
  5 34  1  1
  6 35  1  0
  7 12  2  0
  7  8  1  0
  8  9  2  0
  8 36  1  0
  9 29  1  0
  9 10  1  0
 10 11  2  0
 10 19  1  0
 11 12  1  0
 11 37  1  0
 12 13  1  0
 13 14  1  0
 13 38  1  0
 13 39  1  0
 14 18  1  6
 14 15  1  0
 14 17  1  0
 15 16  2  3
 15 40  1  0
 16 41  1  0
 17 18  1  0
 17 42  1  0
 17 43  1  0
 19 20  2  0
 19 51  1  0
 20 21  1  0
 20 44  1  0
 21 29  2  0
 21 22  1  0
 22 23  2  0
 22 45  1  0
 23 24  1  0
 23 25  1  0
 24 46  1  0
 25 26  1  0
 25 28  2  0
 26 27  1  0
 27 47  1  0
 27 48  1  0
 27 49  1  0
 28 29  1  0
 28 50  1  0
M  CHG  1  19   1
M  END
>  <i_m_ct_stereo_status>  (109) 
1

>  <s_m_source_file>  (109) 
/var/tmp/pbs.5102103.sched01/tmp13xrk0lu/22amefgkkz.sdf

>  <i_m_source_file_index>  (109) 
20

>  <i_lp_mmshare_version>  (109) 
48012

>  <i_f3d_flags>  (109) 
0

>  <s_epik_input>  (109) 
W0NIM11PL0MoQyhcW0hdKT1bQ0hdXDEpPVtDSF0vW0NAQEhdKFtPSF0pYyhjMltDSDJdW0NAXTEzW0NIMl1PMylbY0hdYzRjKFtjSF0yKW5bY0hdYzVjNFtjSF1jKGMoW2NIXTUpW09IXSlPW0NIM10=

>  <s_epik_cmdline>  (109) 
J2VwaWtfcHl0aG9uJywgJy1waHQnLCAnMi4wJywgJy1waCcsICc3LjAnLCAnLXRuJywgJzgnLCAnLW1hJywgJzIwMCcsICctaW1hZScsICc8aW5maWxlLm1hZT4nLCAnLW9tYWUnLCAnPG91dGZpbGUubWFlPic=

>  <r_epik_Ionization_Penalty>  (109) 
1.95437

>  <r_epik_Ionization_Penalty_Charging>  (109) 
1.92903

>  <r_epik_Ionization_Penalty_Neutral>  (109) 
0.0253446

>  <r_epik_State_Penalty>  (109) 
1.78196

>  <r_epik_Charging_Adjusted_Penalty>  (109) 
3.71098

>  <i_epik_Tot_Q>  (109) 
1

>  <i_epik_Tot_abs_Q>  (109) 
1

>  <s_lp_Force_Field>  (109) 
OPLS3e

>  <r_lp_Energy>  (109) 
78.6908

>  <b_lp_Chiralities_Consistent>  (109) 
1

>  <s_lp_Variant>  (109) 
22:0-8

>  <s_i_glide_gridfile>  (109) 
pfpi4k_grid

>  <i_i_glide_lignum>  (109) 
20

>  <i_i_glide_rotatable_bonds>  (109) 
4

>  <r_i_docking_score>  (109) 
-3.62355

>  <r_i_glide_ligand_efficiency>  (109) 
-0.12495

>  <r_i_glide_ligand_efficiency_sa>  (109) 
-0.383886

>  <r_i_glide_ligand_efficiency_ln>  (109) 
-0.829701

>  <r_i_glide_gscore>  (109) 
-3.62355

>  <r_i_glide_lipo>  (109) 
-0.361237

>  <r_i_glide_hbond>  (109) 
0

>  <r_i_glide_metal>  (109) 
-0

>  <r_i_glide_rewards>  (109) 
-0.733469

>  <r_i_glide_evdw>  (109) 
-19.8327

>  <r_i_glide_ecoul>  (109) 
-10.023

>  <r_i_glide_erotb>  (109) 
0

>  <r_i_glide_esite>  (109) 
-0.0337568

>  <r_i_glide_emodel>  (109) 
-35.6976

>  <r_i_glide_energy>  (109) 
-29.8557

>  <r_i_glide_einternal>  (109) 
3.4376

>  <r_i_glide_intrahb_reward>  (109) 
-0

>  <i_i_glide_confnum>  (109) 
2

>  <i_i_glide_posenum>  (109) 
31

>  <r_i_glide_eff_state_penalty>  (109) 
0

>  <ligand_id>  (109) 
22

>  <original_smiles>  (109) 
COC1=CC(O)c2cc3c(cc2CC2(C=C1)CO2)ncc1cc(O)c(OC)cc13

>  <smiles>  (109) 
[H]Oc1c(OC([H])([H])[H])c([H])c2c(c1[H])c([H])[n+]([H])c1c([H])c3c(c([H])c21)C([H])(O[H])C([H])=C(OC([H])([H])[H])C([H])=C([H])C1(OC1([H])[H])C3([H])[H]

$$$$
22:7:1
     RDKit          3D

 51 55  0  0  1  0  0  0  0  0999 V2000
   -0.0345   -7.8349    1.7236 C   0  0  0  0  0  0  0  0  0  0  0  0
    1.3451   -8.1456    1.6079 O   0  0  0  0  0  0  0  0  0  0  0  0
    1.8508   -9.0770    2.4831 C   0  0  0  0  0  0  0  0  0  0  0  0
    3.1742   -9.2941    2.4971 C   0  0  0  0  0  0  0  0  0  0  0  0
    4.1747   -8.3664    1.8552 C   0  0  1  0  0  0  0  0  0  0  0  0
    4.2757   -8.6586    0.4823 O   0  0  0  0  0  0  0  0  0  0  0  0
    3.9571   -6.8778    2.2167 C   0  0  0  0  0  0  0  0  0  0  0  0
    4.1587   -5.9000    1.2061 C   0  0  0  0  0  0  0  0  0  0  0  0
    3.9608   -4.5159    1.4390 C   0  0  0  0  0  0  0  0  0  0  0  0
    3.5694   -4.1155    2.7415 C   0  0  0  0  0  0  0  0  0  0  0  0
    3.3795   -5.0675    3.7635 C   0  0  0  0  0  0  0  0  0  0  0  0
    3.5611   -6.4468    3.5268 C   0  0  0  0  0  0  0  0  0  0  0  0
    3.3446   -7.3816    4.7307 C   0  0  0  0  0  0  0  0  0  0  0  0
    1.8706   -7.6114    5.1228 C   0  0  1  0  0  0  0  0  0  0  0  0
    1.1681   -8.9059    4.8006 C   0  0  0  0  0  0  0  0  0  0  0  0
    1.1021   -9.5558    3.6195 C   0  0  0  0  0  0  0  0  0  0  0  0
    1.3904   -6.8890    6.3685 C   0  0  0  0  0  0  0  0  0  0  0  0
    1.0082   -6.4647    5.0591 O   0  0  0  0  0  0  0  0  0  0  0  0
    3.3703   -2.8065    3.0150 N   0  0  0  0  0  0  0  0  0  0  0  0
    3.5269   -1.8304    2.0993 C   0  0  0  0  0  0  0  0  0  0  0  0
    3.9153   -2.1594    0.7884 C   0  0  0  0  0  0  0  0  0  0  0  0
    4.0870   -1.1365   -0.1588 C   0  0  0  0  0  0  0  0  0  0  0  0
    4.4622   -1.4478   -1.4790 C   0  0  0  0  0  0  0  0  0  0  0  0
    4.6193   -0.4468   -2.3916 O   0  0  0  0  0  0  0  0  0  0  0  0
    4.6718   -2.7882   -1.8655 C   0  0  0  0  0  0  0  0  0  0  0  0
    5.0570   -3.0018   -3.1706 O   0  0  0  0  0  0  0  0  0  0  0  0
    4.6368   -4.2071   -3.7930 C   0  0  0  0  0  0  0  0  0  0  0  0
    4.5121   -3.8176   -0.9061 C   0  0  0  0  0  0  0  0  0  0  0  0
    4.1321   -3.5198    0.4305 C   0  0  0  0  0  0  0  0  0  0  0  0
   -0.3187   -7.1884    0.8934 H   0  0  0  0  0  0  0  0  0  0  0  0
   -0.2192   -7.2921    2.6491 H   0  0  0  0  0  0  0  0  0  0  0  0
   -0.6788   -8.7160    1.6831 H   0  0  0  0  0  0  0  0  0  0  0  0
    3.5872   -9.9650    3.2426 H   0  0  0  0  0  0  0  0  0  0  0  0
    5.1422   -8.6359    2.2698 H   0  0  0  0  0  0  0  0  0  0  0  0
    4.2374   -9.6038    0.3948 H   0  0  0  0  0  0  0  0  0  0  0  0
    4.4670   -6.2499    0.2351 H   0  0  0  0  0  0  0  0  0  0  0  0
    3.0836   -4.7344    4.7480 H   0  0  0  0  0  0  0  0  0  0  0  0
    3.8856   -8.3226    4.6761 H   0  0  0  0  0  0  0  0  0  0  0  0
    3.8348   -6.8987    5.5725 H   0  0  0  0  0  0  0  0  0  0  0  0
    0.6199   -9.3413    5.6186 H   0  0  0  0  0  0  0  0  0  0  0  0
    0.5173  -10.4659    3.5480 H   0  0  0  0  0  0  0  0  0  0  0  0
    0.5831   -7.3033    6.9671 H   0  0  0  0  0  0  0  0  0  0  0  0
    2.0615   -6.1947    6.8730 H   0  0  0  0  0  0  0  0  0  0  0  0
    3.3377   -0.8218    2.4379 H   0  0  0  0  0  0  0  0  0  0  0  0
    3.9139   -0.1072    0.1268 H   0  0  0  0  0  0  0  0  0  0  0  0
    4.4457    0.4147   -2.0462 H   0  0  0  0  0  0  0  0  0  0  0  0
    5.0196   -4.2331   -4.8107 H   0  0  0  0  0  0  0  0  0  0  0  0
    3.5478   -4.2542   -3.8548 H   0  0  0  0  0  0  0  0  0  0  0  0
    5.0102   -5.0892   -3.2927 H   0  0  0  0  0  0  0  0  0  0  0  0
    4.7014   -4.8330   -1.2091 H   0  0  0  0  0  0  0  0  0  0  0  0
    3.0877   -2.5469    3.9610 H   0  0  0  0  0  0  0  0  0  0  0  0
  1  2  1  0
  1 30  1  0
  1 31  1  0
  1 32  1  0
  2  3  1  0
  3 16  1  0
  3  4  2  3
  4  5  1  0
  4 33  1  0
  5  6  1  0
  5  7  1  0
  5 34  1  1
  6 35  1  0
  7 12  2  0
  7  8  1  0
  8  9  2  0
  8 36  1  0
  9 29  1  0
  9 10  1  0
 10 11  2  0
 10 19  1  0
 11 12  1  0
 11 37  1  0
 12 13  1  0
 13 14  1  0
 13 38  1  0
 13 39  1  0
 14 18  1  6
 14 15  1  0
 14 17  1  0
 15 16  2  3
 15 40  1  0
 16 41  1  0
 17 18  1  0
 17 42  1  0
 17 43  1  0
 19 20  2  0
 19 51  1  0
 20 21  1  0
 20 44  1  0
 21 29  2  0
 21 22  1  0
 22 23  2  0
 22 45  1  0
 23 24  1  0
 23 25  1  0
 24 46  1  0
 25 26  1  0
 25 28  2  0
 26 27  1  0
 27 47  1  0
 27 48  1  0
 27 49  1  0
 28 29  1  0
 28 50  1  0
M  CHG  1  19   1
M  END
>  <i_m_ct_stereo_status>  (110) 
1

>  <s_m_source_file>  (110) 
/var/tmp/pbs.5102103.sched01/tmp13xrk0lu/22amefgkkz.sdf

>  <i_m_source_file_index>  (110) 
20

>  <i_lp_mmshare_version>  (110) 
48012

>  <i_f3d_flags>  (110) 
0

>  <s_epik_input>  (110) 
W0NIM11PL0MoQyhcW0hdKT1bQ0hdXDEpPVtDSF0vW0NAQEhdKFtPSF0pYyhjMltDSDJdW0NAXTEzW0NIMl1PMylbY0hdYzRjKFtjSF0yKW5bY0hdYzVjNFtjSF1jKGMoW2NIXTUpW09IXSlPW0NIM10=

>  <s_epik_cmdline>  (110) 
J2VwaWtfcHl0aG9uJywgJy1waHQnLCAnMi4wJywgJy1waCcsICc3LjAnLCAnLXRuJywgJzgnLCAnLW1hJywgJzIwMCcsICctaW1hZScsICc8aW5maWxlLm1hZT4nLCAnLW9tYWUnLCAnPG91dGZpbGUubWFlPic=

>  <r_epik_Ionization_Penalty>  (110) 
1.95437

>  <r_epik_Ionization_Penalty_Charging>  (110) 
1.92903

>  <r_epik_Ionization_Penalty_Neutral>  (110) 
0.0253446

>  <r_epik_State_Penalty>  (110) 
1.78196

>  <r_epik_Charging_Adjusted_Penalty>  (110) 
3.71098

>  <i_epik_Tot_Q>  (110) 
1

>  <i_epik_Tot_abs_Q>  (110) 
1

>  <s_lp_Force_Field>  (110) 
OPLS3e

>  <r_lp_Energy>  (110) 
78.6908

>  <b_lp_Chiralities_Consistent>  (110) 
1

>  <s_lp_Variant>  (110) 
22:0-8

>  <s_i_glide_gridfile>  (110) 
pfpi4k_grid

>  <i_i_glide_lignum>  (110) 
20

>  <i_i_glide_rotatable_bonds>  (110) 
4

>  <r_i_docking_score>  (110) 
-3.26195

>  <r_i_glide_ligand_efficiency>  (110) 
-0.112481

>  <r_i_glide_ligand_efficiency_sa>  (110) 
-0.345577

>  <r_i_glide_ligand_efficiency_ln>  (110) 
-0.746903

>  <r_i_glide_gscore>  (110) 
-3.26195

>  <r_i_glide_lipo>  (110) 
-0.138726

>  <r_i_glide_hbond>  (110) 
0

>  <r_i_glide_metal>  (110) 
-0

>  <r_i_glide_rewards>  (110) 
-0.733469

>  <r_i_glide_evdw>  (110) 
-29.4887

>  <r_i_glide_ecoul>  (110) 
-6.1021

>  <r_i_glide_erotb>  (110) 
0

>  <r_i_glide_esite>  (110) 
0

>  <r_i_glide_emodel>  (110) 
-42.0861

>  <r_i_glide_energy>  (110) 
-35.5908

>  <r_i_glide_einternal>  (110) 
2.12773

>  <r_i_glide_intrahb_reward>  (110) 
-0

>  <i_i_glide_confnum>  (110) 
2

>  <i_i_glide_posenum>  (110) 
2

>  <r_i_glide_eff_state_penalty>  (110) 
0

>  <ligand_id>  (110) 
22

>  <original_smiles>  (110) 
COC1=CC(O)c2cc3c(cc2CC2(C=C1)CO2)ncc1cc(O)c(OC)cc13

>  <smiles>  (110) 
[H]Oc1c(OC([H])([H])[H])c([H])c2c(c1[H])c([H])[n+]([H])c1c([H])c3c(c([H])c21)C([H])(O[H])C([H])=C(OC([H])([H])[H])C([H])=C([H])C1(OC1([H])[H])C3([H])[H]

$$$$
22:7:2
     RDKit          3D

 51 55  0  0  1  0  0  0  0  0999 V2000
    3.1391   -2.9244   -0.4309 C   0  0  0  0  0  0  0  0  0  0  0  0
    3.9349   -2.4693    0.6536 O   0  0  0  0  0  0  0  0  0  0  0  0
    4.7210   -3.4016    1.2835 C   0  0  0  0  0  0  0  0  0  0  0  0
    5.4085   -3.0382    2.3748 C   0  0  0  0  0  0  0  0  0  0  0  0
    5.1121   -1.7989    3.1838 C   0  0  1  0  0  0  0  0  0  0  0  0
    5.7113   -0.6663    2.5813 O   0  0  0  0  0  0  0  0  0  0  0  0
    3.6183   -1.6481    3.5397 C   0  0  0  0  0  0  0  0  0  0  0  0
    3.0560   -0.3443    3.5125 C   0  0  0  0  0  0  0  0  0  0  0  0
    1.6917   -0.0976    3.8061 C   0  0  0  0  0  0  0  0  0  0  0  0
    0.8865   -1.2092    4.1560 C   0  0  0  0  0  0  0  0  0  0  0  0
    1.4280   -2.5105    4.2041 C   0  0  0  0  0  0  0  0  0  0  0  0
    2.7837   -2.7548    3.8987 C   0  0  0  0  0  0  0  0  0  0  0  0
    3.2591   -4.2147    4.0167 C   0  0  0  0  0  0  0  0  0  0  0  0
    2.8040   -5.1484    2.8771 C   0  0  1  0  0  0  0  0  0  0  0  0
    3.7604   -5.5807    1.7947 C   0  0  0  0  0  0  0  0  0  0  0  0
    4.5875   -4.8216    1.0400 C   0  0  0  0  0  0  0  0  0  0  0  0
    1.6975   -6.1317    3.2203 C   0  0  0  0  0  0  0  0  0  0  0  0
    1.4551   -4.9811    2.4170 O   0  0  0  0  0  0  0  0  0  0  0  0
   -0.4187   -1.0262    4.4536 N   0  0  0  0  0  0  0  0  0  0  0  0
   -1.0219    0.1776    4.4179 C   0  0  0  0  0  0  0  0  0  0  0  0
   -0.2813    1.3208    4.0790 C   0  0  0  0  0  0  0  0  0  0  0  0
   -0.9131    2.5778    4.0525 C   0  0  0  0  0  0  0  0  0  0  0  0
   -0.1813    3.7297    3.7179 C   0  0  0  0  0  0  0  0  0  0  0  0
   -0.8089    4.9402    3.6682 O   0  0  0  0  0  0  0  0  0  0  0  0
    1.1962    3.6436    3.4143 C   0  0  0  0  0  0  0  0  0  0  0  0
    1.8376    4.8285    3.1129 O   0  0  0  0  0  0  0  0  0  0  0  0
    3.2368    4.7927    2.8686 C   0  0  0  0  0  0  0  0  0  0  0  0
    1.8256    2.3740    3.4289 C   0  0  0  0  0  0  0  0  0  0  0  0
    1.1020    1.2021    3.7643 C   0  0  0  0  0  0  0  0  0  0  0  0
    2.6272   -2.0713   -0.8725 H   0  0  0  0  0  0  0  0  0  0  0  0
    2.3772   -3.6341   -0.1047 H   0  0  0  0  0  0  0  0  0  0  0  0
    3.7478   -3.3774   -1.2155 H   0  0  0  0  0  0  0  0  0  0  0  0
    5.9705   -3.7984    2.9001 H   0  0  0  0  0  0  0  0  0  0  0  0
    5.6252   -1.9283    4.1328 H   0  0  0  0  0  0  0  0  0  0  0  0
    6.6342   -0.8363    2.4579 H   0  0  0  0  0  0  0  0  0  0  0  0
    3.7081    0.4718    3.2550 H   0  0  0  0  0  0  0  0  0  0  0  0
    0.7890   -3.3392    4.4765 H   0  0  0  0  0  0  0  0  0  0  0  0
    4.3214   -4.3283    4.2157 H   0  0  0  0  0  0  0  0  0  0  0  0
    2.8220   -4.5945    4.9389 H   0  0  0  0  0  0  0  0  0  0  0  0
    3.7431   -6.6360    1.5781 H   0  0  0  0  0  0  0  0  0  0  0  0
    5.1864   -5.2935    0.2727 H   0  0  0  0  0  0  0  0  0  0  0  0
    1.6016   -7.0709    2.6837 H   0  0  0  0  0  0  0  0  0  0  0  0
    1.2102   -6.0770    4.1921 H   0  0  0  0  0  0  0  0  0  0  0  0
   -2.0778    0.1996    4.6476 H   0  0  0  0  0  0  0  0  0  0  0  0
   -1.9664    2.6670    4.2810 H   0  0  0  0  0  0  0  0  0  0  0  0
   -0.2846    5.5068    3.1135 H   0  0  0  0  0  0  0  0  0  0  0  0
    3.5894    5.7902    2.6137 H   0  0  0  0  0  0  0  0  0  0  0  0
    3.4837    4.1468    2.0320 H   0  0  0  0  0  0  0  0  0  0  0  0
    3.7831    4.4551    3.7499 H   0  0  0  0  0  0  0  0  0  0  0  0
    2.8700    2.3105    3.1812 H   0  0  0  0  0  0  0  0  0  0  0  0
   -0.9674   -1.8507    4.6937 H   0  0  0  0  0  0  0  0  0  0  0  0
  1  2  1  0
  1 30  1  0
  1 31  1  0
  1 32  1  0
  2  3  1  0
  3 16  1  0
  3  4  2  3
  4  5  1  0
  4 33  1  0
  5  6  1  0
  5  7  1  0
  5 34  1  1
  6 35  1  0
  7 12  2  0
  7  8  1  0
  8  9  2  0
  8 36  1  0
  9 29  1  0
  9 10  1  0
 10 11  2  0
 10 19  1  0
 11 12  1  0
 11 37  1  0
 12 13  1  0
 13 14  1  0
 13 38  1  0
 13 39  1  0
 14 18  1  6
 14 15  1  0
 14 17  1  0
 15 16  2  3
 15 40  1  0
 16 41  1  0
 17 18  1  0
 17 42  1  0
 17 43  1  0
 19 20  2  0
 19 51  1  0
 20 21  1  0
 20 44  1  0
 21 29  2  0
 21 22  1  0
 22 23  2  0
 22 45  1  0
 23 24  1  0
 23 25  1  0
 24 46  1  0
 25 26  1  0
 25 28  2  0
 26 27  1  0
 27 47  1  0
 27 48  1  0
 27 49  1  0
 28 29  1  0
 28 50  1  0
M  CHG  1  19   1
M  END
>  <i_m_ct_stereo_status>  (111) 
1

>  <s_m_source_file>  (111) 
/var/tmp/pbs.5102103.sched01/tmp13xrk0lu/22amefgkkz.sdf

>  <i_m_source_file_index>  (111) 
20

>  <i_lp_mmshare_version>  (111) 
48012

>  <i_f3d_flags>  (111) 
0

>  <s_epik_input>  (111) 
W0NIM11PL0MoQyhcW0hdKT1bQ0hdXDEpPVtDSF0vW0NAQEhdKFtPSF0pYyhjMltDSDJdW0NAXTEzW0NIMl1PMylbY0hdYzRjKFtjSF0yKW5bY0hdYzVjNFtjSF1jKGMoW2NIXTUpW09IXSlPW0NIM10=

>  <s_epik_cmdline>  (111) 
J2VwaWtfcHl0aG9uJywgJy1waHQnLCAnMi4wJywgJy1waCcsICc3LjAnLCAnLXRuJywgJzgnLCAnLW1hJywgJzIwMCcsICctaW1hZScsICc8aW5maWxlLm1hZT4nLCAnLW9tYWUnLCAnPG91dGZpbGUubWFlPic=

>  <r_epik_Ionization_Penalty>  (111) 
1.95437

>  <r_epik_Ionization_Penalty_Charging>  (111) 
1.92903

>  <r_epik_Ionization_Penalty_Neutral>  (111) 
0.0253446

>  <r_epik_State_Penalty>  (111) 
1.78196

>  <r_epik_Charging_Adjusted_Penalty>  (111) 
3.71098

>  <i_epik_Tot_Q>  (111) 
1

>  <i_epik_Tot_abs_Q>  (111) 
1

>  <s_lp_Force_Field>  (111) 
OPLS3e

>  <r_lp_Energy>  (111) 
78.6908

>  <b_lp_Chiralities_Consistent>  (111) 
1

>  <s_lp_Variant>  (111) 
22:0-8

>  <s_i_glide_gridfile>  (111) 
pfpi4k_grid

>  <i_i_glide_lignum>  (111) 
20

>  <i_i_glide_rotatable_bonds>  (111) 
4

>  <r_i_docking_score>  (111) 
-3.0203

>  <r_i_glide_ligand_efficiency>  (111) 
-0.104148

>  <r_i_glide_ligand_efficiency_sa>  (111) 
-0.319976

>  <r_i_glide_ligand_efficiency_ln>  (111) 
-0.691571

>  <r_i_glide_gscore>  (111) 
-3.0203

>  <r_i_glide_lipo>  (111) 
-0.352813

>  <r_i_glide_hbond>  (111) 
-0.0130821

>  <r_i_glide_metal>  (111) 
-0

>  <r_i_glide_rewards>  (111) 
-0.733469

>  <r_i_glide_evdw>  (111) 
-22.9658

>  <r_i_glide_ecoul>  (111) 
-5.01359

>  <r_i_glide_erotb>  (111) 
0

>  <r_i_glide_esite>  (111) 
-0.0206018

>  <r_i_glide_emodel>  (111) 
-34.6487

>  <r_i_glide_energy>  (111) 
-27.9794

>  <r_i_glide_einternal>  (111) 
0.617396

>  <r_i_glide_intrahb_reward>  (111) 
-0

>  <i_i_glide_confnum>  (111) 
1

>  <i_i_glide_posenum>  (111) 
21

>  <r_i_glide_eff_state_penalty>  (111) 
0

>  <ligand_id>  (111) 
22

>  <original_smiles>  (111) 
COC1=CC(O)c2cc3c(cc2CC2(C=C1)CO2)ncc1cc(O)c(OC)cc13

>  <smiles>  (111) 
[H]Oc1c(OC([H])([H])[H])c([H])c2c(c1[H])c([H])[n+]([H])c1c([H])c3c(c([H])c21)C([H])(O[H])C([H])=C(OC([H])([H])[H])C([H])=C([H])C1(OC1([H])[H])C3([H])[H]

$$$$
23:0:0
     RDKit          3D

 28 29  0  0  1  0  0  0  0  0999 V2000
    3.3584   -4.6207    0.0734 C   0  0  0  0  0  0  0  0  0  0  0  0
    4.1870   -3.5584   -0.5540 N   0  0  2  0  0  0  0  0  0  0  0  0
    5.2009   -2.9744    0.3668 C   0  0  1  0  0  0  0  0  0  0  0  0
    6.1674   -3.8541    0.4545 O   0  0  0  0  0  0  0  0  0  0  0  0
    5.6368   -1.6440   -0.3085 C   0  0  1  0  0  0  0  0  0  0  0  0
    6.6556   -1.8795   -1.2509 O   0  0  0  0  0  0  0  0  0  0  0  0
    4.3587   -1.1762   -1.0137 C   0  0  1  0  0  0  0  0  0  0  0  0
    4.4899   -0.6239   -2.4450 C   0  0  0  0  0  0  0  0  0  0  0  0
    3.2412   -1.1233   -3.1609 C   0  0  1  0  0  0  0  0  0  0  0  0
    3.4380   -1.0972   -4.5632 O   0  0  0  0  0  0  0  0  0  0  0  0
    3.0156   -2.5346   -2.5884 C   0  0  1  0  0  0  0  0  0  0  0  0
    3.8300   -3.4835   -3.2682 O   0  0  0  0  0  0  0  0  0  0  0  0
    3.4336   -2.4015   -1.1138 C   0  0  1  0  0  0  0  0  0  0  0  0
    2.7694   -4.2190    0.8989 H   0  0  0  0  0  0  0  0  0  0  0  0
    3.9915   -5.4276    0.4567 H   0  0  0  0  0  0  0  0  0  0  0  0
    2.7014   -5.0357   -0.6836 H   0  0  0  0  0  0  0  0  0  0  0  0
    4.6569   -2.6678    1.2767 H   0  0  0  0  0  0  0  0  0  0  0  0
    6.0122   -0.9273    0.4217 H   0  0  0  0  0  0  0  0  0  0  0  0
    6.4647   -2.7031   -1.6784 H   0  0  0  0  0  0  0  0  0  0  0  0
    3.8565   -0.4590   -0.3699 H   0  0  0  0  0  0  0  0  0  0  0  0
    4.5761    0.4631   -2.4816 H   0  0  0  0  0  0  0  0  0  0  0  0
    5.3352   -1.0580   -2.9845 H   0  0  0  0  0  0  0  0  0  0  0  0
    2.4045   -0.4776   -2.8862 H   0  0  0  0  0  0  0  0  0  0  0  0
    2.6299   -1.4164   -4.9860 H   0  0  0  0  0  0  0  0  0  0  0  0
    1.9765   -2.8395   -2.6647 H   0  0  0  0  0  0  0  0  0  0  0  0
    3.5034   -4.3634   -3.0839 H   0  0  0  0  0  0  0  0  0  0  0  0
    2.5841   -2.2330   -0.4566 H   0  0  0  0  0  0  0  0  0  0  0  0
    4.7814   -3.9577   -1.2676 H   0  0  0  0  0  0  0  0  0  0  0  0
  1  2  1  0
  1 14  1  0
  1 15  1  0
  1 16  1  0
  2 13  1  0
  2  3  1  0
  2 28  1  6
  3  4  1  0
  3  5  1  0
  3 17  1  1
  5  6  1  0
  5  7  1  0
  5 18  1  1
  6 19  1  0
  7 13  1  0
  7  8  1  0
  7 20  1  1
  8  9  1  0
  8 21  1  0
  8 22  1  0
  9 10  1  0
  9 11  1  0
  9 23  1  6
 10 24  1  0
 11 12  1  0
 11 13  1  0
 11 25  1  1
 12 26  1  0
 13 27  1  1
M  CHG  2   2   1   4  -1
M  END
>  <i_m_ct_stereo_status>  (112) 
1

>  <s_m_source_file>  (112) 
/var/tmp/pbs.5102103.sched01/tmp13xrk0lu/22amefgkkz.sdf

>  <i_m_source_file_index>  (112) 
21

>  <i_lp_mmshare_version>  (112) 
48012

>  <i_f3d_flags>  (112) 
0

>  <s_epik_input>  (112) 
W09IXVtDQEBIXTFbQ0BIXShbT0hdKU4oW0NIM10pW0NAQEhdKFtDQEBIXTEyKVtDQEhdKFtPSF0pW0NAQEhdKFtDSDJdMilbT0hd

>  <s_epik_cmdline>  (112) 
J2VwaWtfcHl0aG9uJywgJy1waHQnLCAnMi4wJywgJy1waCcsICc3LjAnLCAnLXRuJywgJzgnLCAnLW1hJywgJzIwMCcsICctaW1hZScsICc8aW5maWxlLm1hZT4nLCAnLW9tYWUnLCAnPG91dGZpbGUubWFlPic=

>  <r_epik_Ionization_Penalty>  (112) 
0.0508455

>  <r_epik_Ionization_Penalty_Charging>  (112) 
0.0508454

>  <r_epik_Ionization_Penalty_Neutral>  (112) 
4.70945e-08

>  <r_epik_State_Penalty>  (112) 
0.142102

>  <r_epik_Charging_Adjusted_Penalty>  (112) 
0.192948

>  <i_epik_Tot_Q>  (112) 
0

>  <i_epik_Tot_abs_Q>  (112) 
2

>  <s_epik_Chemistry_Notes>  (112) 
This compound contains an acetal/aminal-like group ( X-CH(R)-Y where X, Y are N, S, or O) that may be acid/base labile, releasing an aldehyde.

>  <s_lp_Force_Field>  (112) 
OPLS3e

>  <r_lp_Energy>  (112) 
14.725

>  <b_lp_Chiralities_Consistent>  (112) 
1

>  <s_lp_Variant>  (112) 
23:0-1

>  <s_i_glide_gridfile>  (112) 
pfpi4k_grid

>  <i_i_glide_lignum>  (112) 
21

>  <i_i_glide_rotatable_bonds>  (112) 
3

>  <r_i_docking_score>  (112) 
-5.16284

>  <r_i_glide_ligand_efficiency>  (112) 
-0.397142

>  <r_i_glide_ligand_efficiency_sa>  (112) 
-0.933813

>  <r_i_glide_ligand_efficiency_ln>  (112) 
-1.44822

>  <r_i_glide_gscore>  (112) 
-5.16284

>  <r_i_glide_lipo>  (112) 
-0.0377096

>  <r_i_glide_hbond>  (112) 
0

>  <r_i_glide_metal>  (112) 
-0

>  <r_i_glide_rewards>  (112) 
-2.16392

>  <r_i_glide_evdw>  (112) 
-12.5546

>  <r_i_glide_ecoul>  (112) 
-15.5565

>  <r_i_glide_erotb>  (112) 
0

>  <r_i_glide_esite>  (112) 
0

>  <r_i_glide_emodel>  (112) 
-40.2352

>  <r_i_glide_energy>  (112) 
-28.1111

>  <r_i_glide_einternal>  (112) 
0.771592

>  <r_i_glide_intrahb_reward>  (112) 
-0

>  <i_i_glide_confnum>  (112) 
3

>  <i_i_glide_posenum>  (112) 
21

>  <r_i_glide_eff_state_penalty>  (112) 
0

>  <ligand_id>  (112) 
23

>  <original_smiles>  (112) 
CN1C(O)C(O)C2CC(O)C(O)C21

>  <smiles>  (112) 
[H]OC1([H])C([H])([H])C2([H])C([H])(O[H])C([H])([O-])[N+]([H])(C([H])([H])[H])C2([H])C1([H])O[H]

$$$$
23:0:1
     RDKit          3D

 28 29  0  0  1  0  0  0  0  0999 V2000
    3.2352   -4.5779    0.0151 C   0  0  0  0  0  0  0  0  0  0  0  0
    4.1335   -3.6073   -0.6617 N   0  0  2  0  0  0  0  0  0  0  0  0
    5.2704   -3.1472    0.1826 C   0  0  1  0  0  0  0  0  0  0  0  0
    6.1591   -4.0796    0.1548 O   0  0  0  0  0  0  0  0  0  0  0  0
    5.7828   -1.8630   -0.5122 C   0  0  1  0  0  0  0  0  0  0  0  0
    6.7864   -2.2512   -1.4385 O   0  0  0  0  0  0  0  0  0  0  0  0
    4.5081   -1.2621   -1.1355 C   0  0  1  0  0  0  0  0  0  0  0  0
    4.6034   -0.7163   -2.5666 C   0  0  0  0  0  0  0  0  0  0  0  0
    3.2663   -1.0705   -3.2075 C   0  0  1  0  0  0  0  0  0  0  0  0
    3.3717   -1.0422   -4.6216 O   0  0  0  0  0  0  0  0  0  0  0  0
    2.9287   -2.4579   -2.6253 C   0  0  1  0  0  0  0  0  0  0  0  0
    3.5923   -3.4632   -3.3743 O   0  0  0  0  0  0  0  0  0  0  0  0
    3.4597   -2.3923   -1.1712 C   0  0  1  0  0  0  0  0  0  0  0  0
    2.7435   -4.1229    0.8795 H   0  0  0  0  0  0  0  0  0  0  0  0
    3.7892   -5.4520    0.3600 H   0  0  0  0  0  0  0  0  0  0  0  0
    2.4682   -4.9198   -0.6844 H   0  0  0  0  0  0  0  0  0  0  0  0
    4.8272   -2.8152    1.1256 H   0  0  0  0  0  0  0  0  0  0  0  0
    6.2551   -1.1914    0.2040 H   0  0  0  0  0  0  0  0  0  0  0  0
    7.0809   -3.0899   -1.0831 H   0  0  0  0  0  0  0  0  0  0  0  0
    4.1262   -0.4839   -0.4685 H   0  0  0  0  0  0  0  0  0  0  0  0
    4.8180    0.3473   -2.6239 H   0  0  0  0  0  0  0  0  0  0  0  0
    5.3839   -1.2742   -3.0935 H   0  0  0  0  0  0  0  0  0  0  0  0
    2.5196   -0.3415   -2.8785 H   0  0  0  0  0  0  0  0  0  0  0  0
    2.5602   -1.3687   -4.9938 H   0  0  0  0  0  0  0  0  0  0  0  0
    1.8523   -2.6512   -2.6332 H   0  0  0  0  0  0  0  0  0  0  0  0
    3.2703   -4.3232   -3.1092 H   0  0  0  0  0  0  0  0  0  0  0  0
    2.6526   -2.1248   -0.4797 H   0  0  0  0  0  0  0  0  0  0  0  0
    4.6268   -4.0615   -1.4282 H   0  0  0  0  0  0  0  0  0  0  0  0
  1  2  1  0
  1 14  1  0
  1 15  1  0
  1 16  1  0
  2 13  1  0
  2  3  1  0
  2 28  1  6
  3  4  1  0
  3  5  1  0
  3 17  1  1
  5  6  1  0
  5  7  1  0
  5 18  1  1
  6 19  1  0
  7 13  1  0
  7  8  1  0
  7 20  1  1
  8  9  1  0
  8 21  1  0
  8 22  1  0
  9 10  1  0
  9 11  1  0
  9 23  1  1
 10 24  1  0
 11 12  1  0
 11 13  1  0
 11 25  1  1
 12 26  1  0
 13 27  1  1
M  CHG  2   2   1   4  -1
M  END
>  <i_m_ct_stereo_status>  (113) 
1

>  <s_m_source_file>  (113) 
/var/tmp/pbs.5102103.sched01/tmp13xrk0lu/22amefgkkz.sdf

>  <i_m_source_file_index>  (113) 
21

>  <i_lp_mmshare_version>  (113) 
48012

>  <i_f3d_flags>  (113) 
0

>  <s_epik_input>  (113) 
W09IXVtDQEBIXTFbQ0BIXShbT0hdKU4oW0NIM10pW0NAQEhdKFtDQEBIXTEyKVtDQEhdKFtPSF0pW0NAQEhdKFtDSDJdMilbT0hd

>  <s_epik_cmdline>  (113) 
J2VwaWtfcHl0aG9uJywgJy1waHQnLCAnMi4wJywgJy1waCcsICc3LjAnLCAnLXRuJywgJzgnLCAnLW1hJywgJzIwMCcsICctaW1hZScsICc8aW5maWxlLm1hZT4nLCAnLW9tYWUnLCAnPG91dGZpbGUubWFlPic=

>  <r_epik_Ionization_Penalty>  (113) 
0.0508455

>  <r_epik_Ionization_Penalty_Charging>  (113) 
0.0508454

>  <r_epik_Ionization_Penalty_Neutral>  (113) 
4.70945e-08

>  <r_epik_State_Penalty>  (113) 
0.142102

>  <r_epik_Charging_Adjusted_Penalty>  (113) 
0.192948

>  <i_epik_Tot_Q>  (113) 
0

>  <i_epik_Tot_abs_Q>  (113) 
2

>  <s_epik_Chemistry_Notes>  (113) 
This compound contains an acetal/aminal-like group ( X-CH(R)-Y where X, Y are N, S, or O) that may be acid/base labile, releasing an aldehyde.

>  <s_lp_Force_Field>  (113) 
OPLS3e

>  <r_lp_Energy>  (113) 
14.725

>  <b_lp_Chiralities_Consistent>  (113) 
1

>  <s_lp_Variant>  (113) 
23:0-1

>  <s_i_glide_gridfile>  (113) 
pfpi4k_grid

>  <i_i_glide_lignum>  (113) 
21

>  <i_i_glide_rotatable_bonds>  (113) 
3

>  <r_i_docking_score>  (113) 
-5.08246

>  <r_i_glide_ligand_efficiency>  (113) 
-0.390958

>  <r_i_glide_ligand_efficiency_sa>  (113) 
-0.919273

>  <r_i_glide_ligand_efficiency_ln>  (113) 
-1.42567

>  <r_i_glide_gscore>  (113) 
-5.08246

>  <r_i_glide_lipo>  (113) 
-0.062872

>  <r_i_glide_hbond>  (113) 
0

>  <r_i_glide_metal>  (113) 
-0

>  <r_i_glide_rewards>  (113) 
-2.16984

>  <r_i_glide_evdw>  (113) 
-14.7321

>  <r_i_glide_ecoul>  (113) 
-14.0876

>  <r_i_glide_erotb>  (113) 
0

>  <r_i_glide_esite>  (113) 
0

>  <r_i_glide_emodel>  (113) 
-39.6116

>  <r_i_glide_energy>  (113) 
-28.8197

>  <r_i_glide_einternal>  (113) 
1.34593

>  <r_i_glide_intrahb_reward>  (113) 
-0

>  <i_i_glide_confnum>  (113) 
1

>  <i_i_glide_posenum>  (113) 
33

>  <r_i_glide_eff_state_penalty>  (113) 
0

>  <ligand_id>  (113) 
23

>  <original_smiles>  (113) 
CN1C(O)C(O)C2CC(O)C(O)C21

>  <smiles>  (113) 
[H]OC1([H])C([H])([H])C2([H])C([H])(O[H])C([H])([O-])[N+]([H])(C([H])([H])[H])C2([H])C1([H])O[H]

$$$$
23:0:2
     RDKit          3D

 28 29  0  0  1  0  0  0  0  0999 V2000
    2.4711   -1.4712    1.4743 C   0  0  0  0  0  0  0  0  0  0  0  0
    3.6086   -1.7526    0.5546 N   0  0  2  0  0  0  0  0  0  0  0  0
    4.8263   -0.9750    0.8606 C   0  0  1  0  0  0  0  0  0  0  0  0
    5.3517   -1.5588    1.9014 O   0  0  0  0  0  0  0  0  0  0  0  0
    5.7047   -1.0743   -0.3893 C   0  0  1  0  0  0  0  0  0  0  0  0
    6.5026   -2.2335   -0.4230 O   0  0  0  0  0  0  0  0  0  0  0  0
    4.6715   -1.1193   -1.5380 C   0  0  1  0  0  0  0  0  0  0  0  0
    4.8956   -2.1350   -2.7085 C   0  0  0  0  0  0  0  0  0  0  0  0
    3.4983   -2.6100   -3.0614 C   0  0  1  0  0  0  0  0  0  0  0  0
    3.5148   -3.7863   -3.8416 O   0  0  0  0  0  0  0  0  0  0  0  0
    2.7957   -2.7022   -1.6857 C   0  0  1  0  0  0  0  0  0  0  0  0
    3.1786   -3.8856   -0.9931 O   0  0  0  0  0  0  0  0  0  0  0  0
    3.3396   -1.5130   -0.8945 C   0  0  1  0  0  0  0  0  0  0  0  0
    2.1466   -0.4321    1.4039 H   0  0  0  0  0  0  0  0  0  0  0  0
    2.7629   -1.6710    2.5085 H   0  0  0  0  0  0  0  0  0  0  0  0
    1.6440   -2.1375    1.2262 H   0  0  0  0  0  0  0  0  0  0  0  0
    4.5219    0.0602    0.9138 H   0  0  0  0  0  0  0  0  0  0  0  0
    6.3570   -0.2097   -0.4106 H   0  0  0  0  0  0  0  0  0  0  0  0
    5.9703   -2.9657   -0.1473 H   0  0  0  0  0  0  0  0  0  0  0  0
    4.5538   -0.1159   -1.9333 H   0  0  0  0  0  0  0  0  0  0  0  0
    5.3752   -1.6770   -3.5656 H   0  0  0  0  0  0  0  0  0  0  0  0
    5.4717   -3.0134   -2.4128 H   0  0  0  0  0  0  0  0  0  0  0  0
    2.9852   -1.8369   -3.6336 H   0  0  0  0  0  0  0  0  0  0  0  0
    3.4386   -4.5459   -3.2702 H   0  0  0  0  0  0  0  0  0  0  0  0
    1.7212   -2.6510   -1.7925 H   0  0  0  0  0  0  0  0  0  0  0  0
    2.9659   -4.6458   -1.5385 H   0  0  0  0  0  0  0  0  0  0  0  0
    2.6560   -0.7030   -0.9725 H   0  0  0  0  0  0  0  0  0  0  0  0
    3.9289   -2.7033    0.6658 H   0  0  0  0  0  0  0  0  0  0  0  0
  1  2  1  0
  1 14  1  0
  1 15  1  0
  1 16  1  0
  2 13  1  0
  2  3  1  0
  2 28  1  6
  3  4  1  0
  3  5  1  0
  3 17  1  1
  5  6  1  0
  5  7  1  0
  5 18  1  6
  6 19  1  0
  7 13  1  0
  7  8  1  0
  7 20  1  6
  8  9  1  0
  8 21  1  0
  8 22  1  0
  9 10  1  0
  9 11  1  0
  9 23  1  6
 10 24  1  0
 11 12  1  0
 11 13  1  0
 11 25  1  6
 12 26  1  0
 13 27  1  1
M  CHG  2   2   1   4  -1
M  END
>  <i_m_ct_stereo_status>  (114) 
1

>  <s_m_source_file>  (114) 
/var/tmp/pbs.5102103.sched01/tmp13xrk0lu/22amefgkkz.sdf

>  <i_m_source_file_index>  (114) 
21

>  <i_lp_mmshare_version>  (114) 
48012

>  <i_f3d_flags>  (114) 
0

>  <s_epik_input>  (114) 
W09IXVtDQEBIXTFbQ0BIXShbT0hdKU4oW0NIM10pW0NAQEhdKFtDQEBIXTEyKVtDQEhdKFtPSF0pW0NAQEhdKFtDSDJdMilbT0hd

>  <s_epik_cmdline>  (114) 
J2VwaWtfcHl0aG9uJywgJy1waHQnLCAnMi4wJywgJy1waCcsICc3LjAnLCAnLXRuJywgJzgnLCAnLW1hJywgJzIwMCcsICctaW1hZScsICc8aW5maWxlLm1hZT4nLCAnLW9tYWUnLCAnPG91dGZpbGUubWFlPic=

>  <r_epik_Ionization_Penalty>  (114) 
0.0508455

>  <r_epik_Ionization_Penalty_Charging>  (114) 
0.0508454

>  <r_epik_Ionization_Penalty_Neutral>  (114) 
4.70945e-08

>  <r_epik_State_Penalty>  (114) 
0.142102

>  <r_epik_Charging_Adjusted_Penalty>  (114) 
0.192948

>  <i_epik_Tot_Q>  (114) 
0

>  <i_epik_Tot_abs_Q>  (114) 
2

>  <s_epik_Chemistry_Notes>  (114) 
This compound contains an acetal/aminal-like group ( X-CH(R)-Y where X, Y are N, S, or O) that may be acid/base labile, releasing an aldehyde.

>  <s_lp_Force_Field>  (114) 
OPLS3e

>  <r_lp_Energy>  (114) 
14.725

>  <b_lp_Chiralities_Consistent>  (114) 
1

>  <s_lp_Variant>  (114) 
23:0-1

>  <s_i_glide_gridfile>  (114) 
pfpi4k_grid

>  <i_i_glide_lignum>  (114) 
21

>  <i_i_glide_rotatable_bonds>  (114) 
3

>  <r_i_docking_score>  (114) 
-4.84252

>  <r_i_glide_ligand_efficiency>  (114) 
-0.372501

>  <r_i_glide_ligand_efficiency_sa>  (114) 
-0.875875

>  <r_i_glide_ligand_efficiency_ln>  (114) 
-1.35837

>  <r_i_glide_gscore>  (114) 
-4.84252

>  <r_i_glide_lipo>  (114) 
-0.159609

>  <r_i_glide_hbond>  (114) 
0

>  <r_i_glide_metal>  (114) 
-0

>  <r_i_glide_rewards>  (114) 
-2.2394

>  <r_i_glide_evdw>  (114) 
-8.70253

>  <r_i_glide_ecoul>  (114) 
-13.0989

>  <r_i_glide_erotb>  (114) 
0

>  <r_i_glide_esite>  (114) 
-0.043541

>  <r_i_glide_emodel>  (114) 
-32.4403

>  <r_i_glide_energy>  (114) 
-21.8015

>  <r_i_glide_einternal>  (114) 
1.62645

>  <r_i_glide_intrahb_reward>  (114) 
-0

>  <i_i_glide_confnum>  (114) 
1

>  <i_i_glide_posenum>  (114) 
35

>  <r_i_glide_eff_state_penalty>  (114) 
0

>  <ligand_id>  (114) 
23

>  <original_smiles>  (114) 
CN1C(O)C(O)C2CC(O)C(O)C21

>  <smiles>  (114) 
[H]OC1([H])C([H])([H])C2([H])C([H])(O[H])C([H])([O-])[N+]([H])(C([H])([H])[H])C2([H])C1([H])O[H]

$$$$
23:1:0
     RDKit          3D

 28 29  0  0  1  0  0  0  0  0999 V2000
    3.1999   -2.2095    1.9857 C   0  0  0  0  0  0  0  0  0  0  0  0
    4.1650   -2.1082    0.9040 N   0  0  0  0  0  0  0  0  0  0  0  0
    5.1546   -1.0798    1.1362 C   0  0  1  0  0  0  0  0  0  0  0  0
    6.0182   -1.5633    2.1198 O   0  0  0  0  0  0  0  0  0  0  0  0
    5.8233   -0.8511   -0.2242 C   0  0  1  0  0  0  0  0  0  0  0  0
    6.8101   -1.8304   -0.4747 O   0  0  0  0  0  0  0  0  0  0  0  0
    4.6326   -0.9944   -1.1845 C   0  0  1  0  0  0  0  0  0  0  0  0
    4.7929   -1.7050   -2.5392 C   0  0  0  0  0  0  0  0  0  0  0  0
    3.4552   -2.4217   -2.7245 C   0  0  1  0  0  0  0  0  0  0  0  0
    3.5698   -3.4427   -3.7080 O   0  0  0  0  0  0  0  0  0  0  0  0
    3.0649   -2.8868   -1.2984 C   0  0  1  0  0  0  0  0  0  0  0  0
    3.7397   -4.1004   -0.9630 O   0  0  0  0  0  0  0  0  0  0  0  0
    3.5681   -1.7453   -0.3784 C   0  0  1  0  0  0  0  0  0  0  0  0
    3.6976   -2.4759    2.9136 H   0  0  0  0  0  0  0  0  0  0  0  0
    2.4744   -2.9802    1.7524 H   0  0  0  0  0  0  0  0  0  0  0  0
    2.6766   -1.2669    2.1441 H   0  0  0  0  0  0  0  0  0  0  0  0
    4.6862   -0.1526    1.4670 H   0  0  0  0  0  0  0  0  0  0  0  0
    6.8132   -1.0577    2.0784 H   0  0  0  0  0  0  0  0  0  0  0  0
    6.2840    0.1334   -0.2606 H   0  0  0  0  0  0  0  0  0  0  0  0
    6.4016   -2.6708   -0.3431 H   0  0  0  0  0  0  0  0  0  0  0  0
    4.2282   -0.0073   -1.3778 H   0  0  0  0  0  0  0  0  0  0  0  0
    4.9872   -1.0059   -3.3556 H   0  0  0  0  0  0  0  0  0  0  0  0
    5.5745   -2.4673   -2.5480 H   0  0  0  0  0  0  0  0  0  0  0  0
    2.7136   -1.6935   -3.0743 H   0  0  0  0  0  0  0  0  0  0  0  0
    3.4448   -4.2901   -3.2906 H   0  0  0  0  0  0  0  0  0  0  0  0
    1.9867   -3.0298   -1.2074 H   0  0  0  0  0  0  0  0  0  0  0  0
    3.4038   -4.8221   -1.4876 H   0  0  0  0  0  0  0  0  0  0  0  0
    2.7732   -1.0314   -0.1780 H   0  0  0  0  0  0  0  0  0  0  0  0
  1  2  1  0
  1 14  1  0
  1 15  1  0
  1 16  1  0
  2 13  1  0
  2  3  1  0
  3  4  1  0
  3  5  1  0
  3 17  1  1
  4 18  1  0
  5  6  1  0
  5  7  1  0
  5 19  1  1
  6 20  1  0
  7 13  1  0
  7  8  1  0
  7 21  1  6
  8  9  1  0
  8 22  1  0
  8 23  1  0
  9 10  1  0
  9 11  1  0
  9 24  1  6
 10 25  1  0
 11 12  1  0
 11 13  1  0
 11 26  1  6
 12 27  1  0
 13 28  1  1
M  END
>  <i_m_ct_stereo_status>  (115) 
1

>  <s_m_source_file>  (115) 
/var/tmp/pbs.5102103.sched01/tmp13xrk0lu/22amefgkkz.sdf

>  <i_m_source_file_index>  (115) 
22

>  <i_lp_mmshare_version>  (115) 
48012

>  <i_f3d_flags>  (115) 
0

>  <s_epik_input>  (115) 
W09IXVtDQEBIXTFbQ0BIXShbT0hdKU4oW0NIM10pW0NAQEhdKFtDQEBIXTEyKVtDQEhdKFtPSF0pW0NAQEhdKFtDSDJdMilbT0hd

>  <s_epik_cmdline>  (115) 
J2VwaWtfcHl0aG9uJywgJy1waHQnLCAnMi4wJywgJy1waCcsICc3LjAnLCAnLXRuJywgJzgnLCAnLW1hJywgJzIwMCcsICctaW1hZScsICc8aW5maWxlLm1hZT4nLCAnLW9tYWUnLCAnPG91dGZpbGUubWFlPic=

>  <r_epik_Ionization_Penalty>  (115) 
0.205665

>  <r_epik_Ionization_Penalty_Charging>  (115) 
0

>  <r_epik_Ionization_Penalty_Neutral>  (115) 
0.205665

>  <r_epik_State_Penalty>  (115) 
1.11119

>  <r_epik_Charging_Adjusted_Penalty>  (115) 
1.11119

>  <i_epik_Tot_Q>  (115) 
0

>  <i_epik_Tot_abs_Q>  (115) 
0

>  <s_epik_Chemistry_Notes>  (115) 
This compound contains an acetal/aminal-like group ( X-CH(R)-Y where X, Y are N, S, or O) that may be acid/base labile, releasing an aldehyde.

>  <s_lp_Force_Field>  (115) 
OPLS3e

>  <r_lp_Energy>  (115) 
17.7716

>  <b_lp_Chiralities_Consistent>  (115) 
1

>  <s_lp_Variant>  (115) 
23:0-2

>  <s_i_glide_gridfile>  (115) 
pfpi4k_grid

>  <i_i_glide_lignum>  (115) 
22

>  <i_i_glide_rotatable_bonds>  (115) 
4

>  <r_i_docking_score>  (115) 
-4.79697

>  <r_i_glide_ligand_efficiency>  (115) 
-0.368998

>  <r_i_glide_ligand_efficiency_sa>  (115) 
-0.867637

>  <r_i_glide_ligand_efficiency_ln>  (115) 
-1.34559

>  <r_i_glide_gscore>  (115) 
-4.79697

>  <r_i_glide_lipo>  (115) 
0

>  <r_i_glide_hbond>  (115) 
0

>  <r_i_glide_metal>  (115) 
-0

>  <r_i_glide_rewards>  (115) 
-2.27224

>  <r_i_glide_evdw>  (115) 
-11.9577

>  <r_i_glide_ecoul>  (115) 
-12.8456

>  <r_i_glide_erotb>  (115) 
0

>  <r_i_glide_esite>  (115) 
0

>  <r_i_glide_emodel>  (115) 
-31.5498

>  <r_i_glide_energy>  (115) 
-24.8033

>  <r_i_glide_einternal>  (115) 
1.92825

>  <r_i_glide_intrahb_reward>  (115) 
-0

>  <i_i_glide_confnum>  (115) 
3

>  <i_i_glide_posenum>  (115) 
29

>  <r_i_glide_eff_state_penalty>  (115) 
0

>  <ligand_id>  (115) 
23

>  <original_smiles>  (115) 
CN1C(O)C(O)C2CC(O)C(O)C21

>  <smiles>  (115) 
[H]OC1([H])N(C([H])([H])[H])C2([H])C([H])(O[H])C([H])(O[H])C([H])([H])C2([H])C1([H])O[H]

$$$$
23:1:1
     RDKit          3D

 28 29  0  0  1  0  0  0  0  0999 V2000
    2.8058   -1.5011    1.4228 C   0  0  0  0  0  0  0  0  0  0  0  0
    3.8602   -2.0348    0.5560 N   0  0  0  0  0  0  0  0  0  0  0  0
    5.1757   -1.5873    0.9278 C   0  0  1  0  0  0  0  0  0  0  0  0
    5.5644   -2.3268    2.0671 O   0  0  0  0  0  0  0  0  0  0  0  0
    6.0784   -1.9059   -0.2708 C   0  0  1  0  0  0  0  0  0  0  0  0
    6.4830   -3.2613   -0.2055 O   0  0  0  0  0  0  0  0  0  0  0  0
    5.1170   -1.6465   -1.4598 C   0  0  1  0  0  0  0  0  0  0  0  0
    5.1226   -2.6213   -2.6596 C   0  0  0  0  0  0  0  0  0  0  0  0
    3.6622   -2.6826   -3.0961 C   0  0  1  0  0  0  0  0  0  0  0  0
    3.3993   -3.8206   -3.9172 O   0  0  0  0  0  0  0  0  0  0  0  0
    2.8681   -2.6042   -1.7750 C   0  0  1  0  0  0  0  0  0  0  0  0
    2.7771   -3.8525   -1.1399 O   0  0  0  0  0  0  0  0  0  0  0  0
    3.7006   -1.6637   -0.8460 C   0  0  1  0  0  0  0  0  0  0  0  0
    2.9722   -1.7964    2.4552 H   0  0  0  0  0  0  0  0  0  0  0  0
    1.8431   -1.8914    1.1104 H   0  0  0  0  0  0  0  0  0  0  0  0
    2.7763   -0.4179    1.3766 H   0  0  0  0  0  0  0  0  0  0  0  0
    5.1890   -0.5162    1.1279 H   0  0  0  0  0  0  0  0  0  0  0  0
    6.3666   -2.7505    1.8208 H   0  0  0  0  0  0  0  0  0  0  0  0
    6.9709   -1.2791   -0.3036 H   0  0  0  0  0  0  0  0  0  0  0  0
    5.6911   -3.7822   -0.2073 H   0  0  0  0  0  0  0  0  0  0  0  0
    5.2744   -0.6301   -1.8149 H   0  0  0  0  0  0  0  0  0  0  0  0
    5.7855   -2.2986   -3.4559 H   0  0  0  0  0  0  0  0  0  0  0  0
    5.4140   -3.6352   -2.3836 H   0  0  0  0  0  0  0  0  0  0  0  0
    3.4440   -1.7780   -3.6789 H   0  0  0  0  0  0  0  0  0  0  0  0
    3.4315   -4.6084   -3.3730 H   0  0  0  0  0  0  0  0  0  0  0  0
    1.8698   -2.2507   -1.9729 H   0  0  0  0  0  0  0  0  0  0  0  0
    2.5420   -4.5100   -1.7748 H   0  0  0  0  0  0  0  0  0  0  0  0
    3.3029   -0.6511   -0.8948 H   0  0  0  0  0  0  0  0  0  0  0  0
  1  2  1  0
  1 14  1  0
  1 15  1  0
  1 16  1  0
  2 13  1  0
  2  3  1  0
  3  4  1  0
  3  5  1  0
  3 17  1  1
  4 18  1  0
  5  6  1  0
  5  7  1  0
  5 19  1  6
  6 20  1  0
  7 13  1  0
  7  8  1  0
  7 21  1  6
  8  9  1  0
  8 22  1  0
  8 23  1  0
  9 10  1  0
  9 11  1  0
  9 24  1  6
 10 25  1  0
 11 12  1  0
 11 13  1  0
 11 26  1  6
 12 27  1  0
 13 28  1  1
M  END
>  <i_m_ct_stereo_status>  (116) 
1

>  <s_m_source_file>  (116) 
/var/tmp/pbs.5102103.sched01/tmp13xrk0lu/22amefgkkz.sdf

>  <i_m_source_file_index>  (116) 
22

>  <i_lp_mmshare_version>  (116) 
48012

>  <i_f3d_flags>  (116) 
0

>  <s_epik_input>  (116) 
W09IXVtDQEBIXTFbQ0BIXShbT0hdKU4oW0NIM10pW0NAQEhdKFtDQEBIXTEyKVtDQEhdKFtPSF0pW0NAQEhdKFtDSDJdMilbT0hd

>  <s_epik_cmdline>  (116) 
J2VwaWtfcHl0aG9uJywgJy1waHQnLCAnMi4wJywgJy1waCcsICc3LjAnLCAnLXRuJywgJzgnLCAnLW1hJywgJzIwMCcsICctaW1hZScsICc8aW5maWxlLm1hZT4nLCAnLW9tYWUnLCAnPG91dGZpbGUubWFlPic=

>  <r_epik_Ionization_Penalty>  (116) 
0.205665

>  <r_epik_Ionization_Penalty_Charging>  (116) 
0

>  <r_epik_Ionization_Penalty_Neutral>  (116) 
0.205665

>  <r_epik_State_Penalty>  (116) 
1.11119

>  <r_epik_Charging_Adjusted_Penalty>  (116) 
1.11119

>  <i_epik_Tot_Q>  (116) 
0

>  <i_epik_Tot_abs_Q>  (116) 
0

>  <s_epik_Chemistry_Notes>  (116) 
This compound contains an acetal/aminal-like group ( X-CH(R)-Y where X, Y are N, S, or O) that may be acid/base labile, releasing an aldehyde.

>  <s_lp_Force_Field>  (116) 
OPLS3e

>  <r_lp_Energy>  (116) 
17.7716

>  <b_lp_Chiralities_Consistent>  (116) 
1

>  <s_lp_Variant>  (116) 
23:0-2

>  <s_i_glide_gridfile>  (116) 
pfpi4k_grid

>  <i_i_glide_lignum>  (116) 
22

>  <i_i_glide_rotatable_bonds>  (116) 
4

>  <r_i_docking_score>  (116) 
-4.42573

>  <r_i_glide_ligand_efficiency>  (116) 
-0.340441

>  <r_i_glide_ligand_efficiency_sa>  (116) 
-0.800491

>  <r_i_glide_ligand_efficiency_ln>  (116) 
-1.24146

>  <r_i_glide_gscore>  (116) 
-4.42573

>  <r_i_glide_lipo>  (116) 
-0.269055

>  <r_i_glide_hbond>  (116) 
0

>  <r_i_glide_metal>  (116) 
-0

>  <r_i_glide_rewards>  (116) 
-2.21823

>  <r_i_glide_evdw>  (116) 
-12.0084

>  <r_i_glide_ecoul>  (116) 
-8.92023

>  <r_i_glide_erotb>  (116) 
0

>  <r_i_glide_esite>  (116) 
0

>  <r_i_glide_emodel>  (116) 
-27.8106

>  <r_i_glide_energy>  (116) 
-20.9286

>  <r_i_glide_einternal>  (116) 
0.974468

>  <r_i_glide_intrahb_reward>  (116) 
-0

>  <i_i_glide_confnum>  (116) 
3

>  <i_i_glide_posenum>  (116) 
25

>  <r_i_glide_eff_state_penalty>  (116) 
0

>  <ligand_id>  (116) 
23

>  <original_smiles>  (116) 
CN1C(O)C(O)C2CC(O)C(O)C21

>  <smiles>  (116) 
[H]OC1([H])N(C([H])([H])[H])C2([H])C([H])(O[H])C([H])(O[H])C([H])([H])C2([H])C1([H])O[H]

$$$$
23:1:2
     RDKit          3D

 28 29  0  0  1  0  0  0  0  0999 V2000
    2.3121   -2.5542    1.6213 C   0  0  0  0  0  0  0  0  0  0  0  0
    3.2071   -3.3920    0.8271 N   0  0  0  0  0  0  0  0  0  0  0  0
    4.3555   -3.8511    1.5801 C   0  0  1  0  0  0  0  0  0  0  0  0
    3.9012   -4.8839    2.4066 O   0  0  0  0  0  0  0  0  0  0  0  0
    5.3727   -4.3497    0.5379 C   0  0  1  0  0  0  0  0  0  0  0  0
    5.0498   -5.6743    0.1537 O   0  0  0  0  0  0  0  0  0  0  0  0
    5.1436   -3.3415   -0.6075 C   0  0  1  0  0  0  0  0  0  0  0  0
    5.1452   -3.8364   -2.0679 C   0  0  0  0  0  0  0  0  0  0  0  0
    4.0776   -2.9737   -2.7349 C   0  0  1  0  0  0  0  0  0  0  0  0
    3.6245   -3.5761   -3.9202 O   0  0  0  0  0  0  0  0  0  0  0  0
    2.9913   -2.7624   -1.6715 C   0  0  1  0  0  0  0  0  0  0  0  0
    2.0588   -3.8372   -1.6585 O   0  0  0  0  0  0  0  0  0  0  0  0
    3.7640   -2.7114   -0.3336 C   0  0  1  0  0  0  0  0  0  0  0  0
    1.9282   -3.1042    2.4737 H   0  0  0  0  0  0  0  0  0  0  0  0
    1.4706   -2.2442    1.0123 H   0  0  0  0  0  0  0  0  0  0  0  0
    2.8161   -1.6650    1.9918 H   0  0  0  0  0  0  0  0  0  0  0  0
    4.7924   -3.0393    2.1641 H   0  0  0  0  0  0  0  0  0  0  0  0
    4.4839   -5.6080    2.2499 H   0  0  0  0  0  0  0  0  0  0  0  0
    6.3960   -4.3370    0.9184 H   0  0  0  0  0  0  0  0  0  0  0  0
    4.2259   -5.6425   -0.3116 H   0  0  0  0  0  0  0  0  0  0  0  0
    5.8776   -2.5418   -0.5074 H   0  0  0  0  0  0  0  0  0  0  0  0
    6.1298   -3.7535   -2.5428 H   0  0  0  0  0  0  0  0  0  0  0  0
    4.8341   -4.8761   -2.1646 H   0  0  0  0  0  0  0  0  0  0  0  0
    4.5208   -2.0127   -2.9894 H   0  0  0  0  0  0  0  0  0  0  0  0
    3.1757   -4.3820   -3.6908 H   0  0  0  0  0  0  0  0  0  0  0  0
    2.4642   -1.8438   -1.8883 H   0  0  0  0  0  0  0  0  0  0  0  0
    2.5009   -4.6429   -1.8695 H   0  0  0  0  0  0  0  0  0  0  0  0
    3.9397   -1.6712   -0.0648 H   0  0  0  0  0  0  0  0  0  0  0  0
  1  2  1  0
  1 14  1  0
  1 15  1  0
  1 16  1  0
  2 13  1  0
  2  3  1  0
  3  4  1  0
  3  5  1  0
  3 17  1  1
  4 18  1  0
  5  6  1  0
  5  7  1  0
  5 19  1  1
  6 20  1  0
  7 13  1  0
  7  8  1  0
  7 21  1  6
  8  9  1  0
  8 22  1  0
  8 23  1  0
  9 10  1  0
  9 11  1  0
  9 24  1  6
 10 25  1  0
 11 12  1  0
 11 13  1  0
 11 26  1  6
 12 27  1  0
 13 28  1  1
M  END
>  <i_m_ct_stereo_status>  (117) 
1

>  <s_m_source_file>  (117) 
/var/tmp/pbs.5102103.sched01/tmp13xrk0lu/22amefgkkz.sdf

>  <i_m_source_file_index>  (117) 
22

>  <i_lp_mmshare_version>  (117) 
48012

>  <i_f3d_flags>  (117) 
0

>  <s_epik_input>  (117) 
W09IXVtDQEBIXTFbQ0BIXShbT0hdKU4oW0NIM10pW0NAQEhdKFtDQEBIXTEyKVtDQEhdKFtPSF0pW0NAQEhdKFtDSDJdMilbT0hd

>  <s_epik_cmdline>  (117) 
J2VwaWtfcHl0aG9uJywgJy1waHQnLCAnMi4wJywgJy1waCcsICc3LjAnLCAnLXRuJywgJzgnLCAnLW1hJywgJzIwMCcsICctaW1hZScsICc8aW5maWxlLm1hZT4nLCAnLW9tYWUnLCAnPG91dGZpbGUubWFlPic=

>  <r_epik_Ionization_Penalty>  (117) 
0.205665

>  <r_epik_Ionization_Penalty_Charging>  (117) 
0

>  <r_epik_Ionization_Penalty_Neutral>  (117) 
0.205665

>  <r_epik_State_Penalty>  (117) 
1.11119

>  <r_epik_Charging_Adjusted_Penalty>  (117) 
1.11119

>  <i_epik_Tot_Q>  (117) 
0

>  <i_epik_Tot_abs_Q>  (117) 
0

>  <s_epik_Chemistry_Notes>  (117) 
This compound contains an acetal/aminal-like group ( X-CH(R)-Y where X, Y are N, S, or O) that may be acid/base labile, releasing an aldehyde.

>  <s_lp_Force_Field>  (117) 
OPLS3e

>  <r_lp_Energy>  (117) 
17.7716

>  <b_lp_Chiralities_Consistent>  (117) 
1

>  <s_lp_Variant>  (117) 
23:0-2

>  <s_i_glide_gridfile>  (117) 
pfpi4k_grid

>  <i_i_glide_lignum>  (117) 
22

>  <i_i_glide_rotatable_bonds>  (117) 
4

>  <r_i_docking_score>  (117) 
-4.18471

>  <r_i_glide_ligand_efficiency>  (117) 
-0.321901

>  <r_i_glide_ligand_efficiency_sa>  (117) 
-0.756897

>  <r_i_glide_ligand_efficiency_ln>  (117) 
-1.17385

>  <r_i_glide_gscore>  (117) 
-4.18471

>  <r_i_glide_lipo>  (117) 
-0.120149

>  <r_i_glide_hbond>  (117) 
0

>  <r_i_glide_metal>  (117) 
-0

>  <r_i_glide_rewards>  (117) 
-2.14146

>  <r_i_glide_evdw>  (117) 
-11.4623

>  <r_i_glide_ecoul>  (117) 
-8.99992

>  <r_i_glide_erotb>  (117) 
0

>  <r_i_glide_esite>  (117) 
0

>  <r_i_glide_emodel>  (117) 
-26.9706

>  <r_i_glide_energy>  (117) 
-20.4622

>  <r_i_glide_einternal>  (117) 
0.881755

>  <r_i_glide_intrahb_reward>  (117) 
-0

>  <i_i_glide_confnum>  (117) 
3

>  <i_i_glide_posenum>  (117) 
13

>  <r_i_glide_eff_state_penalty>  (117) 
0

>  <ligand_id>  (117) 
23

>  <original_smiles>  (117) 
CN1C(O)C(O)C2CC(O)C(O)C21

>  <smiles>  (117) 
[H]OC1([H])N(C([H])([H])[H])C2([H])C([H])(O[H])C([H])(O[H])C([H])([H])C2([H])C1([H])O[H]

$$$$
23:2:0
     RDKit          3D

 29 30  0  0  1  0  0  0  0  0999 V2000
    3.2016   -4.5801    0.0063 C   0  0  0  0  0  0  0  0  0  0  0  0
    4.1070   -3.6040   -0.6548 N   0  0  2  0  0  0  0  0  0  0  0  0
    5.1996   -3.1039    0.2124 C   0  0  1  0  0  0  0  0  0  0  0  0
    6.0449   -4.2322    0.2973 O   0  0  0  0  0  0  0  0  0  0  0  0
    5.7707   -1.8738   -0.5104 C   0  0  1  0  0  0  0  0  0  0  0  0
    6.7576   -2.2570   -1.4652 O   0  0  0  0  0  0  0  0  0  0  0  0
    4.5037   -1.2616   -1.1467 C   0  0  1  0  0  0  0  0  0  0  0  0
    4.5988   -0.7161   -2.5817 C   0  0  0  0  0  0  0  0  0  0  0  0
    3.2658   -1.0741   -3.2241 C   0  0  1  0  0  0  0  0  0  0  0  0
    3.3918   -1.0506   -4.6359 O   0  0  0  0  0  0  0  0  0  0  0  0
    2.9330   -2.4599   -2.6404 C   0  0  1  0  0  0  0  0  0  0  0  0
    3.6172   -3.4496   -3.3674 O   0  0  0  0  0  0  0  0  0  0  0  0
    3.4447   -2.3770   -1.1819 C   0  0  1  0  0  0  0  0  0  0  0  0
    2.7381   -4.1421    0.8817 H   0  0  0  0  0  0  0  0  0  0  0  0
    3.7457   -5.4696    0.3192 H   0  0  0  0  0  0  0  0  0  0  0  0
    2.4322   -4.8925   -0.6942 H   0  0  0  0  0  0  0  0  0  0  0  0
    4.7972   -2.8103    1.1803 H   0  0  0  0  0  0  0  0  0  0  0  0
    6.3069   -4.3324    1.1949 H   0  0  0  0  0  0  0  0  0  0  0  0
    6.2459   -1.1715    0.1791 H   0  0  0  0  0  0  0  0  0  0  0  0
    6.4106   -2.9292   -2.0235 H   0  0  0  0  0  0  0  0  0  0  0  0
    4.1173   -0.4849   -0.4947 H   0  0  0  0  0  0  0  0  0  0  0  0
    4.8044    0.3567   -2.6453 H   0  0  0  0  0  0  0  0  0  0  0  0
    5.3718   -1.2544   -3.1286 H   0  0  0  0  0  0  0  0  0  0  0  0
    2.5240   -0.3485   -2.9034 H   0  0  0  0  0  0  0  0  0  0  0  0
    2.5863   -1.3561   -5.0295 H   0  0  0  0  0  0  0  0  0  0  0  0
    1.8650   -2.6617   -2.6663 H   0  0  0  0  0  0  0  0  0  0  0  0
    3.2421   -4.3204   -3.1611 H   0  0  0  0  0  0  0  0  0  0  0  0
    2.6295   -2.1213   -0.5057 H   0  0  0  0  0  0  0  0  0  0  0  0
    4.5868   -4.0414   -1.4365 H   0  0  0  0  0  0  0  0  0  0  0  0
  1  2  1  0
  1 14  1  0
  1 15  1  0
  1 16  1  0
  2 13  1  0
  2  3  1  0
  2 29  1  6
  3  4  1  0
  3  5  1  0
  3 17  1  1
  4 18  1  0
  5  6  1  0
  5  7  1  0
  5 19  1  1
  6 20  1  0
  7 13  1  0
  7  8  1  0
  7 21  1  1
  8  9  1  0
  8 22  1  0
  8 23  1  0
  9 10  1  0
  9 11  1  0
  9 24  1  6
 10 25  1  0
 11 12  1  0
 11 13  1  0
 11 26  1  1
 12 27  1  0
 13 28  1  1
M  CHG  1   2   1
M  END
>  <i_m_ct_stereo_status>  (118) 
1

>  <s_m_source_file>  (118) 
/var/tmp/pbs.5102103.sched01/tmprp2a6t7u/44c8wyhmqh.sdf

>  <i_m_source_file_index>  (118) 
1

>  <i_lp_mmshare_version>  (118) 
48012

>  <i_f3d_flags>  (118) 
0

>  <s_epik_input>  (118) 
W09IXVtDQEBIXTFbQ0BIXShbT0hdKU4oW0NIM10pW0NAQEhdKFtDQEBIXTEyKVtDQEhdKFtPSF0pW0NAQEhdKFtDSDJdMilbT0hd

>  <s_epik_cmdline>  (118) 
J2VwaWtfcHl0aG9uJywgJy1waHQnLCAnMi4wJywgJy1waCcsICc3LjAnLCAnLXRuJywgJzgnLCAnLW1hJywgJzIwMCcsICctaW1hZScsICc8aW5maWxlLm1hZT4nLCAnLW9tYWUnLCAnPG91dGZpbGUubWFlPic=

>  <r_epik_Ionization_Penalty>  (118) 
2.20691

>  <r_epik_Ionization_Penalty_Charging>  (118) 
0.726776

>  <r_epik_Ionization_Penalty_Neutral>  (118) 
1.48013

>  <r_epik_State_Penalty>  (118) 
1.66726

>  <r_epik_Charging_Adjusted_Penalty>  (118) 
2.39404

>  <i_epik_Tot_Q>  (118) 
1

>  <i_epik_Tot_abs_Q>  (118) 
1

>  <s_epik_Chemistry_Notes>  (118) 
This compound contains an acetal/aminal-like group ( X-CH(R)-Y where X, Y are N, S, or O) that may be acid/base labile, releasing an aldehyde.

>  <s_lp_Force_Field>  (118) 
OPLS3e

>  <r_lp_Energy>  (118) 
14.6028

>  <b_lp_Chiralities_Consistent>  (118) 
1

>  <s_lp_Variant>  (118) 
23:0-3

>  <s_i_glide_gridfile>  (118) 
pfpi4k_grid

>  <i_i_glide_lignum>  (118) 
1

>  <i_i_glide_rotatable_bonds>  (118) 
4

>  <r_i_docking_score>  (118) 
-5.30325

>  <r_i_glide_ligand_efficiency>  (118) 
-0.407942

>  <r_i_glide_ligand_efficiency_sa>  (118) 
-0.959209

>  <r_i_glide_ligand_efficiency_ln>  (118) 
-1.48761

>  <r_i_glide_gscore>  (118) 
-5.30325

>  <r_i_glide_lipo>  (118) 
-0.0699412

>  <r_i_glide_hbond>  (118) 
0

>  <r_i_glide_metal>  (118) 
-0

>  <r_i_glide_rewards>  (118) 
-2.15823

>  <r_i_glide_evdw>  (118) 
-15.6434

>  <r_i_glide_ecoul>  (118) 
-15.286

>  <r_i_glide_erotb>  (118) 
0

>  <r_i_glide_esite>  (118) 
0

>  <r_i_glide_emodel>  (118) 
-42.0443

>  <r_i_glide_energy>  (118) 
-30.9294

>  <r_i_glide_einternal>  (118) 
0.823718

>  <r_i_glide_intrahb_reward>  (118) 
-0

>  <i_i_glide_confnum>  (118) 
3

>  <i_i_glide_posenum>  (118) 
13

>  <r_i_glide_eff_state_penalty>  (118) 
0

>  <ligand_id>  (118) 
23

>  <original_smiles>  (118) 
CN1C(O)C(O)C2CC(O)C(O)C21

>  <smiles>  (118) 
[H]OC1([H])C([H])([H])C2([H])C([H])(O[H])C([H])(O[H])[N+]([H])(C([H])([H])[H])C2([H])C1([H])O[H]

$$$$
23:2:1
     RDKit          3D

 29 30  0  0  1  0  0  0  0  0999 V2000
    2.6223   -4.6393   -0.0501 C   0  0  0  0  0  0  0  0  0  0  0  0
    3.7589   -3.8703   -0.6290 N   0  0  2  0  0  0  0  0  0  0  0  0
    4.8937   -3.6703    0.3127 C   0  0  1  0  0  0  0  0  0  0  0  0
    5.4978   -4.9506    0.4393 O   0  0  0  0  0  0  0  0  0  0  0  0
    5.7489   -2.5604   -0.3310 C   0  0  1  0  0  0  0  0  0  0  0  0
    6.6551   -3.1155   -1.2710 O   0  0  0  0  0  0  0  0  0  0  0  0
    4.6721   -1.6570   -0.9720 C   0  0  1  0  0  0  0  0  0  0  0  0
    4.9402   -1.0842   -2.3702 C   0  0  0  0  0  0  0  0  0  0  0  0
    3.5856   -1.0826   -3.0731 C   0  0  1  0  0  0  0  0  0  0  0  0
    3.7525   -1.0074   -4.4852 O   0  0  0  0  0  0  0  0  0  0  0  0
    2.9394   -2.3928   -2.5733 C   0  0  1  0  0  0  0  0  0  0  0  0
    3.4449   -3.4593   -3.3586 O   0  0  0  0  0  0  0  0  0  0  0  0
    3.4060   -2.5126   -1.1017 C   0  0  1  0  0  0  0  0  0  0  0  0
    2.2203   -4.1448    0.8303 H   0  0  0  0  0  0  0  0  0  0  0  0
    2.9243   -5.6427    0.2404 H   0  0  0  0  0  0  0  0  0  0  0  0
    1.8287   -4.7317   -0.7849 H   0  0  0  0  0  0  0  0  0  0  0  0
    4.5170   -3.3085    1.2737 H   0  0  0  0  0  0  0  0  0  0  0  0
    5.2602   -5.5193   -0.2888 H   0  0  0  0  0  0  0  0  0  0  0  0
    6.3397   -2.0205    0.4133 H   0  0  0  0  0  0  0  0  0  0  0  0
    6.1751   -3.5699   -1.9502 H   0  0  0  0  0  0  0  0  0  0  0  0
    4.4362   -0.8356   -0.2989 H   0  0  0  0  0  0  0  0  0  0  0  0
    5.4064   -0.0963   -2.3425 H   0  0  0  0  0  0  0  0  0  0  0  0
    5.5536   -1.7731   -2.9505 H   0  0  0  0  0  0  0  0  0  0  0  0
    3.0001   -0.2238   -2.7404 H   0  0  0  0  0  0  0  0  0  0  0  0
    2.9044   -1.1071   -4.8992 H   0  0  0  0  0  0  0  0  0  0  0  0
    1.8512   -2.3405   -2.6556 H   0  0  0  0  0  0  0  0  0  0  0  0
    2.9684   -4.2711   -3.1684 H   0  0  0  0  0  0  0  0  0  0  0  0
    2.6474   -2.1041   -0.4378 H   0  0  0  0  0  0  0  0  0  0  0  0
    4.1365   -4.3435   -1.4404 H   0  0  0  0  0  0  0  0  0  0  0  0
  1  2  1  0
  1 14  1  0
  1 15  1  0
  1 16  1  0
  2 13  1  0
  2  3  1  0
  2 29  1  6
  3  4  1  0
  3  5  1  0
  3 17  1  1
  4 18  1  0
  5  6  1  0
  5  7  1  0
  5 19  1  1
  6 20  1  0
  7 13  1  0
  7  8  1  0
  7 21  1  1
  8  9  1  0
  8 22  1  0
  8 23  1  0
  9 10  1  0
  9 11  1  0
  9 24  1  1
 10 25  1  0
 11 12  1  0
 11 13  1  0
 11 26  1  1
 12 27  1  0
 13 28  1  1
M  CHG  1   2   1
M  END
>  <i_m_ct_stereo_status>  (119) 
1

>  <s_m_source_file>  (119) 
/var/tmp/pbs.5102103.sched01/tmprp2a6t7u/44c8wyhmqh.sdf

>  <i_m_source_file_index>  (119) 
1

>  <i_lp_mmshare_version>  (119) 
48012

>  <i_f3d_flags>  (119) 
0

>  <s_epik_input>  (119) 
W09IXVtDQEBIXTFbQ0BIXShbT0hdKU4oW0NIM10pW0NAQEhdKFtDQEBIXTEyKVtDQEhdKFtPSF0pW0NAQEhdKFtDSDJdMilbT0hd

>  <s_epik_cmdline>  (119) 
J2VwaWtfcHl0aG9uJywgJy1waHQnLCAnMi4wJywgJy1waCcsICc3LjAnLCAnLXRuJywgJzgnLCAnLW1hJywgJzIwMCcsICctaW1hZScsICc8aW5maWxlLm1hZT4nLCAnLW9tYWUnLCAnPG91dGZpbGUubWFlPic=

>  <r_epik_Ionization_Penalty>  (119) 
2.20691

>  <r_epik_Ionization_Penalty_Charging>  (119) 
0.726776

>  <r_epik_Ionization_Penalty_Neutral>  (119) 
1.48013

>  <r_epik_State_Penalty>  (119) 
1.66726

>  <r_epik_Charging_Adjusted_Penalty>  (119) 
2.39404

>  <i_epik_Tot_Q>  (119) 
1

>  <i_epik_Tot_abs_Q>  (119) 
1

>  <s_epik_Chemistry_Notes>  (119) 
This compound contains an acetal/aminal-like group ( X-CH(R)-Y where X, Y are N, S, or O) that may be acid/base labile, releasing an aldehyde.

>  <s_lp_Force_Field>  (119) 
OPLS3e

>  <r_lp_Energy>  (119) 
14.6028

>  <b_lp_Chiralities_Consistent>  (119) 
1

>  <s_lp_Variant>  (119) 
23:0-3

>  <s_i_glide_gridfile>  (119) 
pfpi4k_grid

>  <i_i_glide_lignum>  (119) 
1

>  <i_i_glide_rotatable_bonds>  (119) 
4

>  <r_i_docking_score>  (119) 
-4.95245

>  <r_i_glide_ligand_efficiency>  (119) 
-0.380958

>  <r_i_glide_ligand_efficiency_sa>  (119) 
-0.89576

>  <r_i_glide_ligand_efficiency_ln>  (119) 
-1.38921

>  <r_i_glide_gscore>  (119) 
-4.95245

>  <r_i_glide_lipo>  (119) 
-0.0355254

>  <r_i_glide_hbond>  (119) 
0

>  <r_i_glide_metal>  (119) 
-0

>  <r_i_glide_rewards>  (119) 
-2.1623

>  <r_i_glide_evdw>  (119) 
-16.2681

>  <r_i_glide_ecoul>  (119) 
-12.8687

>  <r_i_glide_erotb>  (119) 
0

>  <r_i_glide_esite>  (119) 
-0.010919

>  <r_i_glide_emodel>  (119) 
-39.2315

>  <r_i_glide_energy>  (119) 
-29.1367

>  <r_i_glide_einternal>  (119) 
1.37177

>  <r_i_glide_intrahb_reward>  (119) 
-0

>  <i_i_glide_confnum>  (119) 
1

>  <i_i_glide_posenum>  (119) 
7

>  <r_i_glide_eff_state_penalty>  (119) 
0

>  <ligand_id>  (119) 
23

>  <original_smiles>  (119) 
CN1C(O)C(O)C2CC(O)C(O)C21

>  <smiles>  (119) 
[H]OC1([H])C([H])([H])C2([H])C([H])(O[H])C([H])(O[H])[N+]([H])(C([H])([H])[H])C2([H])C1([H])O[H]

$$$$
23:2:2
     RDKit          3D

 29 30  0  0  1  0  0  0  0  0999 V2000
    2.9263   -2.0212    2.1119 C   0  0  0  0  0  0  0  0  0  0  0  0
    3.9553   -1.9202    1.0402 N   0  0  2  0  0  0  0  0  0  0  0  0
    5.0258   -0.9445    1.3043 C   0  0  1  0  0  0  0  0  0  0  0  0
    5.7334   -1.6041    2.3259 O   0  0  0  0  0  0  0  0  0  0  0  0
    5.7935   -0.8027   -0.0204 C   0  0  1  0  0  0  0  0  0  0  0  0
    6.7929   -1.7966   -0.1988 O   0  0  0  0  0  0  0  0  0  0  0  0
    4.6346   -0.9042   -1.0385 C   0  0  1  0  0  0  0  0  0  0  0  0
    4.8396   -1.6659   -2.3629 C   0  0  0  0  0  0  0  0  0  0  0  0
    3.5028   -2.3745   -2.5921 C   0  0  1  0  0  0  0  0  0  0  0  0
    3.6930   -3.4233   -3.5308 O   0  0  0  0  0  0  0  0  0  0  0  0
    3.0313   -2.7703   -1.1818 C   0  0  1  0  0  0  0  0  0  0  0  0
    3.6746   -3.9587   -0.7264 O   0  0  0  0  0  0  0  0  0  0  0  0
    3.4676   -1.5771   -0.3044 C   0  0  1  0  0  0  0  0  0  0  0  0
    2.4378   -1.0750    2.2921 H   0  0  0  0  0  0  0  0  0  0  0  0
    3.3556   -2.3377    3.0607 H   0  0  0  0  0  0  0  0  0  0  0  0
    2.1805   -2.7547    1.8407 H   0  0  0  0  0  0  0  0  0  0  0  0
    4.6083    0.0210    1.6033 H   0  0  0  0  0  0  0  0  0  0  0  0
    6.5937   -1.2225    2.3629 H   0  0  0  0  0  0  0  0  0  0  0  0
    6.3012    0.1464   -0.0526 H   0  0  0  0  0  0  0  0  0  0  0  0
    6.4058   -2.6552   -0.1537 H   0  0  0  0  0  0  0  0  0  0  0  0
    4.3016    0.0933   -1.2890 H   0  0  0  0  0  0  0  0  0  0  0  0
    5.0642   -0.9765   -3.1810 H   0  0  0  0  0  0  0  0  0  0  0  0
    5.6246   -2.4383   -2.3151 H   0  0  0  0  0  0  0  0  0  0  0  0
    2.8015   -1.6375   -2.9963 H   0  0  0  0  0  0  0  0  0  0  0  0
    3.1322   -4.1560   -3.3037 H   0  0  0  0  0  0  0  0  0  0  0  0
    1.9603   -2.9149   -1.1609 H   0  0  0  0  0  0  0  0  0  0  0  0
    3.4686   -4.6792   -1.2983 H   0  0  0  0  0  0  0  0  0  0  0  0
    2.6821   -0.8406   -0.1503 H   0  0  0  0  0  0  0  0  0  0  0  0
    4.4471   -2.8044    0.9202 H   0  0  0  0  0  0  0  0  0  0  0  0
  1  2  1  0
  1 14  1  0
  1 15  1  0
  1 16  1  0
  2 13  1  0
  2  3  1  0
  2 29  1  6
  3  4  1  0
  3  5  1  0
  3 17  1  1
  4 18  1  0
  5  6  1  0
  5  7  1  0
  5 19  1  1
  6 20  1  0
  7 13  1  0
  7  8  1  0
  7 21  1  6
  8  9  1  0
  8 22  1  0
  8 23  1  0
  9 10  1  0
  9 11  1  0
  9 24  1  6
 10 25  1  0
 11 12  1  0
 11 13  1  0
 11 26  1  6
 12 27  1  0
 13 28  1  1
M  CHG  1   2   1
M  END
>  <i_m_ct_stereo_status>  (120) 
1

>  <s_m_source_file>  (120) 
/var/tmp/pbs.5102103.sched01/tmprp2a6t7u/44c8wyhmqh.sdf

>  <i_m_source_file_index>  (120) 
1

>  <i_lp_mmshare_version>  (120) 
48012

>  <i_f3d_flags>  (120) 
0

>  <s_epik_input>  (120) 
W09IXVtDQEBIXTFbQ0BIXShbT0hdKU4oW0NIM10pW0NAQEhdKFtDQEBIXTEyKVtDQEhdKFtPSF0pW0NAQEhdKFtDSDJdMilbT0hd

>  <s_epik_cmdline>  (120) 
J2VwaWtfcHl0aG9uJywgJy1waHQnLCAnMi4wJywgJy1waCcsICc3LjAnLCAnLXRuJywgJzgnLCAnLW1hJywgJzIwMCcsICctaW1hZScsICc8aW5maWxlLm1hZT4nLCAnLW9tYWUnLCAnPG91dGZpbGUubWFlPic=

>  <r_epik_Ionization_Penalty>  (120) 
2.20691

>  <r_epik_Ionization_Penalty_Charging>  (120) 
0.726776

>  <r_epik_Ionization_Penalty_Neutral>  (120) 
1.48013

>  <r_epik_State_Penalty>  (120) 
1.66726

>  <r_epik_Charging_Adjusted_Penalty>  (120) 
2.39404

>  <i_epik_Tot_Q>  (120) 
1

>  <i_epik_Tot_abs_Q>  (120) 
1

>  <s_epik_Chemistry_Notes>  (120) 
This compound contains an acetal/aminal-like group ( X-CH(R)-Y where X, Y are N, S, or O) that may be acid/base labile, releasing an aldehyde.

>  <s_lp_Force_Field>  (120) 
OPLS3e

>  <r_lp_Energy>  (120) 
14.6028

>  <b_lp_Chiralities_Consistent>  (120) 
1

>  <s_lp_Variant>  (120) 
23:0-3

>  <s_i_glide_gridfile>  (120) 
pfpi4k_grid

>  <i_i_glide_lignum>  (120) 
1

>  <i_i_glide_rotatable_bonds>  (120) 
4

>  <r_i_docking_score>  (120) 
-4.81947

>  <r_i_glide_ligand_efficiency>  (120) 
-0.370728

>  <r_i_glide_ligand_efficiency_sa>  (120) 
-0.871706

>  <r_i_glide_ligand_efficiency_ln>  (120) 
-1.3519

>  <r_i_glide_gscore>  (120) 
-4.81947

>  <r_i_glide_lipo>  (120) 
0

>  <r_i_glide_hbond>  (120) 
0

>  <r_i_glide_metal>  (120) 
-0

>  <r_i_glide_rewards>  (120) 
-2.2742

>  <r_i_glide_evdw>  (120) 
-12.6023

>  <r_i_glide_ecoul>  (120) 
-12.6832

>  <r_i_glide_erotb>  (120) 
0

>  <r_i_glide_esite>  (120) 
-0.0126679

>  <r_i_glide_emodel>  (120) 
-34.6083

>  <r_i_glide_energy>  (120) 
-25.2855

>  <r_i_glide_einternal>  (120) 
1.79252

>  <r_i_glide_intrahb_reward>  (120) 
-0

>  <i_i_glide_confnum>  (120) 
3

>  <i_i_glide_posenum>  (120) 
27

>  <r_i_glide_eff_state_penalty>  (120) 
0

>  <ligand_id>  (120) 
23

>  <original_smiles>  (120) 
CN1C(O)C(O)C2CC(O)C(O)C21

>  <smiles>  (120) 
[H]OC1([H])C([H])([H])C2([H])C([H])(O[H])C([H])(O[H])[N+]([H])(C([H])([H])[H])C2([H])C1([H])O[H]

$$$$
25:0:0
     RDKit          3D

 25 26  0  0  1  0  0  0  0  0999 V2000
    3.7991    1.0416   -4.7371 C   0  0  0  0  0  0  0  0  0  0  0  0
    3.7415   -0.4608   -4.5445 C   0  0  0  0  0  0  0  0  0  0  0  0
    3.1581   -0.8949   -3.1857 C   0  0  2  0  0  0  0  0  0  0  0  0
    4.1909   -0.9827   -2.0351 C   0  0  0  0  0  0  0  0  0  0  0  0
    4.0474   -2.4462   -1.5825 C   0  0  2  0  0  0  0  0  0  0  0  0
    4.6435   -3.3852   -2.6517 C   0  0  0  0  0  0  0  0  0  0  0  0
    3.5785   -3.3258   -3.7643 C   0  0  0  0  0  0  0  0  0  0  0  0
    2.5766   -2.3231   -3.1885 C   0  0  1  0  0  0  0  0  0  0  0  0
    2.6143   -2.6585   -1.7639 N   0  0  0  0  0  0  0  0  0  0  0  0
    4.2156    1.2605   -5.7165 H   0  0  0  0  0  0  0  0  0  0  0  0
    4.3956    1.5266   -3.9673 H   0  0  0  0  0  0  0  0  0  0  0  0
    2.8005    1.4700   -4.7177 H   0  0  0  0  0  0  0  0  0  0  0  0
    3.1433   -0.8517   -5.3661 H   0  0  0  0  0  0  0  0  0  0  0  0
    4.7370   -0.8774   -4.6783 H   0  0  0  0  0  0  0  0  0  0  0  0
    2.3648   -0.2116   -2.8791 H   0  0  0  0  0  0  0  0  0  0  0  0
    5.2099   -0.7293   -2.3307 H   0  0  0  0  0  0  0  0  0  0  0  0
    3.9231   -0.3132   -1.2186 H   0  0  0  0  0  0  0  0  0  0  0  0
    4.4134   -2.6278   -0.5693 H   0  0  0  0  0  0  0  0  0  0  0  0
    5.6260   -3.0585   -2.9991 H   0  0  0  0  0  0  0  0  0  0  0  0
    4.7279   -4.4062   -2.2758 H   0  0  0  0  0  0  0  0  0  0  0  0
    3.9878   -3.0508   -4.7194 H   0  0  0  0  0  0  0  0  0  0  0  0
    3.0631   -4.2693   -3.8937 H   0  0  0  0  0  0  0  0  0  0  0  0
    1.5728   -2.4093   -3.6125 H   0  0  0  0  0  0  0  0  0  0  0  0
    2.3559   -3.6250   -1.6072 H   0  0  0  0  0  0  0  0  0  0  0  0
    2.0314   -1.9998   -1.2411 H   0  0  0  0  0  0  0  0  0  0  0  0
  1  2  1  0
  1 10  1  0
  1 11  1  0
  1 12  1  0
  2  3  1  0
  2 13  1  0
  2 14  1  0
  3  8  1  0
  3  4  1  0
  3 15  1  1
  4  5  1  0
  4 16  1  0
  4 17  1  0
  5  9  1  0
  5  6  1  0
  5 18  1  1
  6  7  1  0
  6 19  1  0
  6 20  1  0
  7  8  1  0
  7 21  1  0
  7 22  1  0
  8  9  1  0
  8 23  1  6
  9 24  1  0
  9 25  1  0
M  CHG  1   9   1
M  END
>  <i_m_ct_stereo_status>  (121) 
1

>  <s_m_source_file>  (121) 
/var/tmp/pbs.5102103.sched01/tmprp2a6t7u/44c8wyhmqh.sdf

>  <i_m_source_file_index>  (121) 
3

>  <i_lp_mmshare_version>  (121) 
48012

>  <i_f3d_flags>  (121) 
0

>  <s_epik_input>  (121) 
W0NIM11bQ0gyXVtDQEhdKFtDSDJdW0NASF0xMilbQ0BIXShbTkhdMilbQ0gyXVtDSDJdMQ==

>  <s_epik_cmdline>  (121) 
J2VwaWtfcHl0aG9uJywgJy1waHQnLCAnMi4wJywgJy1waCcsICc3LjAnLCAnLXRuJywgJzgnLCAnLW1hJywgJzIwMCcsICctaW1hZScsICc8aW5maWxlLm1hZT4nLCAnLW9tYWUnLCAnPG91dGZpbGUubWFlPic=

>  <r_lp_tautomer_probability>  (121) 
1

>  <r_epik_Ionization_Penalty>  (121) 
1.73661e-05

>  <r_epik_Ionization_Penalty_Charging>  (121) 
1.73661e-05

>  <r_epik_Ionization_Penalty_Neutral>  (121) 
0

>  <r_epik_State_Penalty>  (121) 
-0

>  <r_epik_Charging_Adjusted_Penalty>  (121) 
1.73661e-05

>  <i_epik_Tot_Q>  (121) 
1

>  <i_epik_Tot_abs_Q>  (121) 
1

>  <s_lp_Force_Field>  (121) 
OPLS3e

>  <r_lp_Energy>  (121) 
25.1244

>  <b_lp_Chiralities_Consistent>  (121) 
1

>  <s_lp_Variant>  (121) 
25:0-1

>  <s_i_glide_gridfile>  (121) 
pfpi4k_grid

>  <i_i_glide_lignum>  (121) 
3

>  <i_i_glide_rotatable_bonds>  (121) 
1

>  <r_i_docking_score>  (121) 
-4.64044

>  <r_i_glide_ligand_efficiency>  (121) 
-0.515604

>  <r_i_glide_ligand_efficiency_sa>  (121) 
-1.0725

>  <r_i_glide_ligand_efficiency_ln>  (121) 
-1.4514

>  <r_i_glide_gscore>  (121) 
-4.64044

>  <r_i_glide_lipo>  (121) 
-0.620631

>  <r_i_glide_hbond>  (121) 
-0.2

>  <r_i_glide_metal>  (121) 
-0

>  <r_i_glide_rewards>  (121) 
-2.25

>  <r_i_glide_evdw>  (121) 
-13.2937

>  <r_i_glide_ecoul>  (121) 
-5.72482

>  <r_i_glide_erotb>  (121) 
0

>  <r_i_glide_esite>  (121) 
-0.0463969

>  <r_i_glide_emodel>  (121) 
-25.5314

>  <r_i_glide_energy>  (121) 
-19.0186

>  <r_i_glide_einternal>  (121) 
0.470402

>  <r_i_glide_intrahb_reward>  (121) 
-0

>  <i_i_glide_confnum>  (121) 
2

>  <i_i_glide_posenum>  (121) 
26

>  <r_i_glide_eff_state_penalty>  (121) 
0

>  <ligand_id>  (121) 
25

>  <original_smiles>  (121) 
CCC1CC2CCC1N2

>  <smiles>  (121) 
[H]C([H])([H])C([H])([H])C1([H])C([H])([H])C2([H])C([H])([H])C([H])([H])C1([H])[N+]2([H])[H]

$$$$
25:0:1
     RDKit          3D

 25 26  0  0  1  0  0  0  0  0999 V2000
    3.0153    0.3079   -4.9960 C   0  0  0  0  0  0  0  0  0  0  0  0
    4.0809   -0.4100   -4.1693 C   0  0  0  0  0  0  0  0  0  0  0  0
    3.6974   -1.8202   -3.6714 C   0  0  2  0  0  0  0  0  0  0  0  0
    2.6326   -1.8128   -2.5705 C   0  0  0  0  0  0  0  0  0  0  0  0
    3.3251   -2.5484   -1.4089 C   0  0  2  0  0  0  0  0  0  0  0  0
    4.4422   -1.6763   -0.8107 C   0  0  0  0  0  0  0  0  0  0  0  0
    5.5355   -1.7748   -1.8920 C   0  0  0  0  0  0  0  0  0  0  0  0
    4.8384   -2.6173   -2.9729 C   0  0  1  0  0  0  0  0  0  0  0  0
    4.0949   -3.5588   -2.1320 N   0  0  0  0  0  0  0  0  0  0  0  0
    3.3775    1.2935   -5.2874 H   0  0  0  0  0  0  0  0  0  0  0  0
    2.1163    0.4735   -4.4028 H   0  0  0  0  0  0  0  0  0  0  0  0
    2.7490   -0.2405   -5.8977 H   0  0  0  0  0  0  0  0  0  0  0  0
    4.9944   -0.5113   -4.7366 H   0  0  0  0  0  0  0  0  0  0  0  0
    4.2898    0.2505   -3.3283 H   0  0  0  0  0  0  0  0  0  0  0  0
    3.3203   -2.4192   -4.5023 H   0  0  0  0  0  0  0  0  0  0  0  0
    2.3215   -0.8049   -2.3183 H   0  0  0  0  0  0  0  0  0  0  0  0
    1.7538   -2.3694   -2.8931 H   0  0  0  0  0  0  0  0  0  0  0  0
    2.6295   -2.9474   -0.6680 H   0  0  0  0  0  0  0  0  0  0  0  0
    4.1087   -0.6527   -0.6235 H   0  0  0  0  0  0  0  0  0  0  0  0
    4.8069   -2.0964    0.1330 H   0  0  0  0  0  0  0  0  0  0  0  0
    5.8646   -0.7948   -2.2304 H   0  0  0  0  0  0  0  0  0  0  0  0
    6.4127   -2.3072   -1.5124 H   0  0  0  0  0  0  0  0  0  0  0  0
    5.5171   -3.1190   -3.6622 H   0  0  0  0  0  0  0  0  0  0  0  0
    4.7167   -4.0727   -1.4988 H   0  0  0  0  0  0  0  0  0  0  0  0
    3.4917   -4.1781   -2.6496 H   0  0  0  0  0  0  0  0  0  0  0  0
  1  2  1  0
  1 10  1  0
  1 11  1  0
  1 12  1  0
  2  3  1  0
  2 13  1  0
  2 14  1  0
  3  8  1  0
  3  4  1  0
  3 15  1  6
  4  5  1  0
  4 16  1  0
  4 17  1  0
  5  9  1  0
  5  6  1  0
  5 18  1  1
  6  7  1  0
  6 19  1  0
  6 20  1  0
  7  8  1  0
  7 21  1  0
  7 22  1  0
  8  9  1  0
  8 23  1  6
  9 24  1  0
  9 25  1  0
M  CHG  1   9   1
M  END
>  <i_m_ct_stereo_status>  (122) 
1

>  <s_m_source_file>  (122) 
/var/tmp/pbs.5102103.sched01/tmprp2a6t7u/44c8wyhmqh.sdf

>  <i_m_source_file_index>  (122) 
3

>  <i_lp_mmshare_version>  (122) 
48012

>  <i_f3d_flags>  (122) 
0

>  <s_epik_input>  (122) 
W0NIM11bQ0gyXVtDQEhdKFtDSDJdW0NASF0xMilbQ0BIXShbTkhdMilbQ0gyXVtDSDJdMQ==

>  <s_epik_cmdline>  (122) 
J2VwaWtfcHl0aG9uJywgJy1waHQnLCAnMi4wJywgJy1waCcsICc3LjAnLCAnLXRuJywgJzgnLCAnLW1hJywgJzIwMCcsICctaW1hZScsICc8aW5maWxlLm1hZT4nLCAnLW9tYWUnLCAnPG91dGZpbGUubWFlPic=

>  <r_lp_tautomer_probability>  (122) 
1

>  <r_epik_Ionization_Penalty>  (122) 
1.73661e-05

>  <r_epik_Ionization_Penalty_Charging>  (122) 
1.73661e-05

>  <r_epik_Ionization_Penalty_Neutral>  (122) 
0

>  <r_epik_State_Penalty>  (122) 
-0

>  <r_epik_Charging_Adjusted_Penalty>  (122) 
1.73661e-05

>  <i_epik_Tot_Q>  (122) 
1

>  <i_epik_Tot_abs_Q>  (122) 
1

>  <s_lp_Force_Field>  (122) 
OPLS3e

>  <r_lp_Energy>  (122) 
25.1244

>  <b_lp_Chiralities_Consistent>  (122) 
1

>  <s_lp_Variant>  (122) 
25:0-1

>  <s_i_glide_gridfile>  (122) 
pfpi4k_grid

>  <i_i_glide_lignum>  (122) 
3

>  <i_i_glide_rotatable_bonds>  (122) 
1

>  <r_i_docking_score>  (122) 
-4.18357

>  <r_i_glide_ligand_efficiency>  (122) 
-0.464842

>  <r_i_glide_ligand_efficiency_sa>  (122) 
-0.966909

>  <r_i_glide_ligand_efficiency_ln>  (122) 
-1.3085

>  <r_i_glide_gscore>  (122) 
-4.18357

>  <r_i_glide_lipo>  (122) 
-0.67933

>  <r_i_glide_hbond>  (122) 
0

>  <r_i_glide_metal>  (122) 
-0

>  <r_i_glide_rewards>  (122) 
-2.25

>  <r_i_glide_evdw>  (122) 
-12.3659

>  <r_i_glide_ecoul>  (122) 
-3.99089

>  <r_i_glide_erotb>  (122) 
0

>  <r_i_glide_esite>  (122) 
-0.0373133

>  <r_i_glide_emodel>  (122) 
-22.3161

>  <r_i_glide_energy>  (122) 
-16.3568

>  <r_i_glide_einternal>  (122) 
0.378306

>  <r_i_glide_intrahb_reward>  (122) 
-0

>  <i_i_glide_confnum>  (122) 
1

>  <i_i_glide_posenum>  (122) 
30

>  <r_i_glide_eff_state_penalty>  (122) 
0

>  <ligand_id>  (122) 
25

>  <original_smiles>  (122) 
CCC1CC2CCC1N2

>  <smiles>  (122) 
[H]C([H])([H])C([H])([H])C1([H])C([H])([H])C2([H])C([H])([H])C([H])([H])C1([H])[N+]2([H])[H]

$$$$
25:0:2
     RDKit          3D

 25 26  0  0  1  0  0  0  0  0999 V2000
    3.7776    0.7529   -4.8814 C   0  0  0  0  0  0  0  0  0  0  0  0
    3.9325   -0.7589   -4.8992 C   0  0  0  0  0  0  0  0  0  0  0  0
    2.9342   -1.5338   -4.0207 C   0  0  2  0  0  0  0  0  0  0  0  0
    3.1329   -1.2780   -2.5327 C   0  0  0  0  0  0  0  0  0  0  0  0
    3.2365   -2.7156   -1.9619 C   0  0  2  0  0  0  0  0  0  0  0  0
    4.5676   -3.3474   -2.4132 C   0  0  0  0  0  0  0  0  0  0  0  0
    4.2702   -3.6966   -3.8755 C   0  0  0  0  0  0  0  0  0  0  0  0
    2.8931   -3.0744   -4.0693 C   0  0  1  0  0  0  0  0  0  0  0  0
    2.2747   -3.4373   -2.7946 N   0  0  0  0  0  0  0  0  0  0  0  0
    4.5342    1.1254   -5.5687 H   0  0  0  0  0  0  0  0  0  0  0  0
    3.9677    1.1831   -3.8970 H   0  0  0  0  0  0  0  0  0  0  0  0
    2.8003    1.0720   -5.2416 H   0  0  0  0  0  0  0  0  0  0  0  0
    3.8021   -1.0171   -5.9450 H   0  0  0  0  0  0  0  0  0  0  0  0
    4.9568   -0.9682   -4.6099 H   0  0  0  0  0  0  0  0  0  0  0  0
    1.9458   -1.2346   -4.3377 H   0  0  0  0  0  0  0  0  0  0  0  0
    4.0160   -0.6865   -2.2714 H   0  0  0  0  0  0  0  0  0  0  0  0
    2.2657   -0.7149   -2.2065 H   0  0  0  0  0  0  0  0  0  0  0  0
    3.0430   -2.7781   -0.8761 H   0  0  0  0  0  0  0  0  0  0  0  0
    5.4089   -2.6595   -2.2855 H   0  0  0  0  0  0  0  0  0  0  0  0
    4.7931   -4.2545   -1.8539 H   0  0  0  0  0  0  0  0  0  0  0  0
    4.9867   -3.3108   -4.5949 H   0  0  0  0  0  0  0  0  0  0  0  0
    4.2497   -4.7796   -4.0338 H   0  0  0  0  0  0  0  0  0  0  0  0
    2.2965   -3.4573   -4.8913 H   0  0  0  0  0  0  0  0  0  0  0  0
    2.3359   -4.4568   -2.6514 H   0  0  0  0  0  0  0  0  0  0  0  0
    1.3414   -3.0690   -2.6975 H   0  0  0  0  0  0  0  0  0  0  0  0
  1  2  1  0
  1 10  1  0
  1 11  1  0
  1 12  1  0
  2  3  1  0
  2 13  1  0
  2 14  1  0
  3  8  1  0
  3  4  1  0
  3 15  1  6
  4  5  1  0
  4 16  1  0
  4 17  1  0
  5  9  1  0
  5  6  1  0
  5 18  1  1
  6  7  1  0
  6 19  1  0
  6 20  1  0
  7  8  1  0
  7 21  1  0
  7 22  1  0
  8  9  1  0
  8 23  1  6
  9 24  1  0
  9 25  1  0
M  CHG  1   9   1
M  END
>  <i_m_ct_stereo_status>  (123) 
1

>  <s_m_source_file>  (123) 
/var/tmp/pbs.5102103.sched01/tmprp2a6t7u/44c8wyhmqh.sdf

>  <i_m_source_file_index>  (123) 
3

>  <i_lp_mmshare_version>  (123) 
48012

>  <i_f3d_flags>  (123) 
0

>  <s_epik_input>  (123) 
W0NIM11bQ0gyXVtDQEhdKFtDSDJdW0NASF0xMilbQ0BIXShbTkhdMilbQ0gyXVtDSDJdMQ==

>  <s_epik_cmdline>  (123) 
J2VwaWtfcHl0aG9uJywgJy1waHQnLCAnMi4wJywgJy1waCcsICc3LjAnLCAnLXRuJywgJzgnLCAnLW1hJywgJzIwMCcsICctaW1hZScsICc8aW5maWxlLm1hZT4nLCAnLW9tYWUnLCAnPG91dGZpbGUubWFlPic=

>  <r_lp_tautomer_probability>  (123) 
1

>  <r_epik_Ionization_Penalty>  (123) 
1.73661e-05

>  <r_epik_Ionization_Penalty_Charging>  (123) 
1.73661e-05

>  <r_epik_Ionization_Penalty_Neutral>  (123) 
0

>  <r_epik_State_Penalty>  (123) 
-0

>  <r_epik_Charging_Adjusted_Penalty>  (123) 
1.73661e-05

>  <i_epik_Tot_Q>  (123) 
1

>  <i_epik_Tot_abs_Q>  (123) 
1

>  <s_lp_Force_Field>  (123) 
OPLS3e

>  <r_lp_Energy>  (123) 
25.1244

>  <b_lp_Chiralities_Consistent>  (123) 
1

>  <s_lp_Variant>  (123) 
25:0-1

>  <s_i_glide_gridfile>  (123) 
pfpi4k_grid

>  <i_i_glide_lignum>  (123) 
3

>  <i_i_glide_rotatable_bonds>  (123) 
1

>  <r_i_docking_score>  (123) 
-3.86065

>  <r_i_glide_ligand_efficiency>  (123) 
-0.428961

>  <r_i_glide_ligand_efficiency_sa>  (123) 
-0.892275

>  <r_i_glide_ligand_efficiency_ln>  (123) 
-1.2075

>  <r_i_glide_gscore>  (123) 
-3.86065

>  <r_i_glide_lipo>  (123) 
-0.259824

>  <r_i_glide_hbond>  (123) 
0

>  <r_i_glide_metal>  (123) 
-0

>  <r_i_glide_rewards>  (123) 
-2.25

>  <r_i_glide_evdw>  (123) 
-10.0151

>  <r_i_glide_ecoul>  (123) 
-5.66715

>  <r_i_glide_erotb>  (123) 
0

>  <r_i_glide_esite>  (123) 
0

>  <r_i_glide_emodel>  (123) 
-20.7523

>  <r_i_glide_energy>  (123) 
-15.6822

>  <r_i_glide_einternal>  (123) 
0.67379

>  <r_i_glide_intrahb_reward>  (123) 
-0

>  <i_i_glide_confnum>  (123) 
1

>  <i_i_glide_posenum>  (123) 
29

>  <r_i_glide_eff_state_penalty>  (123) 
0

>  <ligand_id>  (123) 
25

>  <original_smiles>  (123) 
CCC1CC2CCC1N2

>  <smiles>  (123) 
[H]C([H])([H])C([H])([H])C1([H])C([H])([H])C2([H])C([H])([H])C([H])([H])C1([H])[N+]2([H])[H]

$$$$
26:0:0
     RDKit          3D

 44 47  0  0  1  0  0  0  0  0999 V2000
    1.7667   -5.0051    5.1225 C   0  0  0  0  0  0  0  0  0  0  0  0
    2.0568   -4.4882    3.4157 S   0  0  0  0  0  0  0  0  0  0  0  0
    2.7622   -5.9311    2.5238 C   0  0  1  0  0  0  0  0  0  0  0  0
    3.1838   -5.6196    0.7478 S   0  0  0  0  0  0  0  0  0  0  0  0
    4.1029   -6.6959    0.3178 O   0  0  0  0  0  0  0  0  0  0  0  0
    1.9065   -5.4323    0.0654 O   0  0  0  0  0  0  0  0  0  0  0  0
    4.0971   -4.0791    0.7252 C   0  0  0  0  0  0  0  0  0  0  0  0
    3.4390   -2.8600    0.9909 C   0  0  0  0  0  0  0  0  0  0  0  0
    4.1831   -1.6718    1.1313 C   0  0  0  0  0  0  0  0  0  0  0  0
    5.5780   -1.6887    0.9280 C   0  0  0  0  0  0  0  0  0  0  0  0
    6.2354   -2.9023    0.6071 C   0  0  0  0  0  0  0  0  0  0  0  0
    7.6883   -2.9177    0.3675 N   0  0  0  0  0  0  0  0  0  0  0  0
    8.2239   -1.8563    0.0811 O   0  0  0  0  0  0  0  0  0  0  0  0
    8.2839   -3.9886    0.4417 O   0  0  0  0  0  0  0  0  0  0  0  0
    5.4879   -4.0976    0.5088 C   0  0  0  0  0  0  0  0  0  0  0  0
    3.9264   -6.5267    3.1968 N   0  0  0  0  0  0  0  0  0  0  0  0
    5.1171   -6.0549    3.6030 C   0  0  0  0  0  0  0  0  0  0  0  0
    5.4866   -4.8843    3.5372 O   0  0  0  0  0  0  0  0  0  0  0  0
    5.9996   -7.1527    4.2444 C   0  0  1  0  0  0  0  0  0  0  0  0
    6.3348   -6.8139    5.6986 C   0  0  0  0  0  0  0  0  0  0  0  0
    5.0194   -8.6808    4.1562 S   0  0  0  0  0  0  0  0  0  0  0  0
    3.6794   -7.8469    3.4392 C   0  0  0  0  0  0  0  0  0  0  0  0
    2.4307   -8.1617    3.0706 C   0  0  0  0  0  0  0  0  0  0  0  0
    1.3990   -9.5527    3.1258 S   0  0  0  0  0  0  0  0  0  0  0  0
   -0.0266   -8.6093    2.5653 C   0  0  1  0  0  0  0  0  0  0  0  0
   -1.1690   -8.6275    3.5635 C   0  0  0  0  0  0  0  0  0  0  0  0
    0.5074   -7.1883    2.2667 C   0  0  0  0  0  0  0  0  0  0  0  0
   -0.2147   -6.2727    1.8537 O   0  0  0  0  0  0  0  0  0  0  0  0
    1.8242   -7.0551    2.5565 N   0  0  0  0  0  0  0  0  0  0  0  0
    1.4149   -4.1111    5.6426 H   0  0  0  0  0  0  0  0  0  0  0  0
    2.6872   -5.3401    5.5945 H   0  0  0  0  0  0  0  0  0  0  0  0
    0.9927   -5.7675    5.1508 H   0  0  0  0  0  0  0  0  0  0  0  0
    2.3728   -2.8262    1.1479 H   0  0  0  0  0  0  0  0  0  0  0  0
    3.6766   -0.7516    1.4143 H   0  0  0  0  0  0  0  0  0  0  0  0
    6.1314   -0.7727    1.0299 H   0  0  0  0  0  0  0  0  0  0  0  0
    5.9955   -5.0315    0.2891 H   0  0  0  0  0  0  0  0  0  0  0  0
    6.9128   -7.2439    3.6511 H   0  0  0  0  0  0  0  0  0  0  0  0
    6.8640   -5.8644    5.7703 H   0  0  0  0  0  0  0  0  0  0  0  0
    6.9614   -7.5864    6.1465 H   0  0  0  0  0  0  0  0  0  0  0  0
    5.4331   -6.7358    6.2992 H   0  0  0  0  0  0  0  0  0  0  0  0
   -0.4467   -9.0236    1.6622 H   0  0  0  0  0  0  0  0  0  0  0  0
   -2.0200   -8.0402    3.2138 H   0  0  0  0  0  0  0  0  0  0  0  0
   -0.8530   -8.2681    4.5368 H   0  0  0  0  0  0  0  0  0  0  0  0
   -1.5063   -9.6529    3.6634 H   0  0  0  0  0  0  0  0  0  0  0  0
  1  2  1  0
  1 30  1  0
  1 31  1  0
  1 32  1  0
  3  2  1  1
  3 29  1  0
  3  4  1  0
  3 16  1  0
  4  5  2  0
  4  6  2  0
  4  7  1  0
  7 15  1  0
  7  8  2  0
  8  9  1  0
  8 33  1  0
  9 10  2  0
  9 34  1  0
 10 11  1  0
 10 35  1  0
 11 12  1  0
 11 15  2  0
 12 13  2  0
 12 14  1  0
 15 36  1  0
 16 22  1  0
 16 17  1  0
 17 18  2  0
 17 19  1  0
 19 20  1  0
 19 21  1  0
 19 37  1  6
 20 38  1  0
 20 39  1  0
 20 40  1  0
 21 22  1  0
 22 23  2  0
 23 29  1  0
 23 24  1  0
 24 25  1  0
 25 26  1  0
 25 27  1  0
 25 41  1  6
 26 42  1  0
 26 43  1  0
 26 44  1  0
 27 28  2  0
 27 29  1  0
M  CHG  2  12   1  14  -1
M  END
>  <i_m_ct_stereo_status>  (124) 
1

>  <s_m_source_file>  (124) 
/var/tmp/pbs.5102103.sched01/tmprp2a6t7u/44c8wyhmqh.sdf

>  <i_m_source_file_index>  (124) 
4

>  <i_lp_mmshare_version>  (124) 
48012

>  <i_f3d_flags>  (124) 
0

>  <s_epik_input>  (124) 
Tz1DMVtDQEBIXShbQ0gzXSlTQyhOMTIpPUMzTihDKD1PKVtDQEBIXShTMylbQ0gzXSlDMihTW0NIM10pUyg9TykoPU8pYzRbY0hdW2NIXVtjSF1jKFtOK10oPU8pW08tXSlbY0hdNA==

>  <s_epik_cmdline>  (124) 
J2VwaWtfcHl0aG9uJywgJy1waHQnLCAnMi4wJywgJy1waCcsICc3LjAnLCAnLXRuJywgJzgnLCAnLW1hJywgJzIwMCcsICctaW1hZScsICc8aW5maWxlLm1hZT4nLCAnLW9tYWUnLCAnPG91dGZpbGUubWFlPic=

>  <r_lp_tautomer_probability>  (124) 
1

>  <r_epik_Ionization_Penalty>  (124) 
0

>  <r_epik_Ionization_Penalty_Charging>  (124) 
0

>  <r_epik_Ionization_Penalty_Neutral>  (124) 
0

>  <r_epik_State_Penalty>  (124) 
-0

>  <r_epik_Charging_Adjusted_Penalty>  (124) 
0

>  <i_epik_Tot_Q>  (124) 
0

>  <i_epik_Tot_abs_Q>  (124) 
2

>  <s_lp_Force_Field>  (124) 
OPLS3e

>  <r_lp_Energy>  (124) 
11.4308

>  <b_lp_Chiralities_Consistent>  (124) 
1

>  <s_lp_Variant>  (124) 
26:0-1

>  <s_i_glide_gridfile>  (124) 
pfpi4k_grid

>  <i_i_glide_lignum>  (124) 
4

>  <i_i_glide_rotatable_bonds>  (124) 
4

>  <r_i_docking_score>  (124) 
-3.60374

>  <r_i_glide_ligand_efficiency>  (124) 
-0.124267

>  <r_i_glide_ligand_efficiency_sa>  (124) 
-0.381787

>  <r_i_glide_ligand_efficiency_ln>  (124) 
-0.825165

>  <r_i_glide_gscore>  (124) 
-3.60374

>  <r_i_glide_lipo>  (124) 
-0.281924

>  <r_i_glide_hbond>  (124) 
-0.28183

>  <r_i_glide_metal>  (124) 
-0

>  <r_i_glide_rewards>  (124) 
-0.451485

>  <r_i_glide_evdw>  (124) 
-28.6171

>  <r_i_glide_ecoul>  (124) 
-7.4709

>  <r_i_glide_erotb>  (124) 
0.180395

>  <r_i_glide_esite>  (124) 
-0.217404

>  <r_i_glide_emodel>  (124) 
-43.3796

>  <r_i_glide_energy>  (124) 
-36.088

>  <r_i_glide_einternal>  (124) 
1.15119

>  <r_i_glide_intrahb_reward>  (124) 
-0

>  <i_i_glide_confnum>  (124) 
2

>  <i_i_glide_posenum>  (124) 
28

>  <r_i_glide_eff_state_penalty>  (124) 
0

>  <ligand_id>  (124) 
26

>  <original_smiles>  (124) 
CSC1(S(=O)(=O)c2cccc([N+](=O)[O-])c2)N2C(=O)C(C)SC2=C2SC(C)C(=O)N21

>  <smiles>  (124) 
[H]c1c([H])c([N+](=O)[O-])c([H])c(S(=O)(=O)C2(SC([H])([H])[H])N3C(=O)C([H])(C([H])([H])[H])SC3=C3SC([H])(C([H])([H])[H])C(=O)N32)c1[H]

$$$$
26:0:1
     RDKit          3D

 44 47  0  0  1  0  0  0  0  0999 V2000
    2.7786   -5.3673    5.1729 C   0  0  0  0  0  0  0  0  0  0  0  0
    2.8201   -4.6974    3.4985 S   0  0  0  0  0  0  0  0  0  0  0  0
    3.2291   -6.1079    2.4008 C   0  0  1  0  0  0  0  0  0  0  0  0
    3.3737   -5.6658    0.6102 S   0  0  0  0  0  0  0  0  0  0  0  0
    4.2272   -6.6867   -0.0108 O   0  0  0  0  0  0  0  0  0  0  0  0
    2.0208   -5.4285    0.0849 O   0  0  0  0  0  0  0  0  0  0  0  0
    4.2687   -4.1134    0.5828 C   0  0  0  0  0  0  0  0  0  0  0  0
    3.6159   -2.9094    0.9077 C   0  0  0  0  0  0  0  0  0  0  0  0
    4.3508   -1.7125    1.0051 C   0  0  0  0  0  0  0  0  0  0  0  0
    5.7389   -1.7206    0.7569 C   0  0  0  0  0  0  0  0  0  0  0  0
    6.4027   -2.9241    0.4145 C   0  0  0  0  0  0  0  0  0  0  0  0
    7.8608   -2.9348    0.1729 N   0  0  0  0  0  0  0  0  0  0  0  0
    8.4282   -1.8550    0.0797 O   0  0  0  0  0  0  0  0  0  0  0  0
    8.4332   -4.0187    0.0778 O   0  0  0  0  0  0  0  0  0  0  0  0
    5.6540   -4.1173    0.3197 C   0  0  0  0  0  0  0  0  0  0  0  0
    4.4591   -6.8271    2.8119 N   0  0  0  0  0  0  0  0  0  0  0  0
    5.7281   -6.4526    3.0482 C   0  0  0  0  0  0  0  0  0  0  0  0
    6.1466   -5.2944    3.0312 O   0  0  0  0  0  0  0  0  0  0  0  0
    6.6418   -7.6387    3.4111 C   0  0  1  0  0  0  0  0  0  0  0  0
    7.2460   -7.4592    4.8088 C   0  0  0  0  0  0  0  0  0  0  0  0
    5.5817   -9.1135    3.3446 S   0  0  0  0  0  0  0  0  0  0  0  0
    4.1734   -8.1593    2.9671 C   0  0  0  0  0  0  0  0  0  0  0  0
    2.8740   -8.3686    2.8034 C   0  0  0  0  0  0  0  0  0  0  0  0
    1.7882   -9.7243    2.8902 S   0  0  0  0  0  0  0  0  0  0  0  0
    0.3392   -8.6639    2.6403 C   0  0  1  0  0  0  0  0  0  0  0  0
   -0.6069   -8.7498    3.8375 C   0  0  0  0  0  0  0  0  0  0  0  0
    0.8866   -7.2392    2.4392 C   0  0  0  0  0  0  0  0  0  0  0  0
    0.1394   -6.2702    2.2647 O   0  0  0  0  0  0  0  0  0  0  0  0
    2.2289   -7.1907    2.5199 N   0  0  0  0  0  0  0  0  0  0  0  0
    2.5697   -4.5297    5.8418 H   0  0  0  0  0  0  0  0  0  0  0  0
    3.7409   -5.7980    5.4459 H   0  0  0  0  0  0  0  0  0  0  0  0
    1.9802   -6.1027    5.2622 H   0  0  0  0  0  0  0  0  0  0  0  0
    2.5591   -2.9079    1.1326 H   0  0  0  0  0  0  0  0  0  0  0  0
    3.8517   -0.7934    1.2874 H   0  0  0  0  0  0  0  0  0  0  0  0
    6.2871   -0.7981    0.8507 H   0  0  0  0  0  0  0  0  0  0  0  0
    6.1517   -5.0500    0.0912 H   0  0  0  0  0  0  0  0  0  0  0  0
    7.4338   -7.7052    2.6616 H   0  0  0  0  0  0  0  0  0  0  0  0
    7.8349   -6.5437    4.8699 H   0  0  0  0  0  0  0  0  0  0  0  0
    7.8964   -8.2951    5.0668 H   0  0  0  0  0  0  0  0  0  0  0  0
    6.4677   -7.4004    5.5673 H   0  0  0  0  0  0  0  0  0  0  0  0
   -0.1850   -8.9570    1.7316 H   0  0  0  0  0  0  0  0  0  0  0  0
   -1.4645   -8.0895    3.7286 H   0  0  0  0  0  0  0  0  0  0  0  0
   -0.1017   -8.4957    4.7680 H   0  0  0  0  0  0  0  0  0  0  0  0
   -0.9836   -9.7632    3.9338 H   0  0  0  0  0  0  0  0  0  0  0  0
  1  2  1  0
  1 30  1  0
  1 31  1  0
  1 32  1  0
  3  2  1  1
  3 29  1  0
  3  4  1  0
  3 16  1  0
  4  5  2  0
  4  6  2  0
  4  7  1  0
  7 15  1  0
  7  8  2  0
  8  9  1  0
  8 33  1  0
  9 10  2  0
  9 34  1  0
 10 11  1  0
 10 35  1  0
 11 12  1  0
 11 15  2  0
 12 13  2  0
 12 14  1  0
 15 36  1  0
 16 22  1  0
 16 17  1  0
 17 18  2  0
 17 19  1  0
 19 20  1  0
 19 21  1  0
 19 37  1  6
 20 38  1  0
 20 39  1  0
 20 40  1  0
 21 22  1  0
 22 23  2  0
 23 29  1  0
 23 24  1  0
 24 25  1  0
 25 26  1  0
 25 27  1  0
 25 41  1  6
 26 42  1  0
 26 43  1  0
 26 44  1  0
 27 28  2  0
 27 29  1  0
M  CHG  2  12   1  14  -1
M  END
>  <i_m_ct_stereo_status>  (125) 
1

>  <s_m_source_file>  (125) 
/var/tmp/pbs.5102103.sched01/tmprp2a6t7u/44c8wyhmqh.sdf

>  <i_m_source_file_index>  (125) 
4

>  <i_lp_mmshare_version>  (125) 
48012

>  <i_f3d_flags>  (125) 
0

>  <s_epik_input>  (125) 
Tz1DMVtDQEBIXShbQ0gzXSlTQyhOMTIpPUMzTihDKD1PKVtDQEBIXShTMylbQ0gzXSlDMihTW0NIM10pUyg9TykoPU8pYzRbY0hdW2NIXVtjSF1jKFtOK10oPU8pW08tXSlbY0hdNA==

>  <s_epik_cmdline>  (125) 
J2VwaWtfcHl0aG9uJywgJy1waHQnLCAnMi4wJywgJy1waCcsICc3LjAnLCAnLXRuJywgJzgnLCAnLW1hJywgJzIwMCcsICctaW1hZScsICc8aW5maWxlLm1hZT4nLCAnLW9tYWUnLCAnPG91dGZpbGUubWFlPic=

>  <r_lp_tautomer_probability>  (125) 
1

>  <r_epik_Ionization_Penalty>  (125) 
0

>  <r_epik_Ionization_Penalty_Charging>  (125) 
0

>  <r_epik_Ionization_Penalty_Neutral>  (125) 
0

>  <r_epik_State_Penalty>  (125) 
-0

>  <r_epik_Charging_Adjusted_Penalty>  (125) 
0

>  <i_epik_Tot_Q>  (125) 
0

>  <i_epik_Tot_abs_Q>  (125) 
2

>  <s_lp_Force_Field>  (125) 
OPLS3e

>  <r_lp_Energy>  (125) 
11.4308

>  <b_lp_Chiralities_Consistent>  (125) 
1

>  <s_lp_Variant>  (125) 
26:0-1

>  <s_i_glide_gridfile>  (125) 
pfpi4k_grid

>  <i_i_glide_lignum>  (125) 
4

>  <i_i_glide_rotatable_bonds>  (125) 
4

>  <r_i_docking_score>  (125) 
-3.31685

>  <r_i_glide_ligand_efficiency>  (125) 
-0.114374

>  <r_i_glide_ligand_efficiency_sa>  (125) 
-0.351393

>  <r_i_glide_ligand_efficiency_ln>  (125) 
-0.759473

>  <r_i_glide_gscore>  (125) 
-3.31685

>  <r_i_glide_lipo>  (125) 
-0.336436

>  <r_i_glide_hbond>  (125) 
-0.204211

>  <r_i_glide_metal>  (125) 
-0

>  <r_i_glide_rewards>  (125) 
-0.435684

>  <r_i_glide_evdw>  (125) 
-30.2055

>  <r_i_glide_ecoul>  (125) 
-5.47333

>  <r_i_glide_erotb>  (125) 
0.180395

>  <r_i_glide_esite>  (125) 
-0.189634

>  <r_i_glide_emodel>  (125) 
-43.1716

>  <r_i_glide_energy>  (125) 
-35.6789

>  <r_i_glide_einternal>  (125) 
0.362458

>  <r_i_glide_intrahb_reward>  (125) 
-0

>  <i_i_glide_confnum>  (125) 
2

>  <i_i_glide_posenum>  (125) 
30

>  <r_i_glide_eff_state_penalty>  (125) 
0

>  <ligand_id>  (125) 
26

>  <original_smiles>  (125) 
CSC1(S(=O)(=O)c2cccc([N+](=O)[O-])c2)N2C(=O)C(C)SC2=C2SC(C)C(=O)N21

>  <smiles>  (125) 
[H]c1c([H])c([N+](=O)[O-])c([H])c(S(=O)(=O)C2(SC([H])([H])[H])N3C(=O)C([H])(C([H])([H])[H])SC3=C3SC([H])(C([H])([H])[H])C(=O)N32)c1[H]

$$$$
26:0:2
     RDKit          3D

 44 47  0  0  1  0  0  0  0  0999 V2000
    2.0265   -4.3263    5.1454 C   0  0  0  0  0  0  0  0  0  0  0  0
    2.0636   -4.2212    3.3462 S   0  0  0  0  0  0  0  0  0  0  0  0
    2.7648   -5.7957    2.7303 C   0  0  1  0  0  0  0  0  0  0  0  0
    2.9449   -5.9203    0.8995 S   0  0  0  0  0  0  0  0  0  0  0  0
    3.8265   -7.0500    0.6139 O   0  0  0  0  0  0  0  0  0  0  0  0
    1.5844   -5.8710    0.3296 O   0  0  0  0  0  0  0  0  0  0  0  0
    3.7803   -4.4111    0.4192 C   0  0  0  0  0  0  0  0  0  0  0  0
    3.0757   -3.1944    0.3567 C   0  0  0  0  0  0  0  0  0  0  0  0
    3.7583   -1.9910    0.0968 C   0  0  0  0  0  0  0  0  0  0  0  0
    5.1543   -2.0110   -0.1134 C   0  0  0  0  0  0  0  0  0  0  0  0
    5.8719   -3.2319   -0.0572 C   0  0  0  0  0  0  0  0  0  0  0  0
    7.3342   -3.2501   -0.2429 N   0  0  0  0  0  0  0  0  0  0  0  0
    7.8545   -2.2547   -0.7253 O   0  0  0  0  0  0  0  0  0  0  0  0
    7.9569   -4.2518    0.0901 O   0  0  0  0  0  0  0  0  0  0  0  0
    5.1748   -4.4359    0.1937 C   0  0  0  0  0  0  0  0  0  0  0  0
    4.0666   -6.1330    3.3672 N   0  0  0  0  0  0  0  0  0  0  0  0
    5.2329   -5.4917    3.5184 C   0  0  0  0  0  0  0  0  0  0  0  0
    5.4517   -4.3278    3.1814 O   0  0  0  0  0  0  0  0  0  0  0  0
    6.3060   -6.3383    4.2317 C   0  0  1  0  0  0  0  0  0  0  0  0
    6.7856   -5.6389    5.5091 C   0  0  0  0  0  0  0  0  0  0  0  0
    5.4858   -7.9125    4.6219 S   0  0  0  0  0  0  0  0  0  0  0  0
    3.9771   -7.3738    3.9416 C   0  0  0  0  0  0  0  0  0  0  0  0
    2.7438   -7.8403    3.8422 C   0  0  0  0  0  0  0  0  0  0  0  0
    1.8876   -9.2715    4.3437 S   0  0  0  0  0  0  0  0  0  0  0  0
    0.3013   -8.6155    3.7570 C   0  0  1  0  0  0  0  0  0  0  0  0
   -0.6841   -8.4676    4.9262 C   0  0  0  0  0  0  0  0  0  0  0  0
    0.6326   -7.2544    3.1180 C   0  0  0  0  0  0  0  0  0  0  0  0
   -0.2517   -6.5374    2.6454 O   0  0  0  0  0  0  0  0  0  0  0  0
    1.9386   -6.9425    3.1854 N   0  0  0  0  0  0  0  0  0  0  0  0
    1.6479   -3.3707    5.5108 H   0  0  0  0  0  0  0  0  0  0  0  0
    3.0256   -4.4786    5.5452 H   0  0  0  0  0  0  0  0  0  0  0  0
    1.3518   -5.1212    5.4524 H   0  0  0  0  0  0  0  0  0  0  0  0
    2.0142   -3.1616    0.5576 H   0  0  0  0  0  0  0  0  0  0  0  0
    3.2094   -1.0555    0.0691 H   0  0  0  0  0  0  0  0  0  0  0  0
    5.6632   -1.0791   -0.2953 H   0  0  0  0  0  0  0  0  0  0  0  0
    5.7154   -5.3706    0.2759 H   0  0  0  0  0  0  0  0  0  0  0  0
    7.1397   -6.4953    3.5413 H   0  0  0  0  0  0  0  0  0  0  0  0
    7.2119   -4.6596    5.2949 H   0  0  0  0  0  0  0  0  0  0  0  0
    7.5427   -6.2328    6.0197 H   0  0  0  0  0  0  0  0  0  0  0  0
    5.9573   -5.4850    6.1995 H   0  0  0  0  0  0  0  0  0  0  0  0
   -0.1177   -9.2682    2.9878 H   0  0  0  0  0  0  0  0  0  0  0  0
   -1.6366   -8.0432    4.5981 H   0  0  0  0  0  0  0  0  0  0  0  0
   -0.2736   -7.8365    5.7179 H   0  0  0  0  0  0  0  0  0  0  0  0
   -0.8896   -9.4346    5.3848 H   0  0  0  0  0  0  0  0  0  0  0  0
  1  2  1  0
  1 30  1  0
  1 31  1  0
  1 32  1  0
  3  2  1  6
  3 29  1  0
  3  4  1  0
  3 16  1  0
  4  5  2  0
  4  6  2  0
  4  7  1  0
  7 15  1  0
  7  8  2  0
  8  9  1  0
  8 33  1  0
  9 10  2  0
  9 34  1  0
 10 11  1  0
 10 35  1  0
 11 12  1  0
 11 15  2  0
 12 13  2  0
 12 14  1  0
 15 36  1  0
 16 22  1  0
 16 17  1  0
 17 18  2  0
 17 19  1  0
 19 20  1  0
 19 21  1  0
 19 37  1  6
 20 38  1  0
 20 39  1  0
 20 40  1  0
 21 22  1  0
 22 23  2  0
 23 29  1  0
 23 24  1  0
 24 25  1  0
 25 26  1  0
 25 27  1  0
 25 41  1  6
 26 42  1  0
 26 43  1  0
 26 44  1  0
 27 28  2  0
 27 29  1  0
M  CHG  2  12   1  14  -1
M  END
>  <i_m_ct_stereo_status>  (126) 
1

>  <s_m_source_file>  (126) 
/var/tmp/pbs.5102103.sched01/tmprp2a6t7u/44c8wyhmqh.sdf

>  <i_m_source_file_index>  (126) 
4

>  <i_lp_mmshare_version>  (126) 
48012

>  <i_f3d_flags>  (126) 
0

>  <s_epik_input>  (126) 
Tz1DMVtDQEBIXShbQ0gzXSlTQyhOMTIpPUMzTihDKD1PKVtDQEBIXShTMylbQ0gzXSlDMihTW0NIM10pUyg9TykoPU8pYzRbY0hdW2NIXVtjSF1jKFtOK10oPU8pW08tXSlbY0hdNA==

>  <s_epik_cmdline>  (126) 
J2VwaWtfcHl0aG9uJywgJy1waHQnLCAnMi4wJywgJy1waCcsICc3LjAnLCAnLXRuJywgJzgnLCAnLW1hJywgJzIwMCcsICctaW1hZScsICc8aW5maWxlLm1hZT4nLCAnLW9tYWUnLCAnPG91dGZpbGUubWFlPic=

>  <r_lp_tautomer_probability>  (126) 
1

>  <r_epik_Ionization_Penalty>  (126) 
0

>  <r_epik_Ionization_Penalty_Charging>  (126) 
0

>  <r_epik_Ionization_Penalty_Neutral>  (126) 
0

>  <r_epik_State_Penalty>  (126) 
-0

>  <r_epik_Charging_Adjusted_Penalty>  (126) 
0

>  <i_epik_Tot_Q>  (126) 
0

>  <i_epik_Tot_abs_Q>  (126) 
2

>  <s_lp_Force_Field>  (126) 
OPLS3e

>  <r_lp_Energy>  (126) 
11.4308

>  <b_lp_Chiralities_Consistent>  (126) 
1

>  <s_lp_Variant>  (126) 
26:0-1

>  <s_i_glide_gridfile>  (126) 
pfpi4k_grid

>  <i_i_glide_lignum>  (126) 
4

>  <i_i_glide_rotatable_bonds>  (126) 
4

>  <r_i_docking_score>  (126) 
-3.26423

>  <r_i_glide_ligand_efficiency>  (126) 
-0.11256

>  <r_i_glide_ligand_efficiency_sa>  (126) 
-0.345819

>  <r_i_glide_ligand_efficiency_ln>  (126) 
-0.747425

>  <r_i_glide_gscore>  (126) 
-3.26423

>  <r_i_glide_lipo>  (126) 
-0.135087

>  <r_i_glide_hbond>  (126) 
-0.16

>  <r_i_glide_metal>  (126) 
-0

>  <r_i_glide_rewards>  (126) 
-0.389535

>  <r_i_glide_evdw>  (126) 
-26.9467

>  <r_i_glide_ecoul>  (126) 
-7.9058

>  <r_i_glide_erotb>  (126) 
0.180395

>  <r_i_glide_esite>  (126) 
-0.226797

>  <r_i_glide_emodel>  (126) 
-42.1927

>  <r_i_glide_energy>  (126) 
-34.8525

>  <r_i_glide_einternal>  (126) 
0.495821

>  <r_i_glide_intrahb_reward>  (126) 
-0

>  <i_i_glide_confnum>  (126) 
2

>  <i_i_glide_posenum>  (126) 
34

>  <r_i_glide_eff_state_penalty>  (126) 
0

>  <ligand_id>  (126) 
26

>  <original_smiles>  (126) 
CSC1(S(=O)(=O)c2cccc([N+](=O)[O-])c2)N2C(=O)C(C)SC2=C2SC(C)C(=O)N21

>  <smiles>  (126) 
[H]c1c([H])c([N+](=O)[O-])c([H])c(S(=O)(=O)C2(SC([H])([H])[H])N3C(=O)C([H])(C([H])([H])[H])SC3=C3SC([H])(C([H])([H])[H])C(=O)N32)c1[H]

$$$$
27:0:0
     RDKit          3D

 37 40  0  0  1  0  0  0  0  0999 V2000
    0.1332  -10.4932    2.4663 C   0  0  0  0  0  0  0  0  0  0  0  0
    0.3065   -9.6068    3.6867 C   0  0  0  0  0  0  0  0  0  0  0  0
    0.7018  -10.1571    4.7606 N   0  0  0  0  0  0  0  0  0  0  0  0
    0.7931   -9.3869    5.9086 C   0  0  0  0  0  0  0  0  0  0  0  0
    1.1317   -9.8559    7.1272 N   0  0  0  0  0  0  0  0  0  0  0  0
    1.0325   -8.8110    8.0447 C   0  0  0  0  0  0  0  0  0  0  0  0
    1.2480   -8.8037    9.4124 C   0  0  0  0  0  0  0  0  0  0  0  0
    1.0463   -7.5855   10.0860 C   0  0  0  0  0  0  0  0  0  0  0  0
    0.6283   -6.4257    9.3900 C   0  0  0  0  0  0  0  0  0  0  0  0
    0.3946   -6.4433    7.9922 C   0  0  0  0  0  0  0  0  0  0  0  0
    0.6134   -7.6520    7.3342 C   0  0  0  0  0  0  0  0  0  0  0  0
    0.4964   -8.0725    5.9914 N   0  0  0  0  0  0  0  0  0  0  0  0
    0.0754   -7.2119    4.8755 C   0  0  1  0  0  0  0  0  0  0  0  0
    0.9053   -5.9474    4.8076 C   0  0  0  0  0  0  0  0  0  0  0  0
    0.4632   -4.6458    4.8490 C   0  0  0  0  0  0  0  0  0  0  0  0
    1.5391   -3.7122    4.7669 C   0  0  0  0  0  0  0  0  0  0  0  0
    1.2499   -1.8399    4.8011 Br  0  0  0  0  0  0  0  0  0  0  0  0
    2.7857   -4.2555    4.6763 C   0  0  0  0  0  0  0  0  0  0  0  0
    2.6705   -5.9921    4.7282 S   0  0  0  0  0  0  0  0  0  0  0  0
   -0.0241   -8.0771    3.5369 C   0  0  1  0  0  0  0  0  0  0  0  0
    0.7121   -7.4598    2.3166 C   0  0  0  0  0  0  0  0  0  0  0  0
    1.9345   -7.9058    1.9974 N   0  0  0  0  0  0  0  0  0  0  0  0
    0.1687   -6.5586    1.6771 O   0  0  0  0  0  0  0  0  0  0  0  0
   -0.8770  -10.4341    2.0678 H   0  0  0  0  0  0  0  0  0  0  0  0
    0.3467  -11.5187    2.7458 H   0  0  0  0  0  0  0  0  0  0  0  0
    0.8518  -10.2439    1.6860 H   0  0  0  0  0  0  0  0  0  0  0  0
    1.5742   -9.7023    9.9248 H   0  0  0  0  0  0  0  0  0  0  0  0
    1.2375   -7.5402   11.1546 H   0  0  0  0  0  0  0  0  0  0  0  0
    0.5036   -5.5114    9.9474 H   0  0  0  0  0  0  0  0  0  0  0  0
    0.0751   -5.5455    7.4682 H   0  0  0  0  0  0  0  0  0  0  0  0
   -0.9436   -6.9054    5.1174 H   0  0  0  0  0  0  0  0  0  0  0  0
   -0.5664   -4.3156    4.9294 H   0  0  0  0  0  0  0  0  0  0  0  0
    3.7417   -3.7486    4.6018 H   0  0  0  0  0  0  0  0  0  0  0  0
   -1.0813   -8.0396    3.2479 H   0  0  0  0  0  0  0  0  0  0  0  0
    2.3241   -8.6695    2.5292 H   0  0  0  0  0  0  0  0  0  0  0  0
    2.4397   -7.5473    1.2021 H   0  0  0  0  0  0  0  0  0  0  0  0
    1.3365  -10.8603    7.3105 H   0  0  0  0  0  0  0  0  0  0  0  0
  1  2  1  0
  1 24  1  0
  1 25  1  0
  1 26  1  0
  2 20  1  0
  2  3  2  0
  3  4  1  0
  4 12  1  0
  4  5  2  0
  5  6  1  0
  5 37  1  0
  6 11  2  0
  6  7  1  0
  7  8  2  0
  7 27  1  0
  8  9  1  0
  8 28  1  0
  9 10  2  0
  9 29  1  0
 10 11  1  0
 10 30  1  0
 11 12  1  0
 12 13  1  0
 13 14  1  0
 13 20  1  0
 13 31  1  1
 14 19  1  0
 14 15  2  0
 15 16  1  0
 15 32  1  0
 16 17  1  0
 16 18  2  0
 18 19  1  0
 18 33  1  0
 20 21  1  0
 20 34  1  6
 21 22  1  0
 21 23  2  0
 22 35  1  0
 22 36  1  0
M  CHG  1   5   1
M  END
>  <i_m_ct_stereo_status>  (127) 
1

>  <s_m_source_file>  (127) 
/var/tmp/pbs.5102103.sched01/tmprp2a6t7u/44c8wyhmqh.sdf

>  <i_m_source_file_index>  (127) 
5

>  <i_lp_mmshare_version>  (127) 
48012

>  <i_f3d_flags>  (127) 
0

>  <s_epik_input>  (127) 
czFbY0hdYyhCcilbY0hdYzFbQ0BASF0oW0NASF0oQyg9TjIpW0NIM10pQyg9TylbTkgyXSluKGMyMyljNGMobjMpW2NIXVtjSF1bY0hdW2NIXTQ=

>  <s_epik_cmdline>  (127) 
J2VwaWtfcHl0aG9uJywgJy1waHQnLCAnMi4wJywgJy1waCcsICc3LjAnLCAnLXRuJywgJzgnLCAnLW1hJywgJzIwMCcsICctaW1hZScsICc8aW5maWxlLm1hZT4nLCAnLW9tYWUnLCAnPG91dGZpbGUubWFlPic=

>  <r_lp_tautomer_probability>  (127) 
0.999601

>  <r_epik_Ionization_Penalty>  (127) 
0.0425075

>  <r_epik_Ionization_Penalty_Charging>  (127) 
0.0425023

>  <r_epik_Ionization_Penalty_Neutral>  (127) 
5.14142e-06

>  <r_epik_State_Penalty>  (127) 
0.0359047

>  <r_epik_Charging_Adjusted_Penalty>  (127) 
0.078407

>  <i_epik_Tot_Q>  (127) 
1

>  <i_epik_Tot_abs_Q>  (127) 
1

>  <s_epik_Chemistry_Notes>  (127) 
This compound has an imine and may undergo hydrolysis.

>  <s_lp_Force_Field>  (127) 
OPLS3e

>  <r_lp_Energy>  (127) 
20.5756

>  <b_lp_Chiralities_Consistent>  (127) 
1

>  <s_lp_Variant>  (127) 
27:0-1

>  <s_i_glide_gridfile>  (127) 
pfpi4k_grid

>  <i_i_glide_lignum>  (127) 
5

>  <i_i_glide_rotatable_bonds>  (127) 
2

>  <r_i_docking_score>  (127) 
-3.70293

>  <r_i_glide_ligand_efficiency>  (127) 
-0.160997

>  <r_i_glide_ligand_efficiency_sa>  (127) 
-0.457854

>  <r_i_glide_ligand_efficiency_ln>  (127) 
-0.895402

>  <r_i_glide_gscore>  (127) 
-3.70293

>  <r_i_glide_lipo>  (127) 
-0.211829

>  <r_i_glide_hbond>  (127) 
-0.380494

>  <r_i_glide_metal>  (127) 
-0

>  <r_i_glide_rewards>  (127) 
-0.748101

>  <r_i_glide_evdw>  (127) 
-19.5425

>  <r_i_glide_ecoul>  (127) 
-8.1821

>  <r_i_glide_erotb>  (127) 
0.128041

>  <r_i_glide_esite>  (127) 
-0.286107

>  <r_i_glide_emodel>  (127) 
-35.6319

>  <r_i_glide_energy>  (127) 
-27.7246

>  <r_i_glide_einternal>  (127) 
2.10999

>  <r_i_glide_intrahb_reward>  (127) 
-0

>  <i_i_glide_confnum>  (127) 
3

>  <i_i_glide_posenum>  (127) 
1

>  <r_i_glide_eff_state_penalty>  (127) 
0

>  <ligand_id>  (127) 
27

>  <original_smiles>  (127) 
CC1=Nc2nc3ccccc3n2C(c2cc(Br)cs2)C1C(N)=O

>  <smiles>  (127) 
[H]c1sc(C2([H])n3c([n+]([H])c4c([H])c([H])c([H])c([H])c43)N=C(C([H])([H])[H])C2([H])C(=O)N([H])[H])c([H])c1Br

$$$$
27:0:1
     RDKit          3D

 37 40  0  0  1  0  0  0  0  0999 V2000
   -2.4374    3.7174    2.7928 C   0  0  0  0  0  0  0  0  0  0  0  0
   -1.8841    3.1474    4.0867 C   0  0  0  0  0  0  0  0  0  0  0  0
   -2.5837    3.3374    5.1322 N   0  0  0  0  0  0  0  0  0  0  0  0
   -2.0992    2.9330    6.3684 C   0  0  0  0  0  0  0  0  0  0  0  0
   -2.7305    3.1118    7.5526 N   0  0  0  0  0  0  0  0  0  0  0  0
   -1.8979    2.6340    8.5655 C   0  0  0  0  0  0  0  0  0  0  0  0
   -2.0847    2.5937    9.9401 C   0  0  0  0  0  0  0  0  0  0  0  0
   -1.0374    2.0457   10.7039 C   0  0  0  0  0  0  0  0  0  0  0  0
    0.1410    1.5632   10.0998 C   0  0  0  0  0  0  0  0  0  0  0  0
    0.3238    1.6080    8.6993 C   0  0  0  0  0  0  0  0  0  0  0  0
   -0.7162    2.1471    7.9460 C   0  0  0  0  0  0  0  0  0  0  0  0
   -0.9128    2.3419    6.5642 N   0  0  0  0  0  0  0  0  0  0  0  0
    0.0503    1.9708    5.5000 C   0  0  1  0  0  0  0  0  0  0  0  0
    0.4922    0.5303    5.6511 C   0  0  0  0  0  0  0  0  0  0  0  0
    1.7737    0.0334    5.6995 C   0  0  0  0  0  0  0  0  0  0  0  0
    1.8057   -1.3857    5.7997 C   0  0  0  0  0  0  0  0  0  0  0  0
    3.4302   -2.3728    5.9016 Br  0  0  0  0  0  0  0  0  0  0  0  0
    0.5772   -1.9785    5.8354 C   0  0  0  0  0  0  0  0  0  0  0  0
   -0.6734   -0.7650    5.8569 S   0  0  0  0  0  0  0  0  0  0  0  0
   -0.4883    2.4461    4.0629 C   0  0  1  0  0  0  0  0  0  0  0  0
   -0.4455    1.3886    2.9240 C   0  0  0  0  0  0  0  0  0  0  0  0
   -0.0059    1.7437    1.7061 N   0  0  0  0  0  0  0  0  0  0  0  0
   -0.8445    0.2449    3.1217 O   0  0  0  0  0  0  0  0  0  0  0  0
   -1.7487    4.4378    2.3527 H   0  0  0  0  0  0  0  0  0  0  0  0
   -3.3772    4.2452    2.9639 H   0  0  0  0  0  0  0  0  0  0  0  0
   -2.6577    2.9210    2.0887 H   0  0  0  0  0  0  0  0  0  0  0  0
   -2.9830    2.9512   10.4176 H   0  0  0  0  0  0  0  0  0  0  0  0
   -1.1609    1.9888   11.7749 H   0  0  0  0  0  0  0  0  0  0  0  0
    0.9098    1.1505   10.7295 H   0  0  0  0  0  0  0  0  0  0  0  0
    1.2311    1.2349    8.2508 H   0  0  0  0  0  0  0  0  0  0  0  0
    0.9217    2.5871    5.7106 H   0  0  0  0  0  0  0  0  0  0  0  0
    2.6723    0.6275    5.6531 H   0  0  0  0  0  0  0  0  0  0  0  0
    0.3547   -3.0326    5.8683 H   0  0  0  0  0  0  0  0  0  0  0  0
    0.2016    3.2277    3.7514 H   0  0  0  0  0  0  0  0  0  0  0  0
    0.1897    2.7307    1.4627 H   0  0  0  0  0  0  0  0  0  0  0  0
   -0.0466    1.0685    0.9582 H   0  0  0  0  0  0  0  0  0  0  0  0
   -3.6430    3.5374    7.6631 H   0  0  0  0  0  0  0  0  0  0  0  0
  1  2  1  0
  1 24  1  0
  1 25  1  0
  1 26  1  0
  2 20  1  0
  2  3  2  0
  3  4  1  0
  4 12  1  0
  4  5  2  0
  5  6  1  0
  5 37  1  0
  6 11  2  0
  6  7  1  0
  7  8  2  0
  7 27  1  0
  8  9  1  0
  8 28  1  0
  9 10  2  0
  9 29  1  0
 10 11  1  0
 10 30  1  0
 11 12  1  0
 12 13  1  0
 13 14  1  0
 13 20  1  0
 13 31  1  1
 14 19  1  0
 14 15  2  0
 15 16  1  0
 15 32  1  0
 16 17  1  0
 16 18  2  0
 18 19  1  0
 18 33  1  0
 20 21  1  0
 20 34  1  6
 21 22  1  0
 21 23  2  0
 22 35  1  0
 22 36  1  0
M  CHG  1   5   1
M  END
>  <i_m_ct_stereo_status>  (128) 
1

>  <s_m_source_file>  (128) 
/var/tmp/pbs.5102103.sched01/tmprp2a6t7u/44c8wyhmqh.sdf

>  <i_m_source_file_index>  (128) 
5

>  <i_lp_mmshare_version>  (128) 
48012

>  <i_f3d_flags>  (128) 
0

>  <s_epik_input>  (128) 
czFbY0hdYyhCcilbY0hdYzFbQ0BASF0oW0NASF0oQyg9TjIpW0NIM10pQyg9TylbTkgyXSluKGMyMyljNGMobjMpW2NIXVtjSF1bY0hdW2NIXTQ=

>  <s_epik_cmdline>  (128) 
J2VwaWtfcHl0aG9uJywgJy1waHQnLCAnMi4wJywgJy1waCcsICc3LjAnLCAnLXRuJywgJzgnLCAnLW1hJywgJzIwMCcsICctaW1hZScsICc8aW5maWxlLm1hZT4nLCAnLW9tYWUnLCAnPG91dGZpbGUubWFlPic=

>  <r_lp_tautomer_probability>  (128) 
0.999601

>  <r_epik_Ionization_Penalty>  (128) 
0.0425075

>  <r_epik_Ionization_Penalty_Charging>  (128) 
0.0425023

>  <r_epik_Ionization_Penalty_Neutral>  (128) 
5.14142e-06

>  <r_epik_State_Penalty>  (128) 
0.0359047

>  <r_epik_Charging_Adjusted_Penalty>  (128) 
0.078407

>  <i_epik_Tot_Q>  (128) 
1

>  <i_epik_Tot_abs_Q>  (128) 
1

>  <s_epik_Chemistry_Notes>  (128) 
This compound has an imine and may undergo hydrolysis.

>  <s_lp_Force_Field>  (128) 
OPLS3e

>  <r_lp_Energy>  (128) 
20.5756

>  <b_lp_Chiralities_Consistent>  (128) 
1

>  <s_lp_Variant>  (128) 
27:0-1

>  <s_i_glide_gridfile>  (128) 
pfpi4k_grid

>  <i_i_glide_lignum>  (128) 
5

>  <i_i_glide_rotatable_bonds>  (128) 
2

>  <r_i_docking_score>  (128) 
-3.28338

>  <r_i_glide_ligand_efficiency>  (128) 
-0.142756

>  <r_i_glide_ligand_efficiency_sa>  (128) 
-0.405978

>  <r_i_glide_ligand_efficiency_ln>  (128) 
-0.793951

>  <r_i_glide_gscore>  (128) 
-3.28338

>  <r_i_glide_lipo>  (128) 
0

>  <r_i_glide_hbond>  (128) 
-0.250338

>  <r_i_glide_metal>  (128) 
-0

>  <r_i_glide_rewards>  (128) 
-0.876562

>  <r_i_glide_evdw>  (128) 
-19.0201

>  <r_i_glide_ecoul>  (128) 
-7.76134

>  <r_i_glide_erotb>  (128) 
0.128041

>  <r_i_glide_esite>  (128) 
-0.169317

>  <r_i_glide_emodel>  (128) 
-33.7583

>  <r_i_glide_energy>  (128) 
-26.7814

>  <r_i_glide_einternal>  (128) 
0.914779

>  <r_i_glide_intrahb_reward>  (128) 
-0

>  <i_i_glide_confnum>  (128) 
1

>  <i_i_glide_posenum>  (128) 
2

>  <r_i_glide_eff_state_penalty>  (128) 
0

>  <ligand_id>  (128) 
27

>  <original_smiles>  (128) 
CC1=Nc2nc3ccccc3n2C(c2cc(Br)cs2)C1C(N)=O

>  <smiles>  (128) 
[H]c1sc(C2([H])n3c([n+]([H])c4c([H])c([H])c([H])c([H])c43)N=C(C([H])([H])[H])C2([H])C(=O)N([H])[H])c([H])c1Br

$$$$
27:0:2
     RDKit          3D

 37 40  0  0  1  0  0  0  0  0999 V2000
   -2.4454    3.6621    2.7738 C   0  0  0  0  0  0  0  0  0  0  0  0
   -1.8888    3.1171    4.0835 C   0  0  0  0  0  0  0  0  0  0  0  0
   -2.5961    3.3023    5.1283 N   0  0  0  0  0  0  0  0  0  0  0  0
   -2.0983    2.9110    6.3706 C   0  0  0  0  0  0  0  0  0  0  0  0
   -2.7191    3.0731    7.5600 N   0  0  0  0  0  0  0  0  0  0  0  0
   -1.8565    2.6105    8.5571 C   0  0  0  0  0  0  0  0  0  0  0  0
   -2.0391    2.5724    9.9290 C   0  0  0  0  0  0  0  0  0  0  0  0
   -0.9776    2.0468   10.6927 C   0  0  0  0  0  0  0  0  0  0  0  0
    0.2135    1.5909   10.0802 C   0  0  0  0  0  0  0  0  0  0  0  0
    0.3858    1.6354    8.6726 C   0  0  0  0  0  0  0  0  0  0  0  0
   -0.6681    2.1468    7.9283 C   0  0  0  0  0  0  0  0  0  0  0  0
   -0.8999    2.3373    6.5504 N   0  0  0  0  0  0  0  0  0  0  0  0
    0.0725    1.9868    5.4982 C   0  0  1  0  0  0  0  0  0  0  0  0
    0.5630    0.5734    5.6294 C   0  0  0  0  0  0  0  0  0  0  0  0
   -0.1845   -0.5495    5.8742 C   0  0  0  0  0  0  0  0  0  0  0  0
    0.6102   -1.7289    5.8832 C   0  0  0  0  0  0  0  0  0  0  0  0
   -0.1528   -3.4531    6.1357 Br  0  0  0  0  0  0  0  0  0  0  0  0
    1.9457   -1.5359    5.6706 C   0  0  0  0  0  0  0  0  0  0  0  0
    2.2567    0.1620    5.4237 S   0  0  0  0  0  0  0  0  0  0  0  0
   -0.4737    2.4421    4.0641 C   0  0  1  0  0  0  0  0  0  0  0  0
   -0.4265    1.3915    2.9184 C   0  0  0  0  0  0  0  0  0  0  0  0
    0.0318    1.7441    1.7131 N   0  0  0  0  0  0  0  0  0  0  0  0
   -0.8451    0.2533    3.0957 O   0  0  0  0  0  0  0  0  0  0  0  0
   -1.7687    4.3948    2.3406 H   0  0  0  0  0  0  0  0  0  0  0  0
   -3.3918    4.1607    2.9531 H   0  0  0  0  0  0  0  0  0  0  0  0
   -2.6561    2.8537    2.0774 H   0  0  0  0  0  0  0  0  0  0  0  0
   -2.9453    2.9123   10.4191 H   0  0  0  0  0  0  0  0  0  0  0  0
   -1.0973    1.9897   11.7733 H   0  0  0  0  0  0  0  0  0  0  0  0
    1.0010    1.1963   10.7122 H   0  0  0  0  0  0  0  0  0  0  0  0
    1.3010    1.2840    8.2163 H   0  0  0  0  0  0  0  0  0  0  0  0
    0.9302    2.6321    5.7023 H   0  0  0  0  0  0  0  0  0  0  0  0
   -1.2599   -0.5739    5.9815 H   0  0  0  0  0  0  0  0  0  0  0  0
    2.7353   -2.2758    5.6254 H   0  0  0  0  0  0  0  0  0  0  0  0
    0.2026    3.2391    3.7491 H   0  0  0  0  0  0  0  0  0  0  0  0
    0.2084    2.7262    1.4663 H   0  0  0  0  0  0  0  0  0  0  0  0
   -0.0110    1.0553    0.9617 H   0  0  0  0  0  0  0  0  0  0  0  0
   -3.6350    3.4758    7.6793 H   0  0  0  0  0  0  0  0  0  0  0  0
  1  2  1  0
  1 24  1  0
  1 25  1  0
  1 26  1  0
  2 20  1  0
  2  3  2  0
  3  4  1  0
  4 12  1  0
  4  5  2  0
  5  6  1  0
  5 37  1  0
  6 11  2  0
  6  7  1  0
  7  8  2  0
  7 27  1  0
  8  9  1  0
  8 28  1  0
  9 10  2  0
  9 29  1  0
 10 11  1  0
 10 30  1  0
 11 12  1  0
 12 13  1  0
 13 14  1  0
 13 20  1  0
 13 31  1  1
 14 19  1  0
 14 15  2  0
 15 16  1  0
 15 32  1  0
 16 17  1  0
 16 18  2  0
 18 19  1  0
 18 33  1  0
 20 21  1  0
 20 34  1  6
 21 22  1  0
 21 23  2  0
 22 35  1  0
 22 36  1  0
M  CHG  1   5   1
M  END
>  <i_m_ct_stereo_status>  (129) 
1

>  <s_m_source_file>  (129) 
/var/tmp/pbs.5102103.sched01/tmprp2a6t7u/44c8wyhmqh.sdf

>  <i_m_source_file_index>  (129) 
5

>  <i_lp_mmshare_version>  (129) 
48012

>  <i_f3d_flags>  (129) 
0

>  <s_epik_input>  (129) 
czFbY0hdYyhCcilbY0hdYzFbQ0BASF0oW0NASF0oQyg9TjIpW0NIM10pQyg9TylbTkgyXSluKGMyMyljNGMobjMpW2NIXVtjSF1bY0hdW2NIXTQ=

>  <s_epik_cmdline>  (129) 
J2VwaWtfcHl0aG9uJywgJy1waHQnLCAnMi4wJywgJy1waCcsICc3LjAnLCAnLXRuJywgJzgnLCAnLW1hJywgJzIwMCcsICctaW1hZScsICc8aW5maWxlLm1hZT4nLCAnLW9tYWUnLCAnPG91dGZpbGUubWFlPic=

>  <r_lp_tautomer_probability>  (129) 
0.999601

>  <r_epik_Ionization_Penalty>  (129) 
0.0425075

>  <r_epik_Ionization_Penalty_Charging>  (129) 
0.0425023

>  <r_epik_Ionization_Penalty_Neutral>  (129) 
5.14142e-06

>  <r_epik_State_Penalty>  (129) 
0.0359047

>  <r_epik_Charging_Adjusted_Penalty>  (129) 
0.078407

>  <i_epik_Tot_Q>  (129) 
1

>  <i_epik_Tot_abs_Q>  (129) 
1

>  <s_epik_Chemistry_Notes>  (129) 
This compound has an imine and may undergo hydrolysis.

>  <s_lp_Force_Field>  (129) 
OPLS3e

>  <r_lp_Energy>  (129) 
20.5756

>  <b_lp_Chiralities_Consistent>  (129) 
1

>  <s_lp_Variant>  (129) 
27:0-1

>  <s_i_glide_gridfile>  (129) 
pfpi4k_grid

>  <i_i_glide_lignum>  (129) 
5

>  <i_i_glide_rotatable_bonds>  (129) 
2

>  <r_i_docking_score>  (129) 
-3.23265

>  <r_i_glide_ligand_efficiency>  (129) 
-0.14055

>  <r_i_glide_ligand_efficiency_sa>  (129) 
-0.399706

>  <r_i_glide_ligand_efficiency_ln>  (129) 
-0.781685

>  <r_i_glide_gscore>  (129) 
-3.23265

>  <r_i_glide_lipo>  (129) 
0

>  <r_i_glide_hbond>  (129) 
-0.243232

>  <r_i_glide_metal>  (129) 
-0

>  <r_i_glide_rewards>  (129) 
-0.87749

>  <r_i_glide_evdw>  (129) 
-19.7186

>  <r_i_glide_ecoul>  (129) 
-7.23183

>  <r_i_glide_erotb>  (129) 
0.128041

>  <r_i_glide_esite>  (129) 
-0.169265

>  <r_i_glide_emodel>  (129) 
-33.7749

>  <r_i_glide_energy>  (129) 
-26.9505

>  <r_i_glide_einternal>  (129) 
1.05755

>  <r_i_glide_intrahb_reward>  (129) 
-0

>  <i_i_glide_confnum>  (129) 
1

>  <i_i_glide_posenum>  (129) 
10

>  <r_i_glide_eff_state_penalty>  (129) 
0

>  <ligand_id>  (129) 
27

>  <original_smiles>  (129) 
CC1=Nc2nc3ccccc3n2C(c2cc(Br)cs2)C1C(N)=O

>  <smiles>  (129) 
[H]c1sc(C2([H])n3c([n+]([H])c4c([H])c([H])c([H])c([H])c43)N=C(C([H])([H])[H])C2([H])C(=O)N([H])[H])c([H])c1Br

$$$$
27:1:0
     RDKit          3D

 36 39  0  0  1  0  0  0  0  0999 V2000
    0.7774   -9.8605    2.6190 C   0  0  0  0  0  0  0  0  0  0  0  0
    1.8055   -8.8407    2.1555 C   0  0  0  0  0  0  0  0  0  0  0  0
    1.3961   -7.6589    1.9652 N   0  0  0  0  0  0  0  0  0  0  0  0
    2.1694   -6.6751    1.4544 C   0  0  0  0  0  0  0  0  0  0  0  0
    1.7327   -5.4553    1.1848 N   0  0  0  0  0  0  0  0  0  0  0  0
    2.8405   -4.8208    0.6643 C   0  0  0  0  0  0  0  0  0  0  0  0
    2.9996   -3.4938    0.2036 C   0  0  0  0  0  0  0  0  0  0  0  0
    4.2284   -3.0510   -0.3213 C   0  0  0  0  0  0  0  0  0  0  0  0
    5.3228   -3.9348   -0.3872 C   0  0  0  0  0  0  0  0  0  0  0  0
    5.1873   -5.2611    0.0825 C   0  0  0  0  0  0  0  0  0  0  0  0
    3.9531   -5.6969    0.6083 C   0  0  0  0  0  0  0  0  0  0  0  0
    3.4760   -6.8949    1.1587 N   0  0  0  0  0  0  0  0  0  0  0  0
    4.1908   -8.1491    1.3482 C   0  0  1  0  0  0  0  0  0  0  0  0
    5.4890   -7.9248    2.0836 C   0  0  0  0  0  0  0  0  0  0  0  0
    5.7124   -7.1679    3.2090 C   0  0  0  0  0  0  0  0  0  0  0  0
    7.0764   -7.2017    3.6094 C   0  0  0  0  0  0  0  0  0  0  0  0
    7.7127   -6.2709    5.1352 Br  0  0  0  0  0  0  0  0  0  0  0  0
    7.9009   -7.9512    2.8176 C   0  0  0  0  0  0  0  0  0  0  0  0
    6.9776   -8.6600    1.5277 S   0  0  0  0  0  0  0  0  0  0  0  0
    3.2488   -9.3030    1.8632 C   0  0  1  0  0  0  0  0  0  0  0  0
    3.7998  -10.0718    3.0800 C   0  0  0  0  0  0  0  0  0  0  0  0
    4.2244  -11.3194    2.8800 N   0  0  0  0  0  0  0  0  0  0  0  0
    3.8534   -9.5416    4.1886 O   0  0  0  0  0  0  0  0  0  0  0  0
    0.6804  -10.6602    1.8908 H   0  0  0  0  0  0  0  0  0  0  0  0
   -0.2054   -9.3936    2.6737 H   0  0  0  0  0  0  0  0  0  0  0  0
    1.0133  -10.2564    3.6049 H   0  0  0  0  0  0  0  0  0  0  0  0
    2.1661   -2.8111    0.2472 H   0  0  0  0  0  0  0  0  0  0  0  0
    4.3119   -2.0344   -0.6741 H   0  0  0  0  0  0  0  0  0  0  0  0
    6.2644   -3.5998   -0.7967 H   0  0  0  0  0  0  0  0  0  0  0  0
    6.0186   -5.9450    0.0416 H   0  0  0  0  0  0  0  0  0  0  0  0
    4.4653   -8.4556    0.3376 H   0  0  0  0  0  0  0  0  0  0  0  0
    4.9531   -6.6140    3.7491 H   0  0  0  0  0  0  0  0  0  0  0  0
    8.9669   -8.1168    2.9088 H   0  0  0  0  0  0  0  0  0  0  0  0
    3.1499  -10.0178    1.0449 H   0  0  0  0  0  0  0  0  0  0  0  0
    4.1931  -11.7247    1.9276 H   0  0  0  0  0  0  0  0  0  0  0  0
    4.5931  -11.8483    3.6496 H   0  0  0  0  0  0  0  0  0  0  0  0
  1  2  1  0
  1 24  1  0
  1 25  1  0
  1 26  1  0
  2 20  1  0
  2  3  2  0
  3  4  1  0
  4 12  1  0
  4  5  2  0
  5  6  1  0
  6 11  2  0
  6  7  1  0
  7  8  2  0
  7 27  1  0
  8  9  1  0
  8 28  1  0
  9 10  2  0
  9 29  1  0
 10 11  1  0
 10 30  1  0
 11 12  1  0
 12 13  1  0
 13 14  1  0
 13 20  1  0
 13 31  1  6
 14 19  1  0
 14 15  2  0
 15 16  1  0
 15 32  1  0
 16 17  1  0
 16 18  2  0
 18 19  1  0
 18 33  1  0
 20 21  1  0
 20 34  1  6
 21 22  1  0
 21 23  2  0
 22 35  1  0
 22 36  1  0
M  END
>  <i_m_ct_stereo_status>  (130) 
1

>  <s_m_source_file>  (130) 
/var/tmp/pbs.5102103.sched01/tmprp2a6t7u/44c8wyhmqh.sdf

>  <i_m_source_file_index>  (130) 
6

>  <i_lp_mmshare_version>  (130) 
48012

>  <i_f3d_flags>  (130) 
0

>  <s_epik_input>  (130) 
czFbY0hdYyhCcilbY0hdYzFbQ0BASF0oW0NASF0oQyg9TjIpW0NIM10pQyg9TylbTkgyXSluKGMyMyljNGMobjMpW2NIXVtjSF1bY0hdW2NIXTQ=

>  <s_epik_cmdline>  (130) 
J2VwaWtfcHl0aG9uJywgJy1waHQnLCAnMi4wJywgJy1waCcsICc3LjAnLCAnLXRuJywgJzgnLCAnLW1hJywgJzIwMCcsICctaW1hZScsICc8aW5maWxlLm1hZT4nLCAnLW9tYWUnLCAnPG91dGZpbGUubWFlPic=

>  <r_lp_tautomer_probability>  (130) 
0.999601

>  <r_epik_Ionization_Penalty>  (130) 
1.58225

>  <r_epik_Ionization_Penalty_Charging>  (130) 
0

>  <r_epik_Ionization_Penalty_Neutral>  (130) 
1.58225

>  <r_epik_State_Penalty>  (130) 
1.67887

>  <r_epik_Charging_Adjusted_Penalty>  (130) 
1.67887

>  <i_epik_Tot_Q>  (130) 
0

>  <i_epik_Tot_abs_Q>  (130) 
0

>  <s_epik_Chemistry_Notes>  (130) 
This compound has an imine and may undergo hydrolysis.

>  <s_lp_Force_Field>  (130) 
OPLS3e

>  <r_lp_Energy>  (130) 
20.8214

>  <b_lp_Chiralities_Consistent>  (130) 
1

>  <s_lp_Variant>  (130) 
27:0-2

>  <s_i_glide_gridfile>  (130) 
pfpi4k_grid

>  <i_i_glide_lignum>  (130) 
6

>  <i_i_glide_rotatable_bonds>  (130) 
2

>  <r_i_docking_score>  (130) 
-3.84609

>  <r_i_glide_ligand_efficiency>  (130) 
-0.167221

>  <r_i_glide_ligand_efficiency_sa>  (130) 
-0.475556

>  <r_i_glide_ligand_efficiency_ln>  (130) 
-0.93002

>  <r_i_glide_gscore>  (130) 
-3.84609

>  <r_i_glide_lipo>  (130) 
-0.435577

>  <r_i_glide_hbond>  (130) 
-0.26363

>  <r_i_glide_metal>  (130) 
-0

>  <r_i_glide_rewards>  (130) 
-0.844489

>  <r_i_glide_evdw>  (130) 
-22.7041

>  <r_i_glide_ecoul>  (130) 
-7.6225

>  <r_i_glide_erotb>  (130) 
0.128637

>  <r_i_glide_esite>  (130) 
-0.152451

>  <r_i_glide_emodel>  (130) 
-39.3512

>  <r_i_glide_energy>  (130) 
-30.3266

>  <r_i_glide_einternal>  (130) 
0.377693

>  <r_i_glide_intrahb_reward>  (130) 
-0

>  <i_i_glide_confnum>  (130) 
4

>  <i_i_glide_posenum>  (130) 
39

>  <r_i_glide_eff_state_penalty>  (130) 
0

>  <ligand_id>  (130) 
27

>  <original_smiles>  (130) 
CC1=Nc2nc3ccccc3n2C(c2cc(Br)cs2)C1C(N)=O

>  <smiles>  (130) 
[H]c1sc(C2([H])n3c(nc4c([H])c([H])c([H])c([H])c43)N=C(C([H])([H])[H])C2([H])C(=O)N([H])[H])c([H])c1Br

$$$$
27:1:1
     RDKit          3D

 36 39  0  0  1  0  0  0  0  0999 V2000
   -1.6839   -9.0069    2.9706 C   0  0  0  0  0  0  0  0  0  0  0  0
   -0.2626   -8.5494    2.6946 C   0  0  0  0  0  0  0  0  0  0  0  0
   -0.1134   -7.4411    2.0935 N   0  0  0  0  0  0  0  0  0  0  0  0
    1.0931   -6.9781    1.6819 C   0  0  0  0  0  0  0  0  0  0  0  0
    1.2574   -5.8616    0.9855 N   0  0  0  0  0  0  0  0  0  0  0  0
    2.6229   -5.8007    0.8010 C   0  0  0  0  0  0  0  0  0  0  0  0
    3.3994   -4.8248    0.1436 C   0  0  0  0  0  0  0  0  0  0  0  0
    4.7962   -4.9766    0.0339 C   0  0  0  0  0  0  0  0  0  0  0  0
    5.4272   -6.1035    0.5912 C   0  0  0  0  0  0  0  0  0  0  0  0
    4.6701   -7.0869    1.2619 C   0  0  0  0  0  0  0  0  0  0  0  0
    3.2695   -6.9284    1.3702 C   0  0  0  0  0  0  0  0  0  0  0  0
    2.2372   -7.6611    1.9606 N   0  0  0  0  0  0  0  0  0  0  0  0
    2.3287   -8.9155    2.7018 C   0  0  1  0  0  0  0  0  0  0  0  0
    3.3678   -8.8363    3.8004 C   0  0  0  0  0  0  0  0  0  0  0  0
    3.6713   -7.7681    4.6133 C   0  0  0  0  0  0  0  0  0  0  0  0
    4.7164   -8.0662    5.5269 C   0  0  0  0  0  0  0  0  0  0  0  0
    5.3656   -6.7962    6.7821 Br  0  0  0  0  0  0  0  0  0  0  0  0
    5.2204   -9.3337    5.4377 C   0  0  0  0  0  0  0  0  0  0  0  0
    4.3992  -10.2106    4.1777 S   0  0  0  0  0  0  0  0  0  0  0  0
    0.9086   -9.4805    3.0899 C   0  0  1  0  0  0  0  0  0  0  0  0
    0.7890   -9.8817    4.5799 C   0  0  0  0  0  0  0  0  0  0  0  0
    1.0115  -11.1665    4.8814 N   0  0  0  0  0  0  0  0  0  0  0  0
    0.5277   -9.0485    5.4474 O   0  0  0  0  0  0  0  0  0  0  0  0
   -1.8713   -9.9690    2.4976 H   0  0  0  0  0  0  0  0  0  0  0  0
   -2.3894   -8.2954    2.5445 H   0  0  0  0  0  0  0  0  0  0  0  0
   -1.8864   -9.0564    4.0390 H   0  0  0  0  0  0  0  0  0  0  0  0
    2.9038   -3.9740   -0.2984 H   0  0  0  0  0  0  0  0  0  0  0  0
    5.3669   -4.2338   -0.4980 H   0  0  0  0  0  0  0  0  0  0  0  0
    6.4968   -6.2225    0.4925 H   0  0  0  0  0  0  0  0  0  0  0  0
    5.1496   -7.9552    1.6891 H   0  0  0  0  0  0  0  0  0  0  0  0
    2.7224   -9.6295    1.9799 H   0  0  0  0  0  0  0  0  0  0  0  0
    3.1933   -6.7994    4.5735 H   0  0  0  0  0  0  0  0  0  0  0  0
    6.0035   -9.7836    6.0283 H   0  0  0  0  0  0  0  0  0  0  0  0
    0.7590  -10.3932    2.5079 H   0  0  0  0  0  0  0  0  0  0  0  0
    1.2527  -11.8377    4.1659 H   0  0  0  0  0  0  0  0  0  0  0  0
    0.9835  -11.4627    5.8561 H   0  0  0  0  0  0  0  0  0  0  0  0
  1  2  1  0
  1 24  1  0
  1 25  1  0
  1 26  1  0
  2 20  1  0
  2  3  2  0
  3  4  1  0
  4 12  1  0
  4  5  2  0
  5  6  1  0
  6 11  2  0
  6  7  1  0
  7  8  2  0
  7 27  1  0
  8  9  1  0
  8 28  1  0
  9 10  2  0
  9 29  1  0
 10 11  1  0
 10 30  1  0
 11 12  1  0
 12 13  1  0
 13 14  1  0
 13 20  1  0
 13 31  1  6
 14 19  1  0
 14 15  2  0
 15 16  1  0
 15 32  1  0
 16 17  1  0
 16 18  2  0
 18 19  1  0
 18 33  1  0
 20 21  1  0
 20 34  1  6
 21 22  1  0
 21 23  2  0
 22 35  1  0
 22 36  1  0
M  END
>  <i_m_ct_stereo_status>  (131) 
1

>  <s_m_source_file>  (131) 
/var/tmp/pbs.5102103.sched01/tmprp2a6t7u/44c8wyhmqh.sdf

>  <i_m_source_file_index>  (131) 
6

>  <i_lp_mmshare_version>  (131) 
48012

>  <i_f3d_flags>  (131) 
0

>  <s_epik_input>  (131) 
czFbY0hdYyhCcilbY0hdYzFbQ0BASF0oW0NASF0oQyg9TjIpW0NIM10pQyg9TylbTkgyXSluKGMyMyljNGMobjMpW2NIXVtjSF1bY0hdW2NIXTQ=

>  <s_epik_cmdline>  (131) 
J2VwaWtfcHl0aG9uJywgJy1waHQnLCAnMi4wJywgJy1waCcsICc3LjAnLCAnLXRuJywgJzgnLCAnLW1hJywgJzIwMCcsICctaW1hZScsICc8aW5maWxlLm1hZT4nLCAnLW9tYWUnLCAnPG91dGZpbGUubWFlPic=

>  <r_lp_tautomer_probability>  (131) 
0.999601

>  <r_epik_Ionization_Penalty>  (131) 
1.58225

>  <r_epik_Ionization_Penalty_Charging>  (131) 
0

>  <r_epik_Ionization_Penalty_Neutral>  (131) 
1.58225

>  <r_epik_State_Penalty>  (131) 
1.67887

>  <r_epik_Charging_Adjusted_Penalty>  (131) 
1.67887

>  <i_epik_Tot_Q>  (131) 
0

>  <i_epik_Tot_abs_Q>  (131) 
0

>  <s_epik_Chemistry_Notes>  (131) 
This compound has an imine and may undergo hydrolysis.

>  <s_lp_Force_Field>  (131) 
OPLS3e

>  <r_lp_Energy>  (131) 
20.8214

>  <b_lp_Chiralities_Consistent>  (131) 
1

>  <s_lp_Variant>  (131) 
27:0-2

>  <s_i_glide_gridfile>  (131) 
pfpi4k_grid

>  <i_i_glide_lignum>  (131) 
6

>  <i_i_glide_rotatable_bonds>  (131) 
2

>  <r_i_docking_score>  (131) 
-3.77175

>  <r_i_glide_ligand_efficiency>  (131) 
-0.163989

>  <r_i_glide_ligand_efficiency_sa>  (131) 
-0.466363

>  <r_i_glide_ligand_efficiency_ln>  (131) 
-0.912043

>  <r_i_glide_gscore>  (131) 
-3.77175

>  <r_i_glide_lipo>  (131) 
-0.279948

>  <r_i_glide_hbond>  (131) 
-0.32

>  <r_i_glide_metal>  (131) 
-0

>  <r_i_glide_rewards>  (131) 
-0.754973

>  <r_i_glide_evdw>  (131) 
-24.1132

>  <r_i_glide_ecoul>  (131) 
-7.5737

>  <r_i_glide_erotb>  (131) 
0.128637

>  <r_i_glide_esite>  (131) 
-0.203749

>  <r_i_glide_emodel>  (131) 
-40.2919

>  <r_i_glide_energy>  (131) 
-31.6869

>  <r_i_glide_einternal>  (131) 
0.761224

>  <r_i_glide_intrahb_reward>  (131) 
-0

>  <i_i_glide_confnum>  (131) 
4

>  <i_i_glide_posenum>  (131) 
35

>  <r_i_glide_eff_state_penalty>  (131) 
0

>  <ligand_id>  (131) 
27

>  <original_smiles>  (131) 
CC1=Nc2nc3ccccc3n2C(c2cc(Br)cs2)C1C(N)=O

>  <smiles>  (131) 
[H]c1sc(C2([H])n3c(nc4c([H])c([H])c([H])c([H])c43)N=C(C([H])([H])[H])C2([H])C(=O)N([H])[H])c([H])c1Br

$$$$
27:1:2
     RDKit          3D

 36 39  0  0  1  0  0  0  0  0999 V2000
   -1.6572   -9.1006    2.8035 C   0  0  0  0  0  0  0  0  0  0  0  0
   -0.2284   -8.6476    2.5468 C   0  0  0  0  0  0  0  0  0  0  0  0
   -0.0653   -7.4953    2.0451 N   0  0  0  0  0  0  0  0  0  0  0  0
    1.1362   -7.0286    1.6456 C   0  0  0  0  0  0  0  0  0  0  0  0
    1.3112   -5.8589    1.0385 N   0  0  0  0  0  0  0  0  0  0  0  0
    2.6727   -5.8069    0.8294 C   0  0  0  0  0  0  0  0  0  0  0  0
    3.4563   -4.7958    0.2375 C   0  0  0  0  0  0  0  0  0  0  0  0
    4.8460   -4.9591    0.0832 C   0  0  0  0  0  0  0  0  0  0  0  0
    5.4677   -6.1375    0.5389 C   0  0  0  0  0  0  0  0  0  0  0  0
    4.7031   -7.1602    1.1395 C   0  0  0  0  0  0  0  0  0  0  0  0
    3.3099   -6.9881    1.2891 C   0  0  0  0  0  0  0  0  0  0  0  0
    2.2700   -7.7533    1.8343 N   0  0  0  0  0  0  0  0  0  0  0  0
    2.3551   -9.0710    2.4645 C   0  0  1  0  0  0  0  0  0  0  0  0
    3.4201   -9.0920    3.5446 C   0  0  0  0  0  0  0  0  0  0  0  0
    4.4889   -9.9539    3.6609 C   0  0  0  0  0  0  0  0  0  0  0  0
    5.2812   -9.6619    4.8073 C   0  0  0  0  0  0  0  0  0  0  0  0
    6.8331  -10.6573    5.2632 Br  0  0  0  0  0  0  0  0  0  0  0  0
    4.8531   -8.6072    5.5615 C   0  0  0  0  0  0  0  0  0  0  0  0
    3.4401   -7.9005    4.8388 S   0  0  0  0  0  0  0  0  0  0  0  0
    0.9295   -9.6367    2.8405 C   0  0  1  0  0  0  0  0  0  0  0  0
    0.8213  -10.1621    4.2880 C   0  0  0  0  0  0  0  0  0  0  0  0
    1.0133  -11.4697    4.4820 N   0  0  0  0  0  0  0  0  0  0  0  0
    0.5879   -9.4003    5.2267 O   0  0  0  0  0  0  0  0  0  0  0  0
   -1.8702  -10.0171    2.2606 H   0  0  0  0  0  0  0  0  0  0  0  0
   -2.3518   -8.3407    2.4505 H   0  0  0  0  0  0  0  0  0  0  0  0
   -1.8393   -9.2216    3.8652 H   0  0  0  0  0  0  0  0  0  0  0  0
    2.9691   -3.9043   -0.1234 H   0  0  0  0  0  0  0  0  0  0  0  0
    5.4227   -4.1861   -0.3953 H   0  0  0  0  0  0  0  0  0  0  0  0
    6.5312   -6.2607    0.4137 H   0  0  0  0  0  0  0  0  0  0  0  0
    5.1724   -8.0713    1.4831 H   0  0  0  0  0  0  0  0  0  0  0  0
    2.7156   -9.7334    1.6741 H   0  0  0  0  0  0  0  0  0  0  0  0
    4.7342  -10.7629    2.9806 H   0  0  0  0  0  0  0  0  0  0  0  0
    5.2811   -8.2144    6.4700 H   0  0  0  0  0  0  0  0  0  0  0  0
    0.7427  -10.4874    2.1820 H   0  0  0  0  0  0  0  0  0  0  0  0
    1.2220  -12.0918    3.7120 H   0  0  0  0  0  0  0  0  0  0  0  0
    0.9821  -11.8294    5.4325 H   0  0  0  0  0  0  0  0  0  0  0  0
  1  2  1  0
  1 24  1  0
  1 25  1  0
  1 26  1  0
  2 20  1  0
  2  3  2  0
  3  4  1  0
  4 12  1  0
  4  5  2  0
  5  6  1  0
  6 11  2  0
  6  7  1  0
  7  8  2  0
  7 27  1  0
  8  9  1  0
  8 28  1  0
  9 10  2  0
  9 29  1  0
 10 11  1  0
 10 30  1  0
 11 12  1  0
 12 13  1  0
 13 14  1  0
 13 20  1  0
 13 31  1  6
 14 19  1  0
 14 15  2  0
 15 16  1  0
 15 32  1  0
 16 17  1  0
 16 18  2  0
 18 19  1  0
 18 33  1  0
 20 21  1  0
 20 34  1  6
 21 22  1  0
 21 23  2  0
 22 35  1  0
 22 36  1  0
M  END
>  <i_m_ct_stereo_status>  (132) 
1

>  <s_m_source_file>  (132) 
/var/tmp/pbs.5102103.sched01/tmprp2a6t7u/44c8wyhmqh.sdf

>  <i_m_source_file_index>  (132) 
6

>  <i_lp_mmshare_version>  (132) 
48012

>  <i_f3d_flags>  (132) 
0

>  <s_epik_input>  (132) 
czFbY0hdYyhCcilbY0hdYzFbQ0BASF0oW0NASF0oQyg9TjIpW0NIM10pQyg9TylbTkgyXSluKGMyMyljNGMobjMpW2NIXVtjSF1bY0hdW2NIXTQ=

>  <s_epik_cmdline>  (132) 
J2VwaWtfcHl0aG9uJywgJy1waHQnLCAnMi4wJywgJy1waCcsICc3LjAnLCAnLXRuJywgJzgnLCAnLW1hJywgJzIwMCcsICctaW1hZScsICc8aW5maWxlLm1hZT4nLCAnLW9tYWUnLCAnPG91dGZpbGUubWFlPic=

>  <r_lp_tautomer_probability>  (132) 
0.999601

>  <r_epik_Ionization_Penalty>  (132) 
1.58225

>  <r_epik_Ionization_Penalty_Charging>  (132) 
0

>  <r_epik_Ionization_Penalty_Neutral>  (132) 
1.58225

>  <r_epik_State_Penalty>  (132) 
1.67887

>  <r_epik_Charging_Adjusted_Penalty>  (132) 
1.67887

>  <i_epik_Tot_Q>  (132) 
0

>  <i_epik_Tot_abs_Q>  (132) 
0

>  <s_epik_Chemistry_Notes>  (132) 
This compound has an imine and may undergo hydrolysis.

>  <s_lp_Force_Field>  (132) 
OPLS3e

>  <r_lp_Energy>  (132) 
20.8214

>  <b_lp_Chiralities_Consistent>  (132) 
1

>  <s_lp_Variant>  (132) 
27:0-2

>  <s_i_glide_gridfile>  (132) 
pfpi4k_grid

>  <i_i_glide_lignum>  (132) 
6

>  <i_i_glide_rotatable_bonds>  (132) 
2

>  <r_i_docking_score>  (132) 
-3.61591

>  <r_i_glide_ligand_efficiency>  (132) 
-0.157213

>  <r_i_glide_ligand_efficiency_sa>  (132) 
-0.447094

>  <r_i_glide_ligand_efficiency_ln>  (132) 
-0.87436

>  <r_i_glide_gscore>  (132) 
-3.61591

>  <r_i_glide_lipo>  (132) 
-0.34723

>  <r_i_glide_hbond>  (132) 
-0.221943

>  <r_i_glide_metal>  (132) 
-0

>  <r_i_glide_rewards>  (132) 
-0.754973

>  <r_i_glide_evdw>  (132) 
-25.3869

>  <r_i_glide_ecoul>  (132) 
-6.70784

>  <r_i_glide_erotb>  (132) 
0.128637

>  <r_i_glide_esite>  (132) 
-0.144879

>  <r_i_glide_emodel>  (132) 
-40.4285

>  <r_i_glide_energy>  (132) 
-32.0947

>  <r_i_glide_einternal>  (132) 
0.560146

>  <r_i_glide_intrahb_reward>  (132) 
-0

>  <i_i_glide_confnum>  (132) 
4

>  <i_i_glide_posenum>  (132) 
8

>  <r_i_glide_eff_state_penalty>  (132) 
0

>  <ligand_id>  (132) 
27

>  <original_smiles>  (132) 
CC1=Nc2nc3ccccc3n2C(c2cc(Br)cs2)C1C(N)=O

>  <smiles>  (132) 
[H]c1sc(C2([H])n3c(nc4c([H])c([H])c([H])c([H])c43)N=C(C([H])([H])[H])C2([H])C(=O)N([H])[H])c([H])c1Br

$$$$
28:0:0
     RDKit          3D

 51 55  0  0  1  0  0  0  0  0999 V2000
    4.6629   -5.4641    3.4845 C   0  0  0  0  0  0  0  0  0  0  0  0
    3.3780   -5.3824    2.6309 C   0  0  2  0  0  0  0  0  0  0  0  0
    3.4856   -6.1006    1.2692 C   0  0  0  0  0  0  0  0  0  0  0  0
    4.4454   -5.3772    0.2968 C   0  0  0  0  0  0  0  0  0  0  0  0
    4.0697   -3.8851    0.0508 C   0  0  1  0  0  0  0  0  0  0  0  0
    3.9303   -3.1330    1.4089 C   0  0  1  0  0  0  0  0  0  0  0  0
    3.4840   -1.6684    1.2056 C   0  0  0  0  0  0  0  0  0  0  0  0
    4.4219   -0.9057    0.2586 C   0  0  1  0  0  0  0  0  0  0  0  0
    5.6740   -0.6635    0.8665 O   0  0  0  0  0  0  0  0  0  0  0  0
    4.5682   -1.6504   -1.0663 C   0  0  0  0  0  0  0  0  0  0  0  0
    4.2232   -1.0345   -2.2210 C   0  0  0  0  0  0  0  0  0  0  0  0
    4.2108   -1.7265   -3.5101 C   0  0  0  0  0  0  0  0  0  0  0  0
    3.9728   -1.1258   -4.5566 O   0  0  0  0  0  0  0  0  0  0  0  0
    4.5188   -3.1578   -3.5043 C   0  0  0  0  0  0  0  0  0  0  0  0
    4.8548   -3.7851   -2.3629 C   0  0  0  0  0  0  0  0  0  0  0  0
    4.9900   -3.1377   -0.9805 C   0  0  2  0  0  0  0  0  0  0  0  0
    6.4859   -3.2374   -0.6020 C   0  0  0  0  0  0  0  0  0  0  0  0
    3.0299   -3.9279    2.3574 C   0  0  0  0  0  0  0  0  0  0  0  0
    1.8849   -3.5660    2.9419 C   0  0  0  0  0  0  0  0  0  0  0  0
    1.3434   -4.7092    3.6211 C   0  0  0  0  0  0  0  0  0  0  0  0
    2.1406   -5.7810    3.4542 C   0  0  0  0  0  0  0  0  0  0  0  0
    1.8292   -7.1289    4.0130 C   0  0  0  0  0  0  0  0  0  0  0  0
    2.7394   -8.2145    3.9233 C   0  0  0  0  0  0  0  0  0  0  0  0
    2.4809   -9.4255    4.4621 N   0  0  0  0  0  0  0  0  0  0  0  0
    1.2931   -9.5728    5.0874 C   0  0  0  0  0  0  0  0  0  0  0  0
    0.3722   -8.5066    5.1775 C   0  0  0  0  0  0  0  0  0  0  0  0
    0.6381   -7.2859    4.6495 N   0  0  0  0  0  0  0  0  0  0  0  0
    4.5315   -4.9237    4.4221 H   0  0  0  0  0  0  0  0  0  0  0  0
    5.5195   -5.0262    2.9750 H   0  0  0  0  0  0  0  0  0  0  0  0
    4.9452   -6.4823    3.7384 H   0  0  0  0  0  0  0  0  0  0  0  0
    3.8039   -7.1328    1.4008 H   0  0  0  0  0  0  0  0  0  0  0  0
    2.5009   -6.1499    0.8059 H   0  0  0  0  0  0  0  0  0  0  0  0
    5.4582   -5.4486    0.6909 H   0  0  0  0  0  0  0  0  0  0  0  0
    4.4483   -5.9276   -0.6421 H   0  0  0  0  0  0  0  0  0  0  0  0
    3.0735   -3.8933   -0.3993 H   0  0  0  0  0  0  0  0  0  0  0  0
    4.9019   -3.1098    1.8985 H   0  0  0  0  0  0  0  0  0  0  0  0
    2.4780   -1.6600    0.7797 H   0  0  0  0  0  0  0  0  0  0  0  0
    3.4153   -1.1472    2.1591 H   0  0  0  0  0  0  0  0  0  0  0  0
    3.9944    0.0775    0.0730 H   0  0  0  0  0  0  0  0  0  0  0  0
    5.9947   -1.4768    1.2262 H   0  0  0  0  0  0  0  0  0  0  0  0
    3.9052   -0.0054   -2.2455 H   0  0  0  0  0  0  0  0  0  0  0  0
    4.4569   -3.6896   -4.4415 H   0  0  0  0  0  0  0  0  0  0  0  0
    5.0677   -4.8421   -2.4194 H   0  0  0  0  0  0  0  0  0  0  0  0
    7.1007   -2.6067   -1.2466 H   0  0  0  0  0  0  0  0  0  0  0  0
    6.8566   -4.2524   -0.7191 H   0  0  0  0  0  0  0  0  0  0  0  0
    6.6887   -2.9578    0.4303 H   0  0  0  0  0  0  0  0  0  0  0  0
    1.4021   -2.6017    2.8597 H   0  0  0  0  0  0  0  0  0  0  0  0
    0.4090   -4.7047    4.1629 H   0  0  0  0  0  0  0  0  0  0  0  0
    3.6907   -8.1436    3.4233 H   0  0  0  0  0  0  0  0  0  0  0  0
    1.0846  -10.5453    5.5100 H   0  0  0  0  0  0  0  0  0  0  0  0
   -0.5782   -8.6445    5.6747 H   0  0  0  0  0  0  0  0  0  0  0  0
  2  1  1  1
  1 28  1  0
  1 29  1  0
  1 30  1  0
  2 18  1  0
  2 21  1  0
  2  3  1  0
  3  4  1  0
  3 31  1  0
  3 32  1  0
  4  5  1  0
  4 33  1  0
  4 34  1  0
  5 16  1  0
  5  6  1  0
  5 35  1  6
  6  7  1  0
  6 18  1  0
  6 36  1  1
  7  8  1  0
  7 37  1  0
  7 38  1  0
  8  9  1  0
  8 10  1  0
  8 39  1  6
  9 40  1  0
 10 16  1  0
 10 11  2  0
 11 12  1  0
 11 41  1  0
 12 13  2  0
 12 14  1  0
 14 15  2  0
 14 42  1  0
 15 16  1  0
 15 43  1  0
 16 17  1  1
 17 44  1  0
 17 45  1  0
 17 46  1  0
 18 19  2  0
 19 20  1  0
 19 47  1  0
 20 21  2  0
 20 48  1  0
 21 22  1  0
 22 27  1  0
 22 23  2  0
 23 24  1  0
 23 49  1  0
 24 25  2  0
 25 26  1  0
 25 50  1  0
 26 27  2  0
 26 51  1  0
M  END
>  <i_m_ct_stereo_status>  (133) 
1

>  <s_m_source_file>  (133) 
/var/tmp/pbs.5102103.sched01/tmprp2a6t7u/44c8wyhmqh.sdf

>  <i_m_source_file_index>  (133) 
7

>  <i_lp_mmshare_version>  (133) 
48012

>  <i_f3d_flags>  (133) 
0

>  <s_epik_input>  (133) 
W0NIXTE9W0NIXUMoPU8pW0NIXT1DKFtDQEBIXShbQ0gyXTIpW09IXSlbQ0BAXTEoW0NIM10pW0NAQEhdKFtDSDJdW0NIMl0zKVtDQEBIXTJDKFtDQF0zNFtDSDNdKT1bQ0hdW0NIXT1DNGM1W2NIXW5bY0hdW2NIXW41

>  <s_epik_cmdline>  (133) 
J2VwaWtfcHl0aG9uJywgJy1waHQnLCAnMi4wJywgJy1waCcsICc3LjAnLCAnLXRuJywgJzgnLCAnLW1hJywgJzIwMCcsICctaW1hZScsICc8aW5maWxlLm1hZT4nLCAnLW9tYWUnLCAnPG91dGZpbGUubWFlPic=

>  <r_lp_tautomer_probability>  (133) 
1

>  <r_epik_Ionization_Penalty>  (133) 
0.000107363

>  <r_epik_Ionization_Penalty_Charging>  (133) 
0

>  <r_epik_Ionization_Penalty_Neutral>  (133) 
0.000107363

>  <r_epik_State_Penalty>  (133) 
-0

>  <r_epik_Charging_Adjusted_Penalty>  (133) 
0

>  <i_epik_Tot_Q>  (133) 
0

>  <i_epik_Tot_abs_Q>  (133) 
0

>  <s_lp_Force_Field>  (133) 
OPLS3e

>  <r_lp_Energy>  (133) 
34.7212

>  <b_lp_Chiralities_Consistent>  (133) 
1

>  <s_lp_Variant>  (133) 
28:0-1

>  <s_i_glide_gridfile>  (133) 
pfpi4k_grid

>  <i_i_glide_lignum>  (133) 
7

>  <i_i_glide_rotatable_bonds>  (133) 
2

>  <r_i_docking_score>  (133) 
-3.86092

>  <r_i_glide_ligand_efficiency>  (133) 
-0.142997

>  <r_i_glide_ligand_efficiency_sa>  (133) 
-0.428991

>  <r_i_glide_ligand_efficiency_ln>  (133) 
-0.898758

>  <r_i_glide_gscore>  (133) 
-3.86092

>  <r_i_glide_lipo>  (133) 
-0.451694

>  <r_i_glide_hbond>  (133) 
-0.304656

>  <r_i_glide_metal>  (133) 
-0

>  <r_i_glide_rewards>  (133) 
-1.18994

>  <r_i_glide_evdw>  (133) 
-32.9216

>  <r_i_glide_ecoul>  (133) 
-2.77446

>  <r_i_glide_erotb>  (133) 
0.147619

>  <r_i_glide_esite>  (133) 
0

>  <r_i_glide_emodel>  (133) 
-44.3293

>  <r_i_glide_energy>  (133) 
-35.6961

>  <r_i_glide_einternal>  (133) 
0.210982

>  <r_i_glide_intrahb_reward>  (133) 
-0

>  <i_i_glide_confnum>  (133) 
4

>  <i_i_glide_posenum>  (133) 
16

>  <r_i_glide_eff_state_penalty>  (133) 
0

>  <ligand_id>  (133) 
28

>  <original_smiles>  (133) 
CC12CCC3C(CC(O)C4=CC(=O)C=CC43C)C1=CC=C2c1cnccn1

>  <smiles>  (133) 
[H]OC1([H])C2=C([H])C(=O)C([H])=C([H])C2(C([H])([H])[H])C2([H])C([H])([H])C([H])([H])C3(C([H])([H])[H])C(c4nc([H])c([H])nc4[H])=C([H])C([H])=C3C2([H])C1([H])[H]

$$$$
28:0:1
     RDKit          3D

 51 55  0  0  1  0  0  0  0  0999 V2000
    3.5488   -3.1525    5.2259 C   0  0  0  0  0  0  0  0  0  0  0  0
    2.4155   -3.2859    4.1872 C   0  0  2  0  0  0  0  0  0  0  0  0
    2.5789   -4.4994    3.2426 C   0  0  0  0  0  0  0  0  0  0  0  0
    3.7505   -4.3339    2.2552 C   0  0  0  0  0  0  0  0  0  0  0  0
    3.6441   -3.0488    1.3924 C   0  0  1  0  0  0  0  0  0  0  0  0
    3.4673   -1.7998    2.3072 C   0  0  1  0  0  0  0  0  0  0  0  0
    3.2812   -0.5211    1.4743 C   0  0  0  0  0  0  0  0  0  0  0  0
    4.4307   -0.3238    0.4874 C   0  0  1  0  0  0  0  0  0  0  0  0
    5.6258   -0.0273    1.1453 O   0  0  0  0  0  0  0  0  0  0  0  0
    4.6142   -1.5317   -0.4031 C   0  0  0  0  0  0  0  0  0  0  0  0
    4.5119   -1.3829   -1.7437 C   0  0  0  0  0  0  0  0  0  0  0  0
    4.5548   -2.5291   -2.6451 C   0  0  0  0  0  0  0  0  0  0  0  0
    4.5080   -2.3912   -3.8666 O   0  0  0  0  0  0  0  0  0  0  0  0
    4.6426   -3.8547   -2.0350 C   0  0  0  0  0  0  0  0  0  0  0  0
    4.7267   -4.0127   -0.7018 C   0  0  0  0  0  0  0  0  0  0  0  0
    4.7893   -2.8847    0.3270 C   0  0  2  0  0  0  0  0  0  0  0  0
    6.1966   -2.9737    0.9664 C   0  0  0  0  0  0  0  0  0  0  0  0
    2.3450   -2.0428    3.3179 C   0  0  0  0  0  0  0  0  0  0  0  0
    1.2056   -1.3658    3.4983 C   0  0  0  0  0  0  0  0  0  0  0  0
    0.4084   -2.0771    4.4609 C   0  0  0  0  0  0  0  0  0  0  0  0
    1.0350   -3.1957    4.8591 C   0  0  0  0  0  0  0  0  0  0  0  0
    0.4813   -4.1214    5.8816 C   0  0  0  0  0  0  0  0  0  0  0  0
    1.1107   -5.3571    6.2003 C   0  0  0  0  0  0  0  0  0  0  0  0
    0.6108   -6.2104    7.1183 N   0  0  0  0  0  0  0  0  0  0  0  0
   -0.5261   -5.8356    7.7332 C   0  0  0  0  0  0  0  0  0  0  0  0
   -1.1678   -4.6160    7.4292 C   0  0  0  0  0  0  0  0  0  0  0  0
   -0.6679   -3.7567    6.5082 N   0  0  0  0  0  0  0  0  0  0  0  0
    3.4046   -2.2639    5.8392 H   0  0  0  0  0  0  0  0  0  0  0  0
    4.5246   -3.0536    4.7515 H   0  0  0  0  0  0  0  0  0  0  0  0
    3.5970   -4.0097    5.8924 H   0  0  0  0  0  0  0  0  0  0  0  0
    2.7394   -5.4199    3.7969 H   0  0  0  0  0  0  0  0  0  0  0  0
    1.6570   -4.6395    2.6786 H   0  0  0  0  0  0  0  0  0  0  0  0
    4.6827   -4.3332    2.8203 H   0  0  0  0  0  0  0  0  0  0  0  0
    3.7775   -5.2190    1.6233 H   0  0  0  0  0  0  0  0  0  0  0  0
    2.7177   -3.1392    0.8196 H   0  0  0  0  0  0  0  0  0  0  0  0
    4.3659   -1.6686    2.9043 H   0  0  0  0  0  0  0  0  0  0  0  0
    2.3490   -0.5850    0.9091 H   0  0  0  0  0  0  0  0  0  0  0  0
    3.1936    0.3563    2.1163 H   0  0  0  0  0  0  0  0  0  0  0  0
    4.2210    0.5323   -0.1319 H   0  0  0  0  0  0  0  0  0  0  0  0
    6.1735    0.4435    0.5357 H   0  0  0  0  0  0  0  0  0  0  0  0
    4.3499   -0.4154   -2.1930 H   0  0  0  0  0  0  0  0  0  0  0  0
    4.6267   -4.6957   -2.6990 H   0  0  0  0  0  0  0  0  0  0  0  0
    4.7905   -5.0209   -0.3133 H   0  0  0  0  0  0  0  0  0  0  0  0
    6.9728   -2.7100    0.2460 H   0  0  0  0  0  0  0  0  0  0  0  0
    6.4197   -3.9804    1.3181 H   0  0  0  0  0  0  0  0  0  0  0  0
    6.3106   -2.3142    1.8245 H   0  0  0  0  0  0  0  0  0  0  0  0
    0.8944   -0.4791    2.9646 H   0  0  0  0  0  0  0  0  0  0  0  0
   -0.5636   -1.7515    4.8013 H   0  0  0  0  0  0  0  0  0  0  0  0
    2.0271   -5.6863    5.7444 H   0  0  0  0  0  0  0  0  0  0  0  0
   -0.9282   -6.5175    8.4624 H   0  0  0  0  0  0  0  0  0  0  0  0
   -2.0877   -4.3422    7.9249 H   0  0  0  0  0  0  0  0  0  0  0  0
  2  1  1  1
  1 28  1  0
  1 29  1  0
  1 30  1  0
  2 18  1  0
  2 21  1  0
  2  3  1  0
  3  4  1  0
  3 31  1  0
  3 32  1  0
  4  5  1  0
  4 33  1  0
  4 34  1  0
  5 16  1  0
  5  6  1  0
  5 35  1  6
  6  7  1  0
  6 18  1  0
  6 36  1  1
  7  8  1  0
  7 37  1  0
  7 38  1  0
  8  9  1  0
  8 10  1  0
  8 39  1  6
  9 40  1  0
 10 16  1  0
 10 11  2  0
 11 12  1  0
 11 41  1  0
 12 13  2  0
 12 14  1  0
 14 15  2  0
 14 42  1  0
 15 16  1  0
 15 43  1  0
 16 17  1  1
 17 44  1  0
 17 45  1  0
 17 46  1  0
 18 19  2  0
 19 20  1  0
 19 47  1  0
 20 21  2  0
 20 48  1  0
 21 22  1  0
 22 27  1  0
 22 23  2  0
 23 24  1  0
 23 49  1  0
 24 25  2  0
 25 26  1  0
 25 50  1  0
 26 27  2  0
 26 51  1  0
M  END
>  <i_m_ct_stereo_status>  (134) 
1

>  <s_m_source_file>  (134) 
/var/tmp/pbs.5102103.sched01/tmprp2a6t7u/44c8wyhmqh.sdf

>  <i_m_source_file_index>  (134) 
7

>  <i_lp_mmshare_version>  (134) 
48012

>  <i_f3d_flags>  (134) 
0

>  <s_epik_input>  (134) 
W0NIXTE9W0NIXUMoPU8pW0NIXT1DKFtDQEBIXShbQ0gyXTIpW09IXSlbQ0BAXTEoW0NIM10pW0NAQEhdKFtDSDJdW0NIMl0zKVtDQEBIXTJDKFtDQF0zNFtDSDNdKT1bQ0hdW0NIXT1DNGM1W2NIXW5bY0hdW2NIXW41

>  <s_epik_cmdline>  (134) 
J2VwaWtfcHl0aG9uJywgJy1waHQnLCAnMi4wJywgJy1waCcsICc3LjAnLCAnLXRuJywgJzgnLCAnLW1hJywgJzIwMCcsICctaW1hZScsICc8aW5maWxlLm1hZT4nLCAnLW9tYWUnLCAnPG91dGZpbGUubWFlPic=

>  <r_lp_tautomer_probability>  (134) 
1

>  <r_epik_Ionization_Penalty>  (134) 
0.000107363

>  <r_epik_Ionization_Penalty_Charging>  (134) 
0

>  <r_epik_Ionization_Penalty_Neutral>  (134) 
0.000107363

>  <r_epik_State_Penalty>  (134) 
-0

>  <r_epik_Charging_Adjusted_Penalty>  (134) 
0

>  <i_epik_Tot_Q>  (134) 
0

>  <i_epik_Tot_abs_Q>  (134) 
0

>  <s_lp_Force_Field>  (134) 
OPLS3e

>  <r_lp_Energy>  (134) 
34.7212

>  <b_lp_Chiralities_Consistent>  (134) 
1

>  <s_lp_Variant>  (134) 
28:0-1

>  <s_i_glide_gridfile>  (134) 
pfpi4k_grid

>  <i_i_glide_lignum>  (134) 
7

>  <i_i_glide_rotatable_bonds>  (134) 
2

>  <r_i_docking_score>  (134) 
-3.74836

>  <r_i_glide_ligand_efficiency>  (134) 
-0.138828

>  <r_i_glide_ligand_efficiency_sa>  (134) 
-0.416485

>  <r_i_glide_ligand_efficiency_ln>  (134) 
-0.872557

>  <r_i_glide_gscore>  (134) 
-3.74836

>  <r_i_glide_lipo>  (134) 
-0.352574

>  <r_i_glide_hbond>  (134) 
-0.448967

>  <r_i_glide_metal>  (134) 
-0

>  <r_i_glide_rewards>  (134) 
-1.11922

>  <r_i_glide_evdw>  (134) 
-24.5313

>  <r_i_glide_ecoul>  (134) 
-4.99101

>  <r_i_glide_erotb>  (134) 
0.147619

>  <r_i_glide_esite>  (134) 
0

>  <r_i_glide_emodel>  (134) 
-37.6583

>  <r_i_glide_energy>  (134) 
-29.5223

>  <r_i_glide_einternal>  (134) 
0.585651

>  <r_i_glide_intrahb_reward>  (134) 
-0

>  <i_i_glide_confnum>  (134) 
2

>  <i_i_glide_posenum>  (134) 
4

>  <r_i_glide_eff_state_penalty>  (134) 
0

>  <ligand_id>  (134) 
28

>  <original_smiles>  (134) 
CC12CCC3C(CC(O)C4=CC(=O)C=CC43C)C1=CC=C2c1cnccn1

>  <smiles>  (134) 
[H]OC1([H])C2=C([H])C(=O)C([H])=C([H])C2(C([H])([H])[H])C2([H])C([H])([H])C([H])([H])C3(C([H])([H])[H])C(c4nc([H])c([H])nc4[H])=C([H])C([H])=C3C2([H])C1([H])[H]

$$$$
28:0:2
     RDKit          3D

 51 55  0  0  1  0  0  0  0  0999 V2000
    3.9805   -4.0776    4.8554 C   0  0  0  0  0  0  0  0  0  0  0  0
    2.7767   -3.4158    4.1524 C   0  0  2  0  0  0  0  0  0  0  0  0
    2.1923   -4.2574    3.0001 C   0  0  0  0  0  0  0  0  0  0  0  0
    3.1362   -4.3297    1.7799 C   0  0  0  0  0  0  0  0  0  0  0  0
    3.5415   -2.9304    1.2287 C   0  0  1  0  0  0  0  0  0  0  0  0
    4.1248   -2.0492    2.3737 C   0  0  1  0  0  0  0  0  0  0  0  0
    4.4644   -0.6316    1.8755 C   0  0  0  0  0  0  0  0  0  0  0  0
    5.4179   -0.6587    0.6744 C   0  0  1  0  0  0  0  0  0  0  0  0
    6.7249   -1.0534    1.0275 O   0  0  0  0  0  0  0  0  0  0  0  0
    4.8561   -1.5281   -0.4435 C   0  0  0  0  0  0  0  0  0  0  0  0
    4.6311   -0.9900   -1.6639 C   0  0  0  0  0  0  0  0  0  0  0  0
    3.9854   -1.7331   -2.7465 C   0  0  0  0  0  0  0  0  0  0  0  0
    3.8876   -1.2638   -3.8807 O   0  0  0  0  0  0  0  0  0  0  0  0
    3.4800   -3.0634   -2.4208 C   0  0  0  0  0  0  0  0  0  0  0  0
    3.6920   -3.6079   -1.2073 C   0  0  0  0  0  0  0  0  0  0  0  0
    4.4552   -2.9690   -0.0485 C   0  0  2  0  0  0  0  0  0  0  0  0
    5.7204   -3.8342    0.1677 C   0  0  0  0  0  0  0  0  0  0  0  0
    3.1810   -2.0680    3.5771 C   0  0  0  0  0  0  0  0  0  0  0  0
    2.5467   -1.0554    4.1741 C   0  0  0  0  0  0  0  0  0  0  0  0
    1.6582   -1.5972    5.1629 C   0  0  0  0  0  0  0  0  0  0  0  0
    1.7282   -2.9411    5.1727 C   0  0  0  0  0  0  0  0  0  0  0  0
    0.9134   -3.7972    6.0800 C   0  0  0  0  0  0  0  0  0  0  0  0
    1.0433   -5.2111    6.1056 C   0  0  0  0  0  0  0  0  0  0  0  0
    0.3211   -5.9903    6.9400 N   0  0  0  0  0  0  0  0  0  0  0  0
   -0.5389   -5.3588    7.7636 C   0  0  0  0  0  0  0  0  0  0  0  0
   -0.6812   -3.9582    7.7501 C   0  0  0  0  0  0  0  0  0  0  0  0
    0.0349   -3.1747    6.9112 N   0  0  0  0  0  0  0  0  0  0  0  0
    4.3672   -3.4311    5.6432 H   0  0  0  0  0  0  0  0  0  0  0  0
    4.7999   -4.2690    4.1649 H   0  0  0  0  0  0  0  0  0  0  0  0
    3.7314   -5.0314    5.3138 H   0  0  0  0  0  0  0  0  0  0  0  0
    1.9529   -5.2650    3.3337 H   0  0  0  0  0  0  0  0  0  0  0  0
    1.2503   -3.8124    2.6849 H   0  0  0  0  0  0  0  0  0  0  0  0
    4.0252   -4.8923    2.0623 H   0  0  0  0  0  0  0  0  0  0  0  0
    2.6425   -4.9155    1.0072 H   0  0  0  0  0  0  0  0  0  0  0  0
    2.6139   -2.4462    0.9113 H   0  0  0  0  0  0  0  0  0  0  0  0
    5.0543   -2.4957    2.7239 H   0  0  0  0  0  0  0  0  0  0  0  0
    3.5421   -0.1297    1.5717 H   0  0  0  0  0  0  0  0  0  0  0  0
    4.8894   -0.0307    2.6782 H   0  0  0  0  0  0  0  0  0  0  0  0
    5.5158    0.3600    0.3224 H   0  0  0  0  0  0  0  0  0  0  0  0
    7.1840   -0.3059    1.3956 H   0  0  0  0  0  0  0  0  0  0  0  0
    4.8861    0.0342   -1.8826 H   0  0  0  0  0  0  0  0  0  0  0  0
    2.9597   -3.6096   -3.1946 H   0  0  0  0  0  0  0  0  0  0  0  0
    3.3391   -4.6145   -1.0399 H   0  0  0  0  0  0  0  0  0  0  0  0
    6.4119   -3.7364   -0.6709 H   0  0  0  0  0  0  0  0  0  0  0  0
    5.4780   -4.8937    0.2521 H   0  0  0  0  0  0  0  0  0  0  0  0
    6.2658   -3.5630    1.0706 H   0  0  0  0  0  0  0  0  0  0  0  0
    2.6300   -0.0081    3.9187 H   0  0  0  0  0  0  0  0  0  0  0  0
    1.0157   -0.9999    5.7923 H   0  0  0  0  0  0  0  0  0  0  0  0
    1.7242   -5.7495    5.4676 H   0  0  0  0  0  0  0  0  0  0  0  0
   -1.1154   -5.9773    8.4329 H   0  0  0  0  0  0  0  0  0  0  0  0
   -1.3817   -3.4752    8.4147 H   0  0  0  0  0  0  0  0  0  0  0  0
  2  1  1  1
  1 28  1  0
  1 29  1  0
  1 30  1  0
  2 18  1  0
  2 21  1  0
  2  3  1  0
  3  4  1  0
  3 31  1  0
  3 32  1  0
  4  5  1  0
  4 33  1  0
  4 34  1  0
  5 16  1  0
  5  6  1  0
  5 35  1  6
  6  7  1  0
  6 18  1  0
  6 36  1  1
  7  8  1  0
  7 37  1  0
  7 38  1  0
  8  9  1  0
  8 10  1  0
  8 39  1  6
  9 40  1  0
 10 16  1  0
 10 11  2  0
 11 12  1  0
 11 41  1  0
 12 13  2  0
 12 14  1  0
 14 15  2  0
 14 42  1  0
 15 16  1  0
 15 43  1  0
 16 17  1  1
 17 44  1  0
 17 45  1  0
 17 46  1  0
 18 19  2  0
 19 20  1  0
 19 47  1  0
 20 21  2  0
 20 48  1  0
 21 22  1  0
 22 27  1  0
 22 23  2  0
 23 24  1  0
 23 49  1  0
 24 25  2  0
 25 26  1  0
 25 50  1  0
 26 27  2  0
 26 51  1  0
M  END
>  <i_m_ct_stereo_status>  (135) 
1

>  <s_m_source_file>  (135) 
/var/tmp/pbs.5102103.sched01/tmprp2a6t7u/44c8wyhmqh.sdf

>  <i_m_source_file_index>  (135) 
7

>  <i_lp_mmshare_version>  (135) 
48012

>  <i_f3d_flags>  (135) 
0

>  <s_epik_input>  (135) 
W0NIXTE9W0NIXUMoPU8pW0NIXT1DKFtDQEBIXShbQ0gyXTIpW09IXSlbQ0BAXTEoW0NIM10pW0NAQEhdKFtDSDJdW0NIMl0zKVtDQEBIXTJDKFtDQF0zNFtDSDNdKT1bQ0hdW0NIXT1DNGM1W2NIXW5bY0hdW2NIXW41

>  <s_epik_cmdline>  (135) 
J2VwaWtfcHl0aG9uJywgJy1waHQnLCAnMi4wJywgJy1waCcsICc3LjAnLCAnLXRuJywgJzgnLCAnLW1hJywgJzIwMCcsICctaW1hZScsICc8aW5maWxlLm1hZT4nLCAnLW9tYWUnLCAnPG91dGZpbGUubWFlPic=

>  <r_lp_tautomer_probability>  (135) 
1

>  <r_epik_Ionization_Penalty>  (135) 
0.000107363

>  <r_epik_Ionization_Penalty_Charging>  (135) 
0

>  <r_epik_Ionization_Penalty_Neutral>  (135) 
0.000107363

>  <r_epik_State_Penalty>  (135) 
-0

>  <r_epik_Charging_Adjusted_Penalty>  (135) 
0

>  <i_epik_Tot_Q>  (135) 
0

>  <i_epik_Tot_abs_Q>  (135) 
0

>  <s_lp_Force_Field>  (135) 
OPLS3e

>  <r_lp_Energy>  (135) 
34.7212

>  <b_lp_Chiralities_Consistent>  (135) 
1

>  <s_lp_Variant>  (135) 
28:0-1

>  <s_i_glide_gridfile>  (135) 
pfpi4k_grid

>  <i_i_glide_lignum>  (135) 
7

>  <i_i_glide_rotatable_bonds>  (135) 
2

>  <r_i_docking_score>  (135) 
-3.74519

>  <r_i_glide_ligand_efficiency>  (135) 
-0.138711

>  <r_i_glide_ligand_efficiency_sa>  (135) 
-0.416132

>  <r_i_glide_ligand_efficiency_ln>  (135) 
-0.871818

>  <r_i_glide_gscore>  (135) 
-3.74519

>  <r_i_glide_lipo>  (135) 
-0.380377

>  <r_i_glide_hbond>  (135) 
-0.32

>  <r_i_glide_metal>  (135) 
-0

>  <r_i_glide_rewards>  (135) 
-0.951485

>  <r_i_glide_evdw>  (135) 
-26.9336

>  <r_i_glide_ecoul>  (135) 
-5.90914

>  <r_i_glide_erotb>  (135) 
0.147619

>  <r_i_glide_esite>  (135) 
-0.00789239

>  <r_i_glide_emodel>  (135) 
-40.9022

>  <r_i_glide_energy>  (135) 
-32.8427

>  <r_i_glide_einternal>  (135) 
0.733402

>  <r_i_glide_intrahb_reward>  (135) 
-0

>  <i_i_glide_confnum>  (135) 
4

>  <i_i_glide_posenum>  (135) 
29

>  <r_i_glide_eff_state_penalty>  (135) 
0

>  <ligand_id>  (135) 
28

>  <original_smiles>  (135) 
CC12CCC3C(CC(O)C4=CC(=O)C=CC43C)C1=CC=C2c1cnccn1

>  <smiles>  (135) 
[H]OC1([H])C2=C([H])C(=O)C([H])=C([H])C2(C([H])([H])[H])C2([H])C([H])([H])C([H])([H])C3(C([H])([H])[H])C(c4nc([H])c([H])nc4[H])=C([H])C([H])=C3C2([H])C1([H])[H]

$$$$
29:0:0
     RDKit          3D

 40 45  0  0  1  0  0  0  0  0999 V2000
    1.2200   -5.8605    0.1961 O   0  0  0  0  0  0  0  0  0  0  0  0
    2.2453   -6.0429    0.8689 C   0  0  0  0  0  0  0  0  0  0  0  0
    3.6071   -5.5563    0.4076 C   0  0  2  0  0  0  0  0  0  0  0  0
    4.5567   -6.0596    1.5296 C   0  0  2  0  0  0  0  0  0  0  0  0
    3.6062   -6.7497    2.4867 C   0  0  0  0  0  0  0  0  0  0  0  0
    4.0093   -7.2335    3.5452 O   0  0  0  0  0  0  0  0  0  0  0  0
    2.3369   -6.7040    2.0311 N   0  0  0  0  0  0  0  0  0  0  0  0
    1.2315   -7.3144    2.7019 C   0  0  0  0  0  0  0  0  0  0  0  0
    0.0519   -6.6835    2.8583 N   0  0  0  0  0  0  0  0  0  0  0  0
   -0.8678   -7.4724    3.5633 C   0  0  0  0  0  0  0  0  0  0  0  0
   -0.3725   -8.6907    3.9311 C   0  0  0  0  0  0  0  0  0  0  0  0
    1.2589   -8.9468    3.3928 S   0  0  0  0  0  0  0  0  0  0  0  0
    5.3381   -4.8668    2.1599 C   0  0  2  0  0  0  0  0  0  0  0  0
    4.3190   -3.8146    2.6091 C   0  0  0  0  0  0  0  0  0  0  0  0
    4.1934   -3.3152    3.9188 C   0  0  0  0  0  0  0  0  0  0  0  0
    3.2013   -2.3469    4.1842 C   0  0  0  0  0  0  0  0  0  0  0  0
    2.3477   -1.8914    3.1539 C   0  0  0  0  0  0  0  0  0  0  0  0
    2.4767   -2.3947    1.8427 C   0  0  0  0  0  0  0  0  0  0  0  0
    3.4660   -3.3605    1.5819 C   0  0  0  0  0  0  0  0  0  0  0  0
    3.7235   -4.0127    0.2222 C   0  0  1  0  0  0  0  0  0  0  0  0
    5.2091   -3.7717   -0.0482 C   0  0  0  0  0  0  0  0  0  0  0  0
    5.7342   -3.1740   -1.2073 C   0  0  0  0  0  0  0  0  0  0  0  0
    7.1339   -3.0332   -1.3206 C   0  0  0  0  0  0  0  0  0  0  0  0
    7.9897   -3.4764   -0.2874 C   0  0  0  0  0  0  0  0  0  0  0  0
    7.4616   -4.0875    0.8704 C   0  0  0  0  0  0  0  0  0  0  0  0
    6.0663   -4.2257    0.9802 C   0  0  0  0  0  0  0  0  0  0  0  0
    3.8472   -6.0639   -0.5218 H   0  0  0  0  0  0  0  0  0  0  0  0
    5.2442   -6.8093    1.1404 H   0  0  0  0  0  0  0  0  0  0  0  0
   -1.8574   -7.0708    3.7624 H   0  0  0  0  0  0  0  0  0  0  0  0
   -0.8671   -9.4679    4.4872 H   0  0  0  0  0  0  0  0  0  0  0  0
    6.0105   -5.1714    2.9626 H   0  0  0  0  0  0  0  0  0  0  0  0
    4.8450   -3.6620    4.7067 H   0  0  0  0  0  0  0  0  0  0  0  0
    3.0955   -1.9469    5.1820 H   0  0  0  0  0  0  0  0  0  0  0  0
    1.5934   -1.1481    3.3675 H   0  0  0  0  0  0  0  0  0  0  0  0
    1.8250   -2.0438    1.0552 H   0  0  0  0  0  0  0  0  0  0  0  0
    3.0796   -3.6188   -0.5672 H   0  0  0  0  0  0  0  0  0  0  0  0
    5.0759   -2.8400   -1.9954 H   0  0  0  0  0  0  0  0  0  0  0  0
    7.5591   -2.5979   -2.2122 H   0  0  0  0  0  0  0  0  0  0  0  0
    9.0566   -3.3571   -0.3957 H   0  0  0  0  0  0  0  0  0  0  0  0
    8.1102   -4.4422    1.6590 H   0  0  0  0  0  0  0  0  0  0  0  0
  1  2  2  0
  2  3  1  0
  2  7  1  0
  3 20  1  0
  3 27  1  6
  3  4  1  0
  4 13  1  0
  4 28  1  6
  4  5  1  0
  5  6  2  0
  5  7  1  0
  7  8  1  0
  8 12  1  0
  8  9  2  0
  9 10  1  0
 10 11  2  0
 10 29  1  0
 11 12  1  0
 11 30  1  0
 13 26  1  0
 13 14  1  0
 13 31  1  1
 14 19  2  0
 14 15  1  0
 15 16  2  0
 15 32  1  0
 16 17  1  0
 16 33  1  0
 17 18  2  0
 17 34  1  0
 18 19  1  0
 18 35  1  0
 19 20  1  0
 20 21  1  0
 20 36  1  6
 21 26  2  0
 21 22  1  0
 22 23  2  0
 22 37  1  0
 23 24  1  0
 23 38  1  0
 24 25  2  0
 24 39  1  0
 25 26  1  0
 25 40  1  0
M  END
>  <i_m_ct_stereo_status>  (136) 
1

>  <s_m_source_file>  (136) 
/var/tmp/pbs.5102103.sched01/tmprp2a6t7u/44c8wyhmqh.sdf

>  <i_m_source_file_index>  (136) 
8

>  <i_lp_mmshare_version>  (136) 
48012

>  <i_f3d_flags>  (136) 
0

>  <s_epik_input>  (136) 
czFbY0hdW2NIXW5jMS1uKGMyW09IXSljKFtPSF0pYyhjMjMpW0NAQEhdNGM1YyhbY0hdW2NIXVtjSF1bY0hdNSlbQ0BIXTNjNmM0W2NIXVtjSF1bY0hdW2NIXTY=

>  <s_epik_cmdline>  (136) 
J2VwaWtfcHl0aG9uJywgJy1waHQnLCAnMi4wJywgJy1waCcsICc3LjAnLCAnLXRuJywgJzgnLCAnLW1hJywgJzIwMCcsICctaW1hZScsICc8aW5maWxlLm1hZT4nLCAnLW9tYWUnLCAnPG91dGZpbGUubWFlPic=

>  <r_lp_tautomer_probability>  (136) 
1

>  <r_epik_Ionization_Penalty>  (136) 
0.000136218

>  <r_epik_Ionization_Penalty_Charging>  (136) 
0

>  <r_epik_Ionization_Penalty_Neutral>  (136) 
0.000136218

>  <r_epik_State_Penalty>  (136) 
-0

>  <r_epik_Charging_Adjusted_Penalty>  (136) 
0

>  <i_epik_Tot_Q>  (136) 
0

>  <i_epik_Tot_abs_Q>  (136) 
0

>  <s_lp_Force_Field>  (136) 
OPLS3e

>  <r_lp_Energy>  (136) 
59.7179

>  <b_lp_Chiralities_Consistent>  (136) 
1

>  <s_lp_Variant>  (136) 
29:0-1

>  <s_i_glide_gridfile>  (136) 
pfpi4k_grid

>  <i_i_glide_lignum>  (136) 
8

>  <i_i_glide_rotatable_bonds>  (136) 
1

>  <r_i_docking_score>  (136) 
-4.23965

>  <r_i_glide_ligand_efficiency>  (136) 
-0.163063

>  <r_i_glide_ligand_efficiency_sa>  (136) 
-0.483075

>  <r_i_glide_ligand_efficiency_ln>  (136) 
-0.995668

>  <r_i_glide_gscore>  (136) 
-4.23965

>  <r_i_glide_lipo>  (136) 
-0.656687

>  <r_i_glide_hbond>  (136) 
-0.349028

>  <r_i_glide_metal>  (136) 
-0

>  <r_i_glide_rewards>  (136) 
-0.965359

>  <r_i_glide_evdw>  (136) 
-27.8477

>  <r_i_glide_ecoul>  (136) 
-6.55082

>  <r_i_glide_erotb>  (136) 
0.149116

>  <r_i_glide_esite>  (136) 
-0.0426845

>  <r_i_glide_emodel>  (136) 
-44.3819

>  <r_i_glide_energy>  (136) 
-34.3985

>  <r_i_glide_einternal>  (136) 
0.0618344

>  <r_i_glide_intrahb_reward>  (136) 
-0

>  <i_i_glide_confnum>  (136) 
3

>  <i_i_glide_posenum>  (136) 
1

>  <r_i_glide_eff_state_penalty>  (136) 
0

>  <ligand_id>  (136) 
29

>  <original_smiles>  (136) 
Oc1c2c(c(O)n1-c1nccs1)C1c3ccccc3C2c2ccccc21

>  <smiles>  (136) 
[H]c1nc(N2C(=O)C3([H])C4([H])c5c([H])c([H])c([H])c([H])c5C([H])(c5c([H])c([H])c([H])c([H])c54)C3([H])C2=O)sc1[H]

$$$$
29:0:1
     RDKit          3D

 40 45  0  0  1  0  0  0  0  0999 V2000
    5.0132   -0.1457    2.6220 O   0  0  0  0  0  0  0  0  0  0  0  0
    4.3832   -1.1154    2.2080 C   0  0  0  0  0  0  0  0  0  0  0  0
    3.9277   -1.2136    0.7652 C   0  0  2  0  0  0  0  0  0  0  0  0
    3.2763   -2.6273    0.7101 C   0  0  2  0  0  0  0  0  0  0  0  0
    3.4363   -3.1332    2.1295 C   0  0  0  0  0  0  0  0  0  0  0  0
    3.0178   -4.2433    2.4707 O   0  0  0  0  0  0  0  0  0  0  0  0
    4.0508   -2.2193    2.8979 N   0  0  0  0  0  0  0  0  0  0  0  0
    4.3218   -2.3722    4.2886 C   0  0  0  0  0  0  0  0  0  0  0  0
    4.8847   -3.4823    4.7906 N   0  0  0  0  0  0  0  0  0  0  0  0
    5.0466   -3.4004    6.1754 C   0  0  0  0  0  0  0  0  0  0  0  0
    4.6206   -2.2166    6.7158 C   0  0  0  0  0  0  0  0  0  0  0  0
    3.9725   -1.1411    5.5082 S   0  0  0  0  0  0  0  0  0  0  0  0
    3.9742   -3.5143   -0.3627 C   0  0  2  0  0  0  0  0  0  0  0  0
    5.4742   -3.5312   -0.0625 C   0  0  0  0  0  0  0  0  0  0  0  0
    6.2383   -4.6879    0.1667 C   0  0  0  0  0  0  0  0  0  0  0  0
    7.6170   -4.5511    0.4387 C   0  0  0  0  0  0  0  0  0  0  0  0
    8.2170   -3.2729    0.4683 C   0  0  0  0  0  0  0  0  0  0  0  0
    7.4435   -2.1133    0.2539 C   0  0  0  0  0  0  0  0  0  0  0  0
    6.0699   -2.2548   -0.0145 C   0  0  0  0  0  0  0  0  0  0  0  0
    5.0955   -1.1009   -0.2617 C   0  0  1  0  0  0  0  0  0  0  0  0
    4.4472   -1.4240   -1.5999 C   0  0  0  0  0  0  0  0  0  0  0  0
    4.3838   -0.5623   -2.7127 C   0  0  0  0  0  0  0  0  0  0  0  0
    3.7297   -0.9995   -3.8792 C   0  0  0  0  0  0  0  0  0  0  0  0
    3.1310   -2.2726   -3.8996 C   0  0  0  0  0  0  0  0  0  0  0  0
    3.1767   -3.1197   -2.7938 C   0  0  0  0  0  0  0  0  0  0  0  0
    3.8498   -2.7009   -1.6453 C   0  0  0  0  0  0  0  0  0  0  0  0
    3.1798   -0.4410    0.5884 H   0  0  0  0  0  0  0  0  0  0  0  0
    2.2122   -2.5435    0.5018 H   0  0  0  0  0  0  0  0  0  0  0  0
    5.4827   -4.2532    6.6928 H   0  0  0  0  0  0  0  0  0  0  0  0
    4.6391   -1.8988    7.7457 H   0  0  0  0  0  0  0  0  0  0  0  0
    3.5448   -4.5151   -0.4519 H   0  0  0  0  0  0  0  0  0  0  0  0
    5.7825   -5.6660    0.1157 H   0  0  0  0  0  0  0  0  0  0  0  0
    8.2191   -5.4343    0.5949 H   0  0  0  0  0  0  0  0  0  0  0  0
    9.2739   -3.1767    0.6652 H   0  0  0  0  0  0  0  0  0  0  0  0
    7.9021   -1.1383    0.3114 H   0  0  0  0  0  0  0  0  0  0  0  0
    5.5897   -0.1332   -0.2477 H   0  0  0  0  0  0  0  0  0  0  0  0
    4.8183    0.4245   -2.6806 H   0  0  0  0  0  0  0  0  0  0  0  0
    3.6681   -0.3512   -4.7405 H   0  0  0  0  0  0  0  0  0  0  0  0
    2.5940   -2.6454   -4.7379 H   0  0  0  0  0  0  0  0  0  0  0  0
    2.6850   -4.0724   -2.8537 H   0  0  0  0  0  0  0  0  0  0  0  0
  1  2  2  0
  2  3  1  0
  2  7  1  0
  3 20  1  0
  3 27  1  6
  3  4  1  0
  4 13  1  0
  4 28  1  6
  4  5  1  0
  5  6  2  0
  5  7  1  0
  7  8  1  0
  8 12  1  0
  8  9  2  0
  9 10  1  0
 10 11  2  0
 10 29  1  0
 11 12  1  0
 11 30  1  0
 13 26  1  0
 13 14  1  0
 13 31  1  6
 14 19  2  0
 14 15  1  0
 15 16  2  0
 15 32  1  0
 16 17  1  0
 16 33  1  0
 17 18  2  0
 17 34  1  0
 18 19  1  0
 18 35  1  0
 19 20  1  0
 20 21  1  0
 20 36  1  6
 21 26  2  0
 21 22  1  0
 22 23  2  0
 22 37  1  0
 23 24  1  0
 23 38  1  0
 24 25  2  0
 24 39  1  0
 25 26  1  0
 25 40  1  0
M  END
>  <i_m_ct_stereo_status>  (137) 
1

>  <s_m_source_file>  (137) 
/var/tmp/pbs.5102103.sched01/tmprp2a6t7u/44c8wyhmqh.sdf

>  <i_m_source_file_index>  (137) 
8

>  <i_lp_mmshare_version>  (137) 
48012

>  <i_f3d_flags>  (137) 
0

>  <s_epik_input>  (137) 
czFbY0hdW2NIXW5jMS1uKGMyW09IXSljKFtPSF0pYyhjMjMpW0NAQEhdNGM1YyhbY0hdW2NIXVtjSF1bY0hdNSlbQ0BIXTNjNmM0W2NIXVtjSF1bY0hdW2NIXTY=

>  <s_epik_cmdline>  (137) 
J2VwaWtfcHl0aG9uJywgJy1waHQnLCAnMi4wJywgJy1waCcsICc3LjAnLCAnLXRuJywgJzgnLCAnLW1hJywgJzIwMCcsICctaW1hZScsICc8aW5maWxlLm1hZT4nLCAnLW9tYWUnLCAnPG91dGZpbGUubWFlPic=

>  <r_lp_tautomer_probability>  (137) 
1

>  <r_epik_Ionization_Penalty>  (137) 
0.000136218

>  <r_epik_Ionization_Penalty_Charging>  (137) 
0

>  <r_epik_Ionization_Penalty_Neutral>  (137) 
0.000136218

>  <r_epik_State_Penalty>  (137) 
-0

>  <r_epik_Charging_Adjusted_Penalty>  (137) 
0

>  <i_epik_Tot_Q>  (137) 
0

>  <i_epik_Tot_abs_Q>  (137) 
0

>  <s_lp_Force_Field>  (137) 
OPLS3e

>  <r_lp_Energy>  (137) 
59.7179

>  <b_lp_Chiralities_Consistent>  (137) 
1

>  <s_lp_Variant>  (137) 
29:0-1

>  <s_i_glide_gridfile>  (137) 
pfpi4k_grid

>  <i_i_glide_lignum>  (137) 
8

>  <i_i_glide_rotatable_bonds>  (137) 
1

>  <r_i_docking_score>  (137) 
-3.81914

>  <r_i_glide_ligand_efficiency>  (137) 
-0.14689

>  <r_i_glide_ligand_efficiency_sa>  (137) 
-0.435161

>  <r_i_glide_ligand_efficiency_ln>  (137) 
-0.896913

>  <r_i_glide_gscore>  (137) 
-3.81914

>  <r_i_glide_lipo>  (137) 
-0.971979

>  <r_i_glide_hbond>  (137) 
-0.0740189

>  <r_i_glide_metal>  (137) 
-0

>  <r_i_glide_rewards>  (137) 
-1.02185

>  <r_i_glide_evdw>  (137) 
-28.1307

>  <r_i_glide_ecoul>  (137) 
-3.29123

>  <r_i_glide_erotb>  (137) 
0.149116

>  <r_i_glide_esite>  (137) 
-0.000187009

>  <r_i_glide_emodel>  (137) 
-40.3757

>  <r_i_glide_energy>  (137) 
-31.4219

>  <r_i_glide_einternal>  (137) 
0.0143236

>  <r_i_glide_intrahb_reward>  (137) 
-0

>  <i_i_glide_confnum>  (137) 
1

>  <i_i_glide_posenum>  (137) 
20

>  <r_i_glide_eff_state_penalty>  (137) 
0

>  <ligand_id>  (137) 
29

>  <original_smiles>  (137) 
Oc1c2c(c(O)n1-c1nccs1)C1c3ccccc3C2c2ccccc21

>  <smiles>  (137) 
[H]c1nc(N2C(=O)C3([H])C4([H])c5c([H])c([H])c([H])c([H])c5C([H])(c5c([H])c([H])c([H])c([H])c54)C3([H])C2=O)sc1[H]

$$$$
29:0:2
     RDKit          3D

 40 45  0  0  1  0  0  0  0  0999 V2000
    4.4022   -0.8124    3.0440 O   0  0  0  0  0  0  0  0  0  0  0  0
    3.7807   -1.6822    2.4365 C   0  0  0  0  0  0  0  0  0  0  0  0
    3.5700   -1.6054    0.9353 C   0  0  2  0  0  0  0  0  0  0  0  0
    2.7718   -2.9058    0.6381 C   0  0  2  0  0  0  0  0  0  0  0  0
    2.6256   -3.5394    2.0085 C   0  0  0  0  0  0  0  0  0  0  0  0
    2.0521   -4.6193    2.1604 O   0  0  0  0  0  0  0  0  0  0  0  0
    3.1992   -2.7792    2.9504 N   0  0  0  0  0  0  0  0  0  0  0  0
    3.1901   -3.1146    4.3268 C   0  0  0  0  0  0  0  0  0  0  0  0
    4.3038   -3.1274    5.0685 N   0  0  0  0  0  0  0  0  0  0  0  0
    4.0388   -3.4954    6.3896 C   0  0  0  0  0  0  0  0  0  0  0  0
    2.7163   -3.7680    6.6364 C   0  0  0  0  0  0  0  0  0  0  0  0
    1.7367   -3.5651    5.2111 S   0  0  0  0  0  0  0  0  0  0  0  0
    3.4994   -3.7907   -0.4141 C   0  0  2  0  0  0  0  0  0  0  0  0
    4.9134   -4.0482    0.1021 C   0  0  0  0  0  0  0  0  0  0  0  0
    5.4728   -5.3192    0.3255 C   0  0  0  0  0  0  0  0  0  0  0  0
    6.7949   -5.4003    0.8118 C   0  0  0  0  0  0  0  0  0  0  0  0
    7.5363   -4.2257    1.0673 C   0  0  0  0  0  0  0  0  0  0  0  0
    6.9638   -2.9531    0.8519 C   0  0  0  0  0  0  0  0  0  0  0  0
    5.6483   -2.8745    0.3683 C   0  0  0  0  0  0  0  0  0  0  0  0
    4.8853   -1.5733    0.1000 C   0  0  1  0  0  0  0  0  0  0  0  0
    4.4100   -1.6939   -1.3451 C   0  0  0  0  0  0  0  0  0  0  0  0
    4.6242   -0.7487   -2.3552 C   0  0  0  0  0  0  0  0  0  0  0  0
    4.1328   -0.9915   -3.6494 C   0  0  0  0  0  0  0  0  0  0  0  0
    3.4020   -2.1644   -3.9156 C   0  0  0  0  0  0  0  0  0  0  0  0
    3.1497   -3.0977   -2.8985 C   0  0  0  0  0  0  0  0  0  0  0  0
    3.6756   -2.8681   -1.6171 C   0  0  0  0  0  0  0  0  0  0  0  0
    2.9605   -0.7246    0.7224 H   0  0  0  0  0  0  0  0  0  0  0  0
    1.7840   -2.6555    0.2733 H   0  0  0  0  0  0  0  0  0  0  0  0
    4.8696   -3.5350    7.0831 H   0  0  0  0  0  0  0  0  0  0  0  0
    2.2591   -4.0772    7.5633 H   0  0  0  0  0  0  0  0  0  0  0  0
    2.9559   -4.7054   -0.6546 H   0  0  0  0  0  0  0  0  0  0  0  0
    4.9063   -6.2150    0.1157 H   0  0  0  0  0  0  0  0  0  0  0  0
    7.2480   -6.3666    0.9775 H   0  0  0  0  0  0  0  0  0  0  0  0
    8.5466   -4.3007    1.4417 H   0  0  0  0  0  0  0  0  0  0  0  0
    7.5193   -2.0516    1.0595 H   0  0  0  0  0  0  0  0  0  0  0  0
    5.4862   -0.6786    0.2761 H   0  0  0  0  0  0  0  0  0  0  0  0
    5.1852    0.1446   -2.1500 H   0  0  0  0  0  0  0  0  0  0  0  0
    4.3115   -0.2778   -4.4383 H   0  0  0  0  0  0  0  0  0  0  0  0
    3.0230   -2.3589   -4.8993 H   0  0  0  0  0  0  0  0  0  0  0  0
    2.5625   -3.9753   -3.1157 H   0  0  0  0  0  0  0  0  0  0  0  0
  1  2  2  0
  2  3  1  0
  2  7  1  0
  3 20  1  0
  3 27  1  1
  3  4  1  0
  4 13  1  0
  4 28  1  6
  4  5  1  0
  5  6  2  0
  5  7  1  0
  7  8  1  0
  8 12  1  0
  8  9  2  0
  9 10  1  0
 10 11  2  0
 10 29  1  0
 11 12  1  0
 11 30  1  0
 13 26  1  0
 13 14  1  0
 13 31  1  6
 14 19  2  0
 14 15  1  0
 15 16  2  0
 15 32  1  0
 16 17  1  0
 16 33  1  0
 17 18  2  0
 17 34  1  0
 18 19  1  0
 18 35  1  0
 19 20  1  0
 20 21  1  0
 20 36  1  6
 21 26  2  0
 21 22  1  0
 22 23  2  0
 22 37  1  0
 23 24  1  0
 23 38  1  0
 24 25  2  0
 24 39  1  0
 25 26  1  0
 25 40  1  0
M  END
>  <i_m_ct_stereo_status>  (138) 
1

>  <s_m_source_file>  (138) 
/var/tmp/pbs.5102103.sched01/tmprp2a6t7u/44c8wyhmqh.sdf

>  <i_m_source_file_index>  (138) 
8

>  <i_lp_mmshare_version>  (138) 
48012

>  <i_f3d_flags>  (138) 
0

>  <s_epik_input>  (138) 
czFbY0hdW2NIXW5jMS1uKGMyW09IXSljKFtPSF0pYyhjMjMpW0NAQEhdNGM1YyhbY0hdW2NIXVtjSF1bY0hdNSlbQ0BIXTNjNmM0W2NIXVtjSF1bY0hdW2NIXTY=

>  <s_epik_cmdline>  (138) 
J2VwaWtfcHl0aG9uJywgJy1waHQnLCAnMi4wJywgJy1waCcsICc3LjAnLCAnLXRuJywgJzgnLCAnLW1hJywgJzIwMCcsICctaW1hZScsICc8aW5maWxlLm1hZT4nLCAnLW9tYWUnLCAnPG91dGZpbGUubWFlPic=

>  <r_lp_tautomer_probability>  (138) 
1

>  <r_epik_Ionization_Penalty>  (138) 
0.000136218

>  <r_epik_Ionization_Penalty_Charging>  (138) 
0

>  <r_epik_Ionization_Penalty_Neutral>  (138) 
0.000136218

>  <r_epik_State_Penalty>  (138) 
-0

>  <r_epik_Charging_Adjusted_Penalty>  (138) 
0

>  <i_epik_Tot_Q>  (138) 
0

>  <i_epik_Tot_abs_Q>  (138) 
0

>  <s_lp_Force_Field>  (138) 
OPLS3e

>  <r_lp_Energy>  (138) 
59.7179

>  <b_lp_Chiralities_Consistent>  (138) 
1

>  <s_lp_Variant>  (138) 
29:0-1

>  <s_i_glide_gridfile>  (138) 
pfpi4k_grid

>  <i_i_glide_lignum>  (138) 
8

>  <i_i_glide_rotatable_bonds>  (138) 
1

>  <r_i_docking_score>  (138) 
-3.36444

>  <r_i_glide_ligand_efficiency>  (138) 
-0.129402

>  <r_i_glide_ligand_efficiency_sa>  (138) 
-0.383352

>  <r_i_glide_ligand_efficiency_ln>  (138) 
-0.790128

>  <r_i_glide_gscore>  (138) 
-3.36444

>  <r_i_glide_lipo>  (138) 
-0.821359

>  <r_i_glide_hbond>  (138) 
0

>  <r_i_glide_metal>  (138) 
-0

>  <r_i_glide_rewards>  (138) 
-0.965417

>  <r_i_glide_evdw>  (138) 
-25.8377

>  <r_i_glide_ecoul>  (138) 
-2.85838

>  <r_i_glide_erotb>  (138) 
0.149116

>  <r_i_glide_esite>  (138) 
-0.00613942

>  <r_i_glide_emodel>  (138) 
-36.6036

>  <r_i_glide_energy>  (138) 
-28.6961

>  <r_i_glide_einternal>  (138) 
0.00149366

>  <r_i_glide_intrahb_reward>  (138) 
-0

>  <i_i_glide_confnum>  (138) 
1

>  <i_i_glide_posenum>  (138) 
26

>  <r_i_glide_eff_state_penalty>  (138) 
0

>  <ligand_id>  (138) 
29

>  <original_smiles>  (138) 
Oc1c2c(c(O)n1-c1nccs1)C1c3ccccc3C2c2ccccc21

>  <smiles>  (138) 
[H]c1nc(N2C(=O)C3([H])C4([H])c5c([H])c([H])c([H])c([H])c5C([H])(c5c([H])c([H])c([H])c([H])c54)C3([H])C2=O)sc1[H]

$$$$
30:0:0
     RDKit          3D

 29 31  0  0  1  0  0  0  0  0999 V2000
    1.7274    7.1691    4.7394 C   0  0  0  0  0  0  0  0  0  0  0  0
    1.0689    5.9165    5.0339 N   0  0  0  0  0  0  0  0  0  0  0  0
    0.2180    5.8749    6.0935 N   0  0  0  0  0  0  0  0  0  0  0  0
   -0.2349    4.6426    6.1690 C   0  0  0  0  0  0  0  0  0  0  0  0
   -1.1624    4.3700    7.2775 C   0  0  0  0  0  0  0  0  0  0  0  0
   -1.3512    5.0826    8.4374 C   0  0  0  0  0  0  0  0  0  0  0  0
   -2.3696    4.5404    9.2822 C   0  0  0  0  0  0  0  0  0  0  0  0
   -2.9528    3.4165    8.7614 C   0  0  0  0  0  0  0  0  0  0  0  0
   -2.3024    3.0508    7.1890 S   0  0  0  0  0  0  0  0  0  0  0  0
    0.3216    3.8406    5.1005 C   0  0  0  0  0  0  0  0  0  0  0  0
    0.2744    2.5206    4.6019 C   0  0  0  0  0  0  0  0  0  0  0  0
   -0.4995    1.5774    5.2246 O   0  0  0  0  0  0  0  0  0  0  0  0
   -0.6732    0.2879    4.6462 C   0  0  0  0  0  0  0  0  0  0  0  0
   -1.6250   -0.5083    5.5463 C   0  0  0  0  0  0  0  0  0  0  0  0
   -2.1920    0.1073    6.4712 O   0  0  0  0  0  0  0  0  0  0  0  0
   -1.7737   -1.7272    5.3239 O   0  0  0  0  0  0  0  0  0  0  0  0
    1.0221    2.1862    3.5241 N   0  0  0  0  0  0  0  0  0  0  0  0
    1.7896    3.1119    2.9478 C   0  0  0  0  0  0  0  0  0  0  0  0
    1.9758    4.3804    3.3137 N   0  0  0  0  0  0  0  0  0  0  0  0
    1.1888    4.7011    4.3854 C   0  0  0  0  0  0  0  0  0  0  0  0
    2.3725    7.0512    3.8700 H   0  0  0  0  0  0  0  0  0  0  0  0
    2.3291    7.4780    5.5929 H   0  0  0  0  0  0  0  0  0  0  0  0
    0.9842    7.9336    4.5210 H   0  0  0  0  0  0  0  0  0  0  0  0
   -0.8051    5.9808    8.7005 H   0  0  0  0  0  0  0  0  0  0  0  0
   -2.6316    4.9844   10.2315 H   0  0  0  0  0  0  0  0  0  0  0  0
   -3.7224    2.7972    9.2018 H   0  0  0  0  0  0  0  0  0  0  0  0
   -1.1125    0.3665    3.6499 H   0  0  0  0  0  0  0  0  0  0  0  0
    0.2790   -0.2400    4.5759 H   0  0  0  0  0  0  0  0  0  0  0  0
    2.3502    2.7771    2.0886 H   0  0  0  0  0  0  0  0  0  0  0  0
  1  2  1  0
  1 21  1  0
  1 22  1  0
  1 23  1  0
  2 20  1  0
  2  3  1  0
  3  4  2  0
  4  5  1  0
  4 10  1  0
  5  9  1  0
  5  6  2  0
  6  7  1  0
  6 24  1  0
  7  8  2  0
  7 25  1  0
  8  9  1  0
  8 26  1  0
 10 20  2  0
 10 11  1  0
 11 12  1  0
 11 17  2  0
 12 13  1  0
 13 14  1  0
 13 27  1  0
 13 28  1  0
 14 15  2  0
 14 16  1  0
 17 18  1  0
 18 19  2  0
 18 29  1  0
 19 20  1  0
M  CHG  1  16  -1
M  END
>  <i_m_ct_stereo_status>  (139) 
1

>  <s_m_source_file>  (139) 
/var/tmp/pbs.5102103.sched01/tmprp2a6t7u/44c8wyhmqh.sdf

>  <i_m_source_file_index>  (139) 
9

>  <i_lp_mmshare_version>  (139) 
48012

>  <i_f3d_flags>  (139) 
0

>  <s_epik_input>  (139) 
czFbY0hdW2NIXVtjSF1jMS1jMm5uKFtDSDNdKWMoYzIzKW5bY0hdbmMzT1tDSDJdQyg9TylbT0hd

>  <s_epik_cmdline>  (139) 
J2VwaWtfcHl0aG9uJywgJy1waHQnLCAnMi4wJywgJy1waCcsICc3LjAnLCAnLXRuJywgJzgnLCAnLW1hJywgJzIwMCcsICctaW1hZScsICc8aW5maWxlLm1hZT4nLCAnLW9tYWUnLCAnPG91dGZpbGUubWFlPic=

>  <r_lp_tautomer_probability>  (139) 
1

>  <r_epik_Ionization_Penalty>  (139) 
3.46484e-05

>  <r_epik_Ionization_Penalty_Charging>  (139) 
2.95772e-05

>  <r_epik_Ionization_Penalty_Neutral>  (139) 
5.0712e-06

>  <r_epik_State_Penalty>  (139) 
-0

>  <r_epik_Charging_Adjusted_Penalty>  (139) 
2.95772e-05

>  <i_epik_Tot_Q>  (139) 
-1

>  <i_epik_Tot_abs_Q>  (139) 
1

>  <s_lp_Force_Field>  (139) 
OPLS3e

>  <r_lp_Energy>  (139) 
28.6782

>  <b_lp_Chiralities_Consistent>  (139) 
1

>  <s_lp_Variant>  (139) 
30:0-1

>  <s_i_glide_gridfile>  (139) 
pfpi4k_grid

>  <i_i_glide_lignum>  (139) 
9

>  <i_i_glide_rotatable_bonds>  (139) 
4

>  <r_i_docking_score>  (139) 
-3.29994

>  <r_i_glide_ligand_efficiency>  (139) 
-0.164997

>  <r_i_glide_ligand_efficiency_sa>  (139) 
-0.447871

>  <r_i_glide_ligand_efficiency_ln>  (139) 
-0.825867

>  <r_i_glide_gscore>  (139) 
-3.29994

>  <r_i_glide_lipo>  (139) 
-0.165896

>  <r_i_glide_hbond>  (139) 
-0.2

>  <r_i_glide_metal>  (139) 
-0

>  <r_i_glide_rewards>  (139) 
-1.43665

>  <r_i_glide_evdw>  (139) 
-19.4339

>  <r_i_glide_ecoul>  (139) 
-6.62592

>  <r_i_glide_erotb>  (139) 
0.652647

>  <r_i_glide_esite>  (139) 
-0.184461

>  <r_i_glide_emodel>  (139) 
-33.1029

>  <r_i_glide_energy>  (139) 
-26.0598

>  <r_i_glide_einternal>  (139) 
3.43513

>  <r_i_glide_intrahb_reward>  (139) 
-0

>  <i_i_glide_confnum>  (139) 
6

>  <i_i_glide_posenum>  (139) 
1

>  <r_i_glide_eff_state_penalty>  (139) 
0

>  <ligand_id>  (139) 
30

>  <original_smiles>  (139) 
Cn1nc(-c2cccs2)c2c(OCC(=O)O)ncnc21

>  <smiles>  (139) 
[H]c1nc(OC([H])([H])C(=O)[O-])c2c(-c3sc([H])c([H])c3[H])nn(C([H])([H])[H])c2n1

$$$$
30:0:1
     RDKit          3D

 29 31  0  0  1  0  0  0  0  0999 V2000
    2.4074    6.4688    3.8451 C   0  0  0  0  0  0  0  0  0  0  0  0
    1.6028    5.3545    4.2849 N   0  0  0  0  0  0  0  0  0  0  0  0
    0.7947    5.5260    5.3573 N   0  0  0  0  0  0  0  0  0  0  0  0
    0.1766    4.3844    5.5590 C   0  0  0  0  0  0  0  0  0  0  0  0
   -0.7398    4.3417    6.7048 C   0  0  0  0  0  0  0  0  0  0  0  0
   -0.7667    5.1614    7.8129 C   0  0  0  0  0  0  0  0  0  0  0  0
   -1.8207    4.8415    8.7217 C   0  0  0  0  0  0  0  0  0  0  0  0
   -2.5819    3.7812    8.3099 C   0  0  0  0  0  0  0  0  0  0  0  0
   -2.0565    3.1962    6.7585 S   0  0  0  0  0  0  0  0  0  0  0  0
    0.5924    3.4098    4.5760 C   0  0  0  0  0  0  0  0  0  0  0  0
    0.3715    2.0649    4.2263 C   0  0  0  0  0  0  0  0  0  0  0  0
   -0.4891    1.2977    4.9668 O   0  0  0  0  0  0  0  0  0  0  0  0
   -0.7418   -0.0514    4.5944 C   0  0  0  0  0  0  0  0  0  0  0  0
   -1.6667   -0.6455    5.6582 C   0  0  0  0  0  0  0  0  0  0  0  0
   -2.1879    0.1446    6.4762 O   0  0  0  0  0  0  0  0  0  0  0  0
   -1.8429   -1.8789    5.6852 O   0  0  0  0  0  0  0  0  0  0  0  0
    1.0377    1.5190    3.1800 N   0  0  0  0  0  0  0  0  0  0  0  0
    1.8951    2.2802    2.4980 C   0  0  0  0  0  0  0  0  0  0  0  0
    2.2528    3.5414    2.7338 N   0  0  0  0  0  0  0  0  0  0  0  0
    1.5432    4.0738    3.7645 C   0  0  0  0  0  0  0  0  0  0  0  0
    3.0024    6.1739    2.9871 H   0  0  0  0  0  0  0  0  0  0  0  0
    3.0664    6.7847    4.6488 H   0  0  0  0  0  0  0  0  0  0  0  0
    1.7608    7.2952    3.5656 H   0  0  0  0  0  0  0  0  0  0  0  0
   -0.0799    5.9798    7.9836 H   0  0  0  0  0  0  0  0  0  0  0  0
   -1.9776    5.3969    9.6339 H   0  0  0  0  0  0  0  0  0  0  0  0
   -3.4222    3.3254    8.8181 H   0  0  0  0  0  0  0  0  0  0  0  0
   -1.2436   -0.0982    3.6265 H   0  0  0  0  0  0  0  0  0  0  0  0
    0.1753   -0.6432    4.5535 H   0  0  0  0  0  0  0  0  0  0  0  0
    2.3902    1.7780    1.6840 H   0  0  0  0  0  0  0  0  0  0  0  0
  1  2  1  0
  1 21  1  0
  1 22  1  0
  1 23  1  0
  2 20  1  0
  2  3  1  0
  3  4  2  0
  4  5  1  0
  4 10  1  0
  5  9  1  0
  5  6  2  0
  6  7  1  0
  6 24  1  0
  7  8  2  0
  7 25  1  0
  8  9  1  0
  8 26  1  0
 10 20  2  0
 10 11  1  0
 11 12  1  0
 11 17  2  0
 12 13  1  0
 13 14  1  0
 13 27  1  0
 13 28  1  0
 14 15  2  0
 14 16  1  0
 17 18  1  0
 18 19  2  0
 18 29  1  0
 19 20  1  0
M  CHG  1  16  -1
M  END
>  <i_m_ct_stereo_status>  (140) 
1

>  <s_m_source_file>  (140) 
/var/tmp/pbs.5102103.sched01/tmprp2a6t7u/44c8wyhmqh.sdf

>  <i_m_source_file_index>  (140) 
9

>  <i_lp_mmshare_version>  (140) 
48012

>  <i_f3d_flags>  (140) 
0

>  <s_epik_input>  (140) 
czFbY0hdW2NIXVtjSF1jMS1jMm5uKFtDSDNdKWMoYzIzKW5bY0hdbmMzT1tDSDJdQyg9TylbT0hd

>  <s_epik_cmdline>  (140) 
J2VwaWtfcHl0aG9uJywgJy1waHQnLCAnMi4wJywgJy1waCcsICc3LjAnLCAnLXRuJywgJzgnLCAnLW1hJywgJzIwMCcsICctaW1hZScsICc8aW5maWxlLm1hZT4nLCAnLW9tYWUnLCAnPG91dGZpbGUubWFlPic=

>  <r_lp_tautomer_probability>  (140) 
1

>  <r_epik_Ionization_Penalty>  (140) 
3.46484e-05

>  <r_epik_Ionization_Penalty_Charging>  (140) 
2.95772e-05

>  <r_epik_Ionization_Penalty_Neutral>  (140) 
5.0712e-06

>  <r_epik_State_Penalty>  (140) 
-0

>  <r_epik_Charging_Adjusted_Penalty>  (140) 
2.95772e-05

>  <i_epik_Tot_Q>  (140) 
-1

>  <i_epik_Tot_abs_Q>  (140) 
1

>  <s_lp_Force_Field>  (140) 
OPLS3e

>  <r_lp_Energy>  (140) 
28.6782

>  <b_lp_Chiralities_Consistent>  (140) 
1

>  <s_lp_Variant>  (140) 
30:0-1

>  <s_i_glide_gridfile>  (140) 
pfpi4k_grid

>  <i_i_glide_lignum>  (140) 
9

>  <i_i_glide_rotatable_bonds>  (140) 
4

>  <r_i_docking_score>  (140) 
-3.21805

>  <r_i_glide_ligand_efficiency>  (140) 
-0.160902

>  <r_i_glide_ligand_efficiency_sa>  (140) 
-0.436756

>  <r_i_glide_ligand_efficiency_ln>  (140) 
-0.805371

>  <r_i_glide_gscore>  (140) 
-3.21805

>  <r_i_glide_lipo>  (140) 
-0.158118

>  <r_i_glide_hbond>  (140) 
-0.2

>  <r_i_glide_metal>  (140) 
-0

>  <r_i_glide_rewards>  (140) 
-1.43665

>  <r_i_glide_evdw>  (140) 
-19.6189

>  <r_i_glide_ecoul>  (140) 
-6.02039

>  <r_i_glide_erotb>  (140) 
0.652647

>  <r_i_glide_esite>  (140) 
-0.191917

>  <r_i_glide_emodel>  (140) 
-32.4828

>  <r_i_glide_energy>  (140) 
-25.6393

>  <r_i_glide_einternal>  (140) 
3.39843

>  <r_i_glide_intrahb_reward>  (140) 
-0

>  <i_i_glide_confnum>  (140) 
6

>  <i_i_glide_posenum>  (140) 
22

>  <r_i_glide_eff_state_penalty>  (140) 
0

>  <ligand_id>  (140) 
30

>  <original_smiles>  (140) 
Cn1nc(-c2cccs2)c2c(OCC(=O)O)ncnc21

>  <smiles>  (140) 
[H]c1nc(OC([H])([H])C(=O)[O-])c2c(-c3sc([H])c([H])c3[H])nn(C([H])([H])[H])c2n1

$$$$
30:0:2
     RDKit          3D

 29 31  0  0  1  0  0  0  0  0999 V2000
   -3.2106    3.6104    2.9116 C   0  0  0  0  0  0  0  0  0  0  0  0
   -2.3996    2.9022    3.8811 N   0  0  0  0  0  0  0  0  0  0  0  0
   -2.5800    3.1627    5.2011 N   0  0  0  0  0  0  0  0  0  0  0  0
   -1.7467    2.3825    5.8619 C   0  0  0  0  0  0  0  0  0  0  0  0
   -1.7457    2.4437    7.3326 C   0  0  0  0  0  0  0  0  0  0  0  0
   -0.8591    1.8822    8.2215 C   0  0  0  0  0  0  0  0  0  0  0  0
   -1.1610    2.1549    9.5832 C   0  0  0  0  0  0  0  0  0  0  0  0
   -2.2785    2.9267    9.7378 C   0  0  0  0  0  0  0  0  0  0  0  0
   -2.9845    3.3391    8.1974 S   0  0  0  0  0  0  0  0  0  0  0  0
   -0.9742    1.5852    4.9444 C   0  0  0  0  0  0  0  0  0  0  0  0
    0.0413    0.5955    4.9509 C   0  0  0  0  0  0  0  0  0  0  0  0
    0.6378    0.1802    6.1162 O   0  0  0  0  0  0  0  0  0  0  0  0
    0.9992   -1.1967    6.2535 C   0  0  0  0  0  0  0  0  0  0  0  0
   -0.1886   -1.9826    6.8186 C   0  0  0  0  0  0  0  0  0  0  0  0
   -1.1378   -2.2526    6.0513 O   0  0  0  0  0  0  0  0  0  0  0  0
   -0.1823   -2.2515    8.0430 O   0  0  0  0  0  0  0  0  0  0  0  0
    0.5048    0.1075    3.7775 N   0  0  0  0  0  0  0  0  0  0  0  0
   -0.0103    0.5615    2.6349 C   0  0  0  0  0  0  0  0  0  0  0  0
   -0.9864    1.4509    2.4623 N   0  0  0  0  0  0  0  0  0  0  0  0
   -1.4263    1.9460    3.6526 C   0  0  0  0  0  0  0  0  0  0  0  0
   -2.9594    3.2928    1.9018 H   0  0  0  0  0  0  0  0  0  0  0  0
   -3.0263    4.6803    2.9937 H   0  0  0  0  0  0  0  0  0  0  0  0
   -4.2639    3.3892    3.0797 H   0  0  0  0  0  0  0  0  0  0  0  0
    0.0122    1.2998    7.9792 H   0  0  0  0  0  0  0  0  0  0  0  0
   -0.5476    1.7777   10.3868 H   0  0  0  0  0  0  0  0  0  0  0  0
   -2.7151    3.2635   10.6726 H   0  0  0  0  0  0  0  0  0  0  0  0
    1.3625   -1.6633    5.3376 H   0  0  0  0  0  0  0  0  0  0  0  0
    1.8225   -1.2374    6.9613 H   0  0  0  0  0  0  0  0  0  0  0  0
    0.3979    0.1260    1.7356 H   0  0  0  0  0  0  0  0  0  0  0  0
  1  2  1  0
  1 21  1  0
  1 22  1  0
  1 23  1  0
  2 20  1  0
  2  3  1  0
  3  4  2  0
  4  5  1  0
  4 10  1  0
  5  9  1  0
  5  6  2  0
  6  7  1  0
  6 24  1  0
  7  8  2  0
  7 25  1  0
  8  9  1  0
  8 26  1  0
 10 20  2  0
 10 11  1  0
 11 12  1  0
 11 17  2  0
 12 13  1  0
 13 14  1  0
 13 27  1  0
 13 28  1  0
 14 15  2  0
 14 16  1  0
 17 18  1  0
 18 19  2  0
 18 29  1  0
 19 20  1  0
M  CHG  1  16  -1
M  END
>  <i_m_ct_stereo_status>  (141) 
1

>  <s_m_source_file>  (141) 
/var/tmp/pbs.5102103.sched01/tmprp2a6t7u/44c8wyhmqh.sdf

>  <i_m_source_file_index>  (141) 
9

>  <i_lp_mmshare_version>  (141) 
48012

>  <i_f3d_flags>  (141) 
0

>  <s_epik_input>  (141) 
czFbY0hdW2NIXVtjSF1jMS1jMm5uKFtDSDNdKWMoYzIzKW5bY0hdbmMzT1tDSDJdQyg9TylbT0hd

>  <s_epik_cmdline>  (141) 
J2VwaWtfcHl0aG9uJywgJy1waHQnLCAnMi4wJywgJy1waCcsICc3LjAnLCAnLXRuJywgJzgnLCAnLW1hJywgJzIwMCcsICctaW1hZScsICc8aW5maWxlLm1hZT4nLCAnLW9tYWUnLCAnPG91dGZpbGUubWFlPic=

>  <r_lp_tautomer_probability>  (141) 
1

>  <r_epik_Ionization_Penalty>  (141) 
3.46484e-05

>  <r_epik_Ionization_Penalty_Charging>  (141) 
2.95772e-05

>  <r_epik_Ionization_Penalty_Neutral>  (141) 
5.0712e-06

>  <r_epik_State_Penalty>  (141) 
-0

>  <r_epik_Charging_Adjusted_Penalty>  (141) 
2.95772e-05

>  <i_epik_Tot_Q>  (141) 
-1

>  <i_epik_Tot_abs_Q>  (141) 
1

>  <s_lp_Force_Field>  (141) 
OPLS3e

>  <r_lp_Energy>  (141) 
28.6782

>  <b_lp_Chiralities_Consistent>  (141) 
1

>  <s_lp_Variant>  (141) 
30:0-1

>  <s_i_glide_gridfile>  (141) 
pfpi4k_grid

>  <i_i_glide_lignum>  (141) 
9

>  <i_i_glide_rotatable_bonds>  (141) 
4

>  <r_i_docking_score>  (141) 
-2.97221

>  <r_i_glide_ligand_efficiency>  (141) 
-0.14861

>  <r_i_glide_ligand_efficiency_sa>  (141) 
-0.403391

>  <r_i_glide_ligand_efficiency_ln>  (141) 
-0.743846

>  <r_i_glide_gscore>  (141) 
-2.97221

>  <r_i_glide_lipo>  (141) 
-0.130945

>  <r_i_glide_hbond>  (141) 
-0.145161

>  <r_i_glide_metal>  (141) 
-0

>  <r_i_glide_rewards>  (141) 
-1.43665

>  <r_i_glide_evdw>  (141) 
-22.7418

>  <r_i_glide_ecoul>  (141) 
-4.07555

>  <r_i_glide_erotb>  (141) 
0.652647

>  <r_i_glide_esite>  (141) 
-0.163676

>  <r_i_glide_emodel>  (141) 
-33.5453

>  <r_i_glide_energy>  (141) 
-26.8173

>  <r_i_glide_einternal>  (141) 
2.68422

>  <r_i_glide_intrahb_reward>  (141) 
-0

>  <i_i_glide_confnum>  (141) 
6

>  <i_i_glide_posenum>  (141) 
15

>  <r_i_glide_eff_state_penalty>  (141) 
0

>  <ligand_id>  (141) 
30

>  <original_smiles>  (141) 
Cn1nc(-c2cccs2)c2c(OCC(=O)O)ncnc21

>  <smiles>  (141) 
[H]c1nc(OC([H])([H])C(=O)[O-])c2c(-c3sc([H])c([H])c3[H])nn(C([H])([H])[H])c2n1

$$$$
31:0:0
     RDKit          3D

 37 41  0  0  1  0  0  0  0  0999 V2000
    1.0430   -5.9565    0.5409 O   0  0  0  0  0  0  0  0  0  0  0  0
    2.2247   -5.9529    0.9094 C   0  0  0  0  0  0  0  0  0  0  0  0
    3.1636   -5.3388    0.1699 N   0  0  0  0  0  0  0  0  0  0  0  0
    4.5352   -5.2374    0.5306 C   0  0  0  0  0  0  0  0  0  0  0  0
    5.0647   -5.9974    1.5981 C   0  0  0  0  0  0  0  0  0  0  0  0
    6.4307   -5.8719    1.9732 C   0  0  0  0  0  0  0  0  0  0  0  0
    7.2880   -4.9925    1.2721 C   0  0  0  0  0  0  0  0  0  0  0  0
    6.7546   -4.2550    0.1954 C   0  0  0  0  0  0  0  0  0  0  0  0
    5.4155   -4.3831   -0.1678 C   0  0  0  0  0  0  0  0  0  0  0  0
    5.0837   -3.5225   -1.3572 C   0  0  0  0  0  0  0  0  0  0  0  0
    6.3540   -2.6580   -1.5535 C   0  0  0  0  0  0  0  0  0  0  0  0
    7.4835   -3.2894   -0.7000 C   0  0  0  0  0  0  0  0  0  0  0  0
    4.1308   -6.9539    2.3400 C   0  0  2  0  0  0  0  0  0  0  0  0
    4.2220   -8.4309    1.8683 C   0  0  0  0  0  0  0  0  0  0  0  0
    2.9223   -8.9176    2.2277 N   0  0  0  0  0  0  0  0  0  0  0  0
    2.4026  -10.1699    2.5009 C   0  0  0  0  0  0  0  0  0  0  0  0
    1.0822   -9.9661    2.8111 C   0  0  0  0  0  0  0  0  0  0  0  0
    0.8103   -8.5587    2.7351 C   0  0  0  0  0  0  0  0  0  0  0  0
    1.9875   -7.9502    2.4129 C   0  0  0  0  0  0  0  0  0  0  0  0
    2.6115   -6.6038    2.2562 C   0  0  2  0  0  0  0  0  0  0  0  0
    2.2623   -5.7323    3.3075 O   0  0  0  0  0  0  0  0  0  0  0  0
    2.9068   -4.9134   -0.7172 H   0  0  0  0  0  0  0  0  0  0  0  0
    6.8218   -6.4561    2.8033 H   0  0  0  0  0  0  0  0  0  0  0  0
    8.3292   -4.8885    1.5536 H   0  0  0  0  0  0  0  0  0  0  0  0
    4.9135   -4.1759   -2.2137 H   0  0  0  0  0  0  0  0  0  0  0  0
    4.1857   -2.9242   -1.1920 H   0  0  0  0  0  0  0  0  0  0  0  0
    6.6267   -2.5524   -2.6049 H   0  0  0  0  0  0  0  0  0  0  0  0
    6.1441   -1.6624   -1.1623 H   0  0  0  0  0  0  0  0  0  0  0  0
    8.0576   -2.5555   -0.1337 H   0  0  0  0  0  0  0  0  0  0  0  0
    8.1749   -3.8425   -1.3333 H   0  0  0  0  0  0  0  0  0  0  0  0
    4.4194   -6.9532    3.3930 H   0  0  0  0  0  0  0  0  0  0  0  0
    4.2900   -8.5031    0.7824 H   0  0  0  0  0  0  0  0  0  0  0  0
    5.0250   -9.0141    2.3272 H   0  0  0  0  0  0  0  0  0  0  0  0
    3.0047  -11.0754    2.4610 H   0  0  0  0  0  0  0  0  0  0  0  0
    0.3925  -10.7579    3.0815 H   0  0  0  0  0  0  0  0  0  0  0  0
   -0.1243   -8.0619    2.9352 H   0  0  0  0  0  0  0  0  0  0  0  0
    2.4444   -6.1771    4.1214 H   0  0  0  0  0  0  0  0  0  0  0  0
  1  2  2  0
  2 20  1  0
  2  3  1  0
  3  4  1  0
  3 22  1  0
  4  9  2  0
  4  5  1  0
  5  6  2  0
  5 13  1  0
  6  7  1  0
  6 23  1  0
  7  8  2  0
  7 24  1  0
  8 12  1  0
  8  9  1  0
  9 10  1  0
 10 11  1  0
 10 25  1  0
 10 26  1  0
 11 12  1  0
 11 27  1  0
 11 28  1  0
 12 29  1  0
 12 30  1  0
 13 20  1  0
 13 14  1  0
 13 31  1  1
 14 15  1  0
 14 32  1  0
 14 33  1  0
 15 19  1  0
 15 16  1  0
 16 17  2  0
 16 34  1  0
 17 18  1  0
 17 35  1  0
 18 19  2  0
 18 36  1  0
 19 20  1  0
 20 21  1  1
 21 37  1  0
M  END
>  <i_m_ct_stereo_status>  (142) 
1

>  <s_m_source_file>  (142) 
/var/tmp/pbs.5102103.sched01/tmprp2a6t7u/44c8wyhmqh.sdf

>  <i_m_source_file_index>  (142) 
10

>  <i_lp_mmshare_version>  (142) 
48012

>  <i_f3d_flags>  (142) 
0

>  <s_epik_input>  (142) 
W0NIMl0xW0NIMl1bQ0gyXWMoW2NIXVtjSF0yKWMxYyhbTkhdQzM9TyljMltDQEBIXShbQ0BAXTM0W09IXSlbQ0gyXW41YzRbY0hdW2NIXVtjSF01

>  <s_epik_cmdline>  (142) 
J2VwaWtfcHl0aG9uJywgJy1waHQnLCAnMi4wJywgJy1waCcsICc3LjAnLCAnLXRuJywgJzgnLCAnLW1hJywgJzIwMCcsICctaW1hZScsICc8aW5maWxlLm1hZT4nLCAnLW9tYWUnLCAnPG91dGZpbGUubWFlPic=

>  <r_lp_tautomer_probability>  (142) 
1

>  <r_epik_Ionization_Penalty>  (142) 
1.8194e-05

>  <r_epik_Ionization_Penalty_Charging>  (142) 
0

>  <r_epik_Ionization_Penalty_Neutral>  (142) 
1.8194e-05

>  <r_epik_State_Penalty>  (142) 
-0

>  <r_epik_Charging_Adjusted_Penalty>  (142) 
0

>  <i_epik_Tot_Q>  (142) 
0

>  <i_epik_Tot_abs_Q>  (142) 
0

>  <s_lp_Force_Field>  (142) 
OPLS3e

>  <r_lp_Energy>  (142) 
36.8752

>  <b_lp_Chiralities_Consistent>  (142) 
1

>  <s_lp_Variant>  (142) 
31:0-1

>  <s_i_glide_gridfile>  (142) 
pfpi4k_grid

>  <i_i_glide_lignum>  (142) 
10

>  <i_i_glide_rotatable_bonds>  (142) 
1

>  <r_i_docking_score>  (142) 
-4.55778

>  <r_i_glide_ligand_efficiency>  (142) 
-0.217037

>  <r_i_glide_ligand_efficiency_sa>  (142) 
-0.598789

>  <r_i_glide_ligand_efficiency_ln>  (142) 
-1.1269

>  <r_i_glide_gscore>  (142) 
-4.55778

>  <r_i_glide_lipo>  (142) 
-0.774674

>  <r_i_glide_hbond>  (142) 
-0.224635

>  <r_i_glide_metal>  (142) 
-0

>  <r_i_glide_rewards>  (142) 
-1.49781

>  <r_i_glide_evdw>  (142) 
-23.8229

>  <r_i_glide_ecoul>  (142) 
-5.22549

>  <r_i_glide_erotb>  (142) 
0

>  <r_i_glide_esite>  (142) 
-0.0856947

>  <r_i_glide_emodel>  (142) 
-37.7155

>  <r_i_glide_energy>  (142) 
-29.0484

>  <r_i_glide_einternal>  (142) 
0.000127159

>  <r_i_glide_intrahb_reward>  (142) 
-0

>  <i_i_glide_confnum>  (142) 
1

>  <i_i_glide_posenum>  (142) 
22

>  <r_i_glide_eff_state_penalty>  (142) 
0

>  <ligand_id>  (142) 
31

>  <original_smiles>  (142) 
O=C1Nc2c(ccc3c2CCC3)C2Cn3cccc3C12O

>  <smiles>  (142) 
[H]OC12C(=O)N([H])c3c4c(c([H])c([H])c3C1([H])C([H])([H])n1c([H])c([H])c([H])c12)C([H])([H])C([H])([H])C4([H])[H]

$$$$
31:0:1
     RDKit          3D

 37 41  0  0  1  0  0  0  0  0999 V2000
    1.2492   -5.8766    0.2866 O   0  0  0  0  0  0  0  0  0  0  0  0
    2.2094   -5.1132    0.3320 C   0  0  0  0  0  0  0  0  0  0  0  0
    2.4017   -4.2609   -0.6755 N   0  0  0  0  0  0  0  0  0  0  0  0
    3.4525   -3.3227   -0.7231 C   0  0  0  0  0  0  0  0  0  0  0  0
    4.4654   -3.3123    0.2617 C   0  0  0  0  0  0  0  0  0  0  0  0
    5.4762   -2.3178    0.2374 C   0  0  0  0  0  0  0  0  0  0  0  0
    5.4651   -1.3208   -0.7712 C   0  0  0  0  0  0  0  0  0  0  0  0
    4.4861   -1.3942   -1.7785 C   0  0  0  0  0  0  0  0  0  0  0  0
    3.5221   -2.3840   -1.7688 C   0  0  0  0  0  0  0  0  0  0  0  0
    2.5972   -2.2694   -2.9487 C   0  0  0  0  0  0  0  0  0  0  0  0
    2.9694   -0.8924   -3.5679 C   0  0  0  0  0  0  0  0  0  0  0  0
    4.2975   -0.4768   -2.9497 C   0  0  0  0  0  0  0  0  0  0  0  0
    4.4523   -4.3931    1.3435 C   0  0  2  0  0  0  0  0  0  0  0  0
    5.3985   -5.5927    1.0523 C   0  0  0  0  0  0  0  0  0  0  0  0
    4.7594   -6.6448    1.7882 N   0  0  0  0  0  0  0  0  0  0  0  0
    5.1895   -7.8350    2.3457 C   0  0  0  0  0  0  0  0  0  0  0  0
    4.0849   -8.3736    2.9570 C   0  0  0  0  0  0  0  0  0  0  0  0
    2.9786   -7.4758    2.7769 C   0  0  0  0  0  0  0  0  0  0  0  0
    3.4573   -6.4051    2.0849 C   0  0  0  0  0  0  0  0  0  0  0  0
    3.0657   -5.0422    1.6097 C   0  0  2  0  0  0  0  0  0  0  0  0
    2.3513   -4.3194    2.5942 O   0  0  0  0  0  0  0  0  0  0  0  0
    1.8535   -4.3511   -1.5285 H   0  0  0  0  0  0  0  0  0  0  0  0
    6.2482   -2.3073    1.0035 H   0  0  0  0  0  0  0  0  0  0  0  0
    6.1948   -0.5279   -0.7620 H   0  0  0  0  0  0  0  0  0  0  0  0
    2.7740   -3.0968   -3.6423 H   0  0  0  0  0  0  0  0  0  0  0  0
    1.5550   -2.3364   -2.6329 H   0  0  0  0  0  0  0  0  0  0  0  0
    2.9688   -0.8918   -4.6635 H   0  0  0  0  0  0  0  0  0  0  0  0
    2.2368   -0.1416   -3.2543 H   0  0  0  0  0  0  0  0  0  0  0  0
    4.3328    0.5733   -2.6860 H   0  0  0  0  0  0  0  0  0  0  0  0
    5.0256   -0.7086   -3.6875 H   0  0  0  0  0  0  0  0  0  0  0  0
    4.8003   -3.9449    2.2739 H   0  0  0  0  0  0  0  0  0  0  0  0
    5.3605   -5.8950    0.0036 H   0  0  0  0  0  0  0  0  0  0  0  0
    6.4402   -5.4424    1.3532 H   0  0  0  0  0  0  0  0  0  0  0  0
    6.2227   -8.1722    2.2952 H   0  0  0  0  0  0  0  0  0  0  0  0
    4.0923   -9.3015    3.5135 H   0  0  0  0  0  0  0  0  0  0  0  0
    1.9745   -7.5749    3.1550 H   0  0  0  0  0  0  0  0  0  0  0  0
    2.2316   -3.4348    2.2751 H   0  0  0  0  0  0  0  0  0  0  0  0
  1  2  2  0
  2 20  1  0
  2  3  1  0
  3  4  1  0
  3 22  1  0
  4  9  2  0
  4  5  1  0
  5  6  2  0
  5 13  1  0
  6  7  1  0
  6 23  1  0
  7  8  2  0
  7 24  1  0
  8 12  1  0
  8  9  1  0
  9 10  1  0
 10 11  1  0
 10 25  1  0
 10 26  1  0
 11 12  1  0
 11 27  1  0
 11 28  1  0
 12 29  1  0
 12 30  1  0
 13 20  1  0
 13 14  1  0
 13 31  1  1
 14 15  1  0
 14 32  1  0
 14 33  1  0
 15 19  1  0
 15 16  1  0
 16 17  2  0
 16 34  1  0
 17 18  1  0
 17 35  1  0
 18 19  2  0
 18 36  1  0
 19 20  1  0
 20 21  1  1
 21 37  1  0
M  END
>  <i_m_ct_stereo_status>  (143) 
1

>  <s_m_source_file>  (143) 
/var/tmp/pbs.5102103.sched01/tmprp2a6t7u/44c8wyhmqh.sdf

>  <i_m_source_file_index>  (143) 
10

>  <i_lp_mmshare_version>  (143) 
48012

>  <i_f3d_flags>  (143) 
0

>  <s_epik_input>  (143) 
W0NIMl0xW0NIMl1bQ0gyXWMoW2NIXVtjSF0yKWMxYyhbTkhdQzM9TyljMltDQEBIXShbQ0BAXTM0W09IXSlbQ0gyXW41YzRbY0hdW2NIXVtjSF01

>  <s_epik_cmdline>  (143) 
J2VwaWtfcHl0aG9uJywgJy1waHQnLCAnMi4wJywgJy1waCcsICc3LjAnLCAnLXRuJywgJzgnLCAnLW1hJywgJzIwMCcsICctaW1hZScsICc8aW5maWxlLm1hZT4nLCAnLW9tYWUnLCAnPG91dGZpbGUubWFlPic=

>  <r_lp_tautomer_probability>  (143) 
1

>  <r_epik_Ionization_Penalty>  (143) 
1.8194e-05

>  <r_epik_Ionization_Penalty_Charging>  (143) 
0

>  <r_epik_Ionization_Penalty_Neutral>  (143) 
1.8194e-05

>  <r_epik_State_Penalty>  (143) 
-0

>  <r_epik_Charging_Adjusted_Penalty>  (143) 
0

>  <i_epik_Tot_Q>  (143) 
0

>  <i_epik_Tot_abs_Q>  (143) 
0

>  <s_lp_Force_Field>  (143) 
OPLS3e

>  <r_lp_Energy>  (143) 
36.8752

>  <b_lp_Chiralities_Consistent>  (143) 
1

>  <s_lp_Variant>  (143) 
31:0-1

>  <s_i_glide_gridfile>  (143) 
pfpi4k_grid

>  <i_i_glide_lignum>  (143) 
10

>  <i_i_glide_rotatable_bonds>  (143) 
1

>  <r_i_docking_score>  (143) 
-4.22714

>  <r_i_glide_ligand_efficiency>  (143) 
-0.201292

>  <r_i_glide_ligand_efficiency_sa>  (143) 
-0.555351

>  <r_i_glide_ligand_efficiency_ln>  (143) 
-1.04515

>  <r_i_glide_gscore>  (143) 
-4.22714

>  <r_i_glide_lipo>  (143) 
-0.575728

>  <r_i_glide_hbond>  (143) 
-0.19007

>  <r_i_glide_metal>  (143) 
-0

>  <r_i_glide_rewards>  (143) 
-1.56288

>  <r_i_glide_evdw>  (143) 
-19.6848

>  <r_i_glide_ecoul>  (143) 
-5.24536

>  <r_i_glide_erotb>  (143) 
0

>  <r_i_glide_esite>  (143) 
-0.127417

>  <r_i_glide_emodel>  (143) 
-31.7401

>  <r_i_glide_energy>  (143) 
-24.9302

>  <r_i_glide_einternal>  (143) 
1.01387

>  <r_i_glide_intrahb_reward>  (143) 
-0

>  <i_i_glide_confnum>  (143) 
2

>  <i_i_glide_posenum>  (143) 
19

>  <r_i_glide_eff_state_penalty>  (143) 
0

>  <ligand_id>  (143) 
31

>  <original_smiles>  (143) 
O=C1Nc2c(ccc3c2CCC3)C2Cn3cccc3C12O

>  <smiles>  (143) 
[H]OC12C(=O)N([H])c3c4c(c([H])c([H])c3C1([H])C([H])([H])n1c([H])c([H])c([H])c12)C([H])([H])C([H])([H])C4([H])[H]

$$$$
31:0:2
     RDKit          3D

 37 41  0  0  1  0  0  0  0  0999 V2000
    1.3848   -6.2558    0.5854 O   0  0  0  0  0  0  0  0  0  0  0  0
    2.2247   -5.3693    0.7401 C   0  0  0  0  0  0  0  0  0  0  0  0
    2.6344   -4.6126   -0.2960 N   0  0  0  0  0  0  0  0  0  0  0  0
    3.4806   -3.4828   -0.1968 C   0  0  0  0  0  0  0  0  0  0  0  0
    4.1995   -3.2121    0.9958 C   0  0  0  0  0  0  0  0  0  0  0  0
    5.0293   -2.0683    1.0887 C   0  0  0  0  0  0  0  0  0  0  0  0
    5.1637   -1.1809   -0.0007 C   0  0  0  0  0  0  0  0  0  0  0  0
    4.4484   -1.4726   -1.1785 C   0  0  0  0  0  0  0  0  0  0  0  0
    3.6378   -2.5937   -1.2793 C   0  0  0  0  0  0  0  0  0  0  0  0
    2.9996   -2.6964   -2.6438 C   0  0  0  0  0  0  0  0  0  0  0  0
    3.3602   -1.3583   -3.3275 C   0  0  0  0  0  0  0  0  0  0  0  0
    4.4432   -0.6943   -2.4568 C   0  0  0  0  0  0  0  0  0  0  0  0
    4.0606   -4.1915    2.1539 C   0  0  2  0  0  0  0  0  0  0  0  0
    5.2024   -5.2423    2.2445 C   0  0  0  0  0  0  0  0  0  0  0  0
    4.5496   -6.3063    2.9505 N   0  0  0  0  0  0  0  0  0  0  0  0
    4.9788   -7.3754    3.7122 C   0  0  0  0  0  0  0  0  0  0  0  0
    3.8436   -8.0382    4.1058 C   0  0  0  0  0  0  0  0  0  0  0  0
    2.7092   -7.3465    3.5688 C   0  0  0  0  0  0  0  0  0  0  0  0
    3.1932   -6.2673    2.8843 C   0  0  0  0  0  0  0  0  0  0  0  0
    2.7475   -5.0356    2.1593 C   0  0  2  0  0  0  0  0  0  0  0  0
    1.7363   -4.3600    2.8733 O   0  0  0  0  0  0  0  0  0  0  0  0
    2.2980   -4.8461   -1.2278 H   0  0  0  0  0  0  0  0  0  0  0  0
    5.5777   -1.8790    2.0023 H   0  0  0  0  0  0  0  0  0  0  0  0
    5.7816   -0.2995    0.0685 H   0  0  0  0  0  0  0  0  0  0  0  0
    3.4435   -3.5413   -3.1739 H   0  0  0  0  0  0  0  0  0  0  0  0
    1.9218   -2.8565   -2.5795 H   0  0  0  0  0  0  0  0  0  0  0  0
    3.6306   -1.4596   -4.3794 H   0  0  0  0  0  0  0  0  0  0  0  0
    2.4942   -0.7052   -3.2893 H   0  0  0  0  0  0  0  0  0  0  0  0
    4.2723    0.3736   -2.3136 H   0  0  0  0  0  0  0  0  0  0  0  0
    5.4117   -0.8317   -2.9093 H   0  0  0  0  0  0  0  0  0  0  0  0
    4.0970   -3.6194    3.0875 H   0  0  0  0  0  0  0  0  0  0  0  0
    5.4663   -5.6286    1.2555 H   0  0  0  0  0  0  0  0  0  0  0  0
    6.1003   -4.9016    2.7601 H   0  0  0  0  0  0  0  0  0  0  0  0
    6.0298   -7.5462    3.9371 H   0  0  0  0  0  0  0  0  0  0  0  0
    3.8379   -8.9079    4.7511 H   0  0  0  0  0  0  0  0  0  0  0  0
    1.6626   -7.5799    3.7100 H   0  0  0  0  0  0  0  0  0  0  0  0
    1.5831   -3.5213    2.4612 H   0  0  0  0  0  0  0  0  0  0  0  0
  1  2  2  0
  2 20  1  0
  2  3  1  0
  3  4  1  0
  3 22  1  0
  4  9  2  0
  4  5  1  0
  5  6  2  0
  5 13  1  0
  6  7  1  0
  6 23  1  0
  7  8  2  0
  7 24  1  0
  8 12  1  0
  8  9  1  0
  9 10  1  0
 10 11  1  0
 10 25  1  0
 10 26  1  0
 11 12  1  0
 11 27  1  0
 11 28  1  0
 12 29  1  0
 12 30  1  0
 13 20  1  0
 13 14  1  0
 13 31  1  1
 14 15  1  0
 14 32  1  0
 14 33  1  0
 15 19  1  0
 15 16  1  0
 16 17  2  0
 16 34  1  0
 17 18  1  0
 17 35  1  0
 18 19  2  0
 18 36  1  0
 19 20  1  0
 20 21  1  1
 21 37  1  0
M  END
>  <i_m_ct_stereo_status>  (144) 
1

>  <s_m_source_file>  (144) 
/var/tmp/pbs.5102103.sched01/tmprp2a6t7u/44c8wyhmqh.sdf

>  <i_m_source_file_index>  (144) 
10

>  <i_lp_mmshare_version>  (144) 
48012

>  <i_f3d_flags>  (144) 
0

>  <s_epik_input>  (144) 
W0NIMl0xW0NIMl1bQ0gyXWMoW2NIXVtjSF0yKWMxYyhbTkhdQzM9TyljMltDQEBIXShbQ0BAXTM0W09IXSlbQ0gyXW41YzRbY0hdW2NIXVtjSF01

>  <s_epik_cmdline>  (144) 
J2VwaWtfcHl0aG9uJywgJy1waHQnLCAnMi4wJywgJy1waCcsICc3LjAnLCAnLXRuJywgJzgnLCAnLW1hJywgJzIwMCcsICctaW1hZScsICc8aW5maWxlLm1hZT4nLCAnLW9tYWUnLCAnPG91dGZpbGUubWFlPic=

>  <r_lp_tautomer_probability>  (144) 
1

>  <r_epik_Ionization_Penalty>  (144) 
1.8194e-05

>  <r_epik_Ionization_Penalty_Charging>  (144) 
0

>  <r_epik_Ionization_Penalty_Neutral>  (144) 
1.8194e-05

>  <r_epik_State_Penalty>  (144) 
-0

>  <r_epik_Charging_Adjusted_Penalty>  (144) 
0

>  <i_epik_Tot_Q>  (144) 
0

>  <i_epik_Tot_abs_Q>  (144) 
0

>  <s_lp_Force_Field>  (144) 
OPLS3e

>  <r_lp_Energy>  (144) 
36.8752

>  <b_lp_Chiralities_Consistent>  (144) 
1

>  <s_lp_Variant>  (144) 
31:0-1

>  <s_i_glide_gridfile>  (144) 
pfpi4k_grid

>  <i_i_glide_lignum>  (144) 
10

>  <i_i_glide_rotatable_bonds>  (144) 
1

>  <r_i_docking_score>  (144) 
-3.96749

>  <r_i_glide_ligand_efficiency>  (144) 
-0.188928

>  <r_i_glide_ligand_efficiency_sa>  (144) 
-0.521238

>  <r_i_glide_ligand_efficiency_ln>  (144) 
-0.980953

>  <r_i_glide_gscore>  (144) 
-3.96749

>  <r_i_glide_lipo>  (144) 
-0.204723

>  <r_i_glide_hbond>  (144) 
-0.313279

>  <r_i_glide_metal>  (144) 
-0

>  <r_i_glide_rewards>  (144) 
-1.49781

>  <r_i_glide_evdw>  (144) 
-21.5087

>  <r_i_glide_ecoul>  (144) 
-5.09412

>  <r_i_glide_erotb>  (144) 
0

>  <r_i_glide_esite>  (144) 
-0.112118

>  <r_i_glide_emodel>  (144) 
-33.5286

>  <r_i_glide_energy>  (144) 
-26.6029

>  <r_i_glide_einternal>  (144) 
1.02768

>  <r_i_glide_intrahb_reward>  (144) 
-0

>  <i_i_glide_confnum>  (144) 
2

>  <i_i_glide_posenum>  (144) 
20

>  <r_i_glide_eff_state_penalty>  (144) 
0

>  <ligand_id>  (144) 
31

>  <original_smiles>  (144) 
O=C1Nc2c(ccc3c2CCC3)C2Cn3cccc3C12O

>  <smiles>  (144) 
[H]OC12C(=O)N([H])c3c4c(c([H])c([H])c3C1([H])C([H])([H])n1c([H])c([H])c([H])c12)C([H])([H])C([H])([H])C4([H])[H]

$$$$
32:0:0
     RDKit          3D

 42 45  0  0  1  0  0  0  0  0999 V2000
    1.4522   -5.5573    0.7105 O   0  0  0  0  0  0  0  0  0  0  0  0
    2.6635   -5.6076    0.9453 C   0  0  0  0  0  0  0  0  0  0  0  0
    3.2716   -6.8310    1.6728 C   0  0  1  0  0  0  0  0  0  0  0  0
    2.4141   -8.0168    1.7240 N   0  0  0  0  0  0  0  0  0  0  0  0
    1.2725   -8.0927    2.5200 C   0  0  0  0  0  0  0  0  0  0  0  0
    0.5290   -9.2794    2.5026 C   0  0  0  0  0  0  0  0  0  0  0  0
   -0.6467   -9.3041    3.2589 C   0  0  0  0  0  0  0  0  0  0  0  0
   -1.0463   -8.2358    3.9904 N   0  0  0  0  0  0  0  0  0  0  0  0
   -0.2480   -7.1678    3.9676 C   0  0  0  0  0  0  0  0  0  0  0  0
    0.8859   -7.0291    3.2758 N   0  0  0  0  0  0  0  0  0  0  0  0
    4.5967   -7.1792    0.9986 C   0  0  0  0  0  0  0  0  0  0  0  0
    5.5734   -6.0174    1.1978 C   0  0  0  0  0  0  0  0  0  0  0  0
    4.9939   -4.6503    0.7696 C   0  0  2  0  0  0  0  0  0  0  0  0
    5.4761   -3.5140    1.7193 C   0  0  0  0  0  0  0  0  0  0  0  0
    4.8419   -2.2591    1.2702 C   0  0  0  0  0  0  0  0  0  0  0  0
    5.2057   -0.9668    1.5248 N   0  0  0  0  0  0  0  0  0  0  0  0
    4.3426   -0.1390    0.9090 C   0  0  0  0  0  0  0  0  0  0  0  0
    3.4295   -0.8952    0.2946 N   0  0  0  0  0  0  0  0  0  0  0  0
    3.7248   -2.2099    0.4803 C   0  0  0  0  0  0  0  0  0  0  0  0
    2.9715   -3.3693   -0.0432 C   0  0  1  0  0  0  0  0  0  0  0  0
    3.0151   -3.4565   -1.5801 C   0  0  0  0  0  0  0  0  0  0  0  0
    2.6125   -2.2640   -2.2266 O   0  0  0  0  0  0  0  0  0  0  0  0
    3.5039   -4.6109    0.5674 N   0  0  0  0  0  0  0  0  0  0  0  0
    2.7091   -8.8619    1.2461 H   0  0  0  0  0  0  0  0  0  0  0  0
    2.6433   -0.5620   -0.2645 H   0  0  0  0  0  0  0  0  0  0  0  0
    3.4793   -6.5592    2.7026 H   0  0  0  0  0  0  0  0  0  0  0  0
    0.8150  -10.1303    1.9118 H   0  0  0  0  0  0  0  0  0  0  0  0
   -1.2732  -10.1858    3.2541 H   0  0  0  0  0  0  0  0  0  0  0  0
   -0.5779   -6.3052    4.5291 H   0  0  0  0  0  0  0  0  0  0  0  0
    5.0177   -8.0918    1.4282 H   0  0  0  0  0  0  0  0  0  0  0  0
    4.4417   -7.3644   -0.0710 H   0  0  0  0  0  0  0  0  0  0  0  0
    5.8781   -5.9924    2.2530 H   0  0  0  0  0  0  0  0  0  0  0  0
    6.4863   -6.2100    0.6297 H   0  0  0  0  0  0  0  0  0  0  0  0
    5.4215   -4.4375   -0.2092 H   0  0  0  0  0  0  0  0  0  0  0  0
    5.1470   -3.6925    2.7493 H   0  0  0  0  0  0  0  0  0  0  0  0
    6.5621   -3.4004    1.7048 H   0  0  0  0  0  0  0  0  0  0  0  0
    4.3816    0.9323    0.8909 H   0  0  0  0  0  0  0  0  0  0  0  0
    1.9421   -3.1732    0.2545 H   0  0  0  0  0  0  0  0  0  0  0  0
    4.0138   -3.7238   -1.9399 H   0  0  0  0  0  0  0  0  0  0  0  0
    2.3231   -4.2400   -1.8851 H   0  0  0  0  0  0  0  0  0  0  0  0
    1.8420   -1.8991   -1.7649 H   0  0  0  0  0  0  0  0  0  0  0  0
    6.0010   -0.6759    2.0790 H   0  0  0  0  0  0  0  0  0  0  0  0
  1  2  2  0
  2 23  1  0
  2  3  1  0
  3 11  1  0
  3 26  1  1
  3  4  1  0
  4  5  1  0
  4 24  1  0
  5  6  2  0
  5 10  1  0
  6 27  1  0
  6  7  1  0
  7 28  1  0
  7  8  2  0
  8  9  1  0
  9 29  1  0
  9 10  2  0
 11 12  1  0
 11 30  1  0
 11 31  1  0
 12 13  1  0
 12 32  1  0
 12 33  1  0
 13 23  1  0
 13 14  1  0
 13 34  1  6
 14 15  1  0
 14 35  1  0
 14 36  1  0
 15 19  2  0
 15 16  1  0
 16 17  2  0
 16 42  1  0
 17 18  1  0
 17 37  1  0
 18 25  1  0
 18 19  1  0
 19 20  1  0
 20 21  1  0
 20 23  1  0
 20 38  1  6
 21 22  1  0
 21 39  1  0
 21 40  1  0
 22 41  1  0
M  CHG  1  16   1
M  END
>  <i_m_ct_stereo_status>  (145) 
1

>  <s_m_source_file>  (145) 
/var/tmp/pbs.5102103.sched01/tmprp2a6t7u/44c8wyhmqh.sdf

>  <i_m_source_file_index>  (145) 
11

>  <i_lp_mmshare_version>  (145) 
48012

>  <i_f3d_flags>  (145) 
0

>  <s_epik_input>  (145) 
W25IXTFbY0hdbmMoW0NIMl0yKWMxW0NAQEhdKFtDSDJdW09IXSlOKFtDQEBIXTIzKUMoPU8pW0NASF0oW0NIMl1bQ0gyXTMpL049YzQvW2NIXVtjSF1bbkhdW2NIXW40

>  <s_epik_cmdline>  (145) 
J2VwaWtfcHl0aG9uJywgJy1waHQnLCAnMi4wJywgJy1waCcsICc3LjAnLCAnLXRuJywgJzgnLCAnLW1hJywgJzIwMCcsICctaW1hZScsICc8aW5maWxlLm1hZT4nLCAnLW9tYWUnLCAnPG91dGZpbGUubWFlPic=

>  <r_lp_tautomer_probability>  (145) 
1

>  <r_epik_Ionization_Penalty>  (145) 
0.220182

>  <r_epik_Ionization_Penalty_Charging>  (145) 
0

>  <r_epik_Ionization_Penalty_Neutral>  (145) 
0.220182

>  <r_epik_State_Penalty>  (145) 
0.18028

>  <r_epik_Charging_Adjusted_Penalty>  (145) 
0.18028

>  <i_epik_Tot_Q>  (145) 
1

>  <i_epik_Tot_abs_Q>  (145) 
1

>  <s_lp_Force_Field>  (145) 
OPLS3e

>  <r_lp_Energy>  (145) 
46.3071

>  <b_lp_Chiralities_Consistent>  (145) 
1

>  <s_lp_Variant>  (145) 
32:0-1

>  <s_i_glide_gridfile>  (145) 
pfpi4k_grid

>  <i_i_glide_lignum>  (145) 
11

>  <i_i_glide_rotatable_bonds>  (145) 
4

>  <r_i_docking_score>  (145) 
-4.71078

>  <r_i_glide_ligand_efficiency>  (145) 
-0.204816

>  <r_i_glide_ligand_efficiency_sa>  (145) 
-0.582471

>  <r_i_glide_ligand_efficiency_ln>  (145) 
-1.13911

>  <r_i_glide_gscore>  (145) 
-4.71078

>  <r_i_glide_lipo>  (145) 
-0.466777

>  <r_i_glide_hbond>  (145) 
-0.466488

>  <r_i_glide_metal>  (145) 
-0

>  <r_i_glide_rewards>  (145) 
-1.40135

>  <r_i_glide_evdw>  (145) 
-20.8232

>  <r_i_glide_ecoul>  (145) 
-11.6195

>  <r_i_glide_erotb>  (145) 
0.561151

>  <r_i_glide_esite>  (145) 
-0.153228

>  <r_i_glide_emodel>  (145) 
-45.5768

>  <r_i_glide_energy>  (145) 
-32.4427

>  <r_i_glide_einternal>  (145) 
3.8844

>  <r_i_glide_intrahb_reward>  (145) 
-0

>  <i_i_glide_confnum>  (145) 
3

>  <i_i_glide_posenum>  (145) 
3

>  <r_i_glide_eff_state_penalty>  (145) 
0

>  <ligand_id>  (145) 
32

>  <original_smiles>  (145) 
O=C1C(N=c2cc[nH]cn2)CCC2Cc3nc[nH]c3C(CO)N12

>  <smiles>  (145) 
[H]OC([H])([H])C1([H])c2c([n+]([H])c([H])n2[H])C([H])([H])C2([H])N1C(=O)C([H])(N([H])c1nc([H])nc([H])c1[H])C([H])([H])C2([H])[H]

$$$$
32:0:1
     RDKit          3D

 42 45  0  0  1  0  0  0  0  0999 V2000
    1.0490   -5.9489    0.6099 O   0  0  0  0  0  0  0  0  0  0  0  0
    2.0846   -6.2227    1.2213 C   0  0  0  0  0  0  0  0  0  0  0  0
    3.4006   -5.5143    0.8309 C   0  0  1  0  0  0  0  0  0  0  0  0
    3.1530   -4.2685    0.1092 N   0  0  0  0  0  0  0  0  0  0  0  0
    4.1553   -3.4917   -0.4826 C   0  0  0  0  0  0  0  0  0  0  0  0
    3.8131   -2.2159   -0.9530 C   0  0  0  0  0  0  0  0  0  0  0  0
    4.8507   -1.4291   -1.4711 C   0  0  0  0  0  0  0  0  0  0  0  0
    6.1288   -1.8677   -1.5062 N   0  0  0  0  0  0  0  0  0  0  0  0
    6.3396   -3.1064   -1.0520 C   0  0  0  0  0  0  0  0  0  0  0  0
    5.4280   -3.9430   -0.5498 N   0  0  0  0  0  0  0  0  0  0  0  0
    4.2180   -5.2573    2.1030 C   0  0  0  0  0  0  0  0  0  0  0  0
    4.5784   -6.5960    2.7416 C   0  0  0  0  0  0  0  0  0  0  0  0
    3.3487   -7.5021    2.9838 C   0  0  2  0  0  0  0  0  0  0  0  0
    3.6941   -9.0031    2.7561 C   0  0  0  0  0  0  0  0  0  0  0  0
    2.4551   -9.7904    2.9855 C   0  0  0  0  0  0  0  0  0  0  0  0
    2.3322  -11.1207    3.2802 N   0  0  0  0  0  0  0  0  0  0  0  0
    1.0401  -11.4216    3.4465 C   0  0  0  0  0  0  0  0  0  0  0  0
    0.3365  -10.3029    3.2450 N   0  0  0  0  0  0  0  0  0  0  0  0
    1.1928   -9.2717    2.9501 C   0  0  0  0  0  0  0  0  0  0  0  0
    0.8697   -7.8421    2.6616 C   0  0  1  0  0  0  0  0  0  0  0  0
    0.2066   -7.1632    3.8818 C   0  0  0  0  0  0  0  0  0  0  0  0
   -1.1891   -7.4073    3.8923 O   0  0  0  0  0  0  0  0  0  0  0  0
    2.1060   -7.1157    2.2456 N   0  0  0  0  0  0  0  0  0  0  0  0
    2.2256   -3.8776    0.1678 H   0  0  0  0  0  0  0  0  0  0  0  0
   -0.6755  -10.2541    3.3282 H   0  0  0  0  0  0  0  0  0  0  0  0
    3.9440   -6.1835    0.1651 H   0  0  0  0  0  0  0  0  0  0  0  0
    2.7987   -1.8465   -0.9055 H   0  0  0  0  0  0  0  0  0  0  0  0
    4.6661   -0.4339   -1.8530 H   0  0  0  0  0  0  0  0  0  0  0  0
    7.3579   -3.4604   -1.0733 H   0  0  0  0  0  0  0  0  0  0  0  0
    5.1452   -4.7219    1.8924 H   0  0  0  0  0  0  0  0  0  0  0  0
    3.6455   -4.6328    2.7962 H   0  0  0  0  0  0  0  0  0  0  0  0
    5.3072   -7.0989    2.0979 H   0  0  0  0  0  0  0  0  0  0  0  0
    5.0898   -6.4110    3.6873 H   0  0  0  0  0  0  0  0  0  0  0  0
    3.1013   -7.3887    4.0396 H   0  0  0  0  0  0  0  0  0  0  0  0
    4.0233   -9.1780    1.7272 H   0  0  0  0  0  0  0  0  0  0  0  0
    4.4816   -9.3393    3.4308 H   0  0  0  0  0  0  0  0  0  0  0  0
    0.6407  -12.3862    3.7015 H   0  0  0  0  0  0  0  0  0  0  0  0
    0.1546   -7.8609    1.8391 H   0  0  0  0  0  0  0  0  0  0  0  0
    0.6740   -7.4691    4.8280 H   0  0  0  0  0  0  0  0  0  0  0  0
    0.3198   -6.0809    3.8163 H   0  0  0  0  0  0  0  0  0  0  0  0
   -1.3366   -8.3170    4.1172 H   0  0  0  0  0  0  0  0  0  0  0  0
    3.0940  -11.7883    3.3564 H   0  0  0  0  0  0  0  0  0  0  0  0
  1  2  2  0
  2 23  1  0
  2  3  1  0
  3 11  1  0
  3 26  1  6
  3  4  1  0
  4  5  1  0
  4 24  1  0
  5  6  2  0
  5 10  1  0
  6 27  1  0
  6  7  1  0
  7 28  1  0
  7  8  2  0
  8  9  1  0
  9 29  1  0
  9 10  2  0
 11 12  1  0
 11 30  1  0
 11 31  1  0
 12 13  1  0
 12 32  1  0
 12 33  1  0
 13 23  1  0
 13 14  1  0
 13 34  1  1
 14 15  1  0
 14 35  1  0
 14 36  1  0
 15 19  2  0
 15 16  1  0
 16 17  2  0
 16 42  1  0
 17 18  1  0
 17 37  1  0
 18 25  1  0
 18 19  1  0
 19 20  1  0
 20 21  1  0
 20 23  1  0
 20 38  1  6
 21 22  1  0
 21 39  1  0
 21 40  1  0
 22 41  1  0
M  CHG  1  16   1
M  END
>  <i_m_ct_stereo_status>  (146) 
1

>  <s_m_source_file>  (146) 
/var/tmp/pbs.5102103.sched01/tmprp2a6t7u/44c8wyhmqh.sdf

>  <i_m_source_file_index>  (146) 
11

>  <i_lp_mmshare_version>  (146) 
48012

>  <i_f3d_flags>  (146) 
0

>  <s_epik_input>  (146) 
W25IXTFbY0hdbmMoW0NIMl0yKWMxW0NAQEhdKFtDSDJdW09IXSlOKFtDQEBIXTIzKUMoPU8pW0NASF0oW0NIMl1bQ0gyXTMpL049YzQvW2NIXVtjSF1bbkhdW2NIXW40

>  <s_epik_cmdline>  (146) 
J2VwaWtfcHl0aG9uJywgJy1waHQnLCAnMi4wJywgJy1waCcsICc3LjAnLCAnLXRuJywgJzgnLCAnLW1hJywgJzIwMCcsICctaW1hZScsICc8aW5maWxlLm1hZT4nLCAnLW9tYWUnLCAnPG91dGZpbGUubWFlPic=

>  <r_lp_tautomer_probability>  (146) 
1

>  <r_epik_Ionization_Penalty>  (146) 
0.220182

>  <r_epik_Ionization_Penalty_Charging>  (146) 
0

>  <r_epik_Ionization_Penalty_Neutral>  (146) 
0.220182

>  <r_epik_State_Penalty>  (146) 
0.18028

>  <r_epik_Charging_Adjusted_Penalty>  (146) 
0.18028

>  <i_epik_Tot_Q>  (146) 
1

>  <i_epik_Tot_abs_Q>  (146) 
1

>  <s_lp_Force_Field>  (146) 
OPLS3e

>  <r_lp_Energy>  (146) 
46.3071

>  <b_lp_Chiralities_Consistent>  (146) 
1

>  <s_lp_Variant>  (146) 
32:0-1

>  <s_i_glide_gridfile>  (146) 
pfpi4k_grid

>  <i_i_glide_lignum>  (146) 
11

>  <i_i_glide_rotatable_bonds>  (146) 
4

>  <r_i_docking_score>  (146) 
-4.38405

>  <r_i_glide_ligand_efficiency>  (146) 
-0.190611

>  <r_i_glide_ligand_efficiency_sa>  (146) 
-0.542072

>  <r_i_glide_ligand_efficiency_ln>  (146) 
-1.0601

>  <r_i_glide_gscore>  (146) 
-4.38405

>  <r_i_glide_lipo>  (146) 
-0.0429647

>  <r_i_glide_hbond>  (146) 
-0.290018

>  <r_i_glide_metal>  (146) 
-0

>  <r_i_glide_rewards>  (146) 
-1.64805

>  <r_i_glide_evdw>  (146) 
-24.3979

>  <r_i_glide_ecoul>  (146) 
-11.1417

>  <r_i_glide_erotb>  (146) 
0.561151

>  <r_i_glide_esite>  (146) 
-0.0730252

>  <r_i_glide_emodel>  (146) 
-49.437

>  <r_i_glide_energy>  (146) 
-35.5396

>  <r_i_glide_einternal>  (146) 
0.730043

>  <r_i_glide_intrahb_reward>  (146) 
-0

>  <i_i_glide_confnum>  (146) 
3

>  <i_i_glide_posenum>  (146) 
9

>  <r_i_glide_eff_state_penalty>  (146) 
0

>  <ligand_id>  (146) 
32

>  <original_smiles>  (146) 
O=C1C(N=c2cc[nH]cn2)CCC2Cc3nc[nH]c3C(CO)N12

>  <smiles>  (146) 
[H]OC([H])([H])C1([H])c2c([n+]([H])c([H])n2[H])C([H])([H])C2([H])N1C(=O)C([H])(N([H])c1nc([H])nc([H])c1[H])C([H])([H])C2([H])[H]

$$$$
32:0:2
     RDKit          3D

 42 45  0  0  1  0  0  0  0  0999 V2000
    1.1169   -5.8612    1.7198 O   0  0  0  0  0  0  0  0  0  0  0  0
    1.2085   -5.8616    2.9487 C   0  0  0  0  0  0  0  0  0  0  0  0
    1.8217   -4.6434    3.6720 C   0  0  1  0  0  0  0  0  0  0  0  0
    1.8035   -3.4387    2.8527 N   0  0  0  0  0  0  0  0  0  0  0  0
    2.7032   -2.3840    2.9667 C   0  0  0  0  0  0  0  0  0  0  0  0
    2.5063   -1.2469    2.1640 C   0  0  0  0  0  0  0  0  0  0  0  0
    3.4308   -0.1980    2.3234 C   0  0  0  0  0  0  0  0  0  0  0  0
    4.4574   -0.2887    3.1933 N   0  0  0  0  0  0  0  0  0  0  0  0
    4.5556   -1.4167    3.8939 C   0  0  0  0  0  0  0  0  0  0  0  0
    3.7345   -2.4682    3.8351 N   0  0  0  0  0  0  0  0  0  0  0  0
    1.0470   -4.3982    4.9654 C   0  0  0  0  0  0  0  0  0  0  0  0
    1.2113   -5.6111    5.8804 C   0  0  0  0  0  0  0  0  0  0  0  0
    0.8552   -6.9500    5.1908 C   0  0  2  0  0  0  0  0  0  0  0  0
    1.7940   -8.0968    5.6684 C   0  0  0  0  0  0  0  0  0  0  0  0
    1.4175   -9.3317    4.9370 C   0  0  0  0  0  0  0  0  0  0  0  0
    1.6631  -10.6369    5.2748 N   0  0  0  0  0  0  0  0  0  0  0  0
    1.1357  -11.4382    4.3429 C   0  0  0  0  0  0  0  0  0  0  0  0
    0.5662  -10.6572    3.4153 N   0  0  0  0  0  0  0  0  0  0  0  0
    0.7110   -9.3403    3.7713 C   0  0  0  0  0  0  0  0  0  0  0  0
    0.2123   -8.1265    3.0583 C   0  0  1  0  0  0  0  0  0  0  0  0
   -1.3300   -8.0768    3.0496 C   0  0  0  0  0  0  0  0  0  0  0  0
   -1.8520   -8.9654    2.0832 O   0  0  0  0  0  0  0  0  0  0  0  0
    0.7693   -6.8997    3.6987 N   0  0  0  0  0  0  0  0  0  0  0  0
    1.0126   -3.3048    2.2318 H   0  0  0  0  0  0  0  0  0  0  0  0
    0.0791  -11.0087    2.5997 H   0  0  0  0  0  0  0  0  0  0  0  0
    2.8537   -4.9029    3.9067 H   0  0  0  0  0  0  0  0  0  0  0  0
    1.7011   -1.1659    1.4534 H   0  0  0  0  0  0  0  0  0  0  0  0
    3.3494    0.7204    1.7536 H   0  0  0  0  0  0  0  0  0  0  0  0
    5.3701   -1.4846    4.5924 H   0  0  0  0  0  0  0  0  0  0  0  0
    1.4192   -3.4986    5.4637 H   0  0  0  0  0  0  0  0  0  0  0  0
   -0.0115   -4.2269    4.7380 H   0  0  0  0  0  0  0  0  0  0  0  0
    2.2445   -5.6273    6.2405 H   0  0  0  0  0  0  0  0  0  0  0  0
    0.5836   -5.4810    6.7622 H   0  0  0  0  0  0  0  0  0  0  0  0
   -0.1490   -7.2073    5.5318 H   0  0  0  0  0  0  0  0  0  0  0  0
    2.8353   -7.8760    5.4180 H   0  0  0  0  0  0  0  0  0  0  0  0
    1.7161   -8.2645    6.7435 H   0  0  0  0  0  0  0  0  0  0  0  0
    1.1365  -12.5104    4.3584 H   0  0  0  0  0  0  0  0  0  0  0  0
    0.5650   -8.2259    2.0311 H   0  0  0  0  0  0  0  0  0  0  0  0
   -1.7730   -8.2863    4.0328 H   0  0  0  0  0  0  0  0  0  0  0  0
   -1.6718   -7.0903    2.7356 H   0  0  0  0  0  0  0  0  0  0  0  0
   -1.6373   -9.8521    2.3340 H   0  0  0  0  0  0  0  0  0  0  0  0
    2.1171  -10.9859    6.1216 H   0  0  0  0  0  0  0  0  0  0  0  0
  1  2  2  0
  2 23  1  0
  2  3  1  0
  3 11  1  0
  3 26  1  1
  3  4  1  0
  4  5  1  0
  4 24  1  0
  5  6  2  0
  5 10  1  0
  6 27  1  0
  6  7  1  0
  7 28  1  0
  7  8  2  0
  8  9  1  0
  9 29  1  0
  9 10  2  0
 11 12  1  0
 11 30  1  0
 11 31  1  0
 12 13  1  0
 12 32  1  0
 12 33  1  0
 13 23  1  0
 13 14  1  0
 13 34  1  1
 14 15  1  0
 14 35  1  0
 14 36  1  0
 15 19  2  0
 15 16  1  0
 16 17  2  0
 16 42  1  0
 17 18  1  0
 17 37  1  0
 18 25  1  0
 18 19  1  0
 19 20  1  0
 20 21  1  0
 20 23  1  0
 20 38  1  6
 21 22  1  0
 21 39  1  0
 21 40  1  0
 22 41  1  0
M  CHG  1  16   1
M  END
>  <i_m_ct_stereo_status>  (147) 
1

>  <s_m_source_file>  (147) 
/var/tmp/pbs.5102103.sched01/tmprp2a6t7u/44c8wyhmqh.sdf

>  <i_m_source_file_index>  (147) 
11

>  <i_lp_mmshare_version>  (147) 
48012

>  <i_f3d_flags>  (147) 
0

>  <s_epik_input>  (147) 
W25IXTFbY0hdbmMoW0NIMl0yKWMxW0NAQEhdKFtDSDJdW09IXSlOKFtDQEBIXTIzKUMoPU8pW0NASF0oW0NIMl1bQ0gyXTMpL049YzQvW2NIXVtjSF1bbkhdW2NIXW40

>  <s_epik_cmdline>  (147) 
J2VwaWtfcHl0aG9uJywgJy1waHQnLCAnMi4wJywgJy1waCcsICc3LjAnLCAnLXRuJywgJzgnLCAnLW1hJywgJzIwMCcsICctaW1hZScsICc8aW5maWxlLm1hZT4nLCAnLW9tYWUnLCAnPG91dGZpbGUubWFlPic=

>  <r_lp_tautomer_probability>  (147) 
1

>  <r_epik_Ionization_Penalty>  (147) 
0.220182

>  <r_epik_Ionization_Penalty_Charging>  (147) 
0

>  <r_epik_Ionization_Penalty_Neutral>  (147) 
0.220182

>  <r_epik_State_Penalty>  (147) 
0.18028

>  <r_epik_Charging_Adjusted_Penalty>  (147) 
0.18028

>  <i_epik_Tot_Q>  (147) 
1

>  <i_epik_Tot_abs_Q>  (147) 
1

>  <s_lp_Force_Field>  (147) 
OPLS3e

>  <r_lp_Energy>  (147) 
46.3071

>  <b_lp_Chiralities_Consistent>  (147) 
1

>  <s_lp_Variant>  (147) 
32:0-1

>  <s_i_glide_gridfile>  (147) 
pfpi4k_grid

>  <i_i_glide_lignum>  (147) 
11

>  <i_i_glide_rotatable_bonds>  (147) 
4

>  <r_i_docking_score>  (147) 
-3.70641

>  <r_i_glide_ligand_efficiency>  (147) 
-0.161148

>  <r_i_glide_ligand_efficiency_sa>  (147) 
-0.458284

>  <r_i_glide_ligand_efficiency_ln>  (147) 
-0.896244

>  <r_i_glide_gscore>  (147) 
-3.70641

>  <r_i_glide_lipo>  (147) 
-0.0102391

>  <r_i_glide_hbond>  (147) 
-0.198436

>  <r_i_glide_metal>  (147) 
-0

>  <r_i_glide_rewards>  (147) 
-1.49004

>  <r_i_glide_evdw>  (147) 
-20.5826

>  <r_i_glide_ecoul>  (147) 
-9.3693

>  <r_i_glide_erotb>  (147) 
0.561151

>  <r_i_glide_esite>  (147) 
-0.13432

>  <r_i_glide_emodel>  (147) 
-41.8313

>  <r_i_glide_energy>  (147) 
-29.9519

>  <r_i_glide_einternal>  (147) 
0.286972

>  <r_i_glide_intrahb_reward>  (147) 
-0

>  <i_i_glide_confnum>  (147) 
3

>  <i_i_glide_posenum>  (147) 
38

>  <r_i_glide_eff_state_penalty>  (147) 
0

>  <ligand_id>  (147) 
32

>  <original_smiles>  (147) 
O=C1C(N=c2cc[nH]cn2)CCC2Cc3nc[nH]c3C(CO)N12

>  <smiles>  (147) 
[H]OC([H])([H])C1([H])c2c([n+]([H])c([H])n2[H])C([H])([H])C2([H])N1C(=O)C([H])(N([H])c1nc([H])nc([H])c1[H])C([H])([H])C2([H])[H]

$$$$
32:1:0
     RDKit          3D

 41 44  0  0  1  0  0  0  0  0999 V2000
    1.1253   -5.8823    0.4172 O   0  0  0  0  0  0  0  0  0  0  0  0
    2.1259   -6.1867    1.0731 C   0  0  0  0  0  0  0  0  0  0  0  0
    3.4497   -5.4623    0.7801 C   0  0  1  0  0  0  0  0  0  0  0  0
    3.2231   -4.1892    0.1085 N   0  0  0  0  0  0  0  0  0  0  0  0
    4.2347   -3.4330   -0.4883 C   0  0  0  0  0  0  0  0  0  0  0  0
    3.9037   -2.1651   -0.9839 C   0  0  0  0  0  0  0  0  0  0  0  0
    4.9557   -1.3975   -1.5021 C   0  0  0  0  0  0  0  0  0  0  0  0
    6.2270   -1.8557   -1.5168 N   0  0  0  0  0  0  0  0  0  0  0  0
    6.4234   -3.0816   -1.0354 C   0  0  0  0  0  0  0  0  0  0  0  0
    5.4982   -3.9048   -0.5351 N   0  0  0  0  0  0  0  0  0  0  0  0
    4.2088   -5.2532    2.0956 C   0  0  0  0  0  0  0  0  0  0  0  0
    4.5379   -6.6151    2.6961 C   0  0  0  0  0  0  0  0  0  0  0  0
    3.2849   -7.4954    2.8829 C   0  0  2  0  0  0  0  0  0  0  0  0
    3.6304   -8.9985    2.7561 C   0  0  0  0  0  0  0  0  0  0  0  0
    2.3873   -9.7745    2.9468 C   0  0  0  0  0  0  0  0  0  0  0  0
    2.2408  -11.0969    3.3221 N   0  0  0  0  0  0  0  0  0  0  0  0
    0.9219  -11.3139    3.3856 C   0  0  0  0  0  0  0  0  0  0  0  0
    0.1829  -10.2539    3.0476 N   0  0  0  0  0  0  0  0  0  0  0  0
    1.1285   -9.2686    2.7910 C   0  0  0  0  0  0  0  0  0  0  0  0
    0.8372   -7.8567    2.3626 C   0  0  1  0  0  0  0  0  0  0  0  0
    0.0343   -7.0786    3.4340 C   0  0  0  0  0  0  0  0  0  0  0  0
   -1.3610   -7.1955    3.2229 O   0  0  0  0  0  0  0  0  0  0  0  0
    2.1007   -7.1326    2.0443 N   0  0  0  0  0  0  0  0  0  0  0  0
    2.3128   -3.7642    0.1976 H   0  0  0  0  0  0  0  0  0  0  0  0
    2.9696  -11.7702    3.5183 H   0  0  0  0  0  0  0  0  0  0  0  0
    4.0296   -6.1001    0.1082 H   0  0  0  0  0  0  0  0  0  0  0  0
    2.8906   -1.7901   -0.9598 H   0  0  0  0  0  0  0  0  0  0  0  0
    4.7871   -0.4149   -1.9196 H   0  0  0  0  0  0  0  0  0  0  0  0
    7.4354   -3.4516   -1.0615 H   0  0  0  0  0  0  0  0  0  0  0  0
    5.1395   -4.7058    1.9363 H   0  0  0  0  0  0  0  0  0  0  0  0
    3.6008   -4.6589    2.7837 H   0  0  0  0  0  0  0  0  0  0  0  0
    5.2676   -7.1123    2.0506 H   0  0  0  0  0  0  0  0  0  0  0  0
    5.0322   -6.4736    3.6588 H   0  0  0  0  0  0  0  0  0  0  0  0
    2.9619   -7.3344    3.9130 H   0  0  0  0  0  0  0  0  0  0  0  0
    4.0298   -9.2147    1.7640 H   0  0  0  0  0  0  0  0  0  0  0  0
    4.3848   -9.2897    3.4877 H   0  0  0  0  0  0  0  0  0  0  0  0
    0.4935  -12.2560    3.6929 H   0  0  0  0  0  0  0  0  0  0  0  0
    0.2321   -7.9229    1.4550 H   0  0  0  0  0  0  0  0  0  0  0  0
    0.2967   -7.4053    4.4463 H   0  0  0  0  0  0  0  0  0  0  0  0
    0.2570   -6.0144    3.3829 H   0  0  0  0  0  0  0  0  0  0  0  0
   -1.5859   -8.1089    3.3537 H   0  0  0  0  0  0  0  0  0  0  0  0
  1  2  2  0
  2 23  1  0
  2  3  1  0
  3 11  1  0
  3 26  1  6
  3  4  1  0
  4  5  1  0
  4 24  1  0
  5  6  2  0
  5 10  1  0
  6 27  1  0
  6  7  1  0
  7 28  1  0
  7  8  2  0
  8  9  1  0
  9 29  1  0
  9 10  2  0
 11 12  1  0
 11 30  1  0
 11 31  1  0
 12 13  1  0
 12 32  1  0
 12 33  1  0
 13 23  1  0
 13 14  1  0
 13 34  1  1
 14 35  1  0
 14 36  1  0
 14 15  1  0
 15 19  2  0
 15 16  1  0
 16 25  1  0
 16 17  1  0
 17 37  1  0
 17 18  2  0
 18 19  1  0
 19 20  1  0
 20 21  1  0
 20 23  1  0
 20 38  1  6
 21 22  1  0
 21 39  1  0
 21 40  1  0
 22 41  1  0
M  END
>  <i_m_ct_stereo_status>  (148) 
1

>  <s_m_source_file>  (148) 
/var/tmp/pbs.5102103.sched01/tmprp2a6t7u/44c8wyhmqh.sdf

>  <i_m_source_file_index>  (148) 
12

>  <i_lp_mmshare_version>  (148) 
48012

>  <i_f3d_flags>  (148) 
0

>  <s_epik_input>  (148) 
W25IXTFbY0hdbmMoW0NIMl0yKWMxW0NAQEhdKFtDSDJdW09IXSlOKFtDQEBIXTIzKUMoPU8pW0NASF0oW0NIMl1bQ0gyXTMpL049YzQvW2NIXVtjSF1bbkhdW2NIXW40

>  <s_epik_cmdline>  (148) 
J2VwaWtfcHl0aG9uJywgJy1waHQnLCAnMi4wJywgJy1waCcsICc3LjAnLCAnLXRuJywgJzgnLCAnLW1hJywgJzIwMCcsICctaW1hZScsICc8aW5maWxlLm1hZT4nLCAnLW9tYWUnLCAnPG91dGZpbGUubWFlPic=

>  <r_lp_tautomer_probability>  (148) 
0.5

>  <r_epik_Ionization_Penalty>  (148) 
1.0437

>  <r_epik_Ionization_Penalty_Charging>  (148) 
1.01088

>  <r_epik_Ionization_Penalty_Neutral>  (148) 
0.0328198

>  <r_epik_State_Penalty>  (148) 
1.23945

>  <r_epik_Charging_Adjusted_Penalty>  (148) 
2.25033

>  <i_epik_Tot_Q>  (148) 
0

>  <i_epik_Tot_abs_Q>  (148) 
0

>  <s_lp_Force_Field>  (148) 
OPLS3e

>  <r_lp_Energy>  (148) 
43.2686

>  <b_lp_Chiralities_Consistent>  (148) 
1

>  <s_lp_Variant>  (148) 
32:0-2

>  <s_i_glide_gridfile>  (148) 
pfpi4k_grid

>  <i_i_glide_lignum>  (148) 
12

>  <i_i_glide_rotatable_bonds>  (148) 
4

>  <r_i_docking_score>  (148) 
-4.40755

>  <r_i_glide_ligand_efficiency>  (148) 
-0.191633

>  <r_i_glide_ligand_efficiency_sa>  (148) 
-0.544978

>  <r_i_glide_ligand_efficiency_ln>  (148) 
-1.06579

>  <r_i_glide_gscore>  (148) 
-4.40755

>  <r_i_glide_lipo>  (148) 
-0.0720444

>  <r_i_glide_hbond>  (148) 
-0.408479

>  <r_i_glide_metal>  (148) 
-0

>  <r_i_glide_rewards>  (148) 
-1.63659

>  <r_i_glide_evdw>  (148) 
-27.2564

>  <r_i_glide_ecoul>  (148) 
-9.53423

>  <r_i_glide_erotb>  (148) 
0.564319

>  <r_i_glide_esite>  (148) 
-0.0618074

>  <r_i_glide_emodel>  (148) 
-47.4287

>  <r_i_glide_energy>  (148) 
-36.7906

>  <r_i_glide_einternal>  (148) 
0.732029

>  <r_i_glide_intrahb_reward>  (148) 
-0

>  <i_i_glide_confnum>  (148) 
4

>  <i_i_glide_posenum>  (148) 
8

>  <r_i_glide_eff_state_penalty>  (148) 
0

>  <ligand_id>  (148) 
32

>  <original_smiles>  (148) 
O=C1C(N=c2cc[nH]cn2)CCC2Cc3nc[nH]c3C(CO)N12

>  <smiles>  (148) 
[H]OC([H])([H])C1([H])c2nc([H])n([H])c2C([H])([H])C2([H])N1C(=O)C([H])(N([H])c1nc([H])nc([H])c1[H])C([H])([H])C2([H])[H]

$$$$
32:1:1
     RDKit          3D

 41 44  0  0  1  0  0  0  0  0999 V2000
    1.5147   -5.4972    0.9434 O   0  0  0  0  0  0  0  0  0  0  0  0
    2.6992   -5.7419    1.1554 C   0  0  0  0  0  0  0  0  0  0  0  0
    3.0945   -7.0919    1.8196 C   0  0  1  0  0  0  0  0  0  0  0  0
    2.0653   -8.1300    1.7925 N   0  0  0  0  0  0  0  0  0  0  0  0
    0.9040   -8.0780    2.5800 C   0  0  0  0  0  0  0  0  0  0  0  0
   -0.0095   -9.1413    2.4982 C   0  0  0  0  0  0  0  0  0  0  0  0
   -1.1869   -9.0360    3.2613 C   0  0  0  0  0  0  0  0  0  0  0  0
   -1.4269   -7.9587    4.0364 N   0  0  0  0  0  0  0  0  0  0  0  0
   -0.4745   -7.0300    4.0778 C   0  0  0  0  0  0  0  0  0  0  0  0
    0.6699   -7.0207    3.3869 N   0  0  0  0  0  0  0  0  0  0  0  0
    4.3650   -7.6025    1.1553 C   0  0  0  0  0  0  0  0  0  0  0  0
    5.4953   -6.6189    1.4344 C   0  0  0  0  0  0  0  0  0  0  0  0
    5.1488   -5.1699    1.0055 C   0  0  2  0  0  0  0  0  0  0  0  0
    5.8671   -4.1316    1.9017 C   0  0  0  0  0  0  0  0  0  0  0  0
    5.4796   -2.7714    1.4560 C   0  0  0  0  0  0  0  0  0  0  0  0
    6.1257   -1.5650    1.6605 N   0  0  0  0  0  0  0  0  0  0  0  0
    5.3698   -0.6449    1.0600 C   0  0  0  0  0  0  0  0  0  0  0  0
    4.2560   -1.1225    0.5163 N   0  0  0  0  0  0  0  0  0  0  0  0
    4.3630   -2.4882    0.7244 C   0  0  0  0  0  0  0  0  0  0  0  0
    3.3416   -3.5123    0.2885 C   0  0  1  0  0  0  0  0  0  0  0  0
    3.2125   -3.6290   -1.2487 C   0  0  0  0  0  0  0  0  0  0  0  0
    2.9963   -2.4066   -1.9243 O   0  0  0  0  0  0  0  0  0  0  0  0
    3.6888   -4.8561    0.8618 N   0  0  0  0  0  0  0  0  0  0  0  0
    2.2158   -8.9675    1.2518 H   0  0  0  0  0  0  0  0  0  0  0  0
    6.9976   -1.4070    2.1646 H   0  0  0  0  0  0  0  0  0  0  0  0
    3.3053   -6.9212    2.8770 H   0  0  0  0  0  0  0  0  0  0  0  0
    0.1750  -10.0114    1.8789 H   0  0  0  0  0  0  0  0  0  0  0  0
   -1.9211   -9.8296    3.2745 H   0  0  0  0  0  0  0  0  0  0  0  0
   -0.6823   -6.1545    4.6688 H   0  0  0  0  0  0  0  0  0  0  0  0
    4.6138   -8.5873    1.5504 H   0  0  0  0  0  0  0  0  0  0  0  0
    4.2165   -7.7071    0.0803 H   0  0  0  0  0  0  0  0  0  0  0  0
    5.7498   -6.6587    2.4939 H   0  0  0  0  0  0  0  0  0  0  0  0
    6.3899   -6.9330    0.9027 H   0  0  0  0  0  0  0  0  0  0  0  0
    5.5720   -5.0513    0.0055 H   0  0  0  0  0  0  0  0  0  0  0  0
    5.5494   -4.2515    2.9381 H   0  0  0  0  0  0  0  0  0  0  0  0
    6.9472   -4.2670    1.8577 H   0  0  0  0  0  0  0  0  0  0  0  0
    5.6431    0.3983    0.9754 H   0  0  0  0  0  0  0  0  0  0  0  0
    2.3834   -3.1676    0.6867 H   0  0  0  0  0  0  0  0  0  0  0  0
    4.1042   -4.1010   -1.6640 H   0  0  0  0  0  0  0  0  0  0  0  0
    2.3516   -4.2552   -1.4696 H   0  0  0  0  0  0  0  0  0  0  0  0
    2.3011   -1.9355   -1.4680 H   0  0  0  0  0  0  0  0  0  0  0  0
  1  2  2  0
  2 23  1  0
  2  3  1  0
  3 11  1  0
  3 26  1  1
  3  4  1  0
  4  5  1  0
  4 24  1  0
  5  6  2  0
  5 10  1  0
  6 27  1  0
  6  7  1  0
  7 28  1  0
  7  8  2  0
  8  9  1  0
  9 29  1  0
  9 10  2  0
 11 12  1  0
 11 30  1  0
 11 31  1  0
 12 13  1  0
 12 32  1  0
 12 33  1  0
 13 23  1  0
 13 14  1  0
 13 34  1  6
 14 35  1  0
 14 36  1  0
 14 15  1  0
 15 19  2  0
 15 16  1  0
 16 25  1  0
 16 17  1  0
 17 37  1  0
 17 18  2  0
 18 19  1  0
 19 20  1  0
 20 21  1  0
 20 23  1  0
 20 38  1  1
 21 22  1  0
 21 39  1  0
 21 40  1  0
 22 41  1  0
M  END
>  <i_m_ct_stereo_status>  (149) 
1

>  <s_m_source_file>  (149) 
/var/tmp/pbs.5102103.sched01/tmprp2a6t7u/44c8wyhmqh.sdf

>  <i_m_source_file_index>  (149) 
12

>  <i_lp_mmshare_version>  (149) 
48012

>  <i_f3d_flags>  (149) 
0

>  <s_epik_input>  (149) 
W25IXTFbY0hdbmMoW0NIMl0yKWMxW0NAQEhdKFtDSDJdW09IXSlOKFtDQEBIXTIzKUMoPU8pW0NASF0oW0NIMl1bQ0gyXTMpL049YzQvW2NIXVtjSF1bbkhdW2NIXW40

>  <s_epik_cmdline>  (149) 
J2VwaWtfcHl0aG9uJywgJy1waHQnLCAnMi4wJywgJy1waCcsICc3LjAnLCAnLXRuJywgJzgnLCAnLW1hJywgJzIwMCcsICctaW1hZScsICc8aW5maWxlLm1hZT4nLCAnLW9tYWUnLCAnPG91dGZpbGUubWFlPic=

>  <r_lp_tautomer_probability>  (149) 
0.5

>  <r_epik_Ionization_Penalty>  (149) 
1.0437

>  <r_epik_Ionization_Penalty_Charging>  (149) 
1.01088

>  <r_epik_Ionization_Penalty_Neutral>  (149) 
0.0328198

>  <r_epik_State_Penalty>  (149) 
1.23945

>  <r_epik_Charging_Adjusted_Penalty>  (149) 
2.25033

>  <i_epik_Tot_Q>  (149) 
0

>  <i_epik_Tot_abs_Q>  (149) 
0

>  <s_lp_Force_Field>  (149) 
OPLS3e

>  <r_lp_Energy>  (149) 
43.2686

>  <b_lp_Chiralities_Consistent>  (149) 
1

>  <s_lp_Variant>  (149) 
32:0-2

>  <s_i_glide_gridfile>  (149) 
pfpi4k_grid

>  <i_i_glide_lignum>  (149) 
12

>  <i_i_glide_rotatable_bonds>  (149) 
4

>  <r_i_docking_score>  (149) 
-3.91541

>  <r_i_glide_ligand_efficiency>  (149) 
-0.170235

>  <r_i_glide_ligand_efficiency_sa>  (149) 
-0.484127

>  <r_i_glide_ligand_efficiency_ln>  (149) 
-0.946783

>  <r_i_glide_gscore>  (149) 
-3.91541

>  <r_i_glide_lipo>  (149) 
-0.404441

>  <r_i_glide_hbond>  (149) 
-0.280206

>  <r_i_glide_metal>  (149) 
-0

>  <r_i_glide_rewards>  (149) 
-1.45101

>  <r_i_glide_evdw>  (149) 
-24.7173

>  <r_i_glide_ecoul>  (149) 
-6.80729

>  <r_i_glide_erotb>  (149) 
0.564319

>  <r_i_glide_esite>  (149) 
-0.0871227

>  <r_i_glide_emodel>  (149) 
-39.0586

>  <r_i_glide_energy>  (149) 
-31.5246

>  <r_i_glide_einternal>  (149) 
3.62734

>  <r_i_glide_intrahb_reward>  (149) 
-0

>  <i_i_glide_confnum>  (149) 
3

>  <i_i_glide_posenum>  (149) 
12

>  <r_i_glide_eff_state_penalty>  (149) 
0

>  <ligand_id>  (149) 
32

>  <original_smiles>  (149) 
O=C1C(N=c2cc[nH]cn2)CCC2Cc3nc[nH]c3C(CO)N12

>  <smiles>  (149) 
[H]OC([H])([H])C1([H])c2nc([H])n([H])c2C([H])([H])C2([H])N1C(=O)C([H])(N([H])c1nc([H])nc([H])c1[H])C([H])([H])C2([H])[H]

$$$$
32:1:2
     RDKit          3D

 41 44  0  0  1  0  0  0  0  0999 V2000
   -0.3604    0.1434    2.8989 O   0  0  0  0  0  0  0  0  0  0  0  0
    0.3745    1.0824    3.2034 C   0  0  0  0  0  0  0  0  0  0  0  0
    1.8566    1.0095    2.8134 C   0  0  1  0  0  0  0  0  0  0  0  0
    2.0957    0.1279    1.6738 N   0  0  0  0  0  0  0  0  0  0  0  0
    3.3468   -0.4250    1.3821 C   0  0  0  0  0  0  0  0  0  0  0  0
    3.4843   -1.1445    0.1873 C   0  0  0  0  0  0  0  0  0  0  0  0
    4.7558   -1.6519   -0.1160 C   0  0  0  0  0  0  0  0  0  0  0  0
    5.8002   -1.4663    0.7131 N   0  0  0  0  0  0  0  0  0  0  0  0
    5.5543   -0.8002    1.8406 C   0  0  0  0  0  0  0  0  0  0  0  0
    4.3930   -0.2656    2.2208 N   0  0  0  0  0  0  0  0  0  0  0  0
    2.3680    2.4169    2.5106 C   0  0  0  0  0  0  0  0  0  0  0  0
    2.2429    3.2775    3.7663 C   0  0  0  0  0  0  0  0  0  0  0  0
    0.8063    3.2890    4.3248 C   0  0  2  0  0  0  0  0  0  0  0  0
    0.7820    3.4700    5.8637 C   0  0  0  0  0  0  0  0  0  0  0  0
   -0.6264    3.4578    6.3267 C   0  0  0  0  0  0  0  0  0  0  0  0
   -1.1633    3.9600    7.4972 N   0  0  0  0  0  0  0  0  0  0  0  0
   -2.4795    3.7162    7.4409 C   0  0  0  0  0  0  0  0  0  0  0  0
   -2.8565    3.0579    6.3403 N   0  0  0  0  0  0  0  0  0  0  0  0
   -1.6696    2.9421    5.6095 C   0  0  0  0  0  0  0  0  0  0  0  0
   -1.5089    2.2907    4.2662 C   0  0  1  0  0  0  0  0  0  0  0  0
   -2.3306    2.9787    3.1471 C   0  0  0  0  0  0  0  0  0  0  0  0
   -1.9503    4.3268    2.8943 O   0  0  0  0  0  0  0  0  0  0  0  0
   -0.0742    2.1632    3.8889 N   0  0  0  0  0  0  0  0  0  0  0  0
    1.3605    0.0153    0.9814 H   0  0  0  0  0  0  0  0  0  0  0  0
   -0.6680    4.4517    8.2302 H   0  0  0  0  0  0  0  0  0  0  0  0
    2.3834    0.6111    3.6845 H   0  0  0  0  0  0  0  0  0  0  0  0
    2.6470   -1.2914   -0.4773 H   0  0  0  0  0  0  0  0  0  0  0  0
    4.9300   -2.2045   -1.0290 H   0  0  0  0  0  0  0  0  0  0  0  0
    6.3910   -0.6654    2.5085 H   0  0  0  0  0  0  0  0  0  0  0  0
    3.4134    2.3663    2.2128 H   0  0  0  0  0  0  0  0  0  0  0  0
    1.8041    2.8540    1.6803 H   0  0  0  0  0  0  0  0  0  0  0  0
    2.9507    2.9145    4.5166 H   0  0  0  0  0  0  0  0  0  0  0  0
    2.5390    4.3001    3.5275 H   0  0  0  0  0  0  0  0  0  0  0  0
    0.3607    4.1929    3.9105 H   0  0  0  0  0  0  0  0  0  0  0  0
    1.3169    2.6477    6.3442 H   0  0  0  0  0  0  0  0  0  0  0  0
    1.2784    4.3987    6.1472 H   0  0  0  0  0  0  0  0  0  0  0  0
   -3.1771    4.0418    8.1977 H   0  0  0  0  0  0  0  0  0  0  0  0
   -1.9347    1.2912    4.3780 H   0  0  0  0  0  0  0  0  0  0  0  0
   -2.2306    2.4150    2.2179 H   0  0  0  0  0  0  0  0  0  0  0  0
   -3.3883    2.9534    3.4196 H   0  0  0  0  0  0  0  0  0  0  0  0
   -1.1755    4.3202    2.3342 H   0  0  0  0  0  0  0  0  0  0  0  0
  1  2  2  0
  2 23  1  0
  2  3  1  0
  3 11  1  0
  3 26  1  1
  3  4  1  0
  4  5  1  0
  4 24  1  0
  5  6  2  0
  5 10  1  0
  6 27  1  0
  6  7  1  0
  7 28  1  0
  7  8  2  0
  8  9  1  0
  9 29  1  0
  9 10  2  0
 11 12  1  0
 11 30  1  0
 11 31  1  0
 12 13  1  0
 12 32  1  0
 12 33  1  0
 13 23  1  0
 13 14  1  0
 13 34  1  6
 14 35  1  0
 14 36  1  0
 14 15  1  0
 15 19  2  0
 15 16  1  0
 16 25  1  0
 16 17  1  0
 17 37  1  0
 17 18  2  0
 18 19  1  0
 19 20  1  0
 20 21  1  0
 20 23  1  0
 20 38  1  1
 21 22  1  0
 21 39  1  0
 21 40  1  0
 22 41  1  0
M  END
>  <i_m_ct_stereo_status>  (150) 
1

>  <s_m_source_file>  (150) 
/var/tmp/pbs.5102103.sched01/tmprp2a6t7u/44c8wyhmqh.sdf

>  <i_m_source_file_index>  (150) 
12

>  <i_lp_mmshare_version>  (150) 
48012

>  <i_f3d_flags>  (150) 
0

>  <s_epik_input>  (150) 
W25IXTFbY0hdbmMoW0NIMl0yKWMxW0NAQEhdKFtDSDJdW09IXSlOKFtDQEBIXTIzKUMoPU8pW0NASF0oW0NIMl1bQ0gyXTMpL049YzQvW2NIXVtjSF1bbkhdW2NIXW40

>  <s_epik_cmdline>  (150) 
J2VwaWtfcHl0aG9uJywgJy1waHQnLCAnMi4wJywgJy1waCcsICc3LjAnLCAnLXRuJywgJzgnLCAnLW1hJywgJzIwMCcsICctaW1hZScsICc8aW5maWxlLm1hZT4nLCAnLW9tYWUnLCAnPG91dGZpbGUubWFlPic=

>  <r_lp_tautomer_probability>  (150) 
0.5

>  <r_epik_Ionization_Penalty>  (150) 
1.0437

>  <r_epik_Ionization_Penalty_Charging>  (150) 
1.01088

>  <r_epik_Ionization_Penalty_Neutral>  (150) 
0.0328198

>  <r_epik_State_Penalty>  (150) 
1.23945

>  <r_epik_Charging_Adjusted_Penalty>  (150) 
2.25033

>  <i_epik_Tot_Q>  (150) 
0

>  <i_epik_Tot_abs_Q>  (150) 
0

>  <s_lp_Force_Field>  (150) 
OPLS3e

>  <r_lp_Energy>  (150) 
43.2686

>  <b_lp_Chiralities_Consistent>  (150) 
1

>  <s_lp_Variant>  (150) 
32:0-2

>  <s_i_glide_gridfile>  (150) 
pfpi4k_grid

>  <i_i_glide_lignum>  (150) 
12

>  <i_i_glide_rotatable_bonds>  (150) 
4

>  <r_i_docking_score>  (150) 
-3.90381

>  <r_i_glide_ligand_efficiency>  (150) 
-0.169731

>  <r_i_glide_ligand_efficiency_sa>  (150) 
-0.482691

>  <r_i_glide_ligand_efficiency_ln>  (150) 
-0.943976

>  <r_i_glide_gscore>  (150) 
-3.90381

>  <r_i_glide_lipo>  (150) 
-0.0205934

>  <r_i_glide_hbond>  (150) 
-0.330057

>  <r_i_glide_metal>  (150) 
-0

>  <r_i_glide_rewards>  (150) 
-1.53631

>  <r_i_glide_evdw>  (150) 
-24.0682

>  <r_i_glide_ecoul>  (150) 
-8.33774

>  <r_i_glide_erotb>  (150) 
0.564319

>  <r_i_glide_esite>  (150) 
-0.127093

>  <r_i_glide_emodel>  (150) 
-39.5452

>  <r_i_glide_energy>  (150) 
-32.4059

>  <r_i_glide_einternal>  (150) 
5.06734

>  <r_i_glide_intrahb_reward>  (150) 
-0

>  <i_i_glide_confnum>  (150) 
5

>  <i_i_glide_posenum>  (150) 
6

>  <r_i_glide_eff_state_penalty>  (150) 
0

>  <ligand_id>  (150) 
32

>  <original_smiles>  (150) 
O=C1C(N=c2cc[nH]cn2)CCC2Cc3nc[nH]c3C(CO)N12

>  <smiles>  (150) 
[H]OC([H])([H])C1([H])c2nc([H])n([H])c2C([H])([H])C2([H])N1C(=O)C([H])(N([H])c1nc([H])nc([H])c1[H])C([H])([H])C2([H])[H]

$$$$
32:2:0
     RDKit          3D

 41 44  0  0  1  0  0  0  0  0999 V2000
    1.4525   -5.4919    0.9549 O   0  0  0  0  0  0  0  0  0  0  0  0
    2.6462   -5.7278    1.1326 C   0  0  0  0  0  0  0  0  0  0  0  0
    3.0673   -7.0489    1.8143 C   0  0  1  0  0  0  0  0  0  0  0  0
    2.0628   -8.1166    1.8202 N   0  0  0  0  0  0  0  0  0  0  0  0
    0.8938   -8.0715    2.5935 C   0  0  0  0  0  0  0  0  0  0  0  0
   -0.0138   -9.1358    2.4971 C   0  0  0  0  0  0  0  0  0  0  0  0
   -1.1873   -9.0374    3.2623 C   0  0  0  0  0  0  0  0  0  0  0  0
   -1.4407   -7.9587    4.0490 N   0  0  0  0  0  0  0  0  0  0  0  0
   -0.4866   -7.0340    4.0891 C   0  0  0  0  0  0  0  0  0  0  0  0
    0.6600   -7.0167    3.4055 N   0  0  0  0  0  0  0  0  0  0  0  0
    4.3501   -7.5486    1.1642 C   0  0  0  0  0  0  0  0  0  0  0  0
    5.4560   -6.5257    1.4010 C   0  0  0  0  0  0  0  0  0  0  0  0
    5.0857   -5.1203    0.8950 C   0  0  2  0  0  0  0  0  0  0  0  0
    5.8109   -4.0270    1.7204 C   0  0  0  0  0  0  0  0  0  0  0  0
    5.4264   -2.6917    1.1900 C   0  0  0  0  0  0  0  0  0  0  0  0
    6.1635   -1.5250    1.2734 N   0  0  0  0  0  0  0  0  0  0  0  0
    5.4023   -0.6459    0.6364 C   0  0  0  0  0  0  0  0  0  0  0  0
    4.2551   -1.1596    0.1646 N   0  0  0  0  0  0  0  0  0  0  0  0
    4.2642   -2.4894    0.4955 C   0  0  0  0  0  0  0  0  0  0  0  0
    3.2277   -3.5244    0.1866 C   0  0  1  0  0  0  0  0  0  0  0  0
    2.9529   -3.6939   -1.3184 C   0  0  0  0  0  0  0  0  0  0  0  0
    2.6140   -2.4847   -1.9800 O   0  0  0  0  0  0  0  0  0  0  0  0
    3.6178   -4.8368    0.7817 N   0  0  0  0  0  0  0  0  0  0  0  0
    2.2289   -8.9517    1.2768 H   0  0  0  0  0  0  0  0  0  0  0  0
    3.5387   -0.6962   -0.3776 H   0  0  0  0  0  0  0  0  0  0  0  0
    3.2780   -6.8561    2.8642 H   0  0  0  0  0  0  0  0  0  0  0  0
    0.1700   -9.9925    1.8761 H   0  0  0  0  0  0  0  0  0  0  0  0
   -1.9244   -9.8324    3.2545 H   0  0  0  0  0  0  0  0  0  0  0  0
   -0.6915   -6.1712    4.6961 H   0  0  0  0  0  0  0  0  0  0  0  0
    4.6252   -8.5121    1.5970 H   0  0  0  0  0  0  0  0  0  0  0  0
    4.2118   -7.7010    0.0918 H   0  0  0  0  0  0  0  0  0  0  0  0
    5.6932   -6.5065    2.4653 H   0  0  0  0  0  0  0  0  0  0  0  0
    6.3650   -6.8496    0.9003 H   0  0  0  0  0  0  0  0  0  0  0  0
    5.4562   -5.0541   -0.1264 H   0  0  0  0  0  0  0  0  0  0  0  0
    5.5044   -4.1059    2.7645 H   0  0  0  0  0  0  0  0  0  0  0  0
    6.8919   -4.1751    1.6740 H   0  0  0  0  0  0  0  0  0  0  0  0
    5.6739    0.3905    0.4846 H   0  0  0  0  0  0  0  0  0  0  0  0
    2.3170   -3.1434    0.6509 H   0  0  0  0  0  0  0  0  0  0  0  0
    3.8267   -4.1235   -1.8098 H   0  0  0  0  0  0  0  0  0  0  0  0
    2.1126   -4.3788   -1.4412 H   0  0  0  0  0  0  0  0  0  0  0  0
    1.9108   -2.0418   -1.5049 H   0  0  0  0  0  0  0  0  0  0  0  0
  1  2  2  0
  2 23  1  0
  2  3  1  0
  3 11  1  0
  3 26  1  1
  3  4  1  0
  4  5  1  0
  4 24  1  0
  5  6  2  0
  5 10  1  0
  6 27  1  0
  6  7  1  0
  7 28  1  0
  7  8  2  0
  8  9  1  0
  9 29  1  0
  9 10  2  0
 11 12  1  0
 11 30  1  0
 11 31  1  0
 12 13  1  0
 12 32  1  0
 12 33  1  0
 13 23  1  0
 13 14  1  0
 13 34  1  6
 14 15  1  0
 14 35  1  0
 14 36  1  0
 15 19  2  0
 15 16  1  0
 16 17  2  0
 17 18  1  0
 17 37  1  0
 18 25  1  0
 18 19  1  0
 19 20  1  0
 20 21  1  0
 20 23  1  0
 20 38  1  1
 21 22  1  0
 21 39  1  0
 21 40  1  0
 22 41  1  0
M  END
>  <i_m_ct_stereo_status>  (151) 
1

>  <s_m_source_file>  (151) 
/var/tmp/pbs.5102103.sched01/tmprp2a6t7u/44c8wyhmqh.sdf

>  <i_m_source_file_index>  (151) 
13

>  <i_lp_mmshare_version>  (151) 
48012

>  <i_f3d_flags>  (151) 
0

>  <s_epik_input>  (151) 
W25IXTFbY0hdbmMoW0NIMl0yKWMxW0NAQEhdKFtDSDJdW09IXSlOKFtDQEBIXTIzKUMoPU8pW0NASF0oW0NIMl1bQ0gyXTMpL049YzQvW2NIXVtjSF1bbkhdW2NIXW40

>  <s_epik_cmdline>  (151) 
J2VwaWtfcHl0aG9uJywgJy1waHQnLCAnMi4wJywgJy1waCcsICc3LjAnLCAnLXRuJywgJzgnLCAnLW1hJywgJzIwMCcsICctaW1hZScsICc8aW5maWxlLm1hZT4nLCAnLW9tYWUnLCAnPG91dGZpbGUubWFlPic=

>  <r_lp_tautomer_probability>  (151) 
0.5

>  <r_epik_Ionization_Penalty>  (151) 
1.34266

>  <r_epik_Ionization_Penalty_Charging>  (151) 
1.30947

>  <r_epik_Ionization_Penalty_Neutral>  (151) 
0.0331911

>  <r_epik_State_Penalty>  (151) 
1.39985

>  <r_epik_Charging_Adjusted_Penalty>  (151) 
2.70932

>  <i_epik_Tot_Q>  (151) 
0

>  <i_epik_Tot_abs_Q>  (151) 
0

>  <s_lp_Force_Field>  (151) 
OPLS3e

>  <r_lp_Energy>  (151) 
43.6754

>  <b_lp_Chiralities_Consistent>  (151) 
1

>  <s_lp_Variant>  (151) 
32:0-3

>  <s_i_glide_gridfile>  (151) 
pfpi4k_grid

>  <i_i_glide_lignum>  (151) 
13

>  <i_i_glide_rotatable_bonds>  (151) 
4

>  <r_i_docking_score>  (151) 
-4.30105

>  <r_i_glide_ligand_efficiency>  (151) 
-0.187002

>  <r_i_glide_ligand_efficiency_sa>  (151) 
-0.53181

>  <r_i_glide_ligand_efficiency_ln>  (151) 
-1.04003

>  <r_i_glide_gscore>  (151) 
-4.30105

>  <r_i_glide_lipo>  (151) 
-0.403503

>  <r_i_glide_hbond>  (151) 
-0.282377

>  <r_i_glide_metal>  (151) 
-0

>  <r_i_glide_rewards>  (151) 
-1.45562

>  <r_i_glide_evdw>  (151) 
-23.2151

>  <r_i_glide_ecoul>  (151) 
-9.72188

>  <r_i_glide_erotb>  (151) 
0.564319

>  <r_i_glide_esite>  (151) 
-0.104839

>  <r_i_glide_emodel>  (151) 
-41.125

>  <r_i_glide_energy>  (151) 
-32.937

>  <r_i_glide_einternal>  (151) 
3.19199

>  <r_i_glide_intrahb_reward>  (151) 
-0

>  <i_i_glide_confnum>  (151) 
3

>  <i_i_glide_posenum>  (151) 
3

>  <r_i_glide_eff_state_penalty>  (151) 
0

>  <ligand_id>  (151) 
32

>  <original_smiles>  (151) 
O=C1C(N=c2cc[nH]cn2)CCC2Cc3nc[nH]c3C(CO)N12

>  <smiles>  (151) 
[H]OC([H])([H])C1([H])c2c(nc([H])n2[H])C([H])([H])C2([H])N1C(=O)C([H])(N([H])c1nc([H])nc([H])c1[H])C([H])([H])C2([H])[H]

$$$$
32:2:1
     RDKit          3D

 41 44  0  0  1  0  0  0  0  0999 V2000
    2.2606   -1.7200    2.1170 O   0  0  0  0  0  0  0  0  0  0  0  0
    3.3865   -1.5478    1.6414 C   0  0  0  0  0  0  0  0  0  0  0  0
    4.3977   -0.6970    2.4318 C   0  0  1  0  0  0  0  0  0  0  0  0
    4.1544   -0.6110    3.8709 N   0  0  0  0  0  0  0  0  0  0  0  0
    4.0468   -1.7667    4.6565 C   0  0  0  0  0  0  0  0  0  0  0  0
    3.4777   -1.6733    5.9348 C   0  0  0  0  0  0  0  0  0  0  0  0
    3.4175   -2.8699    6.6725 C   0  0  0  0  0  0  0  0  0  0  0  0
    3.8676   -4.0398    6.1795 N   0  0  0  0  0  0  0  0  0  0  0  0
    4.3760   -4.0147    4.9535 C   0  0  0  0  0  0  0  0  0  0  0  0
    4.4966   -2.9471    4.1819 N   0  0  0  0  0  0  0  0  0  0  0  0
    5.8531   -1.0926    2.1314 C   0  0  0  0  0  0  0  0  0  0  0  0
    6.1180   -1.0074    0.6414 C   0  0  0  0  0  0  0  0  0  0  0  0
    5.0976   -1.8283   -0.1789 C   0  0  2  0  0  0  0  0  0  0  0  0
    4.9325   -1.2121   -1.5850 C   0  0  0  0  0  0  0  0  0  0  0  0
    3.9702   -2.0376   -2.3603 C   0  0  0  0  0  0  0  0  0  0  0  0
    3.9100   -2.1482   -3.7505 N   0  0  0  0  0  0  0  0  0  0  0  0
    2.9006   -3.0066   -3.9179 C   0  0  0  0  0  0  0  0  0  0  0  0
    2.3329   -3.4195   -2.7840 N   0  0  0  0  0  0  0  0  0  0  0  0
    3.0469   -2.8321   -1.7528 C   0  0  0  0  0  0  0  0  0  0  0  0
    2.8421   -2.9762   -0.2800 C   0  0  1  0  0  0  0  0  0  0  0  0
    2.9744   -4.4242    0.2320 C   0  0  0  0  0  0  0  0  0  0  0  0
    1.9396   -5.2252   -0.3108 O   0  0  0  0  0  0  0  0  0  0  0  0
    3.7711   -2.0806    0.4602 N   0  0  0  0  0  0  0  0  0  0  0  0
    3.6467    0.2060    4.1809 H   0  0  0  0  0  0  0  0  0  0  0  0
    1.5744   -4.0827   -2.7154 H   0  0  0  0  0  0  0  0  0  0  0  0
    4.2626    0.3216    2.0694 H   0  0  0  0  0  0  0  0  0  0  0  0
    3.1120   -0.7376    6.3271 H   0  0  0  0  0  0  0  0  0  0  0  0
    3.0024   -2.8915    7.6715 H   0  0  0  0  0  0  0  0  0  0  0  0
    4.7423   -4.9392    4.5467 H   0  0  0  0  0  0  0  0  0  0  0  0
    6.5410   -0.4559    2.6963 H   0  0  0  0  0  0  0  0  0  0  0  0
    6.0714   -2.1185    2.4255 H   0  0  0  0  0  0  0  0  0  0  0  0
    6.1193    0.0446    0.3527 H   0  0  0  0  0  0  0  0  0  0  0  0
    7.1238   -1.3871    0.4558 H   0  0  0  0  0  0  0  0  0  0  0  0
    5.5303   -2.8202   -0.3032 H   0  0  0  0  0  0  0  0  0  0  0  0
    4.5411   -0.1995   -1.4914 H   0  0  0  0  0  0  0  0  0  0  0  0
    5.8881   -1.1478   -2.0982 H   0  0  0  0  0  0  0  0  0  0  0  0
    2.5701   -3.3655   -4.8705 H   0  0  0  0  0  0  0  0  0  0  0  0
    1.8202   -2.6636   -0.0825 H   0  0  0  0  0  0  0  0  0  0  0  0
    3.9535   -4.8453   -0.0151 H   0  0  0  0  0  0  0  0  0  0  0  0
    2.8827   -4.4510    1.3202 H   0  0  0  0  0  0  0  0  0  0  0  0
    2.2218   -5.4535   -1.2008 H   0  0  0  0  0  0  0  0  0  0  0  0
  1  2  2  0
  2 23  1  0
  2  3  1  0
  3 11  1  0
  3 26  1  6
  3  4  1  0
  4  5  1  0
  4 24  1  0
  5  6  2  0
  5 10  1  0
  6 27  1  0
  6  7  1  0
  7 28  1  0
  7  8  2  0
  8  9  1  0
  9 29  1  0
  9 10  2  0
 11 12  1  0
 11 30  1  0
 11 31  1  0
 12 13  1  0
 12 32  1  0
 12 33  1  0
 13 23  1  0
 13 14  1  0
 13 34  1  6
 14 15  1  0
 14 35  1  0
 14 36  1  0
 15 19  2  0
 15 16  1  0
 16 17  2  0
 17 18  1  0
 17 37  1  0
 18 25  1  0
 18 19  1  0
 19 20  1  0
 20 21  1  0
 20 23  1  0
 20 38  1  6
 21 22  1  0
 21 39  1  0
 21 40  1  0
 22 41  1  0
M  END
>  <i_m_ct_stereo_status>  (152) 
1

>  <s_m_source_file>  (152) 
/var/tmp/pbs.5102103.sched01/tmprp2a6t7u/44c8wyhmqh.sdf

>  <i_m_source_file_index>  (152) 
13

>  <i_lp_mmshare_version>  (152) 
48012

>  <i_f3d_flags>  (152) 
0

>  <s_epik_input>  (152) 
W25IXTFbY0hdbmMoW0NIMl0yKWMxW0NAQEhdKFtDSDJdW09IXSlOKFtDQEBIXTIzKUMoPU8pW0NASF0oW0NIMl1bQ0gyXTMpL049YzQvW2NIXVtjSF1bbkhdW2NIXW40

>  <s_epik_cmdline>  (152) 
J2VwaWtfcHl0aG9uJywgJy1waHQnLCAnMi4wJywgJy1waCcsICc3LjAnLCAnLXRuJywgJzgnLCAnLW1hJywgJzIwMCcsICctaW1hZScsICc8aW5maWxlLm1hZT4nLCAnLW9tYWUnLCAnPG91dGZpbGUubWFlPic=

>  <r_lp_tautomer_probability>  (152) 
0.5

>  <r_epik_Ionization_Penalty>  (152) 
1.34266

>  <r_epik_Ionization_Penalty_Charging>  (152) 
1.30947

>  <r_epik_Ionization_Penalty_Neutral>  (152) 
0.0331911

>  <r_epik_State_Penalty>  (152) 
1.39985

>  <r_epik_Charging_Adjusted_Penalty>  (152) 
2.70932

>  <i_epik_Tot_Q>  (152) 
0

>  <i_epik_Tot_abs_Q>  (152) 
0

>  <s_lp_Force_Field>  (152) 
OPLS3e

>  <r_lp_Energy>  (152) 
43.6754

>  <b_lp_Chiralities_Consistent>  (152) 
1

>  <s_lp_Variant>  (152) 
32:0-3

>  <s_i_glide_gridfile>  (152) 
pfpi4k_grid

>  <i_i_glide_lignum>  (152) 
13

>  <i_i_glide_rotatable_bonds>  (152) 
4

>  <r_i_docking_score>  (152) 
-4.20016

>  <r_i_glide_ligand_efficiency>  (152) 
-0.182616

>  <r_i_glide_ligand_efficiency_sa>  (152) 
-0.519335

>  <r_i_glide_ligand_efficiency_ln>  (152) 
-1.01564

>  <r_i_glide_gscore>  (152) 
-4.20016

>  <r_i_glide_lipo>  (152) 
-0.299881

>  <r_i_glide_hbond>  (152) 
-0.539823

>  <r_i_glide_metal>  (152) 
-0

>  <r_i_glide_rewards>  (152) 
-1.42425

>  <r_i_glide_evdw>  (152) 
-22.2538

>  <r_i_glide_ecoul>  (152) 
-8.93428

>  <r_i_glide_erotb>  (152) 
0.564319

>  <r_i_glide_esite>  (152) 
-0.0476926

>  <r_i_glide_emodel>  (152) 
-38.4851

>  <r_i_glide_energy>  (152) 
-31.1881

>  <r_i_glide_einternal>  (152) 
4.11563

>  <r_i_glide_intrahb_reward>  (152) 
-0

>  <i_i_glide_confnum>  (152) 
4

>  <i_i_glide_posenum>  (152) 
35

>  <r_i_glide_eff_state_penalty>  (152) 
0

>  <ligand_id>  (152) 
32

>  <original_smiles>  (152) 
O=C1C(N=c2cc[nH]cn2)CCC2Cc3nc[nH]c3C(CO)N12

>  <smiles>  (152) 
[H]OC([H])([H])C1([H])c2c(nc([H])n2[H])C([H])([H])C2([H])N1C(=O)C([H])(N([H])c1nc([H])nc([H])c1[H])C([H])([H])C2([H])[H]

$$$$
32:2:2
     RDKit          3D

 41 44  0  0  1  0  0  0  0  0999 V2000
   -0.1701    0.1018    2.9086 O   0  0  0  0  0  0  0  0  0  0  0  0
    0.4962    1.0899    3.2095 C   0  0  0  0  0  0  0  0  0  0  0  0
    1.9789    1.1346    2.8082 C   0  0  1  0  0  0  0  0  0  0  0  0
    2.2682    0.2836    1.6556 N   0  0  0  0  0  0  0  0  0  0  0  0
    3.5297   -0.2620    1.3888 C   0  0  0  0  0  0  0  0  0  0  0  0
    3.7645   -0.8267    0.1244 C   0  0  0  0  0  0  0  0  0  0  0  0
    5.0349   -1.3636   -0.1195 C   0  0  0  0  0  0  0  0  0  0  0  0
    5.9943   -1.3506    0.8233 N   0  0  0  0  0  0  0  0  0  0  0  0
    5.6619   -0.8130    1.9984 C   0  0  0  0  0  0  0  0  0  0  0  0
    4.4954   -0.2588    2.3319 N   0  0  0  0  0  0  0  0  0  0  0  0
    2.3722    2.5794    2.5141 C   0  0  0  0  0  0  0  0  0  0  0  0
    2.1807    3.4195    3.7739 C   0  0  0  0  0  0  0  0  0  0  0  0
    0.7473    3.3323    4.3245 C   0  0  2  0  0  0  0  0  0  0  0  0
    0.7151    3.5401    5.8584 C   0  0  0  0  0  0  0  0  0  0  0  0
   -0.6962    3.4604    6.3280 C   0  0  0  0  0  0  0  0  0  0  0  0
   -1.2182    4.0466    7.4799 N   0  0  0  0  0  0  0  0  0  0  0  0
   -2.5050    3.6965    7.4386 C   0  0  0  0  0  0  0  0  0  0  0  0
   -2.8278    2.9591    6.3667 N   0  0  0  0  0  0  0  0  0  0  0  0
   -1.6694    2.8143    5.6237 C   0  0  0  0  0  0  0  0  0  0  0  0
   -1.4632    2.1103    4.3208 C   0  0  1  0  0  0  0  0  0  0  0  0
   -2.3708    2.6230    3.1826 C   0  0  0  0  0  0  0  0  0  0  0  0
   -2.1183    3.9856    2.8777 O   0  0  0  0  0  0  0  0  0  0  0  0
   -0.0289    2.1240    3.9171 N   0  0  0  0  0  0  0  0  0  0  0  0
    1.5694    0.2256    0.9201 H   0  0  0  0  0  0  0  0  0  0  0  0
   -3.7498    2.6325    6.1121 H   0  0  0  0  0  0  0  0  0  0  0  0
    2.5454    0.7766    3.6690 H   0  0  0  0  0  0  0  0  0  0  0  0
    3.0045   -0.8445   -0.6383 H   0  0  0  0  0  0  0  0  0  0  0  0
    5.2823   -1.7980   -1.0804 H   0  0  0  0  0  0  0  0  0  0  0  0
    6.4285   -0.8092    2.7542 H   0  0  0  0  0  0  0  0  0  0  0  0
    3.4170    2.6251    2.2186 H   0  0  0  0  0  0  0  0  0  0  0  0
    1.7749    2.9644    1.6800 H   0  0  0  0  0  0  0  0  0  0  0  0
    2.9046    3.0934    4.5240 H   0  0  0  0  0  0  0  0  0  0  0  0
    2.4095    4.4612    3.5497 H   0  0  0  0  0  0  0  0  0  0  0  0
    0.2283    4.1781    3.8808 H   0  0  0  0  0  0  0  0  0  0  0  0
    1.3032    2.7550    6.3412 H   0  0  0  0  0  0  0  0  0  0  0  0
    1.1680    4.4981    6.1166 H   0  0  0  0  0  0  0  0  0  0  0  0
   -3.2242    4.0223    8.1758 H   0  0  0  0  0  0  0  0  0  0  0  0
   -1.7676    1.0808    4.5151 H   0  0  0  0  0  0  0  0  0  0  0  0
   -2.2296    2.0182    2.2846 H   0  0  0  0  0  0  0  0  0  0  0  0
   -3.4188    2.5298    3.4717 H   0  0  0  0  0  0  0  0  0  0  0  0
   -1.3297    4.0254    2.3424 H   0  0  0  0  0  0  0  0  0  0  0  0
  1  2  2  0
  2 23  1  0
  2  3  1  0
  3 11  1  0
  3 26  1  1
  3  4  1  0
  4  5  1  0
  4 24  1  0
  5  6  2  0
  5 10  1  0
  6 27  1  0
  6  7  1  0
  7 28  1  0
  7  8  2  0
  8  9  1  0
  9 29  1  0
  9 10  2  0
 11 12  1  0
 11 30  1  0
 11 31  1  0
 12 13  1  0
 12 32  1  0
 12 33  1  0
 13 23  1  0
 13 14  1  0
 13 34  1  6
 14 15  1  0
 14 35  1  0
 14 36  1  0
 15 19  2  0
 15 16  1  0
 16 17  2  0
 17 18  1  0
 17 37  1  0
 18 25  1  0
 18 19  1  0
 19 20  1  0
 20 21  1  0
 20 23  1  0
 20 38  1  1
 21 22  1  0
 21 39  1  0
 21 40  1  0
 22 41  1  0
M  END
>  <i_m_ct_stereo_status>  (153) 
1

>  <s_m_source_file>  (153) 
/var/tmp/pbs.5102103.sched01/tmprp2a6t7u/44c8wyhmqh.sdf

>  <i_m_source_file_index>  (153) 
13

>  <i_lp_mmshare_version>  (153) 
48012

>  <i_f3d_flags>  (153) 
0

>  <s_epik_input>  (153) 
W25IXTFbY0hdbmMoW0NIMl0yKWMxW0NAQEhdKFtDSDJdW09IXSlOKFtDQEBIXTIzKUMoPU8pW0NASF0oW0NIMl1bQ0gyXTMpL049YzQvW2NIXVtjSF1bbkhdW2NIXW40

>  <s_epik_cmdline>  (153) 
J2VwaWtfcHl0aG9uJywgJy1waHQnLCAnMi4wJywgJy1waCcsICc3LjAnLCAnLXRuJywgJzgnLCAnLW1hJywgJzIwMCcsICctaW1hZScsICc8aW5maWxlLm1hZT4nLCAnLW9tYWUnLCAnPG91dGZpbGUubWFlPic=

>  <r_lp_tautomer_probability>  (153) 
0.5

>  <r_epik_Ionization_Penalty>  (153) 
1.34266

>  <r_epik_Ionization_Penalty_Charging>  (153) 
1.30947

>  <r_epik_Ionization_Penalty_Neutral>  (153) 
0.0331911

>  <r_epik_State_Penalty>  (153) 
1.39985

>  <r_epik_Charging_Adjusted_Penalty>  (153) 
2.70932

>  <i_epik_Tot_Q>  (153) 
0

>  <i_epik_Tot_abs_Q>  (153) 
0

>  <s_lp_Force_Field>  (153) 
OPLS3e

>  <r_lp_Energy>  (153) 
43.6754

>  <b_lp_Chiralities_Consistent>  (153) 
1

>  <s_lp_Variant>  (153) 
32:0-3

>  <s_i_glide_gridfile>  (153) 
pfpi4k_grid

>  <i_i_glide_lignum>  (153) 
13

>  <i_i_glide_rotatable_bonds>  (153) 
4

>  <r_i_docking_score>  (153) 
-3.31986

>  <r_i_glide_ligand_efficiency>  (153) 
-0.144342

>  <r_i_glide_ligand_efficiency_sa>  (153) 
-0.410489

>  <r_i_glide_ligand_efficiency_ln>  (153) 
-0.802773

>  <r_i_glide_gscore>  (153) 
-3.31986

>  <r_i_glide_lipo>  (153) 
-0.031692

>  <r_i_glide_hbond>  (153) 
-0.196106

>  <r_i_glide_metal>  (153) 
-0

>  <r_i_glide_rewards>  (153) 
-1.52736

>  <r_i_glide_evdw>  (153) 
-24.57

>  <r_i_glide_ecoul>  (153) 
-5.29707

>  <r_i_glide_erotb>  (153) 
0.564319

>  <r_i_glide_esite>  (153) 
-0.10596

>  <r_i_glide_emodel>  (153) 
-35.1304

>  <r_i_glide_energy>  (153) 
-29.8671

>  <r_i_glide_einternal>  (153) 
4.77786

>  <r_i_glide_intrahb_reward>  (153) 
-0

>  <i_i_glide_confnum>  (153) 
2

>  <i_i_glide_posenum>  (153) 
1

>  <r_i_glide_eff_state_penalty>  (153) 
0

>  <ligand_id>  (153) 
32

>  <original_smiles>  (153) 
O=C1C(N=c2cc[nH]cn2)CCC2Cc3nc[nH]c3C(CO)N12

>  <smiles>  (153) 
[H]OC([H])([H])C1([H])c2c(nc([H])n2[H])C([H])([H])C2([H])N1C(=O)C([H])(N([H])c1nc([H])nc([H])c1[H])C([H])([H])C2([H])[H]

$$$$
32:3:0
     RDKit          3D

 43 46  0  0  1  0  0  0  0  0999 V2000
    1.3674   -5.8571    1.4109 O   0  0  0  0  0  0  0  0  0  0  0  0
    2.5976   -5.9662    1.4064 C   0  0  0  0  0  0  0  0  0  0  0  0
    3.2488   -7.2371    1.9831 C   0  0  1  0  0  0  0  0  0  0  0  0
    2.3450   -8.3851    2.0117 N   0  0  0  0  0  0  0  0  0  0  0  0
    2.1185   -9.1957    3.1320 C   0  0  0  0  0  0  0  0  0  0  0  0
    1.1995  -10.2458    3.0240 C   0  0  0  0  0  0  0  0  0  0  0  0
    1.0066  -11.0594    4.1573 C   0  0  0  0  0  0  0  0  0  0  0  0
    1.6895  -10.7998    5.3001 N   0  0  0  0  0  0  0  0  0  0  0  0
    2.5436   -9.7717    5.3421 C   0  0  0  0  0  0  0  0  0  0  0  0
    2.7686   -8.9660    4.2930 N   0  0  0  0  0  0  0  0  0  0  0  0
    4.4927   -7.5803    1.1564 C   0  0  0  0  0  0  0  0  0  0  0  0
    5.5072   -6.4429    1.2845 C   0  0  0  0  0  0  0  0  0  0  0  0
    4.9055   -5.0587    0.9721 C   0  0  2  0  0  0  0  0  0  0  0  0
    5.4988   -3.9362    1.8713 C   0  0  0  0  0  0  0  0  0  0  0  0
    4.8362   -2.6538    1.5124 C   0  0  0  0  0  0  0  0  0  0  0  0
    5.2556   -1.3699    1.7468 N   0  0  0  0  0  0  0  0  0  0  0  0
    4.3631   -0.5100    1.2322 C   0  0  0  0  0  0  0  0  0  0  0  0
    3.3765   -1.2308    0.6824 N   0  0  0  0  0  0  0  0  0  0  0  0
    3.6570   -2.5631    0.8361 C   0  0  0  0  0  0  0  0  0  0  0  0
    2.8508   -3.7217    0.3802 C   0  0  1  0  0  0  0  0  0  0  0  0
    2.6933   -3.7411   -1.1541 C   0  0  0  0  0  0  0  0  0  0  0  0
    3.9358   -3.8414   -1.8331 O   0  0  0  0  0  0  0  0  0  0  0  0
    3.4094   -4.9945    0.9197 N   0  0  0  0  0  0  0  0  0  0  0  0
    1.8583   -8.6156    1.1586 H   0  0  0  0  0  0  0  0  0  0  0  0
    2.5514   -0.8571    0.2144 H   0  0  0  0  0  0  0  0  0  0  0  0
    3.5793   -6.9700    2.9877 H   0  0  0  0  0  0  0  0  0  0  0  0
    0.6628  -10.4285    2.1026 H   0  0  0  0  0  0  0  0  0  0  0  0
    0.3202  -11.8972    4.1929 H   0  0  0  0  0  0  0  0  0  0  0  0
    3.0592   -9.6006    6.2772 H   0  0  0  0  0  0  0  0  0  0  0  0
    4.9399   -8.5154    1.5058 H   0  0  0  0  0  0  0  0  0  0  0  0
    4.2172   -7.7327    0.1070 H   0  0  0  0  0  0  0  0  0  0  0  0
    5.9317   -6.4600    2.2904 H   0  0  0  0  0  0  0  0  0  0  0  0
    6.3371   -6.6296    0.6022 H   0  0  0  0  0  0  0  0  0  0  0  0
    5.2516   -4.8433   -0.0342 H   0  0  0  0  0  0  0  0  0  0  0  0
    5.2990   -4.1440    2.9258 H   0  0  0  0  0  0  0  0  0  0  0  0
    6.5788   -3.8503    1.7302 H   0  0  0  0  0  0  0  0  0  0  0  0
    4.4314    0.5638    1.2415 H   0  0  0  0  0  0  0  0  0  0  0  0
    1.8638   -3.5392    0.7902 H   0  0  0  0  0  0  0  0  0  0  0  0
    2.0429   -4.5720   -1.4291 H   0  0  0  0  0  0  0  0  0  0  0  0
    2.1951   -2.8365   -1.5069 H   0  0  0  0  0  0  0  0  0  0  0  0
    3.9598   -4.7112   -2.2222 H   0  0  0  0  0  0  0  0  0  0  0  0
    6.1127   -1.1056    2.2169 H   0  0  0  0  0  0  0  0  0  0  0  0
    1.5383  -11.3879    6.1463 H   0  0  0  0  0  0  0  0  0  0  0  0
  1  2  2  0
  2 23  1  0
  2  3  1  0
  3 11  1  0
  3 26  1  1
  3  4  1  0
  4  5  1  0
  4 24  1  0
  5  6  2  0
  5 10  1  0
  6 27  1  0
  6  7  1  0
  7 28  1  0
  7  8  2  0
  8  9  1  0
  8 43  1  0
  9 29  1  0
  9 10  2  0
 11 12  1  0
 11 30  1  0
 11 31  1  0
 12 13  1  0
 12 32  1  0
 12 33  1  0
 13 23  1  0
 13 14  1  0
 13 34  1  6
 14 15  1  0
 14 35  1  0
 14 36  1  0
 15 19  2  0
 15 16  1  0
 16 17  2  0
 16 42  1  0
 17 18  1  0
 17 37  1  0
 18 25  1  0
 18 19  1  0
 19 20  1  0
 20 21  1  0
 20 23  1  0
 20 38  1  1
 21 22  1  0
 21 39  1  0
 21 40  1  0
 22 41  1  0
M  CHG  2   8   1  16   1
M  END
>  <i_m_ct_stereo_status>  (154) 
1

>  <s_m_source_file>  (154) 
/var/tmp/pbs.5102103.sched01/tmprp2a6t7u/44c8wyhmqh.sdf

>  <i_m_source_file_index>  (154) 
14

>  <i_lp_mmshare_version>  (154) 
48012

>  <i_f3d_flags>  (154) 
0

>  <s_epik_input>  (154) 
W25IXTFbY0hdbmMoW0NIMl0yKWMxW0NAQEhdKFtDSDJdW09IXSlOKFtDQEBIXTIzKUMoPU8pW0NASF0oW0NIMl1bQ0gyXTMpL049YzQvW2NIXVtjSF1bbkhdW2NIXW40

>  <s_epik_cmdline>  (154) 
J2VwaWtfcHl0aG9uJywgJy1waHQnLCAnMi4wJywgJy1waCcsICc3LjAnLCAnLXRuJywgJzgnLCAnLW1hJywgJzIwMCcsICctaW1hZScsICc8aW5maWxlLm1hZT4nLCAnLW9tYWUnLCAnPG91dGZpbGUubWFlPic=

>  <r_lp_tautomer_probability>  (154) 
0.999336

>  <r_epik_Ionization_Penalty>  (154) 
1.92504

>  <r_epik_Ionization_Penalty_Charging>  (154) 
1.73746

>  <r_epik_Ionization_Penalty_Neutral>  (154) 
0.187586

>  <r_epik_State_Penalty>  (154) 
1.99681

>  <r_epik_Charging_Adjusted_Penalty>  (154) 
3.73427

>  <i_epik_Tot_Q>  (154) 
2

>  <i_epik_Tot_abs_Q>  (154) 
2

>  <s_lp_Force_Field>  (154) 
OPLS3e

>  <r_lp_Energy>  (154) 
49.8839

>  <b_lp_Chiralities_Consistent>  (154) 
1

>  <s_lp_Variant>  (154) 
32:0-4

>  <s_i_glide_gridfile>  (154) 
pfpi4k_grid

>  <i_i_glide_lignum>  (154) 
14

>  <i_i_glide_rotatable_bonds>  (154) 
4

>  <r_i_docking_score>  (154) 
-5.81835

>  <r_i_glide_ligand_efficiency>  (154) 
-0.252972

>  <r_i_glide_ligand_efficiency_sa>  (154) 
-0.719417

>  <r_i_glide_ligand_efficiency_ln>  (154) 
-1.40693

>  <r_i_glide_gscore>  (154) 
-5.81835

>  <r_i_glide_lipo>  (154) 
-0.53361

>  <r_i_glide_hbond>  (154) 
-0.790151

>  <r_i_glide_metal>  (154) 
-0

>  <r_i_glide_rewards>  (154) 
-1.40402

>  <r_i_glide_evdw>  (154) 
-18.3922

>  <r_i_glide_ecoul>  (154) 
-16.8095

>  <r_i_glide_erotb>  (154) 
0.558009

>  <r_i_glide_esite>  (154) 
-0.207532

>  <r_i_glide_emodel>  (154) 
-51.6445

>  <r_i_glide_energy>  (154) 
-35.2017

>  <r_i_glide_einternal>  (154) 
7.1754

>  <r_i_glide_intrahb_reward>  (154) 
-0

>  <i_i_glide_confnum>  (154) 
5

>  <i_i_glide_posenum>  (154) 
40

>  <r_i_glide_eff_state_penalty>  (154) 
0

>  <ligand_id>  (154) 
32

>  <original_smiles>  (154) 
O=C1C(N=c2cc[nH]cn2)CCC2Cc3nc[nH]c3C(CO)N12

>  <smiles>  (154) 
[H]OC([H])([H])C1([H])c2c([n+]([H])c([H])n2[H])C([H])([H])C2([H])N1C(=O)C([H])(N([H])c1nc([H])[n+]([H])c([H])c1[H])C([H])([H])C2([H])[H]

$$$$
32:3:1
     RDKit          3D

 43 46  0  0  1  0  0  0  0  0999 V2000
    2.0148   -6.2469    1.0227 O   0  0  0  0  0  0  0  0  0  0  0  0
    3.1031   -5.9816    1.5352 C   0  0  0  0  0  0  0  0  0  0  0  0
    3.7985   -7.0378    2.4129 C   0  0  1  0  0  0  0  0  0  0  0  0
    3.3813   -8.4145    2.1572 N   0  0  0  0  0  0  0  0  0  0  0  0
    2.2962   -9.0216    2.7983 C   0  0  0  0  0  0  0  0  0  0  0  0
    2.1948  -10.4125    2.7504 C   0  0  0  0  0  0  0  0  0  0  0  0
    1.1123  -11.0026    3.4271 C   0  0  0  0  0  0  0  0  0  0  0  0
    0.2155  -10.2321    4.0899 N   0  0  0  0  0  0  0  0  0  0  0  0
    0.3684   -8.9039    4.0829 C   0  0  0  0  0  0  0  0  0  0  0  0
    1.3842   -8.2851    3.4701 N   0  0  0  0  0  0  0  0  0  0  0  0
    5.3155   -6.9226    2.2325 C   0  0  0  0  0  0  0  0  0  0  0  0
    5.7822   -5.5439    2.6955 C   0  0  0  0  0  0  0  0  0  0  0  0
    4.9796   -4.3883    2.0538 C   0  0  2  0  0  0  0  0  0  0  0  0
    4.7547   -3.2192    3.0534 C   0  0  0  0  0  0  0  0  0  0  0  0
    3.9495   -2.1802    2.3553 C   0  0  0  0  0  0  0  0  0  0  0  0
    3.8084   -0.8599    2.6631 N   0  0  0  0  0  0  0  0  0  0  0  0
    3.0121   -0.2688    1.7599 C   0  0  0  0  0  0  0  0  0  0  0  0
    2.6175   -1.2142    0.9025 N   0  0  0  0  0  0  0  0  0  0  0  0
    3.1993   -2.4048    1.2387 C   0  0  0  0  0  0  0  0  0  0  0  0
    3.0617   -3.7205    0.5550 C   0  0  1  0  0  0  0  0  0  0  0  0
    3.6451   -3.6818   -0.8684 C   0  0  0  0  0  0  0  0  0  0  0  0
    2.6316   -3.4540   -1.8264 O   0  0  0  0  0  0  0  0  0  0  0  0
    3.7070   -4.7814    1.3713 N   0  0  0  0  0  0  0  0  0  0  0  0
    3.9458   -8.9764    1.5395 H   0  0  0  0  0  0  0  0  0  0  0  0
    1.9584   -1.0553    0.1216 H   0  0  0  0  0  0  0  0  0  0  0  0
    3.5844   -6.8090    3.4553 H   0  0  0  0  0  0  0  0  0  0  0  0
    2.9219  -11.0110    2.2151 H   0  0  0  0  0  0  0  0  0  0  0  0
    0.9335  -12.0718    3.4405 H   0  0  0  0  0  0  0  0  0  0  0  0
   -0.3881   -8.3322    4.5960 H   0  0  0  0  0  0  0  0  0  0  0  0
    5.8365   -7.6954    2.8050 H   0  0  0  0  0  0  0  0  0  0  0  0
    5.5847   -7.0851    1.1867 H   0  0  0  0  0  0  0  0  0  0  0  0
    5.7168   -5.5054    3.7839 H   0  0  0  0  0  0  0  0  0  0  0  0
    6.8424   -5.4253    2.4683 H   0  0  0  0  0  0  0  0  0  0  0  0
    5.6056   -3.9997    1.2533 H   0  0  0  0  0  0  0  0  0  0  0  0
    4.2000   -3.5640    3.9279 H   0  0  0  0  0  0  0  0  0  0  0  0
    5.6986   -2.7962    3.4014 H   0  0  0  0  0  0  0  0  0  0  0  0
    2.7405    0.7715    1.7399 H   0  0  0  0  0  0  0  0  0  0  0  0
    1.9885   -3.9000    0.4963 H   0  0  0  0  0  0  0  0  0  0  0  0
    4.4226   -2.9220   -0.9660 H   0  0  0  0  0  0  0  0  0  0  0  0
    4.1168   -4.6361   -1.1174 H   0  0  0  0  0  0  0  0  0  0  0  0
    2.4419   -4.2910   -2.2402 H   0  0  0  0  0  0  0  0  0  0  0  0
    4.2404   -0.3754    3.4390 H   0  0  0  0  0  0  0  0  0  0  0  0
   -0.6334  -10.6431    4.5333 H   0  0  0  0  0  0  0  0  0  0  0  0
  1  2  2  0
  2 23  1  0
  2  3  1  0
  3 11  1  0
  3 26  1  1
  3  4  1  0
  4  5  1  0
  4 24  1  0
  5  6  2  0
  5 10  1  0
  6 27  1  0
  6  7  1  0
  7 28  1  0
  7  8  2  0
  8  9  1  0
  8 43  1  0
  9 29  1  0
  9 10  2  0
 11 12  1  0
 11 30  1  0
 11 31  1  0
 12 13  1  0
 12 32  1  0
 12 33  1  0
 13 23  1  0
 13 14  1  0
 13 34  1  6
 14 15  1  0
 14 35  1  0
 14 36  1  0
 15 19  2  0
 15 16  1  0
 16 17  2  0
 16 42  1  0
 17 18  1  0
 17 37  1  0
 18 25  1  0
 18 19  1  0
 19 20  1  0
 20 21  1  0
 20 23  1  0
 20 38  1  6
 21 22  1  0
 21 39  1  0
 21 40  1  0
 22 41  1  0
M  CHG  2   8   1  16   1
M  END
>  <i_m_ct_stereo_status>  (155) 
1

>  <s_m_source_file>  (155) 
/var/tmp/pbs.5102103.sched01/tmprp2a6t7u/44c8wyhmqh.sdf

>  <i_m_source_file_index>  (155) 
14

>  <i_lp_mmshare_version>  (155) 
48012

>  <i_f3d_flags>  (155) 
0

>  <s_epik_input>  (155) 
W25IXTFbY0hdbmMoW0NIMl0yKWMxW0NAQEhdKFtDSDJdW09IXSlOKFtDQEBIXTIzKUMoPU8pW0NASF0oW0NIMl1bQ0gyXTMpL049YzQvW2NIXVtjSF1bbkhdW2NIXW40

>  <s_epik_cmdline>  (155) 
J2VwaWtfcHl0aG9uJywgJy1waHQnLCAnMi4wJywgJy1waCcsICc3LjAnLCAnLXRuJywgJzgnLCAnLW1hJywgJzIwMCcsICctaW1hZScsICc8aW5maWxlLm1hZT4nLCAnLW9tYWUnLCAnPG91dGZpbGUubWFlPic=

>  <r_lp_tautomer_probability>  (155) 
0.999336

>  <r_epik_Ionization_Penalty>  (155) 
1.92504

>  <r_epik_Ionization_Penalty_Charging>  (155) 
1.73746

>  <r_epik_Ionization_Penalty_Neutral>  (155) 
0.187586

>  <r_epik_State_Penalty>  (155) 
1.99681

>  <r_epik_Charging_Adjusted_Penalty>  (155) 
3.73427

>  <i_epik_Tot_Q>  (155) 
2

>  <i_epik_Tot_abs_Q>  (155) 
2

>  <s_lp_Force_Field>  (155) 
OPLS3e

>  <r_lp_Energy>  (155) 
49.8839

>  <b_lp_Chiralities_Consistent>  (155) 
1

>  <s_lp_Variant>  (155) 
32:0-4

>  <s_i_glide_gridfile>  (155) 
pfpi4k_grid

>  <i_i_glide_lignum>  (155) 
14

>  <i_i_glide_rotatable_bonds>  (155) 
4

>  <r_i_docking_score>  (155) 
-5.48693

>  <r_i_glide_ligand_efficiency>  (155) 
-0.238562

>  <r_i_glide_ligand_efficiency_sa>  (155) 
-0.678439

>  <r_i_glide_ligand_efficiency_ln>  (155) 
-1.32679

>  <r_i_glide_gscore>  (155) 
-5.48693

>  <r_i_glide_lipo>  (155) 
-0.363682

>  <r_i_glide_hbond>  (155) 
-0.72

>  <r_i_glide_metal>  (155) 
-0

>  <r_i_glide_rewards>  (155) 
-1.30729

>  <r_i_glide_evdw>  (155) 
-18.4296

>  <r_i_glide_ecoul>  (155) 
-16.84

>  <r_i_glide_erotb>  (155) 
0.558009

>  <r_i_glide_esite>  (155) 
-0.206487

>  <r_i_glide_emodel>  (155) 
-52.5888

>  <r_i_glide_energy>  (155) 
-35.2696

>  <r_i_glide_einternal>  (155) 
3.13704

>  <r_i_glide_intrahb_reward>  (155) 
-0

>  <i_i_glide_confnum>  (155) 
3

>  <i_i_glide_posenum>  (155) 
30

>  <r_i_glide_eff_state_penalty>  (155) 
0

>  <ligand_id>  (155) 
32

>  <original_smiles>  (155) 
O=C1C(N=c2cc[nH]cn2)CCC2Cc3nc[nH]c3C(CO)N12

>  <smiles>  (155) 
[H]OC([H])([H])C1([H])c2c([n+]([H])c([H])n2[H])C([H])([H])C2([H])N1C(=O)C([H])(N([H])c1nc([H])[n+]([H])c([H])c1[H])C([H])([H])C2([H])[H]

$$$$
32:3:2
     RDKit          3D

 43 46  0  0  1  0  0  0  0  0999 V2000
    1.7385   -5.8933    0.8686 O   0  0  0  0  0  0  0  0  0  0  0  0
    2.8880   -5.7246    1.2909 C   0  0  0  0  0  0  0  0  0  0  0  0
    3.5973   -6.8576    2.0579 C   0  0  1  0  0  0  0  0  0  0  0  0
    3.0713   -8.1936    1.7867 N   0  0  0  0  0  0  0  0  0  0  0  0
    1.9978   -8.7508    2.5001 C   0  0  0  0  0  0  0  0  0  0  0  0
    1.8859  -10.1431    2.5539 C   0  0  0  0  0  0  0  0  0  0  0  0
    0.7975  -10.6796    3.2675 C   0  0  0  0  0  0  0  0  0  0  0  0
   -0.1120   -9.8576    3.8528 N   0  0  0  0  0  0  0  0  0  0  0  0
    0.0555   -8.5340    3.7646 C   0  0  0  0  0  0  0  0  0  0  0  0
    1.0934   -7.9655    3.1254 N   0  0  0  0  0  0  0  0  0  0  0  0
    5.0973   -6.8162    1.7444 C   0  0  0  0  0  0  0  0  0  0  0  0
    5.6862   -5.4840    2.2146 C   0  0  0  0  0  0  0  0  0  0  0  0
    4.9052   -4.2583    1.6946 C   0  0  2  0  0  0  0  0  0  0  0  0
    4.8371   -3.1212    2.7543 C   0  0  0  0  0  0  0  0  0  0  0  0
    4.0360   -2.0105    2.1874 C   0  0  0  0  0  0  0  0  0  0  0  0
    4.0070   -0.6922    2.5562 N   0  0  0  0  0  0  0  0  0  0  0  0
    3.1615   -0.0208    1.7599 C   0  0  0  0  0  0  0  0  0  0  0  0
    2.6320   -0.9052    0.9038 N   0  0  0  0  0  0  0  0  0  0  0  0
    3.1776   -2.1419    1.1353 C   0  0  0  0  0  0  0  0  0  0  0  0
    2.9009   -3.4159    0.4219 C   0  0  1  0  0  0  0  0  0  0  0  0
    3.3355   -3.3356   -1.0558 C   0  0  0  0  0  0  0  0  0  0  0  0
    2.2152   -3.0526   -1.8758 O   0  0  0  0  0  0  0  0  0  0  0  0
    3.5532   -4.5516    1.1289 N   0  0  0  0  0  0  0  0  0  0  0  0
    3.6022   -8.7966    1.1748 H   0  0  0  0  0  0  0  0  0  0  0  0
    1.9154   -0.6993    0.1952 H   0  0  0  0  0  0  0  0  0  0  0  0
    3.4862   -6.6650    3.1241 H   0  0  0  0  0  0  0  0  0  0  0  0
    2.6244  -10.7790    2.0800 H   0  0  0  0  0  0  0  0  0  0  0  0
    0.6379  -11.7389    3.3944 H   0  0  0  0  0  0  0  0  0  0  0  0
   -0.6838   -7.9091    4.2437 H   0  0  0  0  0  0  0  0  0  0  0  0
    5.6182   -7.6375    2.2396 H   0  0  0  0  0  0  0  0  0  0  0  0
    5.2594   -6.9432    0.6712 H   0  0  0  0  0  0  0  0  0  0  0  0
    5.7259   -5.4844    3.3063 H   0  0  0  0  0  0  0  0  0  0  0  0
    6.7245   -5.4137    1.8894 H   0  0  0  0  0  0  0  0  0  0  0  0
    5.4762   -3.8692    0.8515 H   0  0  0  0  0  0  0  0  0  0  0  0
    4.3441   -3.4687    3.6648 H   0  0  0  0  0  0  0  0  0  0  0  0
    5.8285   -2.7603    3.0224 H   0  0  0  0  0  0  0  0  0  0  0  0
    2.9488    1.0326    1.8083 H   0  0  0  0  0  0  0  0  0  0  0  0
    1.8244   -3.5317    0.4662 H   0  0  0  0  0  0  0  0  0  0  0  0
    4.1403   -2.6113   -1.2026 H   0  0  0  0  0  0  0  0  0  0  0  0
    3.7341   -4.2923   -1.3764 H   0  0  0  0  0  0  0  0  0  0  0  0
    1.8188   -2.2204   -1.6148 H   0  0  0  0  0  0  0  0  0  0  0  0
    4.5391   -0.2779    3.3097 H   0  0  0  0  0  0  0  0  0  0  0  0
   -0.9062  -10.2695    4.3863 H   0  0  0  0  0  0  0  0  0  0  0  0
  1  2  2  0
  2 23  1  0
  2  3  1  0
  3 11  1  0
  3 26  1  1
  3  4  1  0
  4  5  1  0
  4 24  1  0
  5  6  2  0
  5 10  1  0
  6 27  1  0
  6  7  1  0
  7 28  1  0
  7  8  2  0
  8  9  1  0
  8 43  1  0
  9 29  1  0
  9 10  2  0
 11 12  1  0
 11 30  1  0
 11 31  1  0
 12 13  1  0
 12 32  1  0
 12 33  1  0
 13 23  1  0
 13 14  1  0
 13 34  1  6
 14 15  1  0
 14 35  1  0
 14 36  1  0
 15 19  2  0
 15 16  1  0
 16 17  2  0
 16 42  1  0
 17 18  1  0
 17 37  1  0
 18 25  1  0
 18 19  1  0
 19 20  1  0
 20 21  1  0
 20 23  1  0
 20 38  1  6
 21 22  1  0
 21 39  1  0
 21 40  1  0
 22 41  1  0
M  CHG  2   8   1  16   1
M  END
>  <i_m_ct_stereo_status>  (156) 
1

>  <s_m_source_file>  (156) 
/var/tmp/pbs.5102103.sched01/tmprp2a6t7u/44c8wyhmqh.sdf

>  <i_m_source_file_index>  (156) 
14

>  <i_lp_mmshare_version>  (156) 
48012

>  <i_f3d_flags>  (156) 
0

>  <s_epik_input>  (156) 
W25IXTFbY0hdbmMoW0NIMl0yKWMxW0NAQEhdKFtDSDJdW09IXSlOKFtDQEBIXTIzKUMoPU8pW0NASF0oW0NIMl1bQ0gyXTMpL049YzQvW2NIXVtjSF1bbkhdW2NIXW40

>  <s_epik_cmdline>  (156) 
J2VwaWtfcHl0aG9uJywgJy1waHQnLCAnMi4wJywgJy1waCcsICc3LjAnLCAnLXRuJywgJzgnLCAnLW1hJywgJzIwMCcsICctaW1hZScsICc8aW5maWxlLm1hZT4nLCAnLW9tYWUnLCAnPG91dGZpbGUubWFlPic=

>  <r_lp_tautomer_probability>  (156) 
0.999336

>  <r_epik_Ionization_Penalty>  (156) 
1.92504

>  <r_epik_Ionization_Penalty_Charging>  (156) 
1.73746

>  <r_epik_Ionization_Penalty_Neutral>  (156) 
0.187586

>  <r_epik_State_Penalty>  (156) 
1.99681

>  <r_epik_Charging_Adjusted_Penalty>  (156) 
3.73427

>  <i_epik_Tot_Q>  (156) 
2

>  <i_epik_Tot_abs_Q>  (156) 
2

>  <s_lp_Force_Field>  (156) 
OPLS3e

>  <r_lp_Energy>  (156) 
49.8839

>  <b_lp_Chiralities_Consistent>  (156) 
1

>  <s_lp_Variant>  (156) 
32:0-4

>  <s_i_glide_gridfile>  (156) 
pfpi4k_grid

>  <i_i_glide_lignum>  (156) 
14

>  <i_i_glide_rotatable_bonds>  (156) 
4

>  <r_i_docking_score>  (156) 
-5.33741

>  <r_i_glide_ligand_efficiency>  (156) 
-0.232061

>  <r_i_glide_ligand_efficiency_sa>  (156) 
-0.659951

>  <r_i_glide_ligand_efficiency_ln>  (156) 
-1.29063

>  <r_i_glide_gscore>  (156) 
-5.33741

>  <r_i_glide_lipo>  (156) 
-0.439751

>  <r_i_glide_hbond>  (156) 
-0.641862

>  <r_i_glide_metal>  (156) 
-0

>  <r_i_glide_rewards>  (156) 
-1.25749

>  <r_i_glide_evdw>  (156) 
-19.3378

>  <r_i_glide_ecoul>  (156) 
-16.0647

>  <r_i_glide_erotb>  (156) 
0.558009

>  <r_i_glide_esite>  (156) 
-0.179719

>  <r_i_glide_emodel>  (156) 
-52.4064

>  <r_i_glide_energy>  (156) 
-35.4024

>  <r_i_glide_einternal>  (156) 
2.97578

>  <r_i_glide_intrahb_reward>  (156) 
-0

>  <i_i_glide_confnum>  (156) 
3

>  <i_i_glide_posenum>  (156) 
21

>  <r_i_glide_eff_state_penalty>  (156) 
0

>  <ligand_id>  (156) 
32

>  <original_smiles>  (156) 
O=C1C(N=c2cc[nH]cn2)CCC2Cc3nc[nH]c3C(CO)N12

>  <smiles>  (156) 
[H]OC([H])([H])C1([H])c2c([n+]([H])c([H])n2[H])C([H])([H])C2([H])N1C(=O)C([H])(N([H])c1nc([H])[n+]([H])c([H])c1[H])C([H])([H])C2([H])[H]

$$$$
33:0:0
     RDKit          3D

 32 34  0  0  1  0  0  0  0  0999 V2000
   -0.4390    1.0819    1.6796 C   0  0  0  0  0  0  0  0  0  0  0  0
   -0.0596    1.8766    3.2740 S   0  0  0  0  0  0  0  0  0  0  0  0
   -0.4050    0.5379    4.3848 C   0  0  0  0  0  0  0  0  0  0  0  0
   -1.2626    0.6750    5.3972 N   0  0  0  0  0  0  0  0  0  0  0  0
   -1.3491   -0.5567    5.9963 N   0  0  0  0  0  0  0  0  0  0  0  0
   -0.5198   -1.3737    5.3264 C   0  0  0  0  0  0  0  0  0  0  0  0
   -0.4023   -2.8024    5.6922 C   0  0  0  0  0  0  0  0  0  0  0  0
    0.2406   -3.7719    4.8763 C   0  0  0  0  0  0  0  0  0  0  0  0
    0.3190   -5.0729    5.2231 N   0  0  0  0  0  0  0  0  0  0  0  0
   -0.2347   -5.4210    6.3994 C   0  0  0  0  0  0  0  0  0  0  0  0
   -0.8855   -4.4781    7.2189 C   0  0  0  0  0  0  0  0  0  0  0  0
   -0.9726   -3.1770    6.8691 N   0  0  0  0  0  0  0  0  0  0  0  0
    0.1237   -0.7131    4.3302 N   0  0  0  0  0  0  0  0  0  0  0  0
    1.0633   -1.2637    3.4378 N   0  0  0  0  0  0  0  0  0  0  0  0
    2.0465   -0.6138    2.9706 C   0  0  0  0  0  0  0  0  0  0  0  0
    2.9815   -1.1306    1.9608 C   0  0  0  0  0  0  0  0  0  0  0  0
    2.9667   -2.4731    1.5217 C   0  0  0  0  0  0  0  0  0  0  0  0
    3.9107   -2.8973    0.5675 C   0  0  0  0  0  0  0  0  0  0  0  0
    4.8381   -1.9569    0.0803 C   0  0  0  0  0  0  0  0  0  0  0  0
    4.8543   -0.6658    0.4723 N   0  0  0  0  0  0  0  0  0  0  0  0
    3.9451   -0.2741    1.3918 C   0  0  0  0  0  0  0  0  0  0  0  0
   -0.3927    1.8293    0.8893 H   0  0  0  0  0  0  0  0  0  0  0  0
   -1.4366    0.6461    1.7092 H   0  0  0  0  0  0  0  0  0  0  0  0
    0.2686    0.3137    1.3837 H   0  0  0  0  0  0  0  0  0  0  0  0
    0.6716   -3.5741    3.9084 H   0  0  0  0  0  0  0  0  0  0  0  0
   -0.1622   -6.4595    6.6805 H   0  0  0  0  0  0  0  0  0  0  0  0
   -1.3338   -4.7774    8.1527 H   0  0  0  0  0  0  0  0  0  0  0  0
    2.2480    0.4118    3.2903 H   0  0  0  0  0  0  0  0  0  0  0  0
    2.2278   -3.1676    1.8931 H   0  0  0  0  0  0  0  0  0  0  0  0
    3.9276   -3.9185    0.2165 H   0  0  0  0  0  0  0  0  0  0  0  0
    5.5973   -2.2437   -0.6314 H   0  0  0  0  0  0  0  0  0  0  0  0
    3.9671    0.7730    1.6534 H   0  0  0  0  0  0  0  0  0  0  0  0
  1  2  1  0
  1 22  1  0
  1 23  1  0
  1 24  1  0
  2  3  1  0
  3 13  1  0
  3  4  2  0
  4  5  1  0
  5  6  2  0
  6  7  1  0
  6 13  1  0
  7 12  1  0
  7  8  2  0
  8  9  1  0
  8 25  1  0
  9 10  2  0
 10 11  1  0
 10 26  1  0
 11 12  2  0
 11 27  1  0
 13 14  1  0
 14 15  2  3
 15 16  1  0
 15 28  1  0
 16 21  1  0
 16 17  2  0
 17 18  1  0
 17 29  1  0
 18 19  2  0
 18 30  1  0
 19 20  1  0
 19 31  1  0
 20 21  2  0
 21 32  1  0
M  END
>  <i_m_ct_stereo_status>  (157) 
1

>  <s_m_source_file>  (157) 
/var/tmp/pbs.5102103.sched01/tmprp2a6t7u/44c8wyhmqh.sdf

>  <i_m_source_file_index>  (157) 
15

>  <i_lp_mmshare_version>  (157) 
48012

>  <i_f3d_flags>  (157) 
0

>  <s_epik_input>  (157) 
bjFbY0hdW2NIXW5bY0hdYzEtYyhubmMyU1tDSDNdKW4yL049W0NIXS9jM1tjSF1bY0hdW2NIXW5bY0hdMw==

>  <s_epik_cmdline>  (157) 
J2VwaWtfcHl0aG9uJywgJy1waHQnLCAnMi4wJywgJy1waCcsICc3LjAnLCAnLXRuJywgJzgnLCAnLW1hJywgJzIwMCcsICctaW1hZScsICc8aW5maWxlLm1hZT4nLCAnLW9tYWUnLCAnPG91dGZpbGUubWFlPic=

>  <r_lp_tautomer_probability>  (157) 
1

>  <r_epik_Ionization_Penalty>  (157) 
5.05157e-05

>  <r_epik_Ionization_Penalty_Charging>  (157) 
0

>  <r_epik_Ionization_Penalty_Neutral>  (157) 
5.05157e-05

>  <r_epik_State_Penalty>  (157) 
-0

>  <r_epik_Charging_Adjusted_Penalty>  (157) 
0

>  <i_epik_Tot_Q>  (157) 
0

>  <i_epik_Tot_abs_Q>  (157) 
0

>  <s_epik_Chemistry_Notes>  (157) 
This compound has an imine and may undergo hydrolysis.

>  <s_lp_Force_Field>  (157) 
OPLS3e

>  <r_lp_Energy>  (157) 
43.778

>  <b_lp_Chiralities_Consistent>  (157) 
1

>  <s_lp_Variant>  (157) 
33:0-1

>  <s_i_glide_gridfile>  (157) 
pfpi4k_grid

>  <i_i_glide_lignum>  (157) 
15

>  <i_i_glide_rotatable_bonds>  (157) 
4

>  <r_i_docking_score>  (157) 
-2.90881

>  <r_i_glide_ligand_efficiency>  (157) 
-0.138515

>  <r_i_glide_ligand_efficiency_sa>  (157) 
-0.382152

>  <r_i_glide_ligand_efficiency_ln>  (157) 
-0.719198

>  <r_i_glide_gscore>  (157) 
-2.90881

>  <r_i_glide_lipo>  (157) 
-0.094002

>  <r_i_glide_hbond>  (157) 
0

>  <r_i_glide_metal>  (157) 
-0

>  <r_i_glide_rewards>  (157) 
-1.38178

>  <r_i_glide_evdw>  (157) 
-24.6395

>  <r_i_glide_ecoul>  (157) 
-4.29044

>  <r_i_glide_erotb>  (157) 
0.622119

>  <r_i_glide_esite>  (157) 
-0.179612

>  <r_i_glide_emodel>  (157) 
-32.135

>  <r_i_glide_energy>  (157) 
-28.93

>  <r_i_glide_einternal>  (157) 
4.28391

>  <r_i_glide_intrahb_reward>  (157) 
-0

>  <i_i_glide_confnum>  (157) 
3

>  <i_i_glide_posenum>  (157) 
5

>  <r_i_glide_eff_state_penalty>  (157) 
0

>  <ligand_id>  (157) 
33

>  <original_smiles>  (157) 
CSc1nnc(-c2cnccn2)n1N=Cc1cccnc1

>  <smiles>  (157) 
[H]C(=Nn1c(SC([H])([H])[H])nnc1-c1nc([H])c([H])nc1[H])c1c([H])nc([H])c([H])c1[H]

$$$$
33:0:1
     RDKit          3D

 32 34  0  0  1  0  0  0  0  0999 V2000
    5.7769   -0.4270    0.6495 C   0  0  0  0  0  0  0  0  0  0  0  0
    4.1877   -0.3690    1.5224 S   0  0  0  0  0  0  0  0  0  0  0  0
    3.7225   -2.0655    1.4127 C   0  0  0  0  0  0  0  0  0  0  0  0
    4.3955   -2.9597    0.6909 N   0  0  0  0  0  0  0  0  0  0  0  0
    3.7804   -4.1643    0.8895 N   0  0  0  0  0  0  0  0  0  0  0  0
    2.7695   -3.9347    1.7265 C   0  0  0  0  0  0  0  0  0  0  0  0
    1.9267   -5.0419    2.1799 C   0  0  0  0  0  0  0  0  0  0  0  0
    1.4069   -5.1239    3.4881 C   0  0  0  0  0  0  0  0  0  0  0  0
    0.6283   -6.1608    3.8861 N   0  0  0  0  0  0  0  0  0  0  0  0
    0.4153   -7.1373    2.9755 C   0  0  0  0  0  0  0  0  0  0  0  0
    0.9410   -7.0618    1.6678 C   0  0  0  0  0  0  0  0  0  0  0  0
    1.6738   -6.0068    1.2624 N   0  0  0  0  0  0  0  0  0  0  0  0
    2.6698   -2.6220    2.0686 N   0  0  0  0  0  0  0  0  0  0  0  0
    1.7059   -2.0463    2.9353 N   0  0  0  0  0  0  0  0  0  0  0  0
    1.2001   -0.8947    2.7270 C   0  0  0  0  0  0  0  0  0  0  0  0
    0.2134   -0.2596    3.6219 C   0  0  0  0  0  0  0  0  0  0  0  0
   -0.2843    1.0326    3.3437 C   0  0  0  0  0  0  0  0  0  0  0  0
   -1.2361    1.5952    4.2172 C   0  0  0  0  0  0  0  0  0  0  0  0
   -1.6635    0.8420    5.3278 C   0  0  0  0  0  0  0  0  0  0  0  0
   -1.2186   -0.4021    5.6055 N   0  0  0  0  0  0  0  0  0  0  0  0
   -0.2915   -0.9239    4.7679 C   0  0  0  0  0  0  0  0  0  0  0  0
    6.2114    0.5620    0.4796 H   0  0  0  0  0  0  0  0  0  0  0  0
    5.6563   -0.8623   -0.3378 H   0  0  0  0  0  0  0  0  0  0  0  0
    6.4875   -1.0204    1.2248 H   0  0  0  0  0  0  0  0  0  0  0  0
    1.6018   -4.3722    4.2378 H   0  0  0  0  0  0  0  0  0  0  0  0
   -0.1938   -7.9761    3.2829 H   0  0  0  0  0  0  0  0  0  0  0  0
    0.7481   -7.8429    0.9460 H   0  0  0  0  0  0  0  0  0  0  0  0
    1.4662   -0.3127    1.8420 H   0  0  0  0  0  0  0  0  0  0  0  0
    0.0559    1.5867    2.4730 H   0  0  0  0  0  0  0  0  0  0  0  0
   -1.6362    2.5800    4.0352 H   0  0  0  0  0  0  0  0  0  0  0  0
   -2.3846    1.2397    6.0249 H   0  0  0  0  0  0  0  0  0  0  0  0
    0.0438   -1.9182    5.0252 H   0  0  0  0  0  0  0  0  0  0  0  0
  1  2  1  0
  1 22  1  0
  1 23  1  0
  1 24  1  0
  2  3  1  0
  3 13  1  0
  3  4  2  0
  4  5  1  0
  5  6  2  0
  6  7  1  0
  6 13  1  0
  7 12  1  0
  7  8  2  0
  8  9  1  0
  8 25  1  0
  9 10  2  0
 10 11  1  0
 10 26  1  0
 11 12  2  0
 11 27  1  0
 13 14  1  0
 14 15  2  3
 15 16  1  0
 15 28  1  0
 16 21  1  0
 16 17  2  0
 17 18  1  0
 17 29  1  0
 18 19  2  0
 18 30  1  0
 19 20  1  0
 19 31  1  0
 20 21  2  0
 21 32  1  0
M  END
>  <i_m_ct_stereo_status>  (158) 
1

>  <s_m_source_file>  (158) 
/var/tmp/pbs.5102103.sched01/tmprp2a6t7u/44c8wyhmqh.sdf

>  <i_m_source_file_index>  (158) 
15

>  <i_lp_mmshare_version>  (158) 
48012

>  <i_f3d_flags>  (158) 
0

>  <s_epik_input>  (158) 
bjFbY0hdW2NIXW5bY0hdYzEtYyhubmMyU1tDSDNdKW4yL049W0NIXS9jM1tjSF1bY0hdW2NIXW5bY0hdMw==

>  <s_epik_cmdline>  (158) 
J2VwaWtfcHl0aG9uJywgJy1waHQnLCAnMi4wJywgJy1waCcsICc3LjAnLCAnLXRuJywgJzgnLCAnLW1hJywgJzIwMCcsICctaW1hZScsICc8aW5maWxlLm1hZT4nLCAnLW9tYWUnLCAnPG91dGZpbGUubWFlPic=

>  <r_lp_tautomer_probability>  (158) 
1

>  <r_epik_Ionization_Penalty>  (158) 
5.05157e-05

>  <r_epik_Ionization_Penalty_Charging>  (158) 
0

>  <r_epik_Ionization_Penalty_Neutral>  (158) 
5.05157e-05

>  <r_epik_State_Penalty>  (158) 
-0

>  <r_epik_Charging_Adjusted_Penalty>  (158) 
0

>  <i_epik_Tot_Q>  (158) 
0

>  <i_epik_Tot_abs_Q>  (158) 
0

>  <s_epik_Chemistry_Notes>  (158) 
This compound has an imine and may undergo hydrolysis.

>  <s_lp_Force_Field>  (158) 
OPLS3e

>  <r_lp_Energy>  (158) 
43.778

>  <b_lp_Chiralities_Consistent>  (158) 
1

>  <s_lp_Variant>  (158) 
33:0-1

>  <s_i_glide_gridfile>  (158) 
pfpi4k_grid

>  <i_i_glide_lignum>  (158) 
15

>  <i_i_glide_rotatable_bonds>  (158) 
4

>  <r_i_docking_score>  (158) 
-2.86447

>  <r_i_glide_ligand_efficiency>  (158) 
-0.136404

>  <r_i_glide_ligand_efficiency_sa>  (158) 
-0.376327

>  <r_i_glide_ligand_efficiency_ln>  (158) 
-0.708236

>  <r_i_glide_gscore>  (158) 
-2.86447

>  <r_i_glide_lipo>  (158) 
-0.230069

>  <r_i_glide_hbond>  (158) 
-0.0557935

>  <r_i_glide_metal>  (158) 
-0

>  <r_i_glide_rewards>  (158) 
-1.38178

>  <r_i_glide_evdw>  (158) 
-24.2274

>  <r_i_glide_ecoul>  (158) 
-3.66668

>  <r_i_glide_erotb>  (158) 
0.622119

>  <r_i_glide_esite>  (158) 
-0.0575792

>  <r_i_glide_emodel>  (158) 
-31.4726

>  <r_i_glide_energy>  (158) 
-27.8941

>  <r_i_glide_einternal>  (158) 
3.96534

>  <r_i_glide_intrahb_reward>  (158) 
-0

>  <i_i_glide_confnum>  (158) 
1

>  <i_i_glide_posenum>  (158) 
21

>  <r_i_glide_eff_state_penalty>  (158) 
0

>  <ligand_id>  (158) 
33

>  <original_smiles>  (158) 
CSc1nnc(-c2cnccn2)n1N=Cc1cccnc1

>  <smiles>  (158) 
[H]C(=Nn1c(SC([H])([H])[H])nnc1-c1nc([H])c([H])nc1[H])c1c([H])nc([H])c([H])c1[H]

$$$$
33:0:2
     RDKit          3D

 32 34  0  0  1  0  0  0  0  0999 V2000
    5.0745   -3.0626    5.1286 C   0  0  0  0  0  0  0  0  0  0  0  0
    4.3002   -2.5733    3.5681 S   0  0  0  0  0  0  0  0  0  0  0  0
    3.4089   -4.0710    3.2462 C   0  0  0  0  0  0  0  0  0  0  0  0
    4.0004   -5.1474    2.7328 N   0  0  0  0  0  0  0  0  0  0  0  0
    3.0248   -6.1108    2.6578 N   0  0  0  0  0  0  0  0  0  0  0  0
    1.9041   -5.5599    3.1370 C   0  0  0  0  0  0  0  0  0  0  0  0
    0.6615   -6.3337    3.2431 C   0  0  0  0  0  0  0  0  0  0  0  0
   -0.1726   -6.2863    4.3881 C   0  0  0  0  0  0  0  0  0  0  0  0
   -1.3020   -7.0253    4.4808 N   0  0  0  0  0  0  0  0  0  0  0  0
   -1.5819   -7.8447    3.4482 C   0  0  0  0  0  0  0  0  0  0  0  0
   -0.7559   -7.9030    2.3086 C   0  0  0  0  0  0  0  0  0  0  0  0
    0.3490   -7.1327    2.1926 N   0  0  0  0  0  0  0  0  0  0  0  0
    2.0888   -4.2646    3.4954 N   0  0  0  0  0  0  0  0  0  0  0  0
    1.1222   -3.3912    4.0176 N   0  0  0  0  0  0  0  0  0  0  0  0
    1.0639   -2.1656    3.6785 C   0  0  0  0  0  0  0  0  0  0  0  0
    0.0975   -1.2003    4.2221 C   0  0  0  0  0  0  0  0  0  0  0  0
    0.0932    0.1498    3.7998 C   0  0  0  0  0  0  0  0  0  0  0  0
   -0.8652    1.0287    4.3427 C   0  0  0  0  0  0  0  0  0  0  0  0
   -1.7839    0.5230    5.2772 C   0  0  0  0  0  0  0  0  0  0  0  0
   -1.8007   -0.7620    5.6811 N   0  0  0  0  0  0  0  0  0  0  0  0
   -0.8722   -1.5930    5.1665 C   0  0  0  0  0  0  0  0  0  0  0  0
    5.7978   -2.3129    5.4501 H   0  0  0  0  0  0  0  0  0  0  0  0
    5.5922   -4.0131    5.0122 H   0  0  0  0  0  0  0  0  0  0  0  0
    4.3153   -3.1671    5.9019 H   0  0  0  0  0  0  0  0  0  0  0  0
    0.0575   -5.6662    5.2416 H   0  0  0  0  0  0  0  0  0  0  0  0
   -2.4842   -8.4366    3.5109 H   0  0  0  0  0  0  0  0  0  0  0  0
   -0.9982   -8.5573    1.4843 H   0  0  0  0  0  0  0  0  0  0  0  0
    1.7484   -1.7584    2.9313 H   0  0  0  0  0  0  0  0  0  0  0  0
    0.8070    0.5097    3.0701 H   0  0  0  0  0  0  0  0  0  0  0  0
   -0.9018    2.0656    4.0432 H   0  0  0  0  0  0  0  0  0  0  0  0
   -2.5268    1.1668    5.7299 H   0  0  0  0  0  0  0  0  0  0  0  0
   -0.9289   -2.6106    5.5215 H   0  0  0  0  0  0  0  0  0  0  0  0
  1  2  1  0
  1 22  1  0
  1 23  1  0
  1 24  1  0
  2  3  1  0
  3 13  1  0
  3  4  2  0
  4  5  1  0
  5  6  2  0
  6  7  1  0
  6 13  1  0
  7 12  1  0
  7  8  2  0
  8  9  1  0
  8 25  1  0
  9 10  2  0
 10 11  1  0
 10 26  1  0
 11 12  2  0
 11 27  1  0
 13 14  1  0
 14 15  2  3
 15 16  1  0
 15 28  1  0
 16 21  1  0
 16 17  2  0
 17 18  1  0
 17 29  1  0
 18 19  2  0
 18 30  1  0
 19 20  1  0
 19 31  1  0
 20 21  2  0
 21 32  1  0
M  END
>  <i_m_ct_stereo_status>  (159) 
1

>  <s_m_source_file>  (159) 
/var/tmp/pbs.5102103.sched01/tmprp2a6t7u/44c8wyhmqh.sdf

>  <i_m_source_file_index>  (159) 
15

>  <i_lp_mmshare_version>  (159) 
48012

>  <i_f3d_flags>  (159) 
0

>  <s_epik_input>  (159) 
bjFbY0hdW2NIXW5bY0hdYzEtYyhubmMyU1tDSDNdKW4yL049W0NIXS9jM1tjSF1bY0hdW2NIXW5bY0hdMw==

>  <s_epik_cmdline>  (159) 
J2VwaWtfcHl0aG9uJywgJy1waHQnLCAnMi4wJywgJy1waCcsICc3LjAnLCAnLXRuJywgJzgnLCAnLW1hJywgJzIwMCcsICctaW1hZScsICc8aW5maWxlLm1hZT4nLCAnLW9tYWUnLCAnPG91dGZpbGUubWFlPic=

>  <r_lp_tautomer_probability>  (159) 
1

>  <r_epik_Ionization_Penalty>  (159) 
5.05157e-05

>  <r_epik_Ionization_Penalty_Charging>  (159) 
0

>  <r_epik_Ionization_Penalty_Neutral>  (159) 
5.05157e-05

>  <r_epik_State_Penalty>  (159) 
-0

>  <r_epik_Charging_Adjusted_Penalty>  (159) 
0

>  <i_epik_Tot_Q>  (159) 
0

>  <i_epik_Tot_abs_Q>  (159) 
0

>  <s_epik_Chemistry_Notes>  (159) 
This compound has an imine and may undergo hydrolysis.

>  <s_lp_Force_Field>  (159) 
OPLS3e

>  <r_lp_Energy>  (159) 
43.778

>  <b_lp_Chiralities_Consistent>  (159) 
1

>  <s_lp_Variant>  (159) 
33:0-1

>  <s_i_glide_gridfile>  (159) 
pfpi4k_grid

>  <i_i_glide_lignum>  (159) 
15

>  <i_i_glide_rotatable_bonds>  (159) 
4

>  <r_i_docking_score>  (159) 
-2.62564

>  <r_i_glide_ligand_efficiency>  (159) 
-0.12503

>  <r_i_glide_ligand_efficiency_sa>  (159) 
-0.344949

>  <r_i_glide_ligand_efficiency_ln>  (159) 
-0.649183

>  <r_i_glide_gscore>  (159) 
-2.62564

>  <r_i_glide_lipo>  (159) 
-0.0348464

>  <r_i_glide_hbond>  (159) 
-0.0415393

>  <r_i_glide_metal>  (159) 
-0

>  <r_i_glide_rewards>  (159) 
-1.4327

>  <r_i_glide_evdw>  (159) 
-23.4014

>  <r_i_glide_ecoul>  (159) 
-3.71585

>  <r_i_glide_erotb>  (159) 
0.622119

>  <r_i_glide_esite>  (159) 
-0.011221

>  <r_i_glide_emodel>  (159) 
-30.0347

>  <r_i_glide_energy>  (159) 
-27.1173

>  <r_i_glide_einternal>  (159) 
4.50592

>  <r_i_glide_intrahb_reward>  (159) 
-0

>  <i_i_glide_confnum>  (159) 
1

>  <i_i_glide_posenum>  (159) 
25

>  <r_i_glide_eff_state_penalty>  (159) 
0

>  <ligand_id>  (159) 
33

>  <original_smiles>  (159) 
CSc1nnc(-c2cnccn2)n1N=Cc1cccnc1

>  <smiles>  (159) 
[H]C(=Nn1c(SC([H])([H])[H])nnc1-c1nc([H])c([H])nc1[H])c1c([H])nc([H])c([H])c1[H]

$$$$
33:1:0
     RDKit          3D

 32 34  0  0  1  0  0  0  0  0999 V2000
    4.5625   -8.4505    1.3458 C   0  0  0  0  0  0  0  0  0  0  0  0
    5.2225   -7.4633    2.7447 S   0  0  0  0  0  0  0  0  0  0  0  0
    4.3422   -5.8958    2.4929 C   0  0  0  0  0  0  0  0  0  0  0  0
    4.3727   -5.2366    1.3588 N   0  0  0  0  0  0  0  0  0  0  0  0
    3.5809   -4.0749    1.5358 N   0  0  0  0  0  0  0  0  0  0  0  0
    3.0637   -4.0018    2.8039 C   0  0  0  0  0  0  0  0  0  0  0  0
    2.0291   -2.8012    3.2929 C   0  0  0  0  0  0  0  0  0  0  0  0
    1.1103   -3.1282    4.3342 C   0  0  0  0  0  0  0  0  0  0  0  0
    0.1697   -2.3205    4.8854 N   0  0  0  0  0  0  0  0  0  0  0  0
    0.0147   -1.0302    4.4824 C   0  0  0  0  0  0  0  0  0  0  0  0
    0.8444   -0.5500    3.4498 C   0  0  0  0  0  0  0  0  0  0  0  0
    1.8126   -1.4263    2.8740 N   0  0  0  0  0  0  0  0  0  0  0  0
    3.5223   -5.2170    3.4092 N   0  0  0  0  0  0  0  0  0  0  0  0
    3.3138   -5.8080    4.6677 N   0  0  0  0  0  0  0  0  0  0  0  0
    2.5538   -6.8382    4.8420 C   0  0  0  0  0  0  0  0  0  0  0  0
    1.5852   -7.5144    3.9151 C   0  0  0  0  0  0  0  0  0  0  0  0
    1.4369   -8.9214    3.9354 C   0  0  0  0  0  0  0  0  0  0  0  0
    0.3567   -9.5817    3.3380 C   0  0  0  0  0  0  0  0  0  0  0  0
   -0.5985   -8.7585    2.6623 C   0  0  0  0  0  0  0  0  0  0  0  0
   -0.4256   -7.4038    2.5538 N   0  0  0  0  0  0  0  0  0  0  0  0
    0.6600   -6.7844    3.1467 C   0  0  0  0  0  0  0  0  0  0  0  0
    4.9610   -9.4712    1.3015 H   0  0  0  0  0  0  0  0  0  0  0  0
    4.7811   -7.9723    0.3908 H   0  0  0  0  0  0  0  0  0  0  0  0
    3.4816   -8.5252    1.4547 H   0  0  0  0  0  0  0  0  0  0  0  0
    1.1485   -4.1269    4.7352 H   0  0  0  0  0  0  0  0  0  0  0  0
   -0.7573   -0.4507    5.0104 H   0  0  0  0  0  0  0  0  0  0  0  0
    0.6113    0.5361    3.2151 H   0  0  0  0  0  0  0  0  0  0  0  0
    2.5155   -7.2684    5.8518 H   0  0  0  0  0  0  0  0  0  0  0  0
    2.1460   -9.5250    4.4743 H   0  0  0  0  0  0  0  0  0  0  0  0
    0.2208  -10.6549    3.4321 H   0  0  0  0  0  0  0  0  0  0  0  0
   -1.4477   -9.2888    2.2569 H   0  0  0  0  0  0  0  0  0  0  0  0
    0.7903   -5.7044    3.0966 H   0  0  0  0  0  0  0  0  0  0  0  0
  1  2  1  0
  1 22  1  0
  1 23  1  0
  1 24  1  0
  2  3  1  0
  3 13  1  0
  3  4  2  0
  4  5  1  0
  5  6  2  0
  6  7  1  0
  6 13  1  0
  7 12  1  0
  7  8  2  0
  8  9  1  0
  8 25  1  0
  9 10  2  0
 10 11  1  0
 10 26  1  0
 11 12  2  0
 11 27  1  0
 13 14  1  0
 14 15  2  3
 15 16  1  0
 15 28  1  0
 16 21  1  0
 16 17  2  0
 17 18  1  0
 17 29  1  0
 18 19  2  0
 18 30  1  0
 19 20  1  0
 19 31  1  0
 20 21  2  0
 21 32  1  0
M  END
>  <i_m_ct_stereo_status>  (160) 
1

>  <s_m_source_file>  (160) 
/var/tmp/pbs.5102103.sched01/tmprp2a6t7u/44c8wyhmqh.sdf

>  <i_m_source_file_index>  (160) 
16

>  <i_lp_mmshare_version>  (160) 
48012

>  <i_f3d_flags>  (160) 
0

>  <s_epik_input>  (160) 
bjFbY0hdW2NIXW5bY0hdYzEtYyhubmMyU1tDSDNdKW4yL049W0NIXS9jM1tjSF1bY0hdW2NIXW5bY0hdMw==

>  <s_epik_cmdline>  (160) 
J2VwaWtfcHl0aG9uJywgJy1waHQnLCAnMi4wJywgJy1waCcsICc3LjAnLCAnLXRuJywgJzgnLCAnLW1hJywgJzIwMCcsICctaW1hZScsICc8aW5maWxlLm1hZT4nLCAnLW9tYWUnLCAnPG91dGZpbGUubWFlPic=

>  <r_lp_tautomer_probability>  (160) 
1

>  <r_epik_Ionization_Penalty>  (160) 
5.05157e-05

>  <r_epik_Ionization_Penalty_Charging>  (160) 
0

>  <r_epik_Ionization_Penalty_Neutral>  (160) 
5.05157e-05

>  <r_epik_State_Penalty>  (160) 
-0

>  <r_epik_Charging_Adjusted_Penalty>  (160) 
0

>  <i_epik_Tot_Q>  (160) 
0

>  <i_epik_Tot_abs_Q>  (160) 
0

>  <s_epik_Chemistry_Notes>  (160) 
This compound has an imine and may undergo hydrolysis.

>  <s_lp_Force_Field>  (160) 
OPLS3e

>  <r_lp_Energy>  (160) 
3038.37

>  <b_lp_Chiralities_Consistent>  (160) 
1

>  <s_lp_Variant>  (160) 
33:0-2

>  <s_i_glide_gridfile>  (160) 
pfpi4k_grid

>  <i_i_glide_lignum>  (160) 
16

>  <i_i_glide_rotatable_bonds>  (160) 
4

>  <r_i_docking_score>  (160) 
-1.39992

>  <r_i_glide_ligand_efficiency>  (160) 
-0.0666631

>  <r_i_glide_ligand_efficiency_sa>  (160) 
-0.183918

>  <r_i_glide_ligand_efficiency_ln>  (160) 
-0.346129

>  <r_i_glide_gscore>  (160) 
-1.39992

>  <r_i_glide_lipo>  (160) 
-0.0278384

>  <r_i_glide_hbond>  (160) 
0

>  <r_i_glide_metal>  (160) 
-0

>  <r_i_glide_rewards>  (160) 
-1.38178

>  <r_i_glide_evdw>  (160) 
-20.9681

>  <r_i_glide_ecoul>  (160) 
-1.35191

>  <r_i_glide_erotb>  (160) 
0.622119

>  <r_i_glide_esite>  (160) 
-0.000256479

>  <r_i_glide_emodel>  (160) 
-18.2951

>  <r_i_glide_energy>  (160) 
-22.32

>  <r_i_glide_einternal>  (160) 
3.7741

>  <r_i_glide_intrahb_reward>  (160) 
-0

>  <i_i_glide_confnum>  (160) 
4

>  <i_i_glide_posenum>  (160) 
4

>  <r_i_glide_eff_state_penalty>  (160) 
0

>  <ligand_id>  (160) 
33

>  <original_smiles>  (160) 
CSc1nnc(-c2cnccn2)n1N=Cc1cccnc1

>  <smiles>  (160) 
[H]C(=Nn1c(SC([H])([H])[H])nnc1-c1nc([H])c([H])nc1[H])c1c([H])nc([H])c([H])c1[H]

$$$$
33:1:1
     RDKit          3D

 32 34  0  0  1  0  0  0  0  0999 V2000
   -1.6287   -9.3357    2.2925 C   0  0  0  0  0  0  0  0  0  0  0  0
   -1.2861   -7.9919    3.4631 S   0  0  0  0  0  0  0  0  0  0  0  0
    0.3004   -7.3947    2.7778 C   0  0  0  0  0  0  0  0  0  0  0  0
    0.3340   -6.3067    2.0408 N   0  0  0  0  0  0  0  0  0  0  0  0
    1.7029   -6.1223    1.7069 N   0  0  0  0  0  0  0  0  0  0  0  0
    2.5387   -7.0593    2.2367 C   0  0  0  0  0  0  0  0  0  0  0  0
    4.1776   -7.1556    2.0130 C   0  0  0  0  0  0  0  0  0  0  0  0
    4.8029   -8.3802    2.2994 C   0  0  0  0  0  0  0  0  0  0  0  0
    6.1257   -8.6773    2.1629 N   0  0  0  0  0  0  0  0  0  0  0  0
    7.0641   -7.7674    1.7106 C   0  0  0  0  0  0  0  0  0  0  0  0
    6.6204   -6.4714    1.3794 C   0  0  0  0  0  0  0  0  0  0  0  0
    5.2312   -6.1858    1.5239 N   0  0  0  0  0  0  0  0  0  0  0  0
    1.5535   -7.9170    2.9740 N   0  0  0  0  0  0  0  0  0  0  0  0
    1.6944   -9.0525    3.7791 N   0  0  0  0  0  0  0  0  0  0  0  0
    1.6221   -8.9906    5.0795 C   0  0  0  0  0  0  0  0  0  0  0  0
    1.6049   -7.7905    5.9741 C   0  0  0  0  0  0  0  0  0  0  0  0
    0.8176   -7.8273    7.1959 C   0  0  0  0  0  0  0  0  0  0  0  0
    0.9918   -6.9028    8.2398 C   0  0  0  0  0  0  0  0  0  0  0  0
    1.9425   -5.8908    8.0459 C   0  0  0  0  0  0  0  0  0  0  0  0
    2.6498   -5.7892    6.8266 N   0  0  0  0  0  0  0  0  0  0  0  0
    2.4803   -6.7011    5.8110 C   0  0  0  0  0  0  0  0  0  0  0  0
   -2.5665   -9.8482    2.5154 H   0  0  0  0  0  0  0  0  0  0  0  0
   -0.8210  -10.0637    2.3364 H   0  0  0  0  0  0  0  0  0  0  0  0
   -1.6943   -8.9415    1.2802 H   0  0  0  0  0  0  0  0  0  0  0  0
    4.1587   -9.2034    2.6643 H   0  0  0  0  0  0  0  0  0  0  0  0
    8.0973   -8.1384    1.6426 H   0  0  0  0  0  0  0  0  0  0  0  0
    7.5058   -5.8057    1.0136 H   0  0  0  0  0  0  0  0  0  0  0  0
    1.6841   -9.9375    5.6363 H   0  0  0  0  0  0  0  0  0  0  0  0
    0.1245   -8.6347    7.3313 H   0  0  0  0  0  0  0  0  0  0  0  0
    0.4237   -7.0289    9.1914 H   0  0  0  0  0  0  0  0  0  0  0  0
    2.0819   -5.2128    8.9072 H   0  0  0  0  0  0  0  0  0  0  0  0
    3.0785   -6.6993    4.8461 H   0  0  0  0  0  0  0  0  0  0  0  0
  1  2  1  0
  1 22  1  0
  1 23  1  0
  1 24  1  0
  2  3  1  0
  3 13  1  0
  3  4  2  0
  4  5  1  0
  5  6  2  0
  6  7  1  0
  6 13  1  0
  7 12  1  0
  7  8  2  0
  8  9  1  0
  8 25  1  0
  9 10  2  0
 10 11  1  0
 10 26  1  0
 11 12  2  0
 11 27  1  0
 13 14  1  0
 14 15  2  3
 15 16  1  0
 15 28  1  0
 16 21  1  0
 16 17  2  0
 17 18  1  0
 17 29  1  0
 18 19  2  0
 18 30  1  0
 19 20  1  0
 19 31  1  0
 20 21  2  0
 21 32  1  0
M  END
>  <i_m_ct_stereo_status>  (161) 
1

>  <s_m_source_file>  (161) 
/var/tmp/pbs.5102103.sched01/tmprp2a6t7u/44c8wyhmqh.sdf

>  <i_m_source_file_index>  (161) 
16

>  <i_lp_mmshare_version>  (161) 
48012

>  <i_f3d_flags>  (161) 
0

>  <s_epik_input>  (161) 
bjFbY0hdW2NIXW5bY0hdYzEtYyhubmMyU1tDSDNdKW4yL049W0NIXS9jM1tjSF1bY0hdW2NIXW5bY0hdMw==

>  <s_epik_cmdline>  (161) 
J2VwaWtfcHl0aG9uJywgJy1waHQnLCAnMi4wJywgJy1waCcsICc3LjAnLCAnLXRuJywgJzgnLCAnLW1hJywgJzIwMCcsICctaW1hZScsICc8aW5maWxlLm1hZT4nLCAnLW9tYWUnLCAnPG91dGZpbGUubWFlPic=

>  <r_lp_tautomer_probability>  (161) 
1

>  <r_epik_Ionization_Penalty>  (161) 
5.05157e-05

>  <r_epik_Ionization_Penalty_Charging>  (161) 
0

>  <r_epik_Ionization_Penalty_Neutral>  (161) 
5.05157e-05

>  <r_epik_State_Penalty>  (161) 
-0

>  <r_epik_Charging_Adjusted_Penalty>  (161) 
0

>  <i_epik_Tot_Q>  (161) 
0

>  <i_epik_Tot_abs_Q>  (161) 
0

>  <s_epik_Chemistry_Notes>  (161) 
This compound has an imine and may undergo hydrolysis.

>  <s_lp_Force_Field>  (161) 
OPLS3e

>  <r_lp_Energy>  (161) 
3038.37

>  <b_lp_Chiralities_Consistent>  (161) 
1

>  <s_lp_Variant>  (161) 
33:0-2

>  <s_i_glide_gridfile>  (161) 
pfpi4k_grid

>  <i_i_glide_lignum>  (161) 
16

>  <i_i_glide_rotatable_bonds>  (161) 
4

>  <r_i_docking_score>  (161) 
-1.11077

>  <r_i_glide_ligand_efficiency>  (161) 
-0.0528936

>  <r_i_glide_ligand_efficiency_sa>  (161) 
-0.14593

>  <r_i_glide_ligand_efficiency_ln>  (161) 
-0.274635

>  <r_i_glide_gscore>  (161) 
-1.11077

>  <r_i_glide_lipo>  (161) 
-0.533054

>  <r_i_glide_hbond>  (161) 
0

>  <r_i_glide_metal>  (161) 
-0

>  <r_i_glide_rewards>  (161) 
-1.38178

>  <r_i_glide_evdw>  (161) 
-23.3315

>  <r_i_glide_ecoul>  (161) 
-2.73725

>  <r_i_glide_erotb>  (161) 
0.622119

>  <r_i_glide_esite>  (161) 
-0.238326

>  <r_i_glide_emodel>  (161) 
-18.9211

>  <r_i_glide_energy>  (161) 
-26.0687

>  <r_i_glide_einternal>  (161) 
3.78635

>  <r_i_glide_intrahb_reward>  (161) 
-0

>  <i_i_glide_confnum>  (161) 
4

>  <i_i_glide_posenum>  (161) 
10

>  <r_i_glide_eff_state_penalty>  (161) 
0

>  <ligand_id>  (161) 
33

>  <original_smiles>  (161) 
CSc1nnc(-c2cnccn2)n1N=Cc1cccnc1

>  <smiles>  (161) 
[H]C(=Nn1c(SC([H])([H])[H])nnc1-c1nc([H])c([H])nc1[H])c1c([H])nc([H])c([H])c1[H]

$$$$
33:1:2
     RDKit          3D

 32 34  0  0  1  0  0  0  0  0999 V2000
    8.5386   -6.5085    2.7420 C   0  0  0  0  0  0  0  0  0  0  0  0
    7.7676   -6.1955    1.1254 S   0  0  0  0  0  0  0  0  0  0  0  0
    6.0229   -6.2498    1.6149 C   0  0  0  0  0  0  0  0  0  0  0  0
    5.3816   -5.1660    1.9815 N   0  0  0  0  0  0  0  0  0  0  0  0
    4.0644   -5.6130    2.2750 N   0  0  0  0  0  0  0  0  0  0  0  0
    3.8801   -6.9484    2.0998 C   0  0  0  0  0  0  0  0  0  0  0  0
    2.3054   -7.6331    2.3672 C   0  0  0  0  0  0  0  0  0  0  0  0
    1.2873   -6.6007    2.3442 C   0  0  0  0  0  0  0  0  0  0  0  0
   -0.0674   -6.8836    2.5022 N   0  0  0  0  0  0  0  0  0  0  0  0
   -0.5691   -8.1309    2.7163 C   0  0  0  0  0  0  0  0  0  0  0  0
    0.2917   -9.2456    2.7828 C   0  0  0  0  0  0  0  0  0  0  0  0
    1.7283   -8.9138    2.5713 N   0  0  0  0  0  0  0  0  0  0  0  0
    5.1770   -7.3673    1.6767 N   0  0  0  0  0  0  0  0  0  0  0  0
    5.7020   -8.5963    1.3316 N   0  0  0  0  0  0  0  0  0  0  0  0
    5.4639   -9.6042    2.0554 C   0  0  0  0  0  0  0  0  0  0  0  0
    4.7562   -9.6915    3.3814 C   0  0  0  0  0  0  0  0  0  0  0  0
    3.8110  -10.7345    3.5556 C   0  0  0  0  0  0  0  0  0  0  0  0
    3.2655  -11.1137    4.8141 C   0  0  0  0  0  0  0  0  0  0  0  0
    3.7361  -10.3160    5.9183 C   0  0  0  0  0  0  0  0  0  0  0  0
    4.5840   -9.2564    5.7449 N   0  0  0  0  0  0  0  0  0  0  0  0
    5.1246   -8.8726    4.4769 C   0  0  0  0  0  0  0  0  0  0  0  0
    9.6283   -6.5271    2.6787 H   0  0  0  0  0  0  0  0  0  0  0  0
    8.2064   -7.4762    3.1139 H   0  0  0  0  0  0  0  0  0  0  0  0
    8.2583   -5.7361    3.4578 H   0  0  0  0  0  0  0  0  0  0  0  0
    1.5342   -5.5534    2.1779 H   0  0  0  0  0  0  0  0  0  0  0  0
   -1.6796   -8.2089    2.8239 H   0  0  0  0  0  0  0  0  0  0  0  0
   -0.2312  -10.2428    2.9668 H   0  0  0  0  0  0  0  0  0  0  0  0
    5.8383  -10.5707    1.6959 H   0  0  0  0  0  0  0  0  0  0  0  0
    3.4871  -11.3042    2.6857 H   0  0  0  0  0  0  0  0  0  0  0  0
    2.5818  -11.9662    4.8969 H   0  0  0  0  0  0  0  0  0  0  0  0
    3.3165  -10.6972    6.8988 H   0  0  0  0  0  0  0  0  0  0  0  0
    5.8595   -8.0458    4.2868 H   0  0  0  0  0  0  0  0  0  0  0  0
  1  2  1  0
  1 22  1  0
  1 23  1  0
  1 24  1  0
  2  3  1  0
  3 13  1  0
  3  4  2  0
  4  5  1  0
  5  6  2  0
  6  7  1  0
  6 13  1  0
  7 12  1  0
  7  8  2  0
  8  9  1  0
  8 25  1  0
  9 10  2  0
 10 11  1  0
 10 26  1  0
 11 12  2  0
 11 27  1  0
 13 14  1  0
 14 15  2  3
 15 16  1  0
 15 28  1  0
 16 21  1  0
 16 17  2  0
 17 18  1  0
 17 29  1  0
 18 19  2  0
 18 30  1  0
 19 20  1  0
 19 31  1  0
 20 21  2  0
 21 32  1  0
M  END
>  <i_m_ct_stereo_status>  (162) 
1

>  <s_m_source_file>  (162) 
/var/tmp/pbs.5102103.sched01/tmprp2a6t7u/44c8wyhmqh.sdf

>  <i_m_source_file_index>  (162) 
16

>  <i_lp_mmshare_version>  (162) 
48012

>  <i_f3d_flags>  (162) 
0

>  <s_epik_input>  (162) 
bjFbY0hdW2NIXW5bY0hdYzEtYyhubmMyU1tDSDNdKW4yL049W0NIXS9jM1tjSF1bY0hdW2NIXW5bY0hdMw==

>  <s_epik_cmdline>  (162) 
J2VwaWtfcHl0aG9uJywgJy1waHQnLCAnMi4wJywgJy1waCcsICc3LjAnLCAnLXRuJywgJzgnLCAnLW1hJywgJzIwMCcsICctaW1hZScsICc8aW5maWxlLm1hZT4nLCAnLW9tYWUnLCAnPG91dGZpbGUubWFlPic=

>  <r_lp_tautomer_probability>  (162) 
1

>  <r_epik_Ionization_Penalty>  (162) 
5.05157e-05

>  <r_epik_Ionization_Penalty_Charging>  (162) 
0

>  <r_epik_Ionization_Penalty_Neutral>  (162) 
5.05157e-05

>  <r_epik_State_Penalty>  (162) 
-0

>  <r_epik_Charging_Adjusted_Penalty>  (162) 
0

>  <i_epik_Tot_Q>  (162) 
0

>  <i_epik_Tot_abs_Q>  (162) 
0

>  <s_epik_Chemistry_Notes>  (162) 
This compound has an imine and may undergo hydrolysis.

>  <s_lp_Force_Field>  (162) 
OPLS3e

>  <r_lp_Energy>  (162) 
3038.37

>  <b_lp_Chiralities_Consistent>  (162) 
1

>  <s_lp_Variant>  (162) 
33:0-2

>  <s_i_glide_gridfile>  (162) 
pfpi4k_grid

>  <i_i_glide_lignum>  (162) 
16

>  <i_i_glide_rotatable_bonds>  (162) 
4

>  <r_i_docking_score>  (162) 
-0.287087

>  <r_i_glide_ligand_efficiency>  (162) 
-0.0136708

>  <r_i_glide_ligand_efficiency_sa>  (162) 
-0.0377167

>  <r_i_glide_ligand_efficiency_ln>  (162) 
-0.0709817

>  <r_i_glide_gscore>  (162) 
-0.287087

>  <r_i_glide_lipo>  (162) 
0

>  <r_i_glide_hbond>  (162) 
-0.0924979

>  <r_i_glide_metal>  (162) 
-0

>  <r_i_glide_rewards>  (162) 
-1.6095

>  <r_i_glide_evdw>  (162) 
-23.7062

>  <r_i_glide_ecoul>  (162) 
-3.50014

>  <r_i_glide_erotb>  (162) 
0.622119

>  <r_i_glide_esite>  (162) 
-0.0348916

>  <r_i_glide_emodel>  (162) 
-18.4351

>  <r_i_glide_energy>  (162) 
-27.2063

>  <r_i_glide_einternal>  (162) 
1.48189

>  <r_i_glide_intrahb_reward>  (162) 
-0

>  <i_i_glide_confnum>  (162) 
1

>  <i_i_glide_posenum>  (162) 
19

>  <r_i_glide_eff_state_penalty>  (162) 
0

>  <ligand_id>  (162) 
33

>  <original_smiles>  (162) 
CSc1nnc(-c2cnccn2)n1N=Cc1cccnc1

>  <smiles>  (162) 
[H]C(=Nn1c(SC([H])([H])[H])nnc1-c1nc([H])c([H])nc1[H])c1c([H])nc([H])c([H])c1[H]

$$$$
34:0:0
     RDKit          3D

 57 60  0  0  1  0  0  0  0  0999 V2000
   -1.1154    2.4997    3.0468 C   0  0  0  0  0  0  0  0  0  0  0  0
   -0.0796    1.6467    3.5234 O   0  0  0  0  0  0  0  0  0  0  0  0
   -0.4745    0.2982    3.7259 C   0  0  2  0  0  0  0  0  0  0  0  0
   -1.2600    0.1549    5.0487 C   0  0  0  0  0  0  0  0  0  0  0  0
   -1.5870   -1.2150    5.2808 O   0  0  0  0  0  0  0  0  0  0  0  0
   -0.4376   -2.0402    5.4165 C   0  0  0  0  0  0  0  0  0  0  0  0
    0.3994   -2.0167    4.1258 C   0  0  0  0  0  0  0  0  0  0  0  0
    0.7917   -0.5803    3.7438 C   0  0  1  0  0  0  0  0  0  0  0  0
    1.4695   -0.5238    2.4239 N   0  0  0  0  0  0  0  0  0  0  0  0
    2.8893   -0.9456    2.3532 C   0  0  2  0  0  0  0  0  0  0  0  0
    3.7124    0.1790    1.6953 C   0  0  0  0  0  0  0  0  0  0  0  0
    5.1011   -0.2849    1.2107 C   0  0  1  0  0  0  0  0  0  0  0  0
    5.9369   -0.9411    2.3147 C   0  0  0  0  0  0  0  0  0  0  0  0
    5.5478   -2.4268    2.2854 C   0  0  0  0  0  0  0  0  0  0  0  0
    4.5020   -2.5932    1.1485 C   0  0  2  0  0  0  0  0  0  0  0  0
    4.6320   -3.9563    0.4168 C   0  0  0  0  0  0  0  0  0  0  0  0
    4.9986   -3.9604   -0.7615 O   0  0  0  0  0  0  0  0  0  0  0  0
    4.3413   -5.1231    1.0471 N   0  0  0  0  0  0  0  0  0  0  0  0
    4.0663   -5.3454    2.4702 C   0  0  0  0  0  0  0  0  0  0  0  0
    4.3128   -6.8285    2.7144 C   0  0  0  0  0  0  0  0  0  0  0  0
    4.0349   -7.4774    1.3664 C   0  0  0  0  0  0  0  0  0  0  0  0
    4.4494   -6.4112    0.3554 C   0  0  0  0  0  0  0  0  0  0  0  0
    4.9167   -1.4269    0.2186 C   0  0  0  0  0  0  0  0  0  0  0  0
    3.0373   -2.2999    1.6087 C   0  0  0  0  0  0  0  0  0  0  0  0
   -0.7200    3.4992    2.8647 H   0  0  0  0  0  0  0  0  0  0  0  0
   -1.9262    2.6028    3.7698 H   0  0  0  0  0  0  0  0  0  0  0  0
   -1.5329    2.1231    2.1105 H   0  0  0  0  0  0  0  0  0  0  0  0
   -1.1074   -0.0150    2.8975 H   0  0  0  0  0  0  0  0  0  0  0  0
   -0.6762    0.5471    5.8911 H   0  0  0  0  0  0  0  0  0  0  0  0
   -2.1884    0.7212    5.0185 H   0  0  0  0  0  0  0  0  0  0  0  0
    0.1570   -1.7156    6.2748 H   0  0  0  0  0  0  0  0  0  0  0  0
   -0.7708   -3.0568    5.6274 H   0  0  0  0  0  0  0  0  0  0  0  0
    1.2828   -2.6383    4.2589 H   0  0  0  0  0  0  0  0  0  0  0  0
   -0.1879   -2.4660    3.3227 H   0  0  0  0  0  0  0  0  0  0  0  0
    1.4622   -0.1778    4.5032 H   0  0  0  0  0  0  0  0  0  0  0  0
    0.9510   -1.0395    1.7253 H   0  0  0  0  0  0  0  0  0  0  0  0
    3.2558   -1.0810    3.3732 H   0  0  0  0  0  0  0  0  0  0  0  0
    3.1673    0.5688    0.8392 H   0  0  0  0  0  0  0  0  0  0  0  0
    3.8098    1.0071    2.3981 H   0  0  0  0  0  0  0  0  0  0  0  0
    5.6350    0.5466    0.7593 H   0  0  0  0  0  0  0  0  0  0  0  0
    7.0016   -0.8338    2.0980 H   0  0  0  0  0  0  0  0  0  0  0  0
    5.7595   -0.4938    3.2928 H   0  0  0  0  0  0  0  0  0  0  0  0
    6.4416   -3.0307    2.0981 H   0  0  0  0  0  0  0  0  0  0  0  0
    5.1608   -2.7150    3.2601 H   0  0  0  0  0  0  0  0  0  0  0  0
    4.7075   -4.7686    3.1366 H   0  0  0  0  0  0  0  0  0  0  0  0
    3.0181   -5.1260    2.6877 H   0  0  0  0  0  0  0  0  0  0  0  0
    5.3585   -6.9714    2.9865 H   0  0  0  0  0  0  0  0  0  0  0  0
    3.6910   -7.2269    3.5176 H   0  0  0  0  0  0  0  0  0  0  0  0
    4.5812   -8.4128    1.2298 H   0  0  0  0  0  0  0  0  0  0  0  0
    2.9669   -7.6881    1.2777 H   0  0  0  0  0  0  0  0  0  0  0  0
    3.8217   -6.4385   -0.5326 H   0  0  0  0  0  0  0  0  0  0  0  0
    5.4883   -6.5547    0.0590 H   0  0  0  0  0  0  0  0  0  0  0  0
    4.1681   -1.2029   -0.5479 H   0  0  0  0  0  0  0  0  0  0  0  0
    5.8705   -1.6175   -0.2903 H   0  0  0  0  0  0  0  0  0  0  0  0
    2.6615   -3.0696    2.2787 H   0  0  0  0  0  0  0  0  0  0  0  0
    2.3852   -2.3081    0.7296 H   0  0  0  0  0  0  0  0  0  0  0  0
    1.4438    0.4461    2.1382 H   0  0  0  0  0  0  0  0  0  0  0  0
  1  2  1  0
  1 25  1  0
  1 26  1  0
  1 27  1  0
  2  3  1  0
  3  8  1  0
  3  4  1  0
  3 28  1  6
  4  5  1  0
  4 29  1  0
  4 30  1  0
  5  6  1  0
  6  7  1  0
  6 31  1  0
  6 32  1  0
  7  8  1  0
  7 33  1  0
  7 34  1  0
  8  9  1  0
  8 35  1  1
  9 10  1  0
  9 36  1  0
  9 57  1  0
 10 24  1  0
 10 11  1  0
 10 37  1  1
 11 12  1  0
 11 38  1  0
 11 39  1  0
 12 23  1  0
 12 13  1  0
 12 40  1  6
 13 14  1  0
 13 41  1  0
 13 42  1  0
 14 15  1  0
 14 43  1  0
 14 44  1  0
 15 16  1  6
 15 23  1  0
 15 24  1  0
 16 17  2  0
 16 18  1  0
 18 22  1  0
 18 19  1  0
 19 20  1  0
 19 45  1  0
 19 46  1  0
 20 21  1  0
 20 47  1  0
 20 48  1  0
 21 22  1  0
 21 49  1  0
 21 50  1  0
 22 51  1  0
 22 52  1  0
 23 53  1  0
 23 54  1  0
 24 55  1  0
 24 56  1  0
M  CHG  1   9   1
M  END
>  <i_m_ct_stereo_status>  (163) 
1

>  <s_m_source_file>  (163) 
/var/tmp/pbs.5102103.sched01/tmprp2a6t7u/44c8wyhmqh.sdf

>  <i_m_source_file_index>  (163) 
17

>  <i_lp_mmshare_version>  (163) 
48012

>  <i_f3d_flags>  (163) 
0

>  <s_epik_input>  (163) 
W0NIM11PW0NAQEhdMVtDSDJdT1tDSDJdW0NIMl1bQ0BIXTFbTkhdW0NAQEhdKFtDSDJdMilbQ0gyXVtDQEhdKFtDSDJdMylbQ0gyXVtDSDJdW0NAQF0yM0MoPU8pTjRbQ0gyXVtDSDJdW0NIMl1bQ0gyXTQ=

>  <s_epik_cmdline>  (163) 
J2VwaWtfcHl0aG9uJywgJy1waHQnLCAnMi4wJywgJy1waCcsICc3LjAnLCAnLXRuJywgJzgnLCAnLW1hJywgJzIwMCcsICctaW1hZScsICc8aW5maWxlLm1hZT4nLCAnLW9tYWUnLCAnPG91dGZpbGUubWFlPic=

>  <r_epik_Ionization_Penalty>  (163) 
0.00428494

>  <r_epik_Ionization_Penalty_Charging>  (163) 
0.00428488

>  <r_epik_Ionization_Penalty_Neutral>  (163) 
6.37458e-08

>  <r_epik_State_Penalty>  (163) 
0.00308236

>  <r_epik_Charging_Adjusted_Penalty>  (163) 
0.00736724

>  <i_epik_Tot_Q>  (163) 
1

>  <i_epik_Tot_abs_Q>  (163) 
1

>  <s_lp_Force_Field>  (163) 
OPLS3e

>  <r_lp_Energy>  (163) 
59.1096

>  <b_lp_Chiralities_Consistent>  (163) 
1

>  <s_lp_Variant>  (163) 
34:0-1

>  <s_i_glide_gridfile>  (163) 
pfpi4k_grid

>  <i_i_glide_lignum>  (163) 
17

>  <i_i_glide_rotatable_bonds>  (163) 
5

>  <r_i_docking_score>  (163) 
-2.96797

>  <r_i_glide_ligand_efficiency>  (163) 
-0.123666

>  <r_i_glide_ligand_efficiency_sa>  (163) 
-0.356713

>  <r_i_glide_ligand_efficiency_ln>  (163) 
-0.710372

>  <r_i_glide_gscore>  (163) 
-2.96797

>  <r_i_glide_lipo>  (163) 
-0.590702

>  <r_i_glide_hbond>  (163) 
0

>  <r_i_glide_metal>  (163) 
-0

>  <r_i_glide_rewards>  (163) 
-1.20516

>  <r_i_glide_evdw>  (163) 
-20.8275

>  <r_i_glide_ecoul>  (163) 
-5.05127

>  <r_i_glide_erotb>  (163) 
0.663784

>  <r_i_glide_esite>  (163) 
-0.0368278

>  <r_i_glide_emodel>  (163) 
-31.9987

>  <r_i_glide_energy>  (163) 
-25.8788

>  <r_i_glide_einternal>  (163) 
2.06782

>  <r_i_glide_intrahb_reward>  (163) 
-0

>  <i_i_glide_confnum>  (163) 
4

>  <i_i_glide_posenum>  (163) 
18

>  <r_i_glide_eff_state_penalty>  (163) 
0

>  <ligand_id>  (163) 
34

>  <original_smiles>  (163) 
COC1COCCC1NC1CC2CCC(C(=O)N3CCCC3)(C2)C1

>  <smiles>  (163) 
[H]C([H])([H])OC1([H])C([H])([H])OC([H])([H])C([H])([H])C1([H])[N+]([H])([H])C1([H])C([H])([H])C2([H])C([H])([H])C([H])([H])C(C(=O)N3C([H])([H])C([H])([H])C([H])([H])C3([H])[H])(C2([H])[H])C1([H])[H]

$$$$
34:0:1
     RDKit          3D

 57 60  0  0  1  0  0  0  0  0999 V2000
    4.6920    0.3907    4.7052 C   0  0  0  0  0  0  0  0  0  0  0  0
    3.6338   -0.1286    3.9121 O   0  0  0  0  0  0  0  0  0  0  0  0
    2.5841    0.7837    3.6263 C   0  0  2  0  0  0  0  0  0  0  0  0
    1.7757    1.0725    4.9040 C   0  0  0  0  0  0  0  0  0  0  0  0
    0.6660    1.9121    4.6111 O   0  0  0  0  0  0  0  0  0  0  0  0
   -0.2594    1.3188    3.7099 C   0  0  0  0  0  0  0  0  0  0  0  0
    0.4322    1.0485    2.3667 C   0  0  0  0  0  0  0  0  0  0  0  0
    1.6664    0.1565    2.5671 C   0  0  1  0  0  0  0  0  0  0  0  0
    2.3668   -0.0080    1.2758 N   0  0  0  0  0  0  0  0  0  0  0  0
    3.2861   -1.1808    1.0607 C   0  0  2  0  0  0  0  0  0  0  0  0
    3.8554   -1.0954   -0.3877 C   0  0  0  0  0  0  0  0  0  0  0  0
    4.5161   -2.4114   -0.8394 C   0  0  1  0  0  0  0  0  0  0  0  0
    5.5996   -2.8910    0.1377 C   0  0  0  0  0  0  0  0  0  0  0  0
    4.8490   -3.7552    1.1610 C   0  0  0  0  0  0  0  0  0  0  0  0
    3.3593   -3.7467    0.7548 C   0  0  2  0  0  0  0  0  0  0  0  0
    2.6094   -5.0661    1.0808 C   0  0  0  0  0  0  0  0  0  0  0  0
    1.7561   -5.4542    0.2891 O   0  0  0  0  0  0  0  0  0  0  0  0
    2.8316   -5.7724    2.2190 N   0  0  0  0  0  0  0  0  0  0  0  0
    3.8598   -5.5579    3.2433 C   0  0  0  0  0  0  0  0  0  0  0  0
    3.9223   -6.8474    4.0491 C   0  0  0  0  0  0  0  0  0  0  0  0
    2.5313   -7.4384    3.9293 C   0  0  0  0  0  0  0  0  0  0  0  0
    2.0419   -6.9681    2.5524 C   0  0  0  0  0  0  0  0  0  0  0  0
    3.4725   -3.5287   -0.7604 C   0  0  0  0  0  0  0  0  0  0  0  0
    2.5832   -2.5355    1.3382 C   0  0  0  0  0  0  0  0  0  0  0  0
    5.5229   -0.3197    4.7414 H   0  0  0  0  0  0  0  0  0  0  0  0
    4.3647    0.5619    5.7299 H   0  0  0  0  0  0  0  0  0  0  0  0
    5.0640    1.3285    4.2929 H   0  0  0  0  0  0  0  0  0  0  0  0
    2.9967    1.7131    3.2309 H   0  0  0  0  0  0  0  0  0  0  0  0
    1.4357    0.1370    5.3529 H   0  0  0  0  0  0  0  0  0  0  0  0
    2.3750    1.5933    5.6498 H   0  0  0  0  0  0  0  0  0  0  0  0
   -0.6663    0.4006    4.1407 H   0  0  0  0  0  0  0  0  0  0  0  0
   -1.0918    2.0100    3.5725 H   0  0  0  0  0  0  0  0  0  0  0  0
   -0.2727    0.5759    1.6837 H   0  0  0  0  0  0  0  0  0  0  0  0
    0.7138    1.9971    1.9096 H   0  0  0  0  0  0  0  0  0  0  0  0
    1.3091   -0.8087    2.9173 H   0  0  0  0  0  0  0  0  0  0  0  0
    1.6704   -0.1031    0.5450 H   0  0  0  0  0  0  0  0  0  0  0  0
    4.1125   -1.0622    1.7524 H   0  0  0  0  0  0  0  0  0  0  0  0
    3.0575   -0.8698   -1.1002 H   0  0  0  0  0  0  0  0  0  0  0  0
    4.5756   -0.2792   -0.4457 H   0  0  0  0  0  0  0  0  0  0  0  0
    4.9070   -2.3062   -1.8526 H   0  0  0  0  0  0  0  0  0  0  0  0
    6.3338   -3.5035   -0.3897 H   0  0  0  0  0  0  0  0  0  0  0  0
    6.1467   -2.0631    0.6003 H   0  0  0  0  0  0  0  0  0  0  0  0
    5.2612   -4.7632    1.1423 H   0  0  0  0  0  0  0  0  0  0  0  0
    5.0165   -3.3607    2.1590 H   0  0  0  0  0  0  0  0  0  0  0  0
    4.8453   -5.3841    2.8284 H   0  0  0  0  0  0  0  0  0  0  0  0
    3.5733   -4.7275    3.8953 H   0  0  0  0  0  0  0  0  0  0  0  0
    4.6220   -7.5051    3.5463 H   0  0  0  0  0  0  0  0  0  0  0  0
    4.2522   -6.7202    5.0766 H   0  0  0  0  0  0  0  0  0  0  0  0
    2.5169   -8.5290    4.0133 H   0  0  0  0  0  0  0  0  0  0  0  0
    1.8926   -7.0302    4.7168 H   0  0  0  0  0  0  0  0  0  0  0  0
    0.9745   -6.7541    2.5708 H   0  0  0  0  0  0  0  0  0  0  0  0
    2.2325   -7.7231    1.7944 H   0  0  0  0  0  0  0  0  0  0  0  0
    2.5266   -3.2546   -1.2355 H   0  0  0  0  0  0  0  0  0  0  0  0
    3.8525   -4.4252   -1.2553 H   0  0  0  0  0  0  0  0  0  0  0  0
    2.4635   -2.6592    2.4133 H   0  0  0  0  0  0  0  0  0  0  0  0
    1.5776   -2.4888    0.9177 H   0  0  0  0  0  0  0  0  0  0  0  0
    2.9036    0.8360    1.1017 H   0  0  0  0  0  0  0  0  0  0  0  0
  1  2  1  0
  1 25  1  0
  1 26  1  0
  1 27  1  0
  2  3  1  0
  3  8  1  0
  3  4  1  0
  3 28  1  6
  4  5  1  0
  4 29  1  0
  4 30  1  0
  5  6  1  0
  6  7  1  0
  6 31  1  0
  6 32  1  0
  7  8  1  0
  7 33  1  0
  7 34  1  0
  8  9  1  0
  8 35  1  1
  9 10  1  0
  9 36  1  0
  9 57  1  0
 10 24  1  0
 10 11  1  0
 10 37  1  1
 11 12  1  0
 11 38  1  0
 11 39  1  0
 12 23  1  0
 12 13  1  0
 12 40  1  6
 13 14  1  0
 13 41  1  0
 13 42  1  0
 14 15  1  0
 14 43  1  0
 14 44  1  0
 15 16  1  6
 15 23  1  0
 15 24  1  0
 16 17  2  0
 16 18  1  0
 18 22  1  0
 18 19  1  0
 19 20  1  0
 19 45  1  0
 19 46  1  0
 20 21  1  0
 20 47  1  0
 20 48  1  0
 21 22  1  0
 21 49  1  0
 21 50  1  0
 22 51  1  0
 22 52  1  0
 23 53  1  0
 23 54  1  0
 24 55  1  0
 24 56  1  0
M  CHG  1   9   1
M  END
>  <i_m_ct_stereo_status>  (164) 
1

>  <s_m_source_file>  (164) 
/var/tmp/pbs.5102103.sched01/tmprp2a6t7u/44c8wyhmqh.sdf

>  <i_m_source_file_index>  (164) 
17

>  <i_lp_mmshare_version>  (164) 
48012

>  <i_f3d_flags>  (164) 
0

>  <s_epik_input>  (164) 
W0NIM11PW0NAQEhdMVtDSDJdT1tDSDJdW0NIMl1bQ0BIXTFbTkhdW0NAQEhdKFtDSDJdMilbQ0gyXVtDQEhdKFtDSDJdMylbQ0gyXVtDSDJdW0NAQF0yM0MoPU8pTjRbQ0gyXVtDSDJdW0NIMl1bQ0gyXTQ=

>  <s_epik_cmdline>  (164) 
J2VwaWtfcHl0aG9uJywgJy1waHQnLCAnMi4wJywgJy1waCcsICc3LjAnLCAnLXRuJywgJzgnLCAnLW1hJywgJzIwMCcsICctaW1hZScsICc8aW5maWxlLm1hZT4nLCAnLW9tYWUnLCAnPG91dGZpbGUubWFlPic=

>  <r_epik_Ionization_Penalty>  (164) 
0.00428494

>  <r_epik_Ionization_Penalty_Charging>  (164) 
0.00428488

>  <r_epik_Ionization_Penalty_Neutral>  (164) 
6.37458e-08

>  <r_epik_State_Penalty>  (164) 
0.00308236

>  <r_epik_Charging_Adjusted_Penalty>  (164) 
0.00736724

>  <i_epik_Tot_Q>  (164) 
1

>  <i_epik_Tot_abs_Q>  (164) 
1

>  <s_lp_Force_Field>  (164) 
OPLS3e

>  <r_lp_Energy>  (164) 
59.1096

>  <b_lp_Chiralities_Consistent>  (164) 
1

>  <s_lp_Variant>  (164) 
34:0-1

>  <s_i_glide_gridfile>  (164) 
pfpi4k_grid

>  <i_i_glide_lignum>  (164) 
17

>  <i_i_glide_rotatable_bonds>  (164) 
5

>  <r_i_docking_score>  (164) 
-2.80883

>  <r_i_glide_ligand_efficiency>  (164) 
-0.117035

>  <r_i_glide_ligand_efficiency_sa>  (164) 
-0.337587

>  <r_i_glide_ligand_efficiency_ln>  (164) 
-0.672283

>  <r_i_glide_gscore>  (164) 
-2.80883

>  <r_i_glide_lipo>  (164) 
-0.151047

>  <r_i_glide_hbond>  (164) 
-0.306742

>  <r_i_glide_metal>  (164) 
-0

>  <r_i_glide_rewards>  (164) 
-1.10811

>  <r_i_glide_evdw>  (164) 
-16.1474

>  <r_i_glide_ecoul>  (164) 
-6.71168

>  <r_i_glide_erotb>  (164) 
0.663784

>  <r_i_glide_esite>  (164) 
-0.0925965

>  <r_i_glide_emodel>  (164) 
-28.2376

>  <r_i_glide_energy>  (164) 
-22.8591

>  <r_i_glide_einternal>  (164) 
1.70632

>  <r_i_glide_intrahb_reward>  (164) 
-0

>  <i_i_glide_confnum>  (164) 
5

>  <i_i_glide_posenum>  (164) 
38

>  <r_i_glide_eff_state_penalty>  (164) 
0

>  <ligand_id>  (164) 
34

>  <original_smiles>  (164) 
COC1COCCC1NC1CC2CCC(C(=O)N3CCCC3)(C2)C1

>  <smiles>  (164) 
[H]C([H])([H])OC1([H])C([H])([H])OC([H])([H])C([H])([H])C1([H])[N+]([H])([H])C1([H])C([H])([H])C2([H])C([H])([H])C([H])([H])C(C(=O)N3C([H])([H])C([H])([H])C([H])([H])C3([H])[H])(C2([H])[H])C1([H])[H]

$$$$
34:0:2
     RDKit          3D

 57 60  0  0  1  0  0  0  0  0999 V2000
    5.7837   -1.0617   -0.3065 C   0  0  0  0  0  0  0  0  0  0  0  0
    5.8575   -2.3950   -0.8066 O   0  0  0  0  0  0  0  0  0  0  0  0
    4.8016   -2.8682   -1.6448 C   0  0  2  0  0  0  0  0  0  0  0  0
    4.8056   -2.1574   -3.0116 C   0  0  0  0  0  0  0  0  0  0  0  0
    3.7485   -2.6350   -3.8362 O   0  0  0  0  0  0  0  0  0  0  0  0
    2.4741   -2.3996   -3.2573 C   0  0  0  0  0  0  0  0  0  0  0  0
    2.3429   -3.2059   -1.9589 C   0  0  0  0  0  0  0  0  0  0  0  0
    3.4319   -2.8004   -0.9498 C   0  0  1  0  0  0  0  0  0  0  0  0
    3.4142   -3.7041    0.2350 N   0  0  0  0  0  0  0  0  0  0  0  0
    3.5491   -3.1203    1.5850 C   0  0  2  0  0  0  0  0  0  0  0  0
    3.8060   -4.2355    2.6175 C   0  0  0  0  0  0  0  0  0  0  0  0
    3.6163   -3.7517    4.0724 C   0  0  1  0  0  0  0  0  0  0  0  0
    4.4414   -2.5018    4.4307 C   0  0  0  0  0  0  0  0  0  0  0  0
    3.5602   -1.3074    4.0465 C   0  0  0  0  0  0  0  0  0  0  0  0
    2.2381   -1.8888    3.4808 C   0  0  2  0  0  0  0  0  0  0  0  0
    0.9800   -1.0338    3.8196 C   0  0  0  0  0  0  0  0  0  0  0  0
    0.0970   -1.5213    4.5275 O   0  0  0  0  0  0  0  0  0  0  0  0
    0.8314    0.2122    3.3091 N   0  0  0  0  0  0  0  0  0  0  0  0
    1.8259    1.0409    2.6121 C   0  0  0  0  0  0  0  0  0  0  0  0
    1.3196    2.4662    2.7115 C   0  0  0  0  0  0  0  0  0  0  0  0
   -0.1938    2.3107    2.8094 C   0  0  0  0  0  0  0  0  0  0  0  0
   -0.3871    0.9944    3.5422 C   0  0  0  0  0  0  0  0  0  0  0  0
    2.1891   -3.2478    4.2253 C   0  0  0  0  0  0  0  0  0  0  0  0
    2.3438   -2.2272    1.9642 C   0  0  0  0  0  0  0  0  0  0  0  0
    6.6881   -0.8355    0.2561 H   0  0  0  0  0  0  0  0  0  0  0  0
    4.9445   -0.9166    0.3633 H   0  0  0  0  0  0  0  0  0  0  0  0
    5.7071   -0.3389   -1.1115 H   0  0  0  0  0  0  0  0  0  0  0  0
    5.0125   -3.9153   -1.8665 H   0  0  0  0  0  0  0  0  0  0  0  0
    4.6969   -1.0705   -2.9163 H   0  0  0  0  0  0  0  0  0  0  0  0
    5.7559   -2.3551   -3.5193 H   0  0  0  0  0  0  0  0  0  0  0  0
    2.3428   -1.3220   -3.0844 H   0  0  0  0  0  0  0  0  0  0  0  0
    1.7130   -2.6906   -3.9733 H   0  0  0  0  0  0  0  0  0  0  0  0
    1.3541   -3.0569   -1.5291 H   0  0  0  0  0  0  0  0  0  0  0  0
    2.3927   -4.2561   -2.1919 H   0  0  0  0  0  0  0  0  0  0  0  0
    3.1987   -1.7811   -0.6738 H   0  0  0  0  0  0  0  0  0  0  0  0
    2.5637   -4.2384    0.2076 H   0  0  0  0  0  0  0  0  0  0  0  0
    4.4445   -2.5050    1.6066 H   0  0  0  0  0  0  0  0  0  0  0  0
    3.1474   -5.0908    2.4482 H   0  0  0  0  0  0  0  0  0  0  0  0
    4.8246   -4.5993    2.4915 H   0  0  0  0  0  0  0  0  0  0  0  0
    3.8321   -4.5718    4.7642 H   0  0  0  0  0  0  0  0  0  0  0  0
    4.6461   -2.4759    5.5057 H   0  0  0  0  0  0  0  0  0  0  0  0
    5.4076   -2.4736    3.9254 H   0  0  0  0  0  0  0  0  0  0  0  0
    3.3830   -0.6818    4.9284 H   0  0  0  0  0  0  0  0  0  0  0  0
    4.0950   -0.6979    3.3200 H   0  0  0  0  0  0  0  0  0  0  0  0
    2.8190    1.0146    3.0574 H   0  0  0  0  0  0  0  0  0  0  0  0
    1.8862    0.7690    1.5544 H   0  0  0  0  0  0  0  0  0  0  0  0
    1.7056    2.9198    3.6234 H   0  0  0  0  0  0  0  0  0  0  0  0
    1.6494    3.0645    1.8632 H   0  0  0  0  0  0  0  0  0  0  0  0
   -0.6686    3.1525    3.3170 H   0  0  0  0  0  0  0  0  0  0  0  0
   -0.6098    2.2327    1.7999 H   0  0  0  0  0  0  0  0  0  0  0  0
   -1.2751    0.4664    3.1802 H   0  0  0  0  0  0  0  0  0  0  0  0
   -0.4884    1.1656    4.6184 H   0  0  0  0  0  0  0  0  0  0  0  0
    1.4546   -3.9380    3.8016 H   0  0  0  0  0  0  0  0  0  0  0  0
    1.9644   -3.1283    5.2957 H   0  0  0  0  0  0  0  0  0  0  0  0
    2.3795   -1.3351    1.3463 H   0  0  0  0  0  0  0  0  0  0  0  0
    1.4343   -2.7344    1.6708 H   0  0  0  0  0  0  0  0  0  0  0  0
    4.1728   -4.3538    0.1182 H   0  0  0  0  0  0  0  0  0  0  0  0
  1  2  1  0
  1 25  1  0
  1 26  1  0
  1 27  1  0
  2  3  1  0
  3  8  1  0
  3  4  1  0
  3 28  1  6
  4  5  1  0
  4 29  1  0
  4 30  1  0
  5  6  1  0
  6  7  1  0
  6 31  1  0
  6 32  1  0
  7  8  1  0
  7 33  1  0
  7 34  1  0
  8  9  1  0
  8 35  1  1
  9 10  1  0
  9 36  1  0
  9 57  1  0
 10 24  1  0
 10 11  1  0
 10 37  1  6
 11 12  1  0
 11 38  1  0
 11 39  1  0
 12 23  1  0
 12 13  1  0
 12 40  1  1
 13 14  1  0
 13 41  1  0
 13 42  1  0
 14 15  1  0
 14 43  1  0
 14 44  1  0
 15 16  1  6
 15 23  1  0
 15 24  1  0
 16 17  2  0
 16 18  1  0
 18 22  1  0
 18 19  1  0
 19 20  1  0
 19 45  1  0
 19 46  1  0
 20 21  1  0
 20 47  1  0
 20 48  1  0
 21 22  1  0
 21 49  1  0
 21 50  1  0
 22 51  1  0
 22 52  1  0
 23 53  1  0
 23 54  1  0
 24 55  1  0
 24 56  1  0
M  CHG  1   9   1
M  END
>  <i_m_ct_stereo_status>  (165) 
1

>  <s_m_source_file>  (165) 
/var/tmp/pbs.5102103.sched01/tmprp2a6t7u/44c8wyhmqh.sdf

>  <i_m_source_file_index>  (165) 
17

>  <i_lp_mmshare_version>  (165) 
48012

>  <i_f3d_flags>  (165) 
0

>  <s_epik_input>  (165) 
W0NIM11PW0NAQEhdMVtDSDJdT1tDSDJdW0NIMl1bQ0BIXTFbTkhdW0NAQEhdKFtDSDJdMilbQ0gyXVtDQEhdKFtDSDJdMylbQ0gyXVtDSDJdW0NAQF0yM0MoPU8pTjRbQ0gyXVtDSDJdW0NIMl1bQ0gyXTQ=

>  <s_epik_cmdline>  (165) 
J2VwaWtfcHl0aG9uJywgJy1waHQnLCAnMi4wJywgJy1waCcsICc3LjAnLCAnLXRuJywgJzgnLCAnLW1hJywgJzIwMCcsICctaW1hZScsICc8aW5maWxlLm1hZT4nLCAnLW9tYWUnLCAnPG91dGZpbGUubWFlPic=

>  <r_epik_Ionization_Penalty>  (165) 
0.00428494

>  <r_epik_Ionization_Penalty_Charging>  (165) 
0.00428488

>  <r_epik_Ionization_Penalty_Neutral>  (165) 
6.37458e-08

>  <r_epik_State_Penalty>  (165) 
0.00308236

>  <r_epik_Charging_Adjusted_Penalty>  (165) 
0.00736724

>  <i_epik_Tot_Q>  (165) 
1

>  <i_epik_Tot_abs_Q>  (165) 
1

>  <s_lp_Force_Field>  (165) 
OPLS3e

>  <r_lp_Energy>  (165) 
59.1096

>  <b_lp_Chiralities_Consistent>  (165) 
1

>  <s_lp_Variant>  (165) 
34:0-1

>  <s_i_glide_gridfile>  (165) 
pfpi4k_grid

>  <i_i_glide_lignum>  (165) 
17

>  <i_i_glide_rotatable_bonds>  (165) 
5

>  <r_i_docking_score>  (165) 
-2.64246

>  <r_i_glide_ligand_efficiency>  (165) 
-0.110102

>  <r_i_glide_ligand_efficiency_sa>  (165) 
-0.317591

>  <r_i_glide_ligand_efficiency_ln>  (165) 
-0.632462

>  <r_i_glide_gscore>  (165) 
-2.64246

>  <r_i_glide_lipo>  (165) 
-0.310678

>  <r_i_glide_hbond>  (165) 
-0.0641255

>  <r_i_glide_metal>  (165) 
-0

>  <r_i_glide_rewards>  (165) 
-1.10811

>  <r_i_glide_evdw>  (165) 
-20.4565

>  <r_i_glide_ecoul>  (165) 
-5.14537

>  <r_i_glide_erotb>  (165) 
0.663784

>  <r_i_glide_esite>  (165) 
-0.0286994

>  <r_i_glide_emodel>  (165) 
-29.5839

>  <r_i_glide_energy>  (165) 
-25.6018

>  <r_i_glide_einternal>  (165) 
4.04353

>  <r_i_glide_intrahb_reward>  (165) 
-0

>  <i_i_glide_confnum>  (165) 
3

>  <i_i_glide_posenum>  (165) 
20

>  <r_i_glide_eff_state_penalty>  (165) 
0

>  <ligand_id>  (165) 
34

>  <original_smiles>  (165) 
COC1COCCC1NC1CC2CCC(C(=O)N3CCCC3)(C2)C1

>  <smiles>  (165) 
[H]C([H])([H])OC1([H])C([H])([H])OC([H])([H])C([H])([H])C1([H])[N+]([H])([H])C1([H])C([H])([H])C2([H])C([H])([H])C([H])([H])C(C(=O)N3C([H])([H])C([H])([H])C([H])([H])C3([H])[H])(C2([H])[H])C1([H])[H]

$$$$
35:0:0
     RDKit          3D

 38 39  0  0  1  0  0  0  0  0999 V2000
    1.8048    4.1432    9.0514 C   0  0  0  0  0  0  0  0  0  0  0  0
    1.3444    2.5329    8.3493 S   0  0  0  0  0  0  0  0  0  0  0  0
   -0.3654    2.6542    7.9148 C   0  0  0  0  0  0  0  0  0  0  0  0
   -1.3849    2.6637    8.9041 C   0  0  0  0  0  0  0  0  0  0  0  0
   -1.1139    2.5966   10.4055 C   0  0  0  0  0  0  0  0  0  0  0  0
   -2.6800    2.7073    8.5561 N   0  0  0  0  0  0  0  0  0  0  0  0
   -2.9766    2.7440    7.2582 C   0  0  0  0  0  0  0  0  0  0  0  0
   -2.1137    2.7268    6.2460 N   0  0  0  0  0  0  0  0  0  0  0  0
   -0.8053    2.6907    6.5639 C   0  0  0  0  0  0  0  0  0  0  0  0
    0.0918    2.7326    5.4808 N   0  0  0  0  0  0  0  0  0  0  0  0
    0.9350    3.9023    5.3024 C   0  0  0  0  0  0  0  0  0  0  0  0
    0.8120    4.4348    3.8593 C   0  0  1  0  0  0  0  0  0  0  0  0
    1.7821    5.5871    3.5821 C   0  0  0  0  0  0  0  0  0  0  0  0
    0.9935    3.3396    2.8826 N   0  0  0  0  0  0  0  0  0  0  0  0
    0.0519    2.2126    3.0676 C   0  0  1  0  0  0  0  0  0  0  0  0
    0.2829    1.1291    2.0053 C   0  0  0  0  0  0  0  0  0  0  0  0
    0.1447    1.6563    4.5048 C   0  0  0  0  0  0  0  0  0  0  0  0
    2.8731    4.1507    9.2613 H   0  0  0  0  0  0  0  0  0  0  0  0
    1.2916    4.3536    9.9889 H   0  0  0  0  0  0  0  0  0  0  0  0
    1.5618    4.9408    8.3452 H   0  0  0  0  0  0  0  0  0  0  0  0
   -0.5240    3.4509   10.7346 H   0  0  0  0  0  0  0  0  0  0  0  0
   -0.5732    1.6822   10.6550 H   0  0  0  0  0  0  0  0  0  0  0  0
   -2.0363    2.6298   10.9927 H   0  0  0  0  0  0  0  0  0  0  0  0
   -4.0223    2.7845    7.0141 H   0  0  0  0  0  0  0  0  0  0  0  0
    0.6703    4.6703    6.0315 H   0  0  0  0  0  0  0  0  0  0  0  0
    1.9611    3.6117    5.4986 H   0  0  0  0  0  0  0  0  0  0  0  0
   -0.2054    4.8010    3.7079 H   0  0  0  0  0  0  0  0  0  0  0  0
    1.6008    6.4281    4.2445 H   0  0  0  0  0  0  0  0  0  0  0  0
    1.6746    5.9477    2.5627 H   0  0  0  0  0  0  0  0  0  0  0  0
    2.8155    5.2770    3.7206 H   0  0  0  0  0  0  0  0  0  0  0  0
    0.8009    3.7329    1.9413 H   0  0  0  0  0  0  0  0  0  0  0  0
   -0.9492    2.6225    2.9219 H   0  0  0  0  0  0  0  0  0  0  0  0
   -0.4449    0.3265    2.0892 H   0  0  0  0  0  0  0  0  0  0  0  0
    1.2728    0.6828    2.0938 H   0  0  0  0  0  0  0  0  0  0  0  0
    0.2033    1.5336    0.9987 H   0  0  0  0  0  0  0  0  0  0  0  0
    1.1018    1.1604    4.6306 H   0  0  0  0  0  0  0  0  0  0  0  0
   -0.6232    0.9077    4.7056 H   0  0  0  0  0  0  0  0  0  0  0  0
    1.9455    2.9998    2.9307 H   0  0  0  0  0  0  0  0  0  0  0  0
  1  2  1  0
  1 18  1  0
  1 19  1  0
  1 20  1  0
  2  3  1  0
  3  9  2  0
  3  4  1  0
  4  5  1  0
  4  6  2  0
  5 21  1  0
  5 22  1  0
  5 23  1  0
  6  7  1  0
  7  8  2  0
  7 24  1  0
  8  9  1  0
  9 10  1  0
 10 17  1  0
 10 11  1  0
 11 12  1  0
 11 25  1  0
 11 26  1  0
 12 13  1  0
 12 14  1  0
 12 27  1  1
 13 28  1  0
 13 29  1  0
 13 30  1  0
 14 15  1  0
 14 31  1  0
 14 38  1  0
 15 16  1  0
 15 17  1  0
 15 32  1  6
 16 33  1  0
 16 34  1  0
 16 35  1  0
 17 36  1  0
 17 37  1  0
M  CHG  1  14   1
M  END
>  <i_m_ct_stereo_status>  (166) 
1

>  <s_m_source_file>  (166) 
/var/tmp/pbs.5102103.sched01/tmprp2a6t7u/44c8wyhmqh.sdf

>  <i_m_source_file_index>  (166) 
18

>  <i_lp_mmshare_version>  (166) 
48012

>  <i_f3d_flags>  (166) 
0

>  <s_epik_input>  (166) 
W0NIM11TYzFjKFtDSDNdKW5bY0hdbmMxTjJbQ0gyXVtDQEBIXShbQ0gzXSlbTkhdW0NAQEhdKFtDSDNdKVtDSDJdMg==

>  <s_epik_cmdline>  (166) 
J2VwaWtfcHl0aG9uJywgJy1waHQnLCAnMi4wJywgJy1waCcsICc3LjAnLCAnLXRuJywgJzgnLCAnLW1hJywgJzIwMCcsICctaW1hZScsICc8aW5maWxlLm1hZT4nLCAnLW9tYWUnLCAnPG91dGZpbGUubWFlPic=

>  <r_lp_tautomer_probability>  (166) 
1

>  <r_epik_Ionization_Penalty>  (166) 
0.0271899

>  <r_epik_Ionization_Penalty_Charging>  (166) 
0.0270554

>  <r_epik_Ionization_Penalty_Neutral>  (166) 
0.000134492

>  <r_epik_State_Penalty>  (166) 
0.00369364

>  <r_epik_Charging_Adjusted_Penalty>  (166) 
0.0307491

>  <i_epik_Tot_Q>  (166) 
1

>  <i_epik_Tot_abs_Q>  (166) 
1

>  <s_lp_Force_Field>  (166) 
OPLS3e

>  <r_lp_Energy>  (166) 
35.8907

>  <b_lp_Chiralities_Consistent>  (166) 
1

>  <s_lp_Variant>  (166) 
35:0-1

>  <s_i_glide_gridfile>  (166) 
pfpi4k_grid

>  <i_i_glide_lignum>  (166) 
18

>  <i_i_glide_rotatable_bonds>  (166) 
2

>  <r_i_docking_score>  (166) 
-3.74424

>  <r_i_glide_ligand_efficiency>  (166) 
-0.22025

>  <r_i_glide_ligand_efficiency_sa>  (166) 
-0.566324

>  <r_i_glide_ligand_efficiency_ln>  (166) 
-0.97679

>  <r_i_glide_gscore>  (166) 
-3.74424

>  <r_i_glide_lipo>  (166) 
0

>  <r_i_glide_hbond>  (166) 
-0.186338

>  <r_i_glide_metal>  (166) 
-0

>  <r_i_glide_rewards>  (166) 
-1.94147

>  <r_i_glide_evdw>  (166) 
-14.1119

>  <r_i_glide_ecoul>  (166) 
-7.21619

>  <r_i_glide_erotb>  (166) 
0.273608

>  <r_i_glide_esite>  (166) 
-0.102012

>  <r_i_glide_emodel>  (166) 
-27.7063

>  <r_i_glide_energy>  (166) 
-21.3281

>  <r_i_glide_einternal>  (166) 
1.64342

>  <r_i_glide_intrahb_reward>  (166) 
-0

>  <i_i_glide_confnum>  (166) 
5

>  <i_i_glide_posenum>  (166) 
4

>  <r_i_glide_eff_state_penalty>  (166) 
0

>  <ligand_id>  (166) 
35

>  <original_smiles>  (166) 
CSc1c(C)ncnc1N1CC(C)NC(C)C1

>  <smiles>  (166) 
[H]c1nc(N2C([H])([H])C([H])(C([H])([H])[H])[N+]([H])([H])C([H])(C([H])([H])[H])C2([H])[H])c(SC([H])([H])[H])c(C([H])([H])[H])n1

$$$$
35:0:1
     RDKit          3D

 38 39  0  0  1  0  0  0  0  0999 V2000
   -1.6985    2.9821    3.3495 C   0  0  0  0  0  0  0  0  0  0  0  0
   -1.4825    3.8677    4.9104 S   0  0  0  0  0  0  0  0  0  0  0  0
   -0.9136    2.6405    6.0489 C   0  0  0  0  0  0  0  0  0  0  0  0
   -1.7388    2.2738    7.1573 C   0  0  0  0  0  0  0  0  0  0  0  0
   -3.0937    2.9329    7.3513 C   0  0  0  0  0  0  0  0  0  0  0  0
   -1.3791    1.3509    8.0465 N   0  0  0  0  0  0  0  0  0  0  0  0
   -0.1702    0.7907    7.8818 C   0  0  0  0  0  0  0  0  0  0  0  0
    0.6617    0.9990    6.8579 N   0  0  0  0  0  0  0  0  0  0  0  0
    0.3064    1.9158    5.9459 C   0  0  0  0  0  0  0  0  0  0  0  0
    1.2190    2.0957    4.8609 N   0  0  0  0  0  0  0  0  0  0  0  0
    1.8291    3.3936    4.6277 C   0  0  0  0  0  0  0  0  0  0  0  0
    1.6901    3.7631    3.1291 C   0  0  1  0  0  0  0  0  0  0  0  0
    2.4083    5.0636    2.7748 C   0  0  0  0  0  0  0  0  0  0  0  0
    2.1586    2.6308    2.2765 N   0  0  0  0  0  0  0  0  0  0  0  0
    1.4984    1.3129    2.5339 C   0  0  1  0  0  0  0  0  0  0  0  0
    2.0522    0.2103    1.6196 C   0  0  0  0  0  0  0  0  0  0  0  0
    1.6326    0.9533    4.0560 C   0  0  0  0  0  0  0  0  0  0  0  0
   -1.8453    3.6906    2.5059 H   0  0  0  0  0  0  0  0  0  0  0  0
   -2.5422    2.2638    3.3504 H   0  0  0  0  0  0  0  0  0  0  0  0
   -0.8239    2.4500    3.2385 H   0  0  0  0  0  0  0  0  0  0  0  0
   -3.7197    2.7682    6.4768 H   0  0  0  0  0  0  0  0  0  0  0  0
   -2.9736    4.0070    7.4797 H   0  0  0  0  0  0  0  0  0  0  0  0
   -3.6142    2.5440    8.2269 H   0  0  0  0  0  0  0  0  0  0  0  0
    0.1131    0.0846    8.6409 H   0  0  0  0  0  0  0  0  0  0  0  0
    1.3902    4.1620    5.2684 H   0  0  0  0  0  0  0  0  0  0  0  0
    2.8878    3.3514    4.8941 H   0  0  0  0  0  0  0  0  0  0  0  0
    0.6386    3.9599    2.8905 H   0  0  0  0  0  0  0  0  0  0  0  0
    1.9693    5.8868    3.3388 H   0  0  0  0  0  0  0  0  0  0  0  0
    2.2432    5.2892    1.7200 H   0  0  0  0  0  0  0  0  0  0  0  0
    3.4832    5.0309    2.9680 H   0  0  0  0  0  0  0  0  0  0  0  0
    1.9569    2.8981    1.3217 H   0  0  0  0  0  0  0  0  0  0  0  0
    0.4649    1.3516    2.2181 H   0  0  0  0  0  0  0  0  0  0  0  0
    1.4816   -0.7004    1.7765 H   0  0  0  0  0  0  0  0  0  0  0  0
    3.1147   -0.0007    1.7637 H   0  0  0  0  0  0  0  0  0  0  0  0
    1.8728    0.5298    0.5985 H   0  0  0  0  0  0  0  0  0  0  0  0
    2.6681    0.7058    4.2940 H   0  0  0  0  0  0  0  0  0  0  0  0
    1.0417    0.0726    4.3063 H   0  0  0  0  0  0  0  0  0  0  0  0
    3.1694    2.5424    2.3993 H   0  0  0  0  0  0  0  0  0  0  0  0
  1  2  1  0
  1 18  1  0
  1 19  1  0
  1 20  1  0
  2  3  1  0
  3  9  2  0
  3  4  1  0
  4  5  1  0
  4  6  2  0
  5 21  1  0
  5 22  1  0
  5 23  1  0
  6  7  1  0
  7  8  2  0
  7 24  1  0
  8  9  1  0
  9 10  1  0
 10 17  1  0
 10 11  1  0
 11 12  1  0
 11 25  1  0
 11 26  1  0
 12 13  1  0
 12 14  1  0
 12 27  1  6
 13 28  1  0
 13 29  1  0
 13 30  1  0
 14 15  1  0
 14 31  1  0
 14 38  1  0
 15 16  1  0
 15 17  1  0
 15 32  1  6
 16 33  1  0
 16 34  1  0
 16 35  1  0
 17 36  1  0
 17 37  1  0
M  CHG  1  14   1
M  END
>  <i_m_ct_stereo_status>  (167) 
1

>  <s_m_source_file>  (167) 
/var/tmp/pbs.5102103.sched01/tmprp2a6t7u/44c8wyhmqh.sdf

>  <i_m_source_file_index>  (167) 
18

>  <i_lp_mmshare_version>  (167) 
48012

>  <i_f3d_flags>  (167) 
0

>  <s_epik_input>  (167) 
W0NIM11TYzFjKFtDSDNdKW5bY0hdbmMxTjJbQ0gyXVtDQEBIXShbQ0gzXSlbTkhdW0NAQEhdKFtDSDNdKVtDSDJdMg==

>  <s_epik_cmdline>  (167) 
J2VwaWtfcHl0aG9uJywgJy1waHQnLCAnMi4wJywgJy1waCcsICc3LjAnLCAnLXRuJywgJzgnLCAnLW1hJywgJzIwMCcsICctaW1hZScsICc8aW5maWxlLm1hZT4nLCAnLW9tYWUnLCAnPG91dGZpbGUubWFlPic=

>  <r_lp_tautomer_probability>  (167) 
1

>  <r_epik_Ionization_Penalty>  (167) 
0.0271899

>  <r_epik_Ionization_Penalty_Charging>  (167) 
0.0270554

>  <r_epik_Ionization_Penalty_Neutral>  (167) 
0.000134492

>  <r_epik_State_Penalty>  (167) 
0.00369364

>  <r_epik_Charging_Adjusted_Penalty>  (167) 
0.0307491

>  <i_epik_Tot_Q>  (167) 
1

>  <i_epik_Tot_abs_Q>  (167) 
1

>  <s_lp_Force_Field>  (167) 
OPLS3e

>  <r_lp_Energy>  (167) 
35.8907

>  <b_lp_Chiralities_Consistent>  (167) 
1

>  <s_lp_Variant>  (167) 
35:0-1

>  <s_i_glide_gridfile>  (167) 
pfpi4k_grid

>  <i_i_glide_lignum>  (167) 
18

>  <i_i_glide_rotatable_bonds>  (167) 
2

>  <r_i_docking_score>  (167) 
-3.4459

>  <r_i_glide_ligand_efficiency>  (167) 
-0.2027

>  <r_i_glide_ligand_efficiency_sa>  (167) 
-0.521199

>  <r_i_glide_ligand_efficiency_ln>  (167) 
-0.898958

>  <r_i_glide_gscore>  (167) 
-3.4459

>  <r_i_glide_lipo>  (167) 
-0.16381

>  <r_i_glide_hbond>  (167) 
-0.0422827

>  <r_i_glide_metal>  (167) 
-0

>  <r_i_glide_rewards>  (167) 
-1.68145

>  <r_i_glide_evdw>  (167) 
-16.2654

>  <r_i_glide_ecoul>  (167) 
-6.18707

>  <r_i_glide_erotb>  (167) 
0.273608

>  <r_i_glide_esite>  (167) 
-0.0906353

>  <r_i_glide_emodel>  (167) 
-26.0824

>  <r_i_glide_energy>  (167) 
-22.4525

>  <r_i_glide_einternal>  (167) 
1.52423

>  <r_i_glide_intrahb_reward>  (167) 
-0

>  <i_i_glide_confnum>  (167) 
5

>  <i_i_glide_posenum>  (167) 
21

>  <r_i_glide_eff_state_penalty>  (167) 
0

>  <ligand_id>  (167) 
35

>  <original_smiles>  (167) 
CSc1c(C)ncnc1N1CC(C)NC(C)C1

>  <smiles>  (167) 
[H]c1nc(N2C([H])([H])C([H])(C([H])([H])[H])[N+]([H])([H])C([H])(C([H])([H])[H])C2([H])[H])c(SC([H])([H])[H])c(C([H])([H])[H])n1

$$$$
35:0:2
     RDKit          3D

 38 39  0  0  1  0  0  0  0  0999 V2000
    1.7242    5.3151    8.2998 C   0  0  0  0  0  0  0  0  0  0  0  0
    1.4497    3.5339    8.0922 S   0  0  0  0  0  0  0  0  0  0  0  0
   -0.1936    3.3524    7.4445 C   0  0  0  0  0  0  0  0  0  0  0  0
   -1.3196    3.5310    8.2796 C   0  0  0  0  0  0  0  0  0  0  0  0
   -1.2194    3.9268    9.7456 C   0  0  0  0  0  0  0  0  0  0  0  0
   -2.5712    3.3295    7.8227 N   0  0  0  0  0  0  0  0  0  0  0  0
   -2.7037    2.9449    6.5523 C   0  0  0  0  0  0  0  0  0  0  0  0
   -1.7243    2.7352    5.6744 N   0  0  0  0  0  0  0  0  0  0  0  0
   -0.4602    2.9456    6.1059 C   0  0  0  0  0  0  0  0  0  0  0  0
    0.5432    2.7699    5.1377 N   0  0  0  0  0  0  0  0  0  0  0  0
    1.5227    3.8172    4.8984 C   0  0  0  0  0  0  0  0  0  0  0  0
    1.6064    4.1748    3.4061 C   0  0  1  0  0  0  0  0  0  0  0  0
    2.7216    5.1885    3.1405 C   0  0  0  0  0  0  0  0  0  0  0  0
    1.7964    2.9505    2.5967 N   0  0  0  0  0  0  0  0  0  0  0  0
    0.7115    1.9593    2.7992 C   0  0  1  0  0  0  0  0  0  0  0  0
    0.9394    0.7250    1.9223 C   0  0  0  0  0  0  0  0  0  0  0  0
    0.5882    1.5839    4.2949 C   0  0  0  0  0  0  0  0  0  0  0  0
    2.7679    5.4855    8.5723 H   0  0  0  0  0  0  0  0  0  0  0  0
    1.0954    5.7308    9.0866 H   0  0  0  0  0  0  0  0  0  0  0  0
    1.5122    5.8505    7.3734 H   0  0  0  0  0  0  0  0  0  0  0  0
   -0.7308    4.8951    9.8509 H   0  0  0  0  0  0  0  0  0  0  0  0
   -0.6445    3.1791   10.2988 H   0  0  0  0  0  0  0  0  0  0  0  0
   -2.2081    4.0121   10.2130 H   0  0  0  0  0  0  0  0  0  0  0  0
   -3.7177    2.8331    6.2015 H   0  0  0  0  0  0  0  0  0  0  0  0
    1.2620    4.7085    5.4655 H   0  0  0  0  0  0  0  0  0  0  0  0
    2.4973    3.4690    5.2516 H   0  0  0  0  0  0  0  0  0  0  0  0
    0.6590    4.6239    3.1006 H   0  0  0  0  0  0  0  0  0  0  0  0
    2.5591    6.1231    3.6765 H   0  0  0  0  0  0  0  0  0  0  0  0
    2.7799    5.4429    2.0866 H   0  0  0  0  0  0  0  0  0  0  0  0
    3.6989    4.8090    3.4341 H   0  0  0  0  0  0  0  0  0  0  0  0
    1.7720    3.2402    1.6265 H   0  0  0  0  0  0  0  0  0  0  0  0
   -0.2207    2.4345    2.4853 H   0  0  0  0  0  0  0  0  0  0  0  0
    0.1256    0.0070    2.0032 H   0  0  0  0  0  0  0  0  0  0  0  0
    1.8619    0.2033    2.1733 H   0  0  0  0  0  0  0  0  0  0  0  0
    1.0036    0.9959    0.8740 H   0  0  0  0  0  0  0  0  0  0  0  0
    1.4715    1.0121    4.5845 H   0  0  0  0  0  0  0  0  0  0  0  0
   -0.2665    0.9318    4.4803 H   0  0  0  0  0  0  0  0  0  0  0  0
    2.6916    2.5398    2.8267 H   0  0  0  0  0  0  0  0  0  0  0  0
  1  2  1  0
  1 18  1  0
  1 19  1  0
  1 20  1  0
  2  3  1  0
  3  9  2  0
  3  4  1  0
  4  5  1  0
  4  6  2  0
  5 21  1  0
  5 22  1  0
  5 23  1  0
  6  7  1  0
  7  8  2  0
  7 24  1  0
  8  9  1  0
  9 10  1  0
 10 17  1  0
 10 11  1  0
 11 12  1  0
 11 25  1  0
 11 26  1  0
 12 13  1  0
 12 14  1  0
 12 27  1  6
 13 28  1  0
 13 29  1  0
 13 30  1  0
 14 15  1  0
 14 31  1  0
 14 38  1  0
 15 16  1  0
 15 17  1  0
 15 32  1  6
 16 33  1  0
 16 34  1  0
 16 35  1  0
 17 36  1  0
 17 37  1  0
M  CHG  1  14   1
M  END
>  <i_m_ct_stereo_status>  (168) 
1

>  <s_m_source_file>  (168) 
/var/tmp/pbs.5102103.sched01/tmprp2a6t7u/44c8wyhmqh.sdf

>  <i_m_source_file_index>  (168) 
18

>  <i_lp_mmshare_version>  (168) 
48012

>  <i_f3d_flags>  (168) 
0

>  <s_epik_input>  (168) 
W0NIM11TYzFjKFtDSDNdKW5bY0hdbmMxTjJbQ0gyXVtDQEBIXShbQ0gzXSlbTkhdW0NAQEhdKFtDSDNdKVtDSDJdMg==

>  <s_epik_cmdline>  (168) 
J2VwaWtfcHl0aG9uJywgJy1waHQnLCAnMi4wJywgJy1waCcsICc3LjAnLCAnLXRuJywgJzgnLCAnLW1hJywgJzIwMCcsICctaW1hZScsICc8aW5maWxlLm1hZT4nLCAnLW9tYWUnLCAnPG91dGZpbGUubWFlPic=

>  <r_lp_tautomer_probability>  (168) 
1

>  <r_epik_Ionization_Penalty>  (168) 
0.0271899

>  <r_epik_Ionization_Penalty_Charging>  (168) 
0.0270554

>  <r_epik_Ionization_Penalty_Neutral>  (168) 
0.000134492

>  <r_epik_State_Penalty>  (168) 
0.00369364

>  <r_epik_Charging_Adjusted_Penalty>  (168) 
0.0307491

>  <i_epik_Tot_Q>  (168) 
1

>  <i_epik_Tot_abs_Q>  (168) 
1

>  <s_lp_Force_Field>  (168) 
OPLS3e

>  <r_lp_Energy>  (168) 
35.8907

>  <b_lp_Chiralities_Consistent>  (168) 
1

>  <s_lp_Variant>  (168) 
35:0-1

>  <s_i_glide_gridfile>  (168) 
pfpi4k_grid

>  <i_i_glide_lignum>  (168) 
18

>  <i_i_glide_rotatable_bonds>  (168) 
2

>  <r_i_docking_score>  (168) 
-3.11636

>  <r_i_glide_ligand_efficiency>  (168) 
-0.183315

>  <r_i_glide_ligand_efficiency_sa>  (168) 
-0.471355

>  <r_i_glide_ligand_efficiency_ln>  (168) 
-0.812988

>  <r_i_glide_gscore>  (168) 
-3.11636

>  <r_i_glide_lipo>  (168) 
-0.000705541

>  <r_i_glide_hbond>  (168) 
-0.0642899

>  <r_i_glide_metal>  (168) 
-0

>  <r_i_glide_rewards>  (168) 
-1.90314

>  <r_i_glide_evdw>  (168) 
-14.7145

>  <r_i_glide_ecoul>  (168) 
-4.00693

>  <r_i_glide_erotb>  (168) 
0.273608

>  <r_i_glide_esite>  (168) 
-0.0850682

>  <r_i_glide_emodel>  (168) 
-24.5429

>  <r_i_glide_energy>  (168) 
-18.7214

>  <r_i_glide_einternal>  (168) 
0.40733

>  <r_i_glide_intrahb_reward>  (168) 
-0

>  <i_i_glide_confnum>  (168) 
1

>  <i_i_glide_posenum>  (168) 
1

>  <r_i_glide_eff_state_penalty>  (168) 
0

>  <ligand_id>  (168) 
35

>  <original_smiles>  (168) 
CSc1c(C)ncnc1N1CC(C)NC(C)C1

>  <smiles>  (168) 
[H]c1nc(N2C([H])([H])C([H])(C([H])([H])[H])[N+]([H])([H])C([H])(C([H])([H])[H])C2([H])[H])c(SC([H])([H])[H])c(C([H])([H])[H])n1

$$$$
36:0:0
     RDKit          3D

 52 55  0  0  1  0  0  0  0  0999 V2000
    0.6307   -9.7787    3.4852 C   0  0  0  0  0  0  0  0  0  0  0  0
    0.8467   -8.5766    2.5807 C   0  0  0  0  0  0  0  0  0  0  0  0
   -0.2857   -7.8708    2.1010 C   0  0  0  0  0  0  0  0  0  0  0  0
   -0.1193   -6.7605    1.2521 C   0  0  0  0  0  0  0  0  0  0  0  0
    1.1709   -6.3390    0.8822 C   0  0  0  0  0  0  0  0  0  0  0  0
    2.3006   -7.0284    1.3660 C   0  0  0  0  0  0  0  0  0  0  0  0
    2.1553   -8.1592    2.2143 C   0  0  0  0  0  0  0  0  0  0  0  0
    3.2629   -8.8940    2.6756 N   0  0  0  0  0  0  0  0  0  0  0  0
    4.5373   -8.2330    2.9255 C   0  0  0  0  0  0  0  0  0  0  0  0
    5.7841   -9.1537    2.7546 C   0  0  0  0  0  0  0  0  0  0  0  0
    5.6415  -10.3624    3.7200 C   0  0  0  0  0  0  0  0  0  0  0  0
    5.9018   -9.7123    1.3227 C   0  0  0  0  0  0  0  0  0  0  0  0
    7.0334   -8.4155    3.1010 N   0  0  0  0  0  0  0  0  0  0  0  0
    7.5178   -7.3173    2.5856 C   0  0  0  0  0  0  0  0  0  0  0  0
    8.7475   -6.9300    3.0619 N   0  0  0  0  0  0  0  0  0  0  0  0
    9.2623   -5.8612    2.5351 C   0  0  0  0  0  0  0  0  0  0  0  0
    8.5711   -5.1354    1.5757 N   0  0  0  0  0  0  0  0  0  0  0  0
    8.9892   -4.0502    0.9459 N   0  0  0  0  0  0  0  0  0  0  0  0
    8.0355   -3.6698    0.1647 C   0  0  0  0  0  0  0  0  0  0  0  0
    6.9182   -4.5604    0.2353 C   0  0  0  0  0  0  0  0  0  0  0  0
    5.7398   -4.5376   -0.4288 C   0  0  0  0  0  0  0  0  0  0  0  0
    5.2891   -3.5912   -1.4242 C   0  0  0  0  0  0  0  0  0  0  0  0
    4.6129   -3.8816   -2.5997 N   0  0  0  0  0  0  0  0  0  0  0  0
    4.2918   -2.7528   -3.2339 C   0  0  0  0  0  0  0  0  0  0  0  0
    3.7031   -2.6657   -4.2955 O   0  0  0  0  0  0  0  0  0  0  0  0
    4.7654   -1.7443   -2.4779 N   0  0  0  0  0  0  0  0  0  0  0  0
    5.3728   -2.2232   -1.3434 C   0  0  0  0  0  0  0  0  0  0  0  0
    5.7592   -1.2059   -0.6882 O   0  0  0  0  0  0  0  0  0  0  0  0
    7.3260   -5.5491    1.1748 C   0  0  0  0  0  0  0  0  0  0  0  0
    6.7885   -6.6407    1.6359 N   0  0  0  0  0  0  0  0  0  0  0  0
    4.3340   -4.8207   -2.8459 H   0  0  0  0  0  0  0  0  0  0  0  0
    4.6483   -0.7499   -2.6986 H   0  0  0  0  0  0  0  0  0  0  0  0
   -0.4305   -9.9544    3.6619 H   0  0  0  0  0  0  0  0  0  0  0  0
    1.1021   -9.6078    4.4514 H   0  0  0  0  0  0  0  0  0  0  0  0
    1.0468  -10.6779    3.0330 H   0  0  0  0  0  0  0  0  0  0  0  0
   -1.2827   -8.2020    2.3649 H   0  0  0  0  0  0  0  0  0  0  0  0
   -0.9769   -6.2572    0.8597 H   0  0  0  0  0  0  0  0  0  0  0  0
    1.3206   -5.5073    0.2063 H   0  0  0  0  0  0  0  0  0  0  0  0
    3.2572   -6.6814    1.0105 H   0  0  0  0  0  0  0  0  0  0  0  0
    3.0599   -9.6902    3.2620 H   0  0  0  0  0  0  0  0  0  0  0  0
    4.6324   -7.4065    2.2475 H   0  0  0  0  0  0  0  0  0  0  0  0
    4.5278   -7.7998    3.9262 H   0  0  0  0  0  0  0  0  0  0  0  0
    4.7785  -10.9812    3.4608 H   0  0  0  0  0  0  0  0  0  0  0  0
    5.5018  -10.0590    4.7590 H   0  0  0  0  0  0  0  0  0  0  0  0
    6.4972  -11.0356    3.6844 H   0  0  0  0  0  0  0  0  0  0  0  0
    5.0093  -10.2579    1.0310 H   0  0  0  0  0  0  0  0  0  0  0  0
    6.7438  -10.3968    1.2323 H   0  0  0  0  0  0  0  0  0  0  0  0
    6.0378   -8.9234    0.5921 H   0  0  0  0  0  0  0  0  0  0  0  0
   10.2498   -5.4676    2.7953 H   0  0  0  0  0  0  0  0  0  0  0  0
    8.0226   -2.8039   -0.4991 H   0  0  0  0  0  0  0  0  0  0  0  0
    5.0596   -5.3442   -0.2296 H   0  0  0  0  0  0  0  0  0  0  0  0
    7.6516   -8.8986    3.7328 H   0  0  0  0  0  0  0  0  0  0  0  0
  1  2  1  0
  1 33  1  0
  1 34  1  0
  1 35  1  0
  2  7  2  0
  2  3  1  0
  3  4  2  0
  3 36  1  0
  4  5  1  0
  4 37  1  0
  5  6  2  0
  5 38  1  0
  6  7  1  0
  6 39  1  0
  7  8  1  0
  8  9  1  0
  8 40  1  0
  9 10  1  0
  9 41  1  0
  9 42  1  0
 10 11  1  0
 10 12  1  0
 10 13  1  0
 11 43  1  0
 11 44  1  0
 11 45  1  0
 12 46  1  0
 12 47  1  0
 12 48  1  0
 13 14  2  3
 13 52  1  0
 14 30  1  0
 14 15  1  0
 15 16  2  0
 16 17  1  0
 16 49  1  0
 17 29  1  0
 17 18  1  0
 18 19  2  0
 19 20  1  0
 19 50  1  0
 20 21  2  3
 20 29  1  0
 21 22  1  0
 21 51  1  0
 22 27  2  0
 22 23  1  0
 23 31  1  0
 23 24  1  0
 24 25  2  0
 24 26  1  0
 26 32  1  0
 26 27  1  0
 27 28  1  0
 29 30  2  0
M  CHG  2  13   1  28  -1
M  END
>  <i_m_ct_stereo_status>  (169) 
1

>  <s_m_source_file>  (169) 
/var/tmp/pbs.5102103.sched01/tmprp2a6t7u/44c8wyhmqh.sdf

>  <i_m_source_file_index>  (169) 
19

>  <i_lp_mmshare_version>  (169) 
48012

>  <i_f3d_flags>  (169) 
0

>  <s_epik_input>  (169) 
W0NIM11jMVtjSF1bY0hdW2NIXVtjSF1jMVtOSF1bQ0gyXUMoW0NIM10pKFtDSDNdKS9OPWMoL25bY0hdMiluYyhuMjMpYyhcW2NIXW4zKT1bQ0hdXGM0W25IXWMoPU8pW25IXWM0W09IXQ==

>  <s_epik_cmdline>  (169) 
J2VwaWtfcHl0aG9uJywgJy1waHQnLCAnMi4wJywgJy1waCcsICc3LjAnLCAnLXRuJywgJzgnLCAnLW1hJywgJzIwMCcsICctaW1hZScsICc8aW5maWxlLm1hZT4nLCAnLW9tYWUnLCAnPG91dGZpbGUubWFlPic=

>  <r_lp_tautomer_probability>  (169) 
1

>  <r_epik_Ionization_Penalty>  (169) 
0.00378577

>  <r_epik_Ionization_Penalty_Charging>  (169) 
0.000193101

>  <r_epik_Ionization_Penalty_Neutral>  (169) 
0.00359267

>  <r_epik_State_Penalty>  (169) 
-0

>  <r_epik_Charging_Adjusted_Penalty>  (169) 
0.000193101

>  <i_epik_Tot_Q>  (169) 
0

>  <i_epik_Tot_abs_Q>  (169) 
2

>  <s_epik_Chemistry_Notes>  (169) 
This compound has an imine and may undergo hydrolysis.

>  <s_lp_Force_Field>  (169) 
OPLS3e

>  <r_lp_Energy>  (169) 
50.5008

>  <b_lp_Chiralities_Consistent>  (169) 
1

>  <s_lp_Variant>  (169) 
36:0-1

>  <s_i_glide_gridfile>  (169) 
pfpi4k_grid

>  <i_i_glide_lignum>  (169) 
19

>  <i_i_glide_rotatable_bonds>  (169) 
5

>  <r_i_docking_score>  (169) 
-3.58099

>  <r_i_glide_ligand_efficiency>  (169) 
-0.119366

>  <r_i_glide_ligand_efficiency_sa>  (169) 
-0.370899

>  <r_i_glide_ligand_efficiency_ln>  (169) 
-0.813639

>  <r_i_glide_gscore>  (169) 
-3.58099

>  <r_i_glide_lipo>  (169) 
-0.409496

>  <r_i_glide_hbond>  (169) 
-0.61077

>  <r_i_glide_metal>  (169) 
-0

>  <r_i_glide_rewards>  (169) 
-0.945409

>  <r_i_glide_evdw>  (169) 
-30.4035

>  <r_i_glide_ecoul>  (169) 
-3.01684

>  <r_i_glide_erotb>  (169) 
0.476102

>  <r_i_glide_esite>  (169) 
-0.118713

>  <r_i_glide_emodel>  (169) 
-40.0412

>  <r_i_glide_energy>  (169) 
-33.4203

>  <r_i_glide_einternal>  (169) 
4.94183

>  <r_i_glide_intrahb_reward>  (169) 
-0

>  <i_i_glide_confnum>  (169) 
2

>  <i_i_glide_posenum>  (169) 
3

>  <r_i_glide_eff_state_penalty>  (169) 
0

>  <ligand_id>  (169) 
36

>  <original_smiles>  (169) 
Cc1ccccc1NCC(C)(C)N=c1ncn2ncc(=Cc3[nH]c(=O)[nH]c3O)c2n1

>  <smiles>  (169) 
[H]C(c1c([O-])n([H])c(=O)n1[H])=c1c([H])nn2c([H])nc(=[N+]([H])C(C([H])([H])[H])(C([H])([H])[H])C([H])([H])N([H])c3c([H])c([H])c([H])c([H])c3C([H])([H])[H])nc12

$$$$
36:0:1
     RDKit          3D

 52 55  0  0  1  0  0  0  0  0999 V2000
    2.5478   -6.4228    4.3771 C   0  0  0  0  0  0  0  0  0  0  0  0
    1.7287   -6.1955    5.6103 C   0  0  0  0  0  0  0  0  0  0  0  0
    0.5961   -5.3733    5.4766 C   0  0  0  0  0  0  0  0  0  0  0  0
   -0.2310   -5.1239    6.5847 C   0  0  0  0  0  0  0  0  0  0  0  0
    0.0761   -5.7124    7.8256 C   0  0  0  0  0  0  0  0  0  0  0  0
    1.1889   -6.5650    7.9604 C   0  0  0  0  0  0  0  0  0  0  0  0
    2.0316   -6.8262    6.8509 C   0  0  0  0  0  0  0  0  0  0  0  0
    3.1434   -7.6871    6.9516 N   0  0  0  0  0  0  0  0  0  0  0  0
    3.3161   -8.6287    8.0604 C   0  0  0  0  0  0  0  0  0  0  0  0
    3.8686  -10.0347    7.6470 C   0  0  0  0  0  0  0  0  0  0  0  0
    5.3654   -9.9718    7.2787 C   0  0  0  0  0  0  0  0  0  0  0  0
    3.7436  -10.9543    8.8830 C   0  0  0  0  0  0  0  0  0  0  0  0
    3.0776  -10.6593    6.5540 N   0  0  0  0  0  0  0  0  0  0  0  0
    3.0260  -10.4478    5.2770 C   0  0  0  0  0  0  0  0  0  0  0  0
    2.0614  -11.1138    4.5543 N   0  0  0  0  0  0  0  0  0  0  0  0
    2.0011  -10.8671    3.2682 C   0  0  0  0  0  0  0  0  0  0  0  0
    2.8682   -9.9412    2.6796 N   0  0  0  0  0  0  0  0  0  0  0  0
    2.8335   -9.4711    1.4233 N   0  0  0  0  0  0  0  0  0  0  0  0
    3.7676   -8.5906    1.3354 C   0  0  0  0  0  0  0  0  0  0  0  0
    4.4469   -8.3867    2.5855 C   0  0  0  0  0  0  0  0  0  0  0  0
    5.3903   -7.4711    2.8946 C   0  0  0  0  0  0  0  0  0  0  0  0
    6.0944   -6.5529    2.0158 C   0  0  0  0  0  0  0  0  0  0  0  0
    7.4684   -6.4184    1.9840 N   0  0  0  0  0  0  0  0  0  0  0  0
    7.8144   -5.5338    1.0486 C   0  0  0  0  0  0  0  0  0  0  0  0
    8.9469   -5.1831    0.7315 O   0  0  0  0  0  0  0  0  0  0  0  0
    6.6776   -5.0850    0.5024 N   0  0  0  0  0  0  0  0  0  0  0  0
    5.5920   -5.6992    1.0827 C   0  0  0  0  0  0  0  0  0  0  0  0
    4.5341   -5.2771    0.5408 O   0  0  0  0  0  0  0  0  0  0  0  0
    3.8361   -9.3399    3.4533 C   0  0  0  0  0  0  0  0  0  0  0  0
    3.9268   -9.5552    4.7408 N   0  0  0  0  0  0  0  0  0  0  0  0
    8.0988   -6.9419    2.5656 H   0  0  0  0  0  0  0  0  0  0  0  0
    6.5844   -4.4146   -0.2398 H   0  0  0  0  0  0  0  0  0  0  0  0
    2.2059   -5.8876    3.4938 H   0  0  0  0  0  0  0  0  0  0  0  0
    2.3441   -7.4542    4.1882 H   0  0  0  0  0  0  0  0  0  0  0  0
    3.6013   -6.2085    4.5557 H   0  0  0  0  0  0  0  0  0  0  0  0
    0.3743   -4.9353    4.5139 H   0  0  0  0  0  0  0  0  0  0  0  0
   -1.0729   -4.4609    6.4759 H   0  0  0  0  0  0  0  0  0  0  0  0
   -0.5391   -5.5021    8.6795 H   0  0  0  0  0  0  0  0  0  0  0  0
    1.3930   -6.9852    8.9340 H   0  0  0  0  0  0  0  0  0  0  0  0
    3.5885   -7.9828    6.0954 H   0  0  0  0  0  0  0  0  0  0  0  0
    4.0049   -8.1709    8.7719 H   0  0  0  0  0  0  0  0  0  0  0  0
    2.3829   -8.7803    8.5969 H   0  0  0  0  0  0  0  0  0  0  0  0
    5.9724   -9.6519    8.1174 H   0  0  0  0  0  0  0  0  0  0  0  0
    5.5822   -9.2608    6.4877 H   0  0  0  0  0  0  0  0  0  0  0  0
    5.7074  -10.9563    6.9523 H   0  0  0  0  0  0  0  0  0  0  0  0
    4.3170  -10.5814    9.7268 H   0  0  0  0  0  0  0  0  0  0  0  0
    4.1067  -11.9597    8.6692 H   0  0  0  0  0  0  0  0  0  0  0  0
    2.7128  -11.0604    9.2276 H   0  0  0  0  0  0  0  0  0  0  0  0
    1.2990  -11.3647    2.5900 H   0  0  0  0  0  0  0  0  0  0  0  0
    4.0241   -8.0192    0.4494 H   0  0  0  0  0  0  0  0  0  0  0  0
    5.6826   -7.4203    3.9355 H   0  0  0  0  0  0  0  0  0  0  0  0
    2.3521  -11.3367    6.9021 H   0  0  0  0  0  0  0  0  0  0  0  0
  1  2  1  0
  1 33  1  0
  1 34  1  0
  1 35  1  0
  2  7  2  0
  2  3  1  0
  3  4  2  0
  3 36  1  0
  4  5  1  0
  4 37  1  0
  5  6  2  0
  5 38  1  0
  6  7  1  0
  6 39  1  0
  7  8  1  0
  8  9  1  0
  8 40  1  0
  9 10  1  0
  9 41  1  0
  9 42  1  0
 10 11  1  0
 10 12  1  0
 10 13  1  0
 11 43  1  0
 11 44  1  0
 11 45  1  0
 12 46  1  0
 12 47  1  0
 12 48  1  0
 13 14  2  3
 13 52  1  0
 14 30  1  0
 14 15  1  0
 15 16  2  0
 16 17  1  0
 16 49  1  0
 17 29  1  0
 17 18  1  0
 18 19  2  0
 19 20  1  0
 19 50  1  0
 20 21  2  3
 20 29  1  0
 21 22  1  0
 21 51  1  0
 22 27  2  0
 22 23  1  0
 23 31  1  0
 23 24  1  0
 24 25  2  0
 24 26  1  0
 26 32  1  0
 26 27  1  0
 27 28  1  0
 29 30  2  0
M  CHG  2  13   1  28  -1
M  END
>  <i_m_ct_stereo_status>  (170) 
1

>  <s_m_source_file>  (170) 
/var/tmp/pbs.5102103.sched01/tmprp2a6t7u/44c8wyhmqh.sdf

>  <i_m_source_file_index>  (170) 
19

>  <i_lp_mmshare_version>  (170) 
48012

>  <i_f3d_flags>  (170) 
0

>  <s_epik_input>  (170) 
W0NIM11jMVtjSF1bY0hdW2NIXVtjSF1jMVtOSF1bQ0gyXUMoW0NIM10pKFtDSDNdKS9OPWMoL25bY0hdMiluYyhuMjMpYyhcW2NIXW4zKT1bQ0hdXGM0W25IXWMoPU8pW25IXWM0W09IXQ==

>  <s_epik_cmdline>  (170) 
J2VwaWtfcHl0aG9uJywgJy1waHQnLCAnMi4wJywgJy1waCcsICc3LjAnLCAnLXRuJywgJzgnLCAnLW1hJywgJzIwMCcsICctaW1hZScsICc8aW5maWxlLm1hZT4nLCAnLW9tYWUnLCAnPG91dGZpbGUubWFlPic=

>  <r_lp_tautomer_probability>  (170) 
1

>  <r_epik_Ionization_Penalty>  (170) 
0.00378577

>  <r_epik_Ionization_Penalty_Charging>  (170) 
0.000193101

>  <r_epik_Ionization_Penalty_Neutral>  (170) 
0.00359267

>  <r_epik_State_Penalty>  (170) 
-0

>  <r_epik_Charging_Adjusted_Penalty>  (170) 
0.000193101

>  <i_epik_Tot_Q>  (170) 
0

>  <i_epik_Tot_abs_Q>  (170) 
2

>  <s_epik_Chemistry_Notes>  (170) 
This compound has an imine and may undergo hydrolysis.

>  <s_lp_Force_Field>  (170) 
OPLS3e

>  <r_lp_Energy>  (170) 
50.5008

>  <b_lp_Chiralities_Consistent>  (170) 
1

>  <s_lp_Variant>  (170) 
36:0-1

>  <s_i_glide_gridfile>  (170) 
pfpi4k_grid

>  <i_i_glide_lignum>  (170) 
19

>  <i_i_glide_rotatable_bonds>  (170) 
5

>  <r_i_docking_score>  (170) 
-3.23514

>  <r_i_glide_ligand_efficiency>  (170) 
-0.107838

>  <r_i_glide_ligand_efficiency_sa>  (170) 
-0.335078

>  <r_i_glide_ligand_efficiency_ln>  (170) 
-0.73506

>  <r_i_glide_gscore>  (170) 
-3.23514

>  <r_i_glide_lipo>  (170) 
-0.155328

>  <r_i_glide_hbond>  (170) 
-0.20012

>  <r_i_glide_metal>  (170) 
-0

>  <r_i_glide_rewards>  (170) 
-1.38232

>  <r_i_glide_evdw>  (170) 
-22.4873

>  <r_i_glide_ecoul>  (170) 
-4.51029

>  <r_i_glide_erotb>  (170) 
0.476102

>  <r_i_glide_esite>  (170) 
-0.172568

>  <r_i_glide_emodel>  (170) 
-36.214

>  <r_i_glide_energy>  (170) 
-26.9976

>  <r_i_glide_einternal>  (170) 
3.51626

>  <r_i_glide_intrahb_reward>  (170) 
-0.5

>  <i_i_glide_confnum>  (170) 
1

>  <i_i_glide_posenum>  (170) 
1

>  <r_i_glide_eff_state_penalty>  (170) 
0

>  <ligand_id>  (170) 
36

>  <original_smiles>  (170) 
Cc1ccccc1NCC(C)(C)N=c1ncn2ncc(=Cc3[nH]c(=O)[nH]c3O)c2n1

>  <smiles>  (170) 
[H]C(c1c([O-])n([H])c(=O)n1[H])=c1c([H])nn2c([H])nc(=[N+]([H])C(C([H])([H])[H])(C([H])([H])[H])C([H])([H])N([H])c3c([H])c([H])c([H])c([H])c3C([H])([H])[H])nc12

$$$$
36:0:2
     RDKit          3D

 52 55  0  0  1  0  0  0  0  0999 V2000
    0.8575   -9.9224    3.1342 C   0  0  0  0  0  0  0  0  0  0  0  0
    1.9132   -8.9837    2.5742 C   0  0  0  0  0  0  0  0  0  0  0  0
    2.9675   -9.5237    1.8054 C   0  0  0  0  0  0  0  0  0  0  0  0
    3.9710   -8.6955    1.2676 C   0  0  0  0  0  0  0  0  0  0  0  0
    3.9264   -7.3100    1.4993 C   0  0  0  0  0  0  0  0  0  0  0  0
    2.8803   -6.7634    2.2646 C   0  0  0  0  0  0  0  0  0  0  0  0
    1.8630   -7.5868    2.8132 C   0  0  0  0  0  0  0  0  0  0  0  0
    0.8087   -7.0650    3.5863 N   0  0  0  0  0  0  0  0  0  0  0  0
    0.6101   -5.6303    3.7612 C   0  0  0  0  0  0  0  0  0  0  0  0
    1.2325   -5.0160    5.0529 C   0  0  0  0  0  0  0  0  0  0  0  0
    0.5289   -5.6375    6.2897 C   0  0  0  0  0  0  0  0  0  0  0  0
    2.7424   -5.3065    5.1976 C   0  0  0  0  0  0  0  0  0  0  0  0
    0.9946   -3.5347    5.0715 N   0  0  0  0  0  0  0  0  0  0  0  0
    1.4560   -2.6142    4.2676 C   0  0  0  0  0  0  0  0  0  0  0  0
    1.1736   -1.3067    4.6155 N   0  0  0  0  0  0  0  0  0  0  0  0
    1.6476   -0.3711    3.8286 C   0  0  0  0  0  0  0  0  0  0  0  0
    2.4000   -0.7079    2.7138 N   0  0  0  0  0  0  0  0  0  0  0  0
    2.9474    0.1324    1.8398 N   0  0  0  0  0  0  0  0  0  0  0  0
    3.5588   -0.5928    0.9621 C   0  0  0  0  0  0  0  0  0  0  0  0
    3.4374   -1.9928    1.2458 C   0  0  0  0  0  0  0  0  0  0  0  0
    3.9012   -3.0519    0.5545 C   0  0  0  0  0  0  0  0  0  0  0  0
    4.6078   -3.0366   -0.7013 C   0  0  0  0  0  0  0  0  0  0  0  0
    4.1724   -3.6018   -1.8844 N   0  0  0  0  0  0  0  0  0  0  0  0
    5.0939   -3.4343   -2.8374 C   0  0  0  0  0  0  0  0  0  0  0  0
    5.0136   -3.8461   -3.9854 O   0  0  0  0  0  0  0  0  0  0  0  0
    6.1081   -2.7487   -2.2750 N   0  0  0  0  0  0  0  0  0  0  0  0
    5.8325   -2.4960   -0.9542 C   0  0  0  0  0  0  0  0  0  0  0  0
    6.8174   -1.8617   -0.4636 O   0  0  0  0  0  0  0  0  0  0  0  0
    2.6443   -2.0327    2.4253 C   0  0  0  0  0  0  0  0  0  0  0  0
    2.1887   -2.9974    3.1677 N   0  0  0  0  0  0  0  0  0  0  0  0
    3.3119   -4.1227   -1.9857 H   0  0  0  0  0  0  0  0  0  0  0  0
    6.9722   -2.5172   -2.7419 H   0  0  0  0  0  0  0  0  0  0  0  0
    1.0537  -10.9563    2.8491 H   0  0  0  0  0  0  0  0  0  0  0  0
   -0.1317   -9.6618    2.7566 H   0  0  0  0  0  0  0  0  0  0  0  0
    0.8428   -9.8822    4.2243 H   0  0  0  0  0  0  0  0  0  0  0  0
    3.0146  -10.5864    1.6248 H   0  0  0  0  0  0  0  0  0  0  0  0
    4.7634   -9.1234    0.6758 H   0  0  0  0  0  0  0  0  0  0  0  0
    4.6865   -6.6621    1.0935 H   0  0  0  0  0  0  0  0  0  0  0  0
    2.8969   -5.7000    2.4131 H   0  0  0  0  0  0  0  0  0  0  0  0
    0.0176   -7.6740    3.7575 H   0  0  0  0  0  0  0  0  0  0  0  0
    0.9512   -5.1170    2.8675 H   0  0  0  0  0  0  0  0  0  0  0  0
   -0.4642   -5.4628    3.7891 H   0  0  0  0  0  0  0  0  0  0  0  0
    0.7251   -6.7090    6.3530 H   0  0  0  0  0  0  0  0  0  0  0  0
   -0.5558   -5.5220    6.2694 H   0  0  0  0  0  0  0  0  0  0  0  0
    0.8870   -5.2155    7.2315 H   0  0  0  0  0  0  0  0  0  0  0  0
    2.9446   -6.3754    5.1880 H   0  0  0  0  0  0  0  0  0  0  0  0
    3.1434   -4.9003    6.1260 H   0  0  0  0  0  0  0  0  0  0  0  0
    3.3343   -4.8789    4.3949 H   0  0  0  0  0  0  0  0  0  0  0  0
    1.4881    0.6987    3.9968 H   0  0  0  0  0  0  0  0  0  0  0  0
    4.1176   -0.2394    0.0954 H   0  0  0  0  0  0  0  0  0  0  0  0
    3.6730   -4.0273    0.9451 H   0  0  0  0  0  0  0  0  0  0  0  0
    0.5221   -3.1853    5.8937 H   0  0  0  0  0  0  0  0  0  0  0  0
  1  2  1  0
  1 33  1  0
  1 34  1  0
  1 35  1  0
  2  7  2  0
  2  3  1  0
  3  4  2  0
  3 36  1  0
  4  5  1  0
  4 37  1  0
  5  6  2  0
  5 38  1  0
  6  7  1  0
  6 39  1  0
  7  8  1  0
  8  9  1  0
  8 40  1  0
  9 10  1  0
  9 41  1  0
  9 42  1  0
 10 11  1  0
 10 12  1  0
 10 13  1  0
 11 43  1  0
 11 44  1  0
 11 45  1  0
 12 46  1  0
 12 47  1  0
 12 48  1  0
 13 14  2  3
 13 52  1  0
 14 30  1  0
 14 15  1  0
 15 16  2  0
 16 17  1  0
 16 49  1  0
 17 29  1  0
 17 18  1  0
 18 19  2  0
 19 20  1  0
 19 50  1  0
 20 21  2  3
 20 29  1  0
 21 22  1  0
 21 51  1  0
 22 27  2  0
 22 23  1  0
 23 31  1  0
 23 24  1  0
 24 25  2  0
 24 26  1  0
 26 32  1  0
 26 27  1  0
 27 28  1  0
 29 30  2  0
M  CHG  2  13   1  28  -1
M  END
>  <i_m_ct_stereo_status>  (171) 
1

>  <s_m_source_file>  (171) 
/var/tmp/pbs.5102103.sched01/tmprp2a6t7u/44c8wyhmqh.sdf

>  <i_m_source_file_index>  (171) 
19

>  <i_lp_mmshare_version>  (171) 
48012

>  <i_f3d_flags>  (171) 
0

>  <s_epik_input>  (171) 
W0NIM11jMVtjSF1bY0hdW2NIXVtjSF1jMVtOSF1bQ0gyXUMoW0NIM10pKFtDSDNdKS9OPWMoL25bY0hdMiluYyhuMjMpYyhcW2NIXW4zKT1bQ0hdXGM0W25IXWMoPU8pW25IXWM0W09IXQ==

>  <s_epik_cmdline>  (171) 
J2VwaWtfcHl0aG9uJywgJy1waHQnLCAnMi4wJywgJy1waCcsICc3LjAnLCAnLXRuJywgJzgnLCAnLW1hJywgJzIwMCcsICctaW1hZScsICc8aW5maWxlLm1hZT4nLCAnLW9tYWUnLCAnPG91dGZpbGUubWFlPic=

>  <r_lp_tautomer_probability>  (171) 
1

>  <r_epik_Ionization_Penalty>  (171) 
0.00378577

>  <r_epik_Ionization_Penalty_Charging>  (171) 
0.000193101

>  <r_epik_Ionization_Penalty_Neutral>  (171) 
0.00359267

>  <r_epik_State_Penalty>  (171) 
-0

>  <r_epik_Charging_Adjusted_Penalty>  (171) 
0.000193101

>  <i_epik_Tot_Q>  (171) 
0

>  <i_epik_Tot_abs_Q>  (171) 
2

>  <s_epik_Chemistry_Notes>  (171) 
This compound has an imine and may undergo hydrolysis.

>  <s_lp_Force_Field>  (171) 
OPLS3e

>  <r_lp_Energy>  (171) 
50.5008

>  <b_lp_Chiralities_Consistent>  (171) 
1

>  <s_lp_Variant>  (171) 
36:0-1

>  <s_i_glide_gridfile>  (171) 
pfpi4k_grid

>  <i_i_glide_lignum>  (171) 
19

>  <i_i_glide_rotatable_bonds>  (171) 
5

>  <r_i_docking_score>  (171) 
-2.65457

>  <r_i_glide_ligand_efficiency>  (171) 
-0.0884855

>  <r_i_glide_ligand_efficiency_sa>  (171) 
-0.274945

>  <r_i_glide_ligand_efficiency_ln>  (171) 
-0.603146

>  <r_i_glide_gscore>  (171) 
-2.65457

>  <r_i_glide_lipo>  (171) 
-0.147022

>  <r_i_glide_hbond>  (171) 
-0.398687

>  <r_i_glide_metal>  (171) 
-0

>  <r_i_glide_rewards>  (171) 
-0.91669

>  <r_i_glide_evdw>  (171) 
-29.5281

>  <r_i_glide_ecoul>  (171) 
-0.730233

>  <r_i_glide_erotb>  (171) 
0.476102

>  <r_i_glide_esite>  (171) 
-0.0823274

>  <r_i_glide_emodel>  (171) 
-34.3708

>  <r_i_glide_energy>  (171) 
-30.2584

>  <r_i_glide_einternal>  (171) 
5.17536

>  <r_i_glide_intrahb_reward>  (171) 
-0

>  <i_i_glide_confnum>  (171) 
2

>  <i_i_glide_posenum>  (171) 
5

>  <r_i_glide_eff_state_penalty>  (171) 
0

>  <ligand_id>  (171) 
36

>  <original_smiles>  (171) 
Cc1ccccc1NCC(C)(C)N=c1ncn2ncc(=Cc3[nH]c(=O)[nH]c3O)c2n1

>  <smiles>  (171) 
[H]C(c1c([O-])n([H])c(=O)n1[H])=c1c([H])nn2c([H])nc(=[N+]([H])C(C([H])([H])[H])(C([H])([H])[H])C([H])([H])N([H])c3c([H])c([H])c([H])c([H])c3C([H])([H])[H])nc12

$$$$
36:1:0
     RDKit          3D

 52 55  0  0  1  0  0  0  0  0999 V2000
    1.2433  -10.0455    2.5304 C   0  0  0  0  0  0  0  0  0  0  0  0
    0.6084   -8.8487    3.2251 C   0  0  0  0  0  0  0  0  0  0  0  0
   -0.8034   -8.7416    3.1980 C   0  0  0  0  0  0  0  0  0  0  0  0
   -1.4507   -7.6631    3.8245 C   0  0  0  0  0  0  0  0  0  0  0  0
   -0.6780   -6.7035    4.4973 C   0  0  0  0  0  0  0  0  0  0  0  0
    0.7243   -6.7881    4.5212 C   0  0  0  0  0  0  0  0  0  0  0  0
    1.3983   -7.8581    3.8767 C   0  0  0  0  0  0  0  0  0  0  0  0
    2.8083   -7.9681    3.8479 N   0  0  0  0  0  0  0  0  0  0  0  0
    3.6922   -7.1647    4.7130 C   0  0  0  0  0  0  0  0  0  0  0  0
    5.0292   -6.7658    4.0702 C   0  0  0  0  0  0  0  0  0  0  0  0
    5.8736   -6.0267    5.1564 C   0  0  0  0  0  0  0  0  0  0  0  0
    5.8225   -8.0184    3.6972 C   0  0  0  0  0  0  0  0  0  0  0  0
    4.7629   -6.0014    2.7955 N   0  0  0  0  0  0  0  0  0  0  0  0
    4.7212   -4.7277    2.5497 C   0  0  0  0  0  0  0  0  0  0  0  0
    4.9275   -3.8357    3.5772 N   0  0  0  0  0  0  0  0  0  0  0  0
    4.9556   -2.5677    3.2581 C   0  0  0  0  0  0  0  0  0  0  0  0
    4.7461   -2.1631    1.9612 N   0  0  0  0  0  0  0  0  0  0  0  0
    4.6752   -0.8863    1.5687 N   0  0  0  0  0  0  0  0  0  0  0  0
    4.3893   -0.9599    0.3260 C   0  0  0  0  0  0  0  0  0  0  0  0
    4.2897   -2.3090   -0.1615 C   0  0  0  0  0  0  0  0  0  0  0  0
    4.0369   -2.7185   -1.4036 C   0  0  0  0  0  0  0  0  0  0  0  0
    3.8748   -1.8737   -2.5504 C   0  0  0  0  0  0  0  0  0  0  0  0
    4.2039   -0.5341   -2.7341 N   0  0  0  0  0  0  0  0  0  0  0  0
    3.8275   -0.2101   -3.9838 C   0  0  0  0  0  0  0  0  0  0  0  0
    3.8185    0.8937   -4.5361 O   0  0  0  0  0  0  0  0  0  0  0  0
    3.4540   -1.3342   -4.5823 N   0  0  0  0  0  0  0  0  0  0  0  0
    3.4174   -2.3702   -3.7259 C   0  0  0  0  0  0  0  0  0  0  0  0
    3.0087   -3.4043   -4.2965 O   0  0  0  0  0  0  0  0  0  0  0  0
    4.5029   -3.1030    0.9805 C   0  0  0  0  0  0  0  0  0  0  0  0
    4.4927   -4.3867    1.2304 N   0  0  0  0  0  0  0  0  0  0  0  0
    4.4390    0.1436   -2.0054 H   0  0  0  0  0  0  0  0  0  0  0  0
    3.0084   -1.4083   -5.4672 H   0  0  0  0  0  0  0  0  0  0  0  0
    0.4824  -10.6911    2.0907 H   0  0  0  0  0  0  0  0  0  0  0  0
    1.8184  -10.6572    3.2307 H   0  0  0  0  0  0  0  0  0  0  0  0
    1.8952   -9.7236    1.7157 H   0  0  0  0  0  0  0  0  0  0  0  0
   -1.4076   -9.4955    2.7071 H   0  0  0  0  0  0  0  0  0  0  0  0
   -2.5293   -7.5816    3.8184 H   0  0  0  0  0  0  0  0  0  0  0  0
   -1.1471   -5.8882    5.0197 H   0  0  0  0  0  0  0  0  0  0  0  0
    1.2332   -5.9982    5.0534 H   0  0  0  0  0  0  0  0  0  0  0  0
    3.1718   -8.8866    3.6135 H   0  0  0  0  0  0  0  0  0  0  0  0
    3.2635   -6.2230    5.0571 H   0  0  0  0  0  0  0  0  0  0  0  0
    3.8982   -7.7623    5.5977 H   0  0  0  0  0  0  0  0  0  0  0  0
    6.1756   -6.6961    5.9819 H   0  0  0  0  0  0  0  0  0  0  0  0
    5.3132   -5.2315    5.6505 H   0  0  0  0  0  0  0  0  0  0  0  0
    6.7817   -5.6197    4.7046 H   0  0  0  0  0  0  0  0  0  0  0  0
    6.0030   -8.6122    4.5885 H   0  0  0  0  0  0  0  0  0  0  0  0
    6.7939   -7.7706    3.2658 H   0  0  0  0  0  0  0  0  0  0  0  0
    5.2951   -8.6572    2.9894 H   0  0  0  0  0  0  0  0  0  0  0  0
    5.1596   -1.7332    3.9255 H   0  0  0  0  0  0  0  0  0  0  0  0
    4.2313   -0.1001   -0.3080 H   0  0  0  0  0  0  0  0  0  0  0  0
    3.9802   -3.7846   -1.5738 H   0  0  0  0  0  0  0  0  0  0  0  0
    4.5391   -6.5729    1.9792 H   0  0  0  0  0  0  0  0  0  0  0  0
  1  2  1  0
  1 33  1  0
  1 34  1  0
  1 35  1  0
  2  7  2  0
  2  3  1  0
  3  4  2  0
  3 36  1  0
  4  5  1  0
  4 37  1  0
  5  6  2  0
  5 38  1  0
  6  7  1  0
  6 39  1  0
  7  8  1  0
  8  9  1  0
  8 40  1  0
  9 10  1  0
  9 41  1  0
  9 42  1  0
 10 11  1  0
 10 12  1  0
 10 13  1  0
 11 43  1  0
 11 44  1  0
 11 45  1  0
 12 46  1  0
 12 47  1  0
 12 48  1  0
 13 14  2  3
 13 52  1  0
 14 30  1  0
 14 15  1  0
 15 16  2  0
 16 17  1  0
 16 49  1  0
 17 29  1  0
 17 18  1  0
 18 19  2  0
 19 20  1  0
 19 50  1  0
 20 21  2  3
 20 29  1  0
 21 22  1  0
 21 51  1  0
 22 27  2  0
 22 23  1  0
 23 31  1  0
 23 24  1  0
 24 25  2  0
 24 26  1  0
 26 32  1  0
 26 27  1  0
 27 28  1  0
 29 30  2  0
M  CHG  2  13   1  28  -1
M  END
>  <i_m_ct_stereo_status>  (172) 
1

>  <s_m_source_file>  (172) 
/var/tmp/pbs.5102103.sched01/tmprp2a6t7u/44c8wyhmqh.sdf

>  <i_m_source_file_index>  (172) 
20

>  <i_lp_mmshare_version>  (172) 
48012

>  <i_f3d_flags>  (172) 
0

>  <s_epik_input>  (172) 
W0NIM11jMVtjSF1bY0hdW2NIXVtjSF1jMVtOSF1bQ0gyXUMoW0NIM10pKFtDSDNdKS9OPWMoL25bY0hdMiluYyhuMjMpYyhcW2NIXW4zKT1bQ0hdXGM0W25IXWMoPU8pW25IXWM0W09IXQ==

>  <s_epik_cmdline>  (172) 
J2VwaWtfcHl0aG9uJywgJy1waHQnLCAnMi4wJywgJy1waCcsICc3LjAnLCAnLXRuJywgJzgnLCAnLW1hJywgJzIwMCcsICctaW1hZScsICc8aW5maWxlLm1hZT4nLCAnLW9tYWUnLCAnPG91dGZpbGUubWFlPic=

>  <r_lp_tautomer_probability>  (172) 
1

>  <r_epik_Ionization_Penalty>  (172) 
0.00378577

>  <r_epik_Ionization_Penalty_Charging>  (172) 
0.000193101

>  <r_epik_Ionization_Penalty_Neutral>  (172) 
0.00359267

>  <r_epik_State_Penalty>  (172) 
-0

>  <r_epik_Charging_Adjusted_Penalty>  (172) 
0.000193101

>  <i_epik_Tot_Q>  (172) 
0

>  <i_epik_Tot_abs_Q>  (172) 
2

>  <s_epik_Chemistry_Notes>  (172) 
This compound has an imine and may undergo hydrolysis.

>  <s_lp_Force_Field>  (172) 
OPLS3e

>  <r_lp_Energy>  (172) 
51.32

>  <b_lp_Chiralities_Consistent>  (172) 
1

>  <s_lp_Variant>  (172) 
36:0-2

>  <s_i_glide_gridfile>  (172) 
pfpi4k_grid

>  <i_i_glide_lignum>  (172) 
20

>  <i_i_glide_rotatable_bonds>  (172) 
5

>  <r_i_docking_score>  (172) 
-4.23299

>  <r_i_glide_ligand_efficiency>  (172) 
-0.1411

>  <r_i_glide_ligand_efficiency_sa>  (172) 
-0.43843

>  <r_i_glide_ligand_efficiency_ln>  (172) 
-0.961782

>  <r_i_glide_gscore>  (172) 
-4.23299

>  <r_i_glide_lipo>  (172) 
-0.357557

>  <r_i_glide_hbond>  (172) 
-0.434245

>  <r_i_glide_metal>  (172) 
-0

>  <r_i_glide_rewards>  (172) 
-1.64552

>  <r_i_glide_evdw>  (172) 
-32.2597

>  <r_i_glide_ecoul>  (172) 
-3.04495

>  <r_i_glide_erotb>  (172) 
0.333271

>  <r_i_glide_esite>  (172) 
-0.0592179

>  <r_i_glide_emodel>  (172) 
-45.3553

>  <r_i_glide_energy>  (172) 
-35.3046

>  <r_i_glide_einternal>  (172) 
1.65356

>  <r_i_glide_intrahb_reward>  (172) 
-0

>  <i_i_glide_confnum>  (172) 
1

>  <i_i_glide_posenum>  (172) 
4

>  <r_i_glide_eff_state_penalty>  (172) 
0

>  <ligand_id>  (172) 
36

>  <original_smiles>  (172) 
Cc1ccccc1NCC(C)(C)N=c1ncn2ncc(=Cc3[nH]c(=O)[nH]c3O)c2n1

>  <smiles>  (172) 
[H]C(c1c([O-])n([H])c(=O)n1[H])=c1c([H])nn2c([H])nc(=[N+]([H])C(C([H])([H])[H])(C([H])([H])[H])C([H])([H])N([H])c3c([H])c([H])c([H])c([H])c3C([H])([H])[H])nc12

$$$$
36:1:1
     RDKit          3D

 52 55  0  0  1  0  0  0  0  0999 V2000
    0.1423  -10.3187    2.9282 C   0  0  0  0  0  0  0  0  0  0  0  0
    0.4950   -9.1120    3.7833 C   0  0  0  0  0  0  0  0  0  0  0  0
   -0.4772   -8.1037    3.9584 C   0  0  0  0  0  0  0  0  0  0  0  0
   -0.1980   -6.9702    4.7408 C   0  0  0  0  0  0  0  0  0  0  0  0
    1.0581   -6.8479    5.3546 C   0  0  0  0  0  0  0  0  0  0  0  0
    2.0354   -7.8402    5.1776 C   0  0  0  0  0  0  0  0  0  0  0  0
    1.7731   -8.9855    4.3877 C   0  0  0  0  0  0  0  0  0  0  0  0
    2.7382   -9.9916    4.1718 N   0  0  0  0  0  0  0  0  0  0  0  0
    4.0220  -10.0231    4.8825 C   0  0  0  0  0  0  0  0  0  0  0  0
    5.2743   -9.8326    3.9863 C   0  0  0  0  0  0  0  0  0  0  0  0
    6.4922   -9.6860    4.9434 C   0  0  0  0  0  0  0  0  0  0  0  0
    5.4802  -11.0875    3.1273 C   0  0  0  0  0  0  0  0  0  0  0  0
    5.0652   -8.6706    3.0523 N   0  0  0  0  0  0  0  0  0  0  0  0
    5.9132   -7.7899    2.5793 C   0  0  0  0  0  0  0  0  0  0  0  0
    7.2345   -7.8290    2.9640 N   0  0  0  0  0  0  0  0  0  0  0  0
    8.0407   -6.8997    2.5295 C   0  0  0  0  0  0  0  0  0  0  0  0
    7.5772   -5.9151    1.6739 N   0  0  0  0  0  0  0  0  0  0  0  0
    8.2985   -4.9126    1.1565 N   0  0  0  0  0  0  0  0  0  0  0  0
    7.4852   -4.2513    0.4067 C   0  0  0  0  0  0  0  0  0  0  0  0
    6.1575   -4.8207    0.4099 C   0  0  0  0  0  0  0  0  0  0  0  0
    5.0688   -4.4346   -0.2738 C   0  0  0  0  0  0  0  0  0  0  0  0
    4.9511   -3.3669   -1.2465 C   0  0  0  0  0  0  0  0  0  0  0  0
    4.3290   -3.4730   -2.4691 N   0  0  0  0  0  0  0  0  0  0  0  0
    4.3882   -2.3076   -3.1129 C   0  0  0  0  0  0  0  0  0  0  0  0
    3.9642   -2.0578   -4.2359 O   0  0  0  0  0  0  0  0  0  0  0  0
    5.0217   -1.4603   -2.2937 N   0  0  0  0  0  0  0  0  0  0  0  0
    5.3850   -2.0884   -1.1458 C   0  0  0  0  0  0  0  0  0  0  0  0
    5.9997   -1.3031   -0.3716 O   0  0  0  0  0  0  0  0  0  0  0  0
    6.2542   -5.9397    1.2890 C   0  0  0  0  0  0  0  0  0  0  0  0
    5.4119   -6.8415    1.7224 N   0  0  0  0  0  0  0  0  0  0  0  0
    3.8963   -4.3273   -2.7901 H   0  0  0  0  0  0  0  0  0  0  0  0
    5.2124   -0.4925   -2.4609 H   0  0  0  0  0  0  0  0  0  0  0  0
   -0.8756  -10.2546    2.5409 H   0  0  0  0  0  0  0  0  0  0  0  0
    0.2166  -11.2418    3.5056 H   0  0  0  0  0  0  0  0  0  0  0  0
    0.8159  -10.3894    2.0745 H   0  0  0  0  0  0  0  0  0  0  0  0
   -1.4453   -8.1971    3.4896 H   0  0  0  0  0  0  0  0  0  0  0  0
   -0.9392   -6.2002    4.8761 H   0  0  0  0  0  0  0  0  0  0  0  0
    1.2853   -5.9903    5.9634 H   0  0  0  0  0  0  0  0  0  0  0  0
    2.9807   -7.6820    5.6674 H   0  0  0  0  0  0  0  0  0  0  0  0
    2.3825  -10.9039    3.9046 H   0  0  0  0  0  0  0  0  0  0  0  0
    4.0516   -9.3222    5.7123 H   0  0  0  0  0  0  0  0  0  0  0  0
    4.0935  -10.9918    5.3719 H   0  0  0  0  0  0  0  0  0  0  0  0
    6.5599  -10.5264    5.6442 H   0  0  0  0  0  0  0  0  0  0  0  0
    6.4005   -8.7726    5.5306 H   0  0  0  0  0  0  0  0  0  0  0  0
    7.4475   -9.6624    4.4155 H   0  0  0  0  0  0  0  0  0  0  0  0
    5.6110  -11.9607    3.7614 H   0  0  0  0  0  0  0  0  0  0  0  0
    6.3622  -11.0059    2.4892 H   0  0  0  0  0  0  0  0  0  0  0  0
    4.6223  -11.2874    2.4821 H   0  0  0  0  0  0  0  0  0  0  0  0
    9.0860   -6.8303    2.8096 H   0  0  0  0  0  0  0  0  0  0  0  0
    7.7491   -3.3622   -0.1734 H   0  0  0  0  0  0  0  0  0  0  0  0
    4.1869   -5.0374   -0.1303 H   0  0  0  0  0  0  0  0  0  0  0  0
    4.1085   -8.5800    2.6981 H   0  0  0  0  0  0  0  0  0  0  0  0
  1  2  1  0
  1 33  1  0
  1 34  1  0
  1 35  1  0
  2  7  2  0
  2  3  1  0
  3  4  2  0
  3 36  1  0
  4  5  1  0
  4 37  1  0
  5  6  2  0
  5 38  1  0
  6  7  1  0
  6 39  1  0
  7  8  1  0
  8  9  1  0
  8 40  1  0
  9 10  1  0
  9 41  1  0
  9 42  1  0
 10 11  1  0
 10 12  1  0
 10 13  1  0
 11 43  1  0
 11 44  1  0
 11 45  1  0
 12 46  1  0
 12 47  1  0
 12 48  1  0
 13 14  2  3
 13 52  1  0
 14 30  1  0
 14 15  1  0
 15 16  2  0
 16 17  1  0
 16 49  1  0
 17 29  1  0
 17 18  1  0
 18 19  2  0
 19 20  1  0
 19 50  1  0
 20 21  2  3
 20 29  1  0
 21 22  1  0
 21 51  1  0
 22 27  2  0
 22 23  1  0
 23 31  1  0
 23 24  1  0
 24 25  2  0
 24 26  1  0
 26 32  1  0
 26 27  1  0
 27 28  1  0
 29 30  2  0
M  CHG  2  13   1  28  -1
M  END
>  <i_m_ct_stereo_status>  (173) 
1

>  <s_m_source_file>  (173) 
/var/tmp/pbs.5102103.sched01/tmprp2a6t7u/44c8wyhmqh.sdf

>  <i_m_source_file_index>  (173) 
20

>  <i_lp_mmshare_version>  (173) 
48012

>  <i_f3d_flags>  (173) 
0

>  <s_epik_input>  (173) 
W0NIM11jMVtjSF1bY0hdW2NIXVtjSF1jMVtOSF1bQ0gyXUMoW0NIM10pKFtDSDNdKS9OPWMoL25bY0hdMiluYyhuMjMpYyhcW2NIXW4zKT1bQ0hdXGM0W25IXWMoPU8pW25IXWM0W09IXQ==

>  <s_epik_cmdline>  (173) 
J2VwaWtfcHl0aG9uJywgJy1waHQnLCAnMi4wJywgJy1waCcsICc3LjAnLCAnLXRuJywgJzgnLCAnLW1hJywgJzIwMCcsICctaW1hZScsICc8aW5maWxlLm1hZT4nLCAnLW9tYWUnLCAnPG91dGZpbGUubWFlPic=

>  <r_lp_tautomer_probability>  (173) 
1

>  <r_epik_Ionization_Penalty>  (173) 
0.00378577

>  <r_epik_Ionization_Penalty_Charging>  (173) 
0.000193101

>  <r_epik_Ionization_Penalty_Neutral>  (173) 
0.00359267

>  <r_epik_State_Penalty>  (173) 
-0

>  <r_epik_Charging_Adjusted_Penalty>  (173) 
0.000193101

>  <i_epik_Tot_Q>  (173) 
0

>  <i_epik_Tot_abs_Q>  (173) 
2

>  <s_epik_Chemistry_Notes>  (173) 
This compound has an imine and may undergo hydrolysis.

>  <s_lp_Force_Field>  (173) 
OPLS3e

>  <r_lp_Energy>  (173) 
51.32

>  <b_lp_Chiralities_Consistent>  (173) 
1

>  <s_lp_Variant>  (173) 
36:0-2

>  <s_i_glide_gridfile>  (173) 
pfpi4k_grid

>  <i_i_glide_lignum>  (173) 
20

>  <i_i_glide_rotatable_bonds>  (173) 
5

>  <r_i_docking_score>  (173) 
-3.79715

>  <r_i_glide_ligand_efficiency>  (173) 
-0.126572

>  <r_i_glide_ligand_efficiency_sa>  (173) 
-0.393288

>  <r_i_glide_ligand_efficiency_ln>  (173) 
-0.862754

>  <r_i_glide_gscore>  (173) 
-3.79715

>  <r_i_glide_lipo>  (173) 
-0.440208

>  <r_i_glide_hbond>  (173) 
-0.647622

>  <r_i_glide_metal>  (173) 
-0

>  <r_i_glide_rewards>  (173) 
-0.996033

>  <r_i_glide_evdw>  (173) 
-31.9036

>  <r_i_glide_ecoul>  (173) 
-3.28414

>  <r_i_glide_erotb>  (173) 
0.476102

>  <r_i_glide_esite>  (173) 
-0.101588

>  <r_i_glide_emodel>  (173) 
-42.2872

>  <r_i_glide_energy>  (173) 
-35.1877

>  <r_i_glide_einternal>  (173) 
4.69598

>  <r_i_glide_intrahb_reward>  (173) 
-0

>  <i_i_glide_confnum>  (173) 
1

>  <i_i_glide_posenum>  (173) 
10

>  <r_i_glide_eff_state_penalty>  (173) 
0

>  <ligand_id>  (173) 
36

>  <original_smiles>  (173) 
Cc1ccccc1NCC(C)(C)N=c1ncn2ncc(=Cc3[nH]c(=O)[nH]c3O)c2n1

>  <smiles>  (173) 
[H]C(c1c([O-])n([H])c(=O)n1[H])=c1c([H])nn2c([H])nc(=[N+]([H])C(C([H])([H])[H])(C([H])([H])[H])C([H])([H])N([H])c3c([H])c([H])c([H])c([H])c3C([H])([H])[H])nc12

$$$$
36:1:2
     RDKit          3D

 52 55  0  0  1  0  0  0  0  0999 V2000
    0.5203  -10.8181    2.5831 C   0  0  0  0  0  0  0  0  0  0  0  0
    0.0026   -9.5336    3.2038 C   0  0  0  0  0  0  0  0  0  0  0  0
   -1.2418   -9.0277    2.7605 C   0  0  0  0  0  0  0  0  0  0  0  0
   -1.7658   -7.8432    3.3072 C   0  0  0  0  0  0  0  0  0  0  0  0
   -1.0437   -7.1587    4.2987 C   0  0  0  0  0  0  0  0  0  0  0  0
    0.1957   -7.6503    4.7392 C   0  0  0  0  0  0  0  0  0  0  0  0
    0.7423   -8.8442    4.2025 C   0  0  0  0  0  0  0  0  0  0  0  0
    1.9828   -9.3644    4.6171 N   0  0  0  0  0  0  0  0  0  0  0  0
    2.7422   -8.8147    5.7454 C   0  0  0  0  0  0  0  0  0  0  0  0
    4.2170   -8.4711    5.4013 C   0  0  0  0  0  0  0  0  0  0  0  0
    4.8906   -7.8182    6.6302 C   0  0  0  0  0  0  0  0  0  0  0  0
    4.9733   -9.7780    5.0937 C   0  0  0  0  0  0  0  0  0  0  0  0
    4.3408   -7.5821    4.2066 N   0  0  0  0  0  0  0  0  0  0  0  0
    3.8740   -6.3869    3.9874 C   0  0  0  0  0  0  0  0  0  0  0  0
    3.1411   -5.7453    4.9636 N   0  0  0  0  0  0  0  0  0  0  0  0
    2.6915   -4.5509    4.6764 C   0  0  0  0  0  0  0  0  0  0  0  0
    2.9491   -3.9840    3.4370 N   0  0  0  0  0  0  0  0  0  0  0  0
    2.5208   -2.7956    3.0090 N   0  0  0  0  0  0  0  0  0  0  0  0
    2.9787   -2.6493    1.8103 C   0  0  0  0  0  0  0  0  0  0  0  0
    3.7557   -3.7851    1.3932 C   0  0  0  0  0  0  0  0  0  0  0  0
    4.3860   -4.0076    0.2232 C   0  0  0  0  0  0  0  0  0  0  0  0
    4.4544   -3.1411   -0.9346 C   0  0  0  0  0  0  0  0  0  0  0  0
    4.1135   -3.4803   -2.2289 N   0  0  0  0  0  0  0  0  0  0  0  0
    4.3625   -2.4540   -3.0531 C   0  0  0  0  0  0  0  0  0  0  0  0
    4.1824   -2.4259   -4.2666 O   0  0  0  0  0  0  0  0  0  0  0  0
    4.8646   -1.4684   -2.2915 N   0  0  0  0  0  0  0  0  0  0  0  0
    4.9266   -1.8643   -0.9760 C   0  0  0  0  0  0  0  0  0  0  0  0
    5.4281   -0.9331   -0.2932 O   0  0  0  0  0  0  0  0  0  0  0  0
    3.7017   -4.6732    2.5064 C   0  0  0  0  0  0  0  0  0  0  0  0
    4.1746   -5.8674    2.7450 N   0  0  0  0  0  0  0  0  0  0  0  0
    3.7585   -4.3979   -2.4816 H   0  0  0  0  0  0  0  0  0  0  0  0
    5.1080   -0.5464   -2.6118 H   0  0  0  0  0  0  0  0  0  0  0  0
   -0.1797  -11.2052    1.8383 H   0  0  0  0  0  0  0  0  0  0  0  0
    0.6604  -11.5912    3.3417 H   0  0  0  0  0  0  0  0  0  0  0  0
    1.4731  -10.6372    2.0870 H   0  0  0  0  0  0  0  0  0  0  0  0
   -1.8055   -9.5511    2.0024 H   0  0  0  0  0  0  0  0  0  0  0  0
   -2.7177   -7.4643    2.9776 H   0  0  0  0  0  0  0  0  0  0  0  0
   -1.4333   -6.2582    4.7437 H   0  0  0  0  0  0  0  0  0  0  0  0
    0.6753   -7.0665    5.5019 H   0  0  0  0  0  0  0  0  0  0  0  0
    2.1496  -10.3424    4.4128 H   0  0  0  0  0  0  0  0  0  0  0  0
    2.3001   -7.9277    6.1780 H   0  0  0  0  0  0  0  0  0  0  0  0
    2.7006   -9.5482    6.5516 H   0  0  0  0  0  0  0  0  0  0  0  0
    4.8939   -8.4914    7.4887 H   0  0  0  0  0  0  0  0  0  0  0  0
    4.3816   -6.9095    6.9521 H   0  0  0  0  0  0  0  0  0  0  0  0
    5.9279   -7.5517    6.4166 H   0  0  0  0  0  0  0  0  0  0  0  0
    4.9145  -10.4798    5.9263 H   0  0  0  0  0  0  0  0  0  0  0  0
    6.0322   -9.5955    4.9014 H   0  0  0  0  0  0  0  0  0  0  0  0
    4.5677  -10.2882    4.2187 H   0  0  0  0  0  0  0  0  0  0  0  0
    2.1063   -3.9510    5.3776 H   0  0  0  0  0  0  0  0  0  0  0  0
    2.8184   -1.7938    1.1541 H   0  0  0  0  0  0  0  0  0  0  0  0
    4.8969   -4.9486    0.1230 H   0  0  0  0  0  0  0  0  0  0  0  0
    4.8465   -7.9992    3.4305 H   0  0  0  0  0  0  0  0  0  0  0  0
  1  2  1  0
  1 33  1  0
  1 34  1  0
  1 35  1  0
  2  7  2  0
  2  3  1  0
  3  4  2  0
  3 36  1  0
  4  5  1  0
  4 37  1  0
  5  6  2  0
  5 38  1  0
  6  7  1  0
  6 39  1  0
  7  8  1  0
  8  9  1  0
  8 40  1  0
  9 10  1  0
  9 41  1  0
  9 42  1  0
 10 11  1  0
 10 12  1  0
 10 13  1  0
 11 43  1  0
 11 44  1  0
 11 45  1  0
 12 46  1  0
 12 47  1  0
 12 48  1  0
 13 14  2  3
 13 52  1  0
 14 30  1  0
 14 15  1  0
 15 16  2  0
 16 17  1  0
 16 49  1  0
 17 29  1  0
 17 18  1  0
 18 19  2  0
 19 20  1  0
 19 50  1  0
 20 21  2  3
 20 29  1  0
 21 22  1  0
 21 51  1  0
 22 27  2  0
 22 23  1  0
 23 31  1  0
 23 24  1  0
 24 25  2  0
 24 26  1  0
 26 32  1  0
 26 27  1  0
 27 28  1  0
 29 30  2  0
M  CHG  2  13   1  28  -1
M  END
>  <i_m_ct_stereo_status>  (174) 
1

>  <s_m_source_file>  (174) 
/var/tmp/pbs.5102103.sched01/tmprp2a6t7u/44c8wyhmqh.sdf

>  <i_m_source_file_index>  (174) 
20

>  <i_lp_mmshare_version>  (174) 
48012

>  <i_f3d_flags>  (174) 
0

>  <s_epik_input>  (174) 
W0NIM11jMVtjSF1bY0hdW2NIXVtjSF1jMVtOSF1bQ0gyXUMoW0NIM10pKFtDSDNdKS9OPWMoL25bY0hdMiluYyhuMjMpYyhcW2NIXW4zKT1bQ0hdXGM0W25IXWMoPU8pW25IXWM0W09IXQ==

>  <s_epik_cmdline>  (174) 
J2VwaWtfcHl0aG9uJywgJy1waHQnLCAnMi4wJywgJy1waCcsICc3LjAnLCAnLXRuJywgJzgnLCAnLW1hJywgJzIwMCcsICctaW1hZScsICc8aW5maWxlLm1hZT4nLCAnLW9tYWUnLCAnPG91dGZpbGUubWFlPic=

>  <r_lp_tautomer_probability>  (174) 
1

>  <r_epik_Ionization_Penalty>  (174) 
0.00378577

>  <r_epik_Ionization_Penalty_Charging>  (174) 
0.000193101

>  <r_epik_Ionization_Penalty_Neutral>  (174) 
0.00359267

>  <r_epik_State_Penalty>  (174) 
-0

>  <r_epik_Charging_Adjusted_Penalty>  (174) 
0.000193101

>  <i_epik_Tot_Q>  (174) 
0

>  <i_epik_Tot_abs_Q>  (174) 
2

>  <s_epik_Chemistry_Notes>  (174) 
This compound has an imine and may undergo hydrolysis.

>  <s_lp_Force_Field>  (174) 
OPLS3e

>  <r_lp_Energy>  (174) 
51.32

>  <b_lp_Chiralities_Consistent>  (174) 
1

>  <s_lp_Variant>  (174) 
36:0-2

>  <s_i_glide_gridfile>  (174) 
pfpi4k_grid

>  <i_i_glide_lignum>  (174) 
20

>  <i_i_glide_rotatable_bonds>  (174) 
5

>  <r_i_docking_score>  (174) 
-3.43034

>  <r_i_glide_ligand_efficiency>  (174) 
-0.114345

>  <r_i_glide_ligand_efficiency_sa>  (174) 
-0.355296

>  <r_i_glide_ligand_efficiency_ln>  (174) 
-0.779411

>  <r_i_glide_gscore>  (174) 
-3.43034

>  <r_i_glide_lipo>  (174) 
-0.159108

>  <r_i_glide_hbond>  (174) 
-0.608

>  <r_i_glide_metal>  (174) 
-0

>  <r_i_glide_rewards>  (174) 
-0.813016

>  <r_i_glide_evdw>  (174) 
-28.6196

>  <r_i_glide_ecoul>  (174) 
-5.36959

>  <r_i_glide_erotb>  (174) 
0.476102

>  <r_i_glide_esite>  (174) 
-0.0898997

>  <r_i_glide_emodel>  (174) 
-41.0726

>  <r_i_glide_energy>  (174) 
-33.9892

>  <r_i_glide_einternal>  (174) 
3.63602

>  <r_i_glide_intrahb_reward>  (174) 
-0

>  <i_i_glide_confnum>  (174) 
1

>  <i_i_glide_posenum>  (174) 
19

>  <r_i_glide_eff_state_penalty>  (174) 
0

>  <ligand_id>  (174) 
36

>  <original_smiles>  (174) 
Cc1ccccc1NCC(C)(C)N=c1ncn2ncc(=Cc3[nH]c(=O)[nH]c3O)c2n1

>  <smiles>  (174) 
[H]C(c1c([O-])n([H])c(=O)n1[H])=c1c([H])nn2c([H])nc(=[N+]([H])C(C([H])([H])[H])(C([H])([H])[H])C([H])([H])N([H])c3c([H])c([H])c([H])c([H])c3C([H])([H])[H])nc12

$$$$
36:2:0
     RDKit          3D

 52 55  0  0  1  0  0  0  0  0999 V2000
    4.3066   -0.5810    0.2190 C   0  0  0  0  0  0  0  0  0  0  0  0
    4.3050   -1.3692   -1.0918 C   0  0  0  0  0  0  0  0  0  0  0  0
    4.2436   -0.6603   -2.3144 C   0  0  0  0  0  0  0  0  0  0  0  0
    4.2042   -1.3498   -3.5382 C   0  0  0  0  0  0  0  0  0  0  0  0
    4.2804   -2.7436   -3.5439 C   0  0  0  0  0  0  0  0  0  0  0  0
    4.3818   -3.4489   -2.3362 C   0  0  0  0  0  0  0  0  0  0  0  0
    4.3804   -2.7819   -1.0890 C   0  0  0  0  0  0  0  0  0  0  0  0
    4.4597   -3.4800    0.1343 N   0  0  0  0  0  0  0  0  0  0  0  0
    4.2366   -4.9225    0.2442 C   0  0  0  0  0  0  0  0  0  0  0  0
    4.9355   -5.5930    1.4681 C   0  0  0  0  0  0  0  0  0  0  0  0
    6.4567   -5.3981    1.3816 C   0  0  0  0  0  0  0  0  0  0  0  0
    4.4935   -4.9333    2.7892 C   0  0  0  0  0  0  0  0  0  0  0  0
    4.6706   -7.0794    1.4208 N   0  0  0  0  0  0  0  0  0  0  0  0
    3.7348   -7.8118    1.9672 C   0  0  0  0  0  0  0  0  0  0  0  0
    3.8476   -9.1696    1.7430 N   0  0  0  0  0  0  0  0  0  0  0  0
    2.9444   -9.9677    2.3009 C   0  0  0  0  0  0  0  0  0  0  0  0
    1.9387   -9.4201    3.0842 N   0  0  0  0  0  0  0  0  0  0  0  0
    0.9687  -10.1116    3.7082 N   0  0  0  0  0  0  0  0  0  0  0  0
    0.2658   -9.2232    4.3208 C   0  0  0  0  0  0  0  0  0  0  0  0
    0.7385   -7.8526    4.1303 C   0  0  0  0  0  0  0  0  0  0  0  0
    0.1635   -6.7743    4.7334 C   0  0  0  0  0  0  0  0  0  0  0  0
    0.5391   -5.3724    4.6129 C   0  0  0  0  0  0  0  0  0  0  0  0
    1.2998   -4.7856    3.6394 N   0  0  0  0  0  0  0  0  0  0  0  0
    1.4320   -3.4811    3.8716 C   0  0  0  0  0  0  0  0  0  0  0  0
    2.1303   -2.6716    3.2667 O   0  0  0  0  0  0  0  0  0  0  0  0
    0.6826   -3.2149    4.9303 N   0  0  0  0  0  0  0  0  0  0  0  0
    0.1357   -4.3492    5.4384 C   0  0  0  0  0  0  0  0  0  0  0  0
   -0.5535   -4.0941    6.4540 O   0  0  0  0  0  0  0  0  0  0  0  0
    1.8745   -8.0348    3.2776 C   0  0  0  0  0  0  0  0  0  0  0  0
    2.7461   -7.2258    2.7199 N   0  0  0  0  0  0  0  0  0  0  0  0
    1.8213   -5.2856    2.9116 H   0  0  0  0  0  0  0  0  0  0  0  0
    0.5989   -2.3373    5.4190 H   0  0  0  0  0  0  0  0  0  0  0  0
    4.2117    0.4931    0.0636 H   0  0  0  0  0  0  0  0  0  0  0  0
    5.2343   -0.7533    0.7659 H   0  0  0  0  0  0  0  0  0  0  0  0
    3.4626   -0.8784    0.8423 H   0  0  0  0  0  0  0  0  0  0  0  0
    4.2226    0.4140   -2.3264 H   0  0  0  0  0  0  0  0  0  0  0  0
    4.1453   -0.7994   -4.4710 H   0  0  0  0  0  0  0  0  0  0  0  0
    4.2767   -3.2985   -4.4666 H   0  0  0  0  0  0  0  0  0  0  0  0
    4.4645   -4.5226   -2.4076 H   0  0  0  0  0  0  0  0  0  0  0  0
    4.2374   -2.9454    0.9698 H   0  0  0  0  0  0  0  0  0  0  0  0
    3.1547   -5.0849    0.2811 H   0  0  0  0  0  0  0  0  0  0  0  0
    4.5981   -5.4506   -0.6348 H   0  0  0  0  0  0  0  0  0  0  0  0
    6.6923   -4.3371    1.4188 H   0  0  0  0  0  0  0  0  0  0  0  0
    6.8827   -5.8116    0.4655 H   0  0  0  0  0  0  0  0  0  0  0  0
    6.9464   -5.8570    2.2434 H   0  0  0  0  0  0  0  0  0  0  0  0
    4.7817   -3.8795    2.8638 H   0  0  0  0  0  0  0  0  0  0  0  0
    4.8829   -5.4823    3.6644 H   0  0  0  0  0  0  0  0  0  0  0  0
    3.4209   -4.9471    2.7572 H   0  0  0  0  0  0  0  0  0  0  0  0
    2.9315  -11.0597    2.1770 H   0  0  0  0  0  0  0  0  0  0  0  0
   -0.5899   -9.4153    4.9442 H   0  0  0  0  0  0  0  0  0  0  0  0
   -0.7025   -6.9654    5.3541 H   0  0  0  0  0  0  0  0  0  0  0  0
    5.3318   -7.6228    0.8749 H   0  0  0  0  0  0  0  0  0  0  0  0
  1  2  1  0
  1 33  1  0
  1 34  1  0
  1 35  1  0
  2  7  2  0
  2  3  1  0
  3  4  2  0
  3 36  1  0
  4  5  1  0
  4 37  1  0
  5  6  2  0
  5 38  1  0
  6  7  1  0
  6 39  1  0
  7  8  1  0
  8  9  1  0
  8 40  1  0
  9 10  1  0
  9 41  1  0
  9 42  1  0
 10 11  1  0
 10 12  1  0
 10 13  1  0
 11 43  1  0
 11 44  1  0
 11 45  1  0
 12 46  1  0
 12 47  1  0
 12 48  1  0
 13 14  2  3
 13 52  1  0
 14 30  1  0
 14 15  1  0
 15 16  2  0
 16 17  1  0
 16 49  1  0
 17 29  1  0
 17 18  1  0
 18 19  2  0
 19 20  1  0
 19 50  1  0
 20 21  2  3
 20 29  1  0
 21 22  1  0
 21 51  1  0
 22 27  2  0
 22 23  1  0
 23 31  1  0
 23 24  1  0
 24 25  2  0
 24 26  1  0
 26 32  1  0
 26 27  1  0
 27 28  1  0
 29 30  2  0
M  CHG  2  13   1  28  -1
M  END
>  <i_m_ct_stereo_status>  (175) 
1

>  <s_m_source_file>  (175) 
/var/tmp/pbs.5102103.sched01/tmprp2a6t7u/44c8wyhmqh.sdf

>  <i_m_source_file_index>  (175) 
21

>  <i_lp_mmshare_version>  (175) 
48012

>  <i_f3d_flags>  (175) 
0

>  <s_epik_input>  (175) 
W0NIM11jMVtjSF1bY0hdW2NIXVtjSF1jMVtOSF1bQ0gyXUMoW0NIM10pKFtDSDNdKS9OPWMoL25bY0hdMiluYyhuMjMpYyhcW2NIXW4zKT1bQ0hdXGM0W25IXWMoPU8pW25IXWM0W09IXQ==

>  <s_epik_cmdline>  (175) 
J2VwaWtfcHl0aG9uJywgJy1waHQnLCAnMi4wJywgJy1waCcsICc3LjAnLCAnLXRuJywgJzgnLCAnLW1hJywgJzIwMCcsICctaW1hZScsICc8aW5maWxlLm1hZT4nLCAnLW9tYWUnLCAnPG91dGZpbGUubWFlPic=

>  <r_lp_tautomer_probability>  (175) 
1

>  <r_epik_Ionization_Penalty>  (175) 
0.00378577

>  <r_epik_Ionization_Penalty_Charging>  (175) 
0.000193101

>  <r_epik_Ionization_Penalty_Neutral>  (175) 
0.00359267

>  <r_epik_State_Penalty>  (175) 
-0

>  <r_epik_Charging_Adjusted_Penalty>  (175) 
0.000193101

>  <i_epik_Tot_Q>  (175) 
0

>  <i_epik_Tot_abs_Q>  (175) 
2

>  <s_epik_Chemistry_Notes>  (175) 
This compound has an imine and may undergo hydrolysis.

>  <s_lp_Force_Field>  (175) 
OPLS3e

>  <r_lp_Energy>  (175) 
43.4872

>  <b_lp_Chiralities_Consistent>  (175) 
1

>  <s_lp_Variant>  (175) 
36:0-3

>  <s_i_glide_gridfile>  (175) 
pfpi4k_grid

>  <i_i_glide_lignum>  (175) 
21

>  <i_i_glide_rotatable_bonds>  (175) 
5

>  <r_i_docking_score>  (175) 
-2.52087

>  <r_i_glide_ligand_efficiency>  (175) 
-0.0840289

>  <r_i_glide_ligand_efficiency_sa>  (175) 
-0.261097

>  <r_i_glide_ligand_efficiency_ln>  (175) 
-0.572769

>  <r_i_glide_gscore>  (175) 
-2.52087

>  <r_i_glide_lipo>  (175) 
-0.60813

>  <r_i_glide_hbond>  (175) 
0

>  <r_i_glide_metal>  (175) 
-0

>  <r_i_glide_rewards>  (175) 
-1.17577

>  <r_i_glide_evdw>  (175) 
-30.3149

>  <r_i_glide_ecoul>  (175) 
2.4209

>  <r_i_glide_erotb>  (175) 
0.476102

>  <r_i_glide_esite>  (175) 
-0.0604596

>  <r_i_glide_emodel>  (175) 
-36.9049

>  <r_i_glide_energy>  (175) 
-27.894

>  <r_i_glide_einternal>  (175) 
2.89923

>  <r_i_glide_intrahb_reward>  (175) 
-0.5

>  <i_i_glide_confnum>  (175) 
1

>  <i_i_glide_posenum>  (175) 
16

>  <r_i_glide_eff_state_penalty>  (175) 
0

>  <ligand_id>  (175) 
36

>  <original_smiles>  (175) 
Cc1ccccc1NCC(C)(C)N=c1ncn2ncc(=Cc3[nH]c(=O)[nH]c3O)c2n1

>  <smiles>  (175) 
[H]C(c1c([O-])n([H])c(=O)n1[H])=c1c([H])nn2c([H])nc(=[N+]([H])C(C([H])([H])[H])(C([H])([H])[H])C([H])([H])N([H])c3c([H])c([H])c([H])c([H])c3C([H])([H])[H])nc12

$$$$
36:2:1
     RDKit          3D

 52 55  0  0  1  0  0  0  0  0999 V2000
   -1.2213    2.3267    2.9523 C   0  0  0  0  0  0  0  0  0  0  0  0
   -1.3685    2.3259    4.4653 C   0  0  0  0  0  0  0  0  0  0  0  0
   -2.3849    3.1084    5.0414 C   0  0  0  0  0  0  0  0  0  0  0  0
   -2.5736    3.1342    6.4321 C   0  0  0  0  0  0  0  0  0  0  0  0
   -1.7305    2.3774    7.2569 C   0  0  0  0  0  0  0  0  0  0  0  0
   -0.7071    1.5961    6.6944 C   0  0  0  0  0  0  0  0  0  0  0  0
   -0.5084    1.5658    5.2926 C   0  0  0  0  0  0  0  0  0  0  0  0
    0.5202    0.8163    4.6924 N   0  0  0  0  0  0  0  0  0  0  0  0
    1.5411    0.1294    5.4836 C   0  0  0  0  0  0  0  0  0  0  0  0
    2.2693   -1.0056    4.7330 C   0  0  0  0  0  0  0  0  0  0  0  0
    3.2258   -1.7243    5.7137 C   0  0  0  0  0  0  0  0  0  0  0  0
    1.2024   -2.0073    4.2531 C   0  0  0  0  0  0  0  0  0  0  0  0
    3.1242   -0.4409    3.6210 N   0  0  0  0  0  0  0  0  0  0  0  0
    3.5186   -0.9836    2.4955 C   0  0  0  0  0  0  0  0  0  0  0  0
    4.3395   -0.2031    1.6972 N   0  0  0  0  0  0  0  0  0  0  0  0
    4.7433   -0.6881    0.5398 C   0  0  0  0  0  0  0  0  0  0  0  0
    4.3372   -1.9506    0.1506 N   0  0  0  0  0  0  0  0  0  0  0  0
    4.6605   -2.5629   -0.9975 N   0  0  0  0  0  0  0  0  0  0  0  0
    4.0854   -3.7129   -0.9458 C   0  0  0  0  0  0  0  0  0  0  0  0
    3.3194   -3.9378    0.2601 C   0  0  0  0  0  0  0  0  0  0  0  0
    2.5854   -5.0581    0.4954 C   0  0  0  0  0  0  0  0  0  0  0  0
    1.7920   -5.3946    1.6768 C   0  0  0  0  0  0  0  0  0  0  0  0
    1.9270   -4.9307    2.9548 N   0  0  0  0  0  0  0  0  0  0  0  0
    0.9926   -5.4588    3.7501 C   0  0  0  0  0  0  0  0  0  0  0  0
    0.7676   -5.1935    4.9308 O   0  0  0  0  0  0  0  0  0  0  0  0
    0.2986   -6.3197    2.9890 N   0  0  0  0  0  0  0  0  0  0  0  0
    0.7805   -6.2817    1.7036 C   0  0  0  0  0  0  0  0  0  0  0  0
    0.1279   -7.0624    0.9695 O   0  0  0  0  0  0  0  0  0  0  0  0
    3.5215   -2.7159    0.9886 C   0  0  0  0  0  0  0  0  0  0  0  0
    3.1266   -2.2507    2.1445 N   0  0  0  0  0  0  0  0  0  0  0  0
    2.5616   -4.1999    3.2312 H   0  0  0  0  0  0  0  0  0  0  0  0
   -0.4532   -6.9046    3.2785 H   0  0  0  0  0  0  0  0  0  0  0  0
   -1.9481    2.9860    2.4781 H   0  0  0  0  0  0  0  0  0  0  0  0
   -1.3750    1.3254    2.5481 H   0  0  0  0  0  0  0  0  0  0  0  0
   -0.2296    2.6711    2.6569 H   0  0  0  0  0  0  0  0  0  0  0  0
   -3.0238    3.6967    4.4065 H   0  0  0  0  0  0  0  0  0  0  0  0
   -3.3543    3.7350    6.8677 H   0  0  0  0  0  0  0  0  0  0  0  0
   -1.8599    2.4084    8.3250 H   0  0  0  0  0  0  0  0  0  0  0  0
   -0.0762    1.0423    7.3684 H   0  0  0  0  0  0  0  0  0  0  0  0
    0.7517    0.9979    3.7244 H   0  0  0  0  0  0  0  0  0  0  0  0
    2.2448    0.8749    5.8674 H   0  0  0  0  0  0  0  0  0  0  0  0
    1.0761   -0.3475    6.3390 H   0  0  0  0  0  0  0  0  0  0  0  0
    2.6728   -2.1592    6.5428 H   0  0  0  0  0  0  0  0  0  0  0  0
    3.9622   -1.0411    6.1465 H   0  0  0  0  0  0  0  0  0  0  0  0
    3.7797   -2.5400    5.2409 H   0  0  0  0  0  0  0  0  0  0  0  0
    0.5939   -2.3942    5.0783 H   0  0  0  0  0  0  0  0  0  0  0  0
    1.7205   -2.8559    3.8434 H   0  0  0  0  0  0  0  0  0  0  0  0
    0.5467   -1.5842    3.4879 H   0  0  0  0  0  0  0  0  0  0  0  0
    5.3977   -0.1483   -0.1516 H   0  0  0  0  0  0  0  0  0  0  0  0
    4.1555   -4.4692   -1.7175 H   0  0  0  0  0  0  0  0  0  0  0  0
    2.6079   -5.8170   -0.2732 H   0  0  0  0  0  0  0  0  0  0  0  0
    3.5129    0.4864    3.7826 H   0  0  0  0  0  0  0  0  0  0  0  0
  1  2  1  0
  1 33  1  0
  1 34  1  0
  1 35  1  0
  2  7  2  0
  2  3  1  0
  3  4  2  0
  3 36  1  0
  4  5  1  0
  4 37  1  0
  5  6  2  0
  5 38  1  0
  6  7  1  0
  6 39  1  0
  7  8  1  0
  8  9  1  0
  8 40  1  0
  9 10  1  0
  9 41  1  0
  9 42  1  0
 10 11  1  0
 10 12  1  0
 10 13  1  0
 11 43  1  0
 11 44  1  0
 11 45  1  0
 12 46  1  0
 12 47  1  0
 12 48  1  0
 13 14  2  3
 13 52  1  0
 14 30  1  0
 14 15  1  0
 15 16  2  0
 16 17  1  0
 16 49  1  0
 17 29  1  0
 17 18  1  0
 18 19  2  0
 19 20  1  0
 19 50  1  0
 20 21  2  3
 20 29  1  0
 21 22  1  0
 21 51  1  0
 22 27  2  0
 22 23  1  0
 23 31  1  0
 23 24  1  0
 24 25  2  0
 24 26  1  0
 26 32  1  0
 26 27  1  0
 27 28  1  0
 29 30  2  0
M  CHG  2  13   1  28  -1
M  END
>  <i_m_ct_stereo_status>  (176) 
1

>  <s_m_source_file>  (176) 
/var/tmp/pbs.5102103.sched01/tmprp2a6t7u/44c8wyhmqh.sdf

>  <i_m_source_file_index>  (176) 
21

>  <i_lp_mmshare_version>  (176) 
48012

>  <i_f3d_flags>  (176) 
0

>  <s_epik_input>  (176) 
W0NIM11jMVtjSF1bY0hdW2NIXVtjSF1jMVtOSF1bQ0gyXUMoW0NIM10pKFtDSDNdKS9OPWMoL25bY0hdMiluYyhuMjMpYyhcW2NIXW4zKT1bQ0hdXGM0W25IXWMoPU8pW25IXWM0W09IXQ==

>  <s_epik_cmdline>  (176) 
J2VwaWtfcHl0aG9uJywgJy1waHQnLCAnMi4wJywgJy1waCcsICc3LjAnLCAnLXRuJywgJzgnLCAnLW1hJywgJzIwMCcsICctaW1hZScsICc8aW5maWxlLm1hZT4nLCAnLW9tYWUnLCAnPG91dGZpbGUubWFlPic=

>  <r_lp_tautomer_probability>  (176) 
1

>  <r_epik_Ionization_Penalty>  (176) 
0.00378577

>  <r_epik_Ionization_Penalty_Charging>  (176) 
0.000193101

>  <r_epik_Ionization_Penalty_Neutral>  (176) 
0.00359267

>  <r_epik_State_Penalty>  (176) 
-0

>  <r_epik_Charging_Adjusted_Penalty>  (176) 
0.000193101

>  <i_epik_Tot_Q>  (176) 
0

>  <i_epik_Tot_abs_Q>  (176) 
2

>  <s_epik_Chemistry_Notes>  (176) 
This compound has an imine and may undergo hydrolysis.

>  <s_lp_Force_Field>  (176) 
OPLS3e

>  <r_lp_Energy>  (176) 
43.4872

>  <b_lp_Chiralities_Consistent>  (176) 
1

>  <s_lp_Variant>  (176) 
36:0-3

>  <s_i_glide_gridfile>  (176) 
pfpi4k_grid

>  <i_i_glide_lignum>  (176) 
21

>  <i_i_glide_rotatable_bonds>  (176) 
5

>  <r_i_docking_score>  (176) 
-2.43071

>  <r_i_glide_ligand_efficiency>  (176) 
-0.0810237

>  <r_i_glide_ligand_efficiency_sa>  (176) 
-0.251759

>  <r_i_glide_ligand_efficiency_ln>  (176) 
-0.552284

>  <r_i_glide_gscore>  (176) 
-2.43071

>  <r_i_glide_lipo>  (176) 
-0.138465

>  <r_i_glide_hbond>  (176) 
-0.00329992

>  <r_i_glide_metal>  (176) 
-0

>  <r_i_glide_rewards>  (176) 
-1.2984

>  <r_i_glide_evdw>  (176) 
-25.9585

>  <r_i_glide_ecoul>  (176) 
-0.189236

>  <r_i_glide_erotb>  (176) 
0.476102

>  <r_i_glide_esite>  (176) 
-0.140335

>  <r_i_glide_emodel>  (176) 
-34.5327

>  <r_i_glide_energy>  (176) 
-26.1477

>  <r_i_glide_einternal>  (176) 
2.68734

>  <r_i_glide_intrahb_reward>  (176) 
-0.5

>  <i_i_glide_confnum>  (176) 
2

>  <i_i_glide_posenum>  (176) 
2

>  <r_i_glide_eff_state_penalty>  (176) 
0

>  <ligand_id>  (176) 
36

>  <original_smiles>  (176) 
Cc1ccccc1NCC(C)(C)N=c1ncn2ncc(=Cc3[nH]c(=O)[nH]c3O)c2n1

>  <smiles>  (176) 
[H]C(c1c([O-])n([H])c(=O)n1[H])=c1c([H])nn2c([H])nc(=[N+]([H])C(C([H])([H])[H])(C([H])([H])[H])C([H])([H])N([H])c3c([H])c([H])c([H])c([H])c3C([H])([H])[H])nc12

$$$$
36:2:2
     RDKit          3D

 52 55  0  0  1  0  0  0  0  0999 V2000
    5.5330   -1.1505   -0.0621 C   0  0  0  0  0  0  0  0  0  0  0  0
    4.4622   -1.8474   -0.8873 C   0  0  0  0  0  0  0  0  0  0  0  0
    4.2806   -1.4749   -2.2352 C   0  0  0  0  0  0  0  0  0  0  0  0
    3.3005   -2.1032   -3.0277 C   0  0  0  0  0  0  0  0  0  0  0  0
    2.4806   -3.0862   -2.4610 C   0  0  0  0  0  0  0  0  0  0  0  0
    2.6497   -3.4571   -1.1262 C   0  0  0  0  0  0  0  0  0  0  0  0
    3.6538   -2.8665   -0.3275 C   0  0  0  0  0  0  0  0  0  0  0  0
    3.8665   -3.2784    0.9949 N   0  0  0  0  0  0  0  0  0  0  0  0
    2.9226   -4.1605    1.6643 C   0  0  0  0  0  0  0  0  0  0  0  0
    3.4063   -5.6242    1.8336 C   0  0  0  0  0  0  0  0  0  0  0  0
    3.5798   -6.2378    0.4359 C   0  0  0  0  0  0  0  0  0  0  0  0
    4.7599   -5.7062    2.5737 C   0  0  0  0  0  0  0  0  0  0  0  0
    2.3920   -6.4625    2.5524 N   0  0  0  0  0  0  0  0  0  0  0  0
    1.6659   -6.2142    3.6109 C   0  0  0  0  0  0  0  0  0  0  0  0
    0.8138   -7.2296    3.9831 N   0  0  0  0  0  0  0  0  0  0  0  0
    0.0400   -7.0197    5.0293 C   0  0  0  0  0  0  0  0  0  0  0  0
    0.0938   -5.8026    5.7004 N   0  0  0  0  0  0  0  0  0  0  0  0
   -0.6370   -5.4584    6.7656 N   0  0  0  0  0  0  0  0  0  0  0  0
   -0.2751   -4.2616    7.0645 C   0  0  0  0  0  0  0  0  0  0  0  0
    0.7412   -3.7251    6.1866 C   0  0  0  0  0  0  0  0  0  0  0  0
    1.2402   -2.4672    6.3033 C   0  0  0  0  0  0  0  0  0  0  0  0
    2.2503   -1.8191    5.4752 C   0  0  0  0  0  0  0  0  0  0  0  0
    3.0005   -2.3444    4.4610 N   0  0  0  0  0  0  0  0  0  0  0  0
    3.8391   -1.4343    3.9590 C   0  0  0  0  0  0  0  0  0  0  0  0
    4.6390   -1.5826    3.0414 O   0  0  0  0  0  0  0  0  0  0  0  0
    3.6191   -0.3229    4.6606 N   0  0  0  0  0  0  0  0  0  0  0  0
    2.6591   -0.5228    5.6160 C   0  0  0  0  0  0  0  0  0  0  0  0
    2.4862    0.5184    6.2861 O   0  0  0  0  0  0  0  0  0  0  0  0
    0.9786   -4.8091    5.2786 C   0  0  0  0  0  0  0  0  0  0  0  0
    1.7696   -5.0053    4.2581 N   0  0  0  0  0  0  0  0  0  0  0  0
    2.8912   -3.2852    4.1113 H   0  0  0  0  0  0  0  0  0  0  0  0
    4.0698    0.5687    4.5199 H   0  0  0  0  0  0  0  0  0  0  0  0
    6.0498   -0.3984   -0.6521 H   0  0  0  0  0  0  0  0  0  0  0  0
    6.2694   -1.8673    0.3078 H   0  0  0  0  0  0  0  0  0  0  0  0
    5.0865   -0.6306    0.7838 H   0  0  0  0  0  0  0  0  0  0  0  0
    4.9023   -0.7093   -2.6703 H   0  0  0  0  0  0  0  0  0  0  0  0
    3.1652   -1.8318   -4.0598 H   0  0  0  0  0  0  0  0  0  0  0  0
    1.7369   -3.5959   -3.0519 H   0  0  0  0  0  0  0  0  0  0  0  0
    2.0060   -4.2351   -0.7549 H   0  0  0  0  0  0  0  0  0  0  0  0
    4.2919   -2.5891    1.6190 H   0  0  0  0  0  0  0  0  0  0  0  0
    2.8590   -3.7155    2.6334 H   0  0  0  0  0  0  0  0  0  0  0  0
    1.9077   -4.1004    1.2704 H   0  0  0  0  0  0  0  0  0  0  0  0
    4.2953   -5.6634   -0.1546 H   0  0  0  0  0  0  0  0  0  0  0  0
    2.6349   -6.2289   -0.1056 H   0  0  0  0  0  0  0  0  0  0  0  0
    3.9433   -7.2649    0.4689 H   0  0  0  0  0  0  0  0  0  0  0  0
    5.5370   -5.1692    2.0289 H   0  0  0  0  0  0  0  0  0  0  0  0
    5.1015   -6.7398    2.6594 H   0  0  0  0  0  0  0  0  0  0  0  0
    4.7162   -5.2842    3.5797 H   0  0  0  0  0  0  0  0  0  0  0  0
   -0.6606   -7.7595    5.4212 H   0  0  0  0  0  0  0  0  0  0  0  0
   -0.6632   -3.6674    7.8837 H   0  0  0  0  0  0  0  0  0  0  0  0
    0.8579   -1.8589    7.1141 H   0  0  0  0  0  0  0  0  0  0  0  0
    2.2624   -7.3913    2.1678 H   0  0  0  0  0  0  0  0  0  0  0  0
  1  2  1  0
  1 33  1  0
  1 34  1  0
  1 35  1  0
  2  7  2  0
  2  3  1  0
  3  4  2  0
  3 36  1  0
  4  5  1  0
  4 37  1  0
  5  6  2  0
  5 38  1  0
  6  7  1  0
  6 39  1  0
  7  8  1  0
  8  9  1  0
  8 40  1  0
  9 10  1  0
  9 41  1  0
  9 42  1  0
 10 11  1  0
 10 12  1  0
 10 13  1  0
 11 43  1  0
 11 44  1  0
 11 45  1  0
 12 46  1  0
 12 47  1  0
 12 48  1  0
 13 14  2  3
 13 52  1  0
 14 30  1  0
 14 15  1  0
 15 16  2  0
 16 17  1  0
 16 49  1  0
 17 29  1  0
 17 18  1  0
 18 19  2  0
 19 20  1  0
 19 50  1  0
 20 21  2  3
 20 29  1  0
 21 22  1  0
 21 51  1  0
 22 27  2  0
 22 23  1  0
 23 31  1  0
 23 24  1  0
 24 25  2  0
 24 26  1  0
 26 32  1  0
 26 27  1  0
 27 28  1  0
 29 30  2  0
M  CHG  2  13   1  28  -1
M  END
>  <i_m_ct_stereo_status>  (177) 
1

>  <s_m_source_file>  (177) 
/var/tmp/pbs.5102103.sched01/tmprp2a6t7u/44c8wyhmqh.sdf

>  <i_m_source_file_index>  (177) 
21

>  <i_lp_mmshare_version>  (177) 
48012

>  <i_f3d_flags>  (177) 
0

>  <s_epik_input>  (177) 
W0NIM11jMVtjSF1bY0hdW2NIXVtjSF1jMVtOSF1bQ0gyXUMoW0NIM10pKFtDSDNdKS9OPWMoL25bY0hdMiluYyhuMjMpYyhcW2NIXW4zKT1bQ0hdXGM0W25IXWMoPU8pW25IXWM0W09IXQ==

>  <s_epik_cmdline>  (177) 
J2VwaWtfcHl0aG9uJywgJy1waHQnLCAnMi4wJywgJy1waCcsICc3LjAnLCAnLXRuJywgJzgnLCAnLW1hJywgJzIwMCcsICctaW1hZScsICc8aW5maWxlLm1hZT4nLCAnLW9tYWUnLCAnPG91dGZpbGUubWFlPic=

>  <r_lp_tautomer_probability>  (177) 
1

>  <r_epik_Ionization_Penalty>  (177) 
0.00378577

>  <r_epik_Ionization_Penalty_Charging>  (177) 
0.000193101

>  <r_epik_Ionization_Penalty_Neutral>  (177) 
0.00359267

>  <r_epik_State_Penalty>  (177) 
-0

>  <r_epik_Charging_Adjusted_Penalty>  (177) 
0.000193101

>  <i_epik_Tot_Q>  (177) 
0

>  <i_epik_Tot_abs_Q>  (177) 
2

>  <s_epik_Chemistry_Notes>  (177) 
This compound has an imine and may undergo hydrolysis.

>  <s_lp_Force_Field>  (177) 
OPLS3e

>  <r_lp_Energy>  (177) 
43.4872

>  <b_lp_Chiralities_Consistent>  (177) 
1

>  <s_lp_Variant>  (177) 
36:0-3

>  <s_i_glide_gridfile>  (177) 
pfpi4k_grid

>  <i_i_glide_lignum>  (177) 
21

>  <i_i_glide_rotatable_bonds>  (177) 
5

>  <r_i_docking_score>  (177) 
-2.15926

>  <r_i_glide_ligand_efficiency>  (177) 
-0.0719754

>  <r_i_glide_ligand_efficiency_sa>  (177) 
-0.223644

>  <r_i_glide_ligand_efficiency_ln>  (177) 
-0.490608

>  <r_i_glide_gscore>  (177) 
-2.15926

>  <r_i_glide_lipo>  (177) 
-0.143798

>  <r_i_glide_hbond>  (177) 
0

>  <r_i_glide_metal>  (177) 
-0

>  <r_i_glide_rewards>  (177) 
-1.63821

>  <r_i_glide_evdw>  (177) 
-25.825

>  <r_i_glide_ecoul>  (177) 
3.2234

>  <r_i_glide_erotb>  (177) 
0.476102

>  <r_i_glide_esite>  (177) 
-0.0456109

>  <r_i_glide_emodel>  (177) 
-35.3269

>  <r_i_glide_energy>  (177) 
-22.6016

>  <r_i_glide_einternal>  (177) 
1.81559

>  <r_i_glide_intrahb_reward>  (177) 
-1

>  <i_i_glide_confnum>  (177) 
1

>  <i_i_glide_posenum>  (177) 
38

>  <r_i_glide_eff_state_penalty>  (177) 
0

>  <ligand_id>  (177) 
36

>  <original_smiles>  (177) 
Cc1ccccc1NCC(C)(C)N=c1ncn2ncc(=Cc3[nH]c(=O)[nH]c3O)c2n1

>  <smiles>  (177) 
[H]C(c1c([O-])n([H])c(=O)n1[H])=c1c([H])nn2c([H])nc(=[N+]([H])C(C([H])([H])[H])(C([H])([H])[H])C([H])([H])N([H])c3c([H])c([H])c([H])c([H])c3C([H])([H])[H])nc12

$$$$
36:3:0
     RDKit          3D

 52 55  0  0  1  0  0  0  0  0999 V2000
    0.7348   -7.9251    2.3446 C   0  0  0  0  0  0  0  0  0  0  0  0
    1.3001   -9.1178    3.0935 C   0  0  0  0  0  0  0  0  0  0  0  0
    0.5055  -10.2762    3.2261 C   0  0  0  0  0  0  0  0  0  0  0  0
    0.9909  -11.4040    3.9137 C   0  0  0  0  0  0  0  0  0  0  0  0
    2.2759  -11.3778    4.4776 C   0  0  0  0  0  0  0  0  0  0  0  0
    3.0696  -10.2254    4.3586 C   0  0  0  0  0  0  0  0  0  0  0  0
    2.5979   -9.0868    3.6605 C   0  0  0  0  0  0  0  0  0  0  0  0
    3.3832   -7.9287    3.5273 N   0  0  0  0  0  0  0  0  0  0  0  0
    4.8499   -8.0415    3.4989 C   0  0  0  0  0  0  0  0  0  0  0  0
    5.4520   -7.7385    2.0934 C   0  0  0  0  0  0  0  0  0  0  0  0
    6.9743   -7.9638    2.1386 C   0  0  0  0  0  0  0  0  0  0  0  0
    4.8619   -8.7425    1.0809 C   0  0  0  0  0  0  0  0  0  0  0  0
    5.1789   -6.3650    1.5729 N   0  0  0  0  0  0  0  0  0  0  0  0
    5.1221   -5.2124    2.1921 C   0  0  0  0  0  0  0  0  0  0  0  0
    5.3244   -5.1325    3.5414 N   0  0  0  0  0  0  0  0  0  0  0  0
    5.1363   -3.9662    4.1096 C   0  0  0  0  0  0  0  0  0  0  0  0
    4.7768   -2.8735    3.3471 N   0  0  0  0  0  0  0  0  0  0  0  0
    4.5734   -1.6390    3.8034 N   0  0  0  0  0  0  0  0  0  0  0  0
    4.2972   -0.9273    2.7574 C   0  0  0  0  0  0  0  0  0  0  0  0
    4.2801   -1.6896    1.5432 C   0  0  0  0  0  0  0  0  0  0  0  0
    3.9405   -1.1931    0.3378 C   0  0  0  0  0  0  0  0  0  0  0  0
    3.8341   -1.9155   -0.9253 C   0  0  0  0  0  0  0  0  0  0  0  0
    4.2934   -1.4973   -2.1447 N   0  0  0  0  0  0  0  0  0  0  0  0
    3.9772   -2.4023   -3.0906 C   0  0  0  0  0  0  0  0  0  0  0  0
    4.2070   -2.3021   -4.2954 O   0  0  0  0  0  0  0  0  0  0  0  0
    3.3651   -3.4035   -2.4573 N   0  0  0  0  0  0  0  0  0  0  0  0
    3.2147   -3.1010   -1.1381 C   0  0  0  0  0  0  0  0  0  0  0  0
    2.5502   -4.0285   -0.5885 O   0  0  0  0  0  0  0  0  0  0  0  0
    4.6322   -3.0099    1.9708 C   0  0  0  0  0  0  0  0  0  0  0  0
    4.8047   -4.1533    1.3736 N   0  0  0  0  0  0  0  0  0  0  0  0
    4.6634   -0.5650   -2.3168 H   0  0  0  0  0  0  0  0  0  0  0  0
    3.0666   -4.2904   -2.8275 H   0  0  0  0  0  0  0  0  0  0  0  0
   -0.2846   -8.1147    2.0075 H   0  0  0  0  0  0  0  0  0  0  0  0
    1.3355   -7.7065    1.4607 H   0  0  0  0  0  0  0  0  0  0  0  0
    0.7134   -7.0403    2.9835 H   0  0  0  0  0  0  0  0  0  0  0  0
   -0.4898  -10.3022    2.8114 H   0  0  0  0  0  0  0  0  0  0  0  0
    0.3794  -12.2786    4.0335 H   0  0  0  0  0  0  0  0  0  0  0  0
    2.6409  -12.2263    5.0275 H   0  0  0  0  0  0  0  0  0  0  0  0
    4.0285  -10.2455    4.8404 H   0  0  0  0  0  0  0  0  0  0  0  0
    2.9988   -7.1632    2.9955 H   0  0  0  0  0  0  0  0  0  0  0  0
    5.2344   -7.3948    4.2857 H   0  0  0  0  0  0  0  0  0  0  0  0
    5.2219   -9.0225    3.7948 H   0  0  0  0  0  0  0  0  0  0  0  0
    7.1982   -8.9918    2.4190 H   0  0  0  0  0  0  0  0  0  0  0  0
    7.4636   -7.3033    2.8584 H   0  0  0  0  0  0  0  0  0  0  0  0
    7.4363   -7.7945    1.1611 H   0  0  0  0  0  0  0  0  0  0  0  0
    5.0280   -9.7664    1.4066 H   0  0  0  0  0  0  0  0  0  0  0  0
    5.3069   -8.6462    0.0900 H   0  0  0  0  0  0  0  0  0  0  0  0
    3.7851   -8.6260    0.9531 H   0  0  0  0  0  0  0  0  0  0  0  0
    5.2430   -3.7922    5.1811 H   0  0  0  0  0  0  0  0  0  0  0  0
    4.0858    0.1439    2.7610 H   0  0  0  0  0  0  0  0  0  0  0  0
    3.7156   -0.1392    0.2914 H   0  0  0  0  0  0  0  0  0  0  0  0
    4.9818   -6.2975    0.5769 H   0  0  0  0  0  0  0  0  0  0  0  0
  1  2  1  0
  1 33  1  0
  1 34  1  0
  1 35  1  0
  2  7  2  0
  2  3  1  0
  3  4  2  0
  3 36  1  0
  4  5  1  0
  4 37  1  0
  5  6  2  0
  5 38  1  0
  6  7  1  0
  6 39  1  0
  7  8  1  0
  8  9  1  0
  8 40  1  0
  9 10  1  0
  9 41  1  0
  9 42  1  0
 10 11  1  0
 10 12  1  0
 10 13  1  0
 11 43  1  0
 11 44  1  0
 11 45  1  0
 12 46  1  0
 12 47  1  0
 12 48  1  0
 13 14  2  3
 13 52  1  0
 14 30  1  0
 14 15  1  0
 15 16  2  0
 16 17  1  0
 16 49  1  0
 17 29  1  0
 17 18  1  0
 18 19  2  0
 19 20  1  0
 19 50  1  0
 20 21  2  3
 20 29  1  0
 21 22  1  0
 21 51  1  0
 22 27  2  0
 22 23  1  0
 23 31  1  0
 23 24  1  0
 24 25  2  0
 24 26  1  0
 26 32  1  0
 26 27  1  0
 27 28  1  0
 29 30  2  0
M  CHG  2  13   1  28  -1
M  END
>  <i_m_ct_stereo_status>  (178) 
1

>  <s_m_source_file>  (178) 
/var/tmp/pbs.5102103.sched01/tmprp2a6t7u/44c8wyhmqh.sdf

>  <i_m_source_file_index>  (178) 
22

>  <i_lp_mmshare_version>  (178) 
48012

>  <i_f3d_flags>  (178) 
0

>  <s_epik_input>  (178) 
W0NIM11jMVtjSF1bY0hdW2NIXVtjSF1jMVtOSF1bQ0gyXUMoW0NIM10pKFtDSDNdKS9OPWMoL25bY0hdMiluYyhuMjMpYyhcW2NIXW4zKT1bQ0hdXGM0W25IXWMoPU8pW25IXWM0W09IXQ==

>  <s_epik_cmdline>  (178) 
J2VwaWtfcHl0aG9uJywgJy1waHQnLCAnMi4wJywgJy1waCcsICc3LjAnLCAnLXRuJywgJzgnLCAnLW1hJywgJzIwMCcsICctaW1hZScsICc8aW5maWxlLm1hZT4nLCAnLW9tYWUnLCAnPG91dGZpbGUubWFlPic=

>  <r_lp_tautomer_probability>  (178) 
1

>  <r_epik_Ionization_Penalty>  (178) 
0.00378577

>  <r_epik_Ionization_Penalty_Charging>  (178) 
0.000193101

>  <r_epik_Ionization_Penalty_Neutral>  (178) 
0.00359267

>  <r_epik_State_Penalty>  (178) 
-0

>  <r_epik_Charging_Adjusted_Penalty>  (178) 
0.000193101

>  <i_epik_Tot_Q>  (178) 
0

>  <i_epik_Tot_abs_Q>  (178) 
2

>  <s_epik_Chemistry_Notes>  (178) 
This compound has an imine and may undergo hydrolysis.

>  <s_lp_Force_Field>  (178) 
OPLS3e

>  <r_lp_Energy>  (178) 
48.8378

>  <b_lp_Chiralities_Consistent>  (178) 
1

>  <s_lp_Variant>  (178) 
36:0-4

>  <s_i_glide_gridfile>  (178) 
pfpi4k_grid

>  <i_i_glide_lignum>  (178) 
22

>  <i_i_glide_rotatable_bonds>  (178) 
5

>  <r_i_docking_score>  (178) 
-3.68452

>  <r_i_glide_ligand_efficiency>  (178) 
-0.122817

>  <r_i_glide_ligand_efficiency_sa>  (178) 
-0.381622

>  <r_i_glide_ligand_efficiency_ln>  (178) 
-0.837162

>  <r_i_glide_gscore>  (178) 
-3.68452

>  <r_i_glide_lipo>  (178) 
-0.329456

>  <r_i_glide_hbond>  (178) 
-0.603518

>  <r_i_glide_metal>  (178) 
-0

>  <r_i_glide_rewards>  (178) 
-0.957495

>  <r_i_glide_evdw>  (178) 
-29.5146

>  <r_i_glide_ecoul>  (178) 
-4.83814

>  <r_i_glide_erotb>  (178) 
0.476102

>  <r_i_glide_esite>  (178) 
-0.0686998

>  <r_i_glide_emodel>  (178) 
-41.6906

>  <r_i_glide_energy>  (178) 
-34.3527

>  <r_i_glide_einternal>  (178) 
4.3073

>  <r_i_glide_intrahb_reward>  (178) 
-0

>  <i_i_glide_confnum>  (178) 
5

>  <i_i_glide_posenum>  (178) 
32

>  <r_i_glide_eff_state_penalty>  (178) 
0

>  <ligand_id>  (178) 
36

>  <original_smiles>  (178) 
Cc1ccccc1NCC(C)(C)N=c1ncn2ncc(=Cc3[nH]c(=O)[nH]c3O)c2n1

>  <smiles>  (178) 
[H]C(c1c([O-])n([H])c(=O)n1[H])=c1c([H])nn2c([H])nc(=[N+]([H])C(C([H])([H])[H])(C([H])([H])[H])C([H])([H])N([H])c3c([H])c([H])c([H])c([H])c3C([H])([H])[H])nc12

$$$$
36:3:1
     RDKit          3D

 52 55  0  0  1  0  0  0  0  0999 V2000
   -0.3573   -8.3115    2.0819 C   0  0  0  0  0  0  0  0  0  0  0  0
    0.0636   -7.5284    3.3146 C   0  0  0  0  0  0  0  0  0  0  0  0
   -0.9426   -7.0015    4.1526 C   0  0  0  0  0  0  0  0  0  0  0  0
   -0.5978   -6.2560    5.2948 C   0  0  0  0  0  0  0  0  0  0  0  0
    0.7515   -6.0503    5.6157 C   0  0  0  0  0  0  0  0  0  0  0  0
    1.7584   -6.5769    4.7904 C   0  0  0  0  0  0  0  0  0  0  0  0
    1.4340   -7.3223    3.6291 C   0  0  0  0  0  0  0  0  0  0  0  0
    2.4199   -7.8459    2.7724 N   0  0  0  0  0  0  0  0  0  0  0  0
    3.8078   -8.0498    3.2079 C   0  0  0  0  0  0  0  0  0  0  0  0
    4.8535   -7.7566    2.0983 C   0  0  0  0  0  0  0  0  0  0  0  0
    6.2803   -7.9950    2.6359 C   0  0  0  0  0  0  0  0  0  0  0  0
    4.6209   -8.7299    0.9259 C   0  0  0  0  0  0  0  0  0  0  0  0
    4.7418   -6.3624    1.5713 N   0  0  0  0  0  0  0  0  0  0  0  0
    4.8003   -5.2199    2.1872 C   0  0  0  0  0  0  0  0  0  0  0  0
    5.0061   -5.1651    3.5494 N   0  0  0  0  0  0  0  0  0  0  0  0
    5.0074   -3.9823    4.1064 C   0  0  0  0  0  0  0  0  0  0  0  0
    4.7919   -2.8455    3.3360 N   0  0  0  0  0  0  0  0  0  0  0  0
    4.7659   -1.5892    3.7803 N   0  0  0  0  0  0  0  0  0  0  0  0
    4.5629   -0.8495    2.7429 C   0  0  0  0  0  0  0  0  0  0  0  0
    4.4223   -1.6111    1.5329 C   0  0  0  0  0  0  0  0  0  0  0  0
    4.1451   -1.0927    0.3185 C   0  0  0  0  0  0  0  0  0  0  0  0
    3.9298   -1.8143   -0.9263 C   0  0  0  0  0  0  0  0  0  0  0  0
    4.3941   -1.4388   -2.1721 N   0  0  0  0  0  0  0  0  0  0  0  0
    3.9696   -2.3087   -3.1027 C   0  0  0  0  0  0  0  0  0  0  0  0
    4.1787   -2.2522   -4.3115 O   0  0  0  0  0  0  0  0  0  0  0  0
    3.2731   -3.2484   -2.4512 N   0  0  0  0  0  0  0  0  0  0  0  0
    3.1898   -2.9484   -1.1217 C   0  0  0  0  0  0  0  0  0  0  0  0
    2.4655   -3.8150   -0.5616 O   0  0  0  0  0  0  0  0  0  0  0  0
    4.6065   -2.9650    1.9653 C   0  0  0  0  0  0  0  0  0  0  0  0
    4.6284   -4.1254    1.3750 N   0  0  0  0  0  0  0  0  0  0  0  0
    4.8645   -0.5679   -2.3490 H   0  0  0  0  0  0  0  0  0  0  0  0
    2.8682   -4.0876   -2.8303 H   0  0  0  0  0  0  0  0  0  0  0  0
   -1.4421   -8.3435    1.9720 H   0  0  0  0  0  0  0  0  0  0  0  0
   -0.0039   -9.3416    2.1419 H   0  0  0  0  0  0  0  0  0  0  0  0
    0.0528   -7.8582    1.1785 H   0  0  0  0  0  0  0  0  0  0  0  0
   -1.9865   -7.1572    3.9222 H   0  0  0  0  0  0  0  0  0  0  0  0
   -1.3679   -5.8546    5.9340 H   0  0  0  0  0  0  0  0  0  0  0  0
    1.0232   -5.4868    6.4938 H   0  0  0  0  0  0  0  0  0  0  0  0
    2.7712   -6.3725    5.0884 H   0  0  0  0  0  0  0  0  0  0  0  0
    2.1004   -8.4800    2.0513 H   0  0  0  0  0  0  0  0  0  0  0  0
    4.0654   -7.4544    4.0751 H   0  0  0  0  0  0  0  0  0  0  0  0
    3.9050   -9.0812    3.5494 H   0  0  0  0  0  0  0  0  0  0  0  0
    6.4191   -9.0353    2.9332 H   0  0  0  0  0  0  0  0  0  0  0  0
    6.5025   -7.3799    3.5089 H   0  0  0  0  0  0  0  0  0  0  0  0
    7.0306   -7.7684    1.8745 H   0  0  0  0  0  0  0  0  0  0  0  0
    4.6926   -9.7705    1.2466 H   0  0  0  0  0  0  0  0  0  0  0  0
    5.3552   -8.5934    0.1339 H   0  0  0  0  0  0  0  0  0  0  0  0
    3.6368   -8.6002    0.4820 H   0  0  0  0  0  0  0  0  0  0  0  0
    5.1794   -3.8229    5.1737 H   0  0  0  0  0  0  0  0  0  0  0  0
    4.4935    0.2385    2.7348 H   0  0  0  0  0  0  0  0  0  0  0  0
    4.0665   -0.0146    0.2440 H   0  0  0  0  0  0  0  0  0  0  0  0
    4.5260   -6.2969    0.5799 H   0  0  0  0  0  0  0  0  0  0  0  0
  1  2  1  0
  1 33  1  0
  1 34  1  0
  1 35  1  0
  2  7  2  0
  2  3  1  0
  3  4  2  0
  3 36  1  0
  4  5  1  0
  4 37  1  0
  5  6  2  0
  5 38  1  0
  6  7  1  0
  6 39  1  0
  7  8  1  0
  8  9  1  0
  8 40  1  0
  9 10  1  0
  9 41  1  0
  9 42  1  0
 10 11  1  0
 10 12  1  0
 10 13  1  0
 11 43  1  0
 11 44  1  0
 11 45  1  0
 12 46  1  0
 12 47  1  0
 12 48  1  0
 13 14  2  3
 13 52  1  0
 14 30  1  0
 14 15  1  0
 15 16  2  0
 16 17  1  0
 16 49  1  0
 17 29  1  0
 17 18  1  0
 18 19  2  0
 19 20  1  0
 19 50  1  0
 20 21  2  3
 20 29  1  0
 21 22  1  0
 21 51  1  0
 22 27  2  0
 22 23  1  0
 23 31  1  0
 23 24  1  0
 24 25  2  0
 24 26  1  0
 26 32  1  0
 26 27  1  0
 27 28  1  0
 29 30  2  0
M  CHG  2  13   1  28  -1
M  END
>  <i_m_ct_stereo_status>  (179) 
1

>  <s_m_source_file>  (179) 
/var/tmp/pbs.5102103.sched01/tmprp2a6t7u/44c8wyhmqh.sdf

>  <i_m_source_file_index>  (179) 
22

>  <i_lp_mmshare_version>  (179) 
48012

>  <i_f3d_flags>  (179) 
0

>  <s_epik_input>  (179) 
W0NIM11jMVtjSF1bY0hdW2NIXVtjSF1jMVtOSF1bQ0gyXUMoW0NIM10pKFtDSDNdKS9OPWMoL25bY0hdMiluYyhuMjMpYyhcW2NIXW4zKT1bQ0hdXGM0W25IXWMoPU8pW25IXWM0W09IXQ==

>  <s_epik_cmdline>  (179) 
J2VwaWtfcHl0aG9uJywgJy1waHQnLCAnMi4wJywgJy1waCcsICc3LjAnLCAnLXRuJywgJzgnLCAnLW1hJywgJzIwMCcsICctaW1hZScsICc8aW5maWxlLm1hZT4nLCAnLW9tYWUnLCAnPG91dGZpbGUubWFlPic=

>  <r_lp_tautomer_probability>  (179) 
1

>  <r_epik_Ionization_Penalty>  (179) 
0.00378577

>  <r_epik_Ionization_Penalty_Charging>  (179) 
0.000193101

>  <r_epik_Ionization_Penalty_Neutral>  (179) 
0.00359267

>  <r_epik_State_Penalty>  (179) 
-0

>  <r_epik_Charging_Adjusted_Penalty>  (179) 
0.000193101

>  <i_epik_Tot_Q>  (179) 
0

>  <i_epik_Tot_abs_Q>  (179) 
2

>  <s_epik_Chemistry_Notes>  (179) 
This compound has an imine and may undergo hydrolysis.

>  <s_lp_Force_Field>  (179) 
OPLS3e

>  <r_lp_Energy>  (179) 
48.8378

>  <b_lp_Chiralities_Consistent>  (179) 
1

>  <s_lp_Variant>  (179) 
36:0-4

>  <s_i_glide_gridfile>  (179) 
pfpi4k_grid

>  <i_i_glide_lignum>  (179) 
22

>  <i_i_glide_rotatable_bonds>  (179) 
5

>  <r_i_docking_score>  (179) 
-3.41386

>  <r_i_glide_ligand_efficiency>  (179) 
-0.113795

>  <r_i_glide_ligand_efficiency_sa>  (179) 
-0.353588

>  <r_i_glide_ligand_efficiency_ln>  (179) 
-0.775665

>  <r_i_glide_gscore>  (179) 
-3.41386

>  <r_i_glide_lipo>  (179) 
-0.12935

>  <r_i_glide_hbond>  (179) 
-0.561061

>  <r_i_glide_metal>  (179) 
-0

>  <r_i_glide_rewards>  (179) 
-0.952695

>  <r_i_glide_evdw>  (179) 
-28.7591

>  <r_i_glide_ecoul>  (179) 
-4.87195

>  <r_i_glide_erotb>  (179) 
0.476102

>  <r_i_glide_esite>  (179) 
-0.0781057

>  <r_i_glide_emodel>  (179) 
-40.8953

>  <r_i_glide_energy>  (179) 
-33.631

>  <r_i_glide_einternal>  (179) 
3.63141

>  <r_i_glide_intrahb_reward>  (179) 
-0

>  <i_i_glide_confnum>  (179) 
3

>  <i_i_glide_posenum>  (179) 
22

>  <r_i_glide_eff_state_penalty>  (179) 
0

>  <ligand_id>  (179) 
36

>  <original_smiles>  (179) 
Cc1ccccc1NCC(C)(C)N=c1ncn2ncc(=Cc3[nH]c(=O)[nH]c3O)c2n1

>  <smiles>  (179) 
[H]C(c1c([O-])n([H])c(=O)n1[H])=c1c([H])nn2c([H])nc(=[N+]([H])C(C([H])([H])[H])(C([H])([H])[H])C([H])([H])N([H])c3c([H])c([H])c([H])c([H])c3C([H])([H])[H])nc12

$$$$
36:3:2
     RDKit          3D

 52 55  0  0  1  0  0  0  0  0999 V2000
   -2.1875    2.9874    5.7813 C   0  0  0  0  0  0  0  0  0  0  0  0
   -1.3555    1.9530    6.5386 C   0  0  0  0  0  0  0  0  0  0  0  0
   -1.3381    2.0124    7.9520 C   0  0  0  0  0  0  0  0  0  0  0  0
   -0.5677    1.1035    8.6993 C   0  0  0  0  0  0  0  0  0  0  0  0
    0.1977    0.1353    8.0321 C   0  0  0  0  0  0  0  0  0  0  0  0
    0.1937    0.0704    6.6299 C   0  0  0  0  0  0  0  0  0  0  0  0
   -0.5896    0.9654    5.8592 C   0  0  0  0  0  0  0  0  0  0  0  0
   -0.6414    0.8956    4.4504 N   0  0  0  0  0  0  0  0  0  0  0  0
    0.1377   -0.0526    3.6434 C   0  0  0  0  0  0  0  0  0  0  0  0
    1.3139    0.5764    2.8531 C   0  0  0  0  0  0  0  0  0  0  0  0
    0.7766    1.6799    1.9264 C   0  0  0  0  0  0  0  0  0  0  0  0
    2.3776    1.2584    3.7789 C   0  0  0  0  0  0  0  0  0  0  0  0
    1.9198   -0.4933    1.9739 N   0  0  0  0  0  0  0  0  0  0  0  0
    2.7382   -1.4646    2.2908 C   0  0  0  0  0  0  0  0  0  0  0  0
    3.0286   -1.6924    3.6132 N   0  0  0  0  0  0  0  0  0  0  0  0
    3.9240   -2.6037    3.8759 C   0  0  0  0  0  0  0  0  0  0  0  0
    4.4829   -3.3499    2.8524 N   0  0  0  0  0  0  0  0  0  0  0  0
    5.3359   -4.3631    3.0164 N   0  0  0  0  0  0  0  0  0  0  0  0
    5.5328   -4.8367    1.8382 C   0  0  0  0  0  0  0  0  0  0  0  0
    4.8124   -4.1345    0.8220 C   0  0  0  0  0  0  0  0  0  0  0  0
    4.8684   -4.4195   -0.4899 C   0  0  0  0  0  0  0  0  0  0  0  0
    4.2325   -3.6398   -1.5254 C   0  0  0  0  0  0  0  0  0  0  0  0
    4.8611   -2.9290   -2.5297 N   0  0  0  0  0  0  0  0  0  0  0  0
    3.9316   -2.3624   -3.3174 C   0  0  0  0  0  0  0  0  0  0  0  0
    4.1396   -1.6822   -4.3185 O   0  0  0  0  0  0  0  0  0  0  0  0
    2.7449   -2.6958   -2.7981 N   0  0  0  0  0  0  0  0  0  0  0  0
    2.8850   -3.4729   -1.7249 C   0  0  0  0  0  0  0  0  0  0  0  0
    1.7535   -3.8061   -1.2922 O   0  0  0  0  0  0  0  0  0  0  0  0
    4.1035   -3.1200    1.5396 C   0  0  0  0  0  0  0  0  0  0  0  0
    3.2606   -2.1757    1.2357 N   0  0  0  0  0  0  0  0  0  0  0  0
    5.8611   -2.8911   -2.6634 H   0  0  0  0  0  0  0  0  0  0  0  0
    1.8348   -2.4365   -3.1567 H   0  0  0  0  0  0  0  0  0  0  0  0
   -2.6697    3.6847    6.4645 H   0  0  0  0  0  0  0  0  0  0  0  0
   -2.9801    2.5267    5.1911 H   0  0  0  0  0  0  0  0  0  0  0  0
   -1.5585    3.5702    5.1053 H   0  0  0  0  0  0  0  0  0  0  0  0
   -1.9112    2.7670    8.4796 H   0  0  0  0  0  0  0  0  0  0  0  0
   -0.5514    1.1510    9.7813 H   0  0  0  0  0  0  0  0  0  0  0  0
    0.7944   -0.5755    8.5845 H   0  0  0  0  0  0  0  0  0  0  0  0
    0.8108   -0.7029    6.1931 H   0  0  0  0  0  0  0  0  0  0  0  0
   -1.3969    1.3752    3.9679 H   0  0  0  0  0  0  0  0  0  0  0  0
    0.5202   -0.9062    4.2074 H   0  0  0  0  0  0  0  0  0  0  0  0
   -0.5769   -0.4877    2.9382 H   0  0  0  0  0  0  0  0  0  0  0  0
    0.3955    2.5167    2.5107 H   0  0  0  0  0  0  0  0  0  0  0  0
   -0.0450    1.3470    1.2848 H   0  0  0  0  0  0  0  0  0  0  0  0
    1.5509    2.1117    1.2823 H   0  0  0  0  0  0  0  0  0  0  0  0
    1.9287    2.0851    4.3437 H   0  0  0  0  0  0  0  0  0  0  0  0
    3.1893    1.6665    3.1732 H   0  0  0  0  0  0  0  0  0  0  0  0
    2.8167    0.6234    4.5500 H   0  0  0  0  0  0  0  0  0  0  0  0
    4.3167   -2.8194    4.8631 H   0  0  0  0  0  0  0  0  0  0  0  0
    6.1759   -5.6849    1.5847 H   0  0  0  0  0  0  0  0  0  0  0  0
    5.4868   -5.2538   -0.8087 H   0  0  0  0  0  0  0  0  0  0  0  0
    1.6747   -0.4607    0.9768 H   0  0  0  0  0  0  0  0  0  0  0  0
  1  2  1  0
  1 33  1  0
  1 34  1  0
  1 35  1  0
  2  7  2  0
  2  3  1  0
  3  4  2  0
  3 36  1  0
  4  5  1  0
  4 37  1  0
  5  6  2  0
  5 38  1  0
  6  7  1  0
  6 39  1  0
  7  8  1  0
  8  9  1  0
  8 40  1  0
  9 10  1  0
  9 41  1  0
  9 42  1  0
 10 11  1  0
 10 12  1  0
 10 13  1  0
 11 43  1  0
 11 44  1  0
 11 45  1  0
 12 46  1  0
 12 47  1  0
 12 48  1  0
 13 14  2  3
 13 52  1  0
 14 30  1  0
 14 15  1  0
 15 16  2  0
 16 17  1  0
 16 49  1  0
 17 29  1  0
 17 18  1  0
 18 19  2  0
 19 20  1  0
 19 50  1  0
 20 21  2  3
 20 29  1  0
 21 22  1  0
 21 51  1  0
 22 27  2  0
 22 23  1  0
 23 31  1  0
 23 24  1  0
 24 25  2  0
 24 26  1  0
 26 32  1  0
 26 27  1  0
 27 28  1  0
 29 30  2  0
M  CHG  2  13   1  28  -1
M  END
>  <i_m_ct_stereo_status>  (180) 
1

>  <s_m_source_file>  (180) 
/var/tmp/pbs.5102103.sched01/tmprp2a6t7u/44c8wyhmqh.sdf

>  <i_m_source_file_index>  (180) 
22

>  <i_lp_mmshare_version>  (180) 
48012

>  <i_f3d_flags>  (180) 
0

>  <s_epik_input>  (180) 
W0NIM11jMVtjSF1bY0hdW2NIXVtjSF1jMVtOSF1bQ0gyXUMoW0NIM10pKFtDSDNdKS9OPWMoL25bY0hdMiluYyhuMjMpYyhcW2NIXW4zKT1bQ0hdXGM0W25IXWMoPU8pW25IXWM0W09IXQ==

>  <s_epik_cmdline>  (180) 
J2VwaWtfcHl0aG9uJywgJy1waHQnLCAnMi4wJywgJy1waCcsICc3LjAnLCAnLXRuJywgJzgnLCAnLW1hJywgJzIwMCcsICctaW1hZScsICc8aW5maWxlLm1hZT4nLCAnLW9tYWUnLCAnPG91dGZpbGUubWFlPic=

>  <r_lp_tautomer_probability>  (180) 
1

>  <r_epik_Ionization_Penalty>  (180) 
0.00378577

>  <r_epik_Ionization_Penalty_Charging>  (180) 
0.000193101

>  <r_epik_Ionization_Penalty_Neutral>  (180) 
0.00359267

>  <r_epik_State_Penalty>  (180) 
-0

>  <r_epik_Charging_Adjusted_Penalty>  (180) 
0.000193101

>  <i_epik_Tot_Q>  (180) 
0

>  <i_epik_Tot_abs_Q>  (180) 
2

>  <s_epik_Chemistry_Notes>  (180) 
This compound has an imine and may undergo hydrolysis.

>  <s_lp_Force_Field>  (180) 
OPLS3e

>  <r_lp_Energy>  (180) 
48.8378

>  <b_lp_Chiralities_Consistent>  (180) 
1

>  <s_lp_Variant>  (180) 
36:0-4

>  <s_i_glide_gridfile>  (180) 
pfpi4k_grid

>  <i_i_glide_lignum>  (180) 
22

>  <i_i_glide_rotatable_bonds>  (180) 
5

>  <r_i_docking_score>  (180) 
-3.25536

>  <r_i_glide_ligand_efficiency>  (180) 
-0.108512

>  <r_i_glide_ligand_efficiency_sa>  (180) 
-0.337172

>  <r_i_glide_ligand_efficiency_ln>  (180) 
-0.739653

>  <r_i_glide_gscore>  (180) 
-3.25536

>  <r_i_glide_lipo>  (180) 
-0.238768

>  <r_i_glide_hbond>  (180) 
-0.513402

>  <r_i_glide_metal>  (180) 
-0

>  <r_i_glide_rewards>  (180) 
-0.909788

>  <r_i_glide_evdw>  (180) 
-29.64

>  <r_i_glide_ecoul>  (180) 
-3.19398

>  <r_i_glide_erotb>  (180) 
0.476102

>  <r_i_glide_esite>  (180) 
-0.108405

>  <r_i_glide_emodel>  (180) 
-37.9206

>  <r_i_glide_energy>  (180) 
-32.834

>  <r_i_glide_einternal>  (180) 
6.29577

>  <r_i_glide_intrahb_reward>  (180) 
-0

>  <i_i_glide_confnum>  (180) 
2

>  <i_i_glide_posenum>  (180) 
26

>  <r_i_glide_eff_state_penalty>  (180) 
0

>  <ligand_id>  (180) 
36

>  <original_smiles>  (180) 
Cc1ccccc1NCC(C)(C)N=c1ncn2ncc(=Cc3[nH]c(=O)[nH]c3O)c2n1

>  <smiles>  (180) 
[H]C(c1c([O-])n([H])c(=O)n1[H])=c1c([H])nn2c([H])nc(=[N+]([H])C(C([H])([H])[H])(C([H])([H])[H])C([H])([H])N([H])c3c([H])c([H])c([H])c([H])c3C([H])([H])[H])nc12

$$$$
37:0:0
     RDKit          3D

 21 23  0  0  1  0  0  0  0  0999 V2000
    3.6882  -11.2323    3.8807 C   0  0  0  0  0  0  0  0  0  0  0  0
    4.3246  -10.4649    2.8841 C   0  0  0  0  0  0  0  0  0  0  0  0
    3.6546   -9.3821    2.2808 C   0  0  0  0  0  0  0  0  0  0  0  0
    2.3345   -9.0683    2.6739 C   0  0  0  0  0  0  0  0  0  0  0  0
    1.7116   -9.8197    3.7001 C   0  0  0  0  0  0  0  0  0  0  0  0
    2.3833  -10.9063    4.2972 C   0  0  0  0  0  0  0  0  0  0  0  0
    0.3072   -9.4440    4.1469 C   0  0  0  0  0  0  0  0  0  0  0  0
   -0.5239   -8.8939    2.9738 C   0  0  0  0  0  0  0  0  0  0  0  0
    0.2796   -7.9130    2.1740 C   0  0  0  0  0  0  0  0  0  0  0  0
   -0.1533   -6.8447    1.5121 N   0  0  0  0  0  0  0  0  0  0  0  0
    1.0085   -6.3151    0.9549 N   0  0  0  0  0  0  0  0  0  0  0  0
    2.0626   -7.0139    1.2802 N   0  0  0  0  0  0  0  0  0  0  0  0
    1.6042   -8.0294    2.0484 N   0  0  0  0  0  0  0  0  0  0  0  0
    4.1961  -12.0763    4.3203 H   0  0  0  0  0  0  0  0  0  0  0  0
    5.3238  -10.7274    2.5627 H   0  0  0  0  0  0  0  0  0  0  0  0
    4.1469   -8.8188    1.4997 H   0  0  0  0  0  0  0  0  0  0  0  0
    1.8989  -11.4989    5.0642 H   0  0  0  0  0  0  0  0  0  0  0  0
   -0.1856  -10.2840    4.6344 H   0  0  0  0  0  0  0  0  0  0  0  0
    0.4100   -8.6606    4.8984 H   0  0  0  0  0  0  0  0  0  0  0  0
   -0.7995   -9.7144    2.3114 H   0  0  0  0  0  0  0  0  0  0  0  0
   -1.4454   -8.4333    3.3258 H   0  0  0  0  0  0  0  0  0  0  0  0
  1  6  2  0
  1  2  1  0
  1 14  1  0
  2  3  2  0
  2 15  1  0
  3  4  1  0
  3 16  1  0
  4 13  1  0
  4  5  2  0
  5  6  1  0
  5  7  1  0
  6 17  1  0
  7  8  1  0
  7 18  1  0
  7 19  1  0
  8  9  1  0
  8 20  1  0
  8 21  1  0
  9 13  1  0
  9 10  2  0
 10 11  1  0
 11 12  2  0
 12 13  1  0
M  END
>  <i_m_ct_stereo_status>  (181) 
1

>  <s_m_source_file>  (181) 
/var/tmp/pbs.5102103.sched01/tmpup5_gzpn/66d1evxq16.sdf

>  <i_m_source_file_index>  (181) 
1

>  <i_lp_mmshare_version>  (181) 
48012

>  <i_f3d_flags>  (181) 
0

>  <s_epik_input>  (181) 
W2NIXTFbY0hdW2NIXVtjSF1jKGMxMilbQ0gyXVtDSDJdYzNuMm5ubjM=

>  <s_epik_cmdline>  (181) 
J2VwaWtfcHl0aG9uJywgJy1waHQnLCAnMi4wJywgJy1waCcsICc3LjAnLCAnLXRuJywgJzgnLCAnLW1hJywgJzIwMCcsICctaW1hZScsICc8aW5maWxlLm1hZT4nLCAnLW9tYWUnLCAnPG91dGZpbGUubWFlPic=

>  <r_lp_tautomer_probability>  (181) 
1

>  <r_epik_Ionization_Penalty>  (181) 
3.449e-09

>  <r_epik_Ionization_Penalty_Charging>  (181) 
0

>  <r_epik_Ionization_Penalty_Neutral>  (181) 
3.449e-09

>  <r_epik_State_Penalty>  (181) 
-0

>  <r_epik_Charging_Adjusted_Penalty>  (181) 
0

>  <i_epik_Tot_Q>  (181) 
0

>  <i_epik_Tot_abs_Q>  (181) 
0

>  <s_lp_Force_Field>  (181) 
OPLS3e

>  <r_lp_Energy>  (181) 
20.0467

>  <b_lp_Chiralities_Consistent>  (181) 
1

>  <s_lp_Variant>  (181) 
37:0-1

>  <s_i_glide_gridfile>  (181) 
pfpi4k_grid

>  <i_i_glide_lignum>  (181) 
1

>  <i_i_glide_rotatable_bonds>  (181) 
0

>  <r_i_docking_score>  (181) 
-3.98364

>  <r_i_glide_ligand_efficiency>  (181) 
-0.306434

>  <r_i_glide_ligand_efficiency_sa>  (181) 
-0.720528

>  <r_i_glide_ligand_efficiency_ln>  (181) 
-1.11745

>  <r_i_glide_gscore>  (181) 
-3.98364

>  <r_i_glide_lipo>  (181) 
-0.00139699

>  <r_i_glide_hbond>  (181) 
0

>  <r_i_glide_metal>  (181) 
-0

>  <r_i_glide_rewards>  (181) 
-2.23509

>  <r_i_glide_evdw>  (181) 
-17.6707

>  <r_i_glide_ecoul>  (181) 
-3.75733

>  <r_i_glide_erotb>  (181) 
0

>  <r_i_glide_esite>  (181) 
-0.300018

>  <r_i_glide_emodel>  (181) 
-27.6427

>  <r_i_glide_energy>  (181) 
-21.428

>  <r_i_glide_einternal>  (181) 
0

>  <r_i_glide_intrahb_reward>  (181) 
-0

>  <i_i_glide_confnum>  (181) 
1

>  <i_i_glide_posenum>  (181) 
9

>  <r_i_glide_eff_state_penalty>  (181) 
0

>  <ligand_id>  (181) 
37

>  <original_smiles>  (181) 
c1ccc2c(c1)CCc1nnnn1-2

>  <smiles>  (181) 
[H]c1c([H])c([H])c2c(c1[H])-n1nnnc1C([H])([H])C2([H])[H]

$$$$
37:0:1
     RDKit          3D

 21 23  0  0  1  0  0  0  0  0999 V2000
    3.7961   -1.1112   -3.7294 C   0  0  0  0  0  0  0  0  0  0  0  0
    3.0184   -2.2823   -3.7399 C   0  0  0  0  0  0  0  0  0  0  0  0
    2.8738   -3.0521   -2.5704 C   0  0  0  0  0  0  0  0  0  0  0  0
    3.5352   -2.6660   -1.3851 C   0  0  0  0  0  0  0  0  0  0  0  0
    4.2996   -1.4756   -1.3684 C   0  0  0  0  0  0  0  0  0  0  0  0
    4.4262   -0.7040   -2.5397 C   0  0  0  0  0  0  0  0  0  0  0  0
    4.9740   -1.0406   -0.0743 C   0  0  0  0  0  0  0  0  0  0  0  0
    5.4184   -2.2571    0.7546 C   0  0  0  0  0  0  0  0  0  0  0  0
    4.3384   -3.2933    0.7946 C   0  0  0  0  0  0  0  0  0  0  0  0
    4.0757   -4.1549    1.7674 N   0  0  0  0  0  0  0  0  0  0  0  0
    2.9857   -4.8718    1.2836 N   0  0  0  0  0  0  0  0  0  0  0  0
    2.6283   -4.4657    0.0956 N   0  0  0  0  0  0  0  0  0  0  0  0
    3.4816   -3.4631   -0.2155 N   0  0  0  0  0  0  0  0  0  0  0  0
    3.8998   -0.5204   -4.6266 H   0  0  0  0  0  0  0  0  0  0  0  0
    2.5291   -2.6042   -4.6466 H   0  0  0  0  0  0  0  0  0  0  0  0
    2.2641   -3.9425   -2.5946 H   0  0  0  0  0  0  0  0  0  0  0  0
    5.0106    0.2012   -2.5283 H   0  0  0  0  0  0  0  0  0  0  0  0
    5.8033   -0.3538   -0.2570 H   0  0  0  0  0  0  0  0  0  0  0  0
    4.2281   -0.4854    0.4970 H   0  0  0  0  0  0  0  0  0  0  0  0
    6.2933   -2.7115    0.2885 H   0  0  0  0  0  0  0  0  0  0  0  0
    5.6988   -1.9673    1.7668 H   0  0  0  0  0  0  0  0  0  0  0  0
  1  6  2  0
  1  2  1  0
  1 14  1  0
  2  3  2  0
  2 15  1  0
  3  4  1  0
  3 16  1  0
  4 13  1  0
  4  5  2  0
  5  6  1  0
  5  7  1  0
  6 17  1  0
  7  8  1  0
  7 18  1  0
  7 19  1  0
  8  9  1  0
  8 20  1  0
  8 21  1  0
  9 13  1  0
  9 10  2  0
 10 11  1  0
 11 12  2  0
 12 13  1  0
M  END
>  <i_m_ct_stereo_status>  (182) 
1

>  <s_m_source_file>  (182) 
/var/tmp/pbs.5102103.sched01/tmpup5_gzpn/66d1evxq16.sdf

>  <i_m_source_file_index>  (182) 
1

>  <i_lp_mmshare_version>  (182) 
48012

>  <i_f3d_flags>  (182) 
0

>  <s_epik_input>  (182) 
W2NIXTFbY0hdW2NIXVtjSF1jKGMxMilbQ0gyXVtDSDJdYzNuMm5ubjM=

>  <s_epik_cmdline>  (182) 
J2VwaWtfcHl0aG9uJywgJy1waHQnLCAnMi4wJywgJy1waCcsICc3LjAnLCAnLXRuJywgJzgnLCAnLW1hJywgJzIwMCcsICctaW1hZScsICc8aW5maWxlLm1hZT4nLCAnLW9tYWUnLCAnPG91dGZpbGUubWFlPic=

>  <r_lp_tautomer_probability>  (182) 
1

>  <r_epik_Ionization_Penalty>  (182) 
3.449e-09

>  <r_epik_Ionization_Penalty_Charging>  (182) 
0

>  <r_epik_Ionization_Penalty_Neutral>  (182) 
3.449e-09

>  <r_epik_State_Penalty>  (182) 
-0

>  <r_epik_Charging_Adjusted_Penalty>  (182) 
0

>  <i_epik_Tot_Q>  (182) 
0

>  <i_epik_Tot_abs_Q>  (182) 
0

>  <s_lp_Force_Field>  (182) 
OPLS3e

>  <r_lp_Energy>  (182) 
20.0467

>  <b_lp_Chiralities_Consistent>  (182) 
1

>  <s_lp_Variant>  (182) 
37:0-1

>  <s_i_glide_gridfile>  (182) 
pfpi4k_grid

>  <i_i_glide_lignum>  (182) 
1

>  <i_i_glide_rotatable_bonds>  (182) 
0

>  <r_i_docking_score>  (182) 
-3.93601

>  <r_i_glide_ligand_efficiency>  (182) 
-0.30277

>  <r_i_glide_ligand_efficiency_sa>  (182) 
-0.711913

>  <r_i_glide_ligand_efficiency_ln>  (182) 
-1.10409

>  <r_i_glide_gscore>  (182) 
-3.93601

>  <r_i_glide_lipo>  (182) 
-0.46344

>  <r_i_glide_hbond>  (182) 
0

>  <r_i_glide_metal>  (182) 
-0

>  <r_i_glide_rewards>  (182) 
-2.29023

>  <r_i_glide_evdw>  (182) 
-19.5219

>  <r_i_glide_ecoul>  (182) 
-1.03578

>  <r_i_glide_erotb>  (182) 
0

>  <r_i_glide_esite>  (182) 
-0.0508732

>  <r_i_glide_emodel>  (182) 
-26.6887

>  <r_i_glide_energy>  (182) 
-20.5577

>  <r_i_glide_einternal>  (182) 
0

>  <r_i_glide_intrahb_reward>  (182) 
-0

>  <i_i_glide_confnum>  (182) 
1

>  <i_i_glide_posenum>  (182) 
8

>  <r_i_glide_eff_state_penalty>  (182) 
0

>  <ligand_id>  (182) 
37

>  <original_smiles>  (182) 
c1ccc2c(c1)CCc1nnnn1-2

>  <smiles>  (182) 
[H]c1c([H])c([H])c2c(c1[H])-n1nnnc1C([H])([H])C2([H])[H]

$$$$
37:0:2
     RDKit          3D

 21 23  0  0  1  0  0  0  0  0999 V2000
    1.8884   -9.6412    6.1464 C   0  0  0  0  0  0  0  0  0  0  0  0
    3.0064   -9.1230    5.4651 C   0  0  0  0  0  0  0  0  0  0  0  0
    2.8347   -8.3481    4.3036 C   0  0  0  0  0  0  0  0  0  0  0  0
    1.5332   -8.1017    3.8170 C   0  0  0  0  0  0  0  0  0  0  0  0
    0.4066   -8.6004    4.5203 C   0  0  0  0  0  0  0  0  0  0  0  0
    0.5875   -9.3807    5.6774 C   0  0  0  0  0  0  0  0  0  0  0  0
   -0.9932   -8.2958    4.0027 C   0  0  0  0  0  0  0  0  0  0  0  0
   -1.0091   -8.2188    2.4679 C   0  0  0  0  0  0  0  0  0  0  0  0
    0.1544   -7.4245    1.9616 C   0  0  0  0  0  0  0  0  0  0  0  0
    0.2055   -6.6546    0.8838 N   0  0  0  0  0  0  0  0  0  0  0  0
    1.5063   -6.1663    0.8935 N   0  0  0  0  0  0  0  0  0  0  0  0
    2.1714   -6.5869    1.9361 N   0  0  0  0  0  0  0  0  0  0  0  0
    1.3198   -7.3947    2.6063 N   0  0  0  0  0  0  0  0  0  0  0  0
    2.0257  -10.2563    7.0214 H   0  0  0  0  0  0  0  0  0  0  0  0
    4.0013   -9.3372    5.8285 H   0  0  0  0  0  0  0  0  0  0  0  0
    3.7000   -7.9671    3.7755 H   0  0  0  0  0  0  0  0  0  0  0  0
   -0.2675   -9.7978    6.1938 H   0  0  0  0  0  0  0  0  0  0  0  0
   -1.7236   -9.0220    4.3660 H   0  0  0  0  0  0  0  0  0  0  0  0
   -1.2774   -7.3235    4.4093 H   0  0  0  0  0  0  0  0  0  0  0  0
   -0.9235   -9.2233    2.0525 H   0  0  0  0  0  0  0  0  0  0  0  0
   -1.9421   -7.7935    2.1036 H   0  0  0  0  0  0  0  0  0  0  0  0
  1  6  2  0
  1  2  1  0
  1 14  1  0
  2  3  2  0
  2 15  1  0
  3  4  1  0
  3 16  1  0
  4 13  1  0
  4  5  2  0
  5  6  1  0
  5  7  1  0
  6 17  1  0
  7  8  1  0
  7 18  1  0
  7 19  1  0
  8  9  1  0
  8 20  1  0
  8 21  1  0
  9 13  1  0
  9 10  2  0
 10 11  1  0
 11 12  2  0
 12 13  1  0
M  END
>  <i_m_ct_stereo_status>  (183) 
1

>  <s_m_source_file>  (183) 
/var/tmp/pbs.5102103.sched01/tmpup5_gzpn/66d1evxq16.sdf

>  <i_m_source_file_index>  (183) 
1

>  <i_lp_mmshare_version>  (183) 
48012

>  <i_f3d_flags>  (183) 
0

>  <s_epik_input>  (183) 
W2NIXTFbY0hdW2NIXVtjSF1jKGMxMilbQ0gyXVtDSDJdYzNuMm5ubjM=

>  <s_epik_cmdline>  (183) 
J2VwaWtfcHl0aG9uJywgJy1waHQnLCAnMi4wJywgJy1waCcsICc3LjAnLCAnLXRuJywgJzgnLCAnLW1hJywgJzIwMCcsICctaW1hZScsICc8aW5maWxlLm1hZT4nLCAnLW9tYWUnLCAnPG91dGZpbGUubWFlPic=

>  <r_lp_tautomer_probability>  (183) 
1

>  <r_epik_Ionization_Penalty>  (183) 
3.449e-09

>  <r_epik_Ionization_Penalty_Charging>  (183) 
0

>  <r_epik_Ionization_Penalty_Neutral>  (183) 
3.449e-09

>  <r_epik_State_Penalty>  (183) 
-0

>  <r_epik_Charging_Adjusted_Penalty>  (183) 
0

>  <i_epik_Tot_Q>  (183) 
0

>  <i_epik_Tot_abs_Q>  (183) 
0

>  <s_lp_Force_Field>  (183) 
OPLS3e

>  <r_lp_Energy>  (183) 
20.0467

>  <b_lp_Chiralities_Consistent>  (183) 
1

>  <s_lp_Variant>  (183) 
37:0-1

>  <s_i_glide_gridfile>  (183) 
pfpi4k_grid

>  <i_i_glide_lignum>  (183) 
1

>  <i_i_glide_rotatable_bonds>  (183) 
0

>  <r_i_docking_score>  (183) 
-3.87619

>  <r_i_glide_ligand_efficiency>  (183) 
-0.298168

>  <r_i_glide_ligand_efficiency_sa>  (183) 
-0.701094

>  <r_i_glide_ligand_efficiency_ln>  (183) 
-1.08731

>  <r_i_glide_gscore>  (183) 
-3.87619

>  <r_i_glide_lipo>  (183) 
0

>  <r_i_glide_hbond>  (183) 
0

>  <r_i_glide_metal>  (183) 
-0

>  <r_i_glide_rewards>  (183) 
-2.23509

>  <r_i_glide_evdw>  (183) 
-16.5732

>  <r_i_glide_ecoul>  (183) 
-3.50521

>  <r_i_glide_erotb>  (183) 
0

>  <r_i_glide_esite>  (183) 
-0.286656

>  <r_i_glide_emodel>  (183) 
-26.112

>  <r_i_glide_energy>  (183) 
-20.0784

>  <r_i_glide_einternal>  (183) 
0

>  <r_i_glide_intrahb_reward>  (183) 
-0

>  <i_i_glide_confnum>  (183) 
2

>  <i_i_glide_posenum>  (183) 
29

>  <r_i_glide_eff_state_penalty>  (183) 
0

>  <ligand_id>  (183) 
37

>  <original_smiles>  (183) 
c1ccc2c(c1)CCc1nnnn1-2

>  <smiles>  (183) 
[H]c1c([H])c([H])c2c(c1[H])-n1nnnc1C([H])([H])C2([H])[H]

$$$$
38:0:0
     RDKit          3D

 40 42  0  0  1  0  0  0  0  0999 V2000
    1.6546   -1.1032    3.9901 C   0  0  0  0  0  0  0  0  0  0  0  0
    2.1385   -0.3146    2.7674 C   0  0  0  0  0  0  0  0  0  0  0  0
    2.6569   -1.3155    1.7303 C   0  0  0  0  0  0  0  0  0  0  0  0
    0.6790    0.5780    2.1065 S   0  0  0  0  0  0  0  0  0  0  0  0
    1.2674    2.2723    2.4127 C   0  0  1  0  0  0  0  0  0  0  0  0
    0.7733    3.2118    3.5223 C   0  0  1  0  0  0  0  0  0  0  0  0
   -0.3933    2.6727    4.2250 N   0  0  0  0  0  0  0  0  0  0  0  0
   -0.9607    3.2403    5.2977 C   0  0  0  0  0  0  0  0  0  0  0  0
   -0.6573    4.3659    5.7015 O   0  0  0  0  0  0  0  0  0  0  0  0
   -2.0659    2.4438    6.0052 C   0  0  0  0  0  0  0  0  0  0  0  0
   -2.1104    2.6987    7.4989 C   0  0  0  0  0  0  0  0  0  0  0  0
   -0.9239    2.6590    8.2710 C   0  0  0  0  0  0  0  0  0  0  0  0
   -0.9740    2.8884    9.6566 C   0  0  0  0  0  0  0  0  0  0  0  0
   -2.2042    3.1457   10.2842 C   0  0  0  0  0  0  0  0  0  0  0  0
   -3.3876    3.1692    9.5268 C   0  0  0  0  0  0  0  0  0  0  0  0
   -3.3446    2.9461    8.1408 C   0  0  0  0  0  0  0  0  0  0  0  0
    2.1156    2.8961    4.2196 C   0  0  0  0  0  0  0  0  0  0  0  0
    2.6683    3.2262    5.2373 O   0  0  0  0  0  0  0  0  0  0  0  0
    2.4396    1.9989    3.2237 N   0  0  0  0  0  0  0  0  0  0  0  0
    3.2005    0.7632    3.1325 C   0  0  1  0  0  0  0  0  0  0  0  0
    4.0728    0.4346    4.3642 C   0  0  0  0  0  0  0  0  0  0  0  0
    3.4969    0.4959    5.4770 O   0  0  0  0  0  0  0  0  0  0  0  0
    5.2748    0.1749    4.1794 O   0  0  0  0  0  0  0  0  0  0  0  0
    2.4840   -1.6263    4.4715 H   0  0  0  0  0  0  0  0  0  0  0  0
    0.9078   -1.8412    3.7381 H   0  0  0  0  0  0  0  0  0  0  0  0
    1.2237   -0.4380    4.7344 H   0  0  0  0  0  0  0  0  0  0  0  0
    3.4540   -1.9297    2.1397 H   0  0  0  0  0  0  0  0  0  0  0  0
    3.0439   -0.8386    0.8355 H   0  0  0  0  0  0  0  0  0  0  0  0
    1.8721   -1.9937    1.4022 H   0  0  0  0  0  0  0  0  0  0  0  0
    1.4664    2.8104    1.4808 H   0  0  0  0  0  0  0  0  0  0  0  0
    0.6560    4.2481    3.2267 H   0  0  0  0  0  0  0  0  0  0  0  0
   -0.7442    1.7866    3.9006 H   0  0  0  0  0  0  0  0  0  0  0  0
   -3.0228    2.7069    5.5445 H   0  0  0  0  0  0  0  0  0  0  0  0
   -1.9219    1.3766    5.8200 H   0  0  0  0  0  0  0  0  0  0  0  0
    0.0185    2.4671    7.8056 H   0  0  0  0  0  0  0  0  0  0  0  0
   -0.0696    2.8860   10.2301 H   0  0  0  0  0  0  0  0  0  0  0  0
   -2.2457    3.3140   11.3380 H   0  0  0  0  0  0  0  0  0  0  0  0
   -4.3298    3.3421   10.0054 H   0  0  0  0  0  0  0  0  0  0  0  0
   -4.2487    2.9422    7.5726 H   0  0  0  0  0  0  0  0  0  0  0  0
    3.8740    0.8959    2.2970 H   0  0  0  0  0  0  0  0  0  0  0  0
  1  2  1  0
  1 24  1  0
  1 25  1  0
  1 26  1  0
  2 20  1  0
  2  3  1  0
  2  4  1  0
  3 27  1  0
  3 28  1  0
  3 29  1  0
  4  5  1  0
  5 19  1  0
  5  6  1  0
  5 30  1  6
  6  7  1  0
  6 17  1  0
  6 31  1  6
  7  8  1  0
  7 32  1  0
  8  9  2  0
  8 10  1  0
 10 11  1  0
 10 33  1  0
 10 34  1  0
 11 16  1  0
 11 12  2  0
 12 13  1  0
 12 35  1  0
 13 14  2  0
 13 36  1  0
 14 15  1  0
 14 37  1  0
 15 16  2  0
 15 38  1  0
 16 39  1  0
 17 18  2  0
 17 19  1  0
 19 20  1  0
 20 21  1  0
 20 40  1  6
 21 22  2  0
 21 23  1  0
M  CHG  1  23  -1
M  END
>  <i_m_ct_stereo_status>  (184) 
1

>  <s_m_source_file>  (184) 
/var/tmp/pbs.5102103.sched01/tmpup5_gzpn/66d1evxq16.sdf

>  <i_m_source_file_index>  (184) 
2

>  <i_lp_mmshare_version>  (184) 
48012

>  <i_f3d_flags>  (184) 
0

>  <s_epik_input>  (184) 
W0NIM11DKFMxKShbQ0gzXSlbQ0BIXShDKD1PKVtPSF0pTihbQ0BASF0xMilDKD1PKVtDQEBIXTJbTkhdQyg9TylbQ0gyXWMzW2NIXVtjSF1bY0hdW2NIXVtjSF0z

>  <s_epik_cmdline>  (184) 
J2VwaWtfcHl0aG9uJywgJy1waHQnLCAnMi4wJywgJy1waCcsICc3LjAnLCAnLXRuJywgJzgnLCAnLW1hJywgJzIwMCcsICctaW1hZScsICc8aW5maWxlLm1hZT4nLCAnLW9tYWUnLCAnPG91dGZpbGUubWFlPic=

>  <r_lp_tautomer_probability>  (184) 
1

>  <r_epik_Ionization_Penalty>  (184) 
2.93496e-05

>  <r_epik_Ionization_Penalty_Charging>  (184) 
2.92734e-05

>  <r_epik_Ionization_Penalty_Neutral>  (184) 
7.61972e-08

>  <r_epik_State_Penalty>  (184) 
-0

>  <r_epik_Charging_Adjusted_Penalty>  (184) 
2.92734e-05

>  <i_epik_Tot_Q>  (184) 
-1

>  <i_epik_Tot_abs_Q>  (184) 
1

>  <s_epik_Chemistry_Notes>  (184) 
This compound contains an acetal/aminal-like group ( X-CH(R)-Y where X, Y are N, S, or O) that may be acid/base labile, releasing an aldehyde.

>  <s_lp_Force_Field>  (184) 
OPLS3e

>  <r_lp_Energy>  (184) 
33.1369

>  <b_lp_Chiralities_Consistent>  (184) 
1

>  <s_lp_Variant>  (184) 
38:0-1

>  <s_i_glide_gridfile>  (184) 
pfpi4k_grid

>  <i_i_glide_lignum>  (184) 
2

>  <i_i_glide_rotatable_bonds>  (184) 
5

>  <r_i_docking_score>  (184) 
-2.3757

>  <r_i_glide_ligand_efficiency>  (184) 
-0.103291

>  <r_i_glide_ligand_efficiency_sa>  (184) 
-0.293746

>  <r_i_glide_ligand_efficiency_ln>  (184) 
-0.574465

>  <r_i_glide_gscore>  (184) 
-2.3757

>  <r_i_glide_lipo>  (184) 
-0.171063

>  <r_i_glide_hbond>  (184) 
0

>  <r_i_glide_metal>  (184) 
-0

>  <r_i_glide_rewards>  (184) 
-1.14467

>  <r_i_glide_evdw>  (184) 
-22.7895

>  <r_i_glide_ecoul>  (184) 
-2.40864

>  <r_i_glide_erotb>  (184) 
0.508712

>  <r_i_glide_esite>  (184) 
-0.0679041

>  <r_i_glide_emodel>  (184) 
-27.6051

>  <r_i_glide_energy>  (184) 
-25.1981

>  <r_i_glide_einternal>  (184) 
3.16991

>  <r_i_glide_intrahb_reward>  (184) 
-0

>  <i_i_glide_confnum>  (184) 
2

>  <i_i_glide_posenum>  (184) 
18

>  <r_i_glide_eff_state_penalty>  (184) 
0

>  <ligand_id>  (184) 
38

>  <original_smiles>  (184) 
CC1(C)SC2C(NC(=O)Cc3ccccc3)C(=O)N2C1C(=O)O

>  <smiles>  (184) 
[H]c1c([H])c([H])c(C([H])([H])C(=O)N([H])C2([H])C(=O)N3C2([H])SC(C([H])([H])[H])(C([H])([H])[H])C3([H])C(=O)[O-])c([H])c1[H]

$$$$
38:0:1
     RDKit          3D

 40 42  0  0  1  0  0  0  0  0999 V2000
    2.5502    0.9309    5.8067 C   0  0  0  0  0  0  0  0  0  0  0  0
    2.7685    1.3056    4.3383 C   0  0  0  0  0  0  0  0  0  0  0  0
    4.0483    0.6065    3.8662 C   0  0  0  0  0  0  0  0  0  0  0  0
    1.3194    0.6473    3.4048 S   0  0  0  0  0  0  0  0  0  0  0  0
    0.6210    2.2271    2.8216 C   0  0  1  0  0  0  0  0  0  0  0  0
   -0.6383    2.9420    3.3650 C   0  0  1  0  0  0  0  0  0  0  0  0
   -1.3692    2.1052    4.3334 N   0  0  0  0  0  0  0  0  0  0  0  0
   -1.9991    2.5404    5.4444 C   0  0  0  0  0  0  0  0  0  0  0  0
   -2.2360    3.7229    5.6721 O   0  0  0  0  0  0  0  0  0  0  0  0
   -2.4227    1.4824    6.4616 C   0  0  0  0  0  0  0  0  0  0  0  0
   -1.3866    1.3056    7.5454 C   0  0  0  0  0  0  0  0  0  0  0  0
   -0.3338    0.3824    7.3690 C   0  0  0  0  0  0  0  0  0  0  0  0
    0.6258    0.1860    8.3822 C   0  0  0  0  0  0  0  0  0  0  0  0
    0.5345    0.9126    9.5878 C   0  0  0  0  0  0  0  0  0  0  0  0
   -0.5201    1.8313    9.7751 C   0  0  0  0  0  0  0  0  0  0  0  0
   -1.4735    2.0316    8.7576 C   0  0  0  0  0  0  0  0  0  0  0  0
    0.3658    3.9284    3.9914 C   0  0  0  0  0  0  0  0  0  0  0  0
    0.2785    4.9572    4.6382 O   0  0  0  0  0  0  0  0  0  0  0  0
    1.4371    3.1625    3.5893 N   0  0  0  0  0  0  0  0  0  0  0  0
    2.7843    2.8608    4.0789 C   0  0  1  0  0  0  0  0  0  0  0  0
    3.2921    3.7618    5.2543 C   0  0  0  0  0  0  0  0  0  0  0  0
    4.4563    4.2382    5.1718 O   0  0  0  0  0  0  0  0  0  0  0  0
    2.5476    3.9488    6.2350 O   0  0  0  0  0  0  0  0  0  0  0  0
    3.3495    1.2851    6.4560 H   0  0  0  0  0  0  0  0  0  0  0  0
    2.4660   -0.1379    5.9760 H   0  0  0  0  0  0  0  0  0  0  0  0
    1.6334    1.4111    6.1284 H   0  0  0  0  0  0  0  0  0  0  0  0
    4.9009    0.9244    4.4601 H   0  0  0  0  0  0  0  0  0  0  0  0
    4.2644    0.8085    2.8210 H   0  0  0  0  0  0  0  0  0  0  0  0
    3.9685   -0.4724    3.9678 H   0  0  0  0  0  0  0  0  0  0  0  0
    0.7082    2.3066    1.7324 H   0  0  0  0  0  0  0  0  0  0  0  0
   -1.2618    3.3887    2.5913 H   0  0  0  0  0  0  0  0  0  0  0  0
   -1.3042    1.1121    4.1876 H   0  0  0  0  0  0  0  0  0  0  0  0
   -3.3771    1.7798    6.9001 H   0  0  0  0  0  0  0  0  0  0  0  0
   -2.5844    0.5236    5.9663 H   0  0  0  0  0  0  0  0  0  0  0  0
   -0.2405   -0.1577    6.4438 H   0  0  0  0  0  0  0  0  0  0  0  0
    1.4423   -0.4969    8.2282 H   0  0  0  0  0  0  0  0  0  0  0  0
    1.2744    0.7759   10.3524 H   0  0  0  0  0  0  0  0  0  0  0  0
   -0.5959    2.3780   10.6996 H   0  0  0  0  0  0  0  0  0  0  0  0
   -2.2721    2.7317    8.9105 H   0  0  0  0  0  0  0  0  0  0  0  0
    3.4032    3.0726    3.2034 H   0  0  0  0  0  0  0  0  0  0  0  0
  1  2  1  0
  1 24  1  0
  1 25  1  0
  1 26  1  0
  2 20  1  0
  2  3  1  0
  2  4  1  0
  3 27  1  0
  3 28  1  0
  3 29  1  0
  4  5  1  0
  5 19  1  0
  5  6  1  0
  5 30  1  6
  6  7  1  0
  6 17  1  0
  6 31  1  6
  7  8  1  0
  7 32  1  0
  8  9  2  0
  8 10  1  0
 10 11  1  0
 10 33  1  0
 10 34  1  0
 11 16  1  0
 11 12  2  0
 12 13  1  0
 12 35  1  0
 13 14  2  0
 13 36  1  0
 14 15  1  0
 14 37  1  0
 15 16  2  0
 15 38  1  0
 16 39  1  0
 17 18  2  0
 17 19  1  0
 19 20  1  0
 20 21  1  0
 20 40  1  6
 21 22  2  0
 21 23  1  0
M  CHG  1  23  -1
M  END
>  <i_m_ct_stereo_status>  (185) 
1

>  <s_m_source_file>  (185) 
/var/tmp/pbs.5102103.sched01/tmpup5_gzpn/66d1evxq16.sdf

>  <i_m_source_file_index>  (185) 
2

>  <i_lp_mmshare_version>  (185) 
48012

>  <i_f3d_flags>  (185) 
0

>  <s_epik_input>  (185) 
W0NIM11DKFMxKShbQ0gzXSlbQ0BIXShDKD1PKVtPSF0pTihbQ0BASF0xMilDKD1PKVtDQEBIXTJbTkhdQyg9TylbQ0gyXWMzW2NIXVtjSF1bY0hdW2NIXVtjSF0z

>  <s_epik_cmdline>  (185) 
J2VwaWtfcHl0aG9uJywgJy1waHQnLCAnMi4wJywgJy1waCcsICc3LjAnLCAnLXRuJywgJzgnLCAnLW1hJywgJzIwMCcsICctaW1hZScsICc8aW5maWxlLm1hZT4nLCAnLW9tYWUnLCAnPG91dGZpbGUubWFlPic=

>  <r_lp_tautomer_probability>  (185) 
1

>  <r_epik_Ionization_Penalty>  (185) 
2.93496e-05

>  <r_epik_Ionization_Penalty_Charging>  (185) 
2.92734e-05

>  <r_epik_Ionization_Penalty_Neutral>  (185) 
7.61972e-08

>  <r_epik_State_Penalty>  (185) 
-0

>  <r_epik_Charging_Adjusted_Penalty>  (185) 
2.92734e-05

>  <i_epik_Tot_Q>  (185) 
-1

>  <i_epik_Tot_abs_Q>  (185) 
1

>  <s_epik_Chemistry_Notes>  (185) 
This compound contains an acetal/aminal-like group ( X-CH(R)-Y where X, Y are N, S, or O) that may be acid/base labile, releasing an aldehyde.

>  <s_lp_Force_Field>  (185) 
OPLS3e

>  <r_lp_Energy>  (185) 
33.1369

>  <b_lp_Chiralities_Consistent>  (185) 
1

>  <s_lp_Variant>  (185) 
38:0-1

>  <s_i_glide_gridfile>  (185) 
pfpi4k_grid

>  <i_i_glide_lignum>  (185) 
2

>  <i_i_glide_rotatable_bonds>  (185) 
5

>  <r_i_docking_score>  (185) 
-2.32152

>  <r_i_glide_ligand_efficiency>  (185) 
-0.100936

>  <r_i_glide_ligand_efficiency_sa>  (185) 
-0.287048

>  <r_i_glide_ligand_efficiency_ln>  (185) 
-0.561365

>  <r_i_glide_gscore>  (185) 
-2.32152

>  <r_i_glide_lipo>  (185) 
0

>  <r_i_glide_hbond>  (185) 
0

>  <r_i_glide_metal>  (185) 
-0

>  <r_i_glide_rewards>  (185) 
-1.19031

>  <r_i_glide_evdw>  (185) 
-17.7824

>  <r_i_glide_ecoul>  (185) 
-4.04766

>  <r_i_glide_erotb>  (185) 
0.508712

>  <r_i_glide_esite>  (185) 
-0.143653

>  <r_i_glide_emodel>  (185) 
-23.4924

>  <r_i_glide_energy>  (185) 
-21.83

>  <r_i_glide_einternal>  (185) 
3.71216

>  <r_i_glide_intrahb_reward>  (185) 
-0

>  <i_i_glide_confnum>  (185) 
6

>  <i_i_glide_posenum>  (185) 
22

>  <r_i_glide_eff_state_penalty>  (185) 
0

>  <ligand_id>  (185) 
38

>  <original_smiles>  (185) 
CC1(C)SC2C(NC(=O)Cc3ccccc3)C(=O)N2C1C(=O)O

>  <smiles>  (185) 
[H]c1c([H])c([H])c(C([H])([H])C(=O)N([H])C2([H])C(=O)N3C2([H])SC(C([H])([H])[H])(C([H])([H])[H])C3([H])C(=O)[O-])c([H])c1[H]

$$$$
38:0:2
     RDKit          3D

 40 42  0  0  1  0  0  0  0  0999 V2000
    3.0892    1.1754    6.5133 C   0  0  0  0  0  0  0  0  0  0  0  0
    3.5392    1.5434    5.0834 C   0  0  0  0  0  0  0  0  0  0  0  0
    4.8015    0.7282    4.7612 C   0  0  0  0  0  0  0  0  0  0  0  0
    2.1814    1.0424    3.9525 S   0  0  0  0  0  0  0  0  0  0  0  0
    1.7391    2.6983    3.3275 C   0  0  1  0  0  0  0  0  0  0  0  0
    0.5015    3.5057    3.7283 C   0  0  1  0  0  0  0  0  0  0  0  0
   -0.4118    2.7207    4.5565 N   0  0  0  0  0  0  0  0  0  0  0  0
   -1.4248    3.2629    5.2579 C   0  0  0  0  0  0  0  0  0  0  0  0
   -1.6739    4.4623    5.2100 O   0  0  0  0  0  0  0  0  0  0  0  0
   -2.3080    2.3153    6.0782 C   0  0  0  0  0  0  0  0  0  0  0  0
   -1.9993    2.3731    7.5686 C   0  0  0  0  0  0  0  0  0  0  0  0
   -0.8263    1.7792    8.0731 C   0  0  0  0  0  0  0  0  0  0  0  0
   -0.5511    1.8228    9.4478 C   0  0  0  0  0  0  0  0  0  0  0  0
   -1.4484    2.4541   10.3252 C   0  0  0  0  0  0  0  0  0  0  0  0
   -2.6213    3.0403    9.8295 C   0  0  0  0  0  0  0  0  0  0  0  0
   -2.8981    2.9986    8.4568 C   0  0  0  0  0  0  0  0  0  0  0  0
    1.4797    4.3814    4.5231 C   0  0  0  0  0  0  0  0  0  0  0  0
    1.3980    5.3817    5.2155 O   0  0  0  0  0  0  0  0  0  0  0  0
    2.5294    3.5344    4.2300 N   0  0  0  0  0  0  0  0  0  0  0  0
    3.7451    3.0861    4.8866 C   0  0  1  0  0  0  0  0  0  0  0  0
    4.2195    3.8759    6.1155 C   0  0  0  0  0  0  0  0  0  0  0  0
    5.4130    4.2655    6.1190 O   0  0  0  0  0  0  0  0  0  0  0  0
    3.3845    4.1560    7.0234 O   0  0  0  0  0  0  0  0  0  0  0  0
    3.8400    1.4641    7.2500 H   0  0  0  0  0  0  0  0  0  0  0  0
    2.9122    0.1109    6.6593 H   0  0  0  0  0  0  0  0  0  0  0  0
    2.1721    1.7045    6.7554 H   0  0  0  0  0  0  0  0  0  0  0  0
    5.6042    0.9399    5.4652 H   0  0  0  0  0  0  0  0  0  0  0  0
    5.1920    0.9214    3.7635 H   0  0  0  0  0  0  0  0  0  0  0  0
    4.6167   -0.3440    4.8127 H   0  0  0  0  0  0  0  0  0  0  0  0
    1.9506    2.8005    2.2596 H   0  0  0  0  0  0  0  0  0  0  0  0
    0.0083    4.0445    2.9144 H   0  0  0  0  0  0  0  0  0  0  0  0
   -0.2467    1.7230    4.6302 H   0  0  0  0  0  0  0  0  0  0  0  0
   -3.3492    2.5948    5.9019 H   0  0  0  0  0  0  0  0  0  0  0  0
   -2.1993    1.2896    5.7173 H   0  0  0  0  0  0  0  0  0  0  0  0
   -0.1318    1.2992    7.3994 H   0  0  0  0  0  0  0  0  0  0  0  0
    0.3509    1.3762    9.8301 H   0  0  0  0  0  0  0  0  0  0  0  0
   -1.2490    2.4846   11.3823 H   0  0  0  0  0  0  0  0  0  0  0  0
   -3.3137    3.5181   10.5037 H   0  0  0  0  0  0  0  0  0  0  0  0
   -3.8014    3.4518    8.0841 H   0  0  0  0  0  0  0  0  0  0  0  0
    4.5025    3.2159    4.1280 H   0  0  0  0  0  0  0  0  0  0  0  0
  1  2  1  0
  1 24  1  0
  1 25  1  0
  1 26  1  0
  2 20  1  0
  2  3  1  0
  2  4  1  0
  3 27  1  0
  3 28  1  0
  3 29  1  0
  4  5  1  0
  5 19  1  0
  5  6  1  0
  5 30  1  6
  6  7  1  0
  6 17  1  0
  6 31  1  6
  7  8  1  0
  7 32  1  0
  8  9  2  0
  8 10  1  0
 10 11  1  0
 10 33  1  0
 10 34  1  0
 11 16  1  0
 11 12  2  0
 12 13  1  0
 12 35  1  0
 13 14  2  0
 13 36  1  0
 14 15  1  0
 14 37  1  0
 15 16  2  0
 15 38  1  0
 16 39  1  0
 17 18  2  0
 17 19  1  0
 19 20  1  0
 20 21  1  0
 20 40  1  6
 21 22  2  0
 21 23  1  0
M  CHG  1  23  -1
M  END
>  <i_m_ct_stereo_status>  (186) 
1

>  <s_m_source_file>  (186) 
/var/tmp/pbs.5102103.sched01/tmpup5_gzpn/66d1evxq16.sdf

>  <i_m_source_file_index>  (186) 
2

>  <i_lp_mmshare_version>  (186) 
48012

>  <i_f3d_flags>  (186) 
0

>  <s_epik_input>  (186) 
W0NIM11DKFMxKShbQ0gzXSlbQ0BIXShDKD1PKVtPSF0pTihbQ0BASF0xMilDKD1PKVtDQEBIXTJbTkhdQyg9TylbQ0gyXWMzW2NIXVtjSF1bY0hdW2NIXVtjSF0z

>  <s_epik_cmdline>  (186) 
J2VwaWtfcHl0aG9uJywgJy1waHQnLCAnMi4wJywgJy1waCcsICc3LjAnLCAnLXRuJywgJzgnLCAnLW1hJywgJzIwMCcsICctaW1hZScsICc8aW5maWxlLm1hZT4nLCAnLW9tYWUnLCAnPG91dGZpbGUubWFlPic=

>  <r_lp_tautomer_probability>  (186) 
1

>  <r_epik_Ionization_Penalty>  (186) 
2.93496e-05

>  <r_epik_Ionization_Penalty_Charging>  (186) 
2.92734e-05

>  <r_epik_Ionization_Penalty_Neutral>  (186) 
7.61972e-08

>  <r_epik_State_Penalty>  (186) 
-0

>  <r_epik_Charging_Adjusted_Penalty>  (186) 
2.92734e-05

>  <i_epik_Tot_Q>  (186) 
-1

>  <i_epik_Tot_abs_Q>  (186) 
1

>  <s_epik_Chemistry_Notes>  (186) 
This compound contains an acetal/aminal-like group ( X-CH(R)-Y where X, Y are N, S, or O) that may be acid/base labile, releasing an aldehyde.

>  <s_lp_Force_Field>  (186) 
OPLS3e

>  <r_lp_Energy>  (186) 
33.1369

>  <b_lp_Chiralities_Consistent>  (186) 
1

>  <s_lp_Variant>  (186) 
38:0-1

>  <s_i_glide_gridfile>  (186) 
pfpi4k_grid

>  <i_i_glide_lignum>  (186) 
2

>  <i_i_glide_rotatable_bonds>  (186) 
5

>  <r_i_docking_score>  (186) 
-2.20809

>  <r_i_glide_ligand_efficiency>  (186) 
-0.0960038

>  <r_i_glide_ligand_efficiency_sa>  (186) 
-0.273022

>  <r_i_glide_ligand_efficiency_ln>  (186) 
-0.533935

>  <r_i_glide_gscore>  (186) 
-2.20809

>  <r_i_glide_lipo>  (186) 
-0.195276

>  <r_i_glide_hbond>  (186) 
-0.00465757

>  <r_i_glide_metal>  (186) 
-0

>  <r_i_glide_rewards>  (186) 
-1.13665

>  <r_i_glide_evdw>  (186) 
-14.7003

>  <r_i_glide_ecoul>  (186) 
-3.86112

>  <r_i_glide_erotb>  (186) 
0.508712

>  <r_i_glide_esite>  (186) 
-0.0660351

>  <r_i_glide_emodel>  (186) 
-21.9898

>  <r_i_glide_energy>  (186) 
-18.5614

>  <r_i_glide_einternal>  (186) 
0.608102

>  <r_i_glide_intrahb_reward>  (186) 
-0

>  <i_i_glide_confnum>  (186) 
6

>  <i_i_glide_posenum>  (186) 
17

>  <r_i_glide_eff_state_penalty>  (186) 
0

>  <ligand_id>  (186) 
38

>  <original_smiles>  (186) 
CC1(C)SC2C(NC(=O)Cc3ccccc3)C(=O)N2C1C(=O)O

>  <smiles>  (186) 
[H]c1c([H])c([H])c(C([H])([H])C(=O)N([H])C2([H])C(=O)N3C2([H])SC(C([H])([H])[H])(C([H])([H])[H])C3([H])C(=O)[O-])c([H])c1[H]

$$$$
39:0:0
     RDKit          3D

 31 33  0  0  1  0  0  0  0  0999 V2000
    3.4902   -1.2745   -3.8191 C   0  0  0  0  0  0  0  0  0  0  0  0
    4.4085   -2.2231   -3.0347 C   0  0  0  0  0  0  0  0  0  0  0  0
    4.9470   -1.6107   -1.7314 C   0  0  0  0  0  0  0  0  0  0  0  0
    5.8962   -2.5311   -1.0088 C   0  0  0  0  0  0  0  0  0  0  0  0
    7.2747   -2.2976   -1.0441 N   0  0  0  0  0  0  0  0  0  0  0  0
    7.9305   -3.2110   -0.3730 N   0  0  0  0  0  0  0  0  0  0  0  0
    6.9852   -4.0635    0.0996 N   0  0  0  0  0  0  0  0  0  0  0  0
    7.1974   -5.2080    0.8609 C   0  0  0  0  0  0  0  0  0  0  0  0
    8.4585   -5.5878    1.2160 O   0  0  0  0  0  0  0  0  0  0  0  0
    6.0050   -5.8914    1.1733 C   0  0  0  0  0  0  0  0  0  0  0  0
    4.7274   -5.4482    0.7492 C   0  0  0  0  0  0  0  0  0  0  0  0
    3.4872   -6.1959    1.0988 C   0  0  0  0  0  0  0  0  0  0  0  0
    3.5093   -7.4976    1.6620 C   0  0  0  0  0  0  0  0  0  0  0  0
    2.3056   -8.1572    1.9713 C   0  0  0  0  0  0  0  0  0  0  0  0
    1.0908   -7.4972    1.7057 C   0  0  0  0  0  0  0  0  0  0  0  0
    1.0293   -6.2576    1.1781 N   0  0  0  0  0  0  0  0  0  0  0  0
    2.2035   -5.6408    0.8912 C   0  0  0  0  0  0  0  0  0  0  0  0
    4.5555   -4.3225    0.0097 N   0  0  0  0  0  0  0  0  0  0  0  0
    5.7127   -3.6751   -0.2819 C   0  0  0  0  0  0  0  0  0  0  0  0
    3.1120   -1.7622   -4.7182 H   0  0  0  0  0  0  0  0  0  0  0  0
    4.0125   -0.3691   -4.1274 H   0  0  0  0  0  0  0  0  0  0  0  0
    2.6295   -0.9769   -3.2202 H   0  0  0  0  0  0  0  0  0  0  0  0
    3.8616   -3.1323   -2.7876 H   0  0  0  0  0  0  0  0  0  0  0  0
    5.2425   -2.5261   -3.6662 H   0  0  0  0  0  0  0  0  0  0  0  0
    5.4580   -0.6775   -1.9752 H   0  0  0  0  0  0  0  0  0  0  0  0
    4.1195   -1.3243   -1.0794 H   0  0  0  0  0  0  0  0  0  0  0  0
    6.0955   -6.7849    1.7621 H   0  0  0  0  0  0  0  0  0  0  0  0
    4.4300   -8.0243    1.8608 H   0  0  0  0  0  0  0  0  0  0  0  0
    2.3115   -9.1535    2.3897 H   0  0  0  0  0  0  0  0  0  0  0  0
    0.1487   -7.9788    1.9279 H   0  0  0  0  0  0  0  0  0  0  0  0
    2.0843   -4.6497    0.4847 H   0  0  0  0  0  0  0  0  0  0  0  0
  1  2  1  0
  1 20  1  0
  1 21  1  0
  1 22  1  0
  2  3  1  0
  2 23  1  0
  2 24  1  0
  3  4  1  0
  3 25  1  0
  3 26  1  0
  4 19  2  0
  4  5  1  0
  5  6  2  0
  6  7  1  0
  7 19  1  0
  7  8  1  0
  8  9  1  0
  8 10  2  0
 10 11  1  0
 10 27  1  0
 11 12  1  0
 11 18  2  0
 12 17  1  0
 12 13  2  0
 13 14  1  0
 13 28  1  0
 14 15  2  0
 14 29  1  0
 15 16  1  0
 15 30  1  0
 16 17  2  0
 17 31  1  0
 18 19  1  0
M  CHG  1   9  -1
M  END
>  <i_m_ct_stereo_status>  (187) 
1

>  <s_m_source_file>  (187) 
/var/tmp/pbs.5102103.sched01/tmpup5_gzpn/66d1evxq16.sdf

>  <i_m_source_file_index>  (187) 
3

>  <i_lp_mmshare_version>  (187) 
48012

>  <i_f3d_flags>  (187) 
0

>  <s_epik_input>  (187) 
W0NIM11bQ0gyXVtDSDJdYyhuW25IXTEpYyhuMTIpbmMoW2NIXWMyPU8pLWMzW2NIXVtjSF1bY0hdbltjSF0z

>  <s_epik_cmdline>  (187) 
J2VwaWtfcHl0aG9uJywgJy1waHQnLCAnMi4wJywgJy1waCcsICc3LjAnLCAnLXRuJywgJzgnLCAnLW1hJywgJzIwMCcsICctaW1hZScsICc8aW5maWxlLm1hZT4nLCAnLW9tYWUnLCAnPG91dGZpbGUubWFlPic=

>  <r_lp_tautomer_probability>  (187) 
1

>  <r_epik_Ionization_Penalty>  (187) 
0.00422793

>  <r_epik_Ionization_Penalty_Charging>  (187) 
0

>  <r_epik_Ionization_Penalty_Neutral>  (187) 
0.00422793

>  <r_epik_State_Penalty>  (187) 
-0

>  <r_epik_Charging_Adjusted_Penalty>  (187) 
0

>  <i_epik_Tot_Q>  (187) 
-1

>  <i_epik_Tot_abs_Q>  (187) 
1

>  <s_lp_Force_Field>  (187) 
OPLS3e

>  <r_lp_Energy>  (187) 
28.8627

>  <b_lp_Chiralities_Consistent>  (187) 
1

>  <s_lp_Variant>  (187) 
39:0-1

>  <s_i_glide_gridfile>  (187) 
pfpi4k_grid

>  <i_i_glide_lignum>  (187) 
3

>  <i_i_glide_rotatable_bonds>  (187) 
3

>  <r_i_docking_score>  (187) 
-4.09678

>  <r_i_glide_ligand_efficiency>  (187) 
-0.21562

>  <r_i_glide_ligand_efficiency_sa>  (187) 
-0.575361

>  <r_i_glide_ligand_efficiency_ln>  (187) 
-1.03862

>  <r_i_glide_gscore>  (187) 
-4.09678

>  <r_i_glide_lipo>  (187) 
-0.610137

>  <r_i_glide_hbond>  (187) 
-0.16

>  <r_i_glide_metal>  (187) 
-0

>  <r_i_glide_rewards>  (187) 
-1.91158

>  <r_i_glide_evdw>  (187) 
-25.1028

>  <r_i_glide_ecoul>  (187) 
-4.19203

>  <r_i_glide_erotb>  (187) 
0.54397

>  <r_i_glide_esite>  (187) 
-0.0750923

>  <r_i_glide_emodel>  (187) 
-37.516

>  <r_i_glide_energy>  (187) 
-29.2948

>  <r_i_glide_einternal>  (187) 
0.934411

>  <r_i_glide_intrahb_reward>  (187) 
-0

>  <i_i_glide_confnum>  (187) 
1

>  <i_i_glide_posenum>  (187) 
8

>  <r_i_glide_eff_state_penalty>  (187) 
0

>  <ligand_id>  (187) 
39

>  <original_smiles>  (187) 
CCCc1n[nH]n2c(=O)cc(-c3cccnc3)nc12

>  <smiles>  (187) 
[H]c1nc([H])c(-c2nc3c(C([H])([H])C([H])([H])C([H])([H])[H])nnn3c([O-])c2[H])c([H])c1[H]

$$$$
39:0:1
     RDKit          3D

 31 33  0  0  1  0  0  0  0  0999 V2000
    3.4316   -3.2089   -3.6673 C   0  0  0  0  0  0  0  0  0  0  0  0
    3.7439   -1.7299   -3.4215 C   0  0  0  0  0  0  0  0  0  0  0  0
    3.9444   -1.4085   -1.9279 C   0  0  0  0  0  0  0  0  0  0  0  0
    5.0179   -2.2385   -1.2781 C   0  0  0  0  0  0  0  0  0  0  0  0
    6.3609   -1.8930   -1.4285 N   0  0  0  0  0  0  0  0  0  0  0  0
    7.1480   -2.7467   -0.8268 N   0  0  0  0  0  0  0  0  0  0  0  0
    6.3224   -3.6649   -0.2647 N   0  0  0  0  0  0  0  0  0  0  0  0
    6.6963   -4.7787    0.4781 C   0  0  0  0  0  0  0  0  0  0  0  0
    8.0090   -5.0492    0.7286 O   0  0  0  0  0  0  0  0  0  0  0  0
    5.5963   -5.5535    0.9027 C   0  0  0  0  0  0  0  0  0  0  0  0
    4.2556   -5.2108    0.6060 C   0  0  0  0  0  0  0  0  0  0  0  0
    3.1153   -6.0422    1.0781 C   0  0  0  0  0  0  0  0  0  0  0  0
    3.2668   -7.0662    2.0451 C   0  0  0  0  0  0  0  0  0  0  0  0
    2.1528   -7.8272    2.4480 C   0  0  0  0  0  0  0  0  0  0  0  0
    0.9023   -7.5413    1.8751 C   0  0  0  0  0  0  0  0  0  0  0  0
    0.7212   -6.5618    0.9651 N   0  0  0  0  0  0  0  0  0  0  0  0
    1.8097   -5.8558    0.5757 C   0  0  0  0  0  0  0  0  0  0  0  0
    3.9216   -4.1082   -0.1137 N   0  0  0  0  0  0  0  0  0  0  0  0
    4.9931   -3.3798   -0.5231 C   0  0  0  0  0  0  0  0  0  0  0  0
    3.2815   -3.4114   -4.7208 H   0  0  0  0  0  0  0  0  0  0  0  0
    2.5255   -3.5063   -3.1393 H   0  0  0  0  0  0  0  0  0  0  0  0
    4.2443   -3.8505   -3.3257 H   0  0  0  0  0  0  0  0  0  0  0  0
    4.6352   -1.4490   -3.9821 H   0  0  0  0  0  0  0  0  0  0  0  0
    2.9343   -1.1147   -3.8217 H   0  0  0  0  0  0  0  0  0  0  0  0
    4.1974   -0.3503   -1.8360 H   0  0  0  0  0  0  0  0  0  0  0  0
    3.0006   -1.5311   -1.3972 H   0  0  0  0  0  0  0  0  0  0  0  0
    5.8118   -6.4397    1.4725 H   0  0  0  0  0  0  0  0  0  0  0  0
    4.2162   -7.2926    2.5044 H   0  0  0  0  0  0  0  0  0  0  0  0
    2.2558   -8.6150    3.1832 H   0  0  0  0  0  0  0  0  0  0  0  0
    0.0272   -8.1081    2.1646 H   0  0  0  0  0  0  0  0  0  0  0  0
    1.5963   -5.1103   -0.1735 H   0  0  0  0  0  0  0  0  0  0  0  0
  1  2  1  0
  1 20  1  0
  1 21  1  0
  1 22  1  0
  2  3  1  0
  2 23  1  0
  2 24  1  0
  3  4  1  0
  3 25  1  0
  3 26  1  0
  4 19  2  0
  4  5  1  0
  5  6  2  0
  6  7  1  0
  7 19  1  0
  7  8  1  0
  8  9  1  0
  8 10  2  0
 10 11  1  0
 10 27  1  0
 11 12  1  0
 11 18  2  0
 12 17  1  0
 12 13  2  0
 13 14  1  0
 13 28  1  0
 14 15  2  0
 14 29  1  0
 15 16  1  0
 15 30  1  0
 16 17  2  0
 17 31  1  0
 18 19  1  0
M  CHG  1   9  -1
M  END
>  <i_m_ct_stereo_status>  (188) 
1

>  <s_m_source_file>  (188) 
/var/tmp/pbs.5102103.sched01/tmpup5_gzpn/66d1evxq16.sdf

>  <i_m_source_file_index>  (188) 
3

>  <i_lp_mmshare_version>  (188) 
48012

>  <i_f3d_flags>  (188) 
0

>  <s_epik_input>  (188) 
W0NIM11bQ0gyXVtDSDJdYyhuW25IXTEpYyhuMTIpbmMoW2NIXWMyPU8pLWMzW2NIXVtjSF1bY0hdbltjSF0z

>  <s_epik_cmdline>  (188) 
J2VwaWtfcHl0aG9uJywgJy1waHQnLCAnMi4wJywgJy1waCcsICc3LjAnLCAnLXRuJywgJzgnLCAnLW1hJywgJzIwMCcsICctaW1hZScsICc8aW5maWxlLm1hZT4nLCAnLW9tYWUnLCAnPG91dGZpbGUubWFlPic=

>  <r_lp_tautomer_probability>  (188) 
1

>  <r_epik_Ionization_Penalty>  (188) 
0.00422793

>  <r_epik_Ionization_Penalty_Charging>  (188) 
0

>  <r_epik_Ionization_Penalty_Neutral>  (188) 
0.00422793

>  <r_epik_State_Penalty>  (188) 
-0

>  <r_epik_Charging_Adjusted_Penalty>  (188) 
0

>  <i_epik_Tot_Q>  (188) 
-1

>  <i_epik_Tot_abs_Q>  (188) 
1

>  <s_lp_Force_Field>  (188) 
OPLS3e

>  <r_lp_Energy>  (188) 
28.8627

>  <b_lp_Chiralities_Consistent>  (188) 
1

>  <s_lp_Variant>  (188) 
39:0-1

>  <s_i_glide_gridfile>  (188) 
pfpi4k_grid

>  <i_i_glide_lignum>  (188) 
3

>  <i_i_glide_rotatable_bonds>  (188) 
3

>  <r_i_docking_score>  (188) 
-3.90126

>  <r_i_glide_ligand_efficiency>  (188) 
-0.20533

>  <r_i_glide_ligand_efficiency_sa>  (188) 
-0.547902

>  <r_i_glide_ligand_efficiency_ln>  (188) 
-0.989054

>  <r_i_glide_gscore>  (188) 
-3.90126

>  <r_i_glide_lipo>  (188) 
-0.657671

>  <r_i_glide_hbond>  (188) 
-0.139119

>  <r_i_glide_metal>  (188) 
-0

>  <r_i_glide_rewards>  (188) 
-1.85237

>  <r_i_glide_evdw>  (188) 
-24.4205

>  <r_i_glide_ecoul>  (188) 
-3.27021

>  <r_i_glide_erotb>  (188) 
0.54397

>  <r_i_glide_esite>  (188) 
-0.0845142

>  <r_i_glide_emodel>  (188) 
-35.4755

>  <r_i_glide_energy>  (188) 
-27.6907

>  <r_i_glide_einternal>  (188) 
0.957446

>  <r_i_glide_intrahb_reward>  (188) 
-0

>  <i_i_glide_confnum>  (188) 
1

>  <i_i_glide_posenum>  (188) 
27

>  <r_i_glide_eff_state_penalty>  (188) 
0

>  <ligand_id>  (188) 
39

>  <original_smiles>  (188) 
CCCc1n[nH]n2c(=O)cc(-c3cccnc3)nc12

>  <smiles>  (188) 
[H]c1nc([H])c(-c2nc3c(C([H])([H])C([H])([H])C([H])([H])[H])nnn3c([O-])c2[H])c([H])c1[H]

$$$$
39:0:2
     RDKit          3D

 31 33  0  0  1  0  0  0  0  0999 V2000
    4.4792   -4.2122   -3.8965 C   0  0  0  0  0  0  0  0  0  0  0  0
    3.6563   -3.0586   -3.3002 C   0  0  0  0  0  0  0  0  0  0  0  0
    4.5000   -2.0380   -2.5152 C   0  0  0  0  0  0  0  0  0  0  0  0
    5.4910   -2.6633   -1.5666 C   0  0  0  0  0  0  0  0  0  0  0  0
    6.8317   -2.2639   -1.5647 N   0  0  0  0  0  0  0  0  0  0  0  0
    7.5436   -2.9799   -0.7300 N   0  0  0  0  0  0  0  0  0  0  0  0
    6.6674   -3.8446   -0.1550 N   0  0  0  0  0  0  0  0  0  0  0  0
    6.9541   -4.8131    0.7922 C   0  0  0  0  0  0  0  0  0  0  0  0
    8.2220   -4.9748    1.2655 O   0  0  0  0  0  0  0  0  0  0  0  0
    5.8257   -5.5759    1.1661 C   0  0  0  0  0  0  0  0  0  0  0  0
    4.5407   -5.3680    0.6090 C   0  0  0  0  0  0  0  0  0  0  0  0
    3.3685   -6.1959    1.0106 C   0  0  0  0  0  0  0  0  0  0  0  0
    3.5104   -7.4422    1.6641 C   0  0  0  0  0  0  0  0  0  0  0  0
    2.3670   -8.1790    2.0331 C   0  0  0  0  0  0  0  0  0  0  0  0
    1.0999   -7.6475    1.7368 C   0  0  0  0  0  0  0  0  0  0  0  0
    0.9303   -6.4575    1.1258 N   0  0  0  0  0  0  0  0  0  0  0  0
    2.0426   -5.7700    0.7737 C   0  0  0  0  0  0  0  0  0  0  0  0
    4.2925   -4.4005   -0.3091 N   0  0  0  0  0  0  0  0  0  0  0  0
    5.3872   -3.6722   -0.6504 C   0  0  0  0  0  0  0  0  0  0  0  0
    3.8252   -4.9329   -4.3790 H   0  0  0  0  0  0  0  0  0  0  0  0
    5.0153   -4.7632   -3.1239 H   0  0  0  0  0  0  0  0  0  0  0  0
    5.2154   -3.8631   -4.6154 H   0  0  0  0  0  0  0  0  0  0  0  0
    3.0868   -2.5514   -4.0856 H   0  0  0  0  0  0  0  0  0  0  0  0
    2.9139   -3.4678   -2.6175 H   0  0  0  0  0  0  0  0  0  0  0  0
    5.0240   -1.4241   -3.2498 H   0  0  0  0  0  0  0  0  0  0  0  0
    3.8491   -1.3411   -1.9849 H   0  0  0  0  0  0  0  0  0  0  0  0
    5.9611   -6.3370    1.9142 H   0  0  0  0  0  0  0  0  0  0  0  0
    4.4776   -7.8627    1.8921 H   0  0  0  0  0  0  0  0  0  0  0  0
    2.4592   -9.1392    2.5233 H   0  0  0  0  0  0  0  0  0  0  0  0
    0.2021   -8.1941    1.9951 H   0  0  0  0  0  0  0  0  0  0  0  0
    1.8376   -4.8256    0.2968 H   0  0  0  0  0  0  0  0  0  0  0  0
  1  2  1  0
  1 20  1  0
  1 21  1  0
  1 22  1  0
  2  3  1  0
  2 23  1  0
  2 24  1  0
  3  4  1  0
  3 25  1  0
  3 26  1  0
  4 19  2  0
  4  5  1  0
  5  6  2  0
  6  7  1  0
  7 19  1  0
  7  8  1  0
  8  9  1  0
  8 10  2  0
 10 11  1  0
 10 27  1  0
 11 12  1  0
 11 18  2  0
 12 17  1  0
 12 13  2  0
 13 14  1  0
 13 28  1  0
 14 15  2  0
 14 29  1  0
 15 16  1  0
 15 30  1  0
 16 17  2  0
 17 31  1  0
 18 19  1  0
M  CHG  1   9  -1
M  END
>  <i_m_ct_stereo_status>  (189) 
1

>  <s_m_source_file>  (189) 
/var/tmp/pbs.5102103.sched01/tmpup5_gzpn/66d1evxq16.sdf

>  <i_m_source_file_index>  (189) 
3

>  <i_lp_mmshare_version>  (189) 
48012

>  <i_f3d_flags>  (189) 
0

>  <s_epik_input>  (189) 
W0NIM11bQ0gyXVtDSDJdYyhuW25IXTEpYyhuMTIpbmMoW2NIXWMyPU8pLWMzW2NIXVtjSF1bY0hdbltjSF0z

>  <s_epik_cmdline>  (189) 
J2VwaWtfcHl0aG9uJywgJy1waHQnLCAnMi4wJywgJy1waCcsICc3LjAnLCAnLXRuJywgJzgnLCAnLW1hJywgJzIwMCcsICctaW1hZScsICc8aW5maWxlLm1hZT4nLCAnLW9tYWUnLCAnPG91dGZpbGUubWFlPic=

>  <r_lp_tautomer_probability>  (189) 
1

>  <r_epik_Ionization_Penalty>  (189) 
0.00422793

>  <r_epik_Ionization_Penalty_Charging>  (189) 
0

>  <r_epik_Ionization_Penalty_Neutral>  (189) 
0.00422793

>  <r_epik_State_Penalty>  (189) 
-0

>  <r_epik_Charging_Adjusted_Penalty>  (189) 
0

>  <i_epik_Tot_Q>  (189) 
-1

>  <i_epik_Tot_abs_Q>  (189) 
1

>  <s_lp_Force_Field>  (189) 
OPLS3e

>  <r_lp_Energy>  (189) 
28.8627

>  <b_lp_Chiralities_Consistent>  (189) 
1

>  <s_lp_Variant>  (189) 
39:0-1

>  <s_i_glide_gridfile>  (189) 
pfpi4k_grid

>  <i_i_glide_lignum>  (189) 
3

>  <i_i_glide_rotatable_bonds>  (189) 
3

>  <r_i_docking_score>  (189) 
-3.75009

>  <r_i_glide_ligand_efficiency>  (189) 
-0.197373

>  <r_i_glide_ligand_efficiency_sa>  (189) 
-0.52667

>  <r_i_glide_ligand_efficiency_ln>  (189) 
-0.950727

>  <r_i_glide_gscore>  (189) 
-3.75009

>  <r_i_glide_lipo>  (189) 
-0.492773

>  <r_i_glide_hbond>  (189) 
-0.129925

>  <r_i_glide_metal>  (189) 
-0

>  <r_i_glide_rewards>  (189) 
-1.88076

>  <r_i_glide_evdw>  (189) 
-25.1286

>  <r_i_glide_ecoul>  (189) 
-3.053

>  <r_i_glide_erotb>  (189) 
0.54397

>  <r_i_glide_esite>  (189) 
-0.0762198

>  <r_i_glide_emodel>  (189) 
-34.3833

>  <r_i_glide_energy>  (189) 
-28.1816

>  <r_i_glide_einternal>  (189) 
3.31699

>  <r_i_glide_intrahb_reward>  (189) 
-0

>  <i_i_glide_confnum>  (189) 
1

>  <i_i_glide_posenum>  (189) 
1

>  <r_i_glide_eff_state_penalty>  (189) 
0

>  <ligand_id>  (189) 
39

>  <original_smiles>  (189) 
CCCc1n[nH]n2c(=O)cc(-c3cccnc3)nc12

>  <smiles>  (189) 
[H]c1nc([H])c(-c2nc3c(C([H])([H])C([H])([H])C([H])([H])[H])nnn3c([O-])c2[H])c([H])c1[H]

$$$$
40:0:0
     RDKit          3D

 24 27  0  0  1  0  0  0  0  0999 V2000
    3.7256   -0.6677   -3.1374 C   0  0  0  0  0  0  0  0  0  0  0  0
    3.3288   -1.7361   -3.8929 C   0  0  0  0  0  0  0  0  0  0  0  0
    4.0703   -3.2163   -3.3491 S   0  0  0  0  0  0  0  0  0  0  0  0
    4.8910   -2.3827   -2.0496 C   0  0  0  0  0  0  0  0  0  0  0  0
    5.7932   -3.1007   -1.1492 C   0  0  0  0  0  0  0  0  0  0  0  0
    5.4309   -4.1001   -0.3299 N   0  0  0  0  0  0  0  0  0  0  0  0
    6.5728   -4.4386    0.3311 N   0  0  0  0  0  0  0  0  0  0  0  0
    6.6942   -5.4041    1.2422 C   0  0  0  0  0  0  0  0  0  0  0  0
    5.6342   -6.3157    1.7720 C   0  0  0  0  0  0  0  0  0  0  0  0
    5.8395   -7.8138    1.6743 C   0  0  0  0  0  0  0  0  0  0  0  0
    4.7564   -7.1434    0.8646 C   0  0  0  0  0  0  0  0  0  0  0  0
    7.9747   -5.4200    1.6360 N   0  0  0  0  0  0  0  0  0  0  0  0
    8.6600   -4.4378    0.8790 N   0  0  0  0  0  0  0  0  0  0  0  0
    7.7735   -3.8622    0.0988 C   0  0  0  0  0  0  0  0  0  0  0  0
    7.5363   -2.6611   -1.1486 S   0  0  0  0  0  0  0  0  0  0  0  0
    4.6211   -1.0341   -2.0934 C   0  0  0  0  0  0  0  0  0  0  0  0
    3.3872    0.3477   -3.2771 H   0  0  0  0  0  0  0  0  0  0  0  0
    2.6205   -1.7340   -4.7192 H   0  0  0  0  0  0  0  0  0  0  0  0
    5.2570   -5.9465    2.7214 H   0  0  0  0  0  0  0  0  0  0  0  0
    6.7185   -8.1764    1.1463 H   0  0  0  0  0  0  0  0  0  0  0  0
    5.5059   -8.4548    2.4883 H   0  0  0  0  0  0  0  0  0  0  0  0
    3.7220   -7.2828    1.1746 H   0  0  0  0  0  0  0  0  0  0  0  0
    4.9146   -6.9919   -0.2016 H   0  0  0  0  0  0  0  0  0  0  0  0
    5.0309   -0.2921   -1.4201 H   0  0  0  0  0  0  0  0  0  0  0  0
  1 16  1  0
  1  2  2  0
  1 17  1  0
  2  3  1  0
  2 18  1  0
  3  4  1  0
  4  5  1  0
  4 16  2  0
  5 15  1  0
  5  6  2  0
  6  7  1  0
  7 14  1  0
  7  8  1  0
  8  9  1  0
  8 12  2  0
  9 11  1  0
  9 10  1  0
  9 19  1  0
 10 11  1  0
 10 20  1  0
 10 21  1  0
 11 22  1  0
 11 23  1  0
 12 13  1  0
 13 14  2  0
 14 15  1  0
 16 24  1  0
M  END
>  <i_m_ct_stereo_status>  (190) 
1

>  <s_m_source_file>  (190) 
/var/tmp/pbs.5102103.sched01/tmpup5_gzpn/66d1evxq16.sdf

>  <i_m_source_file_index>  (190) 
4

>  <i_lp_mmshare_version>  (190) 
48012

>  <i_f3d_flags>  (190) 
0

>  <s_epik_input>  (190) 
W2NIXTFbY0hdW2NIXXNjMS1jKG4yKXNjKG4yMylubmMzW0NIXTRbQ0gyXVtDSDJdNA==

>  <s_epik_cmdline>  (190) 
J2VwaWtfcHl0aG9uJywgJy1waHQnLCAnMi4wJywgJy1waCcsICc3LjAnLCAnLXRuJywgJzgnLCAnLW1hJywgJzIwMCcsICctaW1hZScsICc8aW5maWxlLm1hZT4nLCAnLW9tYWUnLCAnPG91dGZpbGUubWFlPic=

>  <r_lp_tautomer_probability>  (190) 
1

>  <r_epik_Ionization_Penalty>  (190) 
5.58557e-07

>  <r_epik_Ionization_Penalty_Charging>  (190) 
0

>  <r_epik_Ionization_Penalty_Neutral>  (190) 
5.58557e-07

>  <r_epik_State_Penalty>  (190) 
-0

>  <r_epik_Charging_Adjusted_Penalty>  (190) 
0

>  <i_epik_Tot_Q>  (190) 
0

>  <i_epik_Tot_abs_Q>  (190) 
0

>  <s_lp_Force_Field>  (190) 
OPLS3e

>  <r_lp_Energy>  (190) 
14.6959

>  <b_lp_Chiralities_Consistent>  (190) 
1

>  <s_lp_Variant>  (190) 
40:0-1

>  <s_i_glide_gridfile>  (190) 
pfpi4k_grid

>  <i_i_glide_lignum>  (190) 
4

>  <i_i_glide_rotatable_bonds>  (190) 
2

>  <r_i_docking_score>  (190) 
-4.02642

>  <r_i_glide_ligand_efficiency>  (190) 
-0.251652

>  <r_i_glide_ligand_efficiency_sa>  (190) 
-0.634122

>  <r_i_glide_ligand_efficiency_ln>  (190) 
-1.06728

>  <r_i_glide_gscore>  (190) 
-4.02642

>  <r_i_glide_lipo>  (190) 
-0.693402

>  <r_i_glide_hbond>  (190) 
0

>  <r_i_glide_metal>  (190) 
-0

>  <r_i_glide_rewards>  (190) 
-2.23109

>  <r_i_glide_evdw>  (190) 
-29.2228

>  <r_i_glide_ecoul>  (190) 
-1.3148

>  <r_i_glide_erotb>  (190) 
0.566471

>  <r_i_glide_esite>  (190) 
-0.0100494

>  <r_i_glide_emodel>  (190) 
-36.0524

>  <r_i_glide_energy>  (190) 
-30.5376

>  <r_i_glide_einternal>  (190) 
3.23013

>  <r_i_glide_intrahb_reward>  (190) 
-0

>  <i_i_glide_confnum>  (190) 
1

>  <i_i_glide_posenum>  (190) 
39

>  <r_i_glide_eff_state_penalty>  (190) 
0

>  <ligand_id>  (190) 
40

>  <original_smiles>  (190) 
c1csc(-c2nn3c(C4CC4)nnc3s2)c1

>  <smiles>  (190) 
[H]c1sc(-c2nn3c(C4([H])C([H])([H])C4([H])[H])nnc3s2)c([H])c1[H]

$$$$
40:0:1
     RDKit          3D

 24 27  0  0  1  0  0  0  0  0999 V2000
    3.4423   -2.5459   -3.8013 C   0  0  0  0  0  0  0  0  0  0  0  0
    3.4401   -1.2641   -3.3140 C   0  0  0  0  0  0  0  0  0  0  0  0
    4.5360   -1.0971   -1.9671 S   0  0  0  0  0  0  0  0  0  0  0  0
    4.9751   -2.7827   -2.0595 C   0  0  0  0  0  0  0  0  0  0  0  0
    5.9647   -3.3017   -1.1198 C   0  0  0  0  0  0  0  0  0  0  0  0
    5.7162   -4.2409   -0.1942 N   0  0  0  0  0  0  0  0  0  0  0  0
    6.9091   -4.4458    0.4222 N   0  0  0  0  0  0  0  0  0  0  0  0
    7.1583   -5.3407    1.3736 C   0  0  0  0  0  0  0  0  0  0  0  0
    6.2037   -6.2825    2.0328 C   0  0  0  0  0  0  0  0  0  0  0  0
    6.4342   -7.7737    1.9129 C   0  0  0  0  0  0  0  0  0  0  0  0
    5.2333   -7.1388    1.2514 C   0  0  0  0  0  0  0  0  0  0  0  0
    8.4604   -5.2411    1.6849 N   0  0  0  0  0  0  0  0  0  0  0  0
    9.0185   -4.2452    0.8471 N   0  0  0  0  0  0  0  0  0  0  0  0
    8.0512   -3.7988    0.0881 C   0  0  0  0  0  0  0  0  0  0  0  0
    7.6631   -2.7117   -1.2213 S   0  0  0  0  0  0  0  0  0  0  0  0
    4.3278   -3.4133   -3.0940 C   0  0  0  0  0  0  0  0  0  0  0  0
    2.8247   -2.8896   -4.6166 H   0  0  0  0  0  0  0  0  0  0  0  0
    2.8430   -0.4208   -3.6375 H   0  0  0  0  0  0  0  0  0  0  0  0
    5.9459   -5.9167    3.0236 H   0  0  0  0  0  0  0  0  0  0  0  0
    7.2489   -8.1122    1.2757 H   0  0  0  0  0  0  0  0  0  0  0  0
    6.2272   -8.4157    2.7634 H   0  0  0  0  0  0  0  0  0  0  0  0
    4.2532   -7.2968    1.7005 H   0  0  0  0  0  0  0  0  0  0  0  0
    5.2419   -6.9881    0.1726 H   0  0  0  0  0  0  0  0  0  0  0  0
    4.4674   -4.4463   -3.3714 H   0  0  0  0  0  0  0  0  0  0  0  0
  1 16  1  0
  1  2  2  0
  1 17  1  0
  2  3  1  0
  2 18  1  0
  3  4  1  0
  4  5  1  0
  4 16  2  0
  5 15  1  0
  5  6  2  0
  6  7  1  0
  7 14  1  0
  7  8  1  0
  8  9  1  0
  8 12  2  0
  9 11  1  0
  9 10  1  0
  9 19  1  0
 10 11  1  0
 10 20  1  0
 10 21  1  0
 11 22  1  0
 11 23  1  0
 12 13  1  0
 13 14  2  0
 14 15  1  0
 16 24  1  0
M  END
>  <i_m_ct_stereo_status>  (191) 
1

>  <s_m_source_file>  (191) 
/var/tmp/pbs.5102103.sched01/tmpup5_gzpn/66d1evxq16.sdf

>  <i_m_source_file_index>  (191) 
4

>  <i_lp_mmshare_version>  (191) 
48012

>  <i_f3d_flags>  (191) 
0

>  <s_epik_input>  (191) 
W2NIXTFbY0hdW2NIXXNjMS1jKG4yKXNjKG4yMylubmMzW0NIXTRbQ0gyXVtDSDJdNA==

>  <s_epik_cmdline>  (191) 
J2VwaWtfcHl0aG9uJywgJy1waHQnLCAnMi4wJywgJy1waCcsICc3LjAnLCAnLXRuJywgJzgnLCAnLW1hJywgJzIwMCcsICctaW1hZScsICc8aW5maWxlLm1hZT4nLCAnLW9tYWUnLCAnPG91dGZpbGUubWFlPic=

>  <r_lp_tautomer_probability>  (191) 
1

>  <r_epik_Ionization_Penalty>  (191) 
5.58557e-07

>  <r_epik_Ionization_Penalty_Charging>  (191) 
0

>  <r_epik_Ionization_Penalty_Neutral>  (191) 
5.58557e-07

>  <r_epik_State_Penalty>  (191) 
-0

>  <r_epik_Charging_Adjusted_Penalty>  (191) 
0

>  <i_epik_Tot_Q>  (191) 
0

>  <i_epik_Tot_abs_Q>  (191) 
0

>  <s_lp_Force_Field>  (191) 
OPLS3e

>  <r_lp_Energy>  (191) 
14.6959

>  <b_lp_Chiralities_Consistent>  (191) 
1

>  <s_lp_Variant>  (191) 
40:0-1

>  <s_i_glide_gridfile>  (191) 
pfpi4k_grid

>  <i_i_glide_lignum>  (191) 
4

>  <i_i_glide_rotatable_bonds>  (191) 
2

>  <r_i_docking_score>  (191) 
-4.00397

>  <r_i_glide_ligand_efficiency>  (191) 
-0.250248

>  <r_i_glide_ligand_efficiency_sa>  (191) 
-0.630586

>  <r_i_glide_ligand_efficiency_ln>  (191) 
-1.06133

>  <r_i_glide_gscore>  (191) 
-4.00397

>  <r_i_glide_lipo>  (191) 
-0.701136

>  <r_i_glide_hbond>  (191) 
0

>  <r_i_glide_metal>  (191) 
-0

>  <r_i_glide_rewards>  (191) 
-2.29818

>  <r_i_glide_evdw>  (191) 
-28.4819

>  <r_i_glide_ecoul>  (191) 
-0.723338

>  <r_i_glide_erotb>  (191) 
0.566471

>  <r_i_glide_esite>  (191) 
-0.0385331

>  <r_i_glide_emodel>  (191) 
-34.1369

>  <r_i_glide_energy>  (191) 
-29.2052

>  <r_i_glide_einternal>  (191) 
4.70033

>  <r_i_glide_intrahb_reward>  (191) 
-0

>  <i_i_glide_confnum>  (191) 
6

>  <i_i_glide_posenum>  (191) 
27

>  <r_i_glide_eff_state_penalty>  (191) 
0

>  <ligand_id>  (191) 
40

>  <original_smiles>  (191) 
c1csc(-c2nn3c(C4CC4)nnc3s2)c1

>  <smiles>  (191) 
[H]c1sc(-c2nn3c(C4([H])C([H])([H])C4([H])[H])nnc3s2)c([H])c1[H]

$$$$
40:0:2
     RDKit          3D

 24 27  0  0  1  0  0  0  0  0999 V2000
    3.8039   -0.3766   -3.3202 C   0  0  0  0  0  0  0  0  0  0  0  0
    3.0179   -1.3152   -3.9231 C   0  0  0  0  0  0  0  0  0  0  0  0
    3.2618   -2.9041   -3.2377 S   0  0  0  0  0  0  0  0  0  0  0  0
    4.4347   -2.2709   -2.1004 C   0  0  0  0  0  0  0  0  0  0  0  0
    5.1226   -3.1449   -1.1446 C   0  0  0  0  0  0  0  0  0  0  0  0
    4.6694   -4.3370   -0.7144 N   0  0  0  0  0  0  0  0  0  0  0  0
    5.6277   -4.7872    0.1406 N   0  0  0  0  0  0  0  0  0  0  0  0
    5.5812   -5.9180    0.8372 C   0  0  0  0  0  0  0  0  0  0  0  0
    4.4985   -6.9489    0.8584 C   0  0  0  0  0  0  0  0  0  0  0  0
    3.1085   -6.6528    1.3819 C   0  0  0  0  0  0  0  0  0  0  0  0
    4.0469   -7.5136    2.1899 C   0  0  0  0  0  0  0  0  0  0  0  0
    6.7289   -6.0093    1.5278 N   0  0  0  0  0  0  0  0  0  0  0  0
    7.4690   -4.8322    1.2655 N   0  0  0  0  0  0  0  0  0  0  0  0
    6.7686   -4.1231    0.4161 C   0  0  0  0  0  0  0  0  0  0  0  0
    6.7358   -2.6395   -0.5079 S   0  0  0  0  0  0  0  0  0  0  0  0
    4.6051   -0.9208   -2.2765 C   0  0  0  0  0  0  0  0  0  0  0  0
    3.8144    0.6775   -3.5562 H   0  0  0  0  0  0  0  0  0  0  0  0
    2.2975   -1.1608   -4.7092 H   0  0  0  0  0  0  0  0  0  0  0  0
    4.6450   -7.6715    0.0561 H   0  0  0  0  0  0  0  0  0  0  0  0
    2.9334   -5.6264    1.7056 H   0  0  0  0  0  0  0  0  0  0  0  0
    2.2757   -7.1452    0.8831 H   0  0  0  0  0  0  0  0  0  0  0  0
    3.7955   -8.5679    2.2648 H   0  0  0  0  0  0  0  0  0  0  0  0
    4.4650   -7.0845    3.0974 H   0  0  0  0  0  0  0  0  0  0  0  0
    5.2670   -0.2914   -1.7057 H   0  0  0  0  0  0  0  0  0  0  0  0
  1 16  1  0
  1  2  2  0
  1 17  1  0
  2  3  1  0
  2 18  1  0
  3  4  1  0
  4  5  1  0
  4 16  2  0
  5 15  1  0
  5  6  2  0
  6  7  1  0
  7 14  1  0
  7  8  1  0
  8  9  1  0
  8 12  2  0
  9 11  1  0
  9 10  1  0
  9 19  1  0
 10 11  1  0
 10 20  1  0
 10 21  1  0
 11 22  1  0
 11 23  1  0
 12 13  1  0
 13 14  2  0
 14 15  1  0
 16 24  1  0
M  END
>  <i_m_ct_stereo_status>  (192) 
1

>  <s_m_source_file>  (192) 
/var/tmp/pbs.5102103.sched01/tmpup5_gzpn/66d1evxq16.sdf

>  <i_m_source_file_index>  (192) 
4

>  <i_lp_mmshare_version>  (192) 
48012

>  <i_f3d_flags>  (192) 
0

>  <s_epik_input>  (192) 
W2NIXTFbY0hdW2NIXXNjMS1jKG4yKXNjKG4yMylubmMzW0NIXTRbQ0gyXVtDSDJdNA==

>  <s_epik_cmdline>  (192) 
J2VwaWtfcHl0aG9uJywgJy1waHQnLCAnMi4wJywgJy1waCcsICc3LjAnLCAnLXRuJywgJzgnLCAnLW1hJywgJzIwMCcsICctaW1hZScsICc8aW5maWxlLm1hZT4nLCAnLW9tYWUnLCAnPG91dGZpbGUubWFlPic=

>  <r_lp_tautomer_probability>  (192) 
1

>  <r_epik_Ionization_Penalty>  (192) 
5.58557e-07

>  <r_epik_Ionization_Penalty_Charging>  (192) 
0

>  <r_epik_Ionization_Penalty_Neutral>  (192) 
5.58557e-07

>  <r_epik_State_Penalty>  (192) 
-0

>  <r_epik_Charging_Adjusted_Penalty>  (192) 
0

>  <i_epik_Tot_Q>  (192) 
0

>  <i_epik_Tot_abs_Q>  (192) 
0

>  <s_lp_Force_Field>  (192) 
OPLS3e

>  <r_lp_Energy>  (192) 
14.6959

>  <b_lp_Chiralities_Consistent>  (192) 
1

>  <s_lp_Variant>  (192) 
40:0-1

>  <s_i_glide_gridfile>  (192) 
pfpi4k_grid

>  <i_i_glide_lignum>  (192) 
4

>  <i_i_glide_rotatable_bonds>  (192) 
2

>  <r_i_docking_score>  (192) 
-3.68883

>  <r_i_glide_ligand_efficiency>  (192) 
-0.230552

>  <r_i_glide_ligand_efficiency_sa>  (192) 
-0.580954

>  <r_i_glide_ligand_efficiency_ln>  (192) 
-0.977797

>  <r_i_glide_gscore>  (192) 
-3.68883

>  <r_i_glide_lipo>  (192) 
-0.65217

>  <r_i_glide_hbond>  (192) 
0

>  <r_i_glide_metal>  (192) 
-0

>  <r_i_glide_rewards>  (192) 
-2.10965

>  <r_i_glide_evdw>  (192) 
-28.0592

>  <r_i_glide_ecoul>  (192) 
-0.60345

>  <r_i_glide_erotb>  (192) 
0.566471

>  <r_i_glide_esite>  (192) 
0

>  <r_i_glide_emodel>  (192) 
-34.8771

>  <r_i_glide_energy>  (192) 
-28.6626

>  <r_i_glide_einternal>  (192) 
0.641429

>  <r_i_glide_intrahb_reward>  (192) 
-0

>  <i_i_glide_confnum>  (192) 
1

>  <i_i_glide_posenum>  (192) 
10

>  <r_i_glide_eff_state_penalty>  (192) 
0

>  <ligand_id>  (192) 
40

>  <original_smiles>  (192) 
c1csc(-c2nn3c(C4CC4)nnc3s2)c1

>  <smiles>  (192) 
[H]c1sc(-c2nn3c(C4([H])C([H])([H])C4([H])[H])nnc3s2)c([H])c1[H]

$$$$
41:0:0
     RDKit          3D

 44 46  0  0  1  0  0  0  0  0999 V2000
    2.6244   -0.8217    1.5231 C   0  0  0  0  0  0  0  0  0  0  0  0
    3.8574   -1.6173    1.9899 C   0  0  2  0  0  0  0  0  0  0  0  0
    5.1968   -1.0634    1.3680 C   0  0  0  0  0  0  0  0  0  0  0  0
    5.9221   -1.9059    0.2379 C   0  0  0  0  0  0  0  0  0  0  0  0
    5.0017   -2.7652   -0.6494 C   0  0  1  0  0  0  0  0  0  0  0  0
    4.7391   -2.0563   -1.9863 C   0  0  0  0  0  0  0  0  0  0  0  0
    4.9830   -0.8568   -2.1387 O   0  0  0  0  0  0  0  0  0  0  0  0
    4.1500   -2.8507   -3.1832 C   0  0  0  0  0  0  0  0  0  0  0  0
    3.8517   -2.0215   -4.3123 O   0  0  0  0  0  0  0  0  0  0  0  0
    4.5919   -4.2860   -0.5466 C   0  0  1  0  0  0  0  0  0  0  0  0
    5.0702   -5.4469    0.2796 C   0  0  0  0  0  0  0  0  0  0  0  0
    3.9567   -6.1818    1.1185 C   0  0  0  0  0  0  0  0  0  0  0  0
    2.6469   -5.4587    1.5830 C   0  0  0  0  0  0  0  0  0  0  0  0
    1.5703   -6.0654    1.5023 O   0  0  0  0  0  0  0  0  0  0  0  0
    2.6113   -4.0256    2.1985 C   0  0  1  0  0  0  0  0  0  0  0  0
    2.3353   -4.0527    3.7195 C   0  0  0  0  0  0  0  0  0  0  0  0
    3.8089   -3.1459    1.7513 C   0  0  2  0  0  0  0  0  0  0  0  0
    5.0043   -3.6677    2.6576 C   0  0  0  0  0  0  0  0  0  0  0  0
    3.8708   -3.2573    0.2073 C   0  0  1  0  0  0  0  0  0  0  0  0
    2.6185   -3.0557   -0.4599 O   0  0  0  0  0  0  0  0  0  0  0  0
    2.6136   -0.6719    0.4501 H   0  0  0  0  0  0  0  0  0  0  0  0
    2.6189    0.1675    1.9685 H   0  0  0  0  0  0  0  0  0  0  0  0
    1.6946   -1.3069    1.8064 H   0  0  0  0  0  0  0  0  0  0  0  0
    3.8751   -1.4406    3.0693 H   0  0  0  0  0  0  0  0  0  0  0  0
    4.9938   -0.0643    0.9777 H   0  0  0  0  0  0  0  0  0  0  0  0
    5.9087   -0.9154    2.1864 H   0  0  0  0  0  0  0  0  0  0  0  0
    6.5162   -1.2198   -0.3639 H   0  0  0  0  0  0  0  0  0  0  0  0
    6.6770   -2.5701    0.6418 H   0  0  0  0  0  0  0  0  0  0  0  0
    4.8743   -3.6028   -3.4881 H   0  0  0  0  0  0  0  0  0  0  0  0
    3.2336   -3.3728   -2.9059 H   0  0  0  0  0  0  0  0  0  0  0  0
    3.0907   -1.5125   -4.0911 H   0  0  0  0  0  0  0  0  0  0  0  0
    4.0954   -4.6631   -1.4243 H   0  0  0  0  0  0  0  0  0  0  0  0
    5.4633   -6.1737   -0.4226 H   0  0  0  0  0  0  0  0  0  0  0  0
    5.9357   -5.1523    0.8668 H   0  0  0  0  0  0  0  0  0  0  0  0
    3.6115   -7.0225    0.5186 H   0  0  0  0  0  0  0  0  0  0  0  0
    4.4219   -6.6414    1.9910 H   0  0  0  0  0  0  0  0  0  0  0  0
    1.7314   -3.5580    1.7671 H   0  0  0  0  0  0  0  0  0  0  0  0
    1.3459   -4.4579    3.9269 H   0  0  0  0  0  0  0  0  0  0  0  0
    2.3606   -3.0479    4.1404 H   0  0  0  0  0  0  0  0  0  0  0  0
    3.0520   -4.6614    4.2712 H   0  0  0  0  0  0  0  0  0  0  0  0
    4.9997   -4.7331    2.8641 H   0  0  0  0  0  0  0  0  0  0  0  0
    4.9452   -3.2345    3.6566 H   0  0  0  0  0  0  0  0  0  0  0  0
    6.0064   -3.4409    2.3261 H   0  0  0  0  0  0  0  0  0  0  0  0
    2.2865   -2.1817   -0.3511 H   0  0  0  0  0  0  0  0  0  0  0  0
  1  2  1  0
  1 21  1  0
  1 22  1  0
  1 23  1  0
  2 17  1  0
  2  3  1  0
  2 24  1  1
  3  4  1  0
  3 25  1  0
  3 26  1  0
  4  5  1  0
  4 27  1  0
  4 28  1  0
  5 19  1  0
  5  6  1  6
  5 10  1  0
  6  7  2  0
  6  8  1  0
  8  9  1  0
  8 29  1  0
  8 30  1  0
  9 31  1  0
 10 19  1  0
 10 11  1  0
 10 32  1  6
 11 12  1  0
 11 33  1  0
 11 34  1  0
 12 13  1  0
 12 35  1  0
 12 36  1  0
 13 14  2  0
 13 15  1  0
 15 16  1  0
 15 17  1  0
 15 37  1  6
 16 38  1  0
 16 39  1  0
 16 40  1  0
 17 18  1  1
 17 19  1  0
 18 41  1  0
 18 42  1  0
 18 43  1  0
 19 20  1  6
 20 44  1  0
M  END
>  <i_m_ct_stereo_status>  (193) 
1

>  <s_m_source_file>  (193) 
/var/tmp/pbs.5102103.sched01/tmpup5_gzpn/66d1evxq16.sdf

>  <i_m_source_file_index>  (193) 
5

>  <i_lp_mmshare_version>  (193) 
48012

>  <i_f3d_flags>  (193) 
0

>  <s_epik_input>  (193) 
W0NIMl0xW0NIMl1DKD1PKVtDQEBIXShbQ0gzXSlbQ0BdKFtDSDNdKShbQ0BIXShbQ0gzXSlbQ0gyXVtDSDJdMilbQ0BdMyhbT0hdKVtDQEhdMVtDQF0yM0MoPU8pW0NIMl1bT0hd

>  <s_epik_cmdline>  (193) 
J2VwaWtfcHl0aG9uJywgJy1waHQnLCAnMi4wJywgJy1waCcsICc3LjAnLCAnLXRuJywgJzgnLCAnLW1hJywgJzIwMCcsICctaW1hZScsICc8aW5maWxlLm1hZT4nLCAnLW9tYWUnLCAnPG91dGZpbGUubWFlPic=

>  <r_lp_tautomer_probability>  (193) 
1

>  <r_epik_Ionization_Penalty>  (193) 
1.97782e-06

>  <r_epik_Ionization_Penalty_Charging>  (193) 
0

>  <r_epik_Ionization_Penalty_Neutral>  (193) 
1.97782e-06

>  <r_epik_State_Penalty>  (193) 
-0

>  <r_epik_Charging_Adjusted_Penalty>  (193) 
0

>  <i_epik_Tot_Q>  (193) 
0

>  <i_epik_Tot_abs_Q>  (193) 
0

>  <s_lp_Force_Field>  (193) 
OPLS3e

>  <r_lp_Energy>  (193) 
85.7947

>  <b_lp_Chiralities_Consistent>  (193) 
1

>  <s_lp_Variant>  (193) 
41:0-1

>  <s_i_glide_gridfile>  (193) 
pfpi4k_grid

>  <i_i_glide_lignum>  (193) 
5

>  <i_i_glide_rotatable_bonds>  (193) 
4

>  <r_i_docking_score>  (193) 
-3.92125

>  <r_i_glide_ligand_efficiency>  (193) 
-0.196062

>  <r_i_glide_ligand_efficiency_sa>  (193) 
-0.532195

>  <r_i_glide_ligand_efficiency_ln>  (193) 
-0.981359

>  <r_i_glide_gscore>  (193) 
-3.92125

>  <r_i_glide_lipo>  (193) 
-0.478097

>  <r_i_glide_hbond>  (193) 
-0.172332

>  <r_i_glide_metal>  (193) 
-0

>  <r_i_glide_rewards>  (193) 
-1.49755

>  <r_i_glide_evdw>  (193) 
-20.0747

>  <r_i_glide_ecoul>  (193) 
-8.01315

>  <r_i_glide_erotb>  (193) 
0.459501

>  <r_i_glide_esite>  (193) 
-0.0270623

>  <r_i_glide_emodel>  (193) 
-33.8664

>  <r_i_glide_energy>  (193) 
-28.0879

>  <r_i_glide_einternal>  (193) 
2.83105

>  <r_i_glide_intrahb_reward>  (193) 
-0

>  <i_i_glide_confnum>  (193) 
2

>  <i_i_glide_posenum>  (193) 
38

>  <r_i_glide_eff_state_penalty>  (193) 
0

>  <ligand_id>  (193) 
41

>  <original_smiles>  (193) 
CC1CCC2(C(=O)CO)C3CCC(=O)C(C)C1(C)C32O

>  <smiles>  (193) 
[H]OC([H])([H])C(=O)C12C([H])([H])C([H])([H])C([H])(C([H])([H])[H])C3(C([H])([H])[H])C([H])(C([H])([H])[H])C(=O)C([H])([H])C([H])([H])C1([H])C23O[H]

$$$$
41:0:1
     RDKit          3D

 44 46  0  0  1  0  0  0  0  0999 V2000
    2.6598   -0.6901    1.3452 C   0  0  0  0  0  0  0  0  0  0  0  0
    3.9225   -1.4245    1.8208 C   0  0  2  0  0  0  0  0  0  0  0  0
    5.2255   -0.8731    1.1199 C   0  0  0  0  0  0  0  0  0  0  0  0
    5.9162   -1.7600    0.0098 C   0  0  0  0  0  0  0  0  0  0  0  0
    4.9605   -2.6687   -0.7437 C   0  0  1  0  0  0  0  0  0  0  0  0
    4.6758   -2.1113   -2.1249 C   0  0  0  0  0  0  0  0  0  0  0  0
    5.0798   -2.7193   -3.1314 O   0  0  0  0  0  0  0  0  0  0  0  0
    3.8875   -0.7995   -2.2733 C   0  0  0  0  0  0  0  0  0  0  0  0
    3.8238   -0.3230   -3.6091 O   0  0  0  0  0  0  0  0  0  0  0  0
    4.6364   -4.2102   -0.5872 C   0  0  1  0  0  0  0  0  0  0  0  0
    5.1585   -5.3175    0.2981 C   0  0  0  0  0  0  0  0  0  0  0  0
    4.0998   -6.0253    1.2320 C   0  0  0  0  0  0  0  0  0  0  0  0
    2.7862   -5.3127    1.7008 C   0  0  0  0  0  0  0  0  0  0  0  0
    1.7300   -5.9512    1.7008 O   0  0  0  0  0  0  0  0  0  0  0  0
    2.7308   -3.8430    2.2247 C   0  0  1  0  0  0  0  0  0  0  0  0
    2.5074   -3.7730    3.7516 C   0  0  0  0  0  0  0  0  0  0  0  0
    3.8950   -2.9682    1.6862 C   0  0  2  0  0  0  0  0  0  0  0  0
    5.1325   -3.4007    2.5727 C   0  0  0  0  0  0  0  0  0  0  0  0
    3.8934   -3.1758    0.1569 C   0  0  1  0  0  0  0  0  0  0  0  0
    2.6097   -3.0604   -0.4724 O   0  0  0  0  0  0  0  0  0  0  0  0
    2.6262   -0.6156    0.2701 H   0  0  0  0  0  0  0  0  0  0  0  0
    2.6393    0.3264    1.7218 H   0  0  0  0  0  0  0  0  0  0  0  0
    1.7488   -1.1755    1.6825 H   0  0  0  0  0  0  0  0  0  0  0  0
    3.9696   -1.1773    2.8851 H   0  0  0  0  0  0  0  0  0  0  0  0
    4.9876    0.0955    0.6801 H   0  0  0  0  0  0  0  0  0  0  0  0
    5.9631   -0.6667    1.8960 H   0  0  0  0  0  0  0  0  0  0  0  0
    6.4411   -1.1146   -0.6941 H   0  0  0  0  0  0  0  0  0  0  0  0
    6.7046   -2.3928    0.4181 H   0  0  0  0  0  0  0  0  0  0  0  0
    2.8534   -0.9433   -1.9515 H   0  0  0  0  0  0  0  0  0  0  0  0
    4.3268   -0.0255   -1.6427 H   0  0  0  0  0  0  0  0  0  0  0  0
    3.2687    0.4306   -3.6314 H   0  0  0  0  0  0  0  0  0  0  0  0
    4.1462   -4.6209   -1.4658 H   0  0  0  0  0  0  0  0  0  0  0  0
    5.5669   -6.0855   -0.3506 H   0  0  0  0  0  0  0  0  0  0  0  0
    6.0335   -4.9729    0.8437 H   0  0  0  0  0  0  0  0  0  0  0  0
    3.7598   -6.9187    0.7105 H   0  0  0  0  0  0  0  0  0  0  0  0
    4.6085   -6.4149    2.1159 H   0  0  0  0  0  0  0  0  0  0  0  0
    1.8214   -3.4321    1.7910 H   0  0  0  0  0  0  0  0  0  0  0  0
    1.5372   -4.1865    4.0158 H   0  0  0  0  0  0  0  0  0  0  0  0
    2.5223   -2.7423    4.1014 H   0  0  0  0  0  0  0  0  0  0  0  0
    3.2570   -4.3262    4.3130 H   0  0  0  0  0  0  0  0  0  0  0  0
    5.1660   -4.4480    2.8544 H   0  0  0  0  0  0  0  0  0  0  0  0
    5.0985   -2.9064    3.5433 H   0  0  0  0  0  0  0  0  0  0  0  0
    6.1196   -3.1733    2.1961 H   0  0  0  0  0  0  0  0  0  0  0  0
    2.2483   -2.1965   -0.3989 H   0  0  0  0  0  0  0  0  0  0  0  0
  1  2  1  0
  1 21  1  0
  1 22  1  0
  1 23  1  0
  2 17  1  0
  2  3  1  0
  2 24  1  1
  3  4  1  0
  3 25  1  0
  3 26  1  0
  4  5  1  0
  4 27  1  0
  4 28  1  0
  5 19  1  0
  5  6  1  6
  5 10  1  0
  6  7  2  0
  6  8  1  0
  8  9  1  0
  8 29  1  0
  8 30  1  0
  9 31  1  0
 10 19  1  0
 10 11  1  0
 10 32  1  6
 11 12  1  0
 11 33  1  0
 11 34  1  0
 12 13  1  0
 12 35  1  0
 12 36  1  0
 13 14  2  0
 13 15  1  0
 15 16  1  0
 15 17  1  0
 15 37  1  6
 16 38  1  0
 16 39  1  0
 16 40  1  0
 17 18  1  1
 17 19  1  0
 18 41  1  0
 18 42  1  0
 18 43  1  0
 19 20  1  6
 20 44  1  0
M  END
>  <i_m_ct_stereo_status>  (194) 
1

>  <s_m_source_file>  (194) 
/var/tmp/pbs.5102103.sched01/tmpup5_gzpn/66d1evxq16.sdf

>  <i_m_source_file_index>  (194) 
5

>  <i_lp_mmshare_version>  (194) 
48012

>  <i_f3d_flags>  (194) 
0

>  <s_epik_input>  (194) 
W0NIMl0xW0NIMl1DKD1PKVtDQEBIXShbQ0gzXSlbQ0BdKFtDSDNdKShbQ0BIXShbQ0gzXSlbQ0gyXVtDSDJdMilbQ0BdMyhbT0hdKVtDQEhdMVtDQF0yM0MoPU8pW0NIMl1bT0hd

>  <s_epik_cmdline>  (194) 
J2VwaWtfcHl0aG9uJywgJy1waHQnLCAnMi4wJywgJy1waCcsICc3LjAnLCAnLXRuJywgJzgnLCAnLW1hJywgJzIwMCcsICctaW1hZScsICc8aW5maWxlLm1hZT4nLCAnLW9tYWUnLCAnPG91dGZpbGUubWFlPic=

>  <r_lp_tautomer_probability>  (194) 
1

>  <r_epik_Ionization_Penalty>  (194) 
1.97782e-06

>  <r_epik_Ionization_Penalty_Charging>  (194) 
0

>  <r_epik_Ionization_Penalty_Neutral>  (194) 
1.97782e-06

>  <r_epik_State_Penalty>  (194) 
-0

>  <r_epik_Charging_Adjusted_Penalty>  (194) 
0

>  <i_epik_Tot_Q>  (194) 
0

>  <i_epik_Tot_abs_Q>  (194) 
0

>  <s_lp_Force_Field>  (194) 
OPLS3e

>  <r_lp_Energy>  (194) 
85.7947

>  <b_lp_Chiralities_Consistent>  (194) 
1

>  <s_lp_Variant>  (194) 
41:0-1

>  <s_i_glide_gridfile>  (194) 
pfpi4k_grid

>  <i_i_glide_lignum>  (194) 
5

>  <i_i_glide_rotatable_bonds>  (194) 
4

>  <r_i_docking_score>  (194) 
-3.53697

>  <r_i_glide_ligand_efficiency>  (194) 
-0.176849

>  <r_i_glide_ligand_efficiency_sa>  (194) 
-0.480041

>  <r_i_glide_ligand_efficiency_ln>  (194) 
-0.885188

>  <r_i_glide_gscore>  (194) 
-3.53697

>  <r_i_glide_lipo>  (194) 
-0.324937

>  <r_i_glide_hbond>  (194) 
-0.149813

>  <r_i_glide_metal>  (194) 
-0

>  <r_i_glide_rewards>  (194) 
-1.49755

>  <r_i_glide_evdw>  (194) 
-21.1383

>  <r_i_glide_ecoul>  (194) 
-6.36538

>  <r_i_glide_erotb>  (194) 
0.459501

>  <r_i_glide_esite>  (194) 
-0.0124577

>  <r_i_glide_emodel>  (194) 
-34.0429

>  <r_i_glide_energy>  (194) 
-27.5036

>  <r_i_glide_einternal>  (194) 
0.383758

>  <r_i_glide_intrahb_reward>  (194) 
-0

>  <i_i_glide_confnum>  (194) 
3

>  <i_i_glide_posenum>  (194) 
1

>  <r_i_glide_eff_state_penalty>  (194) 
0

>  <ligand_id>  (194) 
41

>  <original_smiles>  (194) 
CC1CCC2(C(=O)CO)C3CCC(=O)C(C)C1(C)C32O

>  <smiles>  (194) 
[H]OC([H])([H])C(=O)C12C([H])([H])C([H])([H])C([H])(C([H])([H])[H])C3(C([H])([H])[H])C([H])(C([H])([H])[H])C(=O)C([H])([H])C([H])([H])C1([H])C23O[H]

$$$$
41:0:2
     RDKit          3D

 44 46  0  0  1  0  0  0  0  0999 V2000
    3.0062   -1.3800    1.9886 C   0  0  0  0  0  0  0  0  0  0  0  0
    3.8949   -2.4287    2.6859 C   0  0  2  0  0  0  0  0  0  0  0  0
    5.4139   -2.2278    2.3352 C   0  0  0  0  0  0  0  0  0  0  0  0
    6.1111   -3.2720    1.3709 C   0  0  0  0  0  0  0  0  0  0  0  0
    5.1785   -3.9007    0.3119 C   0  0  1  0  0  0  0  0  0  0  0  0
    5.3762   -3.2278   -1.0582 C   0  0  0  0  0  0  0  0  0  0  0  0
    6.0735   -2.2129   -1.1978 O   0  0  0  0  0  0  0  0  0  0  0  0
    4.7136   -3.8379   -2.3186 C   0  0  0  0  0  0  0  0  0  0  0  0
    5.0365   -3.1314   -3.4985 O   0  0  0  0  0  0  0  0  0  0  0  0
    4.4150   -5.2945    0.3154 C   0  0  1  0  0  0  0  0  0  0  0  0
    4.4457   -6.4981    1.2275 C   0  0  0  0  0  0  0  0  0  0  0  0
    3.0522   -6.9127    1.8496 C   0  0  0  0  0  0  0  0  0  0  0  0
    1.8849   -5.8897    2.0747 C   0  0  0  0  0  0  0  0  0  0  0  0
    0.7318   -6.2342    1.7868 O   0  0  0  0  0  0  0  0  0  0  0  0
    2.0859   -4.4579    2.6683 C   0  0  1  0  0  0  0  0  0  0  0  0
    1.5330   -4.3351    4.1031 C   0  0  0  0  0  0  0  0  0  0  0  0
    3.5253   -3.9136    2.4479 C   0  0  2  0  0  0  0  0  0  0  0  0
    4.3752   -4.6588    3.5658 C   0  0  0  0  0  0  0  0  0  0  0  0
    3.8232   -4.1029    0.9387 C   0  0  1  0  0  0  0  0  0  0  0  0
    2.7259   -3.6956    0.0989 O   0  0  0  0  0  0  0  0  0  0  0  0
    3.2247   -1.2955    0.9262 H   0  0  0  0  0  0  0  0  0  0  0  0
    3.1635   -0.3960    2.4209 H   0  0  0  0  0  0  0  0  0  0  0  0
    1.9489   -1.6095    2.0955 H   0  0  0  0  0  0  0  0  0  0  0  0
    3.7570   -2.2065    3.7504 H   0  0  0  0  0  0  0  0  0  0  0  0
    5.5531   -1.2217    1.9325 H   0  0  0  0  0  0  0  0  0  0  0  0
    5.9586   -2.2250    3.2741 H   0  0  0  0  0  0  0  0  0  0  0  0
    6.9712   -2.7874    0.9184 H   0  0  0  0  0  0  0  0  0  0  0  0
    6.5903   -4.0857    1.9140 H   0  0  0  0  0  0  0  0  0  0  0  0
    5.0368   -4.8722   -2.4404 H   0  0  0  0  0  0  0  0  0  0  0  0
    3.6263   -3.8424   -2.2185 H   0  0  0  0  0  0  0  0  0  0  0  0
    5.9584   -3.2477   -3.6544 H   0  0  0  0  0  0  0  0  0  0  0  0
    4.0127   -5.6053   -0.6437 H   0  0  0  0  0  0  0  0  0  0  0  0
    4.7935   -7.3376    0.6275 H   0  0  0  0  0  0  0  0  0  0  0  0
    5.2299   -6.3899    1.9774 H   0  0  0  0  0  0  0  0  0  0  0  0
    2.6275   -7.6770    1.1996 H   0  0  0  0  0  0  0  0  0  0  0  0
    3.2247   -7.4267    2.7960 H   0  0  0  0  0  0  0  0  0  0  0  0
    1.4384   -3.8034    2.0877 H   0  0  0  0  0  0  0  0  0  0  0  0
    0.4540   -4.4776    4.1085 H   0  0  0  0  0  0  0  0  0  0  0  0
    1.7269   -3.3450    4.5132 H   0  0  0  0  0  0  0  0  0  0  0  0
    1.9635   -5.0712    4.7780 H   0  0  0  0  0  0  0  0  0  0  0  0
    4.0718   -5.6797    3.7711 H   0  0  0  0  0  0  0  0  0  0  0  0
    4.2321   -4.1715    4.5319 H   0  0  0  0  0  0  0  0  0  0  0  0
    5.4484   -4.6900    3.4396 H   0  0  0  0  0  0  0  0  0  0  0  0
    2.9801   -3.6814   -0.7945 H   0  0  0  0  0  0  0  0  0  0  0  0
  1  2  1  0
  1 21  1  0
  1 22  1  0
  1 23  1  0
  2 17  1  0
  2  3  1  0
  2 24  1  1
  3  4  1  0
  3 25  1  0
  3 26  1  0
  4  5  1  0
  4 27  1  0
  4 28  1  0
  5 19  1  0
  5  6  1  6
  5 10  1  0
  6  7  2  0
  6  8  1  0
  8  9  1  0
  8 29  1  0
  8 30  1  0
  9 31  1  0
 10 19  1  0
 10 11  1  0
 10 32  1  6
 11 12  1  0
 11 33  1  0
 11 34  1  0
 12 13  1  0
 12 35  1  0
 12 36  1  0
 13 14  2  0
 13 15  1  0
 15 16  1  0
 15 17  1  0
 15 37  1  6
 16 38  1  0
 16 39  1  0
 16 40  1  0
 17 18  1  1
 17 19  1  0
 18 41  1  0
 18 42  1  0
 18 43  1  0
 19 20  1  6
 20 44  1  0
M  END
>  <i_m_ct_stereo_status>  (195) 
1

>  <s_m_source_file>  (195) 
/var/tmp/pbs.5102103.sched01/tmpup5_gzpn/66d1evxq16.sdf

>  <i_m_source_file_index>  (195) 
5

>  <i_lp_mmshare_version>  (195) 
48012

>  <i_f3d_flags>  (195) 
0

>  <s_epik_input>  (195) 
W0NIMl0xW0NIMl1DKD1PKVtDQEBIXShbQ0gzXSlbQ0BdKFtDSDNdKShbQ0BIXShbQ0gzXSlbQ0gyXVtDSDJdMilbQ0BdMyhbT0hdKVtDQEhdMVtDQF0yM0MoPU8pW0NIMl1bT0hd

>  <s_epik_cmdline>  (195) 
J2VwaWtfcHl0aG9uJywgJy1waHQnLCAnMi4wJywgJy1waCcsICc3LjAnLCAnLXRuJywgJzgnLCAnLW1hJywgJzIwMCcsICctaW1hZScsICc8aW5maWxlLm1hZT4nLCAnLW9tYWUnLCAnPG91dGZpbGUubWFlPic=

>  <r_lp_tautomer_probability>  (195) 
1

>  <r_epik_Ionization_Penalty>  (195) 
1.97782e-06

>  <r_epik_Ionization_Penalty_Charging>  (195) 
0

>  <r_epik_Ionization_Penalty_Neutral>  (195) 
1.97782e-06

>  <r_epik_State_Penalty>  (195) 
-0

>  <r_epik_Charging_Adjusted_Penalty>  (195) 
0

>  <i_epik_Tot_Q>  (195) 
0

>  <i_epik_Tot_abs_Q>  (195) 
0

>  <s_lp_Force_Field>  (195) 
OPLS3e

>  <r_lp_Energy>  (195) 
85.7947

>  <b_lp_Chiralities_Consistent>  (195) 
1

>  <s_lp_Variant>  (195) 
41:0-1

>  <s_i_glide_gridfile>  (195) 
pfpi4k_grid

>  <i_i_glide_lignum>  (195) 
5

>  <i_i_glide_rotatable_bonds>  (195) 
4

>  <r_i_docking_score>  (195) 
-3.53518

>  <r_i_glide_ligand_efficiency>  (195) 
-0.176759

>  <r_i_glide_ligand_efficiency_sa>  (195) 
-0.479798

>  <r_i_glide_ligand_efficiency_ln>  (195) 
-0.884739

>  <r_i_glide_gscore>  (195) 
-3.53518

>  <r_i_glide_lipo>  (195) 
-0.371095

>  <r_i_glide_hbond>  (195) 
-0.161098

>  <r_i_glide_metal>  (195) 
-0

>  <r_i_glide_rewards>  (195) 
-1.58652

>  <r_i_glide_evdw>  (195) 
-17.6241

>  <r_i_glide_ecoul>  (195) 
-6.41864

>  <r_i_glide_erotb>  (195) 
0.459501

>  <r_i_glide_esite>  (195) 
-0.0319605

>  <r_i_glide_emodel>  (195) 
-28.7529

>  <r_i_glide_energy>  (195) 
-24.0428

>  <r_i_glide_einternal>  (195) 
3.16653

>  <r_i_glide_intrahb_reward>  (195) 
-0

>  <i_i_glide_confnum>  (195) 
2

>  <i_i_glide_posenum>  (195) 
6

>  <r_i_glide_eff_state_penalty>  (195) 
0

>  <ligand_id>  (195) 
41

>  <original_smiles>  (195) 
CC1CCC2(C(=O)CO)C3CCC(=O)C(C)C1(C)C32O

>  <smiles>  (195) 
[H]OC([H])([H])C(=O)C12C([H])([H])C([H])([H])C([H])(C([H])([H])[H])C3(C([H])([H])[H])C([H])(C([H])([H])[H])C(=O)C([H])([H])C([H])([H])C1([H])C23O[H]

$$$$
42:0:0
     RDKit          3D

 35 37  0  0  1  0  0  0  0  0999 V2000
   -8.2572  -10.7426   -8.7102 C   0  0  0  0  0  0  0  0  0  0  0  0
   -7.3093   -9.8563   -7.9772 N   0  0  2  0  0  0  0  0  0  0  0  0
   -6.5161  -10.5965   -6.9662 C   0  0  0  0  0  0  0  0  0  0  0  0
   -5.3642   -9.7327   -6.4345 C   0  0  0  0  0  0  0  0  0  0  0  0
   -5.8084   -8.3324   -6.0478 C   0  0  0  0  0  0  0  0  0  0  0  0
   -4.9750   -7.5245   -5.2470 C   0  0  0  0  0  0  0  0  0  0  0  0
   -5.3758   -6.2145   -4.9103 C   0  0  0  0  0  0  0  0  0  0  0  0
   -6.6023   -5.7029   -5.3604 C   0  0  0  0  0  0  0  0  0  0  0  0
   -7.4319   -6.5084   -6.1581 C   0  0  0  0  0  0  0  0  0  0  0  0
   -7.0422   -7.8216   -6.5155 C   0  0  0  0  0  0  0  0  0  0  0  0
   -7.9812   -8.6742   -7.3699 C   0  0  1  0  0  0  0  0  0  0  0  0
   -8.6785   -7.8420   -8.4344 C   0  0  0  0  0  0  0  0  0  0  0  0
   -7.9272   -7.2371   -9.4612 C   0  0  0  0  0  0  0  0  0  0  0  0
   -8.5635   -6.4393  -10.4285 C   0  0  0  0  0  0  0  0  0  0  0  0
   -9.9593   -6.2551  -10.3732 C   0  0  0  0  0  0  0  0  0  0  0  0
  -10.7150   -6.8599   -9.3495 C   0  0  0  0  0  0  0  0  0  0  0  0
  -10.0749   -7.6577   -8.3852 C   0  0  0  0  0  0  0  0  0  0  0  0
   -9.0448  -11.1068   -8.0408 H   0  0  0  0  0  0  0  0  0  0  0  0
   -7.7512  -11.6099   -9.1404 H   0  0  0  0  0  0  0  0  0  0  0  0
   -8.7487  -10.2256   -9.5411 H   0  0  0  0  0  0  0  0  0  0  0  0
   -7.1702  -10.8949   -6.1438 H   0  0  0  0  0  0  0  0  0  0  0  0
   -6.1111  -11.5129   -7.3985 H   0  0  0  0  0  0  0  0  0  0  0  0
   -4.8990  -10.2249   -5.5774 H   0  0  0  0  0  0  0  0  0  0  0  0
   -4.5868   -9.6466   -7.1946 H   0  0  0  0  0  0  0  0  0  0  0  0
   -4.0211   -7.9011   -4.9019 H   0  0  0  0  0  0  0  0  0  0  0  0
   -4.7376   -5.5762   -4.3214 H   0  0  0  0  0  0  0  0  0  0  0  0
   -6.9073   -4.6953   -5.1094 H   0  0  0  0  0  0  0  0  0  0  0  0
   -8.3747   -6.0958   -6.4841 H   0  0  0  0  0  0  0  0  0  0  0  0
   -8.7366   -9.0585   -6.6855 H   0  0  0  0  0  0  0  0  0  0  0  0
   -6.8608   -7.3850   -9.5015 H   0  0  0  0  0  0  0  0  0  0  0  0
   -7.9760   -5.9763  -11.2071 H   0  0  0  0  0  0  0  0  0  0  0  0
  -10.4526   -5.6456  -11.1150 H   0  0  0  0  0  0  0  0  0  0  0  0
  -11.7856   -6.7184   -9.2947 H   0  0  0  0  0  0  0  0  0  0  0  0
  -10.6576   -8.1177   -7.6025 H   0  0  0  0  0  0  0  0  0  0  0  0
   -6.6558   -9.4797   -8.6493 H   0  0  0  0  0  0  0  0  0  0  0  0
  1  2  1  0
  1 18  1  0
  1 19  1  0
  1 20  1  0
  2 11  1  0
  2  3  1  0
  2 35  1  6
  3  4  1  0
  3 21  1  0
  3 22  1  0
  4  5  1  0
  4 23  1  0
  4 24  1  0
  5 10  2  0
  5  6  1  0
  6  7  2  0
  6 25  1  0
  7  8  1  0
  7 26  1  0
  8  9  2  0
  8 27  1  0
  9 10  1  0
  9 28  1  0
 10 11  1  0
 11 12  1  0
 11 29  1  1
 12 17  1  0
 12 13  2  0
 13 14  1  0
 13 30  1  0
 14 15  2  0
 14 31  1  0
 15 16  1  0
 15 32  1  0
 16 17  2  0
 16 33  1  0
 17 34  1  0
M  CHG  1   2   1
M  END
>  <i_m_ct_stereo_status>  (196) 
1

>  <s_m_source_file>  (196) 
/var/tmp/pbs.5102103.sched01/tmpup5_gzpn/66d1evxq16.sdf

>  <i_m_source_file_index>  (196) 
6

>  <i_lp_mmshare_version>  (196) 
48012

>  <i_f3d_flags>  (196) 
0

>  <s_epik_input>  (196) 
W2NIXTFbY0hdW2NIXVtjSF1jKGMxMilbQ0BIXShOKFtDSDNdKVtDSDJdW0NIMl0yKWMzW2NIXVtjSF1bY0hdW2NIXVtjSF0z

>  <s_epik_cmdline>  (196) 
J2VwaWtfcHl0aG9uJywgJy1waHQnLCAnMi4wJywgJy1waCcsICc3LjAnLCAnLXRuJywgJzgnLCAnLW1hJywgJzIwMCcsICctaW1hZScsICc8aW5maWxlLm1hZT4nLCAnLW9tYWUnLCAnPG91dGZpbGUubWFlPic=

>  <r_epik_Ionization_Penalty>  (196) 
0.0730319

>  <r_epik_Ionization_Penalty_Charging>  (196) 
0.0730319

>  <r_epik_Ionization_Penalty_Neutral>  (196) 
0

>  <r_epik_State_Penalty>  (196) 
0.0642145

>  <r_epik_Charging_Adjusted_Penalty>  (196) 
0.137246

>  <i_epik_Tot_Q>  (196) 
1

>  <i_epik_Tot_abs_Q>  (196) 
1

>  <s_lp_Force_Field>  (196) 
OPLS3e

>  <r_lp_Energy>  (196) 
35.8151

>  <b_lp_Chiralities_Consistent>  (196) 
1

>  <s_lp_Variant>  (196) 
42:0-1

>  <s_i_glide_gridfile>  (196) 
pfpi4k_grid

>  <i_i_glide_lignum>  (196) 
6

>  <i_i_glide_rotatable_bonds>  (196) 
1

>  <r_i_docking_score>  (196) 
-5.82732

>  <r_i_glide_ligand_efficiency>  (196) 
-0.342783

>  <r_i_glide_ligand_efficiency_sa>  (196) 
-0.881393

>  <r_i_glide_ligand_efficiency_ln>  (196) 
-1.52022

>  <r_i_glide_gscore>  (196) 
-5.82732

>  <r_i_glide_lipo>  (196) 
-2.48297

>  <r_i_glide_hbond>  (196) 
0

>  <r_i_glide_metal>  (196) 
-0

>  <r_i_glide_rewards>  (196) 
-2.40141

>  <r_i_glide_evdw>  (196) 
-23.5894

>  <r_i_glide_ecoul>  (196) 
-0.668195

>  <r_i_glide_erotb>  (196) 
0.336761

>  <r_i_glide_esite>  (196) 
0

>  <r_i_glide_emodel>  (196) 
-31.6901

>  <r_i_glide_energy>  (196) 
-24.2576

>  <r_i_glide_einternal>  (196) 
0.10481

>  <r_i_glide_intrahb_reward>  (196) 
-0

>  <i_i_glide_confnum>  (196) 
2

>  <i_i_glide_posenum>  (196) 
15

>  <r_i_glide_eff_state_penalty>  (196) 
0

>  <ligand_id>  (196) 
42

>  <original_smiles>  (196) 
CN1CCc2ccccc2C1c1ccccc1

>  <smiles>  (196) 
[H]c1c([H])c([H])c(C2([H])c3c([H])c([H])c([H])c([H])c3C([H])([H])C([H])([H])[N+]2([H])C([H])([H])[H])c([H])c1[H]

$$$$
42:0:1
     RDKit          3D

 35 37  0  0  1  0  0  0  0  0999 V2000
   -9.2873  -11.0345   -8.7642 C   0  0  0  0  0  0  0  0  0  0  0  0
   -8.0297  -10.6093   -8.0856 N   0  0  2  0  0  0  0  0  0  0  0  0
   -7.5349  -11.6326   -7.1351 C   0  0  0  0  0  0  0  0  0  0  0  0
   -6.1045  -11.3064   -6.6810 C   0  0  0  0  0  0  0  0  0  0  0  0
   -5.9402   -9.8555   -6.2550 C   0  0  0  0  0  0  0  0  0  0  0  0
   -4.8074   -9.4665   -5.5096 C   0  0  0  0  0  0  0  0  0  0  0  0
   -4.6316   -8.1200   -5.1343 C   0  0  0  0  0  0  0  0  0  0  0  0
   -5.5860   -7.1531   -5.4981 C   0  0  0  0  0  0  0  0  0  0  0  0
   -6.7208   -7.5400   -6.2337 C   0  0  0  0  0  0  0  0  0  0  0  0
   -6.9049   -8.8897   -6.6253 C   0  0  0  0  0  0  0  0  0  0  0  0
   -8.1477   -9.2772   -7.4284 C   0  0  1  0  0  0  0  0  0  0  0  0
   -8.5083   -8.2150   -8.4534 C   0  0  0  0  0  0  0  0  0  0  0  0
   -9.7855   -7.6211   -8.4329 C   0  0  0  0  0  0  0  0  0  0  0  0
  -10.1173   -6.6271   -9.3695 C   0  0  0  0  0  0  0  0  0  0  0  0
   -9.1693   -6.2280  -10.3314 C   0  0  0  0  0  0  0  0  0  0  0  0
   -7.8910   -6.8169  -10.3553 C   0  0  0  0  0  0  0  0  0  0  0  0
   -7.5644   -7.8133   -9.4202 C   0  0  0  0  0  0  0  0  0  0  0  0
  -10.1183  -11.0777   -8.0497 H   0  0  0  0  0  0  0  0  0  0  0  0
   -9.1874  -12.0190   -9.2272 H   0  0  0  0  0  0  0  0  0  0  0  0
   -9.5783  -10.3452   -9.5643 H   0  0  0  0  0  0  0  0  0  0  0  0
   -8.2045  -11.6746   -6.2724 H   0  0  0  0  0  0  0  0  0  0  0  0
   -7.5495  -12.6207   -7.5964 H   0  0  0  0  0  0  0  0  0  0  0  0
   -5.8220  -11.9681   -5.8588 H   0  0  0  0  0  0  0  0  0  0  0  0
   -5.3967  -11.5087   -7.4850 H   0  0  0  0  0  0  0  0  0  0  0  0
   -4.0650  -10.1976   -5.2199 H   0  0  0  0  0  0  0  0  0  0  0  0
   -3.7603   -7.8308   -4.5649 H   0  0  0  0  0  0  0  0  0  0  0  0
   -5.4563   -6.1137   -5.2249 H   0  0  0  0  0  0  0  0  0  0  0  0
   -7.4425   -6.7804   -6.4988 H   0  0  0  0  0  0  0  0  0  0  0  0
   -8.9567   -9.3484   -6.7015 H   0  0  0  0  0  0  0  0  0  0  0  0
  -10.5151   -7.9247   -7.6986 H   0  0  0  0  0  0  0  0  0  0  0  0
  -11.1005   -6.1808   -9.3385 H   0  0  0  0  0  0  0  0  0  0  0  0
   -9.4169   -5.4591  -11.0464 H   0  0  0  0  0  0  0  0  0  0  0  0
   -7.1556   -6.5101  -11.0836 H   0  0  0  0  0  0  0  0  0  0  0  0
   -6.5820   -8.2576   -9.4390 H   0  0  0  0  0  0  0  0  0  0  0  0
   -7.3202  -10.4978   -8.7947 H   0  0  0  0  0  0  0  0  0  0  0  0
  1  2  1  0
  1 18  1  0
  1 19  1  0
  1 20  1  0
  2 11  1  0
  2  3  1  0
  2 35  1  6
  3  4  1  0
  3 21  1  0
  3 22  1  0
  4  5  1  0
  4 23  1  0
  4 24  1  0
  5 10  2  0
  5  6  1  0
  6  7  2  0
  6 25  1  0
  7  8  1  0
  7 26  1  0
  8  9  2  0
  8 27  1  0
  9 10  1  0
  9 28  1  0
 10 11  1  0
 11 12  1  0
 11 29  1  1
 12 17  1  0
 12 13  2  0
 13 14  1  0
 13 30  1  0
 14 15  2  0
 14 31  1  0
 15 16  1  0
 15 32  1  0
 16 17  2  0
 16 33  1  0
 17 34  1  0
M  CHG  1   2   1
M  END
>  <i_m_ct_stereo_status>  (197) 
1

>  <s_m_source_file>  (197) 
/var/tmp/pbs.5102103.sched01/tmpup5_gzpn/66d1evxq16.sdf

>  <i_m_source_file_index>  (197) 
6

>  <i_lp_mmshare_version>  (197) 
48012

>  <i_f3d_flags>  (197) 
0

>  <s_epik_input>  (197) 
W2NIXTFbY0hdW2NIXVtjSF1jKGMxMilbQ0BIXShOKFtDSDNdKVtDSDJdW0NIMl0yKWMzW2NIXVtjSF1bY0hdW2NIXVtjSF0z

>  <s_epik_cmdline>  (197) 
J2VwaWtfcHl0aG9uJywgJy1waHQnLCAnMi4wJywgJy1waCcsICc3LjAnLCAnLXRuJywgJzgnLCAnLW1hJywgJzIwMCcsICctaW1hZScsICc8aW5maWxlLm1hZT4nLCAnLW9tYWUnLCAnPG91dGZpbGUubWFlPic=

>  <r_epik_Ionization_Penalty>  (197) 
0.0730319

>  <r_epik_Ionization_Penalty_Charging>  (197) 
0.0730319

>  <r_epik_Ionization_Penalty_Neutral>  (197) 
0

>  <r_epik_State_Penalty>  (197) 
0.0642145

>  <r_epik_Charging_Adjusted_Penalty>  (197) 
0.137246

>  <i_epik_Tot_Q>  (197) 
1

>  <i_epik_Tot_abs_Q>  (197) 
1

>  <s_lp_Force_Field>  (197) 
OPLS3e

>  <r_lp_Energy>  (197) 
35.8151

>  <b_lp_Chiralities_Consistent>  (197) 
1

>  <s_lp_Variant>  (197) 
42:0-1

>  <s_i_glide_gridfile>  (197) 
pfpi4k_grid

>  <i_i_glide_lignum>  (197) 
6

>  <i_i_glide_rotatable_bonds>  (197) 
1

>  <r_i_docking_score>  (197) 
-5.63389

>  <r_i_glide_ligand_efficiency>  (197) 
-0.331405

>  <r_i_glide_ligand_efficiency_sa>  (197) 
-0.852136

>  <r_i_glide_ligand_efficiency_ln>  (197) 
-1.46976

>  <r_i_glide_gscore>  (197) 
-5.63389

>  <r_i_glide_lipo>  (197) 
-2.32284

>  <r_i_glide_hbond>  (197) 
0

>  <r_i_glide_metal>  (197) 
-0

>  <r_i_glide_rewards>  (197) 
-2.32002

>  <r_i_glide_evdw>  (197) 
-23.4574

>  <r_i_glide_ecoul>  (197) 
-1.03276

>  <r_i_glide_erotb>  (197) 
0.336761

>  <r_i_glide_esite>  (197) 
0

>  <r_i_glide_emodel>  (197) 
-31.7301

>  <r_i_glide_energy>  (197) 
-24.4902

>  <r_i_glide_einternal>  (197) 
0.0081356

>  <r_i_glide_intrahb_reward>  (197) 
-0

>  <i_i_glide_confnum>  (197) 
2

>  <i_i_glide_posenum>  (197) 
2

>  <r_i_glide_eff_state_penalty>  (197) 
0

>  <ligand_id>  (197) 
42

>  <original_smiles>  (197) 
CN1CCc2ccccc2C1c1ccccc1

>  <smiles>  (197) 
[H]c1c([H])c([H])c(C2([H])c3c([H])c([H])c([H])c([H])c3C([H])([H])C([H])([H])[N+]2([H])C([H])([H])[H])c([H])c1[H]

$$$$
42:1:0
     RDKit          3D

 34 36  0  0  1  0  0  0  0  0999 V2000
   -8.6300   -7.6769  -10.4934 C   0  0  0  0  0  0  0  0  0  0  0  0
   -8.0968   -7.1580   -9.2354 N   0  0  0  0  0  0  0  0  0  0  0  0
   -9.1813   -6.7660   -8.3437 C   0  0  0  0  0  0  0  0  0  0  0  0
   -8.6044   -5.9261   -7.1825 C   0  0  0  0  0  0  0  0  0  0  0  0
   -7.3455   -6.5202   -6.5620 C   0  0  0  0  0  0  0  0  0  0  0  0
   -6.8978   -6.0801   -5.2960 C   0  0  0  0  0  0  0  0  0  0  0  0
   -5.7277   -6.6208   -4.7292 C   0  0  0  0  0  0  0  0  0  0  0  0
   -4.9962   -7.6038   -5.4231 C   0  0  0  0  0  0  0  0  0  0  0  0
   -5.4446   -8.0481   -6.6866 C   0  0  0  0  0  0  0  0  0  0  0  0
   -6.6175   -7.5114   -7.2637 C   0  0  0  0  0  0  0  0  0  0  0  0
   -7.1654   -8.0846   -8.5689 C   0  0  1  0  0  0  0  0  0  0  0  0
   -7.7772   -9.4847   -8.3142 C   0  0  0  0  0  0  0  0  0  0  0  0
   -8.3993   -9.7868   -7.0895 C   0  0  0  0  0  0  0  0  0  0  0  0
   -9.0393  -11.0204   -6.8748 C   0  0  0  0  0  0  0  0  0  0  0  0
   -9.0661  -11.9746   -7.8939 C   0  0  0  0  0  0  0  0  0  0  0  0
   -8.4487  -11.6928   -9.1224 C   0  0  0  0  0  0  0  0  0  0  0  0
   -7.7994  -10.4599   -9.3234 C   0  0  0  0  0  0  0  0  0  0  0  0
   -9.2927   -8.5271  -10.3243 H   0  0  0  0  0  0  0  0  0  0  0  0
   -7.8124   -7.9938  -11.1351 H   0  0  0  0  0  0  0  0  0  0  0  0
   -9.1948   -6.9198  -11.0368 H   0  0  0  0  0  0  0  0  0  0  0  0
   -9.9257   -6.1777   -8.8834 H   0  0  0  0  0  0  0  0  0  0  0  0
   -9.7028   -7.6495   -7.9707 H   0  0  0  0  0  0  0  0  0  0  0  0
   -8.3709   -4.9155   -7.5308 H   0  0  0  0  0  0  0  0  0  0  0  0
   -9.3627   -5.8178   -6.4077 H   0  0  0  0  0  0  0  0  0  0  0  0
   -7.4664   -5.3464   -4.7431 H   0  0  0  0  0  0  0  0  0  0  0  0
   -5.4114   -6.3056   -3.7469 H   0  0  0  0  0  0  0  0  0  0  0  0
   -4.1173   -8.0513   -4.9742 H   0  0  0  0  0  0  0  0  0  0  0  0
   -4.9016   -8.8305   -7.1989 H   0  0  0  0  0  0  0  0  0  0  0  0
   -6.3072   -8.2027   -9.2304 H   0  0  0  0  0  0  0  0  0  0  0  0
   -8.4423   -9.0380   -6.3207 H   0  0  0  0  0  0  0  0  0  0  0  0
   -9.5613  -11.1816   -5.9421 H   0  0  0  0  0  0  0  0  0  0  0  0
   -9.6115  -12.8973   -7.7559 H   0  0  0  0  0  0  0  0  0  0  0  0
   -8.5021  -12.3955   -9.9424 H   0  0  0  0  0  0  0  0  0  0  0  0
   -7.3929  -10.2347  -10.2967 H   0  0  0  0  0  0  0  0  0  0  0  0
  1  2  1  0
  1 18  1  0
  1 19  1  0
  1 20  1  0
  2 11  1  0
  2  3  1  0
  3  4  1  0
  3 21  1  0
  3 22  1  0
  4  5  1  0
  4 23  1  0
  4 24  1  0
  5 10  2  0
  5  6  1  0
  6  7  2  0
  6 25  1  0
  7  8  1  0
  7 26  1  0
  8  9  2  0
  8 27  1  0
  9 10  1  0
  9 28  1  0
 10 11  1  0
 11 12  1  0
 11 29  1  6
 12 17  1  0
 12 13  2  0
 13 14  1  0
 13 30  1  0
 14 15  2  0
 14 31  1  0
 15 16  1  0
 15 32  1  0
 16 17  2  0
 16 33  1  0
 17 34  1  0
M  END
>  <i_m_ct_stereo_status>  (198) 
1

>  <s_m_source_file>  (198) 
/var/tmp/pbs.5102103.sched01/tmpup5_gzpn/66d1evxq16.sdf

>  <i_m_source_file_index>  (198) 
7

>  <i_lp_mmshare_version>  (198) 
48012

>  <i_f3d_flags>  (198) 
0

>  <s_epik_input>  (198) 
W2NIXTFbY0hdW2NIXVtjSF1jKGMxMilbQ0BIXShOKFtDSDNdKVtDSDJdW0NIMl0yKWMzW2NIXVtjSF1bY0hdW2NIXVtjSF0z

>  <s_epik_cmdline>  (198) 
J2VwaWtfcHl0aG9uJywgJy1waHQnLCAnMi4wJywgJy1waCcsICc3LjAnLCAnLXRuJywgJzgnLCAnLW1hJywgJzIwMCcsICctaW1hZScsICc8aW5maWxlLm1hZT4nLCAnLW9tYWUnLCAnPG91dGZpbGUubWFlPic=

>  <r_epik_Ionization_Penalty>  (198) 
1.27647

>  <r_epik_Ionization_Penalty_Charging>  (198) 
0

>  <r_epik_Ionization_Penalty_Neutral>  (198) 
1.27647

>  <r_epik_State_Penalty>  (198) 
1.34838

>  <r_epik_Charging_Adjusted_Penalty>  (198) 
1.34838

>  <i_epik_Tot_Q>  (198) 
0

>  <i_epik_Tot_abs_Q>  (198) 
0

>  <s_lp_Force_Field>  (198) 
OPLS3e

>  <r_lp_Energy>  (198) 
34.806

>  <b_lp_Chiralities_Consistent>  (198) 
1

>  <s_lp_Variant>  (198) 
42:0-2

>  <s_i_glide_gridfile>  (198) 
pfpi4k_grid

>  <i_i_glide_lignum>  (198) 
7

>  <i_i_glide_rotatable_bonds>  (198) 
1

>  <r_i_docking_score>  (198) 
-5.27692

>  <r_i_glide_ligand_efficiency>  (198) 
-0.310407

>  <r_i_glide_ligand_efficiency_sa>  (198) 
-0.798145

>  <r_i_glide_ligand_efficiency_ln>  (198) 
-1.37663

>  <r_i_glide_gscore>  (198) 
-5.27692

>  <r_i_glide_lipo>  (198) 
-2.55934

>  <r_i_glide_hbond>  (198) 
0

>  <r_i_glide_metal>  (198) 
-0

>  <r_i_glide_rewards>  (198) 
-1.8865

>  <r_i_glide_evdw>  (198) 
-22.395

>  <r_i_glide_ecoul>  (198) 
-0.337767

>  <r_i_glide_erotb>  (198) 
0.339336

>  <r_i_glide_esite>  (198) 
0

>  <r_i_glide_emodel>  (198) 
-29.2788

>  <r_i_glide_energy>  (198) 
-22.7328

>  <r_i_glide_einternal>  (198) 
0.308289

>  <r_i_glide_intrahb_reward>  (198) 
-0

>  <i_i_glide_confnum>  (198) 
4

>  <i_i_glide_posenum>  (198) 
29

>  <r_i_glide_eff_state_penalty>  (198) 
0

>  <ligand_id>  (198) 
42

>  <original_smiles>  (198) 
CN1CCc2ccccc2C1c1ccccc1

>  <smiles>  (198) 
[H]c1c([H])c([H])c(C2([H])c3c([H])c([H])c([H])c([H])c3C([H])([H])C([H])([H])N2C([H])([H])[H])c([H])c1[H]

$$$$
42:1:1
     RDKit          3D

 34 36  0  0  1  0  0  0  0  0999 V2000
   -8.9830   -8.3343   -9.5875 C   0  0  0  0  0  0  0  0  0  0  0  0
   -7.7693   -8.2164   -8.7734 N   0  0  0  0  0  0  0  0  0  0  0  0
   -7.1445   -9.5318   -8.6904 C   0  0  0  0  0  0  0  0  0  0  0  0
   -5.7538   -9.3932   -8.0445 C   0  0  0  0  0  0  0  0  0  0  0  0
   -5.7888   -8.6391   -6.7339 C   0  0  0  0  0  0  0  0  0  0  0  0
   -4.6694   -8.6639   -5.8768 C   0  0  0  0  0  0  0  0  0  0  0  0
   -4.6527   -7.8613   -4.7321 C   0  0  0  0  0  0  0  0  0  0  0  0
   -5.7572   -7.0611   -4.3986 C   0  0  0  0  0  0  0  0  0  0  0  0
   -6.8936   -7.0791   -5.2176 C   0  0  0  0  0  0  0  0  0  0  0  0
   -6.9018   -7.8242   -6.4270 C   0  0  0  0  0  0  0  0  0  0  0  0
   -8.0818   -7.7391   -7.4117 C   0  0  1  0  0  0  0  0  0  0  0  0
   -8.6694   -6.3270   -7.4534 C   0  0  0  0  0  0  0  0  0  0  0  0
   -7.8554   -5.1846   -7.2901 C   0  0  0  0  0  0  0  0  0  0  0  0
   -8.4093   -3.9015   -7.3058 C   0  0  0  0  0  0  0  0  0  0  0  0
   -9.7834   -3.7214   -7.4483 C   0  0  0  0  0  0  0  0  0  0  0  0
  -10.5878   -4.8504   -7.6224 C   0  0  0  0  0  0  0  0  0  0  0  0
  -10.0515   -6.1409   -7.6210 C   0  0  0  0  0  0  0  0  0  0  0  0
   -8.7791   -8.7507  -10.5747 H   0  0  0  0  0  0  0  0  0  0  0  0
   -9.4269   -7.3582   -9.7764 H   0  0  0  0  0  0  0  0  0  0  0  0
   -9.7374   -8.9563   -9.0970 H   0  0  0  0  0  0  0  0  0  0  0  0
   -7.7808  -10.2140   -8.1228 H   0  0  0  0  0  0  0  0  0  0  0  0
   -7.0427   -9.9443   -9.6922 H   0  0  0  0  0  0  0  0  0  0  0  0
   -5.3213  -10.3813   -7.8815 H   0  0  0  0  0  0  0  0  0  0  0  0
   -5.0890   -8.8276   -8.7106 H   0  0  0  0  0  0  0  0  0  0  0  0
   -3.8016   -9.2564   -6.1208 H   0  0  0  0  0  0  0  0  0  0  0  0
   -3.7804   -7.8928   -4.1072 H   0  0  0  0  0  0  0  0  0  0  0  0
   -5.7651   -6.4552   -3.4980 H   0  0  0  0  0  0  0  0  0  0  0  0
   -7.7517   -6.4912   -4.9153 H   0  0  0  0  0  0  0  0  0  0  0  0
   -8.8357   -8.4140   -6.9962 H   0  0  0  0  0  0  0  0  0  0  0  0
   -6.8068   -5.2993   -7.1104 H   0  0  0  0  0  0  0  0  0  0  0  0
   -7.7744   -3.0605   -7.1746 H   0  0  0  0  0  0  0  0  0  0  0  0
  -10.2048   -2.7268   -7.4273 H   0  0  0  0  0  0  0  0  0  0  0  0
  -11.6485   -4.7431   -7.7670 H   0  0  0  0  0  0  0  0  0  0  0  0
  -10.7138   -6.9911   -7.7067 H   0  0  0  0  0  0  0  0  0  0  0  0
  1  2  1  0
  1 18  1  0
  1 19  1  0
  1 20  1  0
  2 11  1  0
  2  3  1  0
  3  4  1  0
  3 21  1  0
  3 22  1  0
  4  5  1  0
  4 23  1  0
  4 24  1  0
  5 10  2  0
  5  6  1  0
  6  7  2  0
  6 25  1  0
  7  8  1  0
  7 26  1  0
  8  9  2  0
  8 27  1  0
  9 10  1  0
  9 28  1  0
 10 11  1  0
 11 12  1  0
 11 29  1  1
 12 17  1  0
 12 13  2  0
 13 14  1  0
 13 30  1  0
 14 15  2  0
 14 31  1  0
 15 16  1  0
 15 32  1  0
 16 17  2  0
 16 33  1  0
 17 34  1  0
M  END
>  <i_m_ct_stereo_status>  (199) 
1

>  <s_m_source_file>  (199) 
/var/tmp/pbs.5102103.sched01/tmpup5_gzpn/66d1evxq16.sdf

>  <i_m_source_file_index>  (199) 
7

>  <i_lp_mmshare_version>  (199) 
48012

>  <i_f3d_flags>  (199) 
0

>  <s_epik_input>  (199) 
W2NIXTFbY0hdW2NIXVtjSF1jKGMxMilbQ0BIXShOKFtDSDNdKVtDSDJdW0NIMl0yKWMzW2NIXVtjSF1bY0hdW2NIXVtjSF0z

>  <s_epik_cmdline>  (199) 
J2VwaWtfcHl0aG9uJywgJy1waHQnLCAnMi4wJywgJy1waCcsICc3LjAnLCAnLXRuJywgJzgnLCAnLW1hJywgJzIwMCcsICctaW1hZScsICc8aW5maWxlLm1hZT4nLCAnLW9tYWUnLCAnPG91dGZpbGUubWFlPic=

>  <r_epik_Ionization_Penalty>  (199) 
1.27647

>  <r_epik_Ionization_Penalty_Charging>  (199) 
0

>  <r_epik_Ionization_Penalty_Neutral>  (199) 
1.27647

>  <r_epik_State_Penalty>  (199) 
1.34838

>  <r_epik_Charging_Adjusted_Penalty>  (199) 
1.34838

>  <i_epik_Tot_Q>  (199) 
0

>  <i_epik_Tot_abs_Q>  (199) 
0

>  <s_lp_Force_Field>  (199) 
OPLS3e

>  <r_lp_Energy>  (199) 
34.806

>  <b_lp_Chiralities_Consistent>  (199) 
1

>  <s_lp_Variant>  (199) 
42:0-2

>  <s_i_glide_gridfile>  (199) 
pfpi4k_grid

>  <i_i_glide_lignum>  (199) 
7

>  <i_i_glide_rotatable_bonds>  (199) 
1

>  <r_i_docking_score>  (199) 
-5.011

>  <r_i_glide_ligand_efficiency>  (199) 
-0.294765

>  <r_i_glide_ligand_efficiency_sa>  (199) 
-0.757923

>  <r_i_glide_ligand_efficiency_ln>  (199) 
-1.30726

>  <r_i_glide_gscore>  (199) 
-5.011

>  <r_i_glide_lipo>  (199) 
-2.21064

>  <r_i_glide_hbond>  (199) 
0

>  <r_i_glide_metal>  (199) 
-0

>  <r_i_glide_rewards>  (199) 
-2.52539

>  <r_i_glide_evdw>  (199) 
-11.597

>  <r_i_glide_ecoul>  (199) 
-0.229736

>  <r_i_glide_erotb>  (199) 
0.339336

>  <r_i_glide_esite>  (199) 
0

>  <r_i_glide_emodel>  (199) 
-15.8312

>  <r_i_glide_energy>  (199) 
-11.8267

>  <r_i_glide_einternal>  (199) 
4.0453

>  <r_i_glide_intrahb_reward>  (199) 
-0

>  <i_i_glide_confnum>  (199) 
1

>  <i_i_glide_posenum>  (199) 
19

>  <r_i_glide_eff_state_penalty>  (199) 
0

>  <ligand_id>  (199) 
42

>  <original_smiles>  (199) 
CN1CCc2ccccc2C1c1ccccc1

>  <smiles>  (199) 
[H]c1c([H])c([H])c(C2([H])c3c([H])c([H])c([H])c([H])c3C([H])([H])C([H])([H])N2C([H])([H])[H])c([H])c1[H]

$$$$
42:1:2
     RDKit          3D

 34 36  0  0  1  0  0  0  0  0999 V2000
  -10.0200   -8.0941   -9.7040 C   0  0  0  0  0  0  0  0  0  0  0  0
   -8.6993   -8.2166   -9.0870 N   0  0  0  0  0  0  0  0  0  0  0  0
   -8.3052   -9.6164   -9.1239 C   0  0  0  0  0  0  0  0  0  0  0  0
   -6.8278   -9.7432   -8.7142 C   0  0  0  0  0  0  0  0  0  0  0  0
   -6.4942   -9.0305   -7.4179 C   0  0  0  0  0  0  0  0  0  0  0  0
   -5.2801   -9.2991   -6.7370 C   0  0  0  0  0  0  0  0  0  0  0  0
   -4.9354   -8.5756   -5.5824 C   0  0  0  0  0  0  0  0  0  0  0  0
   -5.8164   -7.5926   -5.0965 C   0  0  0  0  0  0  0  0  0  0  0  0
   -7.0494   -7.3719   -5.7300 C   0  0  0  0  0  0  0  0  0  0  0  0
   -7.3826   -8.0524   -6.9273 C   0  0  0  0  0  0  0  0  0  0  0  0
   -8.6964   -7.7454   -7.6887 C   0  0  1  0  0  0  0  0  0  0  0  0
   -9.0375   -6.2541   -7.6125 C   0  0  0  0  0  0  0  0  0  0  0  0
  -10.3691   -5.8101   -7.5210 C   0  0  0  0  0  0  0  0  0  0  0  0
  -10.6503   -4.4364   -7.4168 C   0  0  0  0  0  0  0  0  0  0  0  0
   -9.6261   -3.4875   -7.3869 C   0  0  0  0  0  0  0  0  0  0  0  0
   -8.2979   -3.9107   -7.5156 C   0  0  0  0  0  0  0  0  0  0  0  0
   -8.0155   -5.2806   -7.6398 C   0  0  0  0  0  0  0  0  0  0  0  0
  -10.0443   -8.5096  -10.7087 H   0  0  0  0  0  0  0  0  0  0  0  0
  -10.3164   -7.0493   -9.8046 H   0  0  0  0  0  0  0  0  0  0  0  0
  -10.7826   -8.6014   -9.1103 H   0  0  0  0  0  0  0  0  0  0  0  0
   -8.9527  -10.2042   -8.4700 H   0  0  0  0  0  0  0  0  0  0  0  0
   -8.4285  -10.0025  -10.1329 H   0  0  0  0  0  0  0  0  0  0  0  0
   -6.5465  -10.7950   -8.6419 H   0  0  0  0  0  0  0  0  0  0  0  0
   -6.2194   -9.2765   -9.4832 H   0  0  0  0  0  0  0  0  0  0  0  0
   -4.5918  -10.0287   -7.1288 H   0  0  0  0  0  0  0  0  0  0  0  0
   -3.9991   -8.7575   -5.0651 H   0  0  0  0  0  0  0  0  0  0  0  0
   -5.5753   -7.0316   -4.2001 H   0  0  0  0  0  0  0  0  0  0  0  0
   -7.7378   -6.6700   -5.2725 H   0  0  0  0  0  0  0  0  0  0  0  0
   -9.4756   -8.3064   -7.1551 H   0  0  0  0  0  0  0  0  0  0  0  0
  -11.1863   -6.5186   -7.5165 H   0  0  0  0  0  0  0  0  0  0  0  0
  -11.6672   -4.1009   -7.3638 H   0  0  0  0  0  0  0  0  0  0  0  0
   -9.8840   -2.4445   -7.2708 H   0  0  0  0  0  0  0  0  0  0  0  0
   -7.4899   -3.1977   -7.5236 H   0  0  0  0  0  0  0  0  0  0  0  0
   -6.9896   -5.5964   -7.7268 H   0  0  0  0  0  0  0  0  0  0  0  0
  1  2  1  0
  1 18  1  0
  1 19  1  0
  1 20  1  0
  2 11  1  0
  2  3  1  0
  3  4  1  0
  3 21  1  0
  3 22  1  0
  4  5  1  0
  4 23  1  0
  4 24  1  0
  5 10  2  0
  5  6  1  0
  6  7  2  0
  6 25  1  0
  7  8  1  0
  7 26  1  0
  8  9  2  0
  8 27  1  0
  9 10  1  0
  9 28  1  0
 10 11  1  0
 11 12  1  0
 11 29  1  1
 12 17  1  0
 12 13  2  0
 13 14  1  0
 13 30  1  0
 14 15  2  0
 14 31  1  0
 15 16  1  0
 15 32  1  0
 16 17  2  0
 16 33  1  0
 17 34  1  0
M  END
>  <i_m_ct_stereo_status>  (200) 
1

>  <s_m_source_file>  (200) 
/var/tmp/pbs.5102103.sched01/tmpup5_gzpn/66d1evxq16.sdf

>  <i_m_source_file_index>  (200) 
7

>  <i_lp_mmshare_version>  (200) 
48012

>  <i_f3d_flags>  (200) 
0

>  <s_epik_input>  (200) 
W2NIXTFbY0hdW2NIXVtjSF1jKGMxMilbQ0BIXShOKFtDSDNdKVtDSDJdW0NIMl0yKWMzW2NIXVtjSF1bY0hdW2NIXVtjSF0z

>  <s_epik_cmdline>  (200) 
J2VwaWtfcHl0aG9uJywgJy1waHQnLCAnMi4wJywgJy1waCcsICc3LjAnLCAnLXRuJywgJzgnLCAnLW1hJywgJzIwMCcsICctaW1hZScsICc8aW5maWxlLm1hZT4nLCAnLW9tYWUnLCAnPG91dGZpbGUubWFlPic=

>  <r_epik_Ionization_Penalty>  (200) 
1.27647

>  <r_epik_Ionization_Penalty_Charging>  (200) 
0

>  <r_epik_Ionization_Penalty_Neutral>  (200) 
1.27647

>  <r_epik_State_Penalty>  (200) 
1.34838

>  <r_epik_Charging_Adjusted_Penalty>  (200) 
1.34838

>  <i_epik_Tot_Q>  (200) 
0

>  <i_epik_Tot_abs_Q>  (200) 
0

>  <s_lp_Force_Field>  (200) 
OPLS3e

>  <r_lp_Energy>  (200) 
34.806

>  <b_lp_Chiralities_Consistent>  (200) 
1

>  <s_lp_Variant>  (200) 
42:0-2

>  <s_i_glide_gridfile>  (200) 
pfpi4k_grid

>  <i_i_glide_lignum>  (200) 
7

>  <i_i_glide_rotatable_bonds>  (200) 
1

>  <r_i_docking_score>  (200) 
-4.73122

>  <r_i_glide_ligand_efficiency>  (200) 
-0.278307

>  <r_i_glide_ligand_efficiency_sa>  (200) 
-0.715605

>  <r_i_glide_ligand_efficiency_ln>  (200) 
-1.23427

>  <r_i_glide_gscore>  (200) 
-4.73122

>  <r_i_glide_lipo>  (200) 
-1.9722

>  <r_i_glide_hbond>  (200) 
0

>  <r_i_glide_metal>  (200) 
-0

>  <r_i_glide_rewards>  (200) 
-2.51758

>  <r_i_glide_evdw>  (200) 
-10.6336

>  <r_i_glide_ecoul>  (200) 
-0.327245

>  <r_i_glide_erotb>  (200) 
0.339336

>  <r_i_glide_esite>  (200) 
0

>  <r_i_glide_emodel>  (200) 
-14.9266

>  <r_i_glide_energy>  (200) 
-10.9609

>  <r_i_glide_einternal>  (200) 
3.58471

>  <r_i_glide_intrahb_reward>  (200) 
-0

>  <i_i_glide_confnum>  (200) 
2

>  <i_i_glide_posenum>  (200) 
11

>  <r_i_glide_eff_state_penalty>  (200) 
0

>  <ligand_id>  (200) 
42

>  <original_smiles>  (200) 
CN1CCc2ccccc2C1c1ccccc1

>  <smiles>  (200) 
[H]c1c([H])c([H])c(C2([H])c3c([H])c([H])c([H])c([H])c3C([H])([H])C([H])([H])N2C([H])([H])[H])c([H])c1[H]

$$$$
43:0:0
     RDKit          3D

 36 39  0  0  1  0  0  0  0  0999 V2000
    0.8884   -2.5753    4.2647 C   0  0  0  0  0  0  0  0  0  0  0  0
    1.8810   -2.2614    3.2343 N   0  0  0  0  0  0  0  0  0  0  0  0
    2.9165   -3.1957    3.0867 N   0  0  0  0  0  0  0  0  0  0  0  0
    3.8487   -2.9211    2.2298 C   0  0  0  0  0  0  0  0  0  0  0  0
    5.0581   -3.6593    1.8509 C   0  0  0  0  0  0  0  0  0  0  0  0
    5.5692   -4.9082    2.2576 C   0  0  0  0  0  0  0  0  0  0  0  0
    6.7472   -5.3704    1.6269 C   0  0  0  0  0  0  0  0  0  0  0  0
    7.4294   -6.8839    2.0715 Cl  0  0  0  0  0  0  0  0  0  0  0  0
    7.3770   -4.6033    0.6155 C   0  0  0  0  0  0  0  0  0  0  0  0
    6.8607   -3.3480    0.2318 C   0  0  0  0  0  0  0  0  0  0  0  0
    5.6885   -2.8913    0.8601 C   0  0  0  0  0  0  0  0  0  0  0  0
    4.9401   -1.7315    0.6099 N   0  0  0  0  0  0  0  0  0  0  0  0
    5.1331   -0.9195   -0.5879 C   0  0  0  0  0  0  0  0  0  0  0  0
    4.6578   -1.5256   -1.9061 C   0  0  0  0  0  0  0  0  0  0  0  0
    4.0155   -0.7168   -2.8775 C   0  0  0  0  0  0  0  0  0  0  0  0
    3.5741   -1.3370   -4.0645 C   0  0  0  0  0  0  0  0  0  0  0  0
    3.7638   -2.6491   -4.3243 N   0  0  0  0  0  0  0  0  0  0  0  0
    4.3946   -3.4107   -3.4249 C   0  0  0  0  0  0  0  0  0  0  0  0
    4.8363   -2.9046   -2.1977 C   0  0  0  0  0  0  0  0  0  0  0  0
    3.8249   -1.7392    1.4232 C   0  0  0  0  0  0  0  0  0  0  0  0
    2.7982   -0.8707    1.5352 C   0  0  0  0  0  0  0  0  0  0  0  0
    1.7280   -1.0992    2.5147 C   0  0  0  0  0  0  0  0  0  0  0  0
    0.7860   -0.3293    2.6916 O   0  0  0  0  0  0  0  0  0  0  0  0
    0.8383   -1.7765    5.0099 H   0  0  0  0  0  0  0  0  0  0  0  0
    1.1206   -3.5058    4.7844 H   0  0  0  0  0  0  0  0  0  0  0  0
   -0.1043   -2.6704    3.8138 H   0  0  0  0  0  0  0  0  0  0  0  0
    5.0777   -5.4946    3.0224 H   0  0  0  0  0  0  0  0  0  0  0  0
    8.2333   -5.0073    0.0962 H   0  0  0  0  0  0  0  0  0  0  0  0
    7.3294   -2.7908   -0.5686 H   0  0  0  0  0  0  0  0  0  0  0  0
    4.6069    0.0260   -0.4274 H   0  0  0  0  0  0  0  0  0  0  0  0
    6.1903   -0.6587   -0.6518 H   0  0  0  0  0  0  0  0  0  0  0  0
    3.8234    0.3342   -2.7373 H   0  0  0  0  0  0  0  0  0  0  0  0
    3.0689   -0.7746   -4.8426 H   0  0  0  0  0  0  0  0  0  0  0  0
    4.5604   -4.4550   -3.6399 H   0  0  0  0  0  0  0  0  0  0  0  0
    5.2637   -3.6412   -1.5535 H   0  0  0  0  0  0  0  0  0  0  0  0
    2.7589    0.0114    0.9044 H   0  0  0  0  0  0  0  0  0  0  0  0
  1  2  1  0
  1 24  1  0
  1 25  1  0
  1 26  1  0
  2 22  1  0
  2  3  1  0
  3  4  2  0
  4 20  1  0
  4  5  1  0
  5 11  2  0
  5  6  1  0
  6  7  2  0
  6 27  1  0
  7  8  1  0
  7  9  1  0
  9 10  2  0
  9 28  1  0
 10 11  1  0
 10 29  1  0
 11 12  1  0
 12 13  1  0
 12 20  1  0
 13 14  1  0
 13 30  1  0
 13 31  1  0
 14 19  1  0
 14 15  2  0
 15 16  1  0
 15 32  1  0
 16 17  2  0
 16 33  1  0
 17 18  1  0
 18 19  2  0
 18 34  1  0
 19 35  1  0
 20 21  2  0
 21 22  1  0
 21 36  1  0
 22 23  2  0
M  END
>  <i_m_ct_stereo_status>  (201) 
1

>  <s_m_source_file>  (201) 
/var/tmp/pbs.5102103.sched01/tmpup5_gzpn/66d1evxq16.sdf

>  <i_m_source_file_index>  (201) 
8

>  <i_lp_mmshare_version>  (201) 
48012

>  <i_f3d_flags>  (201) 
0

>  <s_epik_input>  (201) 
W0NIM11uKG4xKWMoPU8pW2NIXWMybihjKGMzYzEyKVtjSF1bY0hdYyhDbClbY0hdMylbQ0gyXWM0W2NIXVtjSF1uW2NIXVtjSF00

>  <s_epik_cmdline>  (201) 
J2VwaWtfcHl0aG9uJywgJy1waHQnLCAnMi4wJywgJy1waCcsICc3LjAnLCAnLXRuJywgJzgnLCAnLW1hJywgJzIwMCcsICctaW1hZScsICc8aW5maWxlLm1hZT4nLCAnLW9tYWUnLCAnPG91dGZpbGUubWFlPic=

>  <r_epik_Ionization_Penalty>  (201) 
0.0063877

>  <r_epik_Ionization_Penalty_Charging>  (201) 
1.52465e-09

>  <r_epik_Ionization_Penalty_Neutral>  (201) 
0.0063877

>  <r_epik_State_Penalty>  (201) 
0.00472219

>  <r_epik_Charging_Adjusted_Penalty>  (201) 
0.0047222

>  <i_epik_Tot_Q>  (201) 
0

>  <i_epik_Tot_abs_Q>  (201) 
0

>  <s_lp_Force_Field>  (201) 
OPLS3e

>  <r_lp_Energy>  (201) 
43.4773

>  <b_lp_Chiralities_Consistent>  (201) 
1

>  <s_lp_Variant>  (201) 
43:0-1

>  <s_i_glide_gridfile>  (201) 
pfpi4k_grid

>  <i_i_glide_lignum>  (201) 
8

>  <i_i_glide_rotatable_bonds>  (201) 
2

>  <r_i_docking_score>  (201) 
-3.89884

>  <r_i_glide_ligand_efficiency>  (201) 
-0.169515

>  <r_i_glide_ligand_efficiency_sa>  (201) 
-0.482078

>  <r_i_glide_ligand_efficiency_ln>  (201) 
-0.942776

>  <r_i_glide_gscore>  (201) 
-3.89884

>  <r_i_glide_lipo>  (201) 
-0.883447

>  <r_i_glide_hbond>  (201) 
-0.318072

>  <r_i_glide_metal>  (201) 
-0

>  <r_i_glide_rewards>  (201) 
-1.25324

>  <r_i_glide_evdw>  (201) 
-29.7515

>  <r_i_glide_ecoul>  (201) 
-2.07811

>  <r_i_glide_erotb>  (201) 
0.355206

>  <r_i_glide_esite>  (201) 
0

>  <r_i_glide_emodel>  (201) 
-39.0984

>  <r_i_glide_energy>  (201) 
-31.8296

>  <r_i_glide_einternal>  (201) 
0.731844

>  <r_i_glide_intrahb_reward>  (201) 
-0

>  <i_i_glide_confnum>  (201) 
5

>  <i_i_glide_posenum>  (201) 
26

>  <r_i_glide_eff_state_penalty>  (201) 
0

>  <ligand_id>  (201) 
43

>  <original_smiles>  (201) 
Cn1nc2c3cc(Cl)ccc3n(Cc3ccncc3)c2cc1=O

>  <smiles>  (201) 
[H]c1nc([H])c([H])c(C([H])([H])n2c3c([H])c(=O)n(C([H])([H])[H])nc3c3c([H])c(Cl)c([H])c([H])c32)c1[H]

$$$$
43:0:1
     RDKit          3D

 36 39  0  0  1  0  0  0  0  0999 V2000
    0.6620   -0.1927    3.4936 C   0  0  0  0  0  0  0  0  0  0  0  0
    1.7419   -0.7693    2.6914 N   0  0  0  0  0  0  0  0  0  0  0  0
    1.7953   -2.1684    2.6610 N   0  0  0  0  0  0  0  0  0  0  0  0
    2.7400   -2.7096    1.9676 C   0  0  0  0  0  0  0  0  0  0  0  0
    3.0479   -4.1167    1.6950 C   0  0  0  0  0  0  0  0  0  0  0  0
    2.4337   -5.3145    2.1129 C   0  0  0  0  0  0  0  0  0  0  0  0
    2.9943   -6.5289    1.6509 C   0  0  0  0  0  0  0  0  0  0  0  0
    2.2917   -8.0273    2.1165 Cl  0  0  0  0  0  0  0  0  0  0  0  0
    4.1275   -6.5353    0.7998 C   0  0  0  0  0  0  0  0  0  0  0  0
    4.7348   -5.3278    0.3910 C   0  0  0  0  0  0  0  0  0  0  0  0
    4.1793   -4.1210    0.8574 C   0  0  0  0  0  0  0  0  0  0  0  0
    4.5996   -2.8022    0.6305 N   0  0  0  0  0  0  0  0  0  0  0  0
    5.5858   -2.4711   -0.3834 C   0  0  0  0  0  0  0  0  0  0  0  0
    4.9871   -2.3270   -1.7700 C   0  0  0  0  0  0  0  0  0  0  0  0
    4.5345   -1.0752   -2.2455 C   0  0  0  0  0  0  0  0  0  0  0  0
    3.9420   -1.0172   -3.5193 C   0  0  0  0  0  0  0  0  0  0  0  0
    3.8111   -2.0973   -4.3164 N   0  0  0  0  0  0  0  0  0  0  0  0
    4.2184   -3.2949   -3.8462 C   0  0  0  0  0  0  0  0  0  0  0  0
    4.8230   -3.4574   -2.5926 C   0  0  0  0  0  0  0  0  0  0  0  0
    3.7324   -1.9465    1.2682 C   0  0  0  0  0  0  0  0  0  0  0  0
    3.6645   -0.5982    1.2831 C   0  0  0  0  0  0  0  0  0  0  0  0
    2.6061    0.0814    2.0413 C   0  0  0  0  0  0  0  0  0  0  0  0
    2.5020    1.3077    2.1107 O   0  0  0  0  0  0  0  0  0  0  0  0
    1.0721    0.4437    4.2818 H   0  0  0  0  0  0  0  0  0  0  0  0
    0.0476   -0.9608    3.9631 H   0  0  0  0  0  0  0  0  0  0  0  0
    0.0159    0.4290    2.8690 H   0  0  0  0  0  0  0  0  0  0  0  0
    1.5746   -5.3078    2.7733 H   0  0  0  0  0  0  0  0  0  0  0  0
    4.5334   -7.4737    0.4553 H   0  0  0  0  0  0  0  0  0  0  0  0
    5.6030   -5.3437   -0.2558 H   0  0  0  0  0  0  0  0  0  0  0  0
    6.0431   -1.5230   -0.1117 H   0  0  0  0  0  0  0  0  0  0  0  0
    6.3821   -3.2168   -0.4001 H   0  0  0  0  0  0  0  0  0  0  0  0
    4.6127   -0.1844   -1.6425 H   0  0  0  0  0  0  0  0  0  0  0  0
    3.5887   -0.0836   -3.9263 H   0  0  0  0  0  0  0  0  0  0  0  0
    4.0922   -4.1457   -4.4989 H   0  0  0  0  0  0  0  0  0  0  0  0
    5.1276   -4.4385   -2.2707 H   0  0  0  0  0  0  0  0  0  0  0  0
    4.3879   -0.0127    0.7368 H   0  0  0  0  0  0  0  0  0  0  0  0
  1  2  1  0
  1 24  1  0
  1 25  1  0
  1 26  1  0
  2 22  1  0
  2  3  1  0
  3  4  2  0
  4 20  1  0
  4  5  1  0
  5 11  2  0
  5  6  1  0
  6  7  2  0
  6 27  1  0
  7  8  1  0
  7  9  1  0
  9 10  2  0
  9 28  1  0
 10 11  1  0
 10 29  1  0
 11 12  1  0
 12 13  1  0
 12 20  1  0
 13 14  1  0
 13 30  1  0
 13 31  1  0
 14 19  1  0
 14 15  2  0
 15 16  1  0
 15 32  1  0
 16 17  2  0
 16 33  1  0
 17 18  1  0
 18 19  2  0
 18 34  1  0
 19 35  1  0
 20 21  2  0
 21 22  1  0
 21 36  1  0
 22 23  2  0
M  END
>  <i_m_ct_stereo_status>  (202) 
1

>  <s_m_source_file>  (202) 
/var/tmp/pbs.5102103.sched01/tmpup5_gzpn/66d1evxq16.sdf

>  <i_m_source_file_index>  (202) 
8

>  <i_lp_mmshare_version>  (202) 
48012

>  <i_f3d_flags>  (202) 
0

>  <s_epik_input>  (202) 
W0NIM11uKG4xKWMoPU8pW2NIXWMybihjKGMzYzEyKVtjSF1bY0hdYyhDbClbY0hdMylbQ0gyXWM0W2NIXVtjSF1uW2NIXVtjSF00

>  <s_epik_cmdline>  (202) 
J2VwaWtfcHl0aG9uJywgJy1waHQnLCAnMi4wJywgJy1waCcsICc3LjAnLCAnLXRuJywgJzgnLCAnLW1hJywgJzIwMCcsICctaW1hZScsICc8aW5maWxlLm1hZT4nLCAnLW9tYWUnLCAnPG91dGZpbGUubWFlPic=

>  <r_epik_Ionization_Penalty>  (202) 
0.0063877

>  <r_epik_Ionization_Penalty_Charging>  (202) 
1.52465e-09

>  <r_epik_Ionization_Penalty_Neutral>  (202) 
0.0063877

>  <r_epik_State_Penalty>  (202) 
0.00472219

>  <r_epik_Charging_Adjusted_Penalty>  (202) 
0.0047222

>  <i_epik_Tot_Q>  (202) 
0

>  <i_epik_Tot_abs_Q>  (202) 
0

>  <s_lp_Force_Field>  (202) 
OPLS3e

>  <r_lp_Energy>  (202) 
43.4773

>  <b_lp_Chiralities_Consistent>  (202) 
1

>  <s_lp_Variant>  (202) 
43:0-1

>  <s_i_glide_gridfile>  (202) 
pfpi4k_grid

>  <i_i_glide_lignum>  (202) 
8

>  <i_i_glide_rotatable_bonds>  (202) 
2

>  <r_i_docking_score>  (202) 
-3.6865

>  <r_i_glide_ligand_efficiency>  (202) 
-0.160283

>  <r_i_glide_ligand_efficiency_sa>  (202) 
-0.455823

>  <r_i_glide_ligand_efficiency_ln>  (202) 
-0.89143

>  <r_i_glide_gscore>  (202) 
-3.6865

>  <r_i_glide_lipo>  (202) 
-0.661388

>  <r_i_glide_hbond>  (202) 
-0.32

>  <r_i_glide_metal>  (202) 
-0

>  <r_i_glide_rewards>  (202) 
-1.21179

>  <r_i_glide_evdw>  (202) 
-32.0478

>  <r_i_glide_ecoul>  (202) 
-1.48515

>  <r_i_glide_erotb>  (202) 
0.355206

>  <r_i_glide_esite>  (202) 
-0.0233642

>  <r_i_glide_emodel>  (202) 
-41.1118

>  <r_i_glide_energy>  (202) 
-33.533

>  <r_i_glide_einternal>  (202) 
0.0409503

>  <r_i_glide_intrahb_reward>  (202) 
-0

>  <i_i_glide_confnum>  (202) 
3

>  <i_i_glide_posenum>  (202) 
1

>  <r_i_glide_eff_state_penalty>  (202) 
0

>  <ligand_id>  (202) 
43

>  <original_smiles>  (202) 
Cn1nc2c3cc(Cl)ccc3n(Cc3ccncc3)c2cc1=O

>  <smiles>  (202) 
[H]c1nc([H])c([H])c(C([H])([H])n2c3c([H])c(=O)n(C([H])([H])[H])nc3c3c([H])c(Cl)c([H])c([H])c32)c1[H]

$$$$
43:0:2
     RDKit          3D

 36 39  0  0  1  0  0  0  0  0999 V2000
    1.2541   -7.4998    1.8941 C   0  0  0  0  0  0  0  0  0  0  0  0
    1.7287   -6.1277    2.0917 N   0  0  0  0  0  0  0  0  0  0  0  0
    2.2126   -5.4760    0.9475 N   0  0  0  0  0  0  0  0  0  0  0  0
    2.6623   -4.2743    1.0977 C   0  0  0  0  0  0  0  0  0  0  0  0
    3.1888   -3.3082    0.1312 C   0  0  0  0  0  0  0  0  0  0  0  0
    3.3873   -3.3767   -1.2615 C   0  0  0  0  0  0  0  0  0  0  0  0
    3.9180   -2.2473   -1.9183 C   0  0  0  0  0  0  0  0  0  0  0  0
    4.2012   -2.3055   -3.6128 Cl  0  0  0  0  0  0  0  0  0  0  0  0
    4.2270   -1.0717   -1.1967 C   0  0  0  0  0  0  0  0  0  0  0  0
    4.0270   -1.0091    0.1987 C   0  0  0  0  0  0  0  0  0  0  0  0
    3.5009   -2.1411    0.8516 C   0  0  0  0  0  0  0  0  0  0  0  0
    3.2095   -2.3354    2.2083 N   0  0  0  0  0  0  0  0  0  0  0  0
    3.1694   -1.2247    3.1476 C   0  0  0  0  0  0  0  0  0  0  0  0
    1.8547   -0.4632    3.1397 C   0  0  0  0  0  0  0  0  0  0  0  0
    0.9033   -0.6462    4.1654 C   0  0  0  0  0  0  0  0  0  0  0  0
   -0.3083    0.0741    4.0867 C   0  0  0  0  0  0  0  0  0  0  0  0
   -0.6126    0.9193    3.0795 N   0  0  0  0  0  0  0  0  0  0  0  0
    0.2995    1.0845    2.0973 C   0  0  0  0  0  0  0  0  0  0  0  0
    1.5409    0.4243    2.0925 C   0  0  0  0  0  0  0  0  0  0  0  0
    2.6891   -3.5998    2.3670 C   0  0  0  0  0  0  0  0  0  0  0  0
    2.1954   -4.2218    3.4577 C   0  0  0  0  0  0  0  0  0  0  0  0
    1.6713   -5.5905    3.3558 C   0  0  0  0  0  0  0  0  0  0  0  0
    1.2049   -6.2114    4.3115 O   0  0  0  0  0  0  0  0  0  0  0  0
    1.8205   -8.1950    2.5185 H   0  0  0  0  0  0  0  0  0  0  0  0
    1.3569   -7.8263    0.8624 H   0  0  0  0  0  0  0  0  0  0  0  0
    0.2013   -7.5884    2.1721 H   0  0  0  0  0  0  0  0  0  0  0  0
    3.1463   -4.2482   -1.8302 H   0  0  0  0  0  0  0  0  0  0  0  0
    4.6112   -0.2141   -1.7279 H   0  0  0  0  0  0  0  0  0  0  0  0
    4.2626   -0.0974    0.7396 H   0  0  0  0  0  0  0  0  0  0  0  0
    3.3248   -1.6339    4.1423 H   0  0  0  0  0  0  0  0  0  0  0  0
    3.9969   -0.5429    2.9564 H   0  0  0  0  0  0  0  0  0  0  0  0
    1.0811   -1.3293    4.9867 H   0  0  0  0  0  0  0  0  0  0  0  0
   -1.0665   -0.0335    4.8481 H   0  0  0  0  0  0  0  0  0  0  0  0
    0.0436    1.7492    1.2847 H   0  0  0  0  0  0  0  0  0  0  0  0
    2.2084    0.5923    1.2649 H   0  0  0  0  0  0  0  0  0  0  0  0
    2.1837   -3.7072    4.4058 H   0  0  0  0  0  0  0  0  0  0  0  0
  1  2  1  0
  1 24  1  0
  1 25  1  0
  1 26  1  0
  2 22  1  0
  2  3  1  0
  3  4  2  0
  4 20  1  0
  4  5  1  0
  5 11  2  0
  5  6  1  0
  6  7  2  0
  6 27  1  0
  7  8  1  0
  7  9  1  0
  9 10  2  0
  9 28  1  0
 10 11  1  0
 10 29  1  0
 11 12  1  0
 12 13  1  0
 12 20  1  0
 13 14  1  0
 13 30  1  0
 13 31  1  0
 14 19  1  0
 14 15  2  0
 15 16  1  0
 15 32  1  0
 16 17  2  0
 16 33  1  0
 17 18  1  0
 18 19  2  0
 18 34  1  0
 19 35  1  0
 20 21  2  0
 21 22  1  0
 21 36  1  0
 22 23  2  0
M  END
>  <i_m_ct_stereo_status>  (203) 
1

>  <s_m_source_file>  (203) 
/var/tmp/pbs.5102103.sched01/tmpup5_gzpn/66d1evxq16.sdf

>  <i_m_source_file_index>  (203) 
8

>  <i_lp_mmshare_version>  (203) 
48012

>  <i_f3d_flags>  (203) 
0

>  <s_epik_input>  (203) 
W0NIM11uKG4xKWMoPU8pW2NIXWMybihjKGMzYzEyKVtjSF1bY0hdYyhDbClbY0hdMylbQ0gyXWM0W2NIXVtjSF1uW2NIXVtjSF00

>  <s_epik_cmdline>  (203) 
J2VwaWtfcHl0aG9uJywgJy1waHQnLCAnMi4wJywgJy1waCcsICc3LjAnLCAnLXRuJywgJzgnLCAnLW1hJywgJzIwMCcsICctaW1hZScsICc8aW5maWxlLm1hZT4nLCAnLW9tYWUnLCAnPG91dGZpbGUubWFlPic=

>  <r_epik_Ionization_Penalty>  (203) 
0.0063877

>  <r_epik_Ionization_Penalty_Charging>  (203) 
1.52465e-09

>  <r_epik_Ionization_Penalty_Neutral>  (203) 
0.0063877

>  <r_epik_State_Penalty>  (203) 
0.00472219

>  <r_epik_Charging_Adjusted_Penalty>  (203) 
0.0047222

>  <i_epik_Tot_Q>  (203) 
0

>  <i_epik_Tot_abs_Q>  (203) 
0

>  <s_lp_Force_Field>  (203) 
OPLS3e

>  <r_lp_Energy>  (203) 
43.4773

>  <b_lp_Chiralities_Consistent>  (203) 
1

>  <s_lp_Variant>  (203) 
43:0-1

>  <s_i_glide_gridfile>  (203) 
pfpi4k_grid

>  <i_i_glide_lignum>  (203) 
8

>  <i_i_glide_rotatable_bonds>  (203) 
2

>  <r_i_docking_score>  (203) 
-2.81594

>  <r_i_glide_ligand_efficiency>  (203) 
-0.122432

>  <r_i_glide_ligand_efficiency_sa>  (203) 
-0.34818

>  <r_i_glide_ligand_efficiency_ln>  (203) 
-0.680919

>  <r_i_glide_gscore>  (203) 
-2.81594

>  <r_i_glide_lipo>  (203) 
-0.258209

>  <r_i_glide_hbond>  (203) 
-0.00036835

>  <r_i_glide_metal>  (203) 
-0

>  <r_i_glide_rewards>  (203) 
-1.19479

>  <r_i_glide_evdw>  (203) 
-27.4989

>  <r_i_glide_ecoul>  (203) 
-2.03164

>  <r_i_glide_erotb>  (203) 
0.355206

>  <r_i_glide_esite>  (203) 
-0.0380837

>  <r_i_glide_emodel>  (203) 
-35.2452

>  <r_i_glide_energy>  (203) 
-29.5305

>  <r_i_glide_einternal>  (203) 
0.00939381

>  <r_i_glide_intrahb_reward>  (203) 
-0

>  <i_i_glide_confnum>  (203) 
3

>  <i_i_glide_posenum>  (203) 
17

>  <r_i_glide_eff_state_penalty>  (203) 
0

>  <ligand_id>  (203) 
43

>  <original_smiles>  (203) 
Cn1nc2c3cc(Cl)ccc3n(Cc3ccncc3)c2cc1=O

>  <smiles>  (203) 
[H]c1nc([H])c([H])c(C([H])([H])n2c3c([H])c(=O)n(C([H])([H])[H])nc3c3c([H])c(Cl)c([H])c([H])c32)c1[H]

$$$$
44:0:0
     RDKit          3D

 49 52  0  0  1  0  0  0  0  0999 V2000
   -0.6395   -0.6979    4.6760 C   0  0  0  0  0  0  0  0  0  0  0  0
   -0.8535    0.4858    3.9109 O   0  0  0  0  0  0  0  0  0  0  0  0
    0.1443    1.5064    4.0658 C   0  0  2  0  0  0  0  0  0  0  0  0
   -0.5117    2.9074    4.1926 C   0  0  0  0  0  0  0  0  0  0  0  0
   -1.7132    2.9436    4.4718 O   0  0  0  0  0  0  0  0  0  0  0  0
    0.3795    4.1415    3.9852 C   0  0  2  0  0  0  0  0  0  0  0  0
   -0.3918    5.0939    3.2845 O   0  0  0  0  0  0  0  0  0  0  0  0
    1.7743    3.8834    3.3677 C   0  0  2  0  0  0  0  0  0  0  0  0
    2.3250    2.4564    3.3605 C   0  0  0  0  0  0  0  0  0  0  0  0
    1.2529    1.4316    2.9744 C   0  0  1  0  0  0  0  0  0  0  0  0
    1.9053    0.0503    2.8237 C   0  0  0  0  0  0  0  0  0  0  0  0
    0.7434    1.7392    1.6883 O   0  0  0  0  0  0  0  0  0  0  0  0
    2.3596    4.9668    4.2871 C   0  0  2  0  0  0  0  0  0  0  0  0
    2.6551    6.3275    3.6421 C   0  0  0  0  0  0  0  0  0  0  0  0
    3.6309    4.5184    4.7619 O   0  0  0  0  0  0  0  0  0  0  0  0
    3.9193    4.1297    6.0344 C   0  0  0  0  0  0  0  0  0  0  0  0
    5.0114    3.7077    6.3960 O   0  0  0  0  0  0  0  0  0  0  0  0
    2.7993    4.2616    7.0519 C   0  0  0  0  0  0  0  0  0  0  0  0
    1.4208    3.8892    6.4780 C   0  0  1  0  0  0  0  0  0  0  0  0
    0.2512    4.1964    7.4360 C   0  0  1  0  0  0  0  0  0  0  0  0
    0.4307    3.7643    8.8990 C   0  0  0  0  0  0  0  0  0  0  0  0
   -0.0109    5.6843    7.2370 C   0  0  0  0  0  0  0  0  0  0  0  0
    0.5038    5.9739    5.8497 C   0  0  0  0  0  0  0  0  0  0  0  0
    0.3270    7.1156    5.4276 O   0  0  0  0  0  0  0  0  0  0  0  0
    1.1431    4.7361    5.2161 C   0  0  2  0  0  0  0  0  0  0  0  0
   -1.4400   -1.4100    4.4759 H   0  0  0  0  0  0  0  0  0  0  0  0
   -0.6320   -0.4790    5.7433 H   0  0  0  0  0  0  0  0  0  0  0  0
    0.2904   -1.2144    4.4480 H   0  0  0  0  0  0  0  0  0  0  0  0
    0.6096    1.3298    5.0334 H   0  0  0  0  0  0  0  0  0  0  0  0
   -0.2427    4.9138    2.3344 H   0  0  0  0  0  0  0  0  0  0  0  0
    1.7920    4.2709    2.3539 H   0  0  0  0  0  0  0  0  0  0  0  0
    3.1798    2.3973    2.6929 H   0  0  0  0  0  0  0  0  0  0  0  0
    2.6919    2.1835    4.3500 H   0  0  0  0  0  0  0  0  0  0  0  0
    2.3458   -0.2890    3.7615 H   0  0  0  0  0  0  0  0  0  0  0  0
    2.6940    0.0715    2.0732 H   0  0  0  0  0  0  0  0  0  0  0  0
    1.1821   -0.6868    2.4756 H   0  0  0  0  0  0  0  0  0  0  0  0
    0.5300    2.6646    1.5979 H   0  0  0  0  0  0  0  0  0  0  0  0
    1.7845    6.7363    3.1295 H   0  0  0  0  0  0  0  0  0  0  0  0
    3.4561    6.2530    2.9030 H   0  0  0  0  0  0  0  0  0  0  0  0
    2.9697    7.0572    4.3854 H   0  0  0  0  0  0  0  0  0  0  0  0
    3.0332    3.6087    7.8911 H   0  0  0  0  0  0  0  0  0  0  0  0
    2.8169    5.2805    7.4389 H   0  0  0  0  0  0  0  0  0  0  0  0
    1.4253    2.8243    6.2593 H   0  0  0  0  0  0  0  0  0  0  0  0
   -0.6242    3.6705    7.0486 H   0  0  0  0  0  0  0  0  0  0  0  0
    1.2380    4.3034    9.3927 H   0  0  0  0  0  0  0  0  0  0  0  0
    0.6362    2.6971    8.9578 H   0  0  0  0  0  0  0  0  0  0  0  0
   -0.4841    3.9553    9.4566 H   0  0  0  0  0  0  0  0  0  0  0  0
   -1.0727    5.9263    7.3204 H   0  0  0  0  0  0  0  0  0  0  0  0
    0.5460    6.2931    7.9553 H   0  0  0  0  0  0  0  0  0  0  0  0
  1  2  1  0
  1 26  1  0
  1 27  1  0
  1 28  1  0
  2  3  1  0
  3 10  1  0
  3  4  1  0
  3 29  1  1
  4  5  2  0
  4  6  1  0
  6 25  1  0
  6  7  1  6
  6  8  1  0
  7 30  1  0
  8  9  1  0
  8 13  1  0
  8 31  1  6
  9 10  1  0
  9 32  1  0
  9 33  1  0
 10 11  1  0
 10 12  1  6
 11 34  1  0
 11 35  1  0
 11 36  1  0
 12 37  1  0
 13 25  1  0
 13 14  1  6
 13 15  1  0
 14 38  1  0
 14 39  1  0
 14 40  1  0
 15 16  1  0
 16 17  2  0
 16 18  1  0
 18 19  1  0
 18 41  1  0
 18 42  1  0
 19 25  1  0
 19 20  1  0
 19 43  1  6
 20 21  1  0
 20 22  1  0
 20 44  1  6
 21 45  1  0
 21 46  1  0
 21 47  1  0
 22 23  1  0
 22 48  1  0
 22 49  1  0
 23 24  2  0
 25 23  1  1
M  END
>  <i_m_ct_stereo_status>  (204) 
1

>  <s_m_source_file>  (204) 
/var/tmp/pbs.5102103.sched01/tmpup5_gzpn/66d1evxq16.sdf

>  <i_m_source_file_index>  (204) 
9

>  <i_lp_mmshare_version>  (204) 
48012

>  <i_f3d_flags>  (204) 
0

>  <s_epik_input>  (204) 
W0NIM11PW0NASF0oQzE9TylbQ0BAXShbQ0gzXSkoW09IXSlbQ0gyXVtDQEBIXShbQ0BAXTEoW0NAXTIzNClbT0hdKVtDQF0yKFtDSDNdKU9DKD1PKVtDSDJdW0NASF0zW0NAQEhdKFtDSDNdKVtDSDJdQzQ9Tw==

>  <s_epik_cmdline>  (204) 
J2VwaWtfcHl0aG9uJywgJy1waHQnLCAnMi4wJywgJy1waCcsICc3LjAnLCAnLXRuJywgJzgnLCAnLW1hJywgJzIwMCcsICctaW1hZScsICc8aW5maWxlLm1hZT4nLCAnLW9tYWUnLCAnPG91dGZpbGUubWFlPic=

>  <r_lp_tautomer_probability>  (204) 
1

>  <r_epik_Ionization_Penalty>  (204) 
2.37941e-07

>  <r_epik_Ionization_Penalty_Charging>  (204) 
0

>  <r_epik_Ionization_Penalty_Neutral>  (204) 
2.37941e-07

>  <r_epik_State_Penalty>  (204) 
-0

>  <r_epik_Charging_Adjusted_Penalty>  (204) 
0

>  <i_epik_Tot_Q>  (204) 
0

>  <i_epik_Tot_abs_Q>  (204) 
0

>  <s_epik_Chemistry_Notes>  (204) 
This compound has an ester and may undergo hydrolysis at high or low pH.

>  <s_lp_Force_Field>  (204) 
OPLS3e

>  <r_lp_Energy>  (204) 
24.324

>  <b_lp_Chiralities_Consistent>  (204) 
1

>  <s_lp_Variant>  (204) 
44:0-1

>  <s_i_glide_gridfile>  (204) 
pfpi4k_grid

>  <i_i_glide_lignum>  (204) 
9

>  <i_i_glide_rotatable_bonds>  (204) 
3

>  <r_i_docking_score>  (204) 
-3.38848

>  <r_i_glide_ligand_efficiency>  (204) 
-0.135539

>  <r_i_glide_ligand_efficiency_sa>  (204) 
-0.396319

>  <r_i_glide_ligand_efficiency_ln>  (204) 
-0.803172

>  <r_i_glide_gscore>  (204) 
-3.38848

>  <r_i_glide_lipo>  (204) 
0

>  <r_i_glide_hbond>  (204) 
-0.00991529

>  <r_i_glide_metal>  (204) 
-0

>  <r_i_glide_rewards>  (204) 
-1.00651

>  <r_i_glide_evdw>  (204) 
-17.9485

>  <r_i_glide_ecoul>  (204) 
-9.46087

>  <r_i_glide_erotb>  (204) 
0

>  <r_i_glide_esite>  (204) 
-0.0555074

>  <r_i_glide_emodel>  (204) 
-32.0153

>  <r_i_glide_energy>  (204) 
-27.4093

>  <r_i_glide_einternal>  (204) 
4.10239

>  <r_i_glide_intrahb_reward>  (204) 
-0

>  <i_i_glide_confnum>  (204) 
1

>  <i_i_glide_posenum>  (204) 
29

>  <r_i_glide_eff_state_penalty>  (204) 
0

>  <ligand_id>  (204) 
44

>  <original_smiles>  (204) 
COC1C(=O)C2(O)C(CC1(C)O)C1(C)OC(=O)CC3C(C)CC(=O)C312

>  <smiles>  (204) 
[H]OC12C(=O)C([H])(OC([H])([H])[H])C(O[H])(C([H])([H])[H])C([H])([H])C1([H])C1(C([H])([H])[H])OC(=O)C([H])([H])C3([H])C([H])(C([H])([H])[H])C([H])([H])C(=O)C231

$$$$
44:0:1
     RDKit          3D

 49 52  0  0  1  0  0  0  0  0999 V2000
   -1.2073    1.0389    2.5099 C   0  0  0  0  0  0  0  0  0  0  0  0
   -0.8489    2.4103    2.6024 O   0  0  0  0  0  0  0  0  0  0  0  0
   -0.0418    2.7594    3.7285 C   0  0  2  0  0  0  0  0  0  0  0  0
   -0.5417    4.0853    4.3659 C   0  0  0  0  0  0  0  0  0  0  0  0
   -1.6759    4.4770    4.0769 O   0  0  0  0  0  0  0  0  0  0  0  0
    0.4030    4.8211    5.3326 C   0  0  2  0  0  0  0  0  0  0  0  0
    0.2580    6.2043    5.0367 O   0  0  0  0  0  0  0  0  0  0  0  0
    1.8758    4.3503    5.3389 C   0  0  2  0  0  0  0  0  0  0  0  0
    2.2151    2.9860    4.7256 C   0  0  0  0  0  0  0  0  0  0  0  0
    1.4792    2.7591    3.3955 C   0  0  1  0  0  0  0  0  0  0  0  0
    1.9888    1.4599    2.7486 C   0  0  0  0  0  0  0  0  0  0  0  0
    1.8221    3.8163    2.5100 O   0  0  0  0  0  0  0  0  0  0  0  0
    1.9163    4.5562    6.8699 C   0  0  2  0  0  0  0  0  0  0  0  0
    2.6307    5.8219    7.3663 C   0  0  0  0  0  0  0  0  0  0  0  0
    2.6397    3.4714    7.4716 O   0  0  0  0  0  0  0  0  0  0  0  0
    2.1004    2.4888    8.2361 C   0  0  0  0  0  0  0  0  0  0  0  0
    2.7631    1.5521    8.6835 O   0  0  0  0  0  0  0  0  0  0  0  0
    0.6101    2.5788    8.5325 C   0  0  0  0  0  0  0  0  0  0  0  0
   -0.2059    3.0879    7.3281 C   0  0  1  0  0  0  0  0  0  0  0  0
   -1.6823    3.3648    7.6696 C   0  0  1  0  0  0  0  0  0  0  0  0
   -2.4117    2.2919    8.4876 C   0  0  0  0  0  0  0  0  0  0  0  0
   -1.6680    4.7463    8.3142 C   0  0  0  0  0  0  0  0  0  0  0  0
   -0.4243    5.4094    7.7472 C   0  0  0  0  0  0  0  0  0  0  0  0
   -0.1823    6.5725    8.0440 O   0  0  0  0  0  0  0  0  0  0  0  0
    0.3591    4.4402    6.8585 C   0  0  2  0  0  0  0  0  0  0  0  0
   -1.8007    0.8905    1.6082 H   0  0  0  0  0  0  0  0  0  0  0  0
   -1.7910    0.7360    3.3773 H   0  0  0  0  0  0  0  0  0  0  0  0
   -0.3591    0.3634    2.4437 H   0  0  0  0  0  0  0  0  0  0  0  0
   -0.2229    1.9958    4.4875 H   0  0  0  0  0  0  0  0  0  0  0  0
    0.9313    6.6717    5.5108 H   0  0  0  0  0  0  0  0  0  0  0  0
    2.4796    5.1160    4.8478 H   0  0  0  0  0  0  0  0  0  0  0  0
    3.2940    2.8862    4.6055 H   0  0  0  0  0  0  0  0  0  0  0  0
    1.9223    2.1741    5.3967 H   0  0  0  0  0  0  0  0  0  0  0  0
    1.7823    0.5932    3.3821 H   0  0  0  0  0  0  0  0  0  0  0  0
    3.0670    1.4974    2.5876 H   0  0  0  0  0  0  0  0  0  0  0  0
    1.5330    1.2971    1.7708 H   0  0  0  0  0  0  0  0  0  0  0  0
    1.1396    3.9160    1.8347 H   0  0  0  0  0  0  0  0  0  0  0  0
    2.2617    6.7328    6.8919 H   0  0  0  0  0  0  0  0  0  0  0  0
    3.7023    5.7746    7.1669 H   0  0  0  0  0  0  0  0  0  0  0  0
    2.5142    5.9425    8.4425 H   0  0  0  0  0  0  0  0  0  0  0  0
    0.2744    1.5846    8.8163 H   0  0  0  0  0  0  0  0  0  0  0  0
    0.4897    3.2134    9.4098 H   0  0  0  0  0  0  0  0  0  0  0  0
   -0.1571    2.3265    6.5504 H   0  0  0  0  0  0  0  0  0  0  0  0
   -2.2154    3.4622    6.7213 H   0  0  0  0  0  0  0  0  0  0  0  0
   -1.9972    2.1759    9.4904 H   0  0  0  0  0  0  0  0  0  0  0  0
   -2.3619    1.3348    7.9755 H   0  0  0  0  0  0  0  0  0  0  0  0
   -3.4630    2.5553    8.5977 H   0  0  0  0  0  0  0  0  0  0  0  0
   -2.5595    5.3269    8.0835 H   0  0  0  0  0  0  0  0  0  0  0  0
   -1.5717    4.6889    9.3985 H   0  0  0  0  0  0  0  0  0  0  0  0
  1  2  1  0
  1 26  1  0
  1 27  1  0
  1 28  1  0
  2  3  1  0
  3 10  1  0
  3  4  1  0
  3 29  1  1
  4  5  2  0
  4  6  1  0
  6 25  1  0
  6  7  1  1
  6  8  1  0
  7 30  1  0
  8  9  1  0
  8 13  1  0
  8 31  1  6
  9 10  1  0
  9 32  1  0
  9 33  1  0
 10 11  1  0
 10 12  1  6
 11 34  1  0
 11 35  1  0
 11 36  1  0
 12 37  1  0
 13 25  1  0
 13 14  1  6
 13 15  1  0
 14 38  1  0
 14 39  1  0
 14 40  1  0
 15 16  1  0
 16 17  2  0
 16 18  1  0
 18 19  1  0
 18 41  1  0
 18 42  1  0
 19 25  1  0
 19 20  1  0
 19 43  1  6
 20 21  1  0
 20 22  1  0
 20 44  1  6
 21 45  1  0
 21 46  1  0
 21 47  1  0
 22 23  1  0
 22 48  1  0
 22 49  1  0
 23 24  2  0
 25 23  1  1
M  END
>  <i_m_ct_stereo_status>  (205) 
1

>  <s_m_source_file>  (205) 
/var/tmp/pbs.5102103.sched01/tmpup5_gzpn/66d1evxq16.sdf

>  <i_m_source_file_index>  (205) 
9

>  <i_lp_mmshare_version>  (205) 
48012

>  <i_f3d_flags>  (205) 
0

>  <s_epik_input>  (205) 
W0NIM11PW0NASF0oQzE9TylbQ0BAXShbQ0gzXSkoW09IXSlbQ0gyXVtDQEBIXShbQ0BAXTEoW0NAXTIzNClbT0hdKVtDQF0yKFtDSDNdKU9DKD1PKVtDSDJdW0NASF0zW0NAQEhdKFtDSDNdKVtDSDJdQzQ9Tw==

>  <s_epik_cmdline>  (205) 
J2VwaWtfcHl0aG9uJywgJy1waHQnLCAnMi4wJywgJy1waCcsICc3LjAnLCAnLXRuJywgJzgnLCAnLW1hJywgJzIwMCcsICctaW1hZScsICc8aW5maWxlLm1hZT4nLCAnLW9tYWUnLCAnPG91dGZpbGUubWFlPic=

>  <r_lp_tautomer_probability>  (205) 
1

>  <r_epik_Ionization_Penalty>  (205) 
2.37941e-07

>  <r_epik_Ionization_Penalty_Charging>  (205) 
0

>  <r_epik_Ionization_Penalty_Neutral>  (205) 
2.37941e-07

>  <r_epik_State_Penalty>  (205) 
-0

>  <r_epik_Charging_Adjusted_Penalty>  (205) 
0

>  <i_epik_Tot_Q>  (205) 
0

>  <i_epik_Tot_abs_Q>  (205) 
0

>  <s_epik_Chemistry_Notes>  (205) 
This compound has an ester and may undergo hydrolysis at high or low pH.

>  <s_lp_Force_Field>  (205) 
OPLS3e

>  <r_lp_Energy>  (205) 
24.324

>  <b_lp_Chiralities_Consistent>  (205) 
1

>  <s_lp_Variant>  (205) 
44:0-1

>  <s_i_glide_gridfile>  (205) 
pfpi4k_grid

>  <i_i_glide_lignum>  (205) 
9

>  <i_i_glide_rotatable_bonds>  (205) 
3

>  <r_i_docking_score>  (205) 
-3.14883

>  <r_i_glide_ligand_efficiency>  (205) 
-0.125953

>  <r_i_glide_ligand_efficiency_sa>  (205) 
-0.36829

>  <r_i_glide_ligand_efficiency_ln>  (205) 
-0.746367

>  <r_i_glide_gscore>  (205) 
-3.14883

>  <r_i_glide_lipo>  (205) 
-0.0383268

>  <r_i_glide_hbond>  (205) 
-0.135156

>  <r_i_glide_metal>  (205) 
-0

>  <r_i_glide_rewards>  (205) 
-1.00651

>  <r_i_glide_evdw>  (205) 
-14.2739

>  <r_i_glide_ecoul>  (205) 
-7.9925

>  <r_i_glide_erotb>  (205) 
0

>  <r_i_glide_esite>  (205) 
-0.0562719

>  <r_i_glide_emodel>  (205) 
-27.2762

>  <r_i_glide_energy>  (205) 
-22.2664

>  <r_i_glide_einternal>  (205) 
1.92346

>  <r_i_glide_intrahb_reward>  (205) 
-0

>  <i_i_glide_confnum>  (205) 
1

>  <i_i_glide_posenum>  (205) 
5

>  <r_i_glide_eff_state_penalty>  (205) 
0

>  <ligand_id>  (205) 
44

>  <original_smiles>  (205) 
COC1C(=O)C2(O)C(CC1(C)O)C1(C)OC(=O)CC3C(C)CC(=O)C312

>  <smiles>  (205) 
[H]OC12C(=O)C([H])(OC([H])([H])[H])C(O[H])(C([H])([H])[H])C([H])([H])C1([H])C1(C([H])([H])[H])OC(=O)C([H])([H])C3([H])C([H])(C([H])([H])[H])C([H])([H])C(=O)C231

$$$$
44:0:2
     RDKit          3D

 49 52  0  0  1  0  0  0  0  0999 V2000
   -2.8981    2.6599    7.0210 C   0  0  0  0  0  0  0  0  0  0  0  0
   -2.6150    3.3066    5.7809 O   0  0  0  0  0  0  0  0  0  0  0  0
   -1.2322    3.3262    5.4083 C   0  0  2  0  0  0  0  0  0  0  0  0
   -0.4298    4.4439    6.1172 C   0  0  0  0  0  0  0  0  0  0  0  0
   -0.9263    4.9504    7.1382 O   0  0  0  0  0  0  0  0  0  0  0  0
    0.9016    4.8718    5.5223 C   0  0  2  0  0  0  0  0  0  0  0  0
    0.9386    6.2908    5.5859 O   0  0  0  0  0  0  0  0  0  0  0  0
    1.2222    4.3292    4.1137 C   0  0  2  0  0  0  0  0  0  0  0  0
    0.4111    3.1513    3.5653 C   0  0  0  0  0  0  0  0  0  0  0  0
   -1.0799    3.3240    3.8619 C   0  0  1  0  0  0  0  0  0  0  0  0
   -1.8743    2.2006    3.1778 C   0  0  0  0  0  0  0  0  0  0  0  0
   -1.4997    4.5517    3.2818 O   0  0  0  0  0  0  0  0  0  0  0  0
    2.6867    4.1517    4.5437 C   0  0  2  0  0  0  0  0  0  0  0  0
    3.6723    5.2103    4.0446 C   0  0  0  0  0  0  0  0  0  0  0  0
    3.1602    2.9162    4.0112 O   0  0  0  0  0  0  0  0  0  0  0  0
    3.4597    1.7824    4.7121 C   0  0  0  0  0  0  0  0  0  0  0  0
    3.8422    0.7354    4.2090 O   0  0  0  0  0  0  0  0  0  0  0  0
    3.3246    1.8742    6.2231 C   0  0  0  0  0  0  0  0  0  0  0  0
    2.1092    2.7160    6.6543 C   0  0  1  0  0  0  0  0  0  0  0  0
    2.0583    2.9683    8.1748 C   0  0  1  0  0  0  0  0  0  0  0  0
    2.3151    1.7556    9.0827 C   0  0  0  0  0  0  0  0  0  0  0  0
    3.0029    4.1463    8.3905 C   0  0  0  0  0  0  0  0  0  0  0  0
    3.0211    4.8538    7.0545 C   0  0  0  0  0  0  0  0  0  0  0  0
    3.6914    5.8849    6.9668 O   0  0  0  0  0  0  0  0  0  0  0  0
    2.1917    4.1173    6.0159 C   0  0  2  0  0  0  0  0  0  0  0  0
   -3.9649    2.7173    7.2308 H   0  0  0  0  0  0  0  0  0  0  0  0
   -2.3904    3.1107    7.8732 H   0  0  0  0  0  0  0  0  0  0  0  0
   -2.6239    1.6049    6.9916 H   0  0  0  0  0  0  0  0  0  0  0  0
   -0.8179    2.3783    5.7553 H   0  0  0  0  0  0  0  0  0  0  0  0
    1.7808    6.5693    5.2762 H   0  0  0  0  0  0  0  0  0  0  0  0
    1.1580    5.1644    3.4233 H   0  0  0  0  0  0  0  0  0  0  0  0
    0.6037    3.0273    2.5004 H   0  0  0  0  0  0  0  0  0  0  0  0
    0.7269    2.2172    4.0271 H   0  0  0  0  0  0  0  0  0  0  0  0
   -1.5688    1.2182    3.5373 H   0  0  0  0  0  0  0  0  0  0  0  0
   -1.7112    2.2151    2.0999 H   0  0  0  0  0  0  0  0  0  0  0  0
   -2.9447    2.3074    3.3515 H   0  0  0  0  0  0  0  0  0  0  0  0
   -1.1682    4.5709    2.3870 H   0  0  0  0  0  0  0  0  0  0  0  0
    3.3635    6.2244    4.2805 H   0  0  0  0  0  0  0  0  0  0  0  0
    3.7863    5.1577    2.9593 H   0  0  0  0  0  0  0  0  0  0  0  0
    4.6497    5.0667    4.4938 H   0  0  0  0  0  0  0  0  0  0  0  0
    3.2310    0.8589    6.6030 H   0  0  0  0  0  0  0  0  0  0  0  0
    4.2587    2.2676    6.6170 H   0  0  0  0  0  0  0  0  0  0  0  0
    1.2116    2.1793    6.3560 H   0  0  0  0  0  0  0  0  0  0  0  0
    1.0521    3.3291    8.4015 H   0  0  0  0  0  0  0  0  0  0  0  0
    3.3301    1.3696    8.9821 H   0  0  0  0  0  0  0  0  0  0  0  0
    1.6151    0.9513    8.8544 H   0  0  0  0  0  0  0  0  0  0  0  0
    2.1653    2.0337   10.1255 H   0  0  0  0  0  0  0  0  0  0  0  0
    2.6547    4.8125    9.1829 H   0  0  0  0  0  0  0  0  0  0  0  0
    4.0148    3.8087    8.6294 H   0  0  0  0  0  0  0  0  0  0  0  0
  1  2  1  0
  1 26  1  0
  1 27  1  0
  1 28  1  0
  2  3  1  0
  3 10  1  0
  3  4  1  0
  3 29  1  1
  4  5  2  0
  4  6  1  0
  6 25  1  0
  6  7  1  6
  6  8  1  0
  7 30  1  0
  8  9  1  0
  8 13  1  0
  8 31  1  6
  9 10  1  0
  9 32  1  0
  9 33  1  0
 10 11  1  0
 10 12  1  6
 11 34  1  0
 11 35  1  0
 11 36  1  0
 12 37  1  0
 13 25  1  0
 13 14  1  1
 13 15  1  0
 14 38  1  0
 14 39  1  0
 14 40  1  0
 15 16  1  0
 16 17  2  0
 16 18  1  0
 18 19  1  0
 18 41  1  0
 18 42  1  0
 19 25  1  0
 19 20  1  0
 19 43  1  6
 20 21  1  0
 20 22  1  0
 20 44  1  1
 21 45  1  0
 21 46  1  0
 21 47  1  0
 22 23  1  0
 22 48  1  0
 22 49  1  0
 23 24  2  0
 25 23  1  1
M  END
>  <i_m_ct_stereo_status>  (206) 
1

>  <s_m_source_file>  (206) 
/var/tmp/pbs.5102103.sched01/tmpup5_gzpn/66d1evxq16.sdf

>  <i_m_source_file_index>  (206) 
9

>  <i_lp_mmshare_version>  (206) 
48012

>  <i_f3d_flags>  (206) 
0

>  <s_epik_input>  (206) 
W0NIM11PW0NASF0oQzE9TylbQ0BAXShbQ0gzXSkoW09IXSlbQ0gyXVtDQEBIXShbQ0BAXTEoW0NAXTIzNClbT0hdKVtDQF0yKFtDSDNdKU9DKD1PKVtDSDJdW0NASF0zW0NAQEhdKFtDSDNdKVtDSDJdQzQ9Tw==

>  <s_epik_cmdline>  (206) 
J2VwaWtfcHl0aG9uJywgJy1waHQnLCAnMi4wJywgJy1waCcsICc3LjAnLCAnLXRuJywgJzgnLCAnLW1hJywgJzIwMCcsICctaW1hZScsICc8aW5maWxlLm1hZT4nLCAnLW9tYWUnLCAnPG91dGZpbGUubWFlPic=

>  <r_lp_tautomer_probability>  (206) 
1

>  <r_epik_Ionization_Penalty>  (206) 
2.37941e-07

>  <r_epik_Ionization_Penalty_Charging>  (206) 
0

>  <r_epik_Ionization_Penalty_Neutral>  (206) 
2.37941e-07

>  <r_epik_State_Penalty>  (206) 
-0

>  <r_epik_Charging_Adjusted_Penalty>  (206) 
0

>  <i_epik_Tot_Q>  (206) 
0

>  <i_epik_Tot_abs_Q>  (206) 
0

>  <s_epik_Chemistry_Notes>  (206) 
This compound has an ester and may undergo hydrolysis at high or low pH.

>  <s_lp_Force_Field>  (206) 
OPLS3e

>  <r_lp_Energy>  (206) 
24.324

>  <b_lp_Chiralities_Consistent>  (206) 
1

>  <s_lp_Variant>  (206) 
44:0-1

>  <s_i_glide_gridfile>  (206) 
pfpi4k_grid

>  <i_i_glide_lignum>  (206) 
9

>  <i_i_glide_rotatable_bonds>  (206) 
3

>  <r_i_docking_score>  (206) 
-2.91835

>  <r_i_glide_ligand_efficiency>  (206) 
-0.116734

>  <r_i_glide_ligand_efficiency_sa>  (206) 
-0.341333

>  <r_i_glide_ligand_efficiency_ln>  (206) 
-0.691738

>  <r_i_glide_gscore>  (206) 
-2.91835

>  <r_i_glide_lipo>  (206) 
-0.212536

>  <r_i_glide_hbond>  (206) 
0

>  <r_i_glide_metal>  (206) 
-0

>  <r_i_glide_rewards>  (206) 
-1.00651

>  <r_i_glide_evdw>  (206) 
-16.0192

>  <r_i_glide_ecoul>  (206) 
-5.87473

>  <r_i_glide_erotb>  (206) 
0

>  <r_i_glide_esite>  (206) 
-0.0171415

>  <r_i_glide_emodel>  (206) 
-27.4611

>  <r_i_glide_energy>  (206) 
-21.8939

>  <r_i_glide_einternal>  (206) 
0.19598

>  <r_i_glide_intrahb_reward>  (206) 
-0

>  <i_i_glide_confnum>  (206) 
2

>  <i_i_glide_posenum>  (206) 
24

>  <r_i_glide_eff_state_penalty>  (206) 
0

>  <ligand_id>  (206) 
44

>  <original_smiles>  (206) 
COC1C(=O)C2(O)C(CC1(C)O)C1(C)OC(=O)CC3C(C)CC(=O)C312

>  <smiles>  (206) 
[H]OC12C(=O)C([H])(OC([H])([H])[H])C(O[H])(C([H])([H])[H])C([H])([H])C1([H])C1(C([H])([H])[H])OC(=O)C([H])([H])C3([H])C([H])(C([H])([H])[H])C([H])([H])C(=O)C231

$$$$
45:0:0
     RDKit          3D

 44 48  0  0  1  0  0  0  0  0999 V2000
    3.6609    0.0963   -4.6091 C   0  0  0  0  0  0  0  0  0  0  0  0
    3.8014   -1.0228   -3.6030 C   0  0  0  0  0  0  0  0  0  0  0  0
    3.9106   -2.2602   -4.0908 N   0  0  0  0  0  0  0  0  0  0  0  0
    4.0593   -3.2577   -3.1900 C   0  0  0  0  0  0  0  0  0  0  0  0
    4.0975   -3.0035   -1.8047 C   0  0  0  0  0  0  0  0  0  0  0  0
    3.9643   -1.6625   -1.4089 C   0  0  0  0  0  0  0  0  0  0  0  0
    3.8444   -0.6713   -2.3184 N   0  0  0  0  0  0  0  0  0  0  0  0
    3.9483   -1.2912    0.0698 C   0  0  0  0  0  0  0  0  0  0  0  0
    4.5305   -2.4187    0.9652 C   0  0  0  0  0  0  0  0  0  0  0  0
    3.9606   -3.7113    0.5955 N   0  0  0  0  0  0  0  0  0  0  0  0
    3.9123   -4.7486    1.5552 C   0  0  0  0  0  0  0  0  0  0  0  0
    4.5613   -5.9017    1.2414 N   0  0  0  0  0  0  0  0  0  0  0  0
    4.4462   -6.9610    2.0933 C   0  0  0  0  0  0  0  0  0  0  0  0
    3.7431   -7.0378    3.2474 N   0  0  0  0  0  0  0  0  0  0  0  0
    3.1365   -5.8922    3.5231 N   0  0  0  0  0  0  0  0  0  0  0  0
    2.3506   -5.6897    4.6127 C   0  0  0  0  0  0  0  0  0  0  0  0
    1.9018   -4.4339    4.5923 N   0  0  0  0  0  0  0  0  0  0  0  0
    2.4144   -3.7767    3.4633 C   0  0  0  0  0  0  0  0  0  0  0  0
    2.1249   -2.2994    3.2971 C   0  0  2  0  0  0  0  0  0  0  0  0
    2.8498   -1.4591    4.3442 C   0  0  0  0  0  0  0  0  0  0  0  0
    1.9048   -1.5171    5.5456 C   0  0  0  0  0  0  0  0  0  0  0  0
    0.5939   -1.6650    4.9991 O   0  0  0  0  0  0  0  0  0  0  0  0
    0.6696   -1.9486    3.6011 C   0  0  0  0  0  0  0  0  0  0  0  0
    3.1687   -4.7204    2.7831 C   0  0  0  0  0  0  0  0  0  0  0  0
    4.3022   -4.1043   -0.7798 C   0  0  0  0  0  0  0  0  0  0  0  0
    4.2071   -0.1670   -5.5096 H   0  0  0  0  0  0  0  0  0  0  0  0
    4.0752    1.0291   -4.2279 H   0  0  0  0  0  0  0  0  0  0  0  0
    2.6162    0.2500   -4.8731 H   0  0  0  0  0  0  0  0  0  0  0  0
    4.1597   -4.2566   -3.5876 H   0  0  0  0  0  0  0  0  0  0  0  0
    4.4709   -0.3452    0.2292 H   0  0  0  0  0  0  0  0  0  0  0  0
    2.9013   -1.1156    0.3231 H   0  0  0  0  0  0  0  0  0  0  0  0
    5.6039   -2.4735    0.7833 H   0  0  0  0  0  0  0  0  0  0  0  0
    4.4348   -2.2020    2.0294 H   0  0  0  0  0  0  0  0  0  0  0  0
    4.9889   -7.8511    1.8262 H   0  0  0  0  0  0  0  0  0  0  0  0
    2.1292   -6.4166    5.3752 H   0  0  0  0  0  0  0  0  0  0  0  0
    2.3292   -1.9510    2.2848 H   0  0  0  0  0  0  0  0  0  0  0  0
    3.8605   -1.8057    4.5674 H   0  0  0  0  0  0  0  0  0  0  0  0
    2.9214   -0.4236    4.0148 H   0  0  0  0  0  0  0  0  0  0  0  0
    2.1278   -2.3870    6.1622 H   0  0  0  0  0  0  0  0  0  0  0  0
    1.9777   -0.6453    6.1977 H   0  0  0  0  0  0  0  0  0  0  0  0
    0.3866   -1.0467    3.0594 H   0  0  0  0  0  0  0  0  0  0  0  0
   -0.0127   -2.7435    3.2969 H   0  0  0  0  0  0  0  0  0  0  0  0
    3.7506   -4.9941   -1.0714 H   0  0  0  0  0  0  0  0  0  0  0  0
    5.3587   -4.3720   -0.8163 H   0  0  0  0  0  0  0  0  0  0  0  0
  1  2  1  0
  1 26  1  0
  1 27  1  0
  1 28  1  0
  2  7  2  0
  2  3  1  0
  3  4  2  0
  4  5  1  0
  4 29  1  0
  5 25  1  0
  5  6  2  0
  6  7  1  0
  6  8  1  0
  8  9  1  0
  8 30  1  0
  8 31  1  0
  9 10  1  0
  9 32  1  0
  9 33  1  0
 10 11  1  0
 10 25  1  0
 11 24  1  0
 11 12  2  0
 12 13  1  0
 13 14  2  0
 13 34  1  0
 14 15  1  0
 15 24  1  0
 15 16  1  0
 16 17  2  0
 16 35  1  0
 17 18  1  0
 18 19  1  0
 18 24  2  0
 19 23  1  0
 19 20  1  0
 19 36  1  6
 20 21  1  0
 20 37  1  0
 20 38  1  0
 21 22  1  0
 21 39  1  0
 21 40  1  0
 22 23  1  0
 23 41  1  0
 23 42  1  0
 25 43  1  0
 25 44  1  0
M  END
>  <i_m_ct_stereo_status>  (207) 
1

>  <s_m_source_file>  (207) 
/var/tmp/pbs.5102103.sched01/tmpup5_gzpn/66d1evxq16.sdf

>  <i_m_source_file_index>  (207) 
10

>  <i_lp_mmshare_version>  (207) 
48012

>  <i_f3d_flags>  (207) 
0

>  <s_epik_input>  (207) 
W2NIXTFuYyhbQ0gzXSluYyhjMTIpW0NIMl1bQ0gyXU4oW0NIMl0yKWMobltjSF1uMyljKG4zNCljKG5bY0hdNClbQ0BASF01W0NIMl1bQ0gyXU9bQ0gyXTU=

>  <s_epik_cmdline>  (207) 
J2VwaWtfcHl0aG9uJywgJy1waHQnLCAnMi4wJywgJy1waCcsICc3LjAnLCAnLXRuJywgJzgnLCAnLW1hJywgJzIwMCcsICctaW1hZScsICc8aW5maWxlLm1hZT4nLCAnLW9tYWUnLCAnPG91dGZpbGUubWFlPic=

>  <r_lp_tautomer_probability>  (207) 
1

>  <r_epik_Ionization_Penalty>  (207) 
0.012854

>  <r_epik_Ionization_Penalty_Charging>  (207) 
0

>  <r_epik_Ionization_Penalty_Neutral>  (207) 
0.012854

>  <r_epik_State_Penalty>  (207) 
0.00692793

>  <r_epik_Charging_Adjusted_Penalty>  (207) 
0.00692793

>  <i_epik_Tot_Q>  (207) 
0

>  <i_epik_Tot_abs_Q>  (207) 
0

>  <s_epik_Chemistry_Notes>  (207) 
This compound contains an electron-poor aromatic ring that is susceptible to covalent hydrolysis at low pH, typically resulting in measured values for nitrogen ring protonation that are around two units higher than predicted values.

>  <s_lp_Force_Field>  (207) 
OPLS3e

>  <r_lp_Energy>  (207) 
36.9948

>  <b_lp_Chiralities_Consistent>  (207) 
1

>  <s_lp_Variant>  (207) 
45:0-1

>  <s_i_glide_gridfile>  (207) 
pfpi4k_grid

>  <i_i_glide_lignum>  (207) 
10

>  <i_i_glide_rotatable_bonds>  (207) 
2

>  <r_i_docking_score>  (207) 
-3.66672

>  <r_i_glide_ligand_efficiency>  (207) 
-0.146669

>  <r_i_glide_ligand_efficiency_sa>  (207) 
-0.428862

>  <r_i_glide_ligand_efficiency_ln>  (207) 
-0.869122

>  <r_i_glide_gscore>  (207) 
-3.66672

>  <r_i_glide_lipo>  (207) 
-0.3276

>  <r_i_glide_hbond>  (207) 
-0.286988

>  <r_i_glide_metal>  (207) 
-0

>  <r_i_glide_rewards>  (207) 
-1.48512

>  <r_i_glide_evdw>  (207) 
-24.5147

>  <r_i_glide_ecoul>  (207) 
-4.48891

>  <r_i_glide_erotb>  (207) 
0.332063

>  <r_i_glide_esite>  (207) 
0

>  <r_i_glide_emodel>  (207) 
-34.5085

>  <r_i_glide_energy>  (207) 
-29.0036

>  <r_i_glide_einternal>  (207) 
1.55478

>  <r_i_glide_intrahb_reward>  (207) 
-0

>  <i_i_glide_confnum>  (207) 
5

>  <i_i_glide_posenum>  (207) 
40

>  <r_i_glide_eff_state_penalty>  (207) 
0

>  <ligand_id>  (207) 
45

>  <original_smiles>  (207) 
Cc1ncc2c(n1)CCN(c1ncnn3cnc(C4CCOC4)c13)C2

>  <smiles>  (207) 
[H]c1nc(N2C([H])([H])c3c([H])nc(C([H])([H])[H])nc3C([H])([H])C2([H])[H])c2c(C3([H])C([H])([H])OC([H])([H])C3([H])[H])nc([H])n2n1

$$$$
45:0:1
     RDKit          3D

 44 48  0  0  1  0  0  0  0  0999 V2000
   -0.6121    1.8743    3.9057 C   0  0  0  0  0  0  0  0  0  0  0  0
    0.6346    1.1488    3.4417 C   0  0  0  0  0  0  0  0  0  0  0  0
    1.7691    1.8465    3.4790 N   0  0  0  0  0  0  0  0  0  0  0  0
    2.8986    1.2177    3.0986 C   0  0  0  0  0  0  0  0  0  0  0  0
    2.8926   -0.1265    2.6965 C   0  0  0  0  0  0  0  0  0  0  0  0
    1.6451   -0.7731    2.7267 C   0  0  0  0  0  0  0  0  0  0  0  0
    0.5122   -0.1323    3.0942 N   0  0  0  0  0  0  0  0  0  0  0  0
    1.5274   -2.2236    2.3001 C   0  0  0  0  0  0  0  0  0  0  0  0
    2.8798   -2.9518    2.2267 C   0  0  0  0  0  0  0  0  0  0  0  0
    3.8444   -2.0951    1.5362 N   0  0  0  0  0  0  0  0  0  0  0  0
    4.9644   -2.7373    1.0021 C   0  0  0  0  0  0  0  0  0  0  0  0
    5.8478   -3.3164    1.8469 N   0  0  0  0  0  0  0  0  0  0  0  0
    7.0007   -3.8380    1.3051 C   0  0  0  0  0  0  0  0  0  0  0  0
    7.4224   -3.8179    0.0147 N   0  0  0  0  0  0  0  0  0  0  0  0
    6.5195   -3.2706   -0.7631 N   0  0  0  0  0  0  0  0  0  0  0  0
    6.6477   -3.1566   -2.1116 C   0  0  0  0  0  0  0  0  0  0  0  0
    5.5200   -2.6496   -2.5884 N   0  0  0  0  0  0  0  0  0  0  0  0
    4.6469   -2.3504   -1.5298 C   0  0  0  0  0  0  0  0  0  0  0  0
    3.2701   -1.8313   -1.8457 C   0  0  2  0  0  0  0  0  0  0  0  0
    2.3735   -2.9227   -2.4253 C   0  0  0  0  0  0  0  0  0  0  0  0
    2.7248   -2.9434   -3.9114 C   0  0  0  0  0  0  0  0  0  0  0  0
    3.1684   -1.6182   -4.2214 O   0  0  0  0  0  0  0  0  0  0  0  0
    3.2992   -0.8394   -3.0275 C   0  0  0  0  0  0  0  0  0  0  0  0
    5.2988   -2.7427   -0.3932 C   0  0  0  0  0  0  0  0  0  0  0  0
    4.1482   -0.8647    2.2705 C   0  0  0  0  0  0  0  0  0  0  0  0
   -0.3625    2.6254    4.6541 H   0  0  0  0  0  0  0  0  0  0  0  0
   -1.3291    1.1848    4.3481 H   0  0  0  0  0  0  0  0  0  0  0  0
   -1.0875    2.3829    3.0701 H   0  0  0  0  0  0  0  0  0  0  0  0
    3.8132    1.7860    3.1403 H   0  0  0  0  0  0  0  0  0  0  0  0
    0.7891   -2.7524    2.9097 H   0  0  0  0  0  0  0  0  0  0  0  0
    1.1634   -2.1587    1.2834 H   0  0  0  0  0  0  0  0  0  0  0  0
    3.2199   -3.1009    3.2488 H   0  0  0  0  0  0  0  0  0  0  0  0
    2.8012   -3.9426    1.7698 H   0  0  0  0  0  0  0  0  0  0  0  0
    7.7123   -4.2856    1.9795 H   0  0  0  0  0  0  0  0  0  0  0  0
    7.4695   -3.4909   -2.7184 H   0  0  0  0  0  0  0  0  0  0  0  0
    2.8293   -1.3663   -0.9623 H   0  0  0  0  0  0  0  0  0  0  0  0
    2.4888   -3.8795   -1.9264 H   0  0  0  0  0  0  0  0  0  0  0  0
    1.3278   -2.6512   -2.3390 H   0  0  0  0  0  0  0  0  0  0  0  0
    3.5588   -3.6184   -4.0905 H   0  0  0  0  0  0  0  0  0  0  0  0
    1.9095   -3.2947   -4.5493 H   0  0  0  0  0  0  0  0  0  0  0  0
    2.4407   -0.1723   -2.9858 H   0  0  0  0  0  0  0  0  0  0  0  0
    4.1914   -0.2038   -3.0515 H   0  0  0  0  0  0  0  0  0  0  0  0
    4.8068   -0.2201    1.6852 H   0  0  0  0  0  0  0  0  0  0  0  0
    4.6765   -1.1184    3.1899 H   0  0  0  0  0  0  0  0  0  0  0  0
  1  2  1  0
  1 26  1  0
  1 27  1  0
  1 28  1  0
  2  7  2  0
  2  3  1  0
  3  4  2  0
  4  5  1  0
  4 29  1  0
  5 25  1  0
  5  6  2  0
  6  7  1  0
  6  8  1  0
  8  9  1  0
  8 30  1  0
  8 31  1  0
  9 10  1  0
  9 32  1  0
  9 33  1  0
 10 11  1  0
 10 25  1  0
 11 24  1  0
 11 12  2  0
 12 13  1  0
 13 14  2  0
 13 34  1  0
 14 15  1  0
 15 24  1  0
 15 16  1  0
 16 17  2  0
 16 35  1  0
 17 18  1  0
 18 19  1  0
 18 24  2  0
 19 23  1  0
 19 20  1  0
 19 36  1  1
 20 21  1  0
 20 37  1  0
 20 38  1  0
 21 22  1  0
 21 39  1  0
 21 40  1  0
 22 23  1  0
 23 41  1  0
 23 42  1  0
 25 43  1  0
 25 44  1  0
M  END
>  <i_m_ct_stereo_status>  (208) 
1

>  <s_m_source_file>  (208) 
/var/tmp/pbs.5102103.sched01/tmpup5_gzpn/66d1evxq16.sdf

>  <i_m_source_file_index>  (208) 
10

>  <i_lp_mmshare_version>  (208) 
48012

>  <i_f3d_flags>  (208) 
0

>  <s_epik_input>  (208) 
W2NIXTFuYyhbQ0gzXSluYyhjMTIpW0NIMl1bQ0gyXU4oW0NIMl0yKWMobltjSF1uMyljKG4zNCljKG5bY0hdNClbQ0BASF01W0NIMl1bQ0gyXU9bQ0gyXTU=

>  <s_epik_cmdline>  (208) 
J2VwaWtfcHl0aG9uJywgJy1waHQnLCAnMi4wJywgJy1waCcsICc3LjAnLCAnLXRuJywgJzgnLCAnLW1hJywgJzIwMCcsICctaW1hZScsICc8aW5maWxlLm1hZT4nLCAnLW9tYWUnLCAnPG91dGZpbGUubWFlPic=

>  <r_lp_tautomer_probability>  (208) 
1

>  <r_epik_Ionization_Penalty>  (208) 
0.012854

>  <r_epik_Ionization_Penalty_Charging>  (208) 
0

>  <r_epik_Ionization_Penalty_Neutral>  (208) 
0.012854

>  <r_epik_State_Penalty>  (208) 
0.00692793

>  <r_epik_Charging_Adjusted_Penalty>  (208) 
0.00692793

>  <i_epik_Tot_Q>  (208) 
0

>  <i_epik_Tot_abs_Q>  (208) 
0

>  <s_epik_Chemistry_Notes>  (208) 
This compound contains an electron-poor aromatic ring that is susceptible to covalent hydrolysis at low pH, typically resulting in measured values for nitrogen ring protonation that are around two units higher than predicted values.

>  <s_lp_Force_Field>  (208) 
OPLS3e

>  <r_lp_Energy>  (208) 
36.9948

>  <b_lp_Chiralities_Consistent>  (208) 
1

>  <s_lp_Variant>  (208) 
45:0-1

>  <s_i_glide_gridfile>  (208) 
pfpi4k_grid

>  <i_i_glide_lignum>  (208) 
10

>  <i_i_glide_rotatable_bonds>  (208) 
2

>  <r_i_docking_score>  (208) 
-3.24976

>  <r_i_glide_ligand_efficiency>  (208) 
-0.12999

>  <r_i_glide_ligand_efficiency_sa>  (208) 
-0.380094

>  <r_i_glide_ligand_efficiency_ln>  (208) 
-0.770291

>  <r_i_glide_gscore>  (208) 
-3.24976

>  <r_i_glide_lipo>  (208) 
-0.204554

>  <r_i_glide_hbond>  (208) 
-0.0924293

>  <r_i_glide_metal>  (208) 
-0

>  <r_i_glide_rewards>  (208) 
-1.41376

>  <r_i_glide_evdw>  (208) 
-25.7643

>  <r_i_glide_ecoul>  (208) 
-3.69816

>  <r_i_glide_erotb>  (208) 
0.332063

>  <r_i_glide_esite>  (208) 
-0.0281407

>  <r_i_glide_emodel>  (208) 
-32.7783

>  <r_i_glide_energy>  (208) 
-29.4624

>  <r_i_glide_einternal>  (208) 
3.62261

>  <r_i_glide_intrahb_reward>  (208) 
-0

>  <i_i_glide_confnum>  (208) 
5

>  <i_i_glide_posenum>  (208) 
37

>  <r_i_glide_eff_state_penalty>  (208) 
0

>  <ligand_id>  (208) 
45

>  <original_smiles>  (208) 
Cc1ncc2c(n1)CCN(c1ncnn3cnc(C4CCOC4)c13)C2

>  <smiles>  (208) 
[H]c1nc(N2C([H])([H])c3c([H])nc(C([H])([H])[H])nc3C([H])([H])C2([H])[H])c2c(C3([H])C([H])([H])OC([H])([H])C3([H])[H])nc([H])n2n1

$$$$
45:0:2
     RDKit          3D

 44 48  0  0  1  0  0  0  0  0999 V2000
   -0.9677    1.1521    3.5497 C   0  0  0  0  0  0  0  0  0  0  0  0
    0.3245    0.5587    3.0304 C   0  0  0  0  0  0  0  0  0  0  0  0
    1.0979    1.3740    2.3231 N   0  0  0  0  0  0  0  0  0  0  0  0
    2.2619    0.8766    1.8644 C   0  0  0  0  0  0  0  0  0  0  0  0
    2.6586   -0.4451    2.1310 C   0  0  0  0  0  0  0  0  0  0  0  0
    1.7584   -1.2211    2.8870 C   0  0  0  0  0  0  0  0  0  0  0  0
    0.5889   -0.7132    3.3424 N   0  0  0  0  0  0  0  0  0  0  0  0
    2.0707   -2.6800    3.1977 C   0  0  0  0  0  0  0  0  0  0  0  0
    3.5580   -3.0126    2.9751 C   0  0  0  0  0  0  0  0  0  0  0  0
    4.0164   -2.4659    1.6904 N   0  0  0  0  0  0  0  0  0  0  0  0
    5.1427   -3.0387    1.0877 C   0  0  0  0  0  0  0  0  0  0  0  0
    6.0257   -3.7066    1.8730 N   0  0  0  0  0  0  0  0  0  0  0  0
    7.1675   -4.1747    1.2905 C   0  0  0  0  0  0  0  0  0  0  0  0
    7.5715   -4.0443    0.0067 N   0  0  0  0  0  0  0  0  0  0  0  0
    6.6575   -3.4377   -0.7270 N   0  0  0  0  0  0  0  0  0  0  0  0
    6.7566   -3.2298   -2.0663 C   0  0  0  0  0  0  0  0  0  0  0  0
    5.6365   -2.6608   -2.5021 N   0  0  0  0  0  0  0  0  0  0  0  0
    4.7705   -2.4561   -1.4194 C   0  0  0  0  0  0  0  0  0  0  0  0
    3.3854   -1.9065   -1.6911 C   0  0  2  0  0  0  0  0  0  0  0  0
    2.4618   -2.9550   -2.2900 C   0  0  0  0  0  0  0  0  0  0  0  0
    2.7997   -2.9232   -3.7758 C   0  0  0  0  0  0  0  0  0  0  0  0
    3.2398   -1.5904   -4.0426 O   0  0  0  0  0  0  0  0  0  0  0  0
    3.4076   -0.8661   -2.8211 C   0  0  0  0  0  0  0  0  0  0  0  0
    5.4426   -2.9266   -0.3067 C   0  0  0  0  0  0  0  0  0  0  0  0
    3.9875   -1.0048    1.6549 C   0  0  0  0  0  0  0  0  0  0  0  0
   -0.8535    2.2203    3.7452 H   0  0  0  0  0  0  0  0  0  0  0  0
   -1.2782    0.6756    4.4804 H   0  0  0  0  0  0  0  0  0  0  0  0
   -1.7678    1.0356    2.8175 H   0  0  0  0  0  0  0  0  0  0  0  0
    2.8869    1.5366    1.2855 H   0  0  0  0  0  0  0  0  0  0  0  0
    1.7446   -2.9284    4.2112 H   0  0  0  0  0  0  0  0  0  0  0  0
    1.4804   -3.2851    2.5101 H   0  0  0  0  0  0  0  0  0  0  0  0
    4.1320   -2.5434    3.7729 H   0  0  0  0  0  0  0  0  0  0  0  0
    3.7339   -4.0847    3.0595 H   0  0  0  0  0  0  0  0  0  0  0  0
    7.8708   -4.6891    1.9256 H   0  0  0  0  0  0  0  0  0  0  0  0
    7.5709   -3.5375   -2.6971 H   0  0  0  0  0  0  0  0  0  0  0  0
    2.9521   -1.4829   -0.7886 H   0  0  0  0  0  0  0  0  0  0  0  0
    2.5668   -3.9321   -1.8256 H   0  0  0  0  0  0  0  0  0  0  0  0
    1.4228   -2.6547   -2.1827 H   0  0  0  0  0  0  0  0  0  0  0  0
    3.6191   -3.6054   -3.9939 H   0  0  0  0  0  0  0  0  0  0  0  0
    1.9594   -3.2226   -4.4030 H   0  0  0  0  0  0  0  0  0  0  0  0
    2.5620   -0.1935   -2.7230 H   0  0  0  0  0  0  0  0  0  0  0  0
    4.3153   -0.2535   -2.8347 H   0  0  0  0  0  0  0  0  0  0  0  0
    4.2368   -0.6082    0.6702 H   0  0  0  0  0  0  0  0  0  0  0  0
    4.7523   -0.6184    2.3286 H   0  0  0  0  0  0  0  0  0  0  0  0
  1  2  1  0
  1 26  1  0
  1 27  1  0
  1 28  1  0
  2  7  2  0
  2  3  1  0
  3  4  2  0
  4  5  1  0
  4 29  1  0
  5 25  1  0
  5  6  2  0
  6  7  1  0
  6  8  1  0
  8  9  1  0
  8 30  1  0
  8 31  1  0
  9 10  1  0
  9 32  1  0
  9 33  1  0
 10 11  1  0
 10 25  1  0
 11 24  1  0
 11 12  2  0
 12 13  1  0
 13 14  2  0
 13 34  1  0
 14 15  1  0
 15 24  1  0
 15 16  1  0
 16 17  2  0
 16 35  1  0
 17 18  1  0
 18 19  1  0
 18 24  2  0
 19 23  1  0
 19 20  1  0
 19 36  1  1
 20 21  1  0
 20 37  1  0
 20 38  1  0
 21 22  1  0
 21 39  1  0
 21 40  1  0
 22 23  1  0
 23 41  1  0
 23 42  1  0
 25 43  1  0
 25 44  1  0
M  END
>  <i_m_ct_stereo_status>  (209) 
1

>  <s_m_source_file>  (209) 
/var/tmp/pbs.5102103.sched01/tmpup5_gzpn/66d1evxq16.sdf

>  <i_m_source_file_index>  (209) 
10

>  <i_lp_mmshare_version>  (209) 
48012

>  <i_f3d_flags>  (209) 
0

>  <s_epik_input>  (209) 
W2NIXTFuYyhbQ0gzXSluYyhjMTIpW0NIMl1bQ0gyXU4oW0NIMl0yKWMobltjSF1uMyljKG4zNCljKG5bY0hdNClbQ0BASF01W0NIMl1bQ0gyXU9bQ0gyXTU=

>  <s_epik_cmdline>  (209) 
J2VwaWtfcHl0aG9uJywgJy1waHQnLCAnMi4wJywgJy1waCcsICc3LjAnLCAnLXRuJywgJzgnLCAnLW1hJywgJzIwMCcsICctaW1hZScsICc8aW5maWxlLm1hZT4nLCAnLW9tYWUnLCAnPG91dGZpbGUubWFlPic=

>  <r_lp_tautomer_probability>  (209) 
1

>  <r_epik_Ionization_Penalty>  (209) 
0.012854

>  <r_epik_Ionization_Penalty_Charging>  (209) 
0

>  <r_epik_Ionization_Penalty_Neutral>  (209) 
0.012854

>  <r_epik_State_Penalty>  (209) 
0.00692793

>  <r_epik_Charging_Adjusted_Penalty>  (209) 
0.00692793

>  <i_epik_Tot_Q>  (209) 
0

>  <i_epik_Tot_abs_Q>  (209) 
0

>  <s_epik_Chemistry_Notes>  (209) 
This compound contains an electron-poor aromatic ring that is susceptible to covalent hydrolysis at low pH, typically resulting in measured values for nitrogen ring protonation that are around two units higher than predicted values.

>  <s_lp_Force_Field>  (209) 
OPLS3e

>  <r_lp_Energy>  (209) 
36.9948

>  <b_lp_Chiralities_Consistent>  (209) 
1

>  <s_lp_Variant>  (209) 
45:0-1

>  <s_i_glide_gridfile>  (209) 
pfpi4k_grid

>  <i_i_glide_lignum>  (209) 
10

>  <i_i_glide_rotatable_bonds>  (209) 
2

>  <r_i_docking_score>  (209) 
-3.12147

>  <r_i_glide_ligand_efficiency>  (209) 
-0.124859

>  <r_i_glide_ligand_efficiency_sa>  (209) 
-0.36509

>  <r_i_glide_ligand_efficiency_ln>  (209) 
-0.739883

>  <r_i_glide_gscore>  (209) 
-3.12147

>  <r_i_glide_lipo>  (209) 
-0.251994

>  <r_i_glide_hbond>  (209) 
0

>  <r_i_glide_metal>  (209) 
-0

>  <r_i_glide_rewards>  (209) 
-1.47703

>  <r_i_glide_evdw>  (209) 
-27.4072

>  <r_i_glide_ecoul>  (209) 
-2.15038

>  <r_i_glide_erotb>  (209) 
0.332063

>  <r_i_glide_esite>  (209) 
-0.0315982

>  <r_i_glide_emodel>  (209) 
-34.2706

>  <r_i_glide_energy>  (209) 
-29.5575

>  <r_i_glide_einternal>  (209) 
1.05078

>  <r_i_glide_intrahb_reward>  (209) 
-0

>  <i_i_glide_confnum>  (209) 
4

>  <i_i_glide_posenum>  (209) 
1

>  <r_i_glide_eff_state_penalty>  (209) 
0

>  <ligand_id>  (209) 
45

>  <original_smiles>  (209) 
Cc1ncc2c(n1)CCN(c1ncnn3cnc(C4CCOC4)c13)C2

>  <smiles>  (209) 
[H]c1nc(N2C([H])([H])c3c([H])nc(C([H])([H])[H])nc3C([H])([H])C2([H])[H])c2c(C3([H])C([H])([H])OC([H])([H])C3([H])[H])nc([H])n2n1

$$$$
45:1:0
     RDKit          3D

 45 49  0  0  1  0  0  0  0  0999 V2000
    3.0895   -0.1364   -4.8146 C   0  0  0  0  0  0  0  0  0  0  0  0
    3.6979   -1.1184   -3.8243 C   0  0  0  0  0  0  0  0  0  0  0  0
    3.9856   -2.3309   -4.3031 N   0  0  0  0  0  0  0  0  0  0  0  0
    4.5544   -3.2077   -3.4457 C   0  0  0  0  0  0  0  0  0  0  0  0
    4.8411   -2.8549   -2.1119 C   0  0  0  0  0  0  0  0  0  0  0  0
    4.4811   -1.5538   -1.7140 C   0  0  0  0  0  0  0  0  0  0  0  0
    3.9270   -0.6808   -2.5823 N   0  0  0  0  0  0  0  0  0  0  0  0
    4.7129   -1.1019   -0.2781 C   0  0  0  0  0  0  0  0  0  0  0  0
    5.7562   -1.9890    0.4554 C   0  0  0  0  0  0  0  0  0  0  0  0
    5.4511   -3.4026    0.2459 N   0  0  0  0  0  0  0  0  0  0  0  0
    5.8399   -4.3423    1.2245 C   0  0  0  0  0  0  0  0  0  0  0  0
    6.6165   -5.3692    0.7825 N   0  0  0  0  0  0  0  0  0  0  0  0
    6.9308   -6.3324    1.6735 C   0  0  0  0  0  0  0  0  0  0  0  0
    6.5377   -6.3861    2.9571 N   0  0  0  0  0  0  0  0  0  0  0  0
    5.7859   -5.3725    3.3832 N   0  0  0  0  0  0  0  0  0  0  0  0
    5.3196   -5.2932    4.6191 C   0  0  0  0  0  0  0  0  0  0  0  0
    4.6390   -4.1471    4.6771 N   0  0  0  0  0  0  0  0  0  0  0  0
    4.6654   -3.4818    3.4672 C   0  0  0  0  0  0  0  0  0  0  0  0
    4.0095   -2.1376    3.3197 C   0  0  2  0  0  0  0  0  0  0  0  0
    4.6097   -1.1276    4.3155 C   0  0  0  0  0  0  0  0  0  0  0  0
    3.4114   -0.6921    5.1516 C   0  0  0  0  0  0  0  0  0  0  0  0
    2.4926   -1.7694    5.0235 O   0  0  0  0  0  0  0  0  0  0  0  0
    2.5220   -2.1612    3.6648 C   0  0  0  0  0  0  0  0  0  0  0  0
    5.3992   -4.2859    2.5898 C   0  0  0  0  0  0  0  0  0  0  0  0
    5.5254   -3.8152   -1.1568 C   0  0  0  0  0  0  0  0  0  0  0  0
    3.4652   -0.3145   -5.8211 H   0  0  0  0  0  0  0  0  0  0  0  0
    3.3218    0.8915   -4.5414 H   0  0  0  0  0  0  0  0  0  0  0  0
    2.0088   -0.2510   -4.8432 H   0  0  0  0  0  0  0  0  0  0  0  0
    4.8070   -4.1847   -3.8279 H   0  0  0  0  0  0  0  0  0  0  0  0
    5.0059   -0.0552   -0.2511 H   0  0  0  0  0  0  0  0  0  0  0  0
    3.7385   -1.1581    0.2122 H   0  0  0  0  0  0  0  0  0  0  0  0
    6.7326   -1.8137    0.0026 H   0  0  0  0  0  0  0  0  0  0  0  0
    5.9047   -1.7236    1.5032 H   0  0  0  0  0  0  0  0  0  0  0  0
    7.5638   -7.1301    1.3284 H   0  0  0  0  0  0  0  0  0  0  0  0
    5.4704   -6.0042    5.4163 H   0  0  0  0  0  0  0  0  0  0  0  0
    4.0507   -1.7798    2.2998 H   0  0  0  0  0  0  0  0  0  0  0  0
    5.3675   -1.5833    4.9572 H   0  0  0  0  0  0  0  0  0  0  0  0
    5.0904   -0.2865    3.8167 H   0  0  0  0  0  0  0  0  0  0  0  0
    3.6735   -0.5230    6.1944 H   0  0  0  0  0  0  0  0  0  0  0  0
    2.9748    0.2263    4.7539 H   0  0  0  0  0  0  0  0  0  0  0  0
    2.0096   -1.4110    3.0587 H   0  0  0  0  0  0  0  0  0  0  0  0
    2.0534   -3.1264    3.4670 H   0  0  0  0  0  0  0  0  0  0  0  0
    5.1351   -4.8243   -1.3054 H   0  0  0  0  0  0  0  0  0  0  0  0
    6.5840   -3.8227   -1.4291 H   0  0  0  0  0  0  0  0  0  0  0  0
    4.1800   -3.7989    5.5097 H   0  0  0  0  0  0  0  0  0  0  0  0
  1  2  1  0
  1 26  1  0
  1 27  1  0
  1 28  1  0
  2  7  2  0
  2  3  1  0
  3  4  2  0
  4  5  1  0
  4 29  1  0
  5 25  1  0
  5  6  2  0
  6  7  1  0
  6  8  1  0
  8  9  1  0
  8 30  1  0
  8 31  1  0
  9 10  1  0
  9 32  1  0
  9 33  1  0
 10 11  1  0
 10 25  1  0
 11 24  1  0
 11 12  2  0
 12 13  1  0
 13 14  2  0
 13 34  1  0
 14 15  1  0
 15 24  1  0
 15 16  1  0
 16 17  2  0
 16 35  1  0
 17 18  1  0
 17 45  1  0
 18 19  1  0
 18 24  2  0
 19 23  1  0
 19 20  1  0
 19 36  1  6
 20 21  1  0
 20 37  1  0
 20 38  1  0
 21 22  1  0
 21 39  1  0
 21 40  1  0
 22 23  1  0
 23 41  1  0
 23 42  1  0
 25 43  1  0
 25 44  1  0
M  CHG  1  17   1
M  END
>  <i_m_ct_stereo_status>  (210) 
1

>  <s_m_source_file>  (210) 
/var/tmp/pbs.5102103.sched01/tmpup5_gzpn/66d1evxq16.sdf

>  <i_m_source_file_index>  (210) 
11

>  <i_lp_mmshare_version>  (210) 
48012

>  <i_f3d_flags>  (210) 
0

>  <s_epik_input>  (210) 
W2NIXTFuYyhbQ0gzXSluYyhjMTIpW0NIMl1bQ0gyXU4oW0NIMl0yKWMobltjSF1uMyljKG4zNCljKG5bY0hdNClbQ0BASF01W0NIMl1bQ0gyXU9bQ0gyXTU=

>  <s_epik_cmdline>  (210) 
J2VwaWtfcHl0aG9uJywgJy1waHQnLCAnMi4wJywgJy1waCcsICc3LjAnLCAnLXRuJywgJzgnLCAnLW1hJywgJzIwMCcsICctaW1hZScsICc8aW5maWxlLm1hZT4nLCAnLW9tYWUnLCAnPG91dGZpbGUubWFlPic=

>  <r_lp_tautomer_probability>  (210) 
1

>  <r_epik_Ionization_Penalty>  (210) 
2.47638

>  <r_epik_Ionization_Penalty_Charging>  (210) 
2.47603

>  <r_epik_Ionization_Penalty_Neutral>  (210) 
0.000356836

>  <r_epik_State_Penalty>  (210) 
2.63929

>  <r_epik_Charging_Adjusted_Penalty>  (210) 
5.11532

>  <i_epik_Tot_Q>  (210) 
1

>  <i_epik_Tot_abs_Q>  (210) 
1

>  <s_epik_Chemistry_Notes>  (210) 
This compound contains an electron-poor aromatic ring that is susceptible to covalent hydrolysis at low pH, typically resulting in measured values for nitrogen ring protonation that are around two units higher than predicted values.

>  <s_lp_Force_Field>  (210) 
OPLS3e

>  <r_lp_Energy>  (210) 
40.9763

>  <b_lp_Chiralities_Consistent>  (210) 
1

>  <s_lp_Variant>  (210) 
45:0-2

>  <s_i_glide_gridfile>  (210) 
pfpi4k_grid

>  <i_i_glide_lignum>  (210) 
11

>  <i_i_glide_rotatable_bonds>  (210) 
2

>  <r_i_docking_score>  (210) 
-4.33782

>  <r_i_glide_ligand_efficiency>  (210) 
-0.173513

>  <r_i_glide_ligand_efficiency_sa>  (210) 
-0.507355

>  <r_i_glide_ligand_efficiency_ln>  (210) 
-1.02819

>  <r_i_glide_gscore>  (210) 
-4.33782

>  <r_i_glide_lipo>  (210) 
-0.715121

>  <r_i_glide_hbond>  (210) 
-0.32

>  <r_i_glide_metal>  (210) 
-0

>  <r_i_glide_rewards>  (210) 
-1.5103

>  <r_i_glide_evdw>  (210) 
-26.5217

>  <r_i_glide_ecoul>  (210) 
-5.31084

>  <r_i_glide_erotb>  (210) 
0.330312

>  <r_i_glide_esite>  (210) 
0

>  <r_i_glide_emodel>  (210) 
-42.8479

>  <r_i_glide_energy>  (210) 
-31.8326

>  <r_i_glide_einternal>  (210) 
1.39616

>  <r_i_glide_intrahb_reward>  (210) 
-0

>  <i_i_glide_confnum>  (210) 
2

>  <i_i_glide_posenum>  (210) 
32

>  <r_i_glide_eff_state_penalty>  (210) 
0

>  <ligand_id>  (210) 
45

>  <original_smiles>  (210) 
Cc1ncc2c(n1)CCN(c1ncnn3cnc(C4CCOC4)c13)C2

>  <smiles>  (210) 
[H]c1nc(N2C([H])([H])c3c([H])nc(C([H])([H])[H])nc3C([H])([H])C2([H])[H])c2c(C3([H])C([H])([H])OC([H])([H])C3([H])[H])[n+]([H])c([H])n2n1

$$$$
45:1:1
     RDKit          3D

 45 49  0  0  1  0  0  0  0  0999 V2000
    3.0468   -0.1283   -4.8294 C   0  0  0  0  0  0  0  0  0  0  0  0
    3.6379   -1.1132   -3.8386 C   0  0  0  0  0  0  0  0  0  0  0  0
    3.8890   -2.3383   -4.3065 N   0  0  0  0  0  0  0  0  0  0  0  0
    4.4452   -3.2195   -3.4466 C   0  0  0  0  0  0  0  0  0  0  0  0
    4.7577   -2.8615   -2.1226 C   0  0  0  0  0  0  0  0  0  0  0  0
    4.4390   -1.5490   -1.7323 C   0  0  0  0  0  0  0  0  0  0  0  0
    3.8968   -0.6700   -2.6037 N   0  0  0  0  0  0  0  0  0  0  0  0
    4.7068   -1.0858   -0.3034 C   0  0  0  0  0  0  0  0  0  0  0  0
    5.7526   -1.9869    0.4120 C   0  0  0  0  0  0  0  0  0  0  0  0
    5.3990   -3.3911    0.2324 N   0  0  0  0  0  0  0  0  0  0  0  0
    5.7589   -4.3329    1.2222 C   0  0  0  0  0  0  0  0  0  0  0  0
    6.4099   -5.4332    0.7753 N   0  0  0  0  0  0  0  0  0  0  0  0
    6.7075   -6.3888    1.6806 C   0  0  0  0  0  0  0  0  0  0  0  0
    6.4058   -6.3590    2.9839 N   0  0  0  0  0  0  0  0  0  0  0  0
    5.7705   -5.2718    3.4228 N   0  0  0  0  0  0  0  0  0  0  0  0
    5.4136   -5.1142    4.6803 C   0  0  0  0  0  0  0  0  0  0  0  0
    4.8434   -3.9185    4.7488 N   0  0  0  0  0  0  0  0  0  0  0  0
    4.8132   -3.2998    3.5115 C   0  0  0  0  0  0  0  0  0  0  0  0
    4.2629   -1.9044    3.3504 C   0  0  2  0  0  0  0  0  0  0  0  0
    5.0771   -0.8518    4.1035 C   0  0  0  0  0  0  0  0  0  0  0  0
    4.0880    0.3012    4.1838 C   0  0  0  0  0  0  0  0  0  0  0  0
    2.7994   -0.3077    4.2551 O   0  0  0  0  0  0  0  0  0  0  0  0
    2.8537   -1.6896    3.8964 C   0  0  0  0  0  0  0  0  0  0  0  0
    5.4154   -4.1909    2.6133 C   0  0  0  0  0  0  0  0  0  0  0  0
    5.4279   -3.8303   -1.1706 C   0  0  0  0  0  0  0  0  0  0  0  0
    3.4126   -0.3271   -5.8373 H   0  0  0  0  0  0  0  0  0  0  0  0
    3.3079    0.8963   -4.5693 H   0  0  0  0  0  0  0  0  0  0  0  0
    1.9625   -0.2147   -4.8473 H   0  0  0  0  0  0  0  0  0  0  0  0
    4.6671   -4.2098   -3.8211 H   0  0  0  0  0  0  0  0  0  0  0  0
    5.0200   -0.0460   -0.2940 H   0  0  0  0  0  0  0  0  0  0  0  0
    3.7390   -1.1157    0.2017 H   0  0  0  0  0  0  0  0  0  0  0  0
    6.7107   -1.8531   -0.0927 H   0  0  0  0  0  0  0  0  0  0  0  0
    5.9545   -1.7137    1.4471 H   0  0  0  0  0  0  0  0  0  0  0  0
    7.2479   -7.2554    1.3234 H   0  0  0  0  0  0  0  0  0  0  0  0
    5.5699   -5.8147    5.4840 H   0  0  0  0  0  0  0  0  0  0  0  0
    4.1489   -1.6416    2.3085 H   0  0  0  0  0  0  0  0  0  0  0  0
    5.3216   -1.1851    5.1165 H   0  0  0  0  0  0  0  0  0  0  0  0
    6.0139   -0.5811    3.6096 H   0  0  0  0  0  0  0  0  0  0  0  0
    4.2666    0.9397    5.0460 H   0  0  0  0  0  0  0  0  0  0  0  0
    4.1505    0.9223    3.2900 H   0  0  0  0  0  0  0  0  0  0  0  0
    2.1119   -1.9377    3.1315 H   0  0  0  0  0  0  0  0  0  0  0  0
    2.6586   -2.2844    4.7879 H   0  0  0  0  0  0  0  0  0  0  0  0
    5.0032   -4.8312   -1.2998 H   0  0  0  0  0  0  0  0  0  0  0  0
    6.4790   -3.8710   -1.4541 H   0  0  0  0  0  0  0  0  0  0  0  0
    4.4893   -3.5134    5.6038 H   0  0  0  0  0  0  0  0  0  0  0  0
  1  2  1  0
  1 26  1  0
  1 27  1  0
  1 28  1  0
  2  7  2  0
  2  3  1  0
  3  4  2  0
  4  5  1  0
  4 29  1  0
  5 25  1  0
  5  6  2  0
  6  7  1  0
  6  8  1  0
  8  9  1  0
  8 30  1  0
  8 31  1  0
  9 10  1  0
  9 32  1  0
  9 33  1  0
 10 11  1  0
 10 25  1  0
 11 24  1  0
 11 12  2  0
 12 13  1  0
 13 14  2  0
 13 34  1  0
 14 15  1  0
 15 24  1  0
 15 16  1  0
 16 17  2  0
 16 35  1  0
 17 18  1  0
 17 45  1  0
 18 19  1  0
 18 24  2  0
 19 23  1  0
 19 20  1  0
 19 36  1  6
 20 21  1  0
 20 37  1  0
 20 38  1  0
 21 22  1  0
 21 39  1  0
 21 40  1  0
 22 23  1  0
 23 41  1  0
 23 42  1  0
 25 43  1  0
 25 44  1  0
M  CHG  1  17   1
M  END
>  <i_m_ct_stereo_status>  (211) 
1

>  <s_m_source_file>  (211) 
/var/tmp/pbs.5102103.sched01/tmpup5_gzpn/66d1evxq16.sdf

>  <i_m_source_file_index>  (211) 
11

>  <i_lp_mmshare_version>  (211) 
48012

>  <i_f3d_flags>  (211) 
0

>  <s_epik_input>  (211) 
W2NIXTFuYyhbQ0gzXSluYyhjMTIpW0NIMl1bQ0gyXU4oW0NIMl0yKWMobltjSF1uMyljKG4zNCljKG5bY0hdNClbQ0BASF01W0NIMl1bQ0gyXU9bQ0gyXTU=

>  <s_epik_cmdline>  (211) 
J2VwaWtfcHl0aG9uJywgJy1waHQnLCAnMi4wJywgJy1waCcsICc3LjAnLCAnLXRuJywgJzgnLCAnLW1hJywgJzIwMCcsICctaW1hZScsICc8aW5maWxlLm1hZT4nLCAnLW9tYWUnLCAnPG91dGZpbGUubWFlPic=

>  <r_lp_tautomer_probability>  (211) 
1

>  <r_epik_Ionization_Penalty>  (211) 
2.47638

>  <r_epik_Ionization_Penalty_Charging>  (211) 
2.47603

>  <r_epik_Ionization_Penalty_Neutral>  (211) 
0.000356836

>  <r_epik_State_Penalty>  (211) 
2.63929

>  <r_epik_Charging_Adjusted_Penalty>  (211) 
5.11532

>  <i_epik_Tot_Q>  (211) 
1

>  <i_epik_Tot_abs_Q>  (211) 
1

>  <s_epik_Chemistry_Notes>  (211) 
This compound contains an electron-poor aromatic ring that is susceptible to covalent hydrolysis at low pH, typically resulting in measured values for nitrogen ring protonation that are around two units higher than predicted values.

>  <s_lp_Force_Field>  (211) 
OPLS3e

>  <r_lp_Energy>  (211) 
40.9763

>  <b_lp_Chiralities_Consistent>  (211) 
1

>  <s_lp_Variant>  (211) 
45:0-2

>  <s_i_glide_gridfile>  (211) 
pfpi4k_grid

>  <i_i_glide_lignum>  (211) 
11

>  <i_i_glide_rotatable_bonds>  (211) 
2

>  <r_i_docking_score>  (211) 
-4.32053

>  <r_i_glide_ligand_efficiency>  (211) 
-0.172821

>  <r_i_glide_ligand_efficiency_sa>  (211) 
-0.505332

>  <r_i_glide_ligand_efficiency_ln>  (211) 
-1.0241

>  <r_i_glide_gscore>  (211) 
-4.32053

>  <r_i_glide_lipo>  (211) 
-0.740394

>  <r_i_glide_hbond>  (211) 
-0.32

>  <r_i_glide_metal>  (211) 
-0

>  <r_i_glide_rewards>  (211) 
-1.50453

>  <r_i_glide_evdw>  (211) 
-27.3263

>  <r_i_glide_ecoul>  (211) 
-4.79734

>  <r_i_glide_erotb>  (211) 
0.330312

>  <r_i_glide_esite>  (211) 
0

>  <r_i_glide_emodel>  (211) 
-43.1377

>  <r_i_glide_energy>  (211) 
-32.1237

>  <r_i_glide_einternal>  (211) 
1.14059

>  <r_i_glide_intrahb_reward>  (211) 
-0

>  <i_i_glide_confnum>  (211) 
6

>  <i_i_glide_posenum>  (211) 
17

>  <r_i_glide_eff_state_penalty>  (211) 
0

>  <ligand_id>  (211) 
45

>  <original_smiles>  (211) 
Cc1ncc2c(n1)CCN(c1ncnn3cnc(C4CCOC4)c13)C2

>  <smiles>  (211) 
[H]c1nc(N2C([H])([H])c3c([H])nc(C([H])([H])[H])nc3C([H])([H])C2([H])[H])c2c(C3([H])C([H])([H])OC([H])([H])C3([H])[H])[n+]([H])c([H])n2n1

$$$$
45:1:2
     RDKit          3D

 45 49  0  0  1  0  0  0  0  0999 V2000
    3.2002    0.2072   -4.1845 C   0  0  0  0  0  0  0  0  0  0  0  0
    3.7401   -0.9571   -3.3770 C   0  0  0  0  0  0  0  0  0  0  0  0
    3.4673   -2.1714   -3.8488 N   0  0  0  0  0  0  0  0  0  0  0  0
    3.9305   -3.2209   -3.1482 C   0  0  0  0  0  0  0  0  0  0  0  0
    4.6903   -3.0391   -1.9789 C   0  0  0  0  0  0  0  0  0  0  0  0
    4.9396   -1.7178   -1.5782 C   0  0  0  0  0  0  0  0  0  0  0  0
    4.4690   -0.6759   -2.2921 N   0  0  0  0  0  0  0  0  0  0  0  0
    5.7565   -1.4304   -0.3219 C   0  0  0  0  0  0  0  0  0  0  0  0
    6.6088   -2.6364    0.1264 C   0  0  0  0  0  0  0  0  0  0  0  0
    5.7944   -3.8563    0.1045 N   0  0  0  0  0  0  0  0  0  0  0  0
    6.1689   -4.9593    0.8964 C   0  0  0  0  0  0  0  0  0  0  0  0
    7.4549   -5.0052    1.3306 N   0  0  0  0  0  0  0  0  0  0  0  0
    7.8045   -6.0901    2.0616 C   0  0  0  0  0  0  0  0  0  0  0  0
    7.0199   -7.1328    2.3744 N   0  0  0  0  0  0  0  0  0  0  0  0
    5.7616   -7.0676    1.9464 N   0  0  0  0  0  0  0  0  0  0  0  0
    4.8691   -8.0155    2.1720 C   0  0  0  0  0  0  0  0  0  0  0  0
    3.7322   -7.5734    1.6454 N   0  0  0  0  0  0  0  0  0  0  0  0
    3.8846   -6.3240    1.0782 C   0  0  0  0  0  0  0  0  0  0  0  0
    2.7103   -5.5636    0.5013 C   0  0  2  0  0  0  0  0  0  0  0  0
    2.4811   -4.2528    1.2403 C   0  0  0  0  0  0  0  0  0  0  0  0
    1.6757   -4.7128    2.4511 C   0  0  0  0  0  0  0  0  0  0  0  0
    0.9311   -5.8554    2.0267 O   0  0  0  0  0  0  0  0  0  0  0  0
    1.3695   -6.2875    0.7408 C   0  0  0  0  0  0  0  0  0  0  0  0
    5.2372   -6.0009    1.2251 C   0  0  0  0  0  0  0  0  0  0  0  0
    5.2998   -4.1968   -1.2297 C   0  0  0  0  0  0  0  0  0  0  0  0
    3.1376   -0.0456   -5.2426 H   0  0  0  0  0  0  0  0  0  0  0  0
    3.8310    1.0856   -4.0638 H   0  0  0  0  0  0  0  0  0  0  0  0
    2.1982    0.4710   -3.8591 H   0  0  0  0  0  0  0  0  0  0  0  0
    3.7140   -4.2033   -3.5400 H   0  0  0  0  0  0  0  0  0  0  0  0
    6.3698   -0.5388   -0.4518 H   0  0  0  0  0  0  0  0  0  0  0  0
    5.0437   -1.1927    0.4671 H   0  0  0  0  0  0  0  0  0  0  0  0
    7.4258   -2.7712   -0.5837 H   0  0  0  0  0  0  0  0  0  0  0  0
    7.0664   -2.4552    1.0986 H   0  0  0  0  0  0  0  0  0  0  0  0
    8.8089   -6.1505    2.4456 H   0  0  0  0  0  0  0  0  0  0  0  0
    5.0188   -8.9420    2.6866 H   0  0  0  0  0  0  0  0  0  0  0  0
    2.8282   -5.3960   -0.5671 H   0  0  0  0  0  0  0  0  0  0  0  0
    3.3878   -3.6930    1.4819 H   0  0  0  0  0  0  0  0  0  0  0  0
    1.8728   -3.6065    0.6116 H   0  0  0  0  0  0  0  0  0  0  0  0
    2.3551   -5.0212    3.2414 H   0  0  0  0  0  0  0  0  0  0  0  0
    1.0281   -3.9332    2.8499 H   0  0  0  0  0  0  0  0  0  0  0  0
    0.6571   -5.9524   -0.0115 H   0  0  0  0  0  0  0  0  0  0  0  0
    1.3938   -7.3801    0.6585 H   0  0  0  0  0  0  0  0  0  0  0  0
    4.6776   -5.0917   -1.2622 H   0  0  0  0  0  0  0  0  0  0  0  0
    6.1743   -4.4108   -1.8274 H   0  0  0  0  0  0  0  0  0  0  0  0
    2.8577   -8.0833    1.6930 H   0  0  0  0  0  0  0  0  0  0  0  0
  1  2  1  0
  1 26  1  0
  1 27  1  0
  1 28  1  0
  2  7  2  0
  2  3  1  0
  3  4  2  0
  4  5  1  0
  4 29  1  0
  5 25  1  0
  5  6  2  0
  6  7  1  0
  6  8  1  0
  8  9  1  0
  8 30  1  0
  8 31  1  0
  9 10  1  0
  9 32  1  0
  9 33  1  0
 10 11  1  0
 10 25  1  0
 11 24  1  0
 11 12  2  0
 12 13  1  0
 13 14  2  0
 13 34  1  0
 14 15  1  0
 15 24  1  0
 15 16  1  0
 16 17  2  0
 16 35  1  0
 17 18  1  0
 17 45  1  0
 18 19  1  0
 18 24  2  0
 19 23  1  0
 19 20  1  0
 19 36  1  6
 20 21  1  0
 20 37  1  0
 20 38  1  0
 21 22  1  0
 21 39  1  0
 21 40  1  0
 22 23  1  0
 23 41  1  0
 23 42  1  0
 25 43  1  0
 25 44  1  0
M  CHG  1  17   1
M  END
>  <i_m_ct_stereo_status>  (212) 
1

>  <s_m_source_file>  (212) 
/var/tmp/pbs.5102103.sched01/tmpup5_gzpn/66d1evxq16.sdf

>  <i_m_source_file_index>  (212) 
11

>  <i_lp_mmshare_version>  (212) 
48012

>  <i_f3d_flags>  (212) 
0

>  <s_epik_input>  (212) 
W2NIXTFuYyhbQ0gzXSluYyhjMTIpW0NIMl1bQ0gyXU4oW0NIMl0yKWMobltjSF1uMyljKG4zNCljKG5bY0hdNClbQ0BASF01W0NIMl1bQ0gyXU9bQ0gyXTU=

>  <s_epik_cmdline>  (212) 
J2VwaWtfcHl0aG9uJywgJy1waHQnLCAnMi4wJywgJy1waCcsICc3LjAnLCAnLXRuJywgJzgnLCAnLW1hJywgJzIwMCcsICctaW1hZScsICc8aW5maWxlLm1hZT4nLCAnLW9tYWUnLCAnPG91dGZpbGUubWFlPic=

>  <r_lp_tautomer_probability>  (212) 
1

>  <r_epik_Ionization_Penalty>  (212) 
2.47638

>  <r_epik_Ionization_Penalty_Charging>  (212) 
2.47603

>  <r_epik_Ionization_Penalty_Neutral>  (212) 
0.000356836

>  <r_epik_State_Penalty>  (212) 
2.63929

>  <r_epik_Charging_Adjusted_Penalty>  (212) 
5.11532

>  <i_epik_Tot_Q>  (212) 
1

>  <i_epik_Tot_abs_Q>  (212) 
1

>  <s_epik_Chemistry_Notes>  (212) 
This compound contains an electron-poor aromatic ring that is susceptible to covalent hydrolysis at low pH, typically resulting in measured values for nitrogen ring protonation that are around two units higher than predicted values.

>  <s_lp_Force_Field>  (212) 
OPLS3e

>  <r_lp_Energy>  (212) 
40.9763

>  <b_lp_Chiralities_Consistent>  (212) 
1

>  <s_lp_Variant>  (212) 
45:0-2

>  <s_i_glide_gridfile>  (212) 
pfpi4k_grid

>  <i_i_glide_lignum>  (212) 
11

>  <i_i_glide_rotatable_bonds>  (212) 
2

>  <r_i_docking_score>  (212) 
-4.04393

>  <r_i_glide_ligand_efficiency>  (212) 
-0.161757

>  <r_i_glide_ligand_efficiency_sa>  (212) 
-0.472981

>  <r_i_glide_ligand_efficiency_ln>  (212) 
-0.958532

>  <r_i_glide_gscore>  (212) 
-4.04393

>  <r_i_glide_lipo>  (212) 
-0.432414

>  <r_i_glide_hbond>  (212) 
-0.126378

>  <r_i_glide_metal>  (212) 
-0

>  <r_i_glide_rewards>  (212) 
-1.50563

>  <r_i_glide_evdw>  (212) 
-28.6896

>  <r_i_glide_ecoul>  (212) 
-5.79164

>  <r_i_glide_erotb>  (212) 
0.330312

>  <r_i_glide_esite>  (212) 
-0.00659145

>  <r_i_glide_emodel>  (212) 
-44.0262

>  <r_i_glide_energy>  (212) 
-34.4813

>  <r_i_glide_einternal>  (212) 
2.57526

>  <r_i_glide_intrahb_reward>  (212) 
-0

>  <i_i_glide_confnum>  (212) 
5

>  <i_i_glide_posenum>  (212) 
35

>  <r_i_glide_eff_state_penalty>  (212) 
0

>  <ligand_id>  (212) 
45

>  <original_smiles>  (212) 
Cc1ncc2c(n1)CCN(c1ncnn3cnc(C4CCOC4)c13)C2

>  <smiles>  (212) 
[H]c1nc(N2C([H])([H])c3c([H])nc(C([H])([H])[H])nc3C([H])([H])C2([H])[H])c2c(C3([H])C([H])([H])OC([H])([H])C3([H])[H])[n+]([H])c([H])n2n1

$$$$
46:0:0
     RDKit          3D

 73 78  0  0  1  0  0  0  0  0999 V2000
    4.6146   -8.1869    0.6030 C   0  0  0  0  0  0  0  0  0  0  0  0
    5.1081   -7.4651    1.8725 C   0  0  2  0  0  0  0  0  0  0  0  0
    3.9477   -6.6994    2.5437 C   0  0  0  0  0  0  0  0  0  0  0  0
    3.4873   -5.4854    1.7309 C   0  0  1  0  0  0  0  0  0  0  0  0
    2.4131   -4.9299    2.4587 O   0  0  0  0  0  0  0  0  0  0  0  0
    4.6433   -4.4694    1.4835 C   0  0  1  0  0  0  0  0  0  0  0  0
    5.8620   -5.2090    0.8392 C   0  0  1  0  0  0  0  0  0  0  0  0
    7.0634   -4.2681    0.5884 C   0  0  0  0  0  0  0  0  0  0  0  0
    6.6608   -3.0356   -0.2380 C   0  0  0  0  0  0  0  0  0  0  0  0
    5.4696   -2.2899    0.3978 C   0  0  2  0  0  0  0  0  0  0  0  0
    5.9049   -1.5267    1.6791 C   0  0  0  0  0  0  0  0  0  0  0  0
    4.7636   -0.7121    2.2839 C   0  0  0  0  0  0  0  0  0  0  0  0
    3.5232   -1.5904    2.5260 C   0  0  1  0  0  0  0  0  0  0  0  0
    2.4160   -0.7901    3.0523 N   0  0  0  0  0  0  0  0  0  0  0  0
    1.8203    0.2390    2.4210 C   0  0  0  0  0  0  0  0  0  0  0  0
    2.1527    0.6250    1.3010 O   0  0  0  0  0  0  0  0  0  0  0  0
    0.6702    0.8758    3.1230 C   0  0  0  0  0  0  0  0  0  0  0  0
   -0.3482    1.4776    2.3608 C   0  0  0  0  0  0  0  0  0  0  0  0
   -1.4092    2.1500    2.9865 C   0  0  0  0  0  0  0  0  0  0  0  0
   -1.4571    2.2236    4.3926 C   0  0  0  0  0  0  0  0  0  0  0  0
   -2.5174    2.9018    5.0305 C   0  0  0  0  0  0  0  0  0  0  0  0
   -2.5666    2.9555    6.4392 C   0  0  0  0  0  0  0  0  0  0  0  0
   -1.5581    2.3533    7.2083 C   0  0  0  0  0  0  0  0  0  0  0  0
   -0.4873    1.6881    6.5762 C   0  0  0  0  0  0  0  0  0  0  0  0
   -0.4361    1.6180    5.1702 C   0  0  0  0  0  0  0  0  0  0  0  0
    0.6277    0.9537    4.5379 C   0  0  0  0  0  0  0  0  0  0  0  0
    3.1148   -2.3510    1.2413 C   0  0  0  0  0  0  0  0  0  0  0  0
    4.2347   -3.2216    0.6151 C   0  0  2  0  0  0  0  0  0  0  0  0
    3.6984   -3.6760   -0.7654 C   0  0  0  0  0  0  0  0  0  0  0  0
    6.2807   -6.5118    1.5660 C   0  0  1  0  0  0  0  0  0  0  0  0
    7.0237   -6.3442    2.8977 C   0  0  0  0  0  0  0  0  0  0  0  0
    6.8130   -7.6666    3.6478 C   0  0  0  0  0  0  0  0  0  0  0  0
    5.7605   -8.4628    2.8524 C   0  0  1  0  0  0  0  0  0  0  0  0
    4.8315   -9.1072    3.7070 O   0  0  0  0  0  0  0  0  0  0  0  0
    3.7905   -8.8655    0.8225 H   0  0  0  0  0  0  0  0  0  0  0  0
    5.4030   -8.7765    0.1393 H   0  0  0  0  0  0  0  0  0  0  0  0
    4.2575   -7.4952   -0.1607 H   0  0  0  0  0  0  0  0  0  0  0  0
    3.0979   -7.3750    2.6779 H   0  0  0  0  0  0  0  0  0  0  0  0
    4.2438   -6.3747    3.5447 H   0  0  0  0  0  0  0  0  0  0  0  0
    3.0864   -5.8480    0.7881 H   0  0  0  0  0  0  0  0  0  0  0  0
    2.7453   -4.5503    3.2584 H   0  0  0  0  0  0  0  0  0  0  0  0
    4.9714   -4.1204    2.4649 H   0  0  0  0  0  0  0  0  0  0  0  0
    5.5498   -5.5560   -0.1427 H   0  0  0  0  0  0  0  0  0  0  0  0
    7.5113   -3.9458    1.5294 H   0  0  0  0  0  0  0  0  0  0  0  0
    7.8514   -4.8077    0.0584 H   0  0  0  0  0  0  0  0  0  0  0  0
    7.5162   -2.3661   -0.3568 H   0  0  0  0  0  0  0  0  0  0  0  0
    6.4049   -3.3444   -1.2523 H   0  0  0  0  0  0  0  0  0  0  0  0
    5.1765   -1.5135   -0.3114 H   0  0  0  0  0  0  0  0  0  0  0  0
    6.2945   -2.2126    2.4344 H   0  0  0  0  0  0  0  0  0  0  0  0
    6.7226   -0.8378    1.4380 H   0  0  0  0  0  0  0  0  0  0  0  0
    5.0867   -0.2342    3.2102 H   0  0  0  0  0  0  0  0  0  0  0  0
    4.5414    0.0919    1.5813 H   0  0  0  0  0  0  0  0  0  0  0  0
    3.7647   -2.3147    3.3008 H   0  0  0  0  0  0  0  0  0  0  0  0
    2.0556   -1.0338    3.9658 H   0  0  0  0  0  0  0  0  0  0  0  0
   -0.3044    1.4481    1.2848 H   0  0  0  0  0  0  0  0  0  0  0  0
   -2.1738    2.6102    2.3812 H   0  0  0  0  0  0  0  0  0  0  0  0
   -3.2968    3.3469    4.4352 H   0  0  0  0  0  0  0  0  0  0  0  0
   -3.3787    3.4586    6.9284 H   0  0  0  0  0  0  0  0  0  0  0  0
   -1.5968    2.4055    8.2850 H   0  0  0  0  0  0  0  0  0  0  0  0
    0.2932    1.2366    7.1720 H   0  0  0  0  0  0  0  0  0  0  0  0
    1.4149    0.5261    5.1309 H   0  0  0  0  0  0  0  0  0  0  0  0
    2.2129   -2.9337    1.4203 H   0  0  0  0  0  0  0  0  0  0  0  0
    2.8416   -1.6103    0.4865 H   0  0  0  0  0  0  0  0  0  0  0  0
    3.4921   -2.8253   -1.4145 H   0  0  0  0  0  0  0  0  0  0  0  0
    2.7569   -4.2146   -0.6823 H   0  0  0  0  0  0  0  0  0  0  0  0
    4.3795   -4.3307   -1.3058 H   0  0  0  0  0  0  0  0  0  0  0  0
    6.9778   -7.0392    0.9069 H   0  0  0  0  0  0  0  0  0  0  0  0
    8.0826   -6.1237    2.7482 H   0  0  0  0  0  0  0  0  0  0  0  0
    6.5968   -5.5227    3.4752 H   0  0  0  0  0  0  0  0  0  0  0  0
    7.7385   -8.2409    3.7022 H   0  0  0  0  0  0  0  0  0  0  0  0
    6.4850   -7.4655    4.6696 H   0  0  0  0  0  0  0  0  0  0  0  0
    6.2771   -9.2428    2.2853 H   0  0  0  0  0  0  0  0  0  0  0  0
    4.2383   -9.6207    3.1777 H   0  0  0  0  0  0  0  0  0  0  0  0
  2  1  1  6
  1 35  1  0
  1 36  1  0
  1 37  1  0
  2 30  1  0
  2 33  1  0
  2  3  1  0
  3  4  1  0
  3 38  1  0
  3 39  1  0
  4  5  1  0
  4  6  1  0
  4 40  1  6
  5 41  1  0
  6 28  1  0
  6  7  1  0
  6 42  1  1
  7  8  1  0
  7 30  1  0
  7 43  1  6
  8  9  1  0
  8 44  1  0
  8 45  1  0
  9 10  1  0
  9 46  1  0
  9 47  1  0
 10 28  1  0
 10 11  1  0
 10 48  1  6
 11 12  1  0
 11 49  1  0
 11 50  1  0
 12 13  1  0
 12 51  1  0
 12 52  1  0
 13 14  1  0
 13 27  1  0
 13 53  1  1
 14 15  1  0
 14 54  1  0
 15 16  2  0
 15 17  1  0
 17 26  1  0
 17 18  2  0
 18 19  1  0
 18 55  1  0
 19 20  2  0
 19 56  1  0
 20 25  1  0
 20 21  1  0
 21 22  2  0
 21 57  1  0
 22 23  1  0
 22 58  1  0
 23 24  2  0
 23 59  1  0
 24 25  1  0
 24 60  1  0
 25 26  2  0
 26 61  1  0
 27 28  1  0
 27 62  1  0
 27 63  1  0
 28 29  1  6
 29 64  1  0
 29 65  1  0
 29 66  1  0
 30 31  1  0
 30 67  1  6
 31 32  1  0
 31 68  1  0
 31 69  1  0
 32 33  1  0
 32 70  1  0
 32 71  1  0
 33 34  1  0
 33 72  1  6
 34 73  1  0
M  END
>  <i_m_ct_stereo_status>  (213) 
1

>  <s_m_source_file>  (213) 
/var/tmp/pbs.5102103.sched01/tmpup5_gzpn/66d1evxq16.sdf

>  <i_m_source_file_index>  (213) 
12

>  <i_lp_mmshare_version>  (213) 
48012

>  <i_f3d_flags>  (213) 
0

>  <s_epik_input>  (213) 
W09IXVtDQEBIXTFbQ0gyXVtDSDJdW0NAQEhdKFtDQEBdMTJbQ0gzXSlbQ0BIXTNbQ0BIXShbQ0BASF0oW0NIMl0yKVtPSF0pW0NAXTQoW0NIM10pW0NASF0oW0NIMl1bQ0gyXTMpW0NIMl1bQ0gyXVtDQEhdKFtDSDJdNClbTkhdQyg9TyljKFtjSF1bY0hdNSlbY0hdYyhjNTYpW2NIXVtjSF1bY0hdW2NIXTY=

>  <s_epik_cmdline>  (213) 
J2VwaWtfcHl0aG9uJywgJy1waHQnLCAnMi4wJywgJy1waCcsICc3LjAnLCAnLXRuJywgJzgnLCAnLW1hJywgJzIwMCcsICctaW1hZScsICc8aW5maWxlLm1hZT4nLCAnLW9tYWUnLCAnPG91dGZpbGUubWFlPic=

>  <r_lp_tautomer_probability>  (213) 
1

>  <r_epik_Ionization_Penalty>  (213) 
3.17796e-06

>  <r_epik_Ionization_Penalty_Charging>  (213) 
0

>  <r_epik_Ionization_Penalty_Neutral>  (213) 
3.17796e-06

>  <r_epik_State_Penalty>  (213) 
-0

>  <r_epik_Charging_Adjusted_Penalty>  (213) 
0

>  <i_epik_Tot_Q>  (213) 
0

>  <i_epik_Tot_abs_Q>  (213) 
0

>  <s_lp_Force_Field>  (213) 
OPLS3e

>  <r_lp_Energy>  (213) 
72.2016

>  <b_lp_Chiralities_Consistent>  (213) 
1

>  <s_lp_Variant>  (213) 
46:0-1

>  <s_i_glide_gridfile>  (213) 
pfpi4k_grid

>  <i_i_glide_lignum>  (213) 
12

>  <i_i_glide_rotatable_bonds>  (213) 
5

>  <r_i_docking_score>  (213) 
-2.77198

>  <r_i_glide_ligand_efficiency>  (213) 
-0.0815288

>  <r_i_glide_ligand_efficiency_sa>  (213) 
-0.264122

>  <r_i_glide_ligand_efficiency_ln>  (213) 
-0.612408

>  <r_i_glide_gscore>  (213) 
-2.77198

>  <r_i_glide_lipo>  (213) 
-0.961513

>  <r_i_glide_hbond>  (213) 
0

>  <r_i_glide_metal>  (213) 
-0

>  <r_i_glide_rewards>  (213) 
-0.261576

>  <r_i_glide_evdw>  (213) 
-36.548

>  <r_i_glide_ecoul>  (213) 
0.177656

>  <r_i_glide_erotb>  (213) 
0.283487

>  <r_i_glide_esite>  (213) 
-0.0316274

>  <r_i_glide_emodel>  (213) 
-42.0413

>  <r_i_glide_energy>  (213) 
-36.3703

>  <r_i_glide_einternal>  (213) 
2.1053

>  <r_i_glide_intrahb_reward>  (213) 
-0

>  <i_i_glide_confnum>  (213) 
2

>  <i_i_glide_posenum>  (213) 
11

>  <r_i_glide_eff_state_penalty>  (213) 
0

>  <ligand_id>  (213) 
46

>  <original_smiles>  (213) 
CC12CC(O)C3C(CCC4CCC(NC(=O)c5ccc6ccccc6c5)CC43C)C1CCC2O

>  <smiles>  (213) 
[H]OC1([H])C([H])([H])C2(C([H])([H])[H])C([H])(O[H])C([H])([H])C([H])([H])C2([H])C2([H])C([H])([H])C([H])([H])C3([H])C([H])([H])C([H])([H])C([H])(N([H])C(=O)c4c([H])c([H])c5c([H])c([H])c([H])c([H])c5c4[H])C([H])([H])C3(C([H])([H])[H])C12[H]

$$$$
46:0:1
     RDKit          3D

 73 78  0  0  1  0  0  0  0  0999 V2000
    6.2014   -2.2615   -0.5878 C   0  0  0  0  0  0  0  0  0  0  0  0
    4.6669   -2.2018   -0.7339 C   0  0  2  0  0  0  0  0  0  0  0  0
    4.0782   -1.0829    0.1568 C   0  0  0  0  0  0  0  0  0  0  0  0
    4.1782   -1.3981    1.6498 C   0  0  1  0  0  0  0  0  0  0  0  0
    3.6409   -0.2742    2.3112 O   0  0  0  0  0  0  0  0  0  0  0  0
    3.4621   -2.7277    2.0307 C   0  0  1  0  0  0  0  0  0  0  0  0
    3.9937   -3.8843    1.1213 C   0  0  1  0  0  0  0  0  0  0  0  0
    3.3105   -5.2399    1.4159 C   0  0  0  0  0  0  0  0  0  0  0  0
    3.3984   -5.6101    2.9065 C   0  0  0  0  0  0  0  0  0  0  0  0
    2.8663   -4.4830    3.8175 C   0  0  2  0  0  0  0  0  0  0  0  0
    1.3211   -4.3916    3.7547 C   0  0  0  0  0  0  0  0  0  0  0  0
    0.7614   -3.3129    4.6884 C   0  0  0  0  0  0  0  0  0  0  0  0
    1.4076   -1.9452    4.3958 C   0  0  1  0  0  0  0  0  0  0  0  0
    0.9229   -0.9216    5.3229 N   0  0  0  0  0  0  0  0  0  0  0  0
   -0.3476   -0.5086    5.4740 C   0  0  0  0  0  0  0  0  0  0  0  0
   -1.2677   -0.8439    4.7285 O   0  0  0  0  0  0  0  0  0  0  0  0
   -0.5983    0.4009    6.6498 C   0  0  0  0  0  0  0  0  0  0  0  0
    0.2208    0.3486    7.8013 C   0  0  0  0  0  0  0  0  0  0  0  0
   -0.0487    1.1561    8.9067 C   0  0  0  0  0  0  0  0  0  0  0  0
   -1.1543    2.0284    8.8976 C   0  0  0  0  0  0  0  0  0  0  0  0
   -1.4405    2.8379   10.0170 C   0  0  0  0  0  0  0  0  0  0  0  0
   -2.5486    3.6931   10.0030 C   0  0  0  0  0  0  0  0  0  0  0  0
   -3.3849    3.7416    8.8776 C   0  0  0  0  0  0  0  0  0  0  0  0
   -3.1157    2.9422    7.7571 C   0  0  0  0  0  0  0  0  0  0  0  0
   -1.9992    2.0755    7.7511 C   0  0  0  0  0  0  0  0  0  0  0  0
   -1.7170    1.2571    6.6419 C   0  0  0  0  0  0  0  0  0  0  0  0
    2.9405   -2.0787    4.5232 C   0  0  0  0  0  0  0  0  0  0  0  0
    3.5778   -3.1159    3.5566 C   0  0  2  0  0  0  0  0  0  0  0  0
    5.0590   -3.2481    3.9737 C   0  0  0  0  0  0  0  0  0  0  0  0
    4.0157   -3.5556   -0.3920 C   0  0  1  0  0  0  0  0  0  0  0  0
    2.6548   -3.5246   -1.0958 C   0  0  0  0  0  0  0  0  0  0  0  0
    2.8790   -2.6942   -2.3670 C   0  0  0  0  0  0  0  0  0  0  0  0
    4.2554   -2.0196   -2.2143 C   0  0  1  0  0  0  0  0  0  0  0  0
    4.2202   -0.6687   -2.6344 O   0  0  0  0  0  0  0  0  0  0  0  0
    6.6263   -1.2911   -0.8271 H   0  0  0  0  0  0  0  0  0  0  0  0
    6.6552   -3.0068   -1.2462 H   0  0  0  0  0  0  0  0  0  0  0  0
    6.5303   -2.5041    0.4224 H   0  0  0  0  0  0  0  0  0  0  0  0
    4.6026   -0.1440   -0.0413 H   0  0  0  0  0  0  0  0  0  0  0  0
    3.0277   -0.9134   -0.1000 H   0  0  0  0  0  0  0  0  0  0  0  0
    5.2336   -1.4450    1.9019 H   0  0  0  0  0  0  0  0  0  0  0  0
    2.7305   -0.1519    2.0312 H   0  0  0  0  0  0  0  0  0  0  0  0
    2.4049   -2.5955    1.7777 H   0  0  0  0  0  0  0  0  0  0  0  0
    5.0465   -4.0344    1.3523 H   0  0  0  0  0  0  0  0  0  0  0  0
    2.2661   -5.2268    1.1038 H   0  0  0  0  0  0  0  0  0  0  0  0
    3.7868   -6.0302    0.8295 H   0  0  0  0  0  0  0  0  0  0  0  0
    2.8631   -6.5445    3.0972 H   0  0  0  0  0  0  0  0  0  0  0  0
    4.4334   -5.8324    3.1652 H   0  0  0  0  0  0  0  0  0  0  0  0
    3.0839   -4.7858    4.8414 H   0  0  0  0  0  0  0  0  0  0  0  0
    1.0016   -4.1805    2.7358 H   0  0  0  0  0  0  0  0  0  0  0  0
    0.8774   -5.3571    4.0167 H   0  0  0  0  0  0  0  0  0  0  0  0
   -0.3196   -3.2824    4.5716 H   0  0  0  0  0  0  0  0  0  0  0  0
    0.9502   -3.6025    5.7226 H   0  0  0  0  0  0  0  0  0  0  0  0
    1.1423   -1.6248    3.3885 H   0  0  0  0  0  0  0  0  0  0  0  0
    1.6076   -0.5326    5.9601 H   0  0  0  0  0  0  0  0  0  0  0  0
    1.0738   -0.3197    7.8520 H   0  0  0  0  0  0  0  0  0  0  0  0
    0.5887    1.1136    9.7791 H   0  0  0  0  0  0  0  0  0  0  0  0
   -0.8023    2.7938   10.8891 H   0  0  0  0  0  0  0  0  0  0  0  0
   -2.7603    4.3081   10.8702 H   0  0  0  0  0  0  0  0  0  0  0  0
   -4.2505    4.4000    8.8809 H   0  0  0  0  0  0  0  0  0  0  0  0
   -3.7715    2.9595    6.8956 H   0  0  0  0  0  0  0  0  0  0  0  0
   -2.3654    1.2848    5.7775 H   0  0  0  0  0  0  0  0  0  0  0  0
    3.4132   -1.1004    4.4088 H   0  0  0  0  0  0  0  0  0  0  0  0
    3.1512   -2.3940    5.5495 H   0  0  0  0  0  0  0  0  0  0  0  0
    5.1630   -3.6089    4.9983 H   0  0  0  0  0  0  0  0  0  0  0  0
    5.5761   -2.2917    3.9401 H   0  0  0  0  0  0  0  0  0  0  0  0
    5.6313   -3.9270    3.3437 H   0  0  0  0  0  0  0  0  0  0  0  0
    4.5960   -4.3411   -0.8863 H   0  0  0  0  0  0  0  0  0  0  0  0
    2.2838   -4.5264   -1.3045 H   0  0  0  0  0  0  0  0  0  0  0  0
    1.9025   -3.0503   -0.4660 H   0  0  0  0  0  0  0  0  0  0  0  0
    2.8643   -3.3134   -3.2635 H   0  0  0  0  0  0  0  0  0  0  0  0
    2.0764   -1.9631   -2.4602 H   0  0  0  0  0  0  0  0  0  0  0  0
    4.9697   -2.5436   -2.8561 H   0  0  0  0  0  0  0  0  0  0  0  0
    3.5033   -0.2430   -2.1697 H   0  0  0  0  0  0  0  0  0  0  0  0
  2  1  1  6
  1 35  1  0
  1 36  1  0
  1 37  1  0
  2 30  1  0
  2 33  1  0
  2  3  1  0
  3  4  1  0
  3 38  1  0
  3 39  1  0
  4  5  1  0
  4  6  1  0
  4 40  1  1
  5 41  1  0
  6 28  1  0
  6  7  1  0
  6 42  1  6
  7  8  1  0
  7 30  1  0
  7 43  1  1
  8  9  1  0
  8 44  1  0
  8 45  1  0
  9 10  1  0
  9 46  1  0
  9 47  1  0
 10 28  1  0
 10 11  1  0
 10 48  1  1
 11 12  1  0
 11 49  1  0
 11 50  1  0
 12 13  1  0
 12 51  1  0
 12 52  1  0
 13 14  1  0
 13 27  1  0
 13 53  1  6
 14 15  1  0
 14 54  1  0
 15 16  2  0
 15 17  1  0
 17 26  1  0
 17 18  2  0
 18 19  1  0
 18 55  1  0
 19 20  2  0
 19 56  1  0
 20 25  1  0
 20 21  1  0
 21 22  2  0
 21 57  1  0
 22 23  1  0
 22 58  1  0
 23 24  2  0
 23 59  1  0
 24 25  1  0
 24 60  1  0
 25 26  2  0
 26 61  1  0
 27 28  1  0
 27 62  1  0
 27 63  1  0
 28 29  1  1
 29 64  1  0
 29 65  1  0
 29 66  1  0
 30 31  1  0
 30 67  1  6
 31 32  1  0
 31 68  1  0
 31 69  1  0
 32 33  1  0
 32 70  1  0
 32 71  1  0
 33 34  1  0
 33 72  1  6
 34 73  1  0
M  END
>  <i_m_ct_stereo_status>  (214) 
1

>  <s_m_source_file>  (214) 
/var/tmp/pbs.5102103.sched01/tmpup5_gzpn/66d1evxq16.sdf

>  <i_m_source_file_index>  (214) 
12

>  <i_lp_mmshare_version>  (214) 
48012

>  <i_f3d_flags>  (214) 
0

>  <s_epik_input>  (214) 
W09IXVtDQEBIXTFbQ0gyXVtDSDJdW0NAQEhdKFtDQEBdMTJbQ0gzXSlbQ0BIXTNbQ0BIXShbQ0BASF0oW0NIMl0yKVtPSF0pW0NAXTQoW0NIM10pW0NASF0oW0NIMl1bQ0gyXTMpW0NIMl1bQ0gyXVtDQEhdKFtDSDJdNClbTkhdQyg9TyljKFtjSF1bY0hdNSlbY0hdYyhjNTYpW2NIXVtjSF1bY0hdW2NIXTY=

>  <s_epik_cmdline>  (214) 
J2VwaWtfcHl0aG9uJywgJy1waHQnLCAnMi4wJywgJy1waCcsICc3LjAnLCAnLXRuJywgJzgnLCAnLW1hJywgJzIwMCcsICctaW1hZScsICc8aW5maWxlLm1hZT4nLCAnLW9tYWUnLCAnPG91dGZpbGUubWFlPic=

>  <r_lp_tautomer_probability>  (214) 
1

>  <r_epik_Ionization_Penalty>  (214) 
3.17796e-06

>  <r_epik_Ionization_Penalty_Charging>  (214) 
0

>  <r_epik_Ionization_Penalty_Neutral>  (214) 
3.17796e-06

>  <r_epik_State_Penalty>  (214) 
-0

>  <r_epik_Charging_Adjusted_Penalty>  (214) 
0

>  <i_epik_Tot_Q>  (214) 
0

>  <i_epik_Tot_abs_Q>  (214) 
0

>  <s_lp_Force_Field>  (214) 
OPLS3e

>  <r_lp_Energy>  (214) 
72.2016

>  <b_lp_Chiralities_Consistent>  (214) 
1

>  <s_lp_Variant>  (214) 
46:0-1

>  <s_i_glide_gridfile>  (214) 
pfpi4k_grid

>  <i_i_glide_lignum>  (214) 
12

>  <i_i_glide_rotatable_bonds>  (214) 
5

>  <r_i_docking_score>  (214) 
-2.4918

>  <r_i_glide_ligand_efficiency>  (214) 
-0.0732882

>  <r_i_glide_ligand_efficiency_sa>  (214) 
-0.237425

>  <r_i_glide_ligand_efficiency_ln>  (214) 
-0.550508

>  <r_i_glide_gscore>  (214) 
-2.4918

>  <r_i_glide_lipo>  (214) 
-0.289675

>  <r_i_glide_hbond>  (214) 
0

>  <r_i_glide_metal>  (214) 
-0

>  <r_i_glide_rewards>  (214) 
-0.261576

>  <r_i_glide_evdw>  (214) 
-36.4927

>  <r_i_glide_ecoul>  (214) 
-2.48599

>  <r_i_glide_erotb>  (214) 
0.283487

>  <r_i_glide_esite>  (214) 
-0.0265019

>  <r_i_glide_emodel>  (214) 
-44.1723

>  <r_i_glide_energy>  (214) 
-38.9787

>  <r_i_glide_einternal>  (214) 
1.60914

>  <r_i_glide_intrahb_reward>  (214) 
-0

>  <i_i_glide_confnum>  (214) 
3

>  <i_i_glide_posenum>  (214) 
28

>  <r_i_glide_eff_state_penalty>  (214) 
0

>  <ligand_id>  (214) 
46

>  <original_smiles>  (214) 
CC12CC(O)C3C(CCC4CCC(NC(=O)c5ccc6ccccc6c5)CC43C)C1CCC2O

>  <smiles>  (214) 
[H]OC1([H])C([H])([H])C2(C([H])([H])[H])C([H])(O[H])C([H])([H])C([H])([H])C2([H])C2([H])C([H])([H])C([H])([H])C3([H])C([H])([H])C([H])([H])C([H])(N([H])C(=O)c4c([H])c([H])c5c([H])c([H])c([H])c([H])c5c4[H])C([H])([H])C3(C([H])([H])[H])C12[H]

$$$$
46:0:2
     RDKit          3D

 73 78  0  0  1  0  0  0  0  0999 V2000
   -0.4715    4.8635    4.0513 C   0  0  0  0  0  0  0  0  0  0  0  0
    0.9158    4.2295    4.2827 C   0  0  2  0  0  0  0  0  0  0  0  0
    1.0264    2.8734    3.5506 C   0  0  0  0  0  0  0  0  0  0  0  0
    0.1710    1.7836    4.1739 C   0  0  1  0  0  0  0  0  0  0  0  0
    0.3918    0.6544    3.3614 O   0  0  0  0  0  0  0  0  0  0  0  0
    0.5120    1.5550    5.6753 C   0  0  1  0  0  0  0  0  0  0  0  0
    0.4570    2.9159    6.4528 C   0  0  1  0  0  0  0  0  0  0  0  0
    0.8206    2.7642    7.9495 C   0  0  0  0  0  0  0  0  0  0  0  0
   -0.0372    1.6948    8.6374 C   0  0  0  0  0  0  0  0  0  0  0  0
    0.0328    0.3546    7.8874 C   0  0  2  0  0  0  0  0  0  0  0  0
    1.3969   -0.3547    8.0955 C   0  0  0  0  0  0  0  0  0  0  0  0
    1.4369   -1.7303    7.4259 C   0  0  0  0  0  0  0  0  0  0  0  0
    1.0426   -1.6421    5.9414 C   0  0  1  0  0  0  0  0  0  0  0  0
    1.0344   -2.9733    5.3358 N   0  0  0  0  0  0  0  0  0  0  0  0
    0.2182   -3.9913    5.6678 C   0  0  0  0  0  0  0  0  0  0  0  0
   -0.6651   -3.8996    6.5235 O   0  0  0  0  0  0  0  0  0  0  0  0
    0.3917   -5.2708    4.9064 C   0  0  0  0  0  0  0  0  0  0  0  0
   -0.5861   -6.2804    5.0439 C   0  0  0  0  0  0  0  0  0  0  0  0
   -0.4574   -7.5038    4.3770 C   0  0  0  0  0  0  0  0  0  0  0  0
    0.6628   -7.7343    3.5560 C   0  0  0  0  0  0  0  0  0  0  0  0
    0.8066   -8.9657    2.8886 C   0  0  0  0  0  0  0  0  0  0  0  0
    1.9344   -9.1929    2.0784 C   0  0  0  0  0  0  0  0  0  0  0  0
    2.9128   -8.1928    1.9254 C   0  0  0  0  0  0  0  0  0  0  0  0
    2.7743   -6.9606    2.5892 C   0  0  0  0  0  0  0  0  0  0  0  0
    1.6528   -6.7268    3.4087 C   0  0  0  0  0  0  0  0  0  0  0  0
    1.5182   -5.5034    4.0826 C   0  0  0  0  0  0  0  0  0  0  0  0
   -0.3238   -0.9349    5.7667 C   0  0  0  0  0  0  0  0  0  0  0  0
   -0.3959    0.4868    6.3880 C   0  0  2  0  0  0  0  0  0  0  0  0
   -1.8825    0.9065    6.3076 C   0  0  0  0  0  0  0  0  0  0  0  0
    1.2325    4.0693    5.7814 C   0  0  1  0  0  0  0  0  0  0  0  0
    2.7623    4.0102    5.8754 C   0  0  0  0  0  0  0  0  0  0  0  0
    3.2635    4.8733    4.7145 C   0  0  0  0  0  0  0  0  0  0  0  0
    2.0350    5.1894    3.8433 C   0  0  1  0  0  0  0  0  0  0  0  0
    2.3467    5.0414    2.4721 O   0  0  0  0  0  0  0  0  0  0  0  0
   -0.6675    4.9907    2.9859 H   0  0  0  0  0  0  0  0  0  0  0  0
   -0.5440    5.8438    4.5222 H   0  0  0  0  0  0  0  0  0  0  0  0
   -1.2814    4.2575    4.4554 H   0  0  0  0  0  0  0  0  0  0  0  0
    0.7256    2.9864    2.5058 H   0  0  0  0  0  0  0  0  0  0  0  0
    2.0634    2.5354    3.5308 H   0  0  0  0  0  0  0  0  0  0  0  0
   -0.8659    2.0729    4.0570 H   0  0  0  0  0  0  0  0  0  0  0  0
    0.1359    0.8848    2.4704 H   0  0  0  0  0  0  0  0  0  0  0  0
    1.5513    1.2205    5.7042 H   0  0  0  0  0  0  0  0  0  0  0  0
   -0.5668    3.2828    6.4349 H   0  0  0  0  0  0  0  0  0  0  0  0
    1.8750    2.5105    8.0655 H   0  0  0  0  0  0  0  0  0  0  0  0
    0.6745    3.7160    8.4670 H   0  0  0  0  0  0  0  0  0  0  0  0
    0.2712    1.5645    9.6763 H   0  0  0  0  0  0  0  0  0  0  0  0
   -1.0723    2.0334    8.6967 H   0  0  0  0  0  0  0  0  0  0  0  0
   -0.6831   -0.2914    8.3815 H   0  0  0  0  0  0  0  0  0  0  0  0
    2.2209    0.2540    7.7230 H   0  0  0  0  0  0  0  0  0  0  0  0
    1.5744   -0.4953    9.1658 H   0  0  0  0  0  0  0  0  0  0  0  0
    2.4256   -2.1803    7.5364 H   0  0  0  0  0  0  0  0  0  0  0  0
    0.7461   -2.3793    7.9651 H   0  0  0  0  0  0  0  0  0  0  0  0
    1.8104   -1.0732    5.4170 H   0  0  0  0  0  0  0  0  0  0  0  0
    1.7113   -3.1413    4.6029 H   0  0  0  0  0  0  0  0  0  0  0  0
   -1.4467   -6.1151    5.6760 H   0  0  0  0  0  0  0  0  0  0  0  0
   -1.2139   -8.2665    4.5049 H   0  0  0  0  0  0  0  0  0  0  0  0
    0.0578   -9.7346    3.0042 H   0  0  0  0  0  0  0  0  0  0  0  0
    2.0449  -10.1374    1.5711 H   0  0  0  0  0  0  0  0  0  0  0  0
    3.7765   -8.3738    1.2983 H   0  0  0  0  0  0  0  0  0  0  0  0
    3.5313   -6.1984    2.4755 H   0  0  0  0  0  0  0  0  0  0  0  0
    2.2895   -4.7581    3.9662 H   0  0  0  0  0  0  0  0  0  0  0  0
   -0.6193   -0.9491    4.7145 H   0  0  0  0  0  0  0  0  0  0  0  0
   -1.0832   -1.5245    6.2783 H   0  0  0  0  0  0  0  0  0  0  0  0
   -2.5206    0.2269    6.8619 H   0  0  0  0  0  0  0  0  0  0  0  0
   -2.2368    0.8814    5.2797 H   0  0  0  0  0  0  0  0  0  0  0  0
   -2.0926    1.9002    6.6953 H   0  0  0  0  0  0  0  0  0  0  0  0
    0.9384    4.9956    6.2845 H   0  0  0  0  0  0  0  0  0  0  0  0
    3.1225    4.3704    6.8403 H   0  0  0  0  0  0  0  0  0  0  0  0
    3.1157    2.9849    5.7521 H   0  0  0  0  0  0  0  0  0  0  0  0
    3.7163    5.7983    5.0690 H   0  0  0  0  0  0  0  0  0  0  0  0
    4.0240    4.3252    4.1574 H   0  0  0  0  0  0  0  0  0  0  0  0
    1.7310    6.2257    4.0167 H   0  0  0  0  0  0  0  0  0  0  0  0
    1.5382    4.9445    1.9805 H   0  0  0  0  0  0  0  0  0  0  0  0
  2  1  1  1
  1 35  1  0
  1 36  1  0
  1 37  1  0
  2 30  1  0
  2 33  1  0
  2  3  1  0
  3  4  1  0
  3 38  1  0
  3 39  1  0
  4  5  1  0
  4  6  1  0
  4 40  1  1
  5 41  1  0
  6 28  1  0
  6  7  1  0
  6 42  1  6
  7  8  1  0
  7 30  1  0
  7 43  1  1
  8  9  1  0
  8 44  1  0
  8 45  1  0
  9 10  1  0
  9 46  1  0
  9 47  1  0
 10 28  1  0
 10 11  1  0
 10 48  1  1
 11 12  1  0
 11 49  1  0
 11 50  1  0
 12 13  1  0
 12 51  1  0
 12 52  1  0
 13 14  1  0
 13 27  1  0
 13 53  1  6
 14 15  1  0
 14 54  1  0
 15 16  2  0
 15 17  1  0
 17 26  1  0
 17 18  2  0
 18 19  1  0
 18 55  1  0
 19 20  2  0
 19 56  1  0
 20 25  1  0
 20 21  1  0
 21 22  2  0
 21 57  1  0
 22 23  1  0
 22 58  1  0
 23 24  2  0
 23 59  1  0
 24 25  1  0
 24 60  1  0
 25 26  2  0
 26 61  1  0
 27 28  1  0
 27 62  1  0
 27 63  1  0
 28 29  1  1
 29 64  1  0
 29 65  1  0
 29 66  1  0
 30 31  1  0
 30 67  1  1
 31 32  1  0
 31 68  1  0
 31 69  1  0
 32 33  1  0
 32 70  1  0
 32 71  1  0
 33 34  1  0
 33 72  1  6
 34 73  1  0
M  END
>  <i_m_ct_stereo_status>  (215) 
1

>  <s_m_source_file>  (215) 
/var/tmp/pbs.5102103.sched01/tmpup5_gzpn/66d1evxq16.sdf

>  <i_m_source_file_index>  (215) 
12

>  <i_lp_mmshare_version>  (215) 
48012

>  <i_f3d_flags>  (215) 
0

>  <s_epik_input>  (215) 
W09IXVtDQEBIXTFbQ0gyXVtDSDJdW0NAQEhdKFtDQEBdMTJbQ0gzXSlbQ0BIXTNbQ0BIXShbQ0BASF0oW0NIMl0yKVtPSF0pW0NAXTQoW0NIM10pW0NASF0oW0NIMl1bQ0gyXTMpW0NIMl1bQ0gyXVtDQEhdKFtDSDJdNClbTkhdQyg9TyljKFtjSF1bY0hdNSlbY0hdYyhjNTYpW2NIXVtjSF1bY0hdW2NIXTY=

>  <s_epik_cmdline>  (215) 
J2VwaWtfcHl0aG9uJywgJy1waHQnLCAnMi4wJywgJy1waCcsICc3LjAnLCAnLXRuJywgJzgnLCAnLW1hJywgJzIwMCcsICctaW1hZScsICc8aW5maWxlLm1hZT4nLCAnLW9tYWUnLCAnPG91dGZpbGUubWFlPic=

>  <r_lp_tautomer_probability>  (215) 
1

>  <r_epik_Ionization_Penalty>  (215) 
3.17796e-06

>  <r_epik_Ionization_Penalty_Charging>  (215) 
0

>  <r_epik_Ionization_Penalty_Neutral>  (215) 
3.17796e-06

>  <r_epik_State_Penalty>  (215) 
-0

>  <r_epik_Charging_Adjusted_Penalty>  (215) 
0

>  <i_epik_Tot_Q>  (215) 
0

>  <i_epik_Tot_abs_Q>  (215) 
0

>  <s_lp_Force_Field>  (215) 
OPLS3e

>  <r_lp_Energy>  (215) 
72.2016

>  <b_lp_Chiralities_Consistent>  (215) 
1

>  <s_lp_Variant>  (215) 
46:0-1

>  <s_i_glide_gridfile>  (215) 
pfpi4k_grid

>  <i_i_glide_lignum>  (215) 
12

>  <i_i_glide_rotatable_bonds>  (215) 
5

>  <r_i_docking_score>  (215) 
-2.03808

>  <r_i_glide_ligand_efficiency>  (215) 
-0.0599435

>  <r_i_glide_ligand_efficiency_sa>  (215) 
-0.194194

>  <r_i_glide_ligand_efficiency_ln>  (215) 
-0.450269

>  <r_i_glide_gscore>  (215) 
-2.03808

>  <r_i_glide_lipo>  (215) 
-0.0598183

>  <r_i_glide_hbond>  (215) 
-0.16

>  <r_i_glide_metal>  (215) 
-0

>  <r_i_glide_rewards>  (215) 
-0.261576

>  <r_i_glide_evdw>  (215) 
-28.3263

>  <r_i_glide_ecoul>  (215) 
-2.78302

>  <r_i_glide_erotb>  (215) 
0.283487

>  <r_i_glide_esite>  (215) 
-0.00640242

>  <r_i_glide_emodel>  (215) 
-34.4172

>  <r_i_glide_energy>  (215) 
-31.1093

>  <r_i_glide_einternal>  (215) 
2.81104

>  <r_i_glide_intrahb_reward>  (215) 
-0

>  <i_i_glide_confnum>  (215) 
2

>  <i_i_glide_posenum>  (215) 
3

>  <r_i_glide_eff_state_penalty>  (215) 
0

>  <ligand_id>  (215) 
46

>  <original_smiles>  (215) 
CC12CC(O)C3C(CCC4CCC(NC(=O)c5ccc6ccccc6c5)CC43C)C1CCC2O

>  <smiles>  (215) 
[H]OC1([H])C([H])([H])C2(C([H])([H])[H])C([H])(O[H])C([H])([H])C([H])([H])C2([H])C2([H])C([H])([H])C([H])([H])C3([H])C([H])([H])C([H])([H])C([H])(N([H])C(=O)c4c([H])c([H])c5c([H])c([H])c([H])c([H])c5c4[H])C([H])([H])C3(C([H])([H])[H])C12[H]

$$$$
47:0:0
     RDKit          3D

 59 64  0  0  1  0  0  0  0  0999 V2000
    4.9842   -9.8116    0.8809 O   0  0  0  0  0  0  0  0  0  0  0  0
    5.5122   -9.2760    2.0100 C   0  0  0  0  0  0  0  0  0  0  0  0
    6.4749   -9.9773    2.7652 C   0  0  0  0  0  0  0  0  0  0  0  0
    7.0054   -9.3976    3.9331 C   0  0  0  0  0  0  0  0  0  0  0  0
    6.5860   -8.1151    4.3424 C   0  0  0  0  0  0  0  0  0  0  0  0
    5.6615   -7.3952    3.5582 C   0  0  0  0  0  0  0  0  0  0  0  0
    5.1025   -7.9860    2.4036 C   0  0  0  0  0  0  0  0  0  0  0  0
    4.0296   -7.2637    1.5912 C   0  0  2  0  0  0  0  0  0  0  0  0
    4.5912   -6.3972    0.4901 C   0  0  0  0  0  0  0  0  0  0  0  0
    3.9389   -5.0920    0.8027 C   0  0  0  0  0  0  0  0  0  0  0  0
    4.1842   -3.9153   -0.0544 C   0  0  0  0  0  0  0  0  0  0  0  0
    4.9763   -4.0467   -1.2272 C   0  0  0  0  0  0  0  0  0  0  0  0
    5.1774   -2.9295   -2.0570 C   0  0  0  0  0  0  0  0  0  0  0  0
    4.5956   -1.6919   -1.7222 C   0  0  0  0  0  0  0  0  0  0  0  0
    4.7853   -0.6164   -2.5296 F   0  0  0  0  0  0  0  0  0  0  0  0
    3.8161   -1.5645   -0.5531 C   0  0  0  0  0  0  0  0  0  0  0  0
    3.6025   -2.6752    0.2838 C   0  0  0  0  0  0  0  0  0  0  0  0
    3.1625   -5.1185    1.8331 N   0  0  0  0  0  0  0  0  0  0  0  0
    3.1618   -6.3626    2.3791 N   0  0  0  0  0  0  0  0  0  0  0  0
    1.9856   -6.7034    3.1950 C   0  0  1  0  0  0  0  0  0  0  0  0
    2.4624   -7.0417    4.8483 C   0  0  0  0  0  0  0  0  0  0  0  0
    2.2388   -8.6105    5.6234 C   0  0  0  0  0  0  0  0  0  0  0  0
    0.9173   -9.5725    5.1011 C   0  0  1  0  0  0  0  0  0  0  0  0
   -0.0702   -8.6047    5.5616 C   0  0  0  0  0  0  0  0  0  0  0  0
    0.1859   -7.6797    4.3903 C   0  0  2  0  0  0  0  0  0  0  0  0
   -1.0511   -7.8178    3.5117 C   0  0  0  0  0  0  0  0  0  0  0  0
   -0.2857   -8.5948    2.5441 C   0  0  2  0  0  0  0  0  0  0  0  0
    0.2629   -9.9458    3.5275 C   0  0  0  0  0  0  0  0  0  0  0  0
    0.7360   -7.2169    2.1085 C   0  0  0  0  0  0  0  0  0  0  0  0
    1.7880   -7.9443    3.4167 C   0  0  0  0  0  0  0  0  0  0  0  0
    4.8038  -10.7809    0.8473 H   0  0  0  0  0  0  0  0  0  0  0  0
    6.7986  -10.9529    2.4358 H   0  0  0  0  0  0  0  0  0  0  0  0
    7.7461   -9.9316    4.5159 H   0  0  0  0  0  0  0  0  0  0  0  0
    6.9673   -7.6662    5.2548 H   0  0  0  0  0  0  0  0  0  0  0  0
    5.3642   -6.4038    3.8698 H   0  0  0  0  0  0  0  0  0  0  0  0
    3.3827   -7.9912    1.1131 H   0  0  0  0  0  0  0  0  0  0  0  0
    5.6756   -6.3312    0.5249 H   0  0  0  0  0  0  0  0  0  0  0  0
    4.2790   -6.7816   -0.4805 H   0  0  0  0  0  0  0  0  0  0  0  0
    5.4122   -4.9927   -1.5137 H   0  0  0  0  0  0  0  0  0  0  0  0
    5.7708   -3.0260   -2.9588 H   0  0  0  0  0  0  0  0  0  0  0  0
    3.3561   -0.6194   -0.3045 H   0  0  0  0  0  0  0  0  0  0  0  0
    2.9831   -2.5678    1.1699 H   0  0  0  0  0  0  0  0  0  0  0  0
    3.5099   -6.8393    4.9725 H   0  0  0  0  0  0  0  0  0  0  0  0
    2.0572   -6.2739    5.4986 H   0  0  0  0  0  0  0  0  0  0  0  0
    3.1381   -9.2082    5.4697 H   0  0  0  0  0  0  0  0  0  0  0  0
    2.2334   -8.4741    6.6946 H   0  0  0  0  0  0  0  0  0  0  0  0
    0.8959  -10.4750    5.7113 H   0  0  0  0  0  0  0  0  0  0  0  0
   -1.0609   -9.0553    5.6310 H   0  0  0  0  0  0  0  0  0  0  0  0
    0.1351   -8.1442    6.5310 H   0  0  0  0  0  0  0  0  0  0  0  0
    0.0853   -6.6640    4.7727 H   0  0  0  0  0  0  0  0  0  0  0  0
   -1.9098   -8.3722    3.9100 H   0  0  0  0  0  0  0  0  0  0  0  0
   -1.4251   -6.8713    3.1146 H   0  0  0  0  0  0  0  0  0  0  0  0
   -0.8863   -8.9177    1.7060 H   0  0  0  0  0  0  0  0  0  0  0  0
    0.9587  -10.5683    2.9743 H   0  0  0  0  0  0  0  0  0  0  0  0
   -0.5861  -10.5948    3.6777 H   0  0  0  0  0  0  0  0  0  0  0  0
    0.1496   -6.3496    1.8261 H   0  0  0  0  0  0  0  0  0  0  0  0
    1.1810   -7.4724    1.1428 H   0  0  0  0  0  0  0  0  0  0  0  0
    1.9863   -8.7182    2.6199 H   0  0  0  0  0  0  0  0  0  0  0  0
    2.6849   -8.6070    3.5102 H   0  0  0  0  0  0  0  0  0  0  0  0
  1  2  1  0
  1 31  1  0
  2  7  2  0
  2  3  1  0
  3  4  2  0
  3 32  1  0
  4  5  1  0
  4 33  1  0
  5  6  2  0
  5 34  1  0
  6  7  1  0
  6 35  1  0
  7  8  1  0
  8 19  1  0
  8  9  1  0
  8 36  1  6
  9 10  1  0
  9 37  1  0
  9 38  1  0
 10 11  1  0
 10 18  2  0
 11 17  1  0
 11 12  2  0
 12 13  1  0
 12 39  1  0
 13 14  2  0
 13 40  1  0
 14 15  1  0
 14 16  1  0
 16 17  2  0
 16 41  1  0
 17 42  1  0
 18 19  1  0
 20 19  1  6
 20 29  1  0
 20 30  1  0
 20 21  1  0
 21 22  1  0
 21 43  1  0
 21 44  1  0
 22 23  1  0
 22 45  1  0
 22 46  1  0
 23 28  1  0
 23 24  1  0
 23 47  1  1
 24 25  1  0
 24 48  1  0
 24 49  1  0
 25 26  1  0
 25 30  1  0
 25 50  1  1
 26 27  1  0
 26 51  1  0
 26 52  1  0
 27 28  1  0
 27 29  1  0
 27 53  1  6
 28 54  1  0
 28 55  1  0
 29 56  1  0
 29 57  1  0
 30 58  1  0
 30 59  1  0
M  END
>  <i_m_ct_stereo_status>  (216) 
1

>  <s_m_source_file>  (216) 
/var/tmp/pbs.5102103.sched01/tmpup5_gzpn/66d1evxq16.sdf

>  <i_m_source_file_index>  (216) 
13

>  <i_lp_mmshare_version>  (216) 
48012

>  <i_f3d_flags>  (216) 
0

>  <s_epik_input>  (216) 
W09IXWMxW2NIXVtjSF1bY0hdW2NIXWMxW0NAQEhdMltDSDJdQyhjM1tjSF1bY0hdYyhGKVtjSF1bY0hdMyk9Tk4yW0NAXTQ1W0NIMl1bQ0gyXVtDQEhdNltDSDJdW0NAQEhdKFtDSDJdNSlbQ0gyXVtDQEhdKFtDSDJdNilbQ0gyXTQ=

>  <s_epik_cmdline>  (216) 
J2VwaWtfcHl0aG9uJywgJy1waHQnLCAnMi4wJywgJy1waCcsICc3LjAnLCAnLXRuJywgJzgnLCAnLW1hJywgJzIwMCcsICctaW1hZScsICc8aW5maWxlLm1hZT4nLCAnLW9tYWUnLCAnPG91dGZpbGUubWFlPic=

>  <r_lp_tautomer_probability>  (216) 
1

>  <r_epik_Ionization_Penalty>  (216) 
0.00270904

>  <r_epik_Ionization_Penalty_Charging>  (216) 
0

>  <r_epik_Ionization_Penalty_Neutral>  (216) 
0.00270904

>  <r_epik_State_Penalty>  (216) 
-0

>  <r_epik_Charging_Adjusted_Penalty>  (216) 
0

>  <i_epik_Tot_Q>  (216) 
0

>  <i_epik_Tot_abs_Q>  (216) 
0

>  <s_epik_Chemistry_Notes>  (216) 
This compound has an imine and may undergo hydrolysis.

>  <s_lp_Force_Field>  (216) 
OPLS3e

>  <r_lp_Energy>  (216) 
535.314

>  <b_lp_Chiralities_Consistent>  (216) 
1

>  <s_lp_Variant>  (216) 
47:0-1

>  <s_i_glide_gridfile>  (216) 
pfpi4k_grid

>  <i_i_glide_lignum>  (216) 
13

>  <i_i_glide_rotatable_bonds>  (216) 
4

>  <r_i_docking_score>  (216) 
-3.2466

>  <r_i_glide_ligand_efficiency>  (216) 
-0.10822

>  <r_i_glide_ligand_efficiency_sa>  (216) 
-0.336265

>  <r_i_glide_ligand_efficiency_ln>  (216) 
-0.737663

>  <r_i_glide_gscore>  (216) 
-3.2466

>  <r_i_glide_lipo>  (216) 
-0.332215

>  <r_i_glide_hbond>  (216) 
-0.16

>  <r_i_glide_metal>  (216) 
-0

>  <r_i_glide_rewards>  (216) 
-0.677995

>  <r_i_glide_evdw>  (216) 
-30.9536

>  <r_i_glide_ecoul>  (216) 
-5.77966

>  <r_i_glide_erotb>  (216) 
0.360139

>  <r_i_glide_esite>  (216) 
-0.0219002

>  <r_i_glide_emodel>  (216) 
-42.544

>  <r_i_glide_energy>  (216) 
-36.7332

>  <r_i_glide_einternal>  (216) 
2.80554

>  <r_i_glide_intrahb_reward>  (216) 
-0

>  <i_i_glide_confnum>  (216) 
3

>  <i_i_glide_posenum>  (216) 
16

>  <r_i_glide_eff_state_penalty>  (216) 
0

>  <ligand_id>  (216) 
47

>  <original_smiles>  (216) 
Oc1ccccc1C1CC(c2ccc(F)cc2)=NN1C12CCC3CC(CC(C3)C1)C2

>  <smiles>  (216) 
[H]Oc1c([H])c([H])c([H])c([H])c1C1([H])N(C23C([H])([H])C([H])([H])C4([H])C([H])([H])C([H])(C([H])([H])C([H])(C4([H])[H])C2([H])[H])C3([H])[H])N=C(c2c([H])c([H])c(F)c([H])c2[H])C1([H])[H]

$$$$
47:0:1
     RDKit          3D

 59 64  0  0  1  0  0  0  0  0999 V2000
    4.0143   -9.8562    1.6132 O   0  0  0  0  0  0  0  0  0  0  0  0
    5.0477   -9.1887    2.1917 C   0  0  0  0  0  0  0  0  0  0  0  0
    6.0288   -9.8962    2.9089 C   0  0  0  0  0  0  0  0  0  0  0  0
    7.0945   -9.1933    3.5107 C   0  0  0  0  0  0  0  0  0  0  0  0
    7.1670   -7.7846    3.4108 C   0  0  0  0  0  0  0  0  0  0  0  0
    6.1667   -7.0747    2.7176 C   0  0  0  0  0  0  0  0  0  0  0  0
    5.1103   -7.7777    2.0972 C   0  0  0  0  0  0  0  0  0  0  0  0
    4.0235   -7.0115    1.3563 C   0  0  2  0  0  0  0  0  0  0  0  0
    4.5453   -6.1190    0.2535 C   0  0  0  0  0  0  0  0  0  0  0  0
    3.9050   -4.8280    0.6348 C   0  0  0  0  0  0  0  0  0  0  0  0
    4.1138   -3.6269   -0.2081 C   0  0  0  0  0  0  0  0  0  0  0  0
    3.7297   -2.3673    0.2949 C   0  0  0  0  0  0  0  0  0  0  0  0
    3.9124   -1.2250   -0.5198 C   0  0  0  0  0  0  0  0  0  0  0  0
    4.4537   -1.3530   -1.8179 C   0  0  0  0  0  0  0  0  0  0  0  0
    4.6120   -0.2579   -2.6054 F   0  0  0  0  0  0  0  0  0  0  0  0
    4.8390   -2.6131   -2.3085 C   0  0  0  0  0  0  0  0  0  0  0  0
    4.6711   -3.7616   -1.5018 C   0  0  0  0  0  0  0  0  0  0  0  0
    3.1984   -4.8774    1.7016 N   0  0  0  0  0  0  0  0  0  0  0  0
    3.2227   -6.1322    2.2184 N   0  0  0  0  0  0  0  0  0  0  0  0
    2.0794   -6.4786    3.0694 C   0  0  1  0  0  0  0  0  0  0  0  0
    2.6378   -6.8269    4.6958 C   0  0  0  0  0  0  0  0  0  0  0  0
    2.4419   -8.3852    5.4913 C   0  0  0  0  0  0  0  0  0  0  0  0
    1.1068   -9.3558    5.0296 C   0  0  1  0  0  0  0  0  0  0  0  0
    0.1256   -8.4014    5.5324 C   0  0  0  0  0  0  0  0  0  0  0  0
    0.3311   -7.4710    4.3467 C   0  0  2  0  0  0  0  0  0  0  0  0
   -0.9443   -7.6295    3.5186 C   0  0  0  0  0  0  0  0  0  0  0  0
   -0.2051   -8.3988    2.5241 C   0  0  2  0  0  0  0  0  0  0  0  0
    0.3844   -9.7405    3.4881 C   0  0  0  0  0  0  0  0  0  0  0  0
    0.7782   -7.0161    2.0439 C   0  0  0  0  0  0  0  0  0  0  0  0
    1.8740   -7.7241    3.3202 C   0  0  0  0  0  0  0  0  0  0  0  0
    4.1654  -10.7797    1.3710 H   0  0  0  0  0  0  0  0  0  0  0  0
    5.9485  -10.9694    3.0027 H   0  0  0  0  0  0  0  0  0  0  0  0
    7.8578   -9.7376    4.0504 H   0  0  0  0  0  0  0  0  0  0  0  0
    7.9878   -7.2464    3.8665 H   0  0  0  0  0  0  0  0  0  0  0  0
    6.2018   -5.9950    2.6484 H   0  0  0  0  0  0  0  0  0  0  0  0
    3.3331   -7.6980    0.8708 H   0  0  0  0  0  0  0  0  0  0  0  0
    5.6301   -6.0418    0.2183 H   0  0  0  0  0  0  0  0  0  0  0  0
    4.1940   -6.4934   -0.7035 H   0  0  0  0  0  0  0  0  0  0  0  0
    3.2961   -2.2527    1.2795 H   0  0  0  0  0  0  0  0  0  0  0  0
    3.6172   -0.2645   -0.1330 H   0  0  0  0  0  0  0  0  0  0  0  0
    5.2522   -2.6981   -3.3020 H   0  0  0  0  0  0  0  0  0  0  0  0
    4.9577   -4.7165   -1.9119 H   0  0  0  0  0  0  0  0  0  0  0  0
    3.7076   -6.6315    4.7049 H   0  0  0  0  0  0  0  0  0  0  0  0
    2.2711   -6.0506    5.3660 H   0  0  0  0  0  0  0  0  0  0  0  0
    3.3370   -8.9812    5.3091 H   0  0  0  0  0  0  0  0  0  0  0  0
    2.4768   -8.2431    6.5668 H   0  0  0  0  0  0  0  0  0  0  0  0
    1.1166  -10.2610    5.6402 H   0  0  0  0  0  0  0  0  0  0  0  0
   -0.8542   -8.8659    5.6329 H   0  0  0  0  0  0  0  0  0  0  0  0
    0.3656   -7.9387    6.4883 H   0  0  0  0  0  0  0  0  0  0  0  0
    0.2418   -6.4543    4.7331 H   0  0  0  0  0  0  0  0  0  0  0  0
   -1.7779   -8.1876    3.9483 H   0  0  0  0  0  0  0  0  0  0  0  0
   -1.3389   -6.6902    3.1363 H   0  0  0  0  0  0  0  0  0  0  0  0
   -0.8422   -8.7341    1.7079 H   0  0  0  0  0  0  0  0  0  0  0  0
    1.0666  -10.3624    2.9059 H   0  0  0  0  0  0  0  0  0  0  0  0
   -0.4654  -10.3962    3.6802 H   0  0  0  0  0  0  0  0  0  0  0  0
    0.1741   -6.1516    1.7816 H   0  0  0  0  0  0  0  0  0  0  0  0
    1.1853   -7.2662    1.0584 H   0  0  0  0  0  0  0  0  0  0  0  0
    2.0565   -8.4911    2.5163 H   0  0  0  0  0  0  0  0  0  0  0  0
    2.7700   -8.3915    3.3677 H   0  0  0  0  0  0  0  0  0  0  0  0
  1  2  1  0
  1 31  1  0
  2  7  2  0
  2  3  1  0
  3  4  2  0
  3 32  1  0
  4  5  1  0
  4 33  1  0
  5  6  2  0
  5 34  1  0
  6  7  1  0
  6 35  1  0
  7  8  1  0
  8 19  1  0
  8  9  1  0
  8 36  1  6
  9 10  1  0
  9 37  1  0
  9 38  1  0
 10 11  1  0
 10 18  2  0
 11 17  1  0
 11 12  2  0
 12 13  1  0
 12 39  1  0
 13 14  2  0
 13 40  1  0
 14 15  1  0
 14 16  1  0
 16 17  2  0
 16 41  1  0
 17 42  1  0
 18 19  1  0
 20 19  1  6
 20 29  1  0
 20 30  1  0
 20 21  1  0
 21 22  1  0
 21 43  1  0
 21 44  1  0
 22 23  1  0
 22 45  1  0
 22 46  1  0
 23 28  1  0
 23 24  1  0
 23 47  1  1
 24 25  1  0
 24 48  1  0
 24 49  1  0
 25 26  1  0
 25 30  1  0
 25 50  1  1
 26 27  1  0
 26 51  1  0
 26 52  1  0
 27 28  1  0
 27 29  1  0
 27 53  1  6
 28 54  1  0
 28 55  1  0
 29 56  1  0
 29 57  1  0
 30 58  1  0
 30 59  1  0
M  END
>  <i_m_ct_stereo_status>  (217) 
1

>  <s_m_source_file>  (217) 
/var/tmp/pbs.5102103.sched01/tmpup5_gzpn/66d1evxq16.sdf

>  <i_m_source_file_index>  (217) 
13

>  <i_lp_mmshare_version>  (217) 
48012

>  <i_f3d_flags>  (217) 
0

>  <s_epik_input>  (217) 
W09IXWMxW2NIXVtjSF1bY0hdW2NIXWMxW0NAQEhdMltDSDJdQyhjM1tjSF1bY0hdYyhGKVtjSF1bY0hdMyk9Tk4yW0NAXTQ1W0NIMl1bQ0gyXVtDQEhdNltDSDJdW0NAQEhdKFtDSDJdNSlbQ0gyXVtDQEhdKFtDSDJdNilbQ0gyXTQ=

>  <s_epik_cmdline>  (217) 
J2VwaWtfcHl0aG9uJywgJy1waHQnLCAnMi4wJywgJy1waCcsICc3LjAnLCAnLXRuJywgJzgnLCAnLW1hJywgJzIwMCcsICctaW1hZScsICc8aW5maWxlLm1hZT4nLCAnLW9tYWUnLCAnPG91dGZpbGUubWFlPic=

>  <r_lp_tautomer_probability>  (217) 
1

>  <r_epik_Ionization_Penalty>  (217) 
0.00270904

>  <r_epik_Ionization_Penalty_Charging>  (217) 
0

>  <r_epik_Ionization_Penalty_Neutral>  (217) 
0.00270904

>  <r_epik_State_Penalty>  (217) 
-0

>  <r_epik_Charging_Adjusted_Penalty>  (217) 
0

>  <i_epik_Tot_Q>  (217) 
0

>  <i_epik_Tot_abs_Q>  (217) 
0

>  <s_epik_Chemistry_Notes>  (217) 
This compound has an imine and may undergo hydrolysis.

>  <s_lp_Force_Field>  (217) 
OPLS3e

>  <r_lp_Energy>  (217) 
535.314

>  <b_lp_Chiralities_Consistent>  (217) 
1

>  <s_lp_Variant>  (217) 
47:0-1

>  <s_i_glide_gridfile>  (217) 
pfpi4k_grid

>  <i_i_glide_lignum>  (217) 
13

>  <i_i_glide_rotatable_bonds>  (217) 
4

>  <r_i_docking_score>  (217) 
-3.17261

>  <r_i_glide_ligand_efficiency>  (217) 
-0.105754

>  <r_i_glide_ligand_efficiency_sa>  (217) 
-0.328601

>  <r_i_glide_ligand_efficiency_ln>  (217) 
-0.720852

>  <r_i_glide_gscore>  (217) 
-3.17261

>  <r_i_glide_lipo>  (217) 
-0.376376

>  <r_i_glide_hbond>  (217) 
-0.16

>  <r_i_glide_metal>  (217) 
-0

>  <r_i_glide_rewards>  (217) 
-0.716851

>  <r_i_glide_evdw>  (217) 
-32.8335

>  <r_i_glide_ecoul>  (217) 
-4.25233

>  <r_i_glide_erotb>  (217) 
0.360139

>  <r_i_glide_esite>  (217) 
0

>  <r_i_glide_emodel>  (217) 
-43.2581

>  <r_i_glide_energy>  (217) 
-37.0858

>  <r_i_glide_einternal>  (217) 
2.1047

>  <r_i_glide_intrahb_reward>  (217) 
-0

>  <i_i_glide_confnum>  (217) 
4

>  <i_i_glide_posenum>  (217) 
37

>  <r_i_glide_eff_state_penalty>  (217) 
0

>  <ligand_id>  (217) 
47

>  <original_smiles>  (217) 
Oc1ccccc1C1CC(c2ccc(F)cc2)=NN1C12CCC3CC(CC(C3)C1)C2

>  <smiles>  (217) 
[H]Oc1c([H])c([H])c([H])c([H])c1C1([H])N(C23C([H])([H])C([H])([H])C4([H])C([H])([H])C([H])(C([H])([H])C([H])(C4([H])[H])C2([H])[H])C3([H])[H])N=C(c2c([H])c([H])c(F)c([H])c2[H])C1([H])[H]

$$$$
47:0:2
     RDKit          3D

 59 64  0  0  1  0  0  0  0  0999 V2000
    5.1572   -9.4527    1.2909 O   0  0  0  0  0  0  0  0  0  0  0  0
    5.6504   -8.5904    2.2291 C   0  0  0  0  0  0  0  0  0  0  0  0
    6.6352   -9.0204    3.1386 C   0  0  0  0  0  0  0  0  0  0  0  0
    7.1266   -8.1367    4.1200 C   0  0  0  0  0  0  0  0  0  0  0  0
    6.6359   -6.8155    4.1959 C   0  0  0  0  0  0  0  0  0  0  0  0
    5.6685   -6.3777    3.2735 C   0  0  0  0  0  0  0  0  0  0  0  0
    5.1681   -7.2628    2.2927 C   0  0  0  0  0  0  0  0  0  0  0  0
    4.0818   -6.8064    1.3285 C   0  0  2  0  0  0  0  0  0  0  0  0
    4.6320   -6.1075    0.1048 C   0  0  0  0  0  0  0  0  0  0  0  0
    3.8491   -4.8375    0.1399 C   0  0  0  0  0  0  0  0  0  0  0  0
    4.0056   -3.8411   -0.9394 C   0  0  0  0  0  0  0  0  0  0  0  0
    2.9007   -3.0538   -1.3063 C   0  0  0  0  0  0  0  0  0  0  0  0
    3.0425   -2.1090   -2.3481 C   0  0  0  0  0  0  0  0  0  0  0  0
    4.2700   -1.9735   -3.0193 C   0  0  0  0  0  0  0  0  0  0  0  0
    4.3911   -1.0640   -4.0185 F   0  0  0  0  0  0  0  0  0  0  0  0
    5.3717   -2.7705   -2.6507 C   0  0  0  0  0  0  0  0  0  0  0  0
    5.2427   -3.7042   -1.6006 C   0  0  0  0  0  0  0  0  0  0  0  0
    3.0104   -4.7588    1.1068 N   0  0  0  0  0  0  0  0  0  0  0  0
    3.1064   -5.8593    1.8955 N   0  0  0  0  0  0  0  0  0  0  0  0
    1.9350   -6.1498    2.7192 C   0  0  1  0  0  0  0  0  0  0  0  0
    2.3367   -6.0069    4.4261 C   0  0  0  0  0  0  0  0  0  0  0  0
    2.2363   -7.3425    5.5662 C   0  0  0  0  0  0  0  0  0  0  0  0
    1.0803   -8.5710    5.2633 C   0  0  1  0  0  0  0  0  0  0  0  0
   -0.0531   -7.6661    5.4205 C   0  0  0  0  0  0  0  0  0  0  0  0
    0.1822   -7.0298    4.0593 C   0  0  2  0  0  0  0  0  0  0  0  0
   -0.9745   -7.5508    3.2033 C   0  0  0  0  0  0  0  0  0  0  0  0
   -0.0468   -8.4315    2.5006 C   0  0  2  0  0  0  0  0  0  0  0  0
    0.5811   -9.4099    3.8166 C   0  0  0  0  0  0  0  0  0  0  0  0
    0.8204   -7.0861    1.7629 C   0  0  0  0  0  0  0  0  0  0  0  0
    1.8614   -7.3237    3.2521 C   0  0  0  0  0  0  0  0  0  0  0  0
    5.2912  -10.3743    1.4529 H   0  0  0  0  0  0  0  0  0  0  0  0
    7.0101  -10.0294    3.0841 H   0  0  0  0  0  0  0  0  0  0  0  0
    7.8843   -8.4683    4.8173 H   0  0  0  0  0  0  0  0  0  0  0  0
    6.9953   -6.1365    4.9592 H   0  0  0  0  0  0  0  0  0  0  0  0
    5.2939   -5.3628    3.3373 H   0  0  0  0  0  0  0  0  0  0  0  0
    3.5339   -7.6816    0.9796 H   0  0  0  0  0  0  0  0  0  0  0  0
    5.7083   -5.9533    0.1544 H   0  0  0  0  0  0  0  0  0  0  0  0
    4.4015   -6.6999   -0.7766 H   0  0  0  0  0  0  0  0  0  0  0  0
    1.9499   -3.1512   -0.8047 H   0  0  0  0  0  0  0  0  0  0  0  0
    2.2148   -1.4774   -2.6217 H   0  0  0  0  0  0  0  0  0  0  0  0
    6.3206   -2.6648   -3.1534 H   0  0  0  0  0  0  0  0  0  0  0  0
    6.0987   -4.2913   -1.3196 H   0  0  0  0  0  0  0  0  0  0  0  0
    3.3595   -5.6537    4.4928 H   0  0  0  0  0  0  0  0  0  0  0  0
    1.8012   -5.1543    4.8427 H   0  0  0  0  0  0  0  0  0  0  0  0
    3.2078   -7.8360    5.6134 H   0  0  0  0  0  0  0  0  0  0  0  0
    2.1314   -6.9416    6.5721 H   0  0  0  0  0  0  0  0  0  0  0  0
    1.1187   -9.2918    6.0841 H   0  0  0  0  0  0  0  0  0  0  0  0
   -0.9780   -8.2272    5.5517 H   0  0  0  0  0  0  0  0  0  0  0  0
    0.0184   -6.9557    6.2451 H   0  0  0  0  0  0  0  0  0  0  0  0
   -0.0689   -5.9714    4.1732 H   0  0  0  0  0  0  0  0  0  0  0  0
   -1.7841   -8.0987    3.6915 H   0  0  0  0  0  0  0  0  0  0  0  0
   -1.4307   -6.8010    2.5568 H   0  0  0  0  0  0  0  0  0  0  0  0
   -0.5535   -9.0351    1.7497 H   0  0  0  0  0  0  0  0  0  0  0  0
    1.3891  -10.0534    3.4665 H   0  0  0  0  0  0  0  0  0  0  0  0
   -0.2040  -10.1146    4.1024 H   0  0  0  0  0  0  0  0  0  0  0  0
    0.1530   -6.4013    1.2423 H   0  0  0  0  0  0  0  0  0  0  0  0
    1.3528   -7.5137    0.9073 H   0  0  0  0  0  0  0  0  0  0  0  0
    2.2125   -8.2282    2.6756 H   0  0  0  0  0  0  0  0  0  0  0  0
    2.8320   -7.8084    3.5456 H   0  0  0  0  0  0  0  0  0  0  0  0
  1  2  1  0
  1 31  1  0
  2  7  2  0
  2  3  1  0
  3  4  2  0
  3 32  1  0
  4  5  1  0
  4 33  1  0
  5  6  2  0
  5 34  1  0
  6  7  1  0
  6 35  1  0
  7  8  1  0
  8 19  1  0
  8  9  1  0
  8 36  1  6
  9 10  1  0
  9 37  1  0
  9 38  1  0
 10 11  1  0
 10 18  2  0
 11 17  1  0
 11 12  2  0
 12 13  1  0
 12 39  1  0
 13 14  2  0
 13 40  1  0
 14 15  1  0
 14 16  1  0
 16 17  2  0
 16 41  1  0
 17 42  1  0
 18 19  1  0
 20 19  1  6
 20 29  1  0
 20 30  1  0
 20 21  1  0
 21 22  1  0
 21 43  1  0
 21 44  1  0
 22 23  1  0
 22 45  1  0
 22 46  1  0
 23 28  1  0
 23 24  1  0
 23 47  1  1
 24 25  1  0
 24 48  1  0
 24 49  1  0
 25 26  1  0
 25 30  1  0
 25 50  1  1
 26 27  1  0
 26 51  1  0
 26 52  1  0
 27 28  1  0
 27 29  1  0
 27 53  1  6
 28 54  1  0
 28 55  1  0
 29 56  1  0
 29 57  1  0
 30 58  1  0
 30 59  1  0
M  END
>  <i_m_ct_stereo_status>  (218) 
1

>  <s_m_source_file>  (218) 
/var/tmp/pbs.5102103.sched01/tmpup5_gzpn/66d1evxq16.sdf

>  <i_m_source_file_index>  (218) 
13

>  <i_lp_mmshare_version>  (218) 
48012

>  <i_f3d_flags>  (218) 
0

>  <s_epik_input>  (218) 
W09IXWMxW2NIXVtjSF1bY0hdW2NIXWMxW0NAQEhdMltDSDJdQyhjM1tjSF1bY0hdYyhGKVtjSF1bY0hdMyk9Tk4yW0NAXTQ1W0NIMl1bQ0gyXVtDQEhdNltDSDJdW0NAQEhdKFtDSDJdNSlbQ0gyXVtDQEhdKFtDSDJdNilbQ0gyXTQ=

>  <s_epik_cmdline>  (218) 
J2VwaWtfcHl0aG9uJywgJy1waHQnLCAnMi4wJywgJy1waCcsICc3LjAnLCAnLXRuJywgJzgnLCAnLW1hJywgJzIwMCcsICctaW1hZScsICc8aW5maWxlLm1hZT4nLCAnLW9tYWUnLCAnPG91dGZpbGUubWFlPic=

>  <r_lp_tautomer_probability>  (218) 
1

>  <r_epik_Ionization_Penalty>  (218) 
0.00270904

>  <r_epik_Ionization_Penalty_Charging>  (218) 
0

>  <r_epik_Ionization_Penalty_Neutral>  (218) 
0.00270904

>  <r_epik_State_Penalty>  (218) 
-0

>  <r_epik_Charging_Adjusted_Penalty>  (218) 
0

>  <i_epik_Tot_Q>  (218) 
0

>  <i_epik_Tot_abs_Q>  (218) 
0

>  <s_epik_Chemistry_Notes>  (218) 
This compound has an imine and may undergo hydrolysis.

>  <s_lp_Force_Field>  (218) 
OPLS3e

>  <r_lp_Energy>  (218) 
535.314

>  <b_lp_Chiralities_Consistent>  (218) 
1

>  <s_lp_Variant>  (218) 
47:0-1

>  <s_i_glide_gridfile>  (218) 
pfpi4k_grid

>  <i_i_glide_lignum>  (218) 
13

>  <i_i_glide_rotatable_bonds>  (218) 
4

>  <r_i_docking_score>  (218) 
-2.8238

>  <r_i_glide_ligand_efficiency>  (218) 
-0.0941266

>  <r_i_glide_ligand_efficiency_sa>  (218) 
-0.292473

>  <r_i_glide_ligand_efficiency_ln>  (218) 
-0.641597

>  <r_i_glide_gscore>  (218) 
-2.8238

>  <r_i_glide_lipo>  (218) 
-0.487397

>  <r_i_glide_hbond>  (218) 
-0.00647548

>  <r_i_glide_metal>  (218) 
-0

>  <r_i_glide_rewards>  (218) 
-0.773909

>  <r_i_glide_evdw>  (218) 
-33.0573

>  <r_i_glide_ecoul>  (218) 
-1.68792

>  <r_i_glide_erotb>  (218) 
0.360139

>  <r_i_glide_esite>  (218) 
-0.0100998

>  <r_i_glide_emodel>  (218) 
-40.2387

>  <r_i_glide_energy>  (218) 
-34.7453

>  <r_i_glide_einternal>  (218) 
2.33731

>  <r_i_glide_intrahb_reward>  (218) 
-0

>  <i_i_glide_confnum>  (218) 
2

>  <i_i_glide_posenum>  (218) 
22

>  <r_i_glide_eff_state_penalty>  (218) 
0

>  <ligand_id>  (218) 
47

>  <original_smiles>  (218) 
Oc1ccccc1C1CC(c2ccc(F)cc2)=NN1C12CCC3CC(CC(C3)C1)C2

>  <smiles>  (218) 
[H]Oc1c([H])c([H])c([H])c([H])c1C1([H])N(C23C([H])([H])C([H])([H])C4([H])C([H])([H])C([H])(C([H])([H])C([H])(C4([H])[H])C2([H])[H])C3([H])[H])N=C(c2c([H])c([H])c(F)c([H])c2[H])C1([H])[H]

$$$$
49:0:0
     RDKit          3D

 28 30  0  0  1  0  0  0  0  0999 V2000
   -2.8030    2.6040    2.8141 C   0  0  0  0  0  0  0  0  0  0  0  0
   -2.0189    3.8353    3.2905 C   0  0  0  0  0  0  0  0  0  0  0  0
   -2.2290    4.9472    2.8122 O   0  0  0  0  0  0  0  0  0  0  0  0
   -1.0740    3.6446    4.2308 O   0  0  0  0  0  0  0  0  0  0  0  0
   -1.2673    2.6955    5.1788 C   0  0  0  0  0  0  0  0  0  0  0  0
   -1.9720    3.0916    6.2554 N   0  0  0  0  0  0  0  0  0  0  0  0
   -2.2004    2.2171    7.2201 C   0  0  0  0  0  0  0  0  0  0  0  0
   -3.0041    2.7709    8.3674 C   0  0  0  0  0  0  0  0  0  0  0  0
   -1.8297    0.9425    7.2874 N   0  0  0  0  0  0  0  0  0  0  0  0
   -1.0777    0.5579    6.2050 C   0  0  0  0  0  0  0  0  0  0  0  0
   -0.4199   -1.0832    6.0493 S   0  0  0  0  0  0  0  0  0  0  0  0
    0.2972   -0.6870    4.4846 C   0  0  0  0  0  0  0  0  0  0  0  0
    1.0459   -1.5416    3.6446 C   0  0  0  0  0  0  0  0  0  0  0  0
    1.5511   -1.0728    2.4174 C   0  0  0  0  0  0  0  0  0  0  0  0
    2.2676   -1.9021    1.6235 F   0  0  0  0  0  0  0  0  0  0  0  0
    1.3031    0.2542    2.0196 C   0  0  0  0  0  0  0  0  0  0  0  0
    0.5585    1.1001    2.8592 C   0  0  0  0  0  0  0  0  0  0  0  0
    0.0416    0.6736    4.0979 C   0  0  0  0  0  0  0  0  0  0  0  0
   -0.7486    1.3912    5.1005 C   0  0  0  0  0  0  0  0  0  0  0  0
   -3.3302    2.1442    3.6439 H   0  0  0  0  0  0  0  0  0  0  0  0
   -2.1481    1.8576    2.3672 H   0  0  0  0  0  0  0  0  0  0  0  0
   -3.5434    2.8728    2.0652 H   0  0  0  0  0  0  0  0  0  0  0  0
   -3.0692    2.0499    9.1772 H   0  0  0  0  0  0  0  0  0  0  0  0
   -4.0104    3.0139    8.0271 H   0  0  0  0  0  0  0  0  0  0  0  0
   -2.5343    3.6720    8.7607 H   0  0  0  0  0  0  0  0  0  0  0  0
    1.2313   -2.5648    3.9457 H   0  0  0  0  0  0  0  0  0  0  0  0
    1.6498    0.6380    1.0714 H   0  0  0  0  0  0  0  0  0  0  0  0
    0.3633    2.1122    2.5439 H   0  0  0  0  0  0  0  0  0  0  0  0
  1  2  1  0
  1 20  1  0
  1 21  1  0
  1 22  1  0
  2  3  2  0
  2  4  1  0
  4  5  1  0
  5 19  2  0
  5  6  1  0
  6  7  2  0
  7  8  1  0
  7  9  1  0
  8 23  1  0
  8 24  1  0
  8 25  1  0
  9 10  2  0
 10 19  1  0
 10 11  1  0
 11 12  1  0
 12 18  2  0
 12 13  1  0
 13 14  2  0
 13 26  1  0
 14 15  1  0
 14 16  1  0
 16 17  2  0
 16 27  1  0
 17 18  1  0
 17 28  1  0
 18 19  1  0
M  END
>  <i_m_ct_stereo_status>  (219) 
1

>  <s_m_source_file>  (219) 
/var/tmp/pbs.5102103.sched01/tmpup5_gzpn/66d1evxq16.sdf

>  <i_m_source_file_index>  (219) 
15

>  <i_lp_mmshare_version>  (219) 
48012

>  <i_f3d_flags>  (219) 
0

>  <s_epik_input>  (219) 
W0NIM11DKD1PKU9jKG5jKG4xKVtDSDNdKWMoYzEyKWMzYyhzMilbY0hdYyhGKVtjSF1bY0hdMw==

>  <s_epik_cmdline>  (219) 
J2VwaWtfcHl0aG9uJywgJy1waHQnLCAnMi4wJywgJy1waCcsICc3LjAnLCAnLXRuJywgJzgnLCAnLW1hJywgJzIwMCcsICctaW1hZScsICc8aW5maWxlLm1hZT4nLCAnLW9tYWUnLCAnPG91dGZpbGUubWFlPic=

>  <r_epik_Ionization_Penalty>  (219) 
0.00296226

>  <r_epik_Ionization_Penalty_Charging>  (219) 
0

>  <r_epik_Ionization_Penalty_Neutral>  (219) 
0.00296226

>  <r_epik_State_Penalty>  (219) 
0.0020659

>  <r_epik_Charging_Adjusted_Penalty>  (219) 
0.0020659

>  <i_epik_Tot_Q>  (219) 
0

>  <i_epik_Tot_abs_Q>  (219) 
0

>  <s_lp_Force_Field>  (219) 
OPLS3e

>  <r_lp_Energy>  (219) 
23.984

>  <b_lp_Chiralities_Consistent>  (219) 
1

>  <s_lp_Variant>  (219) 
49:0-1

>  <s_i_glide_gridfile>  (219) 
pfpi4k_grid

>  <i_i_glide_lignum>  (219) 
15

>  <i_i_glide_rotatable_bonds>  (219) 
2

>  <r_i_docking_score>  (219) 
-3.98916

>  <r_i_glide_ligand_efficiency>  (219) 
-0.209956

>  <r_i_glide_ligand_efficiency_sa>  (219) 
-0.560247

>  <r_i_glide_ligand_efficiency_ln>  (219) 
-1.01134

>  <r_i_glide_gscore>  (219) 
-3.98916

>  <r_i_glide_lipo>  (219) 
-0.0867878

>  <r_i_glide_hbond>  (219) 
-0.32

>  <r_i_glide_metal>  (219) 
-0

>  <r_i_glide_rewards>  (219) 
-1.52531

>  <r_i_glide_evdw>  (219) 
-20.0999

>  <r_i_glide_ecoul>  (219) 
-7.62503

>  <r_i_glide_erotb>  (219) 
0.23566

>  <r_i_glide_esite>  (219) 
-0.14397

>  <r_i_glide_emodel>  (219) 
-31.9095

>  <r_i_glide_energy>  (219) 
-27.725

>  <r_i_glide_einternal>  (219) 
6.62666

>  <r_i_glide_intrahb_reward>  (219) 
-0

>  <i_i_glide_confnum>  (219) 
2

>  <i_i_glide_posenum>  (219) 
18

>  <r_i_glide_eff_state_penalty>  (219) 
0

>  <ligand_id>  (219) 
49

>  <original_smiles>  (219) 
CC(=O)Oc1nc(C)nc2sc3cc(F)ccc3c12

>  <smiles>  (219) 
[H]c1c(F)c([H])c2sc3nc(C([H])([H])[H])nc(OC(=O)C([H])([H])[H])c3c2c1[H]

$$$$
49:0:1
     RDKit          3D

 28 30  0  0  1  0  0  0  0  0999 V2000
    2.5211   -6.8636    3.0835 C   0  0  0  0  0  0  0  0  0  0  0  0
    1.3466   -6.0673    3.6409 C   0  0  0  0  0  0  0  0  0  0  0  0
    0.2167   -6.1979    3.1666 O   0  0  0  0  0  0  0  0  0  0  0  0
    1.7207   -5.2241    4.6350 O   0  0  0  0  0  0  0  0  0  0  0  0
    0.8146   -4.3500    5.1727 C   0  0  0  0  0  0  0  0  0  0  0  0
    0.0133   -4.8179    6.1501 N   0  0  0  0  0  0  0  0  0  0  0  0
   -0.8349   -3.9809    6.7352 C   0  0  0  0  0  0  0  0  0  0  0  0
   -1.7076   -4.6025    7.7962 C   0  0  0  0  0  0  0  0  0  0  0  0
   -1.0198   -2.6813    6.4867 N   0  0  0  0  0  0  0  0  0  0  0  0
   -0.1884   -2.2035    5.5098 C   0  0  0  0  0  0  0  0  0  0  0  0
   -0.1915   -0.5145    4.9892 S   0  0  0  0  0  0  0  0  0  0  0  0
    1.1023   -0.8160    3.8254 C   0  0  0  0  0  0  0  0  0  0  0  0
    1.7083    0.1171    2.9548 C   0  0  0  0  0  0  0  0  0  0  0  0
    2.7355   -0.2994    2.0881 C   0  0  0  0  0  0  0  0  0  0  0  0
    3.3335    0.5947    1.2740 F   0  0  0  0  0  0  0  0  0  0  0  0
    3.1532   -1.6367    2.0847 C   0  0  0  0  0  0  0  0  0  0  0  0
    2.5527   -2.5560    2.9602 C   0  0  0  0  0  0  0  0  0  0  0  0
    1.5173   -2.1844    3.8412 C   0  0  0  0  0  0  0  0  0  0  0  0
    0.7714   -2.9854    4.8043 C   0  0  0  0  0  0  0  0  0  0  0  0
    2.9768   -7.4592    3.8733 H   0  0  0  0  0  0  0  0  0  0  0  0
    3.2814   -6.2025    2.6643 H   0  0  0  0  0  0  0  0  0  0  0  0
    2.1838   -7.5370    2.2938 H   0  0  0  0  0  0  0  0  0  0  0  0
   -2.4437   -3.8955    8.1749 H   0  0  0  0  0  0  0  0  0  0  0  0
   -1.0918   -4.9644    8.6226 H   0  0  0  0  0  0  0  0  0  0  0  0
   -2.2387   -5.4464    7.3591 H   0  0  0  0  0  0  0  0  0  0  0  0
    1.3816    1.1463    2.9540 H   0  0  0  0  0  0  0  0  0  0  0  0
    3.9403   -1.9642    1.4203 H   0  0  0  0  0  0  0  0  0  0  0  0
    2.8953   -3.5756    2.9478 H   0  0  0  0  0  0  0  0  0  0  0  0
  1  2  1  0
  1 20  1  0
  1 21  1  0
  1 22  1  0
  2  3  2  0
  2  4  1  0
  4  5  1  0
  5 19  2  0
  5  6  1  0
  6  7  2  0
  7  8  1  0
  7  9  1  0
  8 23  1  0
  8 24  1  0
  8 25  1  0
  9 10  2  0
 10 19  1  0
 10 11  1  0
 11 12  1  0
 12 18  2  0
 12 13  1  0
 13 14  2  0
 13 26  1  0
 14 15  1  0
 14 16  1  0
 16 17  2  0
 16 27  1  0
 17 18  1  0
 17 28  1  0
 18 19  1  0
M  END
>  <i_m_ct_stereo_status>  (220) 
1

>  <s_m_source_file>  (220) 
/var/tmp/pbs.5102103.sched01/tmpup5_gzpn/66d1evxq16.sdf

>  <i_m_source_file_index>  (220) 
15

>  <i_lp_mmshare_version>  (220) 
48012

>  <i_f3d_flags>  (220) 
0

>  <s_epik_input>  (220) 
W0NIM11DKD1PKU9jKG5jKG4xKVtDSDNdKWMoYzEyKWMzYyhzMilbY0hdYyhGKVtjSF1bY0hdMw==

>  <s_epik_cmdline>  (220) 
J2VwaWtfcHl0aG9uJywgJy1waHQnLCAnMi4wJywgJy1waCcsICc3LjAnLCAnLXRuJywgJzgnLCAnLW1hJywgJzIwMCcsICctaW1hZScsICc8aW5maWxlLm1hZT4nLCAnLW9tYWUnLCAnPG91dGZpbGUubWFlPic=

>  <r_epik_Ionization_Penalty>  (220) 
0.00296226

>  <r_epik_Ionization_Penalty_Charging>  (220) 
0

>  <r_epik_Ionization_Penalty_Neutral>  (220) 
0.00296226

>  <r_epik_State_Penalty>  (220) 
0.0020659

>  <r_epik_Charging_Adjusted_Penalty>  (220) 
0.0020659

>  <i_epik_Tot_Q>  (220) 
0

>  <i_epik_Tot_abs_Q>  (220) 
0

>  <s_lp_Force_Field>  (220) 
OPLS3e

>  <r_lp_Energy>  (220) 
23.984

>  <b_lp_Chiralities_Consistent>  (220) 
1

>  <s_lp_Variant>  (220) 
49:0-1

>  <s_i_glide_gridfile>  (220) 
pfpi4k_grid

>  <i_i_glide_lignum>  (220) 
15

>  <i_i_glide_rotatable_bonds>  (220) 
2

>  <r_i_docking_score>  (220) 
-2.97748

>  <r_i_glide_ligand_efficiency>  (220) 
-0.15671

>  <r_i_glide_ligand_efficiency_sa>  (220) 
-0.418164

>  <r_i_glide_ligand_efficiency_ln>  (220) 
-0.754856

>  <r_i_glide_gscore>  (220) 
-2.97748

>  <r_i_glide_lipo>  (220) 
-0.0356775

>  <r_i_glide_hbond>  (220) 
-0.0956363

>  <r_i_glide_metal>  (220) 
-0

>  <r_i_glide_rewards>  (220) 
-1.69893

>  <r_i_glide_evdw>  (220) 
-17.135

>  <r_i_glide_ecoul>  (220) 
-3.24177

>  <r_i_glide_erotb>  (220) 
0.23566

>  <r_i_glide_esite>  (220) 
-0.0398875

>  <r_i_glide_emodel>  (220) 
-26.0734

>  <r_i_glide_energy>  (220) 
-20.3768

>  <r_i_glide_einternal>  (220) 
0.0552343

>  <r_i_glide_intrahb_reward>  (220) 
-0

>  <i_i_glide_confnum>  (220) 
3

>  <i_i_glide_posenum>  (220) 
10

>  <r_i_glide_eff_state_penalty>  (220) 
0

>  <ligand_id>  (220) 
49

>  <original_smiles>  (220) 
CC(=O)Oc1nc(C)nc2sc3cc(F)ccc3c12

>  <smiles>  (220) 
[H]c1c(F)c([H])c2sc3nc(C([H])([H])[H])nc(OC(=O)C([H])([H])[H])c3c2c1[H]

$$$$
49:0:2
     RDKit          3D

 28 30  0  0  1  0  0  0  0  0999 V2000
    3.5688  -11.9182    4.3347 C   0  0  0  0  0  0  0  0  0  0  0  0
    2.7040  -10.7430    3.8837 C   0  0  0  0  0  0  0  0  0  0  0  0
    3.0752   -9.9947    2.9795 O   0  0  0  0  0  0  0  0  0  0  0  0
    1.5729  -10.6197    4.6126 O   0  0  0  0  0  0  0  0  0  0  0  0
    0.7835   -9.5122    4.4580 C   0  0  0  0  0  0  0  0  0  0  0  0
   -0.1171   -9.5318    3.4534 N   0  0  0  0  0  0  0  0  0  0  0  0
   -0.9484   -8.5015    3.3252 C   0  0  0  0  0  0  0  0  0  0  0  0
   -1.9334   -8.6402    2.1991 C   0  0  0  0  0  0  0  0  0  0  0  0
   -1.0098   -7.3807    4.0486 N   0  0  0  0  0  0  0  0  0  0  0  0
   -0.0871   -7.3628    5.0610 C   0  0  0  0  0  0  0  0  0  0  0  0
    0.0716   -6.0117    6.1896 S   0  0  0  0  0  0  0  0  0  0  0  0
    1.3755   -6.8281    7.0663 C   0  0  0  0  0  0  0  0  0  0  0  0
    2.0858   -6.3519    8.1903 C   0  0  0  0  0  0  0  0  0  0  0  0
    3.1157   -7.1270    8.7562 C   0  0  0  0  0  0  0  0  0  0  0  0
    3.7981   -6.6655    9.8301 F   0  0  0  0  0  0  0  0  0  0  0  0
    3.4298   -8.3780    8.2035 C   0  0  0  0  0  0  0  0  0  0  0  0
    2.7128   -8.8520    7.0936 C   0  0  0  0  0  0  0  0  0  0  0  0
    1.6807   -8.1021    6.4914 C   0  0  0  0  0  0  0  0  0  0  0  0
    0.8449   -8.4068    5.3380 C   0  0  0  0  0  0  0  0  0  0  0  0
    3.0139  -12.8507    4.2471 H   0  0  0  0  0  0  0  0  0  0  0  0
    3.8777  -11.8067    5.3765 H   0  0  0  0  0  0  0  0  0  0  0  0
    4.4699  -11.9949    3.7202 H   0  0  0  0  0  0  0  0  0  0  0  0
   -2.5311   -7.7392    2.0985 H   0  0  0  0  0  0  0  0  0  0  0  0
   -2.5857   -9.4927    2.3787 H   0  0  0  0  0  0  0  0  0  0  0  0
   -1.3784   -8.8116    1.2786 H   0  0  0  0  0  0  0  0  0  0  0  0
    1.8454   -5.3882    8.6127 H   0  0  0  0  0  0  0  0  0  0  0  0
    4.2200   -8.9886    8.6240 H   0  0  0  0  0  0  0  0  0  0  0  0
    2.9666   -9.8160    6.6885 H   0  0  0  0  0  0  0  0  0  0  0  0
  1  2  1  0
  1 20  1  0
  1 21  1  0
  1 22  1  0
  2  3  2  0
  2  4  1  0
  4  5  1  0
  5 19  2  0
  5  6  1  0
  6  7  2  0
  7  8  1  0
  7  9  1  0
  8 23  1  0
  8 24  1  0
  8 25  1  0
  9 10  2  0
 10 19  1  0
 10 11  1  0
 11 12  1  0
 12 18  2  0
 12 13  1  0
 13 14  2  0
 13 26  1  0
 14 15  1  0
 14 16  1  0
 16 17  2  0
 16 27  1  0
 17 18  1  0
 17 28  1  0
 18 19  1  0
M  END
>  <i_m_ct_stereo_status>  (221) 
1

>  <s_m_source_file>  (221) 
/var/tmp/pbs.5102103.sched01/tmpup5_gzpn/66d1evxq16.sdf

>  <i_m_source_file_index>  (221) 
15

>  <i_lp_mmshare_version>  (221) 
48012

>  <i_f3d_flags>  (221) 
0

>  <s_epik_input>  (221) 
W0NIM11DKD1PKU9jKG5jKG4xKVtDSDNdKWMoYzEyKWMzYyhzMilbY0hdYyhGKVtjSF1bY0hdMw==

>  <s_epik_cmdline>  (221) 
J2VwaWtfcHl0aG9uJywgJy1waHQnLCAnMi4wJywgJy1waCcsICc3LjAnLCAnLXRuJywgJzgnLCAnLW1hJywgJzIwMCcsICctaW1hZScsICc8aW5maWxlLm1hZT4nLCAnLW9tYWUnLCAnPG91dGZpbGUubWFlPic=

>  <r_epik_Ionization_Penalty>  (221) 
0.00296226

>  <r_epik_Ionization_Penalty_Charging>  (221) 
0

>  <r_epik_Ionization_Penalty_Neutral>  (221) 
0.00296226

>  <r_epik_State_Penalty>  (221) 
0.0020659

>  <r_epik_Charging_Adjusted_Penalty>  (221) 
0.0020659

>  <i_epik_Tot_Q>  (221) 
0

>  <i_epik_Tot_abs_Q>  (221) 
0

>  <s_lp_Force_Field>  (221) 
OPLS3e

>  <r_lp_Energy>  (221) 
23.984

>  <b_lp_Chiralities_Consistent>  (221) 
1

>  <s_lp_Variant>  (221) 
49:0-1

>  <s_i_glide_gridfile>  (221) 
pfpi4k_grid

>  <i_i_glide_lignum>  (221) 
15

>  <i_i_glide_rotatable_bonds>  (221) 
2

>  <r_i_docking_score>  (221) 
-2.70712

>  <r_i_glide_ligand_efficiency>  (221) 
-0.14248

>  <r_i_glide_ligand_efficiency_sa>  (221) 
-0.380194

>  <r_i_glide_ligand_efficiency_ln>  (221) 
-0.686314

>  <r_i_glide_gscore>  (221) 
-2.70712

>  <r_i_glide_lipo>  (221) 
-0.204643

>  <r_i_glide_hbond>  (221) 
0

>  <r_i_glide_metal>  (221) 
-0

>  <r_i_glide_rewards>  (221) 
-1.52531

>  <r_i_glide_evdw>  (221) 
-19.4166

>  <r_i_glide_ecoul>  (221) 
-1.13904

>  <r_i_glide_erotb>  (221) 
0.23566

>  <r_i_glide_esite>  (221) 
-0.0711414

>  <r_i_glide_emodel>  (221) 
-25.6722

>  <r_i_glide_energy>  (221) 
-20.5556

>  <r_i_glide_einternal>  (221) 
0.114295

>  <r_i_glide_intrahb_reward>  (221) 
-0

>  <i_i_glide_confnum>  (221) 
1

>  <i_i_glide_posenum>  (221) 
31

>  <r_i_glide_eff_state_penalty>  (221) 
0

>  <ligand_id>  (221) 
49

>  <original_smiles>  (221) 
CC(=O)Oc1nc(C)nc2sc3cc(F)ccc3c12

>  <smiles>  (221) 
[H]c1c(F)c([H])c2sc3nc(C([H])([H])[H])nc(OC(=O)C([H])([H])[H])c3c2c1[H]

$$$$
50:0:0
     RDKit          3D

 25 27  0  0  1  0  0  0  0  0999 V2000
    7.9357   -4.3180    0.2753 C   0  0  0  0  0  0  0  0  0  0  0  0
    6.4431   -4.1235    0.0994 C   0  0  0  0  0  0  0  0  0  0  0  0
    5.5629   -5.0794    0.5380 C   0  0  0  0  0  0  0  0  0  0  0  0
    4.1599   -4.8852    0.3800 C   0  0  0  0  0  0  0  0  0  0  0  0
    3.1881   -5.9027    0.8617 C   0  0  0  0  0  0  0  0  0  0  0  0
    3.5675   -6.9839    1.6903 C   0  0  0  0  0  0  0  0  0  0  0  0
    2.6095   -7.9280    2.0980 C   0  0  0  0  0  0  0  0  0  0  0  0
    1.2774   -7.7592    1.6849 C   0  0  0  0  0  0  0  0  0  0  0  0
    0.8727   -6.7273    0.9188 N   0  0  0  0  0  0  0  0  0  0  0  0
    1.8157   -5.8561    0.5039 C   0  0  0  0  0  0  0  0  0  0  0  0
    3.6099   -3.8070   -0.1886 N   0  0  0  0  0  0  0  0  0  0  0  0
    4.5223   -2.8987   -0.6222 N   0  0  0  0  0  0  0  0  0  0  0  0
    4.2648   -1.7194   -1.2474 C   0  0  0  0  0  0  0  0  0  0  0  0
    5.4081   -1.0815   -1.5209 N   0  0  0  0  0  0  0  0  0  0  0  0
    6.4555   -1.8634   -1.0598 N   0  0  0  0  0  0  0  0  0  0  0  0
    5.9225   -2.9638   -0.5214 C   0  0  0  0  0  0  0  0  0  0  0  0
    8.1555   -5.2663    0.7680 H   0  0  0  0  0  0  0  0  0  0  0  0
    8.3545   -3.5163    0.8851 H   0  0  0  0  0  0  0  0  0  0  0  0
    8.4349   -4.3152   -0.6948 H   0  0  0  0  0  0  0  0  0  0  0  0
    5.9696   -5.9682    0.9976 H   0  0  0  0  0  0  0  0  0  0  0  0
    4.5817   -7.1271    2.0328 H   0  0  0  0  0  0  0  0  0  0  0  0
    2.8937   -8.7624    2.7188 H   0  0  0  0  0  0  0  0  0  0  0  0
    0.5237   -8.4696    1.9834 H   0  0  0  0  0  0  0  0  0  0  0  0
    1.4216   -5.0768   -0.1351 H   0  0  0  0  0  0  0  0  0  0  0  0
    3.2755   -1.3484   -1.4830 H   0  0  0  0  0  0  0  0  0  0  0  0
  1  2  1  0
  1 17  1  0
  1 18  1  0
  1 19  1  0
  2 16  1  0
  2  3  2  0
  3  4  1  0
  3 20  1  0
  4  5  1  0
  4 11  2  0
  5 10  1  0
  5  6  2  0
  6  7  1  0
  6 21  1  0
  7  8  2  0
  7 22  1  0
  8  9  1  0
  8 23  1  0
  9 10  2  0
 10 24  1  0
 11 12  1  0
 12 16  1  0
 12 13  1  0
 13 14  2  0
 13 25  1  0
 14 15  1  0
 15 16  2  0
M  END
>  <i_m_ct_stereo_status>  (222) 
1

>  <s_m_source_file>  (222) 
/var/tmp/pbs.5102103.sched01/tmpup5_gzpn/66d1evxq16.sdf

>  <i_m_source_file_index>  (222) 
16

>  <i_lp_mmshare_version>  (222) 
48012

>  <i_f3d_flags>  (222) 
0

>  <s_epik_input>  (222) 
W2NIXTFubmMobjEyKWMoW0NIM10pW2NIXWMobjIpLWMzW2NIXVtjSF1bY0hdbltjSF0z

>  <s_epik_cmdline>  (222) 
J2VwaWtfcHl0aG9uJywgJy1waHQnLCAnMi4wJywgJy1waCcsICc3LjAnLCAnLXRuJywgJzgnLCAnLW1hJywgJzIwMCcsICctaW1hZScsICc8aW5maWxlLm1hZT4nLCAnLW9tYWUnLCAnPG91dGZpbGUubWFlPic=

>  <r_epik_Ionization_Penalty>  (222) 
0.00422804

>  <r_epik_Ionization_Penalty_Charging>  (222) 
0

>  <r_epik_Ionization_Penalty_Neutral>  (222) 
0.00422804

>  <r_epik_State_Penalty>  (222) 
0.00303862

>  <r_epik_Charging_Adjusted_Penalty>  (222) 
0.00303862

>  <i_epik_Tot_Q>  (222) 
0

>  <i_epik_Tot_abs_Q>  (222) 
0

>  <s_lp_Force_Field>  (222) 
OPLS3e

>  <r_lp_Energy>  (222) 
25.6205

>  <b_lp_Chiralities_Consistent>  (222) 
1

>  <s_lp_Variant>  (222) 
50:0-1

>  <s_i_glide_gridfile>  (222) 
pfpi4k_grid

>  <i_i_glide_lignum>  (222) 
16

>  <i_i_glide_rotatable_bonds>  (222) 
1

>  <r_i_docking_score>  (222) 
-3.95687

>  <r_i_glide_ligand_efficiency>  (222) 
-0.247304

>  <r_i_glide_ligand_efficiency_sa>  (222) 
-0.623168

>  <r_i_glide_ligand_efficiency_ln>  (222) 
-1.04885

>  <r_i_glide_gscore>  (222) 
-3.95687

>  <r_i_glide_lipo>  (222) 
-0.437793

>  <r_i_glide_hbond>  (222) 
-0.05633

>  <r_i_glide_metal>  (222) 
-0

>  <r_i_glide_rewards>  (222) 
-2.00509

>  <r_i_glide_evdw>  (222) 
-19.8535

>  <r_i_glide_ecoul>  (222) 
-4.4958

>  <r_i_glide_erotb>  (222) 
0.372696

>  <r_i_glide_esite>  (222) 
-0.163309

>  <r_i_glide_emodel>  (222) 
-31.1905

>  <r_i_glide_energy>  (222) 
-24.3493

>  <r_i_glide_einternal>  (222) 
0.201735

>  <r_i_glide_intrahb_reward>  (222) 
-0

>  <i_i_glide_confnum>  (222) 
4

>  <i_i_glide_posenum>  (222) 
10

>  <r_i_glide_eff_state_penalty>  (222) 
0

>  <ligand_id>  (222) 
50

>  <original_smiles>  (222) 
Cc1cc(-c2cccnc2)nn2cnnc12

>  <smiles>  (222) 
[H]c1nc([H])c(-c2nn3c([H])nnc3c(C([H])([H])[H])c2[H])c([H])c1[H]

$$$$
50:0:1
     RDKit          3D

 25 27  0  0  1  0  0  0  0  0999 V2000
    7.9506   -5.1797    1.2571 C   0  0  0  0  0  0  0  0  0  0  0  0
    6.5653   -4.5782    1.0936 C   0  0  0  0  0  0  0  0  0  0  0  0
    6.1719   -3.9970   -0.0918 C   0  0  0  0  0  0  0  0  0  0  0  0
    4.8667   -3.4476   -0.2072 C   0  0  0  0  0  0  0  0  0  0  0  0
    4.4289   -2.8222   -1.4710 C   0  0  0  0  0  0  0  0  0  0  0  0
    3.8133   -1.5506   -1.4854 C   0  0  0  0  0  0  0  0  0  0  0  0
    3.4152   -0.9908   -2.7164 C   0  0  0  0  0  0  0  0  0  0  0  0
    3.6295   -1.7212   -3.8945 C   0  0  0  0  0  0  0  0  0  0  0  0
    4.2181   -2.9314   -3.9102 N   0  0  0  0  0  0  0  0  0  0  0  0
    4.6023   -3.4573   -2.7250 C   0  0  0  0  0  0  0  0  0  0  0  0
    3.9539   -3.4267    0.7672 N   0  0  0  0  0  0  0  0  0  0  0  0
    4.3938   -4.0061    1.9163 N   0  0  0  0  0  0  0  0  0  0  0  0
    3.6997   -4.1297    3.0780 C   0  0  0  0  0  0  0  0  0  0  0  0
    4.4391   -4.7489    3.9994 N   0  0  0  0  0  0  0  0  0  0  0  0
    5.6669   -5.0551    3.4261 N   0  0  0  0  0  0  0  0  0  0  0  0
    5.6446   -4.5989    2.1701 C   0  0  0  0  0  0  0  0  0  0  0  0
    8.5289   -5.0895    0.3396 H   0  0  0  0  0  0  0  0  0  0  0  0
    7.8795   -6.2394    1.5074 H   0  0  0  0  0  0  0  0  0  0  0  0
    8.4970   -4.6745    2.0556 H   0  0  0  0  0  0  0  0  0  0  0  0
    6.8579   -3.9491   -0.9278 H   0  0  0  0  0  0  0  0  0  0  0  0
    3.6448   -1.0078   -0.5625 H   0  0  0  0  0  0  0  0  0  0  0  0
    2.9332   -0.0266   -2.7567 H   0  0  0  0  0  0  0  0  0  0  0  0
    3.3284   -1.3174   -4.8471 H   0  0  0  0  0  0  0  0  0  0  0  0
    5.0657   -4.4294   -2.7853 H   0  0  0  0  0  0  0  0  0  0  0  0
    2.6906   -3.7766    3.2371 H   0  0  0  0  0  0  0  0  0  0  0  0
  1  2  1  0
  1 17  1  0
  1 18  1  0
  1 19  1  0
  2 16  1  0
  2  3  2  0
  3  4  1  0
  3 20  1  0
  4  5  1  0
  4 11  2  0
  5 10  1  0
  5  6  2  0
  6  7  1  0
  6 21  1  0
  7  8  2  0
  7 22  1  0
  8  9  1  0
  8 23  1  0
  9 10  2  0
 10 24  1  0
 11 12  1  0
 12 16  1  0
 12 13  1  0
 13 14  2  0
 13 25  1  0
 14 15  1  0
 15 16  2  0
M  END
>  <i_m_ct_stereo_status>  (223) 
1

>  <s_m_source_file>  (223) 
/var/tmp/pbs.5102103.sched01/tmpup5_gzpn/66d1evxq16.sdf

>  <i_m_source_file_index>  (223) 
16

>  <i_lp_mmshare_version>  (223) 
48012

>  <i_f3d_flags>  (223) 
0

>  <s_epik_input>  (223) 
W2NIXTFubmMobjEyKWMoW0NIM10pW2NIXWMobjIpLWMzW2NIXVtjSF1bY0hdbltjSF0z

>  <s_epik_cmdline>  (223) 
J2VwaWtfcHl0aG9uJywgJy1waHQnLCAnMi4wJywgJy1waCcsICc3LjAnLCAnLXRuJywgJzgnLCAnLW1hJywgJzIwMCcsICctaW1hZScsICc8aW5maWxlLm1hZT4nLCAnLW9tYWUnLCAnPG91dGZpbGUubWFlPic=

>  <r_epik_Ionization_Penalty>  (223) 
0.00422804

>  <r_epik_Ionization_Penalty_Charging>  (223) 
0

>  <r_epik_Ionization_Penalty_Neutral>  (223) 
0.00422804

>  <r_epik_State_Penalty>  (223) 
0.00303862

>  <r_epik_Charging_Adjusted_Penalty>  (223) 
0.00303862

>  <i_epik_Tot_Q>  (223) 
0

>  <i_epik_Tot_abs_Q>  (223) 
0

>  <s_lp_Force_Field>  (223) 
OPLS3e

>  <r_lp_Energy>  (223) 
25.6205

>  <b_lp_Chiralities_Consistent>  (223) 
1

>  <s_lp_Variant>  (223) 
50:0-1

>  <s_i_glide_gridfile>  (223) 
pfpi4k_grid

>  <i_i_glide_lignum>  (223) 
16

>  <i_i_glide_rotatable_bonds>  (223) 
1

>  <r_i_docking_score>  (223) 
-3.59279

>  <r_i_glide_ligand_efficiency>  (223) 
-0.224549

>  <r_i_glide_ligand_efficiency_sa>  (223) 
-0.565829

>  <r_i_glide_ligand_efficiency_ln>  (223) 
-0.952341

>  <r_i_glide_gscore>  (223) 
-3.59279

>  <r_i_glide_lipo>  (223) 
-0.461477

>  <r_i_glide_hbond>  (223) 
-0.0997746

>  <r_i_glide_metal>  (223) 
-0

>  <r_i_glide_rewards>  (223) 
-2.03051

>  <r_i_glide_evdw>  (223) 
-20.3678

>  <r_i_glide_ecoul>  (223) 
-2.36896

>  <r_i_glide_erotb>  (223) 
0.372696

>  <r_i_glide_esite>  (223) 
0

>  <r_i_glide_emodel>  (223) 
-28.7203

>  <r_i_glide_energy>  (223) 
-22.7367

>  <r_i_glide_einternal>  (223) 
0.661089

>  <r_i_glide_intrahb_reward>  (223) 
-0

>  <i_i_glide_confnum>  (223) 
3

>  <i_i_glide_posenum>  (223) 
3

>  <r_i_glide_eff_state_penalty>  (223) 
0

>  <ligand_id>  (223) 
50

>  <original_smiles>  (223) 
Cc1cc(-c2cccnc2)nn2cnnc12

>  <smiles>  (223) 
[H]c1nc([H])c(-c2nn3c([H])nnc3c(C([H])([H])[H])c2[H])c([H])c1[H]

$$$$
50:0:2
     RDKit          3D

 25 27  0  0  1  0  0  0  0  0999 V2000
    6.5860   -5.3761    2.0516 C   0  0  0  0  0  0  0  0  0  0  0  0
    5.2863   -5.1156    1.3133 C   0  0  0  0  0  0  0  0  0  0  0  0
    5.2035   -4.1490    0.3383 C   0  0  0  0  0  0  0  0  0  0  0  0
    3.9612   -3.9140   -0.3199 C   0  0  0  0  0  0  0  0  0  0  0  0
    3.8490   -2.8952   -1.3920 C   0  0  0  0  0  0  0  0  0  0  0  0
    2.9343   -3.0221   -2.4670 C   0  0  0  0  0  0  0  0  0  0  0  0
    2.8836   -2.0326   -3.4686 C   0  0  0  0  0  0  0  0  0  0  0  0
    3.7310   -0.9186   -3.3528 C   0  0  0  0  0  0  0  0  0  0  0  0
    4.6164   -0.7778   -2.3512 N   0  0  0  0  0  0  0  0  0  0  0  0
    4.6632   -1.7376   -1.4052 C   0  0  0  0  0  0  0  0  0  0  0  0
    2.8242   -4.5645   -0.0521 N   0  0  0  0  0  0  0  0  0  0  0  0
    2.9715   -5.5282    0.8926 N   0  0  0  0  0  0  0  0  0  0  0  0
    2.0064   -6.3740    1.3391 C   0  0  0  0  0  0  0  0  0  0  0  0
    2.4894   -7.1638    2.2998 N   0  0  0  0  0  0  0  0  0  0  0  0
    3.8302   -6.8483    2.4771 N   0  0  0  0  0  0  0  0  0  0  0  0
    4.1238   -5.8645    1.6213 C   0  0  0  0  0  0  0  0  0  0  0  0
    7.3786   -4.7183    1.6982 H   0  0  0  0  0  0  0  0  0  0  0  0
    6.9069   -6.4080    1.9043 H   0  0  0  0  0  0  0  0  0  0  0  0
    6.4517   -5.2027    3.1204 H   0  0  0  0  0  0  0  0  0  0  0  0
    6.0924   -3.5856    0.0793 H   0  0  0  0  0  0  0  0  0  0  0  0
    2.2617   -3.8619   -2.5399 H   0  0  0  0  0  0  0  0  0  0  0  0
    2.1800   -2.1078   -4.2854 H   0  0  0  0  0  0  0  0  0  0  0  0
    3.6999   -0.1226   -4.0808 H   0  0  0  0  0  0  0  0  0  0  0  0
    5.3934   -1.5616   -0.6304 H   0  0  0  0  0  0  0  0  0  0  0  0
    0.9905   -6.4056    0.9792 H   0  0  0  0  0  0  0  0  0  0  0  0
  1  2  1  0
  1 17  1  0
  1 18  1  0
  1 19  1  0
  2 16  1  0
  2  3  2  0
  3  4  1  0
  3 20  1  0
  4  5  1  0
  4 11  2  0
  5 10  1  0
  5  6  2  0
  6  7  1  0
  6 21  1  0
  7  8  2  0
  7 22  1  0
  8  9  1  0
  8 23  1  0
  9 10  2  0
 10 24  1  0
 11 12  1  0
 12 16  1  0
 12 13  1  0
 13 14  2  0
 13 25  1  0
 14 15  1  0
 15 16  2  0
M  END
>  <i_m_ct_stereo_status>  (224) 
1

>  <s_m_source_file>  (224) 
/var/tmp/pbs.5102103.sched01/tmpup5_gzpn/66d1evxq16.sdf

>  <i_m_source_file_index>  (224) 
16

>  <i_lp_mmshare_version>  (224) 
48012

>  <i_f3d_flags>  (224) 
0

>  <s_epik_input>  (224) 
W2NIXTFubmMobjEyKWMoW0NIM10pW2NIXWMobjIpLWMzW2NIXVtjSF1bY0hdbltjSF0z

>  <s_epik_cmdline>  (224) 
J2VwaWtfcHl0aG9uJywgJy1waHQnLCAnMi4wJywgJy1waCcsICc3LjAnLCAnLXRuJywgJzgnLCAnLW1hJywgJzIwMCcsICctaW1hZScsICc8aW5maWxlLm1hZT4nLCAnLW9tYWUnLCAnPG91dGZpbGUubWFlPic=

>  <r_epik_Ionization_Penalty>  (224) 
0.00422804

>  <r_epik_Ionization_Penalty_Charging>  (224) 
0

>  <r_epik_Ionization_Penalty_Neutral>  (224) 
0.00422804

>  <r_epik_State_Penalty>  (224) 
0.00303862

>  <r_epik_Charging_Adjusted_Penalty>  (224) 
0.00303862

>  <i_epik_Tot_Q>  (224) 
0

>  <i_epik_Tot_abs_Q>  (224) 
0

>  <s_lp_Force_Field>  (224) 
OPLS3e

>  <r_lp_Energy>  (224) 
25.6205

>  <b_lp_Chiralities_Consistent>  (224) 
1

>  <s_lp_Variant>  (224) 
50:0-1

>  <s_i_glide_gridfile>  (224) 
pfpi4k_grid

>  <i_i_glide_lignum>  (224) 
16

>  <i_i_glide_rotatable_bonds>  (224) 
1

>  <r_i_docking_score>  (224) 
-3.2117

>  <r_i_glide_ligand_efficiency>  (224) 
-0.200731

>  <r_i_glide_ligand_efficiency_sa>  (224) 
-0.505811

>  <r_i_glide_ligand_efficiency_ln>  (224) 
-0.851325

>  <r_i_glide_gscore>  (224) 
-3.2117

>  <r_i_glide_lipo>  (224) 
-0.497725

>  <r_i_glide_hbond>  (224) 
0

>  <r_i_glide_metal>  (224) 
-0

>  <r_i_glide_rewards>  (224) 
-2.01685

>  <r_i_glide_evdw>  (224) 
-22.1185

>  <r_i_glide_ecoul>  (224) 
0.600658

>  <r_i_glide_erotb>  (224) 
0.372696

>  <r_i_glide_esite>  (224) 
-0.05399

>  <r_i_glide_emodel>  (224) 
-27.1344

>  <r_i_glide_energy>  (224) 
-21.5179

>  <r_i_glide_einternal>  (224) 
0.0561819

>  <r_i_glide_intrahb_reward>  (224) 
-0

>  <i_i_glide_confnum>  (224) 
3

>  <i_i_glide_posenum>  (224) 
12

>  <r_i_glide_eff_state_penalty>  (224) 
0

>  <ligand_id>  (224) 
50

>  <original_smiles>  (224) 
Cc1cc(-c2cccnc2)nn2cnnc12

>  <smiles>  (224) 
[H]c1nc([H])c(-c2nn3c([H])nnc3c(C([H])([H])[H])c2[H])c([H])c1[H]

$$$$
52:0:0
     RDKit          3D

 21 21  0  0  1  0  0  0  0  0999 V2000
    2.0365   -3.7044   -1.7169 C   0  0  0  0  0  0  0  0  0  0  0  0
    2.3575   -2.9441   -3.0161 C   0  0  2  0  0  0  0  0  0  0  0  0
    2.9380   -3.8557   -3.9277 O   0  0  0  0  0  0  0  0  0  0  0  0
    3.2438   -1.6845   -2.7813 C   0  0  2  0  0  0  0  0  0  0  0  0
    3.4001   -0.8222   -4.0466 C   0  0  0  0  0  0  0  0  0  0  0  0
    4.5520   -2.0116   -2.2222 N   0  0  0  0  0  0  0  0  0  0  0  0
    5.4960   -2.9159   -2.6734 C   0  0  0  0  0  0  0  0  0  0  0  0
    6.5255   -2.7946   -1.7946 C   0  0  0  0  0  0  0  0  0  0  0  0
    6.1915   -1.8169   -0.8563 N   0  0  0  0  0  0  0  0  0  0  0  0
    5.0103   -1.3510   -1.1304 N   0  0  0  0  0  0  0  0  0  0  0  0
    1.5392   -3.0694   -0.9974 H   0  0  0  0  0  0  0  0  0  0  0  0
    2.9306   -4.1001   -1.2402 H   0  0  0  0  0  0  0  0  0  0  0  0
    1.3629   -4.5324   -1.9187 H   0  0  0  0  0  0  0  0  0  0  0  0
    1.4099   -2.6372   -3.4605 H   0  0  0  0  0  0  0  0  0  0  0  0
    2.9382   -4.7206   -3.5227 H   0  0  0  0  0  0  0  0  0  0  0  0
    2.7241   -1.0607   -2.0509 H   0  0  0  0  0  0  0  0  0  0  0  0
    2.4309   -0.5048   -4.4254 H   0  0  0  0  0  0  0  0  0  0  0  0
    3.8956   -1.3737   -4.8423 H   0  0  0  0  0  0  0  0  0  0  0  0
    3.9802    0.0800   -3.8469 H   0  0  0  0  0  0  0  0  0  0  0  0
    5.3560   -3.5467   -3.5372 H   0  0  0  0  0  0  0  0  0  0  0  0
    7.4706   -3.3205   -1.7749 H   0  0  0  0  0  0  0  0  0  0  0  0
  1  2  1  0
  1 11  1  0
  1 12  1  0
  1 13  1  0
  2  3  1  0
  2  4  1  0
  2 14  1  6
  3 15  1  0
  4  5  1  0
  4  6  1  0
  4 16  1  1
  5 17  1  0
  5 18  1  0
  5 19  1  0
  6 10  1  0
  6  7  1  0
  7  8  2  0
  7 20  1  0
  8  9  1  0
  8 21  1  0
  9 10  2  0
M  END
>  <i_m_ct_stereo_status>  (225) 
1

>  <s_m_source_file>  (225) 
/var/tmp/pbs.5102103.sched01/tmpup5_gzpn/66d1evxq16.sdf

>  <i_m_source_file_index>  (225) 
18

>  <i_lp_mmshare_version>  (225) 
48012

>  <i_f3d_flags>  (225) 
0

>  <s_epik_input>  (225) 
W0NIM11bQ0BIXShbT0hdKVtDQEhdKFtDSDNdKW4xW2NIXVtjSF1ubjE=

>  <s_epik_cmdline>  (225) 
J2VwaWtfcHl0aG9uJywgJy1waHQnLCAnMi4wJywgJy1waCcsICc3LjAnLCAnLXRuJywgJzgnLCAnLW1hJywgJzIwMCcsICctaW1hZScsICc8aW5maWxlLm1hZT4nLCAnLW9tYWUnLCAnPG91dGZpbGUubWFlPic=

>  <r_lp_tautomer_probability>  (225) 
1

>  <r_epik_Ionization_Penalty>  (225) 
6.69592e-05

>  <r_epik_Ionization_Penalty_Charging>  (225) 
0

>  <r_epik_Ionization_Penalty_Neutral>  (225) 
6.69592e-05

>  <r_epik_State_Penalty>  (225) 
-0

>  <r_epik_Charging_Adjusted_Penalty>  (225) 
0

>  <i_epik_Tot_Q>  (225) 
0

>  <i_epik_Tot_abs_Q>  (225) 
0

>  <s_lp_Force_Field>  (225) 
OPLS3e

>  <r_lp_Energy>  (225) 
1.93061

>  <b_lp_Chiralities_Consistent>  (225) 
1

>  <s_lp_Variant>  (225) 
52:0-1

>  <s_i_glide_gridfile>  (225) 
pfpi4k_grid

>  <i_i_glide_lignum>  (225) 
18

>  <i_i_glide_rotatable_bonds>  (225) 
3

>  <r_i_docking_score>  (225) 
-4.45853

>  <r_i_glide_ligand_efficiency>  (225) 
-0.445853

>  <r_i_glide_ligand_efficiency_sa>  (225) 
-0.960562

>  <r_i_glide_ligand_efficiency_ln>  (225) 
-1.35001

>  <r_i_glide_gscore>  (225) 
-4.45853

>  <r_i_glide_lipo>  (225) 
-0.515687

>  <r_i_glide_hbond>  (225) 
-0.32

>  <r_i_glide_metal>  (225) 
-0

>  <r_i_glide_rewards>  (225) 
-2.25

>  <r_i_glide_evdw>  (225) 
-17.2996

>  <r_i_glide_ecoul>  (225) 
-7.48345

>  <r_i_glide_erotb>  (225) 
0.719607

>  <r_i_glide_esite>  (225) 
-0.104955

>  <r_i_glide_emodel>  (225) 
-30.8104

>  <r_i_glide_energy>  (225) 
-24.783

>  <r_i_glide_einternal>  (225) 
2.82684

>  <r_i_glide_intrahb_reward>  (225) 
-0

>  <i_i_glide_confnum>  (225) 
5

>  <i_i_glide_posenum>  (225) 
11

>  <r_i_glide_eff_state_penalty>  (225) 
0

>  <ligand_id>  (225) 
52

>  <original_smiles>  (225) 
CC(O)C(C)n1ccnn1

>  <smiles>  (225) 
[H]OC([H])(C([H])([H])[H])C([H])(n1nnc([H])c1[H])C([H])([H])[H]

$$$$
52:0:1
     RDKit          3D

 21 21  0  0  1  0  0  0  0  0999 V2000
    2.1777   -3.3761   -2.5575 C   0  0  0  0  0  0  0  0  0  0  0  0
    2.7903   -2.3423   -3.5118 C   0  0  2  0  0  0  0  0  0  0  0  0
    3.8617   -2.9734   -4.1840 O   0  0  0  0  0  0  0  0  0  0  0  0
    3.2439   -1.0456   -2.7944 C   0  0  2  0  0  0  0  0  0  0  0  0
    3.7395    0.0289   -3.7790 C   0  0  0  0  0  0  0  0  0  0  0  0
    4.1898   -1.2706   -1.7049 N   0  0  0  0  0  0  0  0  0  0  0  0
    4.0069   -1.0572   -0.3513 C   0  0  0  0  0  0  0  0  0  0  0  0
    5.1995   -1.4357    0.1936 C   0  0  0  0  0  0  0  0  0  0  0  0
    6.0476   -1.8528   -0.8265 N   0  0  0  0  0  0  0  0  0  0  0  0
    5.4265   -1.7556   -1.9550 N   0  0  0  0  0  0  0  0  0  0  0  0
    1.3080   -2.9755   -2.0432 H   0  0  0  0  0  0  0  0  0  0  0  0
    2.8868   -3.7124   -1.7990 H   0  0  0  0  0  0  0  0  0  0  0  0
    1.8318   -4.2441   -3.1128 H   0  0  0  0  0  0  0  0  0  0  0  0
    2.0500   -2.0762   -4.2671 H   0  0  0  0  0  0  0  0  0  0  0  0
    4.3926   -3.3989   -3.5260 H   0  0  0  0  0  0  0  0  0  0  0  0
    2.3596   -0.6283   -2.3220 H   0  0  0  0  0  0  0  0  0  0  0  0
    2.9601    0.2820   -4.5002 H   0  0  0  0  0  0  0  0  0  0  0  0
    4.6079   -0.2989   -4.3438 H   0  0  0  0  0  0  0  0  0  0  0  0
    4.0018    0.9442   -3.2499 H   0  0  0  0  0  0  0  0  0  0  0  0
    3.0907   -0.6867    0.0849 H   0  0  0  0  0  0  0  0  0  0  0  0
    5.5192   -1.4462    1.2238 H   0  0  0  0  0  0  0  0  0  0  0  0
  1  2  1  0
  1 11  1  0
  1 12  1  0
  1 13  1  0
  2  3  1  0
  2  4  1  0
  2 14  1  6
  3 15  1  0
  4  5  1  0
  4  6  1  0
  4 16  1  1
  5 17  1  0
  5 18  1  0
  5 19  1  0
  6 10  1  0
  6  7  1  0
  7  8  2  0
  7 20  1  0
  8  9  1  0
  8 21  1  0
  9 10  2  0
M  END
>  <i_m_ct_stereo_status>  (226) 
1

>  <s_m_source_file>  (226) 
/var/tmp/pbs.5102103.sched01/tmpup5_gzpn/66d1evxq16.sdf

>  <i_m_source_file_index>  (226) 
18

>  <i_lp_mmshare_version>  (226) 
48012

>  <i_f3d_flags>  (226) 
0

>  <s_epik_input>  (226) 
W0NIM11bQ0BIXShbT0hdKVtDQEhdKFtDSDNdKW4xW2NIXVtjSF1ubjE=

>  <s_epik_cmdline>  (226) 
J2VwaWtfcHl0aG9uJywgJy1waHQnLCAnMi4wJywgJy1waCcsICc3LjAnLCAnLXRuJywgJzgnLCAnLW1hJywgJzIwMCcsICctaW1hZScsICc8aW5maWxlLm1hZT4nLCAnLW9tYWUnLCAnPG91dGZpbGUubWFlPic=

>  <r_lp_tautomer_probability>  (226) 
1

>  <r_epik_Ionization_Penalty>  (226) 
6.69592e-05

>  <r_epik_Ionization_Penalty_Charging>  (226) 
0

>  <r_epik_Ionization_Penalty_Neutral>  (226) 
6.69592e-05

>  <r_epik_State_Penalty>  (226) 
-0

>  <r_epik_Charging_Adjusted_Penalty>  (226) 
0

>  <i_epik_Tot_Q>  (226) 
0

>  <i_epik_Tot_abs_Q>  (226) 
0

>  <s_lp_Force_Field>  (226) 
OPLS3e

>  <r_lp_Energy>  (226) 
1.93061

>  <b_lp_Chiralities_Consistent>  (226) 
1

>  <s_lp_Variant>  (226) 
52:0-1

>  <s_i_glide_gridfile>  (226) 
pfpi4k_grid

>  <i_i_glide_lignum>  (226) 
18

>  <i_i_glide_rotatable_bonds>  (226) 
3

>  <r_i_docking_score>  (226) 
-4.3191

>  <r_i_glide_ligand_efficiency>  (226) 
-0.43191

>  <r_i_glide_ligand_efficiency_sa>  (226) 
-0.930521

>  <r_i_glide_ligand_efficiency_ln>  (226) 
-1.30779

>  <r_i_glide_gscore>  (226) 
-4.3191

>  <r_i_glide_lipo>  (226) 
-0.624492

>  <r_i_glide_hbond>  (226) 
-0.249974

>  <r_i_glide_metal>  (226) 
-0

>  <r_i_glide_rewards>  (226) 
-2.25

>  <r_i_glide_evdw>  (226) 
-17.1129

>  <r_i_glide_ecoul>  (226) 
-6.15468

>  <r_i_glide_erotb>  (226) 
0.719607

>  <r_i_glide_esite>  (226) 
-0.13539

>  <r_i_glide_emodel>  (226) 
-30.191

>  <r_i_glide_energy>  (226) 
-23.2676

>  <r_i_glide_einternal>  (226) 
0.639846

>  <r_i_glide_intrahb_reward>  (226) 
-0

>  <i_i_glide_confnum>  (226) 
2

>  <i_i_glide_posenum>  (226) 
20

>  <r_i_glide_eff_state_penalty>  (226) 
0

>  <ligand_id>  (226) 
52

>  <original_smiles>  (226) 
CC(O)C(C)n1ccnn1

>  <smiles>  (226) 
[H]OC([H])(C([H])([H])[H])C([H])(n1nnc([H])c1[H])C([H])([H])[H]

$$$$
52:0:2
     RDKit          3D

 21 21  0  0  1  0  0  0  0  0999 V2000
    2.3597   -3.2028   -3.7688 C   0  0  0  0  0  0  0  0  0  0  0  0
    3.3124   -2.9941   -2.5809 C   0  0  2  0  0  0  0  0  0  0  0  0
    2.7356   -3.6533   -1.4759 O   0  0  0  0  0  0  0  0  0  0  0  0
    3.5613   -1.5090   -2.2206 C   0  0  2  0  0  0  0  0  0  0  0  0
    4.0765   -0.6827   -3.4145 C   0  0  0  0  0  0  0  0  0  0  0  0
    4.4500   -1.3773   -1.0755 N   0  0  0  0  0  0  0  0  0  0  0  0
    4.1403   -0.9472    0.2011 C   0  0  0  0  0  0  0  0  0  0  0  0
    5.3369   -1.0121    0.8608 C   0  0  0  0  0  0  0  0  0  0  0  0
    6.3079   -1.4682   -0.0308 N   0  0  0  0  0  0  0  0  0  0  0  0
    5.7575   -1.7163   -1.1762 N   0  0  0  0  0  0  0  0  0  0  0  0
    2.7468   -2.7619   -4.6828 H   0  0  0  0  0  0  0  0  0  0  0  0
    1.3801   -2.7724   -3.5717 H   0  0  0  0  0  0  0  0  0  0  0  0
    2.2206   -4.2594   -3.9839 H   0  0  0  0  0  0  0  0  0  0  0  0
    4.2594   -3.4951   -2.7997 H   0  0  0  0  0  0  0  0  0  0  0  0
    2.6512   -4.5659   -1.7278 H   0  0  0  0  0  0  0  0  0  0  0  0
    2.6134   -1.0697   -1.9257 H   0  0  0  0  0  0  0  0  0  0  0  0
    3.3485   -0.6557   -4.2257 H   0  0  0  0  0  0  0  0  0  0  0  0
    5.0053   -1.0943   -3.8135 H   0  0  0  0  0  0  0  0  0  0  0  0
    4.2368    0.3579   -3.1303 H   0  0  0  0  0  0  0  0  0  0  0  0
    3.1449   -0.6539    0.5033 H   0  0  0  0  0  0  0  0  0  0  0  0
    5.5785   -0.7777    1.8803 H   0  0  0  0  0  0  0  0  0  0  0  0
  1  2  1  0
  1 11  1  0
  1 12  1  0
  1 13  1  0
  2  3  1  0
  2  4  1  0
  2 14  1  6
  3 15  1  0
  4  5  1  0
  4  6  1  0
  4 16  1  1
  5 17  1  0
  5 18  1  0
  5 19  1  0
  6 10  1  0
  6  7  1  0
  7  8  2  0
  7 20  1  0
  8  9  1  0
  8 21  1  0
  9 10  2  0
M  END
>  <i_m_ct_stereo_status>  (227) 
1

>  <s_m_source_file>  (227) 
/var/tmp/pbs.5102103.sched01/tmpup5_gzpn/66d1evxq16.sdf

>  <i_m_source_file_index>  (227) 
18

>  <i_lp_mmshare_version>  (227) 
48012

>  <i_f3d_flags>  (227) 
0

>  <s_epik_input>  (227) 
W0NIM11bQ0BIXShbT0hdKVtDQEhdKFtDSDNdKW4xW2NIXVtjSF1ubjE=

>  <s_epik_cmdline>  (227) 
J2VwaWtfcHl0aG9uJywgJy1waHQnLCAnMi4wJywgJy1waCcsICc3LjAnLCAnLXRuJywgJzgnLCAnLW1hJywgJzIwMCcsICctaW1hZScsICc8aW5maWxlLm1hZT4nLCAnLW9tYWUnLCAnPG91dGZpbGUubWFlPic=

>  <r_lp_tautomer_probability>  (227) 
1

>  <r_epik_Ionization_Penalty>  (227) 
6.69592e-05

>  <r_epik_Ionization_Penalty_Charging>  (227) 
0

>  <r_epik_Ionization_Penalty_Neutral>  (227) 
6.69592e-05

>  <r_epik_State_Penalty>  (227) 
-0

>  <r_epik_Charging_Adjusted_Penalty>  (227) 
0

>  <i_epik_Tot_Q>  (227) 
0

>  <i_epik_Tot_abs_Q>  (227) 
0

>  <s_lp_Force_Field>  (227) 
OPLS3e

>  <r_lp_Energy>  (227) 
1.93061

>  <b_lp_Chiralities_Consistent>  (227) 
1

>  <s_lp_Variant>  (227) 
52:0-1

>  <s_i_glide_gridfile>  (227) 
pfpi4k_grid

>  <i_i_glide_lignum>  (227) 
18

>  <i_i_glide_rotatable_bonds>  (227) 
3

>  <r_i_docking_score>  (227) 
-4.01674

>  <r_i_glide_ligand_efficiency>  (227) 
-0.401674

>  <r_i_glide_ligand_efficiency_sa>  (227) 
-0.865381

>  <r_i_glide_ligand_efficiency_ln>  (227) 
-1.21624

>  <r_i_glide_gscore>  (227) 
-4.01674

>  <r_i_glide_lipo>  (227) 
-0.523012

>  <r_i_glide_hbond>  (227) 
-0.32

>  <r_i_glide_metal>  (227) 
-0

>  <r_i_glide_rewards>  (227) 
-2.25

>  <r_i_glide_evdw>  (227) 
-16.3309

>  <r_i_glide_ecoul>  (227) 
-4.67368

>  <r_i_glide_erotb>  (227) 
0.719607

>  <r_i_glide_esite>  (227) 
-0.125737

>  <r_i_glide_emodel>  (227) 
-27.4689

>  <r_i_glide_energy>  (227) 
-21.0046

>  <r_i_glide_einternal>  (227) 
0.481106

>  <r_i_glide_intrahb_reward>  (227) 
-0

>  <i_i_glide_confnum>  (227) 
1

>  <i_i_glide_posenum>  (227) 
29

>  <r_i_glide_eff_state_penalty>  (227) 
0

>  <ligand_id>  (227) 
52

>  <original_smiles>  (227) 
CC(O)C(C)n1ccnn1

>  <smiles>  (227) 
[H]OC([H])(C([H])([H])[H])C([H])(n1nnc([H])c1[H])C([H])([H])[H]

$$$$
53:0:0
     RDKit          3D

 32 35  0  0  1  0  0  0  0  0999 V2000
   -8.9286  -11.0555   -6.5886 O   0  0  0  0  0  0  0  0  0  0  0  0
   -8.4816   -9.9919   -7.0033 C   0  0  0  0  0  0  0  0  0  0  0  0
   -9.0451   -9.2206   -8.1419 C   0  0  0  0  0  0  0  0  0  0  0  0
  -10.2066   -9.4902   -8.8659 C   0  0  0  0  0  0  0  0  0  0  0  0
  -10.5434   -8.6020   -9.9268 C   0  0  0  0  0  0  0  0  0  0  0  0
   -9.7032   -7.5084  -10.2337 C   0  0  0  0  0  0  0  0  0  0  0  0
   -8.5251   -7.2620   -9.4936 C   0  0  0  0  0  0  0  0  0  0  0  0
   -8.2353   -8.1209   -8.3933 C   0  0  0  0  0  0  0  0  0  0  0  0
   -7.1483   -8.0455   -7.3200 C   0  0  2  0  0  0  0  0  0  0  0  0
   -7.2148   -6.7989   -6.3969 C   0  0  0  0  0  0  0  0  0  0  0  0
   -7.8478   -5.6008   -6.8236 C   0  0  0  0  0  0  0  0  0  0  0  0
   -7.8884   -4.4673   -5.9867 C   0  0  0  0  0  0  0  0  0  0  0  0
   -7.2685   -4.4784   -4.7219 C   0  0  0  0  0  0  0  0  0  0  0  0
   -6.6103   -5.6509   -4.3001 C   0  0  0  0  0  0  0  0  0  0  0  0
   -6.6108   -6.7986   -5.1096 C   0  0  0  0  0  0  0  0  0  0  0  0
   -5.4654   -8.2809   -7.9325 S   0  0  0  0  0  0  0  0  0  0  0  0
   -4.9640   -9.2289   -6.4782 C   0  0  0  0  0  0  0  0  0  0  0  0
   -6.2200   -9.9322   -5.9801 C   0  0  0  0  0  0  0  0  0  0  0  0
   -7.3827   -9.3152   -6.5951 N   0  0  0  0  0  0  0  0  0  0  0  0
  -10.8553  -10.3400   -8.5973 H   0  0  0  0  0  0  0  0  0  0  0  0
  -11.4626   -8.7679  -10.4849 H   0  0  0  0  0  0  0  0  0  0  0  0
  -10.0052   -6.8216  -11.0215 H   0  0  0  0  0  0  0  0  0  0  0  0
   -7.8948   -6.4129   -9.7321 H   0  0  0  0  0  0  0  0  0  0  0  0
   -8.3371   -5.4854   -7.7751 H   0  0  0  0  0  0  0  0  0  0  0  0
   -8.4397   -3.5954   -6.3120 H   0  0  0  0  0  0  0  0  0  0  0  0
   -7.3299   -3.6377   -4.0589 H   0  0  0  0  0  0  0  0  0  0  0  0
   -6.1790   -5.7050   -3.3151 H   0  0  0  0  0  0  0  0  0  0  0  0
   -6.1474   -7.6781   -4.6928 H   0  0  0  0  0  0  0  0  0  0  0  0
   -4.1892   -9.9545   -6.6875 H   0  0  0  0  0  0  0  0  0  0  0  0
   -4.5457   -8.5442   -5.7461 H   0  0  0  0  0  0  0  0  0  0  0  0
   -6.1845  -10.9954   -6.2081 H   0  0  0  0  0  0  0  0  0  0  0  0
   -6.3014   -9.8451   -4.9057 H   0  0  0  0  0  0  0  0  0  0  0  0
  1  2  2  0
  2 19  1  0
  2  3  1  0
  3  8  2  0
  3  4  1  0
  4  5  2  0
  4 20  1  0
  5  6  1  0
  5 21  1  0
  6  7  2  0
  6 22  1  0
  7  8  1  0
  7 23  1  0
  8  9  1  0
  9 19  1  0
  9 10  1  1
  9 16  1  0
 10 15  1  0
 10 11  2  0
 11 12  1  0
 11 24  1  0
 12 13  2  0
 12 25  1  0
 13 14  1  0
 13 26  1  0
 14 15  2  0
 14 27  1  0
 15 28  1  0
 16 17  1  0
 17 18  1  0
 17 29  1  0
 17 30  1  0
 18 19  1  0
 18 31  1  0
 18 32  1  0
M  END
>  <i_m_ct_stereo_status>  (228) 
1

>  <s_m_source_file>  (228) 
/var/tmp/pbs.5102103.sched01/tmpup5_gzpn/66d1evxq16.sdf

>  <i_m_source_file_index>  (228) 
19

>  <i_lp_mmshare_version>  (228) 
48012

>  <i_f3d_flags>  (228) 
0

>  <s_epik_input>  (228) 
UzFbQ0gyXVtDSDJdTjJDKD1PKWMoW2NIXVtjSF1bY0hdW2NIXTMpYzNbQ0BdMTJjNFtjSF1bY0hdW2NIXVtjSF1bY0hdNA==

>  <s_epik_cmdline>  (228) 
J2VwaWtfcHl0aG9uJywgJy1waHQnLCAnMi4wJywgJy1waCcsICc3LjAnLCAnLXRuJywgJzgnLCAnLW1hJywgJzIwMCcsICctaW1hZScsICc8aW5maWxlLm1hZT4nLCAnLW9tYWUnLCAnPG91dGZpbGUubWFlPic=

>  <r_lp_tautomer_probability>  (228) 
1

>  <r_epik_Ionization_Penalty>  (228) 
1.37044e-12

>  <r_epik_Ionization_Penalty_Charging>  (228) 
0

>  <r_epik_Ionization_Penalty_Neutral>  (228) 
1.37044e-12

>  <r_epik_State_Penalty>  (228) 
-0

>  <r_epik_Charging_Adjusted_Penalty>  (228) 
0

>  <i_epik_Tot_Q>  (228) 
0

>  <i_epik_Tot_abs_Q>  (228) 
0

>  <s_lp_Force_Field>  (228) 
OPLS3e

>  <r_lp_Energy>  (228) 
23.5975

>  <b_lp_Chiralities_Consistent>  (228) 
1

>  <s_lp_Variant>  (228) 
53:0-1

>  <s_i_glide_gridfile>  (228) 
pfpi4k_grid

>  <i_i_glide_lignum>  (228) 
19

>  <i_i_glide_rotatable_bonds>  (228) 
1

>  <r_i_docking_score>  (228) 
-6.32954

>  <r_i_glide_ligand_efficiency>  (228) 
-0.333134

>  <r_i_glide_ligand_efficiency_sa>  (228) 
-0.888935

>  <r_i_glide_ligand_efficiency_ln>  (228) 
-1.60468

>  <r_i_glide_gscore>  (228) 
-6.32954

>  <r_i_glide_lipo>  (228) 
-2.70033

>  <r_i_glide_hbond>  (228) 
0

>  <r_i_glide_metal>  (228) 
-0

>  <r_i_glide_rewards>  (228) 
-2.62118

>  <r_i_glide_evdw>  (228) 
-23.5324

>  <r_i_glide_ecoul>  (228) 
-0.539219

>  <r_i_glide_erotb>  (228) 
0.249468

>  <r_i_glide_esite>  (228) 
0

>  <r_i_glide_emodel>  (228) 
-31.2624

>  <r_i_glide_energy>  (228) 
-24.0716

>  <r_i_glide_einternal>  (228) 
4.17485

>  <r_i_glide_intrahb_reward>  (228) 
-0

>  <i_i_glide_confnum>  (228) 
6

>  <i_i_glide_posenum>  (228) 
22

>  <r_i_glide_eff_state_penalty>  (228) 
0

>  <ligand_id>  (228) 
53

>  <original_smiles>  (228) 
O=C1c2ccccc2C2(c3ccccc3)SCCN12

>  <smiles>  (228) 
[H]c1c([H])c([H])c(C23SC([H])([H])C([H])([H])N2C(=O)c2c([H])c([H])c([H])c([H])c23)c([H])c1[H]

$$$$
53:0:1
     RDKit          3D

 32 35  0  0  1  0  0  0  0  0999 V2000
    7.4892   -2.4239   -0.9893 O   0  0  0  0  0  0  0  0  0  0  0  0
    6.2986   -2.5523   -0.7302 C   0  0  0  0  0  0  0  0  0  0  0  0
    5.2288   -2.8780   -1.7158 C   0  0  0  0  0  0  0  0  0  0  0  0
    5.4175   -3.2003   -3.0585 C   0  0  0  0  0  0  0  0  0  0  0  0
    4.2447   -3.4316   -3.8164 C   0  0  0  0  0  0  0  0  0  0  0  0
    2.9570   -3.3154   -3.2186 C   0  0  0  0  0  0  0  0  0  0  0  0
    2.8013   -3.0153   -1.8528 C   0  0  0  0  0  0  0  0  0  0  0  0
    3.9870   -2.7913   -1.1318 C   0  0  0  0  0  0  0  0  0  0  0  0
    4.1794   -2.4790    0.3505 C   0  0  2  0  0  0  0  0  0  0  0  0
    3.7154   -3.6021    1.3014 C   0  0  0  0  0  0  0  0  0  0  0  0
    4.4834   -4.7892    1.4115 C   0  0  0  0  0  0  0  0  0  0  0  0
    4.0728   -5.8485    2.2475 C   0  0  0  0  0  0  0  0  0  0  0  0
    2.8751   -5.7428    2.9849 C   0  0  0  0  0  0  0  0  0  0  0  0
    2.1059   -4.5635    2.8957 C   0  0  0  0  0  0  0  0  0  0  0  0
    2.5185   -3.5054    2.0548 C   0  0  0  0  0  0  0  0  0  0  0  0
    3.5847   -0.8188    0.8456 S   0  0  0  0  0  0  0  0  0  0  0  0
    5.1790   -0.2695    1.5162 C   0  0  0  0  0  0  0  0  0  0  0  0
    6.1295   -1.4582    1.5004 C   0  0  0  0  0  0  0  0  0  0  0  0
    5.6514   -2.3034    0.4266 N   0  0  0  0  0  0  0  0  0  0  0  0
    6.4063   -3.2801   -3.4832 H   0  0  0  0  0  0  0  0  0  0  0  0
    4.3474   -3.7344   -4.8491 H   0  0  0  0  0  0  0  0  0  0  0  0
    2.0825   -3.5309   -3.8460 H   0  0  0  0  0  0  0  0  0  0  0  0
    1.8360   -2.9796   -1.4023 H   0  0  0  0  0  0  0  0  0  0  0  0
    5.4044   -4.8987    0.8646 H   0  0  0  0  0  0  0  0  0  0  0  0
    4.6729   -6.7412    2.3088 H   0  0  0  0  0  0  0  0  0  0  0  0
    2.5502   -6.5624    3.6047 H   0  0  0  0  0  0  0  0  0  0  0  0
    1.1906   -4.4721    3.4592 H   0  0  0  0  0  0  0  0  0  0  0  0
    1.8995   -2.6228    2.0116 H   0  0  0  0  0  0  0  0  0  0  0  0
    5.5524    0.4964    0.8409 H   0  0  0  0  0  0  0  0  0  0  0  0
    5.1080    0.1701    2.5094 H   0  0  0  0  0  0  0  0  0  0  0  0
    7.1619   -1.1410    1.3524 H   0  0  0  0  0  0  0  0  0  0  0  0
    6.0930   -2.0043    2.4416 H   0  0  0  0  0  0  0  0  0  0  0  0
  1  2  2  0
  2 19  1  0
  2  3  1  0
  3  8  2  0
  3  4  1  0
  4  5  2  0
  4 20  1  0
  5  6  1  0
  5 21  1  0
  6  7  2  0
  6 22  1  0
  7  8  1  0
  7 23  1  0
  8  9  1  0
  9 19  1  0
  9 10  1  1
  9 16  1  0
 10 15  1  0
 10 11  2  0
 11 12  1  0
 11 24  1  0
 12 13  2  0
 12 25  1  0
 13 14  1  0
 13 26  1  0
 14 15  2  0
 14 27  1  0
 15 28  1  0
 16 17  1  0
 17 18  1  0
 17 29  1  0
 17 30  1  0
 18 19  1  0
 18 31  1  0
 18 32  1  0
M  END
>  <i_m_ct_stereo_status>  (229) 
1

>  <s_m_source_file>  (229) 
/var/tmp/pbs.5102103.sched01/tmpup5_gzpn/66d1evxq16.sdf

>  <i_m_source_file_index>  (229) 
19

>  <i_lp_mmshare_version>  (229) 
48012

>  <i_f3d_flags>  (229) 
0

>  <s_epik_input>  (229) 
UzFbQ0gyXVtDSDJdTjJDKD1PKWMoW2NIXVtjSF1bY0hdW2NIXTMpYzNbQ0BdMTJjNFtjSF1bY0hdW2NIXVtjSF1bY0hdNA==

>  <s_epik_cmdline>  (229) 
J2VwaWtfcHl0aG9uJywgJy1waHQnLCAnMi4wJywgJy1waCcsICc3LjAnLCAnLXRuJywgJzgnLCAnLW1hJywgJzIwMCcsICctaW1hZScsICc8aW5maWxlLm1hZT4nLCAnLW9tYWUnLCAnPG91dGZpbGUubWFlPic=

>  <r_lp_tautomer_probability>  (229) 
1

>  <r_epik_Ionization_Penalty>  (229) 
1.37044e-12

>  <r_epik_Ionization_Penalty_Charging>  (229) 
0

>  <r_epik_Ionization_Penalty_Neutral>  (229) 
1.37044e-12

>  <r_epik_State_Penalty>  (229) 
-0

>  <r_epik_Charging_Adjusted_Penalty>  (229) 
0

>  <i_epik_Tot_Q>  (229) 
0

>  <i_epik_Tot_abs_Q>  (229) 
0

>  <s_lp_Force_Field>  (229) 
OPLS3e

>  <r_lp_Energy>  (229) 
23.5975

>  <b_lp_Chiralities_Consistent>  (229) 
1

>  <s_lp_Variant>  (229) 
53:0-1

>  <s_i_glide_gridfile>  (229) 
pfpi4k_grid

>  <i_i_glide_lignum>  (229) 
19

>  <i_i_glide_rotatable_bonds>  (229) 
1

>  <r_i_docking_score>  (229) 
-3.76081

>  <r_i_glide_ligand_efficiency>  (229) 
-0.197937

>  <r_i_glide_ligand_efficiency_sa>  (229) 
-0.528176

>  <r_i_glide_ligand_efficiency_ln>  (229) 
-0.953446

>  <r_i_glide_gscore>  (229) 
-3.76081

>  <r_i_glide_lipo>  (229) 
-0.833642

>  <r_i_glide_hbond>  (229) 
-0.16

>  <r_i_glide_metal>  (229) 
-0

>  <r_i_glide_rewards>  (229) 
-1.65082

>  <r_i_glide_evdw>  (229) 
-24.3871

>  <r_i_glide_ecoul>  (229) 
-0.84855

>  <r_i_glide_erotb>  (229) 
0.249468

>  <r_i_glide_esite>  (229) 
-0.0191794

>  <r_i_glide_emodel>  (229) 
-30.3821

>  <r_i_glide_energy>  (229) 
-25.2357

>  <r_i_glide_einternal>  (229) 
1.25925

>  <r_i_glide_intrahb_reward>  (229) 
-0

>  <i_i_glide_confnum>  (229) 
3

>  <i_i_glide_posenum>  (229) 
3

>  <r_i_glide_eff_state_penalty>  (229) 
0

>  <ligand_id>  (229) 
53

>  <original_smiles>  (229) 
O=C1c2ccccc2C2(c3ccccc3)SCCN12

>  <smiles>  (229) 
[H]c1c([H])c([H])c(C23SC([H])([H])C([H])([H])N2C(=O)c2c([H])c([H])c([H])c([H])c23)c([H])c1[H]

$$$$
53:0:2
     RDKit          3D

 32 35  0  0  1  0  0  0  0  0999 V2000
    0.5746   -6.2637    1.1546 O   0  0  0  0  0  0  0  0  0  0  0  0
    1.1025   -7.0416    1.9403 C   0  0  0  0  0  0  0  0  0  0  0  0
    2.5281   -7.4262    1.9826 C   0  0  0  0  0  0  0  0  0  0  0  0
    3.5551   -6.9229    1.1794 C   0  0  0  0  0  0  0  0  0  0  0  0
    4.8391   -7.4871    1.3477 C   0  0  0  0  0  0  0  0  0  0  0  0
    5.0621   -8.5169    2.3116 C   0  0  0  0  0  0  0  0  0  0  0  0
    4.0044   -8.9947    3.1307 C   0  0  0  0  0  0  0  0  0  0  0  0
    2.7461   -8.4175    2.9380 C   0  0  0  0  0  0  0  0  0  0  0  0
    1.4185   -8.6483    3.6659 C   0  0  2  0  0  0  0  0  0  0  0  0
    1.4659   -8.2670    5.1591 C   0  0  0  0  0  0  0  0  0  0  0  0
    1.2854   -6.9146    5.5529 C   0  0  0  0  0  0  0  0  0  0  0  0
    1.3432   -6.5348    6.9078 C   0  0  0  0  0  0  0  0  0  0  0  0
    1.5944   -7.5033    7.8995 C   0  0  0  0  0  0  0  0  0  0  0  0
    1.7646   -8.8543    7.5279 C   0  0  0  0  0  0  0  0  0  0  0  0
    1.7099   -9.2313    6.1673 C   0  0  0  0  0  0  0  0  0  0  0  0
    0.6983  -10.2977    3.3687 S   0  0  0  0  0  0  0  0  0  0  0  0
   -0.8859   -9.6377    2.7456 C   0  0  0  0  0  0  0  0  0  0  0  0
   -0.8902   -8.1319    2.9512 C   0  0  0  0  0  0  0  0  0  0  0  0
    0.5059   -7.7658    2.9037 N   0  0  0  0  0  0  0  0  0  0  0  0
    3.3604   -6.1527    0.4378 H   0  0  0  0  0  0  0  0  0  0  0  0
    5.6541   -7.1363    0.7280 H   0  0  0  0  0  0  0  0  0  0  0  0
    6.0656   -8.9214    2.4083 H   0  0  0  0  0  0  0  0  0  0  0  0
    4.1884   -9.7629    3.8700 H   0  0  0  0  0  0  0  0  0  0  0  0
    1.0953   -6.1472    4.8232 H   0  0  0  0  0  0  0  0  0  0  0  0
    1.2173   -5.4980    7.1740 H   0  0  0  0  0  0  0  0  0  0  0  0
    1.6674   -7.2078    8.9339 H   0  0  0  0  0  0  0  0  0  0  0  0
    1.9530   -9.6065    8.2784 H   0  0  0  0  0  0  0  0  0  0  0  0
    1.8377  -10.2765    5.9227 H   0  0  0  0  0  0  0  0  0  0  0  0
   -0.9313   -9.8708    1.6832 H   0  0  0  0  0  0  0  0  0  0  0  0
   -1.7672  -10.0899    3.1898 H   0  0  0  0  0  0  0  0  0  0  0  0
   -1.4822   -7.6309    2.1852 H   0  0  0  0  0  0  0  0  0  0  0  0
   -1.3228   -7.8769    3.9154 H   0  0  0  0  0  0  0  0  0  0  0  0
  1  2  2  0
  2 19  1  0
  2  3  1  0
  3  8  2  0
  3  4  1  0
  4  5  2  0
  4 20  1  0
  5  6  1  0
  5 21  1  0
  6  7  2  0
  6 22  1  0
  7  8  1  0
  7 23  1  0
  8  9  1  0
  9 19  1  0
  9 10  1  1
  9 16  1  0
 10 15  1  0
 10 11  2  0
 11 12  1  0
 11 24  1  0
 12 13  2  0
 12 25  1  0
 13 14  1  0
 13 26  1  0
 14 15  2  0
 14 27  1  0
 15 28  1  0
 16 17  1  0
 17 18  1  0
 17 29  1  0
 17 30  1  0
 18 19  1  0
 18 31  1  0
 18 32  1  0
M  END
>  <i_m_ct_stereo_status>  (230) 
1

>  <s_m_source_file>  (230) 
/var/tmp/pbs.5102103.sched01/tmpup5_gzpn/66d1evxq16.sdf

>  <i_m_source_file_index>  (230) 
19

>  <i_lp_mmshare_version>  (230) 
48012

>  <i_f3d_flags>  (230) 
0

>  <s_epik_input>  (230) 
UzFbQ0gyXVtDSDJdTjJDKD1PKWMoW2NIXVtjSF1bY0hdW2NIXTMpYzNbQ0BdMTJjNFtjSF1bY0hdW2NIXVtjSF1bY0hdNA==

>  <s_epik_cmdline>  (230) 
J2VwaWtfcHl0aG9uJywgJy1waHQnLCAnMi4wJywgJy1waCcsICc3LjAnLCAnLXRuJywgJzgnLCAnLW1hJywgJzIwMCcsICctaW1hZScsICc8aW5maWxlLm1hZT4nLCAnLW9tYWUnLCAnPG91dGZpbGUubWFlPic=

>  <r_lp_tautomer_probability>  (230) 
1

>  <r_epik_Ionization_Penalty>  (230) 
1.37044e-12

>  <r_epik_Ionization_Penalty_Charging>  (230) 
0

>  <r_epik_Ionization_Penalty_Neutral>  (230) 
1.37044e-12

>  <r_epik_State_Penalty>  (230) 
-0

>  <r_epik_Charging_Adjusted_Penalty>  (230) 
0

>  <i_epik_Tot_Q>  (230) 
0

>  <i_epik_Tot_abs_Q>  (230) 
0

>  <s_lp_Force_Field>  (230) 
OPLS3e

>  <r_lp_Energy>  (230) 
23.5975

>  <b_lp_Chiralities_Consistent>  (230) 
1

>  <s_lp_Variant>  (230) 
53:0-1

>  <s_i_glide_gridfile>  (230) 
pfpi4k_grid

>  <i_i_glide_lignum>  (230) 
19

>  <i_i_glide_rotatable_bonds>  (230) 
1

>  <r_i_docking_score>  (230) 
-3.40838

>  <r_i_glide_ligand_efficiency>  (230) 
-0.179388

>  <r_i_glide_ligand_efficiency_sa>  (230) 
-0.47868

>  <r_i_glide_ligand_efficiency_ln>  (230) 
-0.864097

>  <r_i_glide_gscore>  (230) 
-3.40838

>  <r_i_glide_lipo>  (230) 
-0.191149

>  <r_i_glide_hbond>  (230) 
-0.16

>  <r_i_glide_metal>  (230) 
-0

>  <r_i_glide_rewards>  (230) 
-1.58627

>  <r_i_glide_evdw>  (230) 
-20.7882

>  <r_i_glide_ecoul>  (230) 
-3.97956

>  <r_i_glide_erotb>  (230) 
0.249468

>  <r_i_glide_esite>  (230) 
-0.0840772

>  <r_i_glide_emodel>  (230) 
-29.53

>  <r_i_glide_energy>  (230) 
-24.7678

>  <r_i_glide_einternal>  (230) 
0.851453

>  <r_i_glide_intrahb_reward>  (230) 
-0

>  <i_i_glide_confnum>  (230) 
3

>  <i_i_glide_posenum>  (230) 
15

>  <r_i_glide_eff_state_penalty>  (230) 
0

>  <ligand_id>  (230) 
53

>  <original_smiles>  (230) 
O=C1c2ccccc2C2(c3ccccc3)SCCN12

>  <smiles>  (230) 
[H]c1c([H])c([H])c(C23SC([H])([H])C([H])([H])N2C(=O)c2c([H])c([H])c([H])c([H])c23)c([H])c1[H]

$$$$
54:1:0
     RDKit          3D

 41 44  0  0  1  0  0  0  0  0999 V2000
   -3.7831   -7.5911   -4.7213 F   0  0  0  0  0  0  0  0  0  0  0  0
   -4.9410   -7.4081   -5.3825 C   0  0  0  0  0  0  0  0  0  0  0  0
   -5.0674   -7.9738   -6.6607 C   0  0  0  0  0  0  0  0  0  0  0  0
   -6.2816   -7.8458   -7.3733 C   0  0  0  0  0  0  0  0  0  0  0  0
   -7.3627   -7.1218   -6.8182 C   0  0  0  0  0  0  0  0  0  0  0  0
   -8.5923   -7.1001   -7.5506 N   0  0  0  0  0  0  0  0  0  0  0  0
   -8.9291   -8.1405   -8.3607 N   0  0  0  0  0  0  0  0  0  0  0  0
  -10.0397   -7.8994   -8.9415 C   0  0  0  0  0  0  0  0  0  0  0  0
  -10.5421   -8.6424  -10.0879 C   0  0  0  0  0  0  0  0  0  0  0  0
  -10.5569   -9.9968  -10.1114 C   0  0  0  0  0  0  0  0  0  0  0  0
  -10.0596  -10.9809   -9.1444 C   0  0  0  0  0  0  0  0  0  0  0  0
  -10.1134  -10.8188   -7.7350 C   0  0  0  0  0  0  0  0  0  0  0  0
   -9.5237  -11.7692   -6.8793 C   0  0  0  0  0  0  0  0  0  0  0  0
   -8.9302  -12.9319   -7.4155 C   0  0  0  0  0  0  0  0  0  0  0  0
   -8.9529  -13.1522   -8.8038 C   0  0  0  0  0  0  0  0  0  0  0  0
   -9.4993  -12.1743   -9.6619 C   0  0  0  0  0  0  0  0  0  0  0  0
  -11.3871   -7.8302  -11.0730 C   0  0  0  0  0  0  0  0  0  0  0  0
  -12.0828   -6.5850  -10.4961 C   0  0  0  0  0  0  0  0  0  0  0  0
  -11.1349   -5.7983   -9.5957 C   0  0  0  0  0  0  0  0  0  0  0  0
  -10.6605   -6.6491   -8.4473 C   0  0  2  0  0  0  0  0  0  0  0  0
   -9.5078   -6.0979   -7.6567 C   0  0  0  0  0  0  0  0  0  0  0  0
   -9.5041   -4.5155   -7.0833 S   0  0  0  0  0  0  0  0  0  0  0  0
   -7.2250   -6.5947   -5.5021 C   0  0  0  0  0  0  0  0  0  0  0  0
   -5.9965   -6.6953   -4.8071 C   0  0  0  0  0  0  0  0  0  0  0  0
   -4.2425   -8.5056   -7.0713 H   0  0  0  0  0  0  0  0  0  0  0  0
   -6.3283   -8.3044   -8.3480 H   0  0  0  0  0  0  0  0  0  0  0  0
  -11.0972  -10.4195  -10.9449 H   0  0  0  0  0  0  0  0  0  0  0  0
  -10.6008   -9.9804   -7.2659 H   0  0  0  0  0  0  0  0  0  0  0  0
   -9.5508  -11.6026   -5.8177 H   0  0  0  0  0  0  0  0  0  0  0  0
   -8.5052  -13.6795   -6.7634 H   0  0  0  0  0  0  0  0  0  0  0  0
   -8.5308  -14.0511   -9.2054 H   0  0  0  0  0  0  0  0  0  0  0  0
   -9.4905  -12.3306  -10.7218 H   0  0  0  0  0  0  0  0  0  0  0  0
  -10.6614   -7.4593  -11.8116 H   0  0  0  0  0  0  0  0  0  0  0  0
  -12.1179   -8.4681  -11.5877 H   0  0  0  0  0  0  0  0  0  0  0  0
  -12.4339   -5.9279  -11.2921 H   0  0  0  0  0  0  0  0  0  0  0  0
  -12.9582   -6.8734   -9.9013 H   0  0  0  0  0  0  0  0  0  0  0  0
  -10.2766   -5.4047  -10.1406 H   0  0  0  0  0  0  0  0  0  0  0  0
  -11.6906   -4.9807   -9.1550 H   0  0  0  0  0  0  0  0  0  0  0  0
  -11.4982   -6.8744   -7.7692 H   0  0  0  0  0  0  0  0  0  0  0  0
   -8.0323   -6.1627   -4.9502 H   0  0  0  0  0  0  0  0  0  0  0  0
   -5.8900   -6.2746   -3.8260 H   0  0  0  0  0  0  0  0  0  0  0  0
  1  2  1  0
  2 24  2  0
  2  3  1  0
  3  4  2  0
  3 25  1  0
  4  5  1  0
  4 26  1  0
  5  6  1  0
  5 23  2  0
  6 21  1  0
  6  7  1  0
  7  8  2  0
  8 20  1  0
  8  9  1  0
  9 10  2  3
  9 17  1  0
 10 11  1  0
 10 27  1  0
 11 16  1  0
 11 12  2  0
 12 13  1  0
 12 28  1  0
 13 14  2  0
 13 29  1  0
 14 15  1  0
 14 30  1  0
 15 16  2  0
 15 31  1  0
 16 32  1  0
 17 18  1  0
 17 33  1  0
 17 34  1  0
 18 19  1  0
 18 35  1  0
 18 36  1  0
 19 20  1  0
 19 37  1  0
 19 38  1  0
 20 21  1  0
 20 39  1  1
 21 22  2  0
 23 24  1  0
 23 40  1  0
 24 41  1  0
M  END
>  <i_m_ct_stereo_status>  (231) 
1

>  <s_m_source_file>  (231) 
/var/tmp/pbs.5102103.sched01/tmpup5_gzpn/66d1evxq16.sdf

>  <i_m_source_file_index>  (231) 
21

>  <i_lp_mmshare_version>  (231) 
48012

>  <i_f3d_flags>  (231) 
0

>  <s_epik_input>  (231) 
RmMxW2NIXVtjSF1jKFtjSF1bY0hdMSlOKE49MilDKD1TKVtDQEhdKEMyMylbQ0gyXVtDSDJdW0NIMl1DXDM9W0NIXS9jNFtjSF1bY0hdW2NIXVtjSF1bY0hdNA==

>  <s_epik_cmdline>  (231) 
J2VwaWtfcHl0aG9uJywgJy1waHQnLCAnMi4wJywgJy1waCcsICc3LjAnLCAnLXRuJywgJzgnLCAnLW1hJywgJzIwMCcsICctaW1hZScsICc8aW5maWxlLm1hZT4nLCAnLW9tYWUnLCAnPG91dGZpbGUubWFlPic=

>  <r_lp_tautomer_probability>  (231) 
1

>  <r_epik_Ionization_Penalty>  (231) 
6.20376e-05

>  <r_epik_Ionization_Penalty_Charging>  (231) 
0

>  <r_epik_Ionization_Penalty_Neutral>  (231) 
6.20376e-05

>  <r_epik_State_Penalty>  (231) 
-0

>  <r_epik_Charging_Adjusted_Penalty>  (231) 
0

>  <i_epik_Tot_Q>  (231) 
0

>  <i_epik_Tot_abs_Q>  (231) 
0

>  <s_epik_Chemistry_Notes>  (231) 
This compound has an imine and may undergo hydrolysis.

>  <s_lp_Force_Field>  (231) 
OPLS3e

>  <r_lp_Energy>  (231) 
35.1643

>  <b_lp_Chiralities_Consistent>  (231) 
1

>  <s_lp_Variant>  (231) 
54:0-2

>  <s_i_glide_gridfile>  (231) 
pfpi4k_grid

>  <i_i_glide_lignum>  (231) 
21

>  <i_i_glide_rotatable_bonds>  (231) 
2

>  <r_i_docking_score>  (231) 
-4.89286

>  <r_i_glide_ligand_efficiency>  (231) 
-0.203869

>  <r_i_glide_ligand_efficiency_sa>  (231) 
-0.58806

>  <r_i_glide_ligand_efficiency_ln>  (231) 
-1.17109

>  <r_i_glide_gscore>  (231) 
-4.89286

>  <r_i_glide_lipo>  (231) 
-1.59398

>  <r_i_glide_hbond>  (231) 
0

>  <r_i_glide_metal>  (231) 
-0

>  <r_i_glide_rewards>  (231) 
-2.05206

>  <r_i_glide_evdw>  (231) 
-24.7376

>  <r_i_glide_ecoul>  (231) 
-0.792432

>  <r_i_glide_erotb>  (231) 
0.166865

>  <r_i_glide_esite>  (231) 
-0.0579449

>  <r_i_glide_emodel>  (231) 
-27.228

>  <r_i_glide_energy>  (231) 
-25.53

>  <r_i_glide_einternal>  (231) 
1.55008

>  <r_i_glide_intrahb_reward>  (231) 
-0

>  <i_i_glide_confnum>  (231) 
1

>  <i_i_glide_posenum>  (231) 
15

>  <r_i_glide_eff_state_penalty>  (231) 
0

>  <ligand_id>  (231) 
54

>  <original_smiles>  (231) 
Fc1ccc(N2N=C3C(=Cc4ccccc4)CCCC3C2=S)cc1

>  <smiles>  (231) 
[H]C(=C1C2=NN(c3c([H])c([H])c(F)c([H])c3[H])C(=S)C2([H])C([H])([H])C([H])([H])C1([H])[H])c1c([H])c([H])c([H])c([H])c1[H]

$$$$
54:1:1
     RDKit          3D

 41 44  0  0  1  0  0  0  0  0999 V2000
   -3.7825   -7.5252   -4.7343 F   0  0  0  0  0  0  0  0  0  0  0  0
   -4.9496   -7.3865   -5.3983 C   0  0  0  0  0  0  0  0  0  0  0  0
   -5.1016   -7.9946   -6.6537 C   0  0  0  0  0  0  0  0  0  0  0  0
   -6.3133   -7.8357   -7.3635 C   0  0  0  0  0  0  0  0  0  0  0  0
   -7.3585   -7.0476   -6.8273 C   0  0  0  0  0  0  0  0  0  0  0  0
   -8.5837   -6.9060   -7.5567 N   0  0  0  0  0  0  0  0  0  0  0  0
   -8.9138   -7.8919   -8.3943 N   0  0  0  0  0  0  0  0  0  0  0  0
  -10.0449   -7.6781   -8.9530 C   0  0  0  0  0  0  0  0  0  0  0  0
  -10.5919   -8.4447  -10.0604 C   0  0  0  0  0  0  0  0  0  0  0  0
  -10.6393   -9.8050  -10.0770 C   0  0  0  0  0  0  0  0  0  0  0  0
  -10.1138  -10.8520   -9.1575 C   0  0  0  0  0  0  0  0  0  0  0  0
   -8.8574  -10.7692   -8.5144 C   0  0  0  0  0  0  0  0  0  0  0  0
   -8.4480  -11.7024   -7.5657 C   0  0  0  0  0  0  0  0  0  0  0  0
   -9.2042  -12.8656   -7.3990 C   0  0  0  0  0  0  0  0  0  0  0  0
  -10.4335  -13.0394   -8.0723 C   0  0  0  0  0  0  0  0  0  0  0  0
  -10.9071  -12.0143   -8.9347 C   0  0  0  0  0  0  0  0  0  0  0  0
  -11.3817   -7.5979  -11.0606 C   0  0  0  0  0  0  0  0  0  0  0  0
  -12.0561   -6.3501  -10.4662 C   0  0  0  0  0  0  0  0  0  0  0  0
  -11.1148   -5.5740   -9.5251 C   0  0  0  0  0  0  0  0  0  0  0  0
  -10.6645   -6.4626   -8.3777 C   0  0  2  0  0  0  0  0  0  0  0  0
   -9.5183   -5.9221   -7.5386 C   0  0  0  0  0  0  0  0  0  0  0  0
   -9.5166   -4.3718   -6.8425 S   0  0  0  0  0  0  0  0  0  0  0  0
   -7.2056   -6.5128   -5.5233 C   0  0  0  0  0  0  0  0  0  0  0  0
   -5.9890   -6.6548   -4.8191 C   0  0  0  0  0  0  0  0  0  0  0  0
   -4.2839   -8.5462   -7.0763 H   0  0  0  0  0  0  0  0  0  0  0  0
   -6.3828   -8.3062   -8.3306 H   0  0  0  0  0  0  0  0  0  0  0  0
  -11.2096  -10.2131  -10.8963 H   0  0  0  0  0  0  0  0  0  0  0  0
   -8.1122  -10.0405   -8.7396 H   0  0  0  0  0  0  0  0  0  0  0  0
   -7.5186  -11.5351   -7.0429 H   0  0  0  0  0  0  0  0  0  0  0  0
   -8.7885  -13.6585   -6.7860 H   0  0  0  0  0  0  0  0  0  0  0  0
  -11.0007  -13.9480   -7.9249 H   0  0  0  0  0  0  0  0  0  0  0  0
  -11.8505  -12.1733   -9.4530 H   0  0  0  0  0  0  0  0  0  0  0  0
  -10.6294   -7.2584  -11.7803 H   0  0  0  0  0  0  0  0  0  0  0  0
  -12.1065   -8.2119  -11.5967 H   0  0  0  0  0  0  0  0  0  0  0  0
  -12.3961   -5.6911  -11.2615 H   0  0  0  0  0  0  0  0  0  0  0  0
  -12.9418   -6.6571   -9.9078 H   0  0  0  0  0  0  0  0  0  0  0  0
  -10.2494   -5.1870  -10.0762 H   0  0  0  0  0  0  0  0  0  0  0  0
  -11.6528   -4.7371   -9.0782 H   0  0  0  0  0  0  0  0  0  0  0  0
  -11.5089   -6.7105   -7.7083 H   0  0  0  0  0  0  0  0  0  0  0  0
   -7.9949   -6.0154   -4.9934 H   0  0  0  0  0  0  0  0  0  0  0  0
   -5.8642   -6.2024   -3.8390 H   0  0  0  0  0  0  0  0  0  0  0  0
  1  2  1  0
  2 24  2  0
  2  3  1  0
  3  4  2  0
  3 25  1  0
  4  5  1  0
  4 26  1  0
  5  6  1  0
  5 23  2  0
  6 21  1  0
  6  7  1  0
  7  8  2  0
  8 20  1  0
  8  9  1  0
  9 10  2  3
  9 17  1  0
 10 11  1  0
 10 27  1  0
 11 16  1  0
 11 12  2  0
 12 13  1  0
 12 28  1  0
 13 14  2  0
 13 29  1  0
 14 15  1  0
 14 30  1  0
 15 16  2  0
 15 31  1  0
 16 32  1  0
 17 18  1  0
 17 33  1  0
 17 34  1  0
 18 19  1  0
 18 35  1  0
 18 36  1  0
 19 20  1  0
 19 37  1  0
 19 38  1  0
 20 21  1  0
 20 39  1  1
 21 22  2  0
 23 24  1  0
 23 40  1  0
 24 41  1  0
M  END
>  <i_m_ct_stereo_status>  (232) 
1

>  <s_m_source_file>  (232) 
/var/tmp/pbs.5102103.sched01/tmpup5_gzpn/66d1evxq16.sdf

>  <i_m_source_file_index>  (232) 
21

>  <i_lp_mmshare_version>  (232) 
48012

>  <i_f3d_flags>  (232) 
0

>  <s_epik_input>  (232) 
RmMxW2NIXVtjSF1jKFtjSF1bY0hdMSlOKE49MilDKD1TKVtDQEhdKEMyMylbQ0gyXVtDSDJdW0NIMl1DXDM9W0NIXS9jNFtjSF1bY0hdW2NIXVtjSF1bY0hdNA==

>  <s_epik_cmdline>  (232) 
J2VwaWtfcHl0aG9uJywgJy1waHQnLCAnMi4wJywgJy1waCcsICc3LjAnLCAnLXRuJywgJzgnLCAnLW1hJywgJzIwMCcsICctaW1hZScsICc8aW5maWxlLm1hZT4nLCAnLW9tYWUnLCAnPG91dGZpbGUubWFlPic=

>  <r_lp_tautomer_probability>  (232) 
1

>  <r_epik_Ionization_Penalty>  (232) 
6.20376e-05

>  <r_epik_Ionization_Penalty_Charging>  (232) 
0

>  <r_epik_Ionization_Penalty_Neutral>  (232) 
6.20376e-05

>  <r_epik_State_Penalty>  (232) 
-0

>  <r_epik_Charging_Adjusted_Penalty>  (232) 
0

>  <i_epik_Tot_Q>  (232) 
0

>  <i_epik_Tot_abs_Q>  (232) 
0

>  <s_epik_Chemistry_Notes>  (232) 
This compound has an imine and may undergo hydrolysis.

>  <s_lp_Force_Field>  (232) 
OPLS3e

>  <r_lp_Energy>  (232) 
35.1643

>  <b_lp_Chiralities_Consistent>  (232) 
1

>  <s_lp_Variant>  (232) 
54:0-2

>  <s_i_glide_gridfile>  (232) 
pfpi4k_grid

>  <i_i_glide_lignum>  (232) 
21

>  <i_i_glide_rotatable_bonds>  (232) 
2

>  <r_i_docking_score>  (232) 
-4.84331

>  <r_i_glide_ligand_efficiency>  (232) 
-0.201805

>  <r_i_glide_ligand_efficiency_sa>  (232) 
-0.582105

>  <r_i_glide_ligand_efficiency_ln>  (232) 
-1.15923

>  <r_i_glide_gscore>  (232) 
-4.84331

>  <r_i_glide_lipo>  (232) 
-1.62789

>  <r_i_glide_hbond>  (232) 
0

>  <r_i_glide_metal>  (232) 
-0

>  <r_i_glide_rewards>  (232) 
-2.2333

>  <r_i_glide_evdw>  (232) 
-23.4794

>  <r_i_glide_ecoul>  (232) 
0.550179

>  <r_i_glide_erotb>  (232) 
0.166865

>  <r_i_glide_esite>  (232) 
-0.0575439

>  <r_i_glide_emodel>  (232) 
-22.8132

>  <r_i_glide_energy>  (232) 
-22.9293

>  <r_i_glide_einternal>  (232) 
2.41183

>  <r_i_glide_intrahb_reward>  (232) 
-0

>  <i_i_glide_confnum>  (232) 
1

>  <i_i_glide_posenum>  (232) 
10

>  <r_i_glide_eff_state_penalty>  (232) 
0

>  <ligand_id>  (232) 
54

>  <original_smiles>  (232) 
Fc1ccc(N2N=C3C(=Cc4ccccc4)CCCC3C2=S)cc1

>  <smiles>  (232) 
[H]C(=C1C2=NN(c3c([H])c([H])c(F)c([H])c3[H])C(=S)C2([H])C([H])([H])C([H])([H])C1([H])[H])c1c([H])c([H])c([H])c([H])c1[H]

$$$$
55:0:0
     RDKit          3D

 61 65  0  0  1  0  0  0  0  0999 V2000
    3.2541    0.8744    4.9438 O   0  0  0  0  0  0  0  0  0  0  0  0
    2.0217    0.9113    5.0076 C   0  0  0  0  0  0  0  0  0  0  0  0
    1.2981    0.8474    6.2943 C   0  0  0  0  0  0  0  0  0  0  0  0
    1.9922    0.6549    7.5015 C   0  0  0  0  0  0  0  0  0  0  0  0
    1.3190    0.6113    8.7330 C   0  0  0  0  0  0  0  0  0  0  0  0
   -0.0894    0.7575    8.7510 C   0  0  0  0  0  0  0  0  0  0  0  0
   -0.7966    0.9546    7.5456 C   0  0  0  0  0  0  0  0  0  0  0  0
   -0.1234    1.0179    6.3032 C   0  0  0  0  0  0  0  0  0  0  0  0
   -0.8352    1.2561    5.1588 O   0  0  0  0  0  0  0  0  0  0  0  0
   -0.1261    1.8336    4.0538 C   0  0  2  0  0  0  0  0  0  0  0  0
    0.2157    3.3300    4.4241 C   0  0  0  0  0  0  0  0  0  0  0  0
   -1.0366    4.1931    4.6110 C   0  0  0  0  0  0  0  0  0  0  0  0
   -1.9375    4.1281    3.3659 C   0  0  0  0  0  0  0  0  0  0  0  0
   -2.3447    2.6812    3.0471 C   0  0  0  0  0  0  0  0  0  0  0  0
   -1.1067    1.8063    2.8234 C   0  0  0  0  0  0  0  0  0  0  0  0
    1.1374    0.9688    3.7351 C   0  0  1  0  0  0  0  0  0  0  0  0
    1.9097    1.5928    2.5257 C   0  0  0  0  0  0  0  0  0  0  0  0
    3.0237    0.6847    2.0139 C   0  0  0  0  0  0  0  0  0  0  0  0
    2.4982   -0.6722    1.6870 N   0  0  1  0  0  0  0  0  0  0  0  0
    3.5096   -1.5619    1.0515 C   0  0  0  0  0  0  0  0  0  0  0  0
    4.7361   -1.7348    1.9778 C   0  0  0  0  0  0  0  0  0  0  0  0
    5.7771   -2.6396    1.3488 C   0  0  0  0  0  0  0  0  0  0  0  0
    6.1952   -2.0969   -0.0220 C   0  0  0  0  0  0  0  0  0  0  0  0
    4.9810   -1.9702   -0.9590 C   0  0  0  0  0  0  0  0  0  0  0  0
    3.9028   -1.0692   -0.3466 C   0  0  0  0  0  0  0  0  0  0  0  0
    1.8510   -1.3218    2.8499 C   0  0  0  0  0  0  0  0  0  0  0  0
    0.6825   -0.4776    3.3491 C   0  0  0  0  0  0  0  0  0  0  0  0
    3.0766    0.5595    7.4922 H   0  0  0  0  0  0  0  0  0  0  0  0
    1.8794    0.4869    9.6469 H   0  0  0  0  0  0  0  0  0  0  0  0
   -0.6017    0.7427    9.7030 H   0  0  0  0  0  0  0  0  0  0  0  0
   -1.8731    1.1059    7.5684 H   0  0  0  0  0  0  0  0  0  0  0  0
    0.8017    3.4029    5.3382 H   0  0  0  0  0  0  0  0  0  0  0  0
    0.8429    3.8009    3.6534 H   0  0  0  0  0  0  0  0  0  0  0  0
   -1.5873    3.8613    5.4911 H   0  0  0  0  0  0  0  0  0  0  0  0
   -0.7199    5.2231    4.7980 H   0  0  0  0  0  0  0  0  0  0  0  0
   -2.8357    4.7347    3.4824 H   0  0  0  0  0  0  0  0  0  0  0  0
   -1.3922    4.5516    2.5235 H   0  0  0  0  0  0  0  0  0  0  0  0
   -2.9573    2.2676    3.8456 H   0  0  0  0  0  0  0  0  0  0  0  0
   -2.9366    2.6660    2.1450 H   0  0  0  0  0  0  0  0  0  0  0  0
   -0.6054    2.2076    1.9449 H   0  0  0  0  0  0  0  0  0  0  0  0
   -1.4759    0.8332    2.5539 H   0  0  0  0  0  0  0  0  0  0  0  0
    1.2618    1.7967    1.6921 H   0  0  0  0  0  0  0  0  0  0  0  0
    2.3976    2.5280    2.7976 H   0  0  0  0  0  0  0  0  0  0  0  0
    3.4404    1.1672    1.1345 H   0  0  0  0  0  0  0  0  0  0  0  0
    3.8133    0.6346    2.7739 H   0  0  0  0  0  0  0  0  0  0  0  0
    3.0293   -2.5263    0.9124 H   0  0  0  0  0  0  0  0  0  0  0  0
    5.2522   -0.7909    2.1769 H   0  0  0  0  0  0  0  0  0  0  0  0
    4.4669   -2.1592    2.9471 H   0  0  0  0  0  0  0  0  0  0  0  0
    6.6239   -2.6636    2.0327 H   0  0  0  0  0  0  0  0  0  0  0  0
    5.3891   -3.6570    1.2764 H   0  0  0  0  0  0  0  0  0  0  0  0
    6.6688   -1.1210    0.0998 H   0  0  0  0  0  0  0  0  0  0  0  0
    6.9338   -2.7627   -0.4581 H   0  0  0  0  0  0  0  0  0  0  0  0
    5.2887   -1.5557   -1.9215 H   0  0  0  0  0  0  0  0  0  0  0  0
    4.5562   -2.9570   -1.1546 H   0  0  0  0  0  0  0  0  0  0  0  0
    3.0241   -1.0462   -0.9994 H   0  0  0  0  0  0  0  0  0  0  0  0
    4.3071   -0.0548   -0.3333 H   0  0  0  0  0  0  0  0  0  0  0  0
    1.4641   -2.3023    2.5726 H   0  0  0  0  0  0  0  0  0  0  0  0
    2.5636   -1.4750    3.6805 H   0  0  0  0  0  0  0  0  0  0  0  0
    0.1962   -1.0005    4.1734 H   0  0  0  0  0  0  0  0  0  0  0  0
   -0.0266   -0.4435    2.5493 H   0  0  0  0  0  0  0  0  0  0  0  0
    1.7534   -0.5539    0.9820 H   0  0  0  0  0  0  0  0  0  0  0  0
  1  2  2  0
  2 16  1  0
  2  3  1  0
  3  8  2  0
  3  4  1  0
  4  5  2  0
  4 28  1  0
  5  6  1  0
  5 29  1  0
  6  7  2  0
  6 30  1  0
  7  8  1  0
  7 31  1  0
  8  9  1  0
 10  9  1  1
 10 15  1  0
 10 11  1  0
 10 16  1  0
 11 12  1  0
 11 32  1  0
 11 33  1  0
 12 13  1  0
 12 34  1  0
 12 35  1  0
 13 14  1  0
 13 36  1  0
 13 37  1  0
 14 15  1  0
 14 38  1  0
 14 39  1  0
 15 40  1  0
 15 41  1  0
 16 27  1  6
 16 17  1  0
 17 18  1  0
 17 42  1  0
 17 43  1  0
 18 19  1  0
 18 44  1  0
 18 45  1  0
 19 20  1  0
 19 26  1  0
 19 61  1  6
 20 25  1  0
 20 21  1  0
 20 46  1  0
 21 22  1  0
 21 47  1  0
 21 48  1  0
 22 23  1  0
 22 49  1  0
 22 50  1  0
 23 24  1  0
 23 51  1  0
 23 52  1  0
 24 25  1  0
 24 53  1  0
 24 54  1  0
 25 55  1  0
 25 56  1  0
 26 27  1  0
 26 57  1  0
 26 58  1  0
 27 59  1  0
 27 60  1  0
M  CHG  1  19   1
M  END
>  <i_m_ct_stereo_status>  (233) 
1

>  <s_m_source_file>  (233) 
/var/tmp/pbs.5102103.sched01/tmpup5_gzpn/66d1evxq16.sdf

>  <i_m_source_file_index>  (233) 
22

>  <i_lp_mmshare_version>  (233) 
48012

>  <i_f3d_flags>  (233) 
0

>  <s_epik_input>  (233) 
W2NIXTFbY0hdW2NIXVtjSF1jKE8yKWMxQyg9TylDMyhDMjRbQ0gyXVtDSDJdW0NIMl1bQ0gyXVtDSDJdNClbQ0gyXVtDSDJdTihbQ0gyXVtDSDJdMylbQ0hdNVtDSDJdW0NIMl1bQ0gyXVtDSDJdW0NIMl01

>  <s_epik_cmdline>  (233) 
J2VwaWtfcHl0aG9uJywgJy1waHQnLCAnMi4wJywgJy1waCcsICc3LjAnLCAnLXRuJywgJzgnLCAnLW1hJywgJzIwMCcsICctaW1hZScsICc8aW5maWxlLm1hZT4nLCAnLW9tYWUnLCAnPG91dGZpbGUubWFlPic=

>  <r_epik_Ionization_Penalty>  (233) 
0.00527432

>  <r_epik_Ionization_Penalty_Charging>  (233) 
0.00527432

>  <r_epik_Ionization_Penalty_Neutral>  (233) 
3.28896e-15

>  <r_epik_State_Penalty>  (233) 
0.00384831

>  <r_epik_Charging_Adjusted_Penalty>  (233) 
0.00912263

>  <i_epik_Tot_Q>  (233) 
1

>  <i_epik_Tot_abs_Q>  (233) 
1

>  <s_lp_Force_Field>  (233) 
OPLS3e

>  <r_lp_Energy>  (233) 
56.9036

>  <b_lp_Chiralities_Consistent>  (233) 
1

>  <s_lp_Variant>  (233) 
55:0-1

>  <s_i_glide_gridfile>  (233) 
pfpi4k_grid

>  <i_i_glide_lignum>  (233) 
22

>  <i_i_glide_rotatable_bonds>  (233) 
1

>  <r_i_docking_score>  (233) 
-3.325

>  <r_i_glide_ligand_efficiency>  (233) 
-0.123148

>  <r_i_glide_ligand_efficiency_sa>  (233) 
-0.369445

>  <r_i_glide_ligand_efficiency_ln>  (233) 
-0.774006

>  <r_i_glide_gscore>  (233) 
-3.325

>  <r_i_glide_lipo>  (233) 
-0.280906

>  <r_i_glide_hbond>  (233) 
-0.173583

>  <r_i_glide_metal>  (233) 
-0

>  <r_i_glide_rewards>  (233) 
-0.896371

>  <r_i_glide_evdw>  (233) 
-26.6643

>  <r_i_glide_ecoul>  (233) 
-4.82723

>  <r_i_glide_erotb>  (233) 
0.14189

>  <r_i_glide_esite>  (233) 
-0.058731

>  <r_i_glide_emodel>  (233) 
-37.3655

>  <r_i_glide_energy>  (233) 
-31.4916

>  <r_i_glide_einternal>  (233) 
0.157981

>  <r_i_glide_intrahb_reward>  (233) 
-0

>  <i_i_glide_confnum>  (233) 
2

>  <i_i_glide_posenum>  (233) 
31

>  <r_i_glide_eff_state_penalty>  (233) 
0

>  <ligand_id>  (233) 
55

>  <original_smiles>  (233) 
O=C1c2ccccc2OC2(CCCCC2)C12CCN(C1CCCCC1)CC2

>  <smiles>  (233) 
[H]c1c([H])c([H])c2c(c1[H])OC1(C([H])([H])C([H])([H])C([H])([H])C([H])([H])C1([H])[H])C1(C2=O)C([H])([H])C([H])([H])[N+]([H])(C2([H])C([H])([H])C([H])([H])C([H])([H])C([H])([H])C2([H])[H])C([H])([H])C1([H])[H]

$$$$
55:0:1
     RDKit          3D

 61 65  0  0  1  0  0  0  0  0999 V2000
    3.3432    0.9794    4.9108 O   0  0  0  0  0  0  0  0  0  0  0  0
    2.1061    0.9969    4.9982 C   0  0  0  0  0  0  0  0  0  0  0  0
    1.4073    0.9436    6.3050 C   0  0  0  0  0  0  0  0  0  0  0  0
    2.1001    0.7883    7.5086 C   0  0  0  0  0  0  0  0  0  0  0  0
    1.4331    0.7603    8.7560 C   0  0  0  0  0  0  0  0  0  0  0  0
    0.0334    0.8794    8.7826 C   0  0  0  0  0  0  0  0  0  0  0  0
   -0.6930    1.0354    7.5700 C   0  0  0  0  0  0  0  0  0  0  0  0
   -0.0306    1.0854    6.3173 C   0  0  0  0  0  0  0  0  0  0  0  0
   -0.7471    1.2871    5.1791 O   0  0  0  0  0  0  0  0  0  0  0  0
   -0.0669    1.8501    4.0493 C   0  0  2  0  0  0  0  0  0  0  0  0
    0.2434    3.3650    4.3763 C   0  0  0  0  0  0  0  0  0  0  0  0
   -1.0246    4.2020    4.5656 C   0  0  0  0  0  0  0  0  0  0  0  0
   -1.9390    4.0849    3.3389 C   0  0  0  0  0  0  0  0  0  0  0  0
   -2.3162    2.6285    3.0431 C   0  0  0  0  0  0  0  0  0  0  0  0
   -1.0595    1.7622    2.8247 C   0  0  0  0  0  0  0  0  0  0  0  0
    1.2161    1.0070    3.7350 C   0  0  1  0  0  0  0  0  0  0  0  0
    1.9931    1.5894    2.5012 C   0  0  0  0  0  0  0  0  0  0  0  0
    3.1135    0.6551    1.9965 C   0  0  0  0  0  0  0  0  0  0  0  0
    2.5745   -0.7020    1.7522 N   0  0  1  0  0  0  0  0  0  0  0  0
    3.5890   -1.6074    1.1242 C   0  0  0  0  0  0  0  0  0  0  0  0
    2.9059   -2.7932    0.4305 C   0  0  0  0  0  0  0  0  0  0  0  0
    3.9386   -3.7806   -0.1328 C   0  0  0  0  0  0  0  0  0  0  0  0
    4.9048   -4.2389    0.9692 C   0  0  0  0  0  0  0  0  0  0  0  0
    5.6249   -3.0432    1.6027 C   0  0  0  0  0  0  0  0  0  0  0  0
    4.6072   -2.0644    2.1885 C   0  0  0  0  0  0  0  0  0  0  0  0
    1.9452   -1.2943    2.9464 C   0  0  0  0  0  0  0  0  0  0  0  0
    0.7651   -0.4509    3.3982 C   0  0  0  0  0  0  0  0  0  0  0  0
    3.1876    0.7141    7.5048 H   0  0  0  0  0  0  0  0  0  0  0  0
    2.0081    0.6750    9.6693 H   0  0  0  0  0  0  0  0  0  0  0  0
   -0.4821    0.8845    9.7358 H   0  0  0  0  0  0  0  0  0  0  0  0
   -1.7695    1.1684    7.6020 H   0  0  0  0  0  0  0  0  0  0  0  0
    0.8341    3.4737    5.2804 H   0  0  0  0  0  0  0  0  0  0  0  0
    0.8633    3.8255    3.5863 H   0  0  0  0  0  0  0  0  0  0  0  0
   -1.5559    3.8840    5.4578 H   0  0  0  0  0  0  0  0  0  0  0  0
   -0.7248    5.2449    4.7230 H   0  0  0  0  0  0  0  0  0  0  0  0
   -2.8452    4.6866    3.4353 H   0  0  0  0  0  0  0  0  0  0  0  0
   -1.3899    4.5088    2.4971 H   0  0  0  0  0  0  0  0  0  0  0  0
   -2.9120    2.2237    3.8552 H   0  0  0  0  0  0  0  0  0  0  0  0
   -2.9192    2.5924    2.1562 H   0  0  0  0  0  0  0  0  0  0  0  0
   -0.5638    2.1306    1.9319 H   0  0  0  0  0  0  0  0  0  0  0  0
   -1.4231    0.7886    2.5760 H   0  0  0  0  0  0  0  0  0  0  0  0
    1.3165    1.7698    1.6946 H   0  0  0  0  0  0  0  0  0  0  0  0
    2.4685    2.5397    2.7432 H   0  0  0  0  0  0  0  0  0  0  0  0
    3.5080    1.0591    1.0644 H   0  0  0  0  0  0  0  0  0  0  0  0
    3.9248    0.6126    2.7360 H   0  0  0  0  0  0  0  0  0  0  0  0
    4.0906   -1.0299    0.3627 H   0  0  0  0  0  0  0  0  0  0  0  0
    2.2607   -3.3538    1.1090 H   0  0  0  0  0  0  0  0  0  0  0  0
    2.2706   -2.4556   -0.3929 H   0  0  0  0  0  0  0  0  0  0  0  0
    3.4010   -4.6412   -0.5466 H   0  0  0  0  0  0  0  0  0  0  0  0
    4.4881   -3.3140   -0.9557 H   0  0  0  0  0  0  0  0  0  0  0  0
    4.3470   -4.7808    1.7361 H   0  0  0  0  0  0  0  0  0  0  0  0
    5.6292   -4.9318    0.5585 H   0  0  0  0  0  0  0  0  0  0  0  0
    6.2437   -3.3899    2.4303 H   0  0  0  0  0  0  0  0  0  0  0  0
    6.2768   -2.5368    0.8792 H   0  0  0  0  0  0  0  0  0  0  0  0
    5.1609   -1.2338    2.6352 H   0  0  0  0  0  0  0  0  0  0  0  0
    4.1166   -2.5799    3.0132 H   0  0  0  0  0  0  0  0  0  0  0  0
    1.5400   -2.2803    2.7594 H   0  0  0  0  0  0  0  0  0  0  0  0
    2.6811   -1.3853    3.7676 H   0  0  0  0  0  0  0  0  0  0  0  0
    0.2892   -0.9574    4.2361 H   0  0  0  0  0  0  0  0  0  0  0  0
    0.0463   -0.4388    2.6107 H   0  0  0  0  0  0  0  0  0  0  0  0
    1.8400   -0.5861    1.0297 H   0  0  0  0  0  0  0  0  0  0  0  0
  1  2  2  0
  2 16  1  0
  2  3  1  0
  3  8  2  0
  3  4  1  0
  4  5  2  0
  4 28  1  0
  5  6  1  0
  5 29  1  0
  6  7  2  0
  6 30  1  0
  7  8  1  0
  7 31  1  0
  8  9  1  0
 10  9  1  1
 10 15  1  0
 10 11  1  0
 10 16  1  0
 11 12  1  0
 11 32  1  0
 11 33  1  0
 12 13  1  0
 12 34  1  0
 12 35  1  0
 13 14  1  0
 13 36  1  0
 13 37  1  0
 14 15  1  0
 14 38  1  0
 14 39  1  0
 15 40  1  0
 15 41  1  0
 16 27  1  6
 16 17  1  0
 17 18  1  0
 17 42  1  0
 17 43  1  0
 18 19  1  0
 18 44  1  0
 18 45  1  0
 19 20  1  0
 19 26  1  0
 19 61  1  6
 20 25  1  0
 20 21  1  0
 20 46  1  0
 21 22  1  0
 21 47  1  0
 21 48  1  0
 22 23  1  0
 22 49  1  0
 22 50  1  0
 23 24  1  0
 23 51  1  0
 23 52  1  0
 24 25  1  0
 24 53  1  0
 24 54  1  0
 25 55  1  0
 25 56  1  0
 26 27  1  0
 26 57  1  0
 26 58  1  0
 27 59  1  0
 27 60  1  0
M  CHG  1  19   1
M  END
>  <i_m_ct_stereo_status>  (234) 
1

>  <s_m_source_file>  (234) 
/var/tmp/pbs.5102103.sched01/tmpup5_gzpn/66d1evxq16.sdf

>  <i_m_source_file_index>  (234) 
22

>  <i_lp_mmshare_version>  (234) 
48012

>  <i_f3d_flags>  (234) 
0

>  <s_epik_input>  (234) 
W2NIXTFbY0hdW2NIXVtjSF1jKE8yKWMxQyg9TylDMyhDMjRbQ0gyXVtDSDJdW0NIMl1bQ0gyXVtDSDJdNClbQ0gyXVtDSDJdTihbQ0gyXVtDSDJdMylbQ0hdNVtDSDJdW0NIMl1bQ0gyXVtDSDJdW0NIMl01

>  <s_epik_cmdline>  (234) 
J2VwaWtfcHl0aG9uJywgJy1waHQnLCAnMi4wJywgJy1waCcsICc3LjAnLCAnLXRuJywgJzgnLCAnLW1hJywgJzIwMCcsICctaW1hZScsICc8aW5maWxlLm1hZT4nLCAnLW9tYWUnLCAnPG91dGZpbGUubWFlPic=

>  <r_epik_Ionization_Penalty>  (234) 
0.00527432

>  <r_epik_Ionization_Penalty_Charging>  (234) 
0.00527432

>  <r_epik_Ionization_Penalty_Neutral>  (234) 
3.28896e-15

>  <r_epik_State_Penalty>  (234) 
0.00384831

>  <r_epik_Charging_Adjusted_Penalty>  (234) 
0.00912263

>  <i_epik_Tot_Q>  (234) 
1

>  <i_epik_Tot_abs_Q>  (234) 
1

>  <s_lp_Force_Field>  (234) 
OPLS3e

>  <r_lp_Energy>  (234) 
56.9036

>  <b_lp_Chiralities_Consistent>  (234) 
1

>  <s_lp_Variant>  (234) 
55:0-1

>  <s_i_glide_gridfile>  (234) 
pfpi4k_grid

>  <i_i_glide_lignum>  (234) 
22

>  <i_i_glide_rotatable_bonds>  (234) 
1

>  <r_i_docking_score>  (234) 
-3.20634

>  <r_i_glide_ligand_efficiency>  (234) 
-0.118753

>  <r_i_glide_ligand_efficiency_sa>  (234) 
-0.35626

>  <r_i_glide_ligand_efficiency_ln>  (234) 
-0.746382

>  <r_i_glide_gscore>  (234) 
-3.20634

>  <r_i_glide_lipo>  (234) 
-0.325008

>  <r_i_glide_hbond>  (234) 
-0.134256

>  <r_i_glide_metal>  (234) 
-0

>  <r_i_glide_rewards>  (234) 
-0.896371

>  <r_i_glide_evdw>  (234) 
-24.4166

>  <r_i_glide_ecoul>  (234) 
-4.80408

>  <r_i_glide_erotb>  (234) 
0.14189

>  <r_i_glide_esite>  (234) 
-0.0511456

>  <r_i_glide_emodel>  (234) 
-32.751

>  <r_i_glide_energy>  (234) 
-29.2207

>  <r_i_glide_einternal>  (234) 
3.69295

>  <r_i_glide_intrahb_reward>  (234) 
-0

>  <i_i_glide_confnum>  (234) 
2

>  <i_i_glide_posenum>  (234) 
1

>  <r_i_glide_eff_state_penalty>  (234) 
0

>  <ligand_id>  (234) 
55

>  <original_smiles>  (234) 
O=C1c2ccccc2OC2(CCCCC2)C12CCN(C1CCCCC1)CC2

>  <smiles>  (234) 
[H]c1c([H])c([H])c2c(c1[H])OC1(C([H])([H])C([H])([H])C([H])([H])C([H])([H])C1([H])[H])C1(C2=O)C([H])([H])C([H])([H])[N+]([H])(C2([H])C([H])([H])C([H])([H])C([H])([H])C([H])([H])C2([H])[H])C([H])([H])C1([H])[H]

$$$$
55:0:2
     RDKit          3D

 61 65  0  0  1  0  0  0  0  0999 V2000
    2.7428   -2.2684    4.3915 O   0  0  0  0  0  0  0  0  0  0  0  0
    2.0859   -1.2460    4.2051 C   0  0  0  0  0  0  0  0  0  0  0  0
    0.6837   -1.0653    4.6342 C   0  0  0  0  0  0  0  0  0  0  0  0
   -0.0168   -2.1479    5.2361 C   0  0  0  0  0  0  0  0  0  0  0  0
   -1.3473   -1.9791    5.6674 C   0  0  0  0  0  0  0  0  0  0  0  0
   -1.9780   -0.7433    5.4656 C   0  0  0  0  0  0  0  0  0  0  0  0
   -1.2991    0.3389    4.8705 C   0  0  0  0  0  0  0  0  0  0  0  0
    0.0488    0.1909    4.4741 C   0  0  0  0  0  0  0  0  0  0  0  0
    0.7024    1.2883    3.9507 O   0  0  0  0  0  0  0  0  0  0  0  0
    2.1105    1.2739    4.0488 C   0  0  2  0  0  0  0  0  0  0  0  0
    2.5171    1.4856    5.5571 C   0  0  0  0  0  0  0  0  0  0  0  0
    2.0744    2.8545    6.1069 C   0  0  0  0  0  0  0  0  0  0  0  0
    2.6102    4.0014    5.2291 C   0  0  0  0  0  0  0  0  0  0  0  0
    2.1644    3.8446    3.7588 C   0  0  0  0  0  0  0  0  0  0  0  0
    2.6112    2.4973    3.1985 C   0  0  0  0  0  0  0  0  0  0  0  0
    2.6797   -0.0454    3.4417 C   0  0  1  0  0  0  0  0  0  0  0  0
    4.2375   -0.0599    3.5493 C   0  0  0  0  0  0  0  0  0  0  0  0
    4.8841   -1.2195    2.7786 C   0  0  0  0  0  0  0  0  0  0  0  0
    4.4366   -1.2057    1.3400 N   0  0  1  0  0  0  0  0  0  0  0  0
    5.1194   -2.2061    0.4679 C   0  0  0  0  0  0  0  0  0  0  0  0
    6.5956   -2.3894    0.8605 C   0  0  0  0  0  0  0  0  0  0  0  0
    7.2906   -3.4050   -0.0340 C   0  0  0  0  0  0  0  0  0  0  0  0
    7.1755   -3.0100   -1.5096 C   0  0  0  0  0  0  0  0  0  0  0  0
    5.7057   -2.8160   -1.9093 C   0  0  0  0  0  0  0  0  0  0  0  0
    5.0052   -1.7906   -1.0127 C   0  0  0  0  0  0  0  0  0  0  0  0
    2.9411   -1.3241    1.2549 C   0  0  0  0  0  0  0  0  0  0  0  0
    2.2839   -0.1339    1.9453 C   0  0  0  0  0  0  0  0  0  0  0  0
    0.4805   -3.1000    5.3741 H   0  0  0  0  0  0  0  0  0  0  0  0
   -1.8553   -2.8195    6.1226 H   0  0  0  0  0  0  0  0  0  0  0  0
   -2.9890   -0.6056    5.7745 H   0  0  0  0  0  0  0  0  0  0  0  0
   -1.8023    1.2950    4.7489 H   0  0  0  0  0  0  0  0  0  0  0  0
    2.0890    0.7232    6.2055 H   0  0  0  0  0  0  0  0  0  0  0  0
    3.6114    1.3923    5.7094 H   0  0  0  0  0  0  0  0  0  0  0  0
    0.9844    2.8939    6.1395 H   0  0  0  0  0  0  0  0  0  0  0  0
    2.4308    2.9543    7.1383 H   0  0  0  0  0  0  0  0  0  0  0  0
    2.2891    4.9733    5.6339 H   0  0  0  0  0  0  0  0  0  0  0  0
    3.7039    4.0017    5.2836 H   0  0  0  0  0  0  0  0  0  0  0  0
    1.0829    3.9438    3.6795 H   0  0  0  0  0  0  0  0  0  0  0  0
    2.6068    4.6379    3.1723 H   0  0  0  0  0  0  0  0  0  0  0  0
    3.7124    2.4866    3.2504 H   0  0  0  0  0  0  0  0  0  0  0  0
    2.3395    2.4596    2.1338 H   0  0  0  0  0  0  0  0  0  0  0  0
    4.6341    0.8754    3.1794 H   0  0  0  0  0  0  0  0  0  0  0  0
    4.5739   -0.1602    4.5809 H   0  0  0  0  0  0  0  0  0  0  0  0
    5.9620   -1.0182    2.8468 H   0  0  0  0  0  0  0  0  0  0  0  0
    4.6327   -2.2005    3.2209 H   0  0  0  0  0  0  0  0  0  0  0  0
    4.6210   -3.1571    0.6300 H   0  0  0  0  0  0  0  0  0  0  0  0
    7.1281   -1.4343    0.8333 H   0  0  0  0  0  0  0  0  0  0  0  0
    6.6901   -2.7880    1.8759 H   0  0  0  0  0  0  0  0  0  0  0  0
    8.3399   -3.4833    0.2618 H   0  0  0  0  0  0  0  0  0  0  0  0
    6.8392   -4.3871    0.1342 H   0  0  0  0  0  0  0  0  0  0  0  0
    7.7256   -2.0874   -1.6726 H   0  0  0  0  0  0  0  0  0  0  0  0
    7.6418   -3.7629   -2.1369 H   0  0  0  0  0  0  0  0  0  0  0  0
    5.6377   -2.4938   -2.9504 H   0  0  0  0  0  0  0  0  0  0  0  0
    5.1717   -3.7679   -1.8446 H   0  0  0  0  0  0  0  0  0  0  0  0
    3.9683   -1.7234   -1.3500 H   0  0  0  0  0  0  0  0  0  0  0  0
    5.4341   -0.7974   -1.1613 H   0  0  0  0  0  0  0  0  0  0  0  0
    2.5938   -1.3004    0.2253 H   0  0  0  0  0  0  0  0  0  0  0  0
    2.6220   -2.2892    1.6781 H   0  0  0  0  0  0  0  0  0  0  0  0
    1.2064   -0.2086    1.7885 H   0  0  0  0  0  0  0  0  0  0  0  0
    2.5829    0.7691    1.4329 H   0  0  0  0  0  0  0  0  0  0  0  0
    4.6705   -0.2752    0.9747 H   0  0  0  0  0  0  0  0  0  0  0  0
  1  2  2  0
  2 16  1  0
  2  3  1  0
  3  8  2  0
  3  4  1  0
  4  5  2  0
  4 28  1  0
  5  6  1  0
  5 29  1  0
  6  7  2  0
  6 30  1  0
  7  8  1  0
  7 31  1  0
  8  9  1  0
 10  9  1  1
 10 15  1  0
 10 11  1  0
 10 16  1  0
 11 12  1  0
 11 32  1  0
 11 33  1  0
 12 13  1  0
 12 34  1  0
 12 35  1  0
 13 14  1  0
 13 36  1  0
 13 37  1  0
 14 15  1  0
 14 38  1  0
 14 39  1  0
 15 40  1  0
 15 41  1  0
 16 27  1  6
 16 17  1  0
 17 18  1  0
 17 42  1  0
 17 43  1  0
 18 19  1  0
 18 44  1  0
 18 45  1  0
 19 20  1  0
 19 26  1  0
 19 61  1  6
 20 25  1  0
 20 21  1  0
 20 46  1  0
 21 22  1  0
 21 47  1  0
 21 48  1  0
 22 23  1  0
 22 49  1  0
 22 50  1  0
 23 24  1  0
 23 51  1  0
 23 52  1  0
 24 25  1  0
 24 53  1  0
 24 54  1  0
 25 55  1  0
 25 56  1  0
 26 27  1  0
 26 57  1  0
 26 58  1  0
 27 59  1  0
 27 60  1  0
M  CHG  1  19   1
M  END
>  <i_m_ct_stereo_status>  (235) 
1

>  <s_m_source_file>  (235) 
/var/tmp/pbs.5102103.sched01/tmpup5_gzpn/66d1evxq16.sdf

>  <i_m_source_file_index>  (235) 
22

>  <i_lp_mmshare_version>  (235) 
48012

>  <i_f3d_flags>  (235) 
0

>  <s_epik_input>  (235) 
W2NIXTFbY0hdW2NIXVtjSF1jKE8yKWMxQyg9TylDMyhDMjRbQ0gyXVtDSDJdW0NIMl1bQ0gyXVtDSDJdNClbQ0gyXVtDSDJdTihbQ0gyXVtDSDJdMylbQ0hdNVtDSDJdW0NIMl1bQ0gyXVtDSDJdW0NIMl01

>  <s_epik_cmdline>  (235) 
J2VwaWtfcHl0aG9uJywgJy1waHQnLCAnMi4wJywgJy1waCcsICc3LjAnLCAnLXRuJywgJzgnLCAnLW1hJywgJzIwMCcsICctaW1hZScsICc8aW5maWxlLm1hZT4nLCAnLW9tYWUnLCAnPG91dGZpbGUubWFlPic=

>  <r_epik_Ionization_Penalty>  (235) 
0.00527432

>  <r_epik_Ionization_Penalty_Charging>  (235) 
0.00527432

>  <r_epik_Ionization_Penalty_Neutral>  (235) 
3.28896e-15

>  <r_epik_State_Penalty>  (235) 
0.00384831

>  <r_epik_Charging_Adjusted_Penalty>  (235) 
0.00912263

>  <i_epik_Tot_Q>  (235) 
1

>  <i_epik_Tot_abs_Q>  (235) 
1

>  <s_lp_Force_Field>  (235) 
OPLS3e

>  <r_lp_Energy>  (235) 
56.9036

>  <b_lp_Chiralities_Consistent>  (235) 
1

>  <s_lp_Variant>  (235) 
55:0-1

>  <s_i_glide_gridfile>  (235) 
pfpi4k_grid

>  <i_i_glide_lignum>  (235) 
22

>  <i_i_glide_rotatable_bonds>  (235) 
1

>  <r_i_docking_score>  (235) 
-2.80143

>  <r_i_glide_ligand_efficiency>  (235) 
-0.103757

>  <r_i_glide_ligand_efficiency_sa>  (235) 
-0.31127

>  <r_i_glide_ligand_efficiency_ln>  (235) 
-0.652126

>  <r_i_glide_gscore>  (235) 
-2.80143

>  <r_i_glide_lipo>  (235) 
-0.421151

>  <r_i_glide_hbond>  (235) 
0

>  <r_i_glide_metal>  (235) 
-0

>  <r_i_glide_rewards>  (235) 
-0.896371

>  <r_i_glide_evdw>  (235) 
-26.0455

>  <r_i_glide_ecoul>  (235) 
-2.15633

>  <r_i_glide_erotb>  (235) 
0.14189

>  <r_i_glide_esite>  (235) 
-7.15538e-05

>  <r_i_glide_emodel>  (235) 
-32.7491

>  <r_i_glide_energy>  (235) 
-28.2018

>  <r_i_glide_einternal>  (235) 
0.326019

>  <r_i_glide_intrahb_reward>  (235) 
-0

>  <i_i_glide_confnum>  (235) 
3

>  <i_i_glide_posenum>  (235) 
2

>  <r_i_glide_eff_state_penalty>  (235) 
0

>  <ligand_id>  (235) 
55

>  <original_smiles>  (235) 
O=C1c2ccccc2OC2(CCCCC2)C12CCN(C1CCCCC1)CC2

>  <smiles>  (235) 
[H]c1c([H])c([H])c2c(c1[H])OC1(C([H])([H])C([H])([H])C([H])([H])C([H])([H])C1([H])[H])C1(C2=O)C([H])([H])C([H])([H])[N+]([H])(C2([H])C([H])([H])C([H])([H])C([H])([H])C([H])([H])C2([H])[H])C([H])([H])C1([H])[H]

$$$$
56:0:0
     RDKit          3D

 31 32  0  0  1  0  0  0  0  0999 V2000
   -6.9895  -12.4486   -9.7238 C   0  0  0  0  0  0  0  0  0  0  0  0
   -6.8280  -11.3188   -8.8690 O   0  0  0  0  0  0  0  0  0  0  0  0
   -5.8424  -11.3438   -7.9054 C   0  0  0  0  0  0  0  0  0  0  0  0
   -4.9648  -12.4725   -7.7387 C   0  0  0  0  0  0  0  0  0  0  0  0
   -3.9650  -12.4634   -6.7395 C   0  0  0  0  0  0  0  0  0  0  0  0
   -3.8024  -11.3220   -5.9498 C   0  0  0  0  0  0  0  0  0  0  0  0
   -4.6015  -10.1911   -6.1604 C   0  0  0  0  0  0  0  0  0  0  0  0
   -5.6716  -10.1918   -7.0862 C   0  0  0  0  0  0  0  0  0  0  0  0
   -6.5725   -9.1097   -7.2950 N   0  0  0  0  0  0  0  0  0  0  0  0
   -6.7224   -7.9064   -6.5722 C   0  0  0  0  0  0  0  0  0  0  0  0
   -6.0963   -7.6566   -5.3300 C   0  0  0  0  0  0  0  0  0  0  0  0
   -6.2111   -6.4310   -4.7034 C   0  0  0  0  0  0  0  0  0  0  0  0
   -7.0208   -5.4759   -5.1968 N   0  0  0  0  0  0  0  0  0  0  0  0
   -7.1923   -4.2519   -4.4254 C   0  0  0  0  0  0  0  0  0  0  0  0
   -7.7337   -5.6611   -6.3528 C   0  0  0  0  0  0  0  0  0  0  0  0
   -7.5762   -6.8832   -7.0872 C   0  0  0  0  0  0  0  0  0  0  0  0
   -7.8018  -12.2644  -10.4347 H   0  0  0  0  0  0  0  0  0  0  0  0
   -7.2481  -13.3388   -9.1439 H   0  0  0  0  0  0  0  0  0  0  0  0
   -6.0830  -12.6479  -10.3043 H   0  0  0  0  0  0  0  0  0  0  0  0
   -5.0374  -13.3524   -8.3790 H   0  0  0  0  0  0  0  0  0  0  0  0
   -3.2914  -13.3032   -6.6167 H   0  0  0  0  0  0  0  0  0  0  0  0
   -3.0387  -11.2900   -5.1946 H   0  0  0  0  0  0  0  0  0  0  0  0
   -4.2559   -9.3655   -5.5820 H   0  0  0  0  0  0  0  0  0  0  0  0
   -7.1920   -9.2551   -8.0599 H   0  0  0  0  0  0  0  0  0  0  0  0
   -5.5780   -8.3648   -4.7281 H   0  0  0  0  0  0  0  0  0  0  0  0
   -5.7327   -6.1899   -3.7643 H   0  0  0  0  0  0  0  0  0  0  0  0
   -7.3519   -3.4263   -5.1241 H   0  0  0  0  0  0  0  0  0  0  0  0
   -6.2850   -4.0662   -3.8353 H   0  0  0  0  0  0  0  0  0  0  0  0
   -8.0537   -4.3716   -3.7546 H   0  0  0  0  0  0  0  0  0  0  0  0
   -8.4037   -4.8449   -6.6572 H   0  0  0  0  0  0  0  0  0  0  0  0
   -8.1476   -7.0180   -7.9886 H   0  0  0  0  0  0  0  0  0  0  0  0
  1  2  1  0
  1 17  1  0
  1 18  1  0
  1 19  1  0
  2  3  1  0
  3  8  2  0
  3  4  1  0
  4  5  2  0
  4 20  1  0
  5  6  1  0
  5 21  1  0
  6  7  2  0
  6 22  1  0
  7  8  1  0
  7 23  1  0
  8  9  1  0
  9 10  1  0
  9 24  1  0
 10 16  1  0
 10 11  2  0
 11 12  1  0
 11 25  1  0
 12 13  2  0
 12 26  1  0
 13 14  1  0
 13 15  1  0
 14 27  1  0
 14 28  1  0
 14 29  1  0
 15 16  2  0
 15 30  1  0
 16 31  1  0
M  CHG  1  13   1
M  END
>  <i_m_ct_stereo_status>  (236) 
1

>  <s_m_source_file>  (236) 
/var/tmp/pbs.5102103.sched01/tmpndyyrgqo/88kp20v8wr.sdf

>  <i_m_source_file_index>  (236) 
1

>  <i_lp_mmshare_version>  (236) 
48012

>  <i_f3d_flags>  (236) 
0

>  <s_epik_input>  (236) 
W0NIM11PYzFbY0hdW2NIXVtjSF1bY0hdYzFbTkhdYzJbY0hdW2NIXVtuK10oW0NIM10pW2NIXVtjSF0y

>  <s_epik_cmdline>  (236) 
J2VwaWtfcHl0aG9uJywgJy1waHQnLCAnMi4wJywgJy1waCcsICc3LjAnLCAnLXRuJywgJzgnLCAnLW1hJywgJzIwMCcsICctaW1hZScsICc8aW5maWxlLm1hZT4nLCAnLW9tYWUnLCAnPG91dGZpbGUubWFlPic=

>  <r_lp_tautomer_probability>  (236) 
1

>  <r_epik_Ionization_Penalty>  (236) 
6.33399e-06

>  <r_epik_Ionization_Penalty_Charging>  (236) 
0

>  <r_epik_Ionization_Penalty_Neutral>  (236) 
6.33399e-06

>  <r_epik_State_Penalty>  (236) 
-0

>  <r_epik_Charging_Adjusted_Penalty>  (236) 
0

>  <i_epik_Tot_Q>  (236) 
1

>  <i_epik_Tot_abs_Q>  (236) 
1

>  <s_lp_Force_Field>  (236) 
OPLS3e

>  <r_lp_Energy>  (236) 
36.3109

>  <b_lp_Chiralities_Consistent>  (236) 
1

>  <s_lp_Variant>  (236) 
56:0-1

>  <s_i_glide_gridfile>  (236) 
pfpi4k_grid

>  <i_i_glide_lignum>  (236) 
1

>  <i_i_glide_rotatable_bonds>  (236) 
3

>  <r_i_docking_score>  (236) 
-4.93389

>  <r_i_glide_ligand_efficiency>  (236) 
-0.308368

>  <r_i_glide_ligand_efficiency_sa>  (236) 
-0.777039

>  <r_i_glide_ligand_efficiency_ln>  (236) 
-1.30783

>  <r_i_glide_gscore>  (236) 
-4.93389

>  <r_i_glide_lipo>  (236) 
-1.92816

>  <r_i_glide_hbond>  (236) 
0

>  <r_i_glide_metal>  (236) 
-0

>  <r_i_glide_rewards>  (236) 
-2.39133

>  <r_i_glide_evdw>  (236) 
-23.1338

>  <r_i_glide_ecoul>  (236) 
-1.19796

>  <r_i_glide_erotb>  (236) 
0.721982

>  <r_i_glide_esite>  (236) 
0

>  <r_i_glide_emodel>  (236) 
-30.456

>  <r_i_glide_energy>  (236) 
-24.3317

>  <r_i_glide_einternal>  (236) 
2.06125

>  <r_i_glide_intrahb_reward>  (236) 
-0

>  <i_i_glide_confnum>  (236) 
5

>  <i_i_glide_posenum>  (236) 
16

>  <r_i_glide_eff_state_penalty>  (236) 
0

>  <ligand_id>  (236) 
56

>  <original_smiles>  (236) 
COc1ccccc1Nc1cc[n+](C)cc1

>  <smiles>  (236) 
[H]c1c([H])c([H])c(N([H])c2c([H])c([H])[n+](C([H])([H])[H])c([H])c2[H])c(OC([H])([H])[H])c1[H]

$$$$
56:0:1
     RDKit          3D

 31 32  0  0  1  0  0  0  0  0999 V2000
   -2.0668   -1.0451    5.0931 C   0  0  0  0  0  0  0  0  0  0  0  0
   -2.1807    0.1359    5.8743 O   0  0  0  0  0  0  0  0  0  0  0  0
   -1.5978    1.2942    5.3925 C   0  0  0  0  0  0  0  0  0  0  0  0
   -0.9434    1.3846    4.1368 C   0  0  0  0  0  0  0  0  0  0  0  0
   -0.3960    2.6083    3.7026 C   0  0  0  0  0  0  0  0  0  0  0  0
   -0.4897    3.7517    4.5178 C   0  0  0  0  0  0  0  0  0  0  0  0
   -1.1324    3.6706    5.7706 C   0  0  0  0  0  0  0  0  0  0  0  0
   -1.6862    2.4476    6.2061 C   0  0  0  0  0  0  0  0  0  0  0  0
   -2.4060    2.3535    7.4048 N   0  0  0  0  0  0  0  0  0  0  0  0
   -2.1515    2.9436    8.6498 C   0  0  0  0  0  0  0  0  0  0  0  0
   -3.2003    2.9665    9.5918 C   0  0  0  0  0  0  0  0  0  0  0  0
   -2.9830    3.5084   10.8696 C   0  0  0  0  0  0  0  0  0  0  0  0
   -1.7728    4.0041   11.2153 N   0  0  0  0  0  0  0  0  0  0  0  0
   -1.5935    4.5932   12.5549 C   0  0  0  0  0  0  0  0  0  0  0  0
   -0.7364    3.9989   10.3378 C   0  0  0  0  0  0  0  0  0  0  0  0
   -0.8900    3.4661    9.0331 C   0  0  0  0  0  0  0  0  0  0  0  0
   -2.5798   -1.8593    5.6034 H   0  0  0  0  0  0  0  0  0  0  0  0
   -1.0246   -1.3376    4.9570 H   0  0  0  0  0  0  0  0  0  0  0  0
   -2.5341   -0.9268    4.1164 H   0  0  0  0  0  0  0  0  0  0  0  0
   -0.8610    0.5345    3.4752 H   0  0  0  0  0  0  0  0  0  0  0  0
    0.0949    2.6704    2.7427 H   0  0  0  0  0  0  0  0  0  0  0  0
   -0.0761    4.6845    4.1648 H   0  0  0  0  0  0  0  0  0  0  0  0
   -1.2249    4.5536    6.3833 H   0  0  0  0  0  0  0  0  0  0  0  0
   -3.1864    1.7170    7.3610 H   0  0  0  0  0  0  0  0  0  0  0  0
   -4.1715    2.5646    9.3526 H   0  0  0  0  0  0  0  0  0  0  0  0
   -3.7488    3.5337   11.6340 H   0  0  0  0  0  0  0  0  0  0  0  0
   -0.5777    4.4074   12.8998 H   0  0  0  0  0  0  0  0  0  0  0  0
   -2.2990    4.1431   13.2561 H   0  0  0  0  0  0  0  0  0  0  0  0
   -1.7777    5.6651   12.4871 H   0  0  0  0  0  0  0  0  0  0  0  0
    0.1900    4.4170   10.7106 H   0  0  0  0  0  0  0  0  0  0  0  0
   -0.0462    3.4514    8.3596 H   0  0  0  0  0  0  0  0  0  0  0  0
  1  2  1  0
  1 17  1  0
  1 18  1  0
  1 19  1  0
  2  3  1  0
  3  8  2  0
  3  4  1  0
  4  5  2  0
  4 20  1  0
  5  6  1  0
  5 21  1  0
  6  7  2  0
  6 22  1  0
  7  8  1  0
  7 23  1  0
  8  9  1  0
  9 10  1  0
  9 24  1  0
 10 16  1  0
 10 11  2  0
 11 12  1  0
 11 25  1  0
 12 13  2  0
 12 26  1  0
 13 14  1  0
 13 15  1  0
 14 27  1  0
 14 28  1  0
 14 29  1  0
 15 16  2  0
 15 30  1  0
 16 31  1  0
M  CHG  1  13   1
M  END
>  <i_m_ct_stereo_status>  (237) 
1

>  <s_m_source_file>  (237) 
/var/tmp/pbs.5102103.sched01/tmpndyyrgqo/88kp20v8wr.sdf

>  <i_m_source_file_index>  (237) 
1

>  <i_lp_mmshare_version>  (237) 
48012

>  <i_f3d_flags>  (237) 
0

>  <s_epik_input>  (237) 
W0NIM11PYzFbY0hdW2NIXVtjSF1bY0hdYzFbTkhdYzJbY0hdW2NIXVtuK10oW0NIM10pW2NIXVtjSF0y

>  <s_epik_cmdline>  (237) 
J2VwaWtfcHl0aG9uJywgJy1waHQnLCAnMi4wJywgJy1waCcsICc3LjAnLCAnLXRuJywgJzgnLCAnLW1hJywgJzIwMCcsICctaW1hZScsICc8aW5maWxlLm1hZT4nLCAnLW9tYWUnLCAnPG91dGZpbGUubWFlPic=

>  <r_lp_tautomer_probability>  (237) 
1

>  <r_epik_Ionization_Penalty>  (237) 
6.33399e-06

>  <r_epik_Ionization_Penalty_Charging>  (237) 
0

>  <r_epik_Ionization_Penalty_Neutral>  (237) 
6.33399e-06

>  <r_epik_State_Penalty>  (237) 
-0

>  <r_epik_Charging_Adjusted_Penalty>  (237) 
0

>  <i_epik_Tot_Q>  (237) 
1

>  <i_epik_Tot_abs_Q>  (237) 
1

>  <s_lp_Force_Field>  (237) 
OPLS3e

>  <r_lp_Energy>  (237) 
36.3109

>  <b_lp_Chiralities_Consistent>  (237) 
1

>  <s_lp_Variant>  (237) 
56:0-1

>  <s_i_glide_gridfile>  (237) 
pfpi4k_grid

>  <i_i_glide_lignum>  (237) 
1

>  <i_i_glide_rotatable_bonds>  (237) 
3

>  <r_i_docking_score>  (237) 
-2.94603

>  <r_i_glide_ligand_efficiency>  (237) 
-0.184127

>  <r_i_glide_ligand_efficiency_sa>  (237) 
-0.463971

>  <r_i_glide_ligand_efficiency_ln>  (237) 
-0.780905

>  <r_i_glide_gscore>  (237) 
-2.94603

>  <r_i_glide_lipo>  (237) 
-0.0287945

>  <r_i_glide_hbond>  (237) 
-0.125433

>  <r_i_glide_metal>  (237) 
-0

>  <r_i_glide_rewards>  (237) 
-1.94133

>  <r_i_glide_evdw>  (237) 
-17.3985

>  <r_i_glide_ecoul>  (237) 
-4.2174

>  <r_i_glide_erotb>  (237) 
0.721982

>  <r_i_glide_esite>  (237) 
-0.0699186

>  <r_i_glide_emodel>  (237) 
-25.5486

>  <r_i_glide_energy>  (237) 
-21.6159

>  <r_i_glide_einternal>  (237) 
2.1106

>  <r_i_glide_intrahb_reward>  (237) 
-0

>  <i_i_glide_confnum>  (237) 
3

>  <i_i_glide_posenum>  (237) 
3

>  <r_i_glide_eff_state_penalty>  (237) 
0

>  <ligand_id>  (237) 
56

>  <original_smiles>  (237) 
COc1ccccc1Nc1cc[n+](C)cc1

>  <smiles>  (237) 
[H]c1c([H])c([H])c(N([H])c2c([H])c([H])[n+](C([H])([H])[H])c([H])c2[H])c(OC([H])([H])[H])c1[H]

$$$$
56:0:2
     RDKit          3D

 31 32  0  0  1  0  0  0  0  0999 V2000
    4.2460   -9.2755    0.8399 C   0  0  0  0  0  0  0  0  0  0  0  0
    4.5980   -7.9396    0.4990 O   0  0  0  0  0  0  0  0  0  0  0  0
    4.9317   -7.0696    1.5193 C   0  0  0  0  0  0  0  0  0  0  0  0
    5.0959   -7.4812    2.8652 C   0  0  0  0  0  0  0  0  0  0  0  0
    5.4657   -6.5499    3.8540 C   0  0  0  0  0  0  0  0  0  0  0  0
    5.6661   -5.2004    3.5127 C   0  0  0  0  0  0  0  0  0  0  0  0
    5.4982   -4.7804    2.1811 C   0  0  0  0  0  0  0  0  0  0  0  0
    5.1302   -5.7101    1.1811 C   0  0  0  0  0  0  0  0  0  0  0  0
    5.0222   -5.3373   -0.1644 N   0  0  0  0  0  0  0  0  0  0  0  0
    4.6036   -4.1206   -0.7282 C   0  0  0  0  0  0  0  0  0  0  0  0
    4.9046   -3.8890   -2.0850 C   0  0  0  0  0  0  0  0  0  0  0  0
    4.4552   -2.7182   -2.7237 C   0  0  0  0  0  0  0  0  0  0  0  0
    3.7385   -1.8047   -2.0382 N   0  0  0  0  0  0  0  0  0  0  0  0
    3.3233   -0.5830   -2.7366 C   0  0  0  0  0  0  0  0  0  0  0  0
    3.4270   -1.9845   -0.7275 C   0  0  0  0  0  0  0  0  0  0  0  0
    3.8423   -3.1487   -0.0376 C   0  0  0  0  0  0  0  0  0  0  0  0
    3.9765   -9.8194   -0.0608 H   0  0  0  0  0  0  0  0  0  0  0  0
    3.3730   -9.3042    1.4954 H   0  0  0  0  0  0  0  0  0  0  0  0
    5.0762   -9.8106    1.3014 H   0  0  0  0  0  0  0  0  0  0  0  0
    4.9674   -8.5153    3.1604 H   0  0  0  0  0  0  0  0  0  0  0  0
    5.6080   -6.8785    4.8755 H   0  0  0  0  0  0  0  0  0  0  0  0
    5.9702   -4.4976    4.2785 H   0  0  0  0  0  0  0  0  0  0  0  0
    5.6873   -3.7470    1.9213 H   0  0  0  0  0  0  0  0  0  0  0  0
    5.1292   -6.1129   -0.8134 H   0  0  0  0  0  0  0  0  0  0  0  0
    5.4229   -4.6395   -2.6615 H   0  0  0  0  0  0  0  0  0  0  0  0
    4.6421   -2.5121   -3.7691 H   0  0  0  0  0  0  0  0  0  0  0  0
    2.3557   -0.2647   -2.3549 H   0  0  0  0  0  0  0  0  0  0  0  0
    3.2336   -0.7674   -3.8077 H   0  0  0  0  0  0  0  0  0  0  0  0
    4.0870    0.1692   -2.5570 H   0  0  0  0  0  0  0  0  0  0  0  0
    2.8673   -1.1820   -0.2643 H   0  0  0  0  0  0  0  0  0  0  0  0
    3.5381   -3.2906    0.9945 H   0  0  0  0  0  0  0  0  0  0  0  0
  1  2  1  0
  1 17  1  0
  1 18  1  0
  1 19  1  0
  2  3  1  0
  3  8  2  0
  3  4  1  0
  4  5  2  0
  4 20  1  0
  5  6  1  0
  5 21  1  0
  6  7  2  0
  6 22  1  0
  7  8  1  0
  7 23  1  0
  8  9  1  0
  9 10  1  0
  9 24  1  0
 10 16  1  0
 10 11  2  0
 11 12  1  0
 11 25  1  0
 12 13  2  0
 12 26  1  0
 13 14  1  0
 13 15  1  0
 14 27  1  0
 14 28  1  0
 14 29  1  0
 15 16  2  0
 15 30  1  0
 16 31  1  0
M  CHG  1  13   1
M  END
>  <i_m_ct_stereo_status>  (238) 
1

>  <s_m_source_file>  (238) 
/var/tmp/pbs.5102103.sched01/tmpndyyrgqo/88kp20v8wr.sdf

>  <i_m_source_file_index>  (238) 
1

>  <i_lp_mmshare_version>  (238) 
48012

>  <i_f3d_flags>  (238) 
0

>  <s_epik_input>  (238) 
W0NIM11PYzFbY0hdW2NIXVtjSF1bY0hdYzFbTkhdYzJbY0hdW2NIXVtuK10oW0NIM10pW2NIXVtjSF0y

>  <s_epik_cmdline>  (238) 
J2VwaWtfcHl0aG9uJywgJy1waHQnLCAnMi4wJywgJy1waCcsICc3LjAnLCAnLXRuJywgJzgnLCAnLW1hJywgJzIwMCcsICctaW1hZScsICc8aW5maWxlLm1hZT4nLCAnLW9tYWUnLCAnPG91dGZpbGUubWFlPic=

>  <r_lp_tautomer_probability>  (238) 
1

>  <r_epik_Ionization_Penalty>  (238) 
6.33399e-06

>  <r_epik_Ionization_Penalty_Charging>  (238) 
0

>  <r_epik_Ionization_Penalty_Neutral>  (238) 
6.33399e-06

>  <r_epik_State_Penalty>  (238) 
-0

>  <r_epik_Charging_Adjusted_Penalty>  (238) 
0

>  <i_epik_Tot_Q>  (238) 
1

>  <i_epik_Tot_abs_Q>  (238) 
1

>  <s_lp_Force_Field>  (238) 
OPLS3e

>  <r_lp_Energy>  (238) 
36.3109

>  <b_lp_Chiralities_Consistent>  (238) 
1

>  <s_lp_Variant>  (238) 
56:0-1

>  <s_i_glide_gridfile>  (238) 
pfpi4k_grid

>  <i_i_glide_lignum>  (238) 
1

>  <i_i_glide_rotatable_bonds>  (238) 
3

>  <r_i_docking_score>  (238) 
-2.85067

>  <r_i_glide_ligand_efficiency>  (238) 
-0.178167

>  <r_i_glide_ligand_efficiency_sa>  (238) 
-0.448953

>  <r_i_glide_ligand_efficiency_ln>  (238) 
-0.755628

>  <r_i_glide_gscore>  (238) 
-2.85067

>  <r_i_glide_lipo>  (238) 
-0.272866

>  <r_i_glide_hbond>  (238) 
0

>  <r_i_glide_metal>  (238) 
-0

>  <r_i_glide_rewards>  (238) 
-1.94133

>  <r_i_glide_evdw>  (238) 
-15.9019

>  <r_i_glide_ecoul>  (238) 
-3.40985

>  <r_i_glide_erotb>  (238) 
0.721982

>  <r_i_glide_esite>  (238) 
-0.0518828

>  <r_i_glide_emodel>  (238) 
-23.4317

>  <r_i_glide_energy>  (238) 
-19.3118

>  <r_i_glide_einternal>  (238) 
1.51464

>  <r_i_glide_intrahb_reward>  (238) 
-0

>  <i_i_glide_confnum>  (238) 
6

>  <i_i_glide_posenum>  (238) 
8

>  <r_i_glide_eff_state_penalty>  (238) 
0

>  <ligand_id>  (238) 
56

>  <original_smiles>  (238) 
COc1ccccc1Nc1cc[n+](C)cc1

>  <smiles>  (238) 
[H]c1c([H])c([H])c(N([H])c2c([H])c([H])[n+](C([H])([H])[H])c([H])c2[H])c(OC([H])([H])[H])c1[H]

$$$$
57:0:0
     RDKit          3D

 41 43  0  0  1  0  0  0  0  0999 V2000
    3.6442   -1.4633   -3.8925 C   0  0  0  0  0  0  0  0  0  0  0  0
    4.3255   -2.1084   -2.7495 N   0  0  1  0  0  0  0  0  0  0  0  0
    4.4054   -1.2583   -1.5335 C   0  0  0  0  0  0  0  0  0  0  0  0
    3.7007   -2.0563   -0.4367 C   0  0  2  0  0  0  0  0  0  0  0  0
    4.1365   -1.8871    1.0191 C   0  0  0  0  0  0  0  0  0  0  0  0
    3.3091   -2.8479    1.9097 C   0  0  0  0  0  0  0  0  0  0  0  0
    3.3197   -4.2552    1.4238 N   0  0  0  0  0  0  0  0  0  0  0  0
    2.6919   -5.4730    2.4891 S   0  0  0  0  0  0  0  0  0  0  0  0
    3.0502   -5.0856    3.8604 O   0  0  0  0  0  0  0  0  0  0  0  0
    1.2814   -5.6862    2.1262 O   0  0  0  0  0  0  0  0  0  0  0  0
    3.6393   -6.9345    2.0853 C   0  0  0  0  0  0  0  0  0  0  0  0
    2.9668   -8.1511    1.8424 C   0  0  0  0  0  0  0  0  0  0  0  0
    3.7048   -9.3038    1.5154 C   0  0  0  0  0  0  0  0  0  0  0  0
    5.1102   -9.2371    1.4339 C   0  0  0  0  0  0  0  0  0  0  0  0
    5.8200  -10.3569    1.1076 O   0  0  0  0  0  0  0  0  0  0  0  0
    5.7843   -8.0258    1.6827 C   0  0  0  0  0  0  0  0  0  0  0  0
    5.0458   -6.8692    2.0100 C   0  0  0  0  0  0  0  0  0  0  0  0
    3.0309   -4.4161   -0.0216 C   0  0  0  0  0  0  0  0  0  0  0  0
    3.9423   -3.4921   -0.8467 C   0  0  1  0  0  0  0  0  0  0  0  0
    3.7357   -3.4145   -2.3590 C   0  0  0  0  0  0  0  0  0  0  0  0
    2.6090   -1.2207   -3.6584 H   0  0  0  0  0  0  0  0  0  0  0  0
    3.6439   -2.1353   -4.7472 H   0  0  0  0  0  0  0  0  0  0  0  0
    4.1559   -0.5444   -4.1856 H   0  0  0  0  0  0  0  0  0  0  0  0
    5.4536   -1.0960   -1.2837 H   0  0  0  0  0  0  0  0  0  0  0  0
    3.9515   -0.2801   -1.6849 H   0  0  0  0  0  0  0  0  0  0  0  0
    2.6303   -1.8536   -0.5079 H   0  0  0  0  0  0  0  0  0  0  0  0
    5.2046   -2.0934    1.1251 H   0  0  0  0  0  0  0  0  0  0  0  0
    3.9776   -0.8563    1.3393 H   0  0  0  0  0  0  0  0  0  0  0  0
    3.6804   -2.7999    2.9323 H   0  0  0  0  0  0  0  0  0  0  0  0
    2.2727   -2.5095    1.9550 H   0  0  0  0  0  0  0  0  0  0  0  0
    1.8900   -8.2117    1.9099 H   0  0  0  0  0  0  0  0  0  0  0  0
    3.1928  -10.2394    1.3245 H   0  0  0  0  0  0  0  0  0  0  0  0
    5.2383  -11.0947    0.8787 H   0  0  0  0  0  0  0  0  0  0  0  0
    6.8649   -7.9855    1.6230 H   0  0  0  0  0  0  0  0  0  0  0  0
    5.5555   -5.9370    2.2118 H   0  0  0  0  0  0  0  0  0  0  0  0
    3.1712   -5.4545   -0.3195 H   0  0  0  0  0  0  0  0  0  0  0  0
    1.9804   -4.1798   -0.1987 H   0  0  0  0  0  0  0  0  0  0  0  0
    4.9872   -3.7549   -0.6572 H   0  0  0  0  0  0  0  0  0  0  0  0
    2.6724   -3.4380   -2.5981 H   0  0  0  0  0  0  0  0  0  0  0  0
    4.2221   -4.2365   -2.8853 H   0  0  0  0  0  0  0  0  0  0  0  0
    5.2739   -2.2946   -3.0279 H   0  0  0  0  0  0  0  0  0  0  0  0
  1  2  1  0
  1 21  1  0
  1 22  1  0
  1 23  1  0
  2 20  1  0
  2  3  1  0
  2 41  1  6
  3  4  1  0
  3 24  1  0
  3 25  1  0
  4 19  1  0
  4  5  1  0
  4 26  1  1
  5  6  1  0
  5 27  1  0
  5 28  1  0
  6  7  1  0
  6 29  1  0
  6 30  1  0
  7  8  1  0
  7 18  1  0
  8  9  2  0
  8 10  2  0
  8 11  1  0
 11 17  1  0
 11 12  2  0
 12 13  1  0
 12 31  1  0
 13 14  2  0
 13 32  1  0
 14 15  1  0
 14 16  1  0
 15 33  1  0
 16 17  2  0
 16 34  1  0
 17 35  1  0
 18 19  1  0
 18 36  1  0
 18 37  1  0
 19 20  1  0
 19 38  1  6
 20 39  1  0
 20 40  1  0
M  CHG  1   2   1
M  END
>  <i_m_ct_stereo_status>  (239) 
1

>  <s_m_source_file>  (239) 
/var/tmp/pbs.5102103.sched01/tmpndyyrgqo/88kp20v8wr.sdf

>  <i_m_source_file_index>  (239) 
2

>  <i_lp_mmshare_version>  (239) 
48012

>  <i_f3d_flags>  (239) 
0

>  <s_epik_input>  (239) 
W0NIM11OKFtDSDJdMSlbQ0gyXVtDQEBIXShbQ0BIXTEyKVtDSDJdTihbQ0gyXVtDSDJdMilTKD1PKSg9TyljM1tjSF1bY0hdYyhbT0hdKVtjSF1bY0hdMw==

>  <s_epik_cmdline>  (239) 
J2VwaWtfcHl0aG9uJywgJy1waHQnLCAnMi4wJywgJy1waCcsICc3LjAnLCAnLXRuJywgJzgnLCAnLW1hJywgJzIwMCcsICctaW1hZScsICc8aW5maWxlLm1hZT4nLCAnLW9tYWUnLCAnPG91dGZpbGUubWFlPic=

>  <r_lp_tautomer_probability>  (239) 
1

>  <r_epik_Ionization_Penalty>  (239) 
0.021029

>  <r_epik_Ionization_Penalty_Charging>  (239) 
0.00270426

>  <r_epik_Ionization_Penalty_Neutral>  (239) 
0.0183247

>  <r_epik_State_Penalty>  (239) 
0.0145748

>  <r_epik_Charging_Adjusted_Penalty>  (239) 
0.0172791

>  <i_epik_Tot_Q>  (239) 
1

>  <i_epik_Tot_abs_Q>  (239) 
1

>  <s_lp_Force_Field>  (239) 
OPLS3e

>  <r_lp_Energy>  (239) 
30.7921

>  <b_lp_Chiralities_Consistent>  (239) 
1

>  <s_lp_Variant>  (239) 
57:0-1

>  <s_i_glide_gridfile>  (239) 
pfpi4k_grid

>  <i_i_glide_lignum>  (239) 
2

>  <i_i_glide_rotatable_bonds>  (239) 
3

>  <r_i_docking_score>  (239) 
-3.88134

>  <r_i_glide_ligand_efficiency>  (239) 
-0.194067

>  <r_i_glide_ligand_efficiency_sa>  (239) 
-0.526779

>  <r_i_glide_ligand_efficiency_ln>  (239) 
-0.971371

>  <r_i_glide_gscore>  (239) 
-3.88134

>  <r_i_glide_lipo>  (239) 
-0.253241

>  <r_i_glide_hbond>  (239) 
-0.16

>  <r_i_glide_metal>  (239) 
-0

>  <r_i_glide_rewards>  (239) 
-1.38651

>  <r_i_glide_evdw>  (239) 
-18.1296

>  <r_i_glide_ecoul>  (239) 
-10.1069

>  <r_i_glide_erotb>  (239) 
0.414612

>  <r_i_glide_esite>  (239) 
-0.0736825

>  <r_i_glide_emodel>  (239) 
-36.5583

>  <r_i_glide_energy>  (239) 
-28.2365

>  <r_i_glide_einternal>  (239) 
3.90726

>  <r_i_glide_intrahb_reward>  (239) 
-0

>  <i_i_glide_confnum>  (239) 
3

>  <i_i_glide_posenum>  (239) 
6

>  <r_i_glide_eff_state_penalty>  (239) 
0

>  <ligand_id>  (239) 
57

>  <original_smiles>  (239) 
CN1CC2CCN(S(=O)(=O)c3ccc(O)cc3)CC2C1

>  <smiles>  (239) 
[H]Oc1c([H])c([H])c(S(=O)(=O)N2C([H])([H])C([H])([H])C3([H])C([H])(C2([H])[H])C([H])([H])[N+]([H])(C([H])([H])[H])C3([H])[H])c([H])c1[H]

$$$$
57:0:1
     RDKit          3D

 41 43  0  0  1  0  0  0  0  0999 V2000
   -0.3720   -9.4712    3.5959 C   0  0  0  0  0  0  0  0  0  0  0  0
    1.1031   -9.4112    3.6830 N   0  0  1  0  0  0  0  0  0  0  0  0
    1.8042   -9.8894    2.4567 C   0  0  0  0  0  0  0  0  0  0  0  0
    2.6464   -8.7053    1.9875 C   0  0  2  0  0  0  0  0  0  0  0  0
    3.9600   -8.9626    1.2511 C   0  0  0  0  0  0  0  0  0  0  0  0
    4.6387   -7.6050    0.9472 C   0  0  0  0  0  0  0  0  0  0  0  0
    4.7562   -6.7289    2.1391 N   0  0  0  0  0  0  0  0  0  0  0  0
    5.8127   -5.3495    2.0321 S   0  0  0  0  0  0  0  0  0  0  0  0
    5.8120   -4.6866    3.3508 O   0  0  0  0  0  0  0  0  0  0  0  0
    7.0810   -5.7869    1.4273 O   0  0  0  0  0  0  0  0  0  0  0  0
    4.9714   -4.2707    0.8691 C   0  0  0  0  0  0  0  0  0  0  0  0
    3.6815   -3.7882    1.1715 C   0  0  0  0  0  0  0  0  0  0  0  0
    3.0171   -2.9543    0.2556 C   0  0  0  0  0  0  0  0  0  0  0  0
    3.6458   -2.5782   -0.9479 C   0  0  0  0  0  0  0  0  0  0  0  0
    3.0109   -1.7349   -1.8088 O   0  0  0  0  0  0  0  0  0  0  0  0
    4.9408   -3.0604   -1.2451 C   0  0  0  0  0  0  0  0  0  0  0  0
    5.6060   -3.9092   -0.3361 C   0  0  0  0  0  0  0  0  0  0  0  0
    3.5329   -6.6074    2.9590 C   0  0  0  0  0  0  0  0  0  0  0  0
    2.9650   -7.9900    3.2783 C   0  0  1  0  0  0  0  0  0  0  0  0
    1.6296   -8.0626    4.0112 C   0  0  0  0  0  0  0  0  0  0  0  0
   -0.7605   -8.8468    2.7928 H   0  0  0  0  0  0  0  0  0  0  0  0
   -0.8361   -9.1511    4.5275 H   0  0  0  0  0  0  0  0  0  0  0  0
   -0.6863  -10.4910    3.3952 H   0  0  0  0  0  0  0  0  0  0  0  0
    2.4311  -10.7390    2.7182 H   0  0  0  0  0  0  0  0  0  0  0  0
    1.1051  -10.2215    1.6907 H   0  0  0  0  0  0  0  0  0  0  0  0
    2.0040   -8.0761    1.3652 H   0  0  0  0  0  0  0  0  0  0  0  0
    4.6205   -9.5966    1.8480 H   0  0  0  0  0  0  0  0  0  0  0  0
    3.7725   -9.4866    0.3154 H   0  0  0  0  0  0  0  0  0  0  0  0
    5.6185   -7.7688    0.5223 H   0  0  0  0  0  0  0  0  0  0  0  0
    4.0862   -7.0603    0.1846 H   0  0  0  0  0  0  0  0  0  0  0  0
    3.2064   -4.0204    2.1150 H   0  0  0  0  0  0  0  0  0  0  0  0
    2.0301   -2.5834    0.4959 H   0  0  0  0  0  0  0  0  0  0  0  0
    2.1284   -1.4527   -1.4947 H   0  0  0  0  0  0  0  0  0  0  0  0
    5.4290   -2.7713   -2.1652 H   0  0  0  0  0  0  0  0  0  0  0  0
    6.6083   -4.2593   -0.5565 H   0  0  0  0  0  0  0  0  0  0  0  0
    3.7368   -6.0483    3.8662 H   0  0  0  0  0  0  0  0  0  0  0  0
    2.7869   -6.0532    2.4002 H   0  0  0  0  0  0  0  0  0  0  0  0
    3.6976   -8.5588    3.8566 H   0  0  0  0  0  0  0  0  0  0  0  0
    0.9390   -7.3012    3.6424 H   0  0  0  0  0  0  0  0  0  0  0  0
    1.7182   -7.9338    5.0866 H   0  0  0  0  0  0  0  0  0  0  0  0
    1.3672  -10.0411    4.4223 H   0  0  0  0  0  0  0  0  0  0  0  0
  1  2  1  0
  1 21  1  0
  1 22  1  0
  1 23  1  0
  2 20  1  0
  2  3  1  0
  2 41  1  1
  3  4  1  0
  3 24  1  0
  3 25  1  0
  4 19  1  0
  4  5  1  0
  4 26  1  6
  5  6  1  0
  5 27  1  0
  5 28  1  0
  6  7  1  0
  6 29  1  0
  6 30  1  0
  7  8  1  0
  7 18  1  0
  8  9  2  0
  8 10  2  0
  8 11  1  0
 11 17  1  0
 11 12  2  0
 12 13  1  0
 12 31  1  0
 13 14  2  0
 13 32  1  0
 14 15  1  0
 14 16  1  0
 15 33  1  0
 16 17  2  0
 16 34  1  0
 17 35  1  0
 18 19  1  0
 18 36  1  0
 18 37  1  0
 19 20  1  0
 19 38  1  1
 20 39  1  0
 20 40  1  0
M  CHG  1   2   1
M  END
>  <i_m_ct_stereo_status>  (240) 
1

>  <s_m_source_file>  (240) 
/var/tmp/pbs.5102103.sched01/tmpndyyrgqo/88kp20v8wr.sdf

>  <i_m_source_file_index>  (240) 
2

>  <i_lp_mmshare_version>  (240) 
48012

>  <i_f3d_flags>  (240) 
0

>  <s_epik_input>  (240) 
W0NIM11OKFtDSDJdMSlbQ0gyXVtDQEBIXShbQ0BIXTEyKVtDSDJdTihbQ0gyXVtDSDJdMilTKD1PKSg9TyljM1tjSF1bY0hdYyhbT0hdKVtjSF1bY0hdMw==

>  <s_epik_cmdline>  (240) 
J2VwaWtfcHl0aG9uJywgJy1waHQnLCAnMi4wJywgJy1waCcsICc3LjAnLCAnLXRuJywgJzgnLCAnLW1hJywgJzIwMCcsICctaW1hZScsICc8aW5maWxlLm1hZT4nLCAnLW9tYWUnLCAnPG91dGZpbGUubWFlPic=

>  <r_lp_tautomer_probability>  (240) 
1

>  <r_epik_Ionization_Penalty>  (240) 
0.021029

>  <r_epik_Ionization_Penalty_Charging>  (240) 
0.00270426

>  <r_epik_Ionization_Penalty_Neutral>  (240) 
0.0183247

>  <r_epik_State_Penalty>  (240) 
0.0145748

>  <r_epik_Charging_Adjusted_Penalty>  (240) 
0.0172791

>  <i_epik_Tot_Q>  (240) 
1

>  <i_epik_Tot_abs_Q>  (240) 
1

>  <s_lp_Force_Field>  (240) 
OPLS3e

>  <r_lp_Energy>  (240) 
30.7921

>  <b_lp_Chiralities_Consistent>  (240) 
1

>  <s_lp_Variant>  (240) 
57:0-1

>  <s_i_glide_gridfile>  (240) 
pfpi4k_grid

>  <i_i_glide_lignum>  (240) 
2

>  <i_i_glide_rotatable_bonds>  (240) 
3

>  <r_i_docking_score>  (240) 
-3.71258

>  <r_i_glide_ligand_efficiency>  (240) 
-0.185629

>  <r_i_glide_ligand_efficiency_sa>  (240) 
-0.503874

>  <r_i_glide_ligand_efficiency_ln>  (240) 
-0.929135

>  <r_i_glide_gscore>  (240) 
-3.71258

>  <r_i_glide_lipo>  (240) 
-0.285037

>  <r_i_glide_hbond>  (240) 
-0.16

>  <r_i_glide_metal>  (240) 
-0

>  <r_i_glide_rewards>  (240) 
-1.46223

>  <r_i_glide_evdw>  (240) 
-16.7956

>  <r_i_glide_ecoul>  (240) 
-9.10119

>  <r_i_glide_erotb>  (240) 
0.414612

>  <r_i_glide_esite>  (240) 
-0.0149585

>  <r_i_glide_emodel>  (240) 
-35.4509

>  <r_i_glide_energy>  (240) 
-25.8968

>  <r_i_glide_einternal>  (240) 
0.267526

>  <r_i_glide_intrahb_reward>  (240) 
-0

>  <i_i_glide_confnum>  (240) 
4

>  <i_i_glide_posenum>  (240) 
37

>  <r_i_glide_eff_state_penalty>  (240) 
0

>  <ligand_id>  (240) 
57

>  <original_smiles>  (240) 
CN1CC2CCN(S(=O)(=O)c3ccc(O)cc3)CC2C1

>  <smiles>  (240) 
[H]Oc1c([H])c([H])c(S(=O)(=O)N2C([H])([H])C([H])([H])C3([H])C([H])(C2([H])[H])C([H])([H])[N+]([H])(C([H])([H])[H])C3([H])[H])c([H])c1[H]

$$$$
57:0:2
     RDKit          3D

 41 43  0  0  1  0  0  0  0  0999 V2000
    1.2379  -11.0506    3.9144 C   0  0  0  0  0  0  0  0  0  0  0  0
    1.4542  -10.1711    2.7393 N   0  0  1  0  0  0  0  0  0  0  0  0
    0.5684   -8.9691    2.6976 C   0  0  0  0  0  0  0  0  0  0  0  0
    1.5293   -7.7885    2.6633 C   0  0  2  0  0  0  0  0  0  0  0  0
    1.0996   -6.4995    1.9819 C   0  0  0  0  0  0  0  0  0  0  0  0
    2.2492   -5.4928    2.1320 C   0  0  0  0  0  0  0  0  0  0  0  0
    3.5201   -6.0138    1.5363 N   0  0  0  0  0  0  0  0  0  0  0  0
    4.8228   -4.8984    1.1990 S   0  0  0  0  0  0  0  0  0  0  0  0
    4.8194   -3.9031    2.2890 O   0  0  0  0  0  0  0  0  0  0  0  0
    6.0519   -5.6831    0.9745 O   0  0  0  0  0  0  0  0  0  0  0  0
    4.4041   -4.0663   -0.3556 C   0  0  0  0  0  0  0  0  0  0  0  0
    5.4337   -3.8542   -1.3187 C   0  0  0  0  0  0  0  0  0  0  0  0
    5.1162   -3.2187   -2.5634 C   0  0  0  0  0  0  0  0  0  0  0  0
    3.7806   -2.8215   -2.8298 C   0  0  0  0  0  0  0  0  0  0  0  0
    3.4397   -2.2111   -4.0020 O   0  0  0  0  0  0  0  0  0  0  0  0
    2.7930   -3.0427   -1.8573 C   0  0  0  0  0  0  0  0  0  0  0  0
    3.1026   -3.6261   -0.6402 C   0  0  0  0  0  0  0  0  0  0  0  0
    3.9172   -7.3435    2.0849 C   0  0  0  0  0  0  0  0  0  0  0  0
    2.7402   -8.3321    1.9384 C   0  0  1  0  0  0  0  0  0  0  0  0
    2.8601   -9.7209    2.5591 C   0  0  0  0  0  0  0  0  0  0  0  0
    1.4591  -10.5163    4.8462 H   0  0  0  0  0  0  0  0  0  0  0  0
    1.8848  -11.9211    3.8547 H   0  0  0  0  0  0  0  0  0  0  0  0
    0.2065  -11.3891    3.9554 H   0  0  0  0  0  0  0  0  0  0  0  0
   -0.0436   -9.0046    1.8047 H   0  0  0  0  0  0  0  0  0  0  0  0
   -0.1019   -8.9151    3.5649 H   0  0  0  0  0  0  0  0  0  0  0  0
    1.7985   -7.5607    3.7007 H   0  0  0  0  0  0  0  0  0  0  0  0
    0.8436   -6.7004    0.9318 H   0  0  0  0  0  0  0  0  0  0  0  0
    0.2153   -6.0983    2.4718 H   0  0  0  0  0  0  0  0  0  0  0  0
    1.8918   -4.5829    1.7122 H   0  0  0  0  0  0  0  0  0  0  0  0
    2.4495   -5.2326    3.1742 H   0  0  0  0  0  0  0  0  0  0  0  0
    6.4544   -4.1540   -1.1130 H   0  0  0  0  0  0  0  0  0  0  0  0
    5.8951   -3.0513   -3.3091 H   0  0  0  0  0  0  0  0  0  0  0  0
    2.5119   -2.0080   -3.9941 H   0  0  0  0  0  0  0  0  0  0  0  0
    1.7684   -2.7214   -2.0005 H   0  0  0  0  0  0  0  0  0  0  0  0
    2.2725   -3.6769    0.0534 H   0  0  0  0  0  0  0  0  0  0  0  0
    4.8031   -7.7467    1.5936 H   0  0  0  0  0  0  0  0  0  0  0  0
    4.2046   -7.2119    3.1313 H   0  0  0  0  0  0  0  0  0  0  0  0
    2.5024   -8.4645    0.8990 H   0  0  0  0  0  0  0  0  0  0  0  0
    3.3506   -9.6515    3.5362 H   0  0  0  0  0  0  0  0  0  0  0  0
    3.4185  -10.4082    1.9389 H   0  0  0  0  0  0  0  0  0  0  0  0
    1.2065  -10.7071    1.9122 H   0  0  0  0  0  0  0  0  0  0  0  0
  1  2  1  0
  1 21  1  0
  1 22  1  0
  1 23  1  0
  2 20  1  0
  2  3  1  0
  2 41  1  6
  3  4  1  0
  3 24  1  0
  3 25  1  0
  4 19  1  0
  4  5  1  0
  4 26  1  1
  5  6  1  0
  5 27  1  0
  5 28  1  0
  6  7  1  0
  6 29  1  0
  6 30  1  0
  7  8  1  0
  7 18  1  0
  8  9  2  0
  8 10  2  0
  8 11  1  0
 11 17  1  0
 11 12  2  0
 12 13  1  0
 12 31  1  0
 13 14  2  0
 13 32  1  0
 14 15  1  0
 14 16  1  0
 15 33  1  0
 16 17  2  0
 16 34  1  0
 17 35  1  0
 18 19  1  0
 18 36  1  0
 18 37  1  0
 19 20  1  0
 19 38  1  6
 20 39  1  0
 20 40  1  0
M  CHG  1   2   1
M  END
>  <i_m_ct_stereo_status>  (241) 
1

>  <s_m_source_file>  (241) 
/var/tmp/pbs.5102103.sched01/tmpndyyrgqo/88kp20v8wr.sdf

>  <i_m_source_file_index>  (241) 
2

>  <i_lp_mmshare_version>  (241) 
48012

>  <i_f3d_flags>  (241) 
0

>  <s_epik_input>  (241) 
W0NIM11OKFtDSDJdMSlbQ0gyXVtDQEBIXShbQ0BIXTEyKVtDSDJdTihbQ0gyXVtDSDJdMilTKD1PKSg9TyljM1tjSF1bY0hdYyhbT0hdKVtjSF1bY0hdMw==

>  <s_epik_cmdline>  (241) 
J2VwaWtfcHl0aG9uJywgJy1waHQnLCAnMi4wJywgJy1waCcsICc3LjAnLCAnLXRuJywgJzgnLCAnLW1hJywgJzIwMCcsICctaW1hZScsICc8aW5maWxlLm1hZT4nLCAnLW9tYWUnLCAnPG91dGZpbGUubWFlPic=

>  <r_lp_tautomer_probability>  (241) 
1

>  <r_epik_Ionization_Penalty>  (241) 
0.021029

>  <r_epik_Ionization_Penalty_Charging>  (241) 
0.00270426

>  <r_epik_Ionization_Penalty_Neutral>  (241) 
0.0183247

>  <r_epik_State_Penalty>  (241) 
0.0145748

>  <r_epik_Charging_Adjusted_Penalty>  (241) 
0.0172791

>  <i_epik_Tot_Q>  (241) 
1

>  <i_epik_Tot_abs_Q>  (241) 
1

>  <s_lp_Force_Field>  (241) 
OPLS3e

>  <r_lp_Energy>  (241) 
30.7921

>  <b_lp_Chiralities_Consistent>  (241) 
1

>  <s_lp_Variant>  (241) 
57:0-1

>  <s_i_glide_gridfile>  (241) 
pfpi4k_grid

>  <i_i_glide_lignum>  (241) 
2

>  <i_i_glide_rotatable_bonds>  (241) 
3

>  <r_i_docking_score>  (241) 
-3.69498

>  <r_i_glide_ligand_efficiency>  (241) 
-0.184749

>  <r_i_glide_ligand_efficiency_sa>  (241) 
-0.501486

>  <r_i_glide_ligand_efficiency_ln>  (241) 
-0.924732

>  <r_i_glide_gscore>  (241) 
-3.69498

>  <r_i_glide_lipo>  (241) 
-0.410372

>  <r_i_glide_hbond>  (241) 
-0.125325

>  <r_i_glide_metal>  (241) 
-0

>  <r_i_glide_rewards>  (241) 
-1.48624

>  <r_i_glide_evdw>  (241) 
-23.2941

>  <r_i_glide_ecoul>  (241) 
-6.153

>  <r_i_glide_erotb>  (241) 
0.414612

>  <r_i_glide_esite>  (241) 
0

>  <r_i_glide_emodel>  (241) 
-36.3754

>  <r_i_glide_energy>  (241) 
-29.4471

>  <r_i_glide_einternal>  (241) 
4.17894

>  <r_i_glide_intrahb_reward>  (241) 
-0

>  <i_i_glide_confnum>  (241) 
2

>  <i_i_glide_posenum>  (241) 
40

>  <r_i_glide_eff_state_penalty>  (241) 
0

>  <ligand_id>  (241) 
57

>  <original_smiles>  (241) 
CN1CC2CCN(S(=O)(=O)c3ccc(O)cc3)CC2C1

>  <smiles>  (241) 
[H]Oc1c([H])c([H])c(S(=O)(=O)N2C([H])([H])C([H])([H])C3([H])C([H])(C2([H])[H])C([H])([H])[N+]([H])(C([H])([H])[H])C3([H])[H])c([H])c1[H]

$$$$
57:1:0
     RDKit          3D

 40 42  0  0  1  0  0  0  0  0999 V2000
    2.9106   -0.3515   -4.4429 C   0  0  0  0  0  0  0  0  0  0  0  0
    3.0853   -1.7156   -3.8872 N   0  0  1  0  0  0  0  0  0  0  0  0
    4.4759   -2.1985   -3.8972 C   0  0  0  0  0  0  0  0  0  0  0  0
    4.8594   -2.4712   -2.4462 C   0  0  2  0  0  0  0  0  0  0  0  0
    5.8633   -3.5763   -2.1305 C   0  0  0  0  0  0  0  0  0  0  0  0
    5.9773   -3.7458   -0.5916 C   0  0  0  0  0  0  0  0  0  0  0  0
    4.6636   -3.9158    0.0771 N   0  0  0  0  0  0  0  0  0  0  0  0
    4.6841   -4.4081    1.7375 S   0  0  0  0  0  0  0  0  0  0  0  0
    5.6973   -5.4603    1.8715 O   0  0  0  0  0  0  0  0  0  0  0  0
    4.7876   -3.1821    2.5471 O   0  0  0  0  0  0  0  0  0  0  0  0
    3.0767   -5.1573    1.9835 C   0  0  0  0  0  0  0  0  0  0  0  0
    2.3479   -4.8474    3.1434 C   0  0  0  0  0  0  0  0  0  0  0  0
    1.0555   -5.4102    3.3226 C   0  0  0  0  0  0  0  0  0  0  0  0
    0.5166   -6.2609    2.3345 C   0  0  0  0  0  0  0  0  0  0  0  0
   -0.7719   -6.7179    2.4644 O   0  0  0  0  0  0  0  0  0  0  0  0
    1.2687   -6.5865    1.1849 C   0  0  0  0  0  0  0  0  0  0  0  0
    2.5618   -6.0232    1.0037 C   0  0  0  0  0  0  0  0  0  0  0  0
    3.6397   -2.9239   -0.3229 C   0  0  0  0  0  0  0  0  0  0  0  0
    3.5395   -2.8769   -1.8563 C   0  0  1  0  0  0  0  0  0  0  0  0
    2.5994   -1.8782   -2.5044 C   0  0  0  0  0  0  0  0  0  0  0  0
    3.4486    0.4008   -3.8685 H   0  0  0  0  0  0  0  0  0  0  0  0
    1.8732   -0.0334   -4.4828 H   0  0  0  0  0  0  0  0  0  0  0  0
    3.2573   -0.2979   -5.4736 H   0  0  0  0  0  0  0  0  0  0  0  0
    4.5683   -3.0943   -4.5052 H   0  0  0  0  0  0  0  0  0  0  0  0
    5.0784   -1.4227   -4.3255 H   0  0  0  0  0  0  0  0  0  0  0  0
    5.1875   -1.5381   -1.9827 H   0  0  0  0  0  0  0  0  0  0  0  0
    5.5253   -4.5098   -2.5870 H   0  0  0  0  0  0  0  0  0  0  0  0
    6.8423   -3.3322   -2.5471 H   0  0  0  0  0  0  0  0  0  0  0  0
    6.6219   -4.5834   -0.3393 H   0  0  0  0  0  0  0  0  0  0  0  0
    6.4715   -2.8813   -0.1506 H   0  0  0  0  0  0  0  0  0  0  0  0
    2.7439   -4.1782    3.8902 H   0  0  0  0  0  0  0  0  0  0  0  0
    0.4743   -5.1630    4.2005 H   0  0  0  0  0  0  0  0  0  0  0  0
    0.8493   -7.2483    0.4441 H   0  0  0  0  0  0  0  0  0  0  0  0
    3.1297   -6.2523    0.1186 H   0  0  0  0  0  0  0  0  0  0  0  0
    2.6751   -3.1802    0.1070 H   0  0  0  0  0  0  0  0  0  0  0  0
    3.9014   -1.9508    0.0918 H   0  0  0  0  0  0  0  0  0  0  0  0
    3.2467   -3.8553   -2.2309 H   0  0  0  0  0  0  0  0  0  0  0  0
    2.6149   -0.9302   -1.9735 H   0  0  0  0  0  0  0  0  0  0  0  0
    1.5938   -2.2844   -2.5175 H   0  0  0  0  0  0  0  0  0  0  0  0
    2.5570   -2.3335   -4.4703 H   0  0  0  0  0  0  0  0  0  0  0  0
  1  2  1  0
  1 21  1  0
  1 22  1  0
  1 23  1  0
  2 20  1  0
  2  3  1  0
  2 40  1  6
  3  4  1  0
  3 24  1  0
  3 25  1  0
  4 19  1  0
  4  5  1  0
  4 26  1  1
  5  6  1  0
  5 27  1  0
  5 28  1  0
  6  7  1  0
  6 29  1  0
  6 30  1  0
  7  8  1  0
  7 18  1  0
  8  9  2  0
  8 10  2  0
  8 11  1  0
 11 17  1  0
 11 12  2  0
 12 13  1  0
 12 31  1  0
 13 14  2  0
 13 32  1  0
 14 15  1  0
 14 16  1  0
 16 17  2  0
 16 33  1  0
 17 34  1  0
 18 19  1  0
 18 35  1  0
 18 36  1  0
 19 20  1  0
 19 37  1  6
 20 38  1  0
 20 39  1  0
M  CHG  2   2   1  15  -1
M  END
>  <i_m_ct_stereo_status>  (242) 
1

>  <s_m_source_file>  (242) 
/var/tmp/pbs.5102103.sched01/tmpndyyrgqo/88kp20v8wr.sdf

>  <i_m_source_file_index>  (242) 
3

>  <i_lp_mmshare_version>  (242) 
48012

>  <i_f3d_flags>  (242) 
0

>  <s_epik_input>  (242) 
W0NIM11OKFtDSDJdMSlbQ0gyXVtDQEBIXShbQ0BIXTEyKVtDSDJdTihbQ0gyXVtDSDJdMilTKD1PKSg9TyljM1tjSF1bY0hdYyhbT0hdKVtjSF1bY0hdMw==

>  <s_epik_cmdline>  (242) 
J2VwaWtfcHl0aG9uJywgJy1waHQnLCAnMi4wJywgJy1waCcsICc3LjAnLCAnLXRuJywgJzgnLCAnLW1hJywgJzIwMCcsICctaW1hZScsICc8aW5maWxlLm1hZT4nLCAnLW9tYWUnLCAnPG91dGZpbGUubWFlPic=

>  <r_epik_Ionization_Penalty>  (242) 
2.07119

>  <r_epik_Ionization_Penalty_Charging>  (242) 
2.07119

>  <r_epik_Ionization_Penalty_Neutral>  (242) 
3.24659e-10

>  <r_epik_State_Penalty>  (242) 
2.20245

>  <r_epik_Charging_Adjusted_Penalty>  (242) 
4.27364

>  <i_epik_Tot_Q>  (242) 
0

>  <i_epik_Tot_abs_Q>  (242) 
2

>  <s_lp_Force_Field>  (242) 
OPLS3e

>  <r_lp_Energy>  (242) 
28.4315

>  <b_lp_Chiralities_Consistent>  (242) 
1

>  <s_lp_Variant>  (242) 
57:0-2

>  <s_i_glide_gridfile>  (242) 
pfpi4k_grid

>  <i_i_glide_lignum>  (242) 
3

>  <i_i_glide_rotatable_bonds>  (242) 
2

>  <r_i_docking_score>  (242) 
-3.56225

>  <r_i_glide_ligand_efficiency>  (242) 
-0.178112

>  <r_i_glide_ligand_efficiency_sa>  (242) 
-0.483472

>  <r_i_glide_ligand_efficiency_ln>  (242) 
-0.891514

>  <r_i_glide_gscore>  (242) 
-3.56225

>  <r_i_glide_lipo>  (242) 
-0.653549

>  <r_i_glide_hbond>  (242) 
-0.2

>  <r_i_glide_metal>  (242) 
-0

>  <r_i_glide_rewards>  (242) 
-1.46069

>  <r_i_glide_evdw>  (242) 
-18.2126

>  <r_i_glide_ecoul>  (242) 
-5.02975

>  <r_i_glide_erotb>  (242) 
0.41708

>  <r_i_glide_esite>  (242) 
0

>  <r_i_glide_emodel>  (242) 
-32.2846

>  <r_i_glide_energy>  (242) 
-23.2424

>  <r_i_glide_einternal>  (242) 
4.07126

>  <r_i_glide_intrahb_reward>  (242) 
-0

>  <i_i_glide_confnum>  (242) 
3

>  <i_i_glide_posenum>  (242) 
4

>  <r_i_glide_eff_state_penalty>  (242) 
0

>  <ligand_id>  (242) 
57

>  <original_smiles>  (242) 
CN1CC2CCN(S(=O)(=O)c3ccc(O)cc3)CC2C1

>  <smiles>  (242) 
[H]c1c([H])c(S(=O)(=O)N2C([H])([H])C([H])([H])C3([H])C([H])(C2([H])[H])C([H])([H])[N+]([H])(C([H])([H])[H])C3([H])[H])c([H])c([H])c1[O-]

$$$$
57:1:1
     RDKit          3D

 40 42  0  0  1  0  0  0  0  0999 V2000
    0.6186  -11.3196    3.0531 C   0  0  0  0  0  0  0  0  0  0  0  0
    0.2477  -10.3478    4.1082 N   0  0  1  0  0  0  0  0  0  0  0  0
    0.9069  -10.6015    5.4179 C   0  0  0  0  0  0  0  0  0  0  0  0
    1.6881   -9.3274    5.7388 C   0  0  2  0  0  0  0  0  0  0  0  0
    1.8897   -8.9189    7.1976 C   0  0  0  0  0  0  0  0  0  0  0  0
    2.6517   -7.5726    7.2451 C   0  0  0  0  0  0  0  0  0  0  0  0
    2.0398   -6.5224    6.3891 N   0  0  0  0  0  0  0  0  0  0  0  0
    2.6138   -4.8969    6.5826 S   0  0  0  0  0  0  0  0  0  0  0  0
    3.0196   -4.7253    7.9908 O   0  0  0  0  0  0  0  0  0  0  0  0
    3.5830   -4.6339    5.5013 O   0  0  0  0  0  0  0  0  0  0  0  0
    1.1586   -3.8909    6.3312 C   0  0  0  0  0  0  0  0  0  0  0  0
    1.2380   -2.7448    5.5137 C   0  0  0  0  0  0  0  0  0  0  0  0
    0.0877   -1.9604    5.3008 C   0  0  0  0  0  0  0  0  0  0  0  0
   -1.1218   -2.3175    5.9110 C   0  0  0  0  0  0  0  0  0  0  0  0
   -2.2181   -1.5417    5.6800 O   0  0  0  0  0  0  0  0  0  0  0  0
   -1.2068   -3.4651    6.7229 C   0  0  0  0  0  0  0  0  0  0  0  0
   -0.0592   -4.2605    6.9411 C   0  0  0  0  0  0  0  0  0  0  0  0
    1.7075   -6.9514    5.0090 C   0  0  0  0  0  0  0  0  0  0  0  0
    0.8840   -8.2477    5.0493 C   0  0  1  0  0  0  0  0  0  0  0  0
    0.5186   -8.9334    3.7338 C   0  0  0  0  0  0  0  0  0  0  0  0
    1.6937  -11.3067    2.8510 H   0  0  0  0  0  0  0  0  0  0  0  0
    0.0926  -11.0938    2.1234 H   0  0  0  0  0  0  0  0  0  0  0  0
    0.3514  -12.3313    3.3599 H   0  0  0  0  0  0  0  0  0  0  0  0
    0.1285  -10.7843    6.1590 H   0  0  0  0  0  0  0  0  0  0  0  0
    1.5586  -11.4734    5.3918 H   0  0  0  0  0  0  0  0  0  0  0  0
    2.6636   -9.4190    5.2563 H   0  0  0  0  0  0  0  0  0  0  0  0
    0.9263   -8.8305    7.7071 H   0  0  0  0  0  0  0  0  0  0  0  0
    2.4590   -9.6838    7.7248 H   0  0  0  0  0  0  0  0  0  0  0  0
    2.7129   -7.2248    8.2747 H   0  0  0  0  0  0  0  0  0  0  0  0
    3.6847   -7.7094    6.9236 H   0  0  0  0  0  0  0  0  0  0  0  0
    2.1751   -2.4614    5.0594 H   0  0  0  0  0  0  0  0  0  0  0  0
    0.1349   -1.0894    4.6646 H   0  0  0  0  0  0  0  0  0  0  0  0
   -2.1461   -3.7657    7.1659 H   0  0  0  0  0  0  0  0  0  0  0  0
   -0.1059   -5.1389    7.5679 H   0  0  0  0  0  0  0  0  0  0  0  0
    1.1623   -6.1620    4.4956 H   0  0  0  0  0  0  0  0  0  0  0  0
    2.6393   -7.0907    4.4556 H   0  0  0  0  0  0  0  0  0  0  0  0
   -0.0428   -8.0748    5.6039 H   0  0  0  0  0  0  0  0  0  0  0  0
    1.3594   -8.8869    3.0389 H   0  0  0  0  0  0  0  0  0  0  0  0
   -0.3469   -8.4822    3.2458 H   0  0  0  0  0  0  0  0  0  0  0  0
   -0.7464  -10.4631    4.3061 H   0  0  0  0  0  0  0  0  0  0  0  0
  1  2  1  0
  1 21  1  0
  1 22  1  0
  1 23  1  0
  2 20  1  0
  2  3  1  0
  2 40  1  1
  3  4  1  0
  3 24  1  0
  3 25  1  0
  4 19  1  0
  4  5  1  0
  4 26  1  6
  5  6  1  0
  5 27  1  0
  5 28  1  0
  6  7  1  0
  6 29  1  0
  6 30  1  0
  7  8  1  0
  7 18  1  0
  8  9  2  0
  8 10  2  0
  8 11  1  0
 11 17  1  0
 11 12  2  0
 12 13  1  0
 12 31  1  0
 13 14  2  0
 13 32  1  0
 14 15  1  0
 14 16  1  0
 16 17  2  0
 16 33  1  0
 17 34  1  0
 18 19  1  0
 18 35  1  0
 18 36  1  0
 19 20  1  0
 19 37  1  1
 20 38  1  0
 20 39  1  0
M  CHG  2   2   1  15  -1
M  END
>  <i_m_ct_stereo_status>  (243) 
1

>  <s_m_source_file>  (243) 
/var/tmp/pbs.5102103.sched01/tmpndyyrgqo/88kp20v8wr.sdf

>  <i_m_source_file_index>  (243) 
3

>  <i_lp_mmshare_version>  (243) 
48012

>  <i_f3d_flags>  (243) 
0

>  <s_epik_input>  (243) 
W0NIM11OKFtDSDJdMSlbQ0gyXVtDQEBIXShbQ0BIXTEyKVtDSDJdTihbQ0gyXVtDSDJdMilTKD1PKSg9TyljM1tjSF1bY0hdYyhbT0hdKVtjSF1bY0hdMw==

>  <s_epik_cmdline>  (243) 
J2VwaWtfcHl0aG9uJywgJy1waHQnLCAnMi4wJywgJy1waCcsICc3LjAnLCAnLXRuJywgJzgnLCAnLW1hJywgJzIwMCcsICctaW1hZScsICc8aW5maWxlLm1hZT4nLCAnLW9tYWUnLCAnPG91dGZpbGUubWFlPic=

>  <r_epik_Ionization_Penalty>  (243) 
2.07119

>  <r_epik_Ionization_Penalty_Charging>  (243) 
2.07119

>  <r_epik_Ionization_Penalty_Neutral>  (243) 
3.24659e-10

>  <r_epik_State_Penalty>  (243) 
2.20245

>  <r_epik_Charging_Adjusted_Penalty>  (243) 
4.27364

>  <i_epik_Tot_Q>  (243) 
0

>  <i_epik_Tot_abs_Q>  (243) 
2

>  <s_lp_Force_Field>  (243) 
OPLS3e

>  <r_lp_Energy>  (243) 
28.4315

>  <b_lp_Chiralities_Consistent>  (243) 
1

>  <s_lp_Variant>  (243) 
57:0-2

>  <s_i_glide_gridfile>  (243) 
pfpi4k_grid

>  <i_i_glide_lignum>  (243) 
3

>  <i_i_glide_rotatable_bonds>  (243) 
2

>  <r_i_docking_score>  (243) 
-3.0756

>  <r_i_glide_ligand_efficiency>  (243) 
-0.15378

>  <r_i_glide_ligand_efficiency_sa>  (243) 
-0.417423

>  <r_i_glide_ligand_efficiency_ln>  (243) 
-0.769721

>  <r_i_glide_gscore>  (243) 
-3.0756

>  <r_i_glide_lipo>  (243) 
-0.0829056

>  <r_i_glide_hbond>  (243) 
-0.213101

>  <r_i_glide_metal>  (243) 
-0

>  <r_i_glide_rewards>  (243) 
-1.46039

>  <r_i_glide_evdw>  (243) 
-12.0133

>  <r_i_glide_ecoul>  (243) 
-7.0771

>  <r_i_glide_erotb>  (243) 
0.41708

>  <r_i_glide_esite>  (243) 
-0.0740556

>  <r_i_glide_emodel>  (243) 
-26.7166

>  <r_i_glide_energy>  (243) 
-19.0904

>  <r_i_glide_einternal>  (243) 
3.89322

>  <r_i_glide_intrahb_reward>  (243) 
-0

>  <i_i_glide_confnum>  (243) 
3

>  <i_i_glide_posenum>  (243) 
7

>  <r_i_glide_eff_state_penalty>  (243) 
0

>  <ligand_id>  (243) 
57

>  <original_smiles>  (243) 
CN1CC2CCN(S(=O)(=O)c3ccc(O)cc3)CC2C1

>  <smiles>  (243) 
[H]c1c([H])c(S(=O)(=O)N2C([H])([H])C([H])([H])C3([H])C([H])(C2([H])[H])C([H])([H])[N+]([H])(C([H])([H])[H])C3([H])[H])c([H])c([H])c1[O-]

$$$$
57:1:2
     RDKit          3D

 40 42  0  0  1  0  0  0  0  0999 V2000
    2.8093  -11.3260    3.1180 C   0  0  0  0  0  0  0  0  0  0  0  0
    1.7670  -10.4069    3.6327 N   0  0  1  0  0  0  0  0  0  0  0  0
    0.8710  -10.9989    4.6602 C   0  0  0  0  0  0  0  0  0  0  0  0
    1.0115  -10.0941    5.8879 C   0  0  2  0  0  0  0  0  0  0  0  0
   -0.1713   -9.9172    6.8395 C   0  0  0  0  0  0  0  0  0  0  0  0
    0.2135   -8.9372    7.9612 C   0  0  0  0  0  0  0  0  0  0  0  0
    0.7714   -7.6606    7.4471 N   0  0  0  0  0  0  0  0  0  0  0  0
    0.9378   -6.3429    8.5626 S   0  0  0  0  0  0  0  0  0  0  0  0
    0.0806   -6.6356    9.7225 O   0  0  0  0  0  0  0  0  0  0  0  0
    2.3764   -6.0938    8.7466 O   0  0  0  0  0  0  0  0  0  0  0  0
    0.1972   -4.9583    7.6881 C   0  0  0  0  0  0  0  0  0  0  0  0
    1.0056   -3.9285    7.1724 C   0  0  0  0  0  0  0  0  0  0  0  0
    0.4097   -2.8370    6.4959 C   0  0  0  0  0  0  0  0  0  0  0  0
   -0.9963   -2.7911    6.3476 C   0  0  0  0  0  0  0  0  0  0  0  0
   -1.5982   -1.7534    5.6926 O   0  0  0  0  0  0  0  0  0  0  0  0
   -1.7901   -3.8228    6.8831 C   0  0  0  0  0  0  0  0  0  0  0  0
   -1.1988   -4.8997    7.5579 C   0  0  0  0  0  0  0  0  0  0  0  0
    1.8107   -7.7963    6.3979 C   0  0  0  0  0  0  0  0  0  0  0  0
    1.3274   -8.7415    5.2886 C   0  0  1  0  0  0  0  0  0  0  0  0
    2.3007   -9.1303    4.1758 C   0  0  0  0  0  0  0  0  0  0  0  0
    3.4811  -11.6463    3.9178 H   0  0  0  0  0  0  0  0  0  0  0  0
    3.4068  -10.8373    2.3433 H   0  0  0  0  0  0  0  0  0  0  0  0
    2.3614  -12.2200    2.6772 H   0  0  0  0  0  0  0  0  0  0  0  0
   -0.1475  -10.9874    4.2693 H   0  0  0  0  0  0  0  0  0  0  0  0
    1.1283  -12.0358    4.8905 H   0  0  0  0  0  0  0  0  0  0  0  0
    1.8802  -10.4485    6.4480 H   0  0  0  0  0  0  0  0  0  0  0  0
   -1.0289   -9.5148    6.3000 H   0  0  0  0  0  0  0  0  0  0  0  0
   -0.4641  -10.8760    7.2647 H   0  0  0  0  0  0  0  0  0  0  0  0
   -0.6644   -8.7374    8.5732 H   0  0  0  0  0  0  0  0  0  0  0  0
    0.9488   -9.3853    8.6296 H   0  0  0  0  0  0  0  0  0  0  0  0
    2.0767   -3.9657    7.3062 H   0  0  0  0  0  0  0  0  0  0  0  0
    1.0278   -2.0560    6.0977 H   0  0  0  0  0  0  0  0  0  0  0  0
   -2.8650   -3.7861    6.7686 H   0  0  0  0  0  0  0  0  0  0  0  0
   -1.8131   -5.6724    7.9938 H   0  0  0  0  0  0  0  0  0  0  0  0
    2.0644   -6.8164    5.9940 H   0  0  0  0  0  0  0  0  0  0  0  0
    2.7198   -8.1749    6.8708 H   0  0  0  0  0  0  0  0  0  0  0  0
    0.4258   -8.3337    4.8198 H   0  0  0  0  0  0  0  0  0  0  0  0
    3.3010   -9.2906    4.5846 H   0  0  0  0  0  0  0  0  0  0  0  0
    2.3720   -8.3680    3.3983 H   0  0  0  0  0  0  0  0  0  0  0  0
    1.1719  -10.1759    2.8441 H   0  0  0  0  0  0  0  0  0  0  0  0
  1  2  1  0
  1 21  1  0
  1 22  1  0
  1 23  1  0
  2 20  1  0
  2  3  1  0
  2 40  1  6
  3  4  1  0
  3 24  1  0
  3 25  1  0
  4 19  1  0
  4  5  1  0
  4 26  1  1
  5  6  1  0
  5 27  1  0
  5 28  1  0
  6  7  1  0
  6 29  1  0
  6 30  1  0
  7  8  1  0
  7 18  1  0
  8  9  2  0
  8 10  2  0
  8 11  1  0
 11 17  1  0
 11 12  2  0
 12 13  1  0
 12 31  1  0
 13 14  2  0
 13 32  1  0
 14 15  1  0
 14 16  1  0
 16 17  2  0
 16 33  1  0
 17 34  1  0
 18 19  1  0
 18 35  1  0
 18 36  1  0
 19 20  1  0
 19 37  1  6
 20 38  1  0
 20 39  1  0
M  CHG  2   2   1  15  -1
M  END
>  <i_m_ct_stereo_status>  (244) 
1

>  <s_m_source_file>  (244) 
/var/tmp/pbs.5102103.sched01/tmpndyyrgqo/88kp20v8wr.sdf

>  <i_m_source_file_index>  (244) 
3

>  <i_lp_mmshare_version>  (244) 
48012

>  <i_f3d_flags>  (244) 
0

>  <s_epik_input>  (244) 
W0NIM11OKFtDSDJdMSlbQ0gyXVtDQEBIXShbQ0BIXTEyKVtDSDJdTihbQ0gyXVtDSDJdMilTKD1PKSg9TyljM1tjSF1bY0hdYyhbT0hdKVtjSF1bY0hdMw==

>  <s_epik_cmdline>  (244) 
J2VwaWtfcHl0aG9uJywgJy1waHQnLCAnMi4wJywgJy1waCcsICc3LjAnLCAnLXRuJywgJzgnLCAnLW1hJywgJzIwMCcsICctaW1hZScsICc8aW5maWxlLm1hZT4nLCAnLW9tYWUnLCAnPG91dGZpbGUubWFlPic=

>  <r_epik_Ionization_Penalty>  (244) 
2.07119

>  <r_epik_Ionization_Penalty_Charging>  (244) 
2.07119

>  <r_epik_Ionization_Penalty_Neutral>  (244) 
3.24659e-10

>  <r_epik_State_Penalty>  (244) 
2.20245

>  <r_epik_Charging_Adjusted_Penalty>  (244) 
4.27364

>  <i_epik_Tot_Q>  (244) 
0

>  <i_epik_Tot_abs_Q>  (244) 
2

>  <s_lp_Force_Field>  (244) 
OPLS3e

>  <r_lp_Energy>  (244) 
28.4315

>  <b_lp_Chiralities_Consistent>  (244) 
1

>  <s_lp_Variant>  (244) 
57:0-2

>  <s_i_glide_gridfile>  (244) 
pfpi4k_grid

>  <i_i_glide_lignum>  (244) 
3

>  <i_i_glide_rotatable_bonds>  (244) 
2

>  <r_i_docking_score>  (244) 
-3.00896

>  <r_i_glide_ligand_efficiency>  (244) 
-0.150448

>  <r_i_glide_ligand_efficiency_sa>  (244) 
-0.408379

>  <r_i_glide_ligand_efficiency_ln>  (244) 
-0.753044

>  <r_i_glide_gscore>  (244) 
-3.00896

>  <r_i_glide_lipo>  (244) 
-0.0378512

>  <r_i_glide_hbond>  (244) 
0

>  <r_i_glide_metal>  (244) 
-0

>  <r_i_glide_rewards>  (244) 
-1.38828

>  <r_i_glide_evdw>  (244) 
-14.3483

>  <r_i_glide_ecoul>  (244) 
-8.06336

>  <r_i_glide_erotb>  (244) 
0.41708

>  <r_i_glide_esite>  (244) 
-0.072996

>  <r_i_glide_emodel>  (244) 
-29.4551

>  <r_i_glide_energy>  (244) 
-22.4116

>  <r_i_glide_einternal>  (244) 
4.52576

>  <r_i_glide_intrahb_reward>  (244) 
-0

>  <i_i_glide_confnum>  (244) 
3

>  <i_i_glide_posenum>  (244) 
27

>  <r_i_glide_eff_state_penalty>  (244) 
0

>  <ligand_id>  (244) 
57

>  <original_smiles>  (244) 
CN1CC2CCN(S(=O)(=O)c3ccc(O)cc3)CC2C1

>  <smiles>  (244) 
[H]c1c([H])c(S(=O)(=O)N2C([H])([H])C([H])([H])C3([H])C([H])(C2([H])[H])C([H])([H])[N+]([H])(C([H])([H])[H])C3([H])[H])c([H])c([H])c1[O-]

$$$$
58:0:0
     RDKit          3D

 38 41  0  0  1  0  0  0  0  0999 V2000
   -0.9695    0.9443    8.8234 O   0  0  0  0  0  0  0  0  0  0  0  0
   -1.3078    1.3290    7.6808 C   0  0  0  0  0  0  0  0  0  0  0  0
   -2.0588    0.6441    6.9516 O   0  0  0  0  0  0  0  0  0  0  0  0
   -0.8161    2.6638    7.2013 C   0  0  0  0  0  0  0  0  0  0  0  0
   -0.9202    3.7650    8.0739 C   0  0  0  0  0  0  0  0  0  0  0  0
   -0.5595    5.0816    7.6948 C   0  0  0  0  0  0  0  0  0  0  0  0
   -0.7327    6.2133    8.6309 C   0  0  0  0  0  0  0  0  0  0  0  0
    0.0853    7.3602    8.5547 C   0  0  0  0  0  0  0  0  0  0  0  0
   -0.1111    8.4179    9.4602 C   0  0  0  0  0  0  0  0  0  0  0  0
   -1.0504    8.3998   10.4266 N   0  0  0  0  0  0  0  0  0  0  0  0
   -1.8323    7.3059   10.5125 C   0  0  0  0  0  0  0  0  0  0  0  0
   -1.7185    6.2035    9.6468 C   0  0  0  0  0  0  0  0  0  0  0  0
   -0.0346    5.2823    6.3926 C   0  0  0  0  0  0  0  0  0  0  0  0
    0.1233    4.1757    5.5308 C   0  0  0  0  0  0  0  0  0  0  0  0
   -0.2584    2.8747    5.9126 C   0  0  0  0  0  0  0  0  0  0  0  0
    0.0370    1.9743    4.7907 C   0  0  0  0  0  0  0  0  0  0  0  0
   -0.0957    0.5763    4.6387 C   0  0  0  0  0  0  0  0  0  0  0  0
    0.2284   -0.0202    3.4053 C   0  0  0  0  0  0  0  0  0  0  0  0
    0.7101    0.7574    2.3334 C   0  0  0  0  0  0  0  0  0  0  0  0
    0.8995    2.1463    2.4994 C   0  0  0  0  0  0  0  0  0  0  0  0
    0.5554    2.7380    3.7342 C   0  0  0  0  0  0  0  0  0  0  0  0
    0.6776    4.2183    4.1036 C   0  0  1  0  0  0  0  0  0  0  0  0
   -0.1280    5.0410    3.2796 O   0  0  0  0  0  0  0  0  0  0  0  0
    2.1418    4.7368    4.0551 C   0  0  0  0  0  0  0  0  0  0  0  0
    2.2250    5.9952    4.4866 F   0  0  0  0  0  0  0  0  0  0  0  0
    2.9204    3.9894    4.8361 F   0  0  0  0  0  0  0  0  0  0  0  0
    2.6174    4.6811    2.8144 F   0  0  0  0  0  0  0  0  0  0  0  0
   -1.3159    3.5807    9.0650 H   0  0  0  0  0  0  0  0  0  0  0  0
    0.8748    7.4407    7.8222 H   0  0  0  0  0  0  0  0  0  0  0  0
    0.5094    9.3010    9.4074 H   0  0  0  0  0  0  0  0  0  0  0  0
   -2.5819    7.3151   11.2919 H   0  0  0  0  0  0  0  0  0  0  0  0
   -2.3959    5.3734    9.7802 H   0  0  0  0  0  0  0  0  0  0  0  0
    0.2397    6.2693    6.0417 H   0  0  0  0  0  0  0  0  0  0  0  0
   -0.4242   -0.0695    5.4323 H   0  0  0  0  0  0  0  0  0  0  0  0
    0.1074   -1.0864    3.2878 H   0  0  0  0  0  0  0  0  0  0  0  0
    0.9434    0.2947    1.3849 H   0  0  0  0  0  0  0  0  0  0  0  0
    1.2844    2.7466    1.6897 H   0  0  0  0  0  0  0  0  0  0  0  0
    0.1170    4.8839    2.3598 H   0  0  0  0  0  0  0  0  0  0  0  0
  1  2  2  0
  2  3  1  0
  2  4  1  0
  4 15  2  0
  4  5  1  0
  5  6  2  0
  5 28  1  0
  6  7  1  0
  6 13  1  0
  7 12  1  0
  7  8  2  0
  8  9  1  0
  8 29  1  0
  9 10  2  0
  9 30  1  0
 10 11  1  0
 11 12  2  0
 11 31  1  0
 12 32  1  0
 13 14  2  0
 13 33  1  0
 14 22  1  0
 14 15  1  0
 15 16  1  0
 16 21  2  0
 16 17  1  0
 17 18  2  0
 17 34  1  0
 18 19  1  0
 18 35  1  0
 19 20  2  0
 19 36  1  0
 20 21  1  0
 20 37  1  0
 21 22  1  0
 22 23  1  6
 22 24  1  0
 23 38  1  0
 24 25  1  0
 24 26  1  0
 24 27  1  0
M  CHG  1   3  -1
M  END
>  <i_m_ct_stereo_status>  (245) 
1

>  <s_m_source_file>  (245) 
/var/tmp/pbs.5102103.sched01/tmpndyyrgqo/88kp20v8wr.sdf

>  <i_m_source_file_index>  (245) 
4

>  <i_lp_mmshare_version>  (245) 
48012

>  <i_f3d_flags>  (245) 
0

>  <s_epik_input>  (245) 
W2NIXTFbY0hdW2NIXVtjSF1jKFtDQF0yKFtPSF0pQyhGKShGKUYpYzFjKGMyMyljKEMoPU8pW09IXSlbY0hdYyhbY0hdMyktYzRbY0hdW2NIXW5bY0hdW2NIXTQ=

>  <s_epik_cmdline>  (245) 
J2VwaWtfcHl0aG9uJywgJy1waHQnLCAnMi4wJywgJy1waCcsICc3LjAnLCAnLXRuJywgJzgnLCAnLW1hJywgJzIwMCcsICctaW1hZScsICc8aW5maWxlLm1hZT4nLCAnLW9tYWUnLCAnPG91dGZpbGUubWFlPic=

>  <r_epik_Ionization_Penalty>  (245) 
0.010253

>  <r_epik_Ionization_Penalty_Charging>  (245) 
7.46364e-05

>  <r_epik_Ionization_Penalty_Neutral>  (245) 
0.0101784

>  <r_epik_State_Penalty>  (245) 
0.00767284

>  <r_epik_Charging_Adjusted_Penalty>  (245) 
0.00774748

>  <i_epik_Tot_Q>  (245) 
-1

>  <i_epik_Tot_abs_Q>  (245) 
1

>  <s_lp_Force_Field>  (245) 
OPLS3e

>  <r_lp_Energy>  (245) 
40.9927

>  <b_lp_Chiralities_Consistent>  (245) 
1

>  <s_lp_Variant>  (245) 
58:0-1

>  <s_i_glide_gridfile>  (245) 
pfpi4k_grid

>  <i_i_glide_lignum>  (245) 
4

>  <i_i_glide_rotatable_bonds>  (245) 
4

>  <r_i_docking_score>  (245) 
-3.76318

>  <r_i_glide_ligand_efficiency>  (245) 
-0.139377

>  <r_i_glide_ligand_efficiency_sa>  (245) 
-0.418131

>  <r_i_glide_ligand_efficiency_ln>  (245) 
-0.876006

>  <r_i_glide_gscore>  (245) 
-3.76318

>  <r_i_glide_lipo>  (245) 
-0.0613415

>  <r_i_glide_hbond>  (245) 
-0.36076

>  <r_i_glide_metal>  (245) 
-0

>  <r_i_glide_rewards>  (245) 
-0.884308

>  <r_i_glide_evdw>  (245) 
-17.2334

>  <r_i_glide_ecoul>  (245) 
-10.9418

>  <r_i_glide_erotb>  (245) 
0.140681

>  <r_i_glide_esite>  (245) 
-0.0945158

>  <r_i_glide_emodel>  (245) 
-38.3515

>  <r_i_glide_energy>  (245) 
-28.1751

>  <r_i_glide_einternal>  (245) 
0.615184

>  <r_i_glide_intrahb_reward>  (245) 
-0

>  <i_i_glide_confnum>  (245) 
5

>  <i_i_glide_posenum>  (245) 
34

>  <r_i_glide_eff_state_penalty>  (245) 
0

>  <ligand_id>  (245) 
58

>  <original_smiles>  (245) 
O=C(O)c1cc(-c2ccncc2)cc2c1-c1ccccc1C2(O)C(F)(F)F

>  <smiles>  (245) 
[H]OC1(C(F)(F)F)c2c([H])c([H])c([H])c([H])c2-c2c(C(=O)[O-])c([H])c(-c3c([H])c([H])nc([H])c3[H])c([H])c21

$$$$
58:0:1
     RDKit          3D

 38 41  0  0  1  0  0  0  0  0999 V2000
    0.8434   -6.1839    1.0439 O   0  0  0  0  0  0  0  0  0  0  0  0
    1.8938   -5.9527    1.6888 C   0  0  0  0  0  0  0  0  0  0  0  0
    2.3918   -6.7756    2.4860 O   0  0  0  0  0  0  0  0  0  0  0  0
    2.5831   -4.6351    1.4575 C   0  0  0  0  0  0  0  0  0  0  0  0
    2.8211   -4.2289    0.1219 C   0  0  0  0  0  0  0  0  0  0  0  0
    3.4876   -3.0225   -0.1998 C   0  0  0  0  0  0  0  0  0  0  0  0
    3.7526   -2.6634   -1.6005 C   0  0  0  0  0  0  0  0  0  0  0  0
    3.4198   -1.3933   -2.1117 C   0  0  0  0  0  0  0  0  0  0  0  0
    3.6527   -1.1034   -3.4639 C   0  0  0  0  0  0  0  0  0  0  0  0
    4.2043   -1.9896   -4.3139 N   0  0  0  0  0  0  0  0  0  0  0  0
    4.5198   -3.2085   -3.8320 C   0  0  0  0  0  0  0  0  0  0  0  0
    4.3434   -3.5768   -2.4927 C   0  0  0  0  0  0  0  0  0  0  0  0
    3.8931   -2.1632    0.8416 C   0  0  0  0  0  0  0  0  0  0  0  0
    3.6275   -2.5371    2.1763 C   0  0  0  0  0  0  0  0  0  0  0  0
    2.9804   -3.7483    2.4985 C   0  0  0  0  0  0  0  0  0  0  0  0
    2.8708   -3.8035    3.9680 C   0  0  0  0  0  0  0  0  0  0  0  0
    2.2739   -4.7473    4.8311 C   0  0  0  0  0  0  0  0  0  0  0  0
    2.3652   -4.5596    6.2236 C   0  0  0  0  0  0  0  0  0  0  0  0
    3.0263   -3.4322    6.7600 C   0  0  0  0  0  0  0  0  0  0  0  0
    3.5937   -2.4641    5.9011 C   0  0  0  0  0  0  0  0  0  0  0  0
    3.4920   -2.6626    4.5065 C   0  0  0  0  0  0  0  0  0  0  0  0
    4.0122   -1.7287    3.4151 C   0  0  1  0  0  0  0  0  0  0  0  0
    5.4176   -1.5584    3.4891 O   0  0  0  0  0  0  0  0  0  0  0  0
    3.3406   -0.3341    3.4505 C   0  0  0  0  0  0  0  0  0  0  0  0
    2.0150   -0.4504    3.3604 F   0  0  0  0  0  0  0  0  0  0  0  0
    3.6276    0.2972    4.5868 F   0  0  0  0  0  0  0  0  0  0  0  0
    3.7694    0.3998    2.4285 F   0  0  0  0  0  0  0  0  0  0  0  0
    2.4933   -4.8809   -0.6791 H   0  0  0  0  0  0  0  0  0  0  0  0
    2.9540   -0.6590   -1.4692 H   0  0  0  0  0  0  0  0  0  0  0  0
    3.3989   -0.1396   -3.8716 H   0  0  0  0  0  0  0  0  0  0  0  0
    4.9556   -3.9026   -4.5396 H   0  0  0  0  0  0  0  0  0  0  0  0
    4.6210   -4.5747   -2.1737 H   0  0  0  0  0  0  0  0  0  0  0  0
    4.4198   -1.2419    0.6071 H   0  0  0  0  0  0  0  0  0  0  0  0
    1.7466   -5.6118    4.4680 H   0  0  0  0  0  0  0  0  0  0  0  0
    1.9256   -5.2974    6.8835 H   0  0  0  0  0  0  0  0  0  0  0  0
    3.0904   -3.3119    7.8335 H   0  0  0  0  0  0  0  0  0  0  0  0
    4.1018   -1.5898    6.2990 H   0  0  0  0  0  0  0  0  0  0  0  0
    5.6836   -1.0296    2.7524 H   0  0  0  0  0  0  0  0  0  0  0  0
  1  2  2  0
  2  3  1  0
  2  4  1  0
  4 15  2  0
  4  5  1  0
  5  6  2  0
  5 28  1  0
  6  7  1  0
  6 13  1  0
  7 12  1  0
  7  8  2  0
  8  9  1  0
  8 29  1  0
  9 10  2  0
  9 30  1  0
 10 11  1  0
 11 12  2  0
 11 31  1  0
 12 32  1  0
 13 14  2  0
 13 33  1  0
 14 22  1  0
 14 15  1  0
 15 16  1  0
 16 21  2  0
 16 17  1  0
 17 18  2  0
 17 34  1  0
 18 19  1  0
 18 35  1  0
 19 20  2  0
 19 36  1  0
 20 21  1  0
 20 37  1  0
 21 22  1  0
 22 23  1  1
 22 24  1  0
 23 38  1  0
 24 25  1  0
 24 26  1  0
 24 27  1  0
M  CHG  1   3  -1
M  END
>  <i_m_ct_stereo_status>  (246) 
1

>  <s_m_source_file>  (246) 
/var/tmp/pbs.5102103.sched01/tmpndyyrgqo/88kp20v8wr.sdf

>  <i_m_source_file_index>  (246) 
4

>  <i_lp_mmshare_version>  (246) 
48012

>  <i_f3d_flags>  (246) 
0

>  <s_epik_input>  (246) 
W2NIXTFbY0hdW2NIXVtjSF1jKFtDQF0yKFtPSF0pQyhGKShGKUYpYzFjKGMyMyljKEMoPU8pW09IXSlbY0hdYyhbY0hdMyktYzRbY0hdW2NIXW5bY0hdW2NIXTQ=

>  <s_epik_cmdline>  (246) 
J2VwaWtfcHl0aG9uJywgJy1waHQnLCAnMi4wJywgJy1waCcsICc3LjAnLCAnLXRuJywgJzgnLCAnLW1hJywgJzIwMCcsICctaW1hZScsICc8aW5maWxlLm1hZT4nLCAnLW9tYWUnLCAnPG91dGZpbGUubWFlPic=

>  <r_epik_Ionization_Penalty>  (246) 
0.010253

>  <r_epik_Ionization_Penalty_Charging>  (246) 
7.46364e-05

>  <r_epik_Ionization_Penalty_Neutral>  (246) 
0.0101784

>  <r_epik_State_Penalty>  (246) 
0.00767284

>  <r_epik_Charging_Adjusted_Penalty>  (246) 
0.00774748

>  <i_epik_Tot_Q>  (246) 
-1

>  <i_epik_Tot_abs_Q>  (246) 
1

>  <s_lp_Force_Field>  (246) 
OPLS3e

>  <r_lp_Energy>  (246) 
40.9927

>  <b_lp_Chiralities_Consistent>  (246) 
1

>  <s_lp_Variant>  (246) 
58:0-1

>  <s_i_glide_gridfile>  (246) 
pfpi4k_grid

>  <i_i_glide_lignum>  (246) 
4

>  <i_i_glide_rotatable_bonds>  (246) 
4

>  <r_i_docking_score>  (246) 
-3.57708

>  <r_i_glide_ligand_efficiency>  (246) 
-0.132484

>  <r_i_glide_ligand_efficiency_sa>  (246) 
-0.397453

>  <r_i_glide_ligand_efficiency_ln>  (246) 
-0.832686

>  <r_i_glide_gscore>  (246) 
-3.57708

>  <r_i_glide_lipo>  (246) 
-0.33694

>  <r_i_glide_hbond>  (246) 
-0.52

>  <r_i_glide_metal>  (246) 
-0

>  <r_i_glide_rewards>  (246) 
-0.898835

>  <r_i_glide_evdw>  (246) 
-19.99

>  <r_i_glide_ecoul>  (246) 
-6.12906

>  <r_i_glide_erotb>  (246) 
0.140681

>  <r_i_glide_esite>  (246) 
-0.0431281

>  <r_i_glide_emodel>  (246) 
-35.4506

>  <r_i_glide_energy>  (246) 
-26.119

>  <r_i_glide_einternal>  (246) 
1.19553

>  <r_i_glide_intrahb_reward>  (246) 
-0

>  <i_i_glide_confnum>  (246) 
6

>  <i_i_glide_posenum>  (246) 
20

>  <r_i_glide_eff_state_penalty>  (246) 
0

>  <ligand_id>  (246) 
58

>  <original_smiles>  (246) 
O=C(O)c1cc(-c2ccncc2)cc2c1-c1ccccc1C2(O)C(F)(F)F

>  <smiles>  (246) 
[H]OC1(C(F)(F)F)c2c([H])c([H])c([H])c([H])c2-c2c(C(=O)[O-])c([H])c(-c3c([H])c([H])nc([H])c3[H])c([H])c21

$$$$
58:0:2
     RDKit          3D

 38 41  0  0  1  0  0  0  0  0999 V2000
    2.5074   -1.6780    4.5991 O   0  0  0  0  0  0  0  0  0  0  0  0
    1.6990   -2.5574    4.2293 C   0  0  0  0  0  0  0  0  0  0  0  0
    0.5449   -2.6788    4.7048 O   0  0  0  0  0  0  0  0  0  0  0  0
    2.1278   -3.4836    3.1248 C   0  0  0  0  0  0  0  0  0  0  0  0
    2.8669   -2.9228    2.0546 C   0  0  0  0  0  0  0  0  0  0  0  0
    3.2557   -3.6696    0.9174 C   0  0  0  0  0  0  0  0  0  0  0  0
    3.9923   -3.0239   -0.1874 C   0  0  0  0  0  0  0  0  0  0  0  0
    4.9181   -3.7499   -0.9741 C   0  0  0  0  0  0  0  0  0  0  0  0
    5.5954   -3.0979   -2.0210 C   0  0  0  0  0  0  0  0  0  0  0  0
    5.4142   -1.7983   -2.3175 N   0  0  0  0  0  0  0  0  0  0  0  0
    4.5362   -1.0982   -1.5742 C   0  0  0  0  0  0  0  0  0  0  0  0
    3.8165   -1.6591   -0.5065 C   0  0  0  0  0  0  0  0  0  0  0  0
    2.9105   -5.0408    0.8624 C   0  0  0  0  0  0  0  0  0  0  0  0
    2.2153   -5.6225    1.9410 C   0  0  0  0  0  0  0  0  0  0  0  0
    1.8241   -4.8706    3.0657 C   0  0  0  0  0  0  0  0  0  0  0  0
    1.1254   -5.7919    3.9727 C   0  0  0  0  0  0  0  0  0  0  0  0
    0.5634   -5.5938    5.2525 C   0  0  0  0  0  0  0  0  0  0  0  0
   -0.0996   -6.6655    5.8824 C   0  0  0  0  0  0  0  0  0  0  0  0
   -0.1858   -7.9308    5.2617 C   0  0  0  0  0  0  0  0  0  0  0  0
    0.4057   -8.1436    3.9992 C   0  0  0  0  0  0  0  0  0  0  0  0
    1.0655   -7.0591    3.3767 C   0  0  0  0  0  0  0  0  0  0  0  0
    1.7844   -7.0849    2.0332 C   0  0  1  0  0  0  0  0  0  0  0  0
    0.9048   -7.4378    0.9806 O   0  0  0  0  0  0  0  0  0  0  0  0
    2.9988   -8.0654    2.0159 C   0  0  0  0  0  0  0  0  0  0  0  0
    3.8158   -7.8157    3.0382 F   0  0  0  0  0  0  0  0  0  0  0  0
    2.5725   -9.3236    2.1337 F   0  0  0  0  0  0  0  0  0  0  0  0
    3.7091   -7.9696    0.8883 F   0  0  0  0  0  0  0  0  0  0  0  0
    3.1178   -1.8803    2.1041 H   0  0  0  0  0  0  0  0  0  0  0  0
    5.1118   -4.7931   -0.7848 H   0  0  0  0  0  0  0  0  0  0  0  0
    6.3016   -3.6393   -2.6328 H   0  0  0  0  0  0  0  0  0  0  0  0
    4.4074   -0.0581   -1.8419 H   0  0  0  0  0  0  0  0  0  0  0  0
    3.1110   -1.0428    0.0338 H   0  0  0  0  0  0  0  0  0  0  0  0
    3.1709   -5.6365   -0.0014 H   0  0  0  0  0  0  0  0  0  0  0  0
    0.6272   -4.6582    5.7772 H   0  0  0  0  0  0  0  0  0  0  0  0
   -0.5381   -6.5067    6.8492 H   0  0  0  0  0  0  0  0  0  0  0  0
   -0.6895   -8.7472    5.7557 H   0  0  0  0  0  0  0  0  0  0  0  0
    0.3558   -9.1137    3.5298 H   0  0  0  0  0  0  0  0  0  0  0  0
    0.7346   -8.3758    1.0213 H   0  0  0  0  0  0  0  0  0  0  0  0
  1  2  2  0
  2  3  1  0
  2  4  1  0
  4 15  2  0
  4  5  1  0
  5  6  2  0
  5 28  1  0
  6  7  1  0
  6 13  1  0
  7 12  1  0
  7  8  2  0
  8  9  1  0
  8 29  1  0
  9 10  2  0
  9 30  1  0
 10 11  1  0
 11 12  2  0
 11 31  1  0
 12 32  1  0
 13 14  2  0
 13 33  1  0
 14 22  1  0
 14 15  1  0
 15 16  1  0
 16 21  2  0
 16 17  1  0
 17 18  2  0
 17 34  1  0
 18 19  1  0
 18 35  1  0
 19 20  2  0
 19 36  1  0
 20 21  1  0
 20 37  1  0
 21 22  1  0
 22 23  1  6
 22 24  1  0
 23 38  1  0
 24 25  1  0
 24 26  1  0
 24 27  1  0
M  CHG  1   3  -1
M  END
>  <i_m_ct_stereo_status>  (247) 
1

>  <s_m_source_file>  (247) 
/var/tmp/pbs.5102103.sched01/tmpndyyrgqo/88kp20v8wr.sdf

>  <i_m_source_file_index>  (247) 
4

>  <i_lp_mmshare_version>  (247) 
48012

>  <i_f3d_flags>  (247) 
0

>  <s_epik_input>  (247) 
W2NIXTFbY0hdW2NIXVtjSF1jKFtDQF0yKFtPSF0pQyhGKShGKUYpYzFjKGMyMyljKEMoPU8pW09IXSlbY0hdYyhbY0hdMyktYzRbY0hdW2NIXW5bY0hdW2NIXTQ=

>  <s_epik_cmdline>  (247) 
J2VwaWtfcHl0aG9uJywgJy1waHQnLCAnMi4wJywgJy1waCcsICc3LjAnLCAnLXRuJywgJzgnLCAnLW1hJywgJzIwMCcsICctaW1hZScsICc8aW5maWxlLm1hZT4nLCAnLW9tYWUnLCAnPG91dGZpbGUubWFlPic=

>  <r_epik_Ionization_Penalty>  (247) 
0.010253

>  <r_epik_Ionization_Penalty_Charging>  (247) 
7.46364e-05

>  <r_epik_Ionization_Penalty_Neutral>  (247) 
0.0101784

>  <r_epik_State_Penalty>  (247) 
0.00767284

>  <r_epik_Charging_Adjusted_Penalty>  (247) 
0.00774748

>  <i_epik_Tot_Q>  (247) 
-1

>  <i_epik_Tot_abs_Q>  (247) 
1

>  <s_lp_Force_Field>  (247) 
OPLS3e

>  <r_lp_Energy>  (247) 
40.9927

>  <b_lp_Chiralities_Consistent>  (247) 
1

>  <s_lp_Variant>  (247) 
58:0-1

>  <s_i_glide_gridfile>  (247) 
pfpi4k_grid

>  <i_i_glide_lignum>  (247) 
4

>  <i_i_glide_rotatable_bonds>  (247) 
4

>  <r_i_docking_score>  (247) 
-2.83823

>  <r_i_glide_ligand_efficiency>  (247) 
-0.10512

>  <r_i_glide_ligand_efficiency_sa>  (247) 
-0.315359

>  <r_i_glide_ligand_efficiency_ln>  (247) 
-0.660694

>  <r_i_glide_gscore>  (247) 
-2.83823

>  <r_i_glide_lipo>  (247) 
-0.153224

>  <r_i_glide_hbond>  (247) 
-0.194134

>  <r_i_glide_metal>  (247) 
-0

>  <r_i_glide_rewards>  (247) 
-0.903688

>  <r_i_glide_evdw>  (247) 
-23.8195

>  <r_i_glide_ecoul>  (247) 
-3.56064

>  <r_i_glide_erotb>  (247) 
0.140681

>  <r_i_glide_esite>  (247) 
-0.00279503

>  <r_i_glide_emodel>  (247) 
-35.0127

>  <r_i_glide_energy>  (247) 
-27.3802

>  <r_i_glide_einternal>  (247) 
0.0968514

>  <r_i_glide_intrahb_reward>  (247) 
-0

>  <i_i_glide_confnum>  (247) 
5

>  <i_i_glide_posenum>  (247) 
10

>  <r_i_glide_eff_state_penalty>  (247) 
0

>  <ligand_id>  (247) 
58

>  <original_smiles>  (247) 
O=C(O)c1cc(-c2ccncc2)cc2c1-c1ccccc1C2(O)C(F)(F)F

>  <smiles>  (247) 
[H]OC1(C(F)(F)F)c2c([H])c([H])c([H])c([H])c2-c2c(C(=O)[O-])c([H])c(-c3c([H])c([H])nc([H])c3[H])c([H])c21

$$$$
58:1:0
     RDKit          3D

 39 42  0  0  1  0  0  0  0  0999 V2000
   -1.4894   -3.9341    7.4738 O   0  0  0  0  0  0  0  0  0  0  0  0
   -0.5302   -3.1720    7.2446 C   0  0  0  0  0  0  0  0  0  0  0  0
   -0.1703   -2.3131    8.0871 O   0  0  0  0  0  0  0  0  0  0  0  0
    0.0927   -3.1184    5.8791 C   0  0  0  0  0  0  0  0  0  0  0  0
    0.1098   -1.8649    5.2275 C   0  0  0  0  0  0  0  0  0  0  0  0
    0.6789   -1.6721    3.9469 C   0  0  0  0  0  0  0  0  0  0  0  0
    0.6320   -0.3509    3.3028 C   0  0  0  0  0  0  0  0  0  0  0  0
   -0.4922    0.5078    3.4393 C   0  0  0  0  0  0  0  0  0  0  0  0
   -0.4928    1.7625    2.8035 C   0  0  0  0  0  0  0  0  0  0  0  0
    0.5782    2.1423    2.0814 N   0  0  0  0  0  0  0  0  0  0  0  0
    1.6695    1.3635    1.9213 C   0  0  0  0  0  0  0  0  0  0  0  0
    1.7208    0.1004    2.5263 C   0  0  0  0  0  0  0  0  0  0  0  0
    1.2974   -2.7773    3.3082 C   0  0  0  0  0  0  0  0  0  0  0  0
    1.2942   -4.0342    3.9535 C   0  0  0  0  0  0  0  0  0  0  0  0
    0.6786   -4.2291    5.2071 C   0  0  0  0  0  0  0  0  0  0  0  0
    0.8146   -5.6527    5.5500 C   0  0  0  0  0  0  0  0  0  0  0  0
    0.3561   -6.4083    6.6519 C   0  0  0  0  0  0  0  0  0  0  0  0
    0.5941   -7.7962    6.6826 C   0  0  0  0  0  0  0  0  0  0  0  0
    1.2942   -8.4310    5.6350 C   0  0  0  0  0  0  0  0  0  0  0  0
    1.7732   -7.6805    4.5370 C   0  0  0  0  0  0  0  0  0  0  0  0
    1.5223   -6.2905    4.5127 C   0  0  0  0  0  0  0  0  0  0  0  0
    1.9296   -5.3169    3.4103 C   0  0  1  0  0  0  0  0  0  0  0  0
    1.3722   -5.6948    2.1623 O   0  0  0  0  0  0  0  0  0  0  0  0
    3.4699   -5.1924    3.2603 C   0  0  0  0  0  0  0  0  0  0  0  0
    4.0311   -4.8695    4.4250 F   0  0  0  0  0  0  0  0  0  0  0  0
    3.9779   -6.3536    2.8542 F   0  0  0  0  0  0  0  0  0  0  0  0
    3.7837   -4.2485    2.3734 F   0  0  0  0  0  0  0  0  0  0  0  0
   -0.3441   -1.0216    5.7371 H   0  0  0  0  0  0  0  0  0  0  0  0
   -1.3588    0.2114    4.0116 H   0  0  0  0  0  0  0  0  0  0  0  0
   -1.3043    2.4793    2.8412 H   0  0  0  0  0  0  0  0  0  0  0  0
    2.4661    1.7548    1.3074 H   0  0  0  0  0  0  0  0  0  0  0  0
    2.5985   -0.5165    2.3913 H   0  0  0  0  0  0  0  0  0  0  0  0
    1.7397   -2.6776    2.3208 H   0  0  0  0  0  0  0  0  0  0  0  0
   -0.1852   -5.9925    7.4860 H   0  0  0  0  0  0  0  0  0  0  0  0
    0.2171   -8.3729    7.5183 H   0  0  0  0  0  0  0  0  0  0  0  0
    1.4575   -9.4985    5.6903 H   0  0  0  0  0  0  0  0  0  0  0  0
    2.3074   -8.1696    3.7298 H   0  0  0  0  0  0  0  0  0  0  0  0
    1.8109   -6.4901    1.8958 H   0  0  0  0  0  0  0  0  0  0  0  0
    0.5287    3.0661    1.5796 H   0  0  0  0  0  0  0  0  0  0  0  0
  1  2  2  0
  2  3  1  0
  2  4  1  0
  4 15  2  0
  4  5  1  0
  5  6  2  0
  5 28  1  0
  6  7  1  0
  6 13  1  0
  7 12  1  0
  7  8  2  0
  8  9  1  0
  8 29  1  0
  9 10  2  0
  9 30  1  0
 10 11  1  0
 10 39  1  0
 11 12  2  0
 11 31  1  0
 12 32  1  0
 13 14  2  0
 13 33  1  0
 14 22  1  0
 14 15  1  0
 15 16  1  0
 16 21  2  0
 16 17  1  0
 17 18  2  0
 17 34  1  0
 18 19  1  0
 18 35  1  0
 19 20  2  0
 19 36  1  0
 20 21  1  0
 20 37  1  0
 21 22  1  0
 22 23  1  6
 22 24  1  0
 23 38  1  0
 24 25  1  0
 24 26  1  0
 24 27  1  0
M  CHG  2   3  -1  10   1
M  END
>  <i_m_ct_stereo_status>  (248) 
1

>  <s_m_source_file>  (248) 
/var/tmp/pbs.5102103.sched01/tmpndyyrgqo/88kp20v8wr.sdf

>  <i_m_source_file_index>  (248) 
5

>  <i_lp_mmshare_version>  (248) 
48012

>  <i_f3d_flags>  (248) 
0

>  <s_epik_input>  (248) 
W2NIXTFbY0hdW2NIXVtjSF1jKFtDQF0yKFtPSF0pQyhGKShGKUYpYzFjKGMyMyljKEMoPU8pW09IXSlbY0hdYyhbY0hdMyktYzRbY0hdW2NIXW5bY0hdW2NIXTQ=

>  <s_epik_cmdline>  (248) 
J2VwaWtfcHl0aG9uJywgJy1waHQnLCAnMi4wJywgJy1waCcsICc3LjAnLCAnLXRuJywgJzgnLCAnLW1hJywgJzIwMCcsICctaW1hZScsICc8aW5maWxlLm1hZT4nLCAnLW9tYWUnLCAnPG91dGZpbGUubWFlPic=

>  <r_epik_Ionization_Penalty>  (248) 
2.42005

>  <r_epik_Ionization_Penalty_Charging>  (248) 
2.41993

>  <r_epik_Ionization_Penalty_Neutral>  (248) 
0.000119015

>  <r_epik_State_Penalty>  (248) 
2.57915

>  <r_epik_Charging_Adjusted_Penalty>  (248) 
4.99909

>  <i_epik_Tot_Q>  (248) 
0

>  <i_epik_Tot_abs_Q>  (248) 
2

>  <s_lp_Force_Field>  (248) 
OPLS3e

>  <r_lp_Energy>  (248) 
42.1745

>  <b_lp_Chiralities_Consistent>  (248) 
1

>  <s_lp_Variant>  (248) 
58:0-2

>  <s_i_glide_gridfile>  (248) 
pfpi4k_grid

>  <i_i_glide_lignum>  (248) 
5

>  <i_i_glide_rotatable_bonds>  (248) 
4

>  <r_i_docking_score>  (248) 
-3.61911

>  <r_i_glide_ligand_efficiency>  (248) 
-0.134041

>  <r_i_glide_ligand_efficiency_sa>  (248) 
-0.402123

>  <r_i_glide_ligand_efficiency_ln>  (248) 
-0.842468

>  <r_i_glide_gscore>  (248) 
-3.61911

>  <r_i_glide_lipo>  (248) 
-0.0504406

>  <r_i_glide_hbond>  (248) 
-0.387827

>  <r_i_glide_metal>  (248) 
-0

>  <r_i_glide_rewards>  (248) 
-0.877802

>  <r_i_glide_evdw>  (248) 
-17.1902

>  <r_i_glide_ecoul>  (248) 
-9.61612

>  <r_i_glide_erotb>  (248) 
0.139999

>  <r_i_glide_esite>  (248) 
-0.141105

>  <r_i_glide_emodel>  (248) 
-37.0333

>  <r_i_glide_energy>  (248) 
-26.8064

>  <r_i_glide_einternal>  (248) 
1.25521

>  <r_i_glide_intrahb_reward>  (248) 
-0

>  <i_i_glide_confnum>  (248) 
6

>  <i_i_glide_posenum>  (248) 
30

>  <r_i_glide_eff_state_penalty>  (248) 
0

>  <ligand_id>  (248) 
58

>  <original_smiles>  (248) 
O=C(O)c1cc(-c2ccncc2)cc2c1-c1ccccc1C2(O)C(F)(F)F

>  <smiles>  (248) 
[H]OC1(C(F)(F)F)c2c([H])c([H])c([H])c([H])c2-c2c(C(=O)[O-])c([H])c(-c3c([H])c([H])[n+]([H])c([H])c3[H])c([H])c21

$$$$
58:1:1
     RDKit          3D

 39 42  0  0  1  0  0  0  0  0999 V2000
   -1.8420    0.1458    6.3366 O   0  0  0  0  0  0  0  0  0  0  0  0
   -0.8185   -0.5476    6.1112 C   0  0  0  0  0  0  0  0  0  0  0  0
   -0.5512   -1.5347    6.8181 O   0  0  0  0  0  0  0  0  0  0  0  0
    0.1422   -0.1086    5.0427 C   0  0  0  0  0  0  0  0  0  0  0  0
    0.2565    1.2769    4.8005 C   0  0  0  0  0  0  0  0  0  0  0  0
    1.1654    1.8281    3.8638 C   0  0  0  0  0  0  0  0  0  0  0  0
    1.2510    3.2908    3.6690 C   0  0  0  0  0  0  0  0  0  0  0  0
    2.4571    3.9121    3.2608 C   0  0  0  0  0  0  0  0  0  0  0  0
    2.5101    5.3058    3.0683 C   0  0  0  0  0  0  0  0  0  0  0  0
    1.4053    6.0508    3.2782 N   0  0  0  0  0  0  0  0  0  0  0  0
    0.2360    5.5171    3.6788 C   0  0  0  0  0  0  0  0  0  0  0  0
    0.1303    4.1291    3.8862 C   0  0  0  0  0  0  0  0  0  0  0  0
    1.9972    0.9397    3.1431 C   0  0  0  0  0  0  0  0  0  0  0  0
    1.8925   -0.4466    3.3739 C   0  0  0  0  0  0  0  0  0  0  0  0
    0.9638   -0.9892    4.2835 C   0  0  0  0  0  0  0  0  0  0  0  0
    1.0706   -2.4515    4.1876 C   0  0  0  0  0  0  0  0  0  0  0  0
    0.3320   -3.4903    4.7960 C   0  0  0  0  0  0  0  0  0  0  0  0
    0.6458   -4.8315    4.5015 C   0  0  0  0  0  0  0  0  0  0  0  0
    1.6658   -5.1460    3.5803 C   0  0  0  0  0  0  0  0  0  0  0  0
    2.3903   -4.1134    2.9447 C   0  0  0  0  0  0  0  0  0  0  0  0
    2.0797   -2.7735    3.2680 C   0  0  0  0  0  0  0  0  0  0  0  0
    2.7299   -1.5230    2.6866 C   0  0  1  0  0  0  0  0  0  0  0  0
    2.6181   -1.4571    1.2796 O   0  0  0  0  0  0  0  0  0  0  0  0
    4.2478   -1.4151    3.0192 C   0  0  0  0  0  0  0  0  0  0  0  0
    4.4425   -1.4507    4.3348 F   0  0  0  0  0  0  0  0  0  0  0  0
    4.9337   -2.4234    2.4785 F   0  0  0  0  0  0  0  0  0  0  0  0
    4.7673   -0.2729    2.5632 F   0  0  0  0  0  0  0  0  0  0  0  0
   -0.3510    1.9435    5.3860 H   0  0  0  0  0  0  0  0  0  0  0  0
    3.3431    3.3249    3.0828 H   0  0  0  0  0  0  0  0  0  0  0  0
    3.3934    5.8286    2.7336 H   0  0  0  0  0  0  0  0  0  0  0  0
   -0.5740    6.2157    3.7942 H   0  0  0  0  0  0  0  0  0  0  0  0
   -0.8175    3.7136    4.1811 H   0  0  0  0  0  0  0  0  0  0  0  0
    2.7055    1.3110    2.4126 H   0  0  0  0  0  0  0  0  0  0  0  0
   -0.4901   -3.3088    5.4591 H   0  0  0  0  0  0  0  0  0  0  0  0
    0.0891   -5.6186    4.9770 H   0  0  0  0  0  0  0  0  0  0  0  0
    1.8835   -6.1781    3.3543 H   0  0  0  0  0  0  0  0  0  0  0  0
    3.1601   -4.3473    2.2247 H   0  0  0  0  0  0  0  0  0  0  0  0
    1.7246   -1.2788    1.0258 H   0  0  0  0  0  0  0  0  0  0  0  0
    1.4327    7.0578    3.1029 H   0  0  0  0  0  0  0  0  0  0  0  0
  1  2  2  0
  2  3  1  0
  2  4  1  0
  4 15  2  0
  4  5  1  0
  5  6  2  0
  5 28  1  0
  6  7  1  0
  6 13  1  0
  7 12  1  0
  7  8  2  0
  8  9  1  0
  8 29  1  0
  9 10  2  0
  9 30  1  0
 10 11  1  0
 10 39  1  0
 11 12  2  0
 11 31  1  0
 12 32  1  0
 13 14  2  0
 13 33  1  0
 14 22  1  0
 14 15  1  0
 15 16  1  0
 16 21  2  0
 16 17  1  0
 17 18  2  0
 17 34  1  0
 18 19  1  0
 18 35  1  0
 19 20  2  0
 19 36  1  0
 20 21  1  0
 20 37  1  0
 21 22  1  0
 22 23  1  6
 22 24  1  0
 23 38  1  0
 24 25  1  0
 24 26  1  0
 24 27  1  0
M  CHG  2   3  -1  10   1
M  END
>  <i_m_ct_stereo_status>  (249) 
1

>  <s_m_source_file>  (249) 
/var/tmp/pbs.5102103.sched01/tmpndyyrgqo/88kp20v8wr.sdf

>  <i_m_source_file_index>  (249) 
5

>  <i_lp_mmshare_version>  (249) 
48012

>  <i_f3d_flags>  (249) 
0

>  <s_epik_input>  (249) 
W2NIXTFbY0hdW2NIXVtjSF1jKFtDQF0yKFtPSF0pQyhGKShGKUYpYzFjKGMyMyljKEMoPU8pW09IXSlbY0hdYyhbY0hdMyktYzRbY0hdW2NIXW5bY0hdW2NIXTQ=

>  <s_epik_cmdline>  (249) 
J2VwaWtfcHl0aG9uJywgJy1waHQnLCAnMi4wJywgJy1waCcsICc3LjAnLCAnLXRuJywgJzgnLCAnLW1hJywgJzIwMCcsICctaW1hZScsICc8aW5maWxlLm1hZT4nLCAnLW9tYWUnLCAnPG91dGZpbGUubWFlPic=

>  <r_epik_Ionization_Penalty>  (249) 
2.42005

>  <r_epik_Ionization_Penalty_Charging>  (249) 
2.41993

>  <r_epik_Ionization_Penalty_Neutral>  (249) 
0.000119015

>  <r_epik_State_Penalty>  (249) 
2.57915

>  <r_epik_Charging_Adjusted_Penalty>  (249) 
4.99909

>  <i_epik_Tot_Q>  (249) 
0

>  <i_epik_Tot_abs_Q>  (249) 
2

>  <s_lp_Force_Field>  (249) 
OPLS3e

>  <r_lp_Energy>  (249) 
42.1745

>  <b_lp_Chiralities_Consistent>  (249) 
1

>  <s_lp_Variant>  (249) 
58:0-2

>  <s_i_glide_gridfile>  (249) 
pfpi4k_grid

>  <i_i_glide_lignum>  (249) 
5

>  <i_i_glide_rotatable_bonds>  (249) 
4

>  <r_i_docking_score>  (249) 
-3.56067

>  <r_i_glide_ligand_efficiency>  (249) 
-0.131877

>  <r_i_glide_ligand_efficiency_sa>  (249) 
-0.39563

>  <r_i_glide_ligand_efficiency_ln>  (249) 
-0.828866

>  <r_i_glide_gscore>  (249) 
-3.56067

>  <r_i_glide_lipo>  (249) 
-0.0355018

>  <r_i_glide_hbond>  (249) 
-0.390619

>  <r_i_glide_metal>  (249) 
-0

>  <r_i_glide_rewards>  (249) 
-1.1147

>  <r_i_glide_evdw>  (249) 
-19.3803

>  <r_i_glide_ecoul>  (249) 
-7.0376

>  <r_i_glide_erotb>  (249) 
0.139999

>  <r_i_glide_esite>  (249) 
-0.135199

>  <r_i_glide_emodel>  (249) 
-36.5911

>  <r_i_glide_energy>  (249) 
-26.4179

>  <r_i_glide_einternal>  (249) 
1.07524

>  <r_i_glide_intrahb_reward>  (249) 
-0

>  <i_i_glide_confnum>  (249) 
1

>  <i_i_glide_posenum>  (249) 
25

>  <r_i_glide_eff_state_penalty>  (249) 
0

>  <ligand_id>  (249) 
58

>  <original_smiles>  (249) 
O=C(O)c1cc(-c2ccncc2)cc2c1-c1ccccc1C2(O)C(F)(F)F

>  <smiles>  (249) 
[H]OC1(C(F)(F)F)c2c([H])c([H])c([H])c([H])c2-c2c(C(=O)[O-])c([H])c(-c3c([H])c([H])[n+]([H])c([H])c3[H])c([H])c21

$$$$
58:1:2
     RDKit          3D

 39 42  0  0  1  0  0  0  0  0999 V2000
    0.2243   -2.6634    5.9135 O   0  0  0  0  0  0  0  0  0  0  0  0
    0.6106   -3.8299    5.6719 C   0  0  0  0  0  0  0  0  0  0  0  0
    0.4963   -4.7664    6.4958 O   0  0  0  0  0  0  0  0  0  0  0  0
    1.2705   -4.0993    4.3424 C   0  0  0  0  0  0  0  0  0  0  0  0
    2.1222   -3.1126    3.8076 C   0  0  0  0  0  0  0  0  0  0  0  0
    2.8303   -3.2707    2.5976 C   0  0  0  0  0  0  0  0  0  0  0  0
    3.7243   -2.2042    2.1170 C   0  0  0  0  0  0  0  0  0  0  0  0
    3.5736   -1.6688    0.8206 C   0  0  0  0  0  0  0  0  0  0  0  0
    4.4482   -0.6703    0.3775 C   0  0  0  0  0  0  0  0  0  0  0  0
    5.4352   -0.2348    1.1908 N   0  0  0  0  0  0  0  0  0  0  0  0
    5.5964   -0.6889    2.4559 C   0  0  0  0  0  0  0  0  0  0  0  0
    4.7447   -1.6895    2.9451 C   0  0  0  0  0  0  0  0  0  0  0  0
    2.6859   -4.4655    1.8678 C   0  0  0  0  0  0  0  0  0  0  0  0
    1.8308   -5.4582    2.3797 C   0  0  0  0  0  0  0  0  0  0  0  0
    1.1006   -5.2888    3.5812 C   0  0  0  0  0  0  0  0  0  0  0  0
    0.2462   -6.4768    3.7205 C   0  0  0  0  0  0  0  0  0  0  0  0
   -0.7709   -6.8122    4.6248 C   0  0  0  0  0  0  0  0  0  0  0  0
   -1.4301   -8.0462    4.4773 C   0  0  0  0  0  0  0  0  0  0  0  0
   -1.1632   -8.9110    3.4035 C   0  0  0  0  0  0  0  0  0  0  0  0
   -0.1680   -8.5738    2.4787 C   0  0  0  0  0  0  0  0  0  0  0  0
    0.5238   -7.3600    2.6580 C   0  0  0  0  0  0  0  0  0  0  0  0
    1.5643   -6.8034    1.7311 C   0  0  1  0  0  0  0  0  0  0  0  0
    0.9942   -6.6373    0.4490 O   0  0  0  0  0  0  0  0  0  0  0  0
    2.8333   -7.7005    1.6681 C   0  0  0  0  0  0  0  0  0  0  0  0
    3.3769   -7.8018    2.8743 F   0  0  0  0  0  0  0  0  0  0  0  0
    2.5421   -8.9324    1.2644 F   0  0  0  0  0  0  0  0  0  0  0  0
    3.7550   -7.1867    0.8569 F   0  0  0  0  0  0  0  0  0  0  0  0
    2.2609   -2.1992    4.3649 H   0  0  0  0  0  0  0  0  0  0  0  0
    2.7762   -2.0059    0.1697 H   0  0  0  0  0  0  0  0  0  0  0  0
    4.3901   -0.1914   -0.5904 H   0  0  0  0  0  0  0  0  0  0  0  0
    6.4043   -0.2400    3.0204 H   0  0  0  0  0  0  0  0  0  0  0  0
    4.8802   -2.0650    3.9502 H   0  0  0  0  0  0  0  0  0  0  0  0
    3.2222   -4.6182    0.9274 H   0  0  0  0  0  0  0  0  0  0  0  0
   -1.0563   -6.1597    5.4354 H   0  0  0  0  0  0  0  0  0  0  0  0
   -2.1576   -8.3669    5.1924 H   0  0  0  0  0  0  0  0  0  0  0  0
   -1.6979   -9.8505    3.3009 H   0  0  0  0  0  0  0  0  0  0  0  0
    0.0407   -9.2607    1.6853 H   0  0  0  0  0  0  0  0  0  0  0  0
    0.8393   -7.4998    0.0869 H   0  0  0  0  0  0  0  0  0  0  0  0
    6.0556    0.4881    0.8427 H   0  0  0  0  0  0  0  0  0  0  0  0
  1  2  2  0
  2  3  1  0
  2  4  1  0
  4 15  2  0
  4  5  1  0
  5  6  2  0
  5 28  1  0
  6  7  1  0
  6 13  1  0
  7 12  1  0
  7  8  2  0
  8  9  1  0
  8 29  1  0
  9 10  2  0
  9 30  1  0
 10 11  1  0
 10 39  1  0
 11 12  2  0
 11 31  1  0
 12 32  1  0
 13 14  2  0
 13 33  1  0
 14 22  1  0
 14 15  1  0
 15 16  1  0
 16 21  2  0
 16 17  1  0
 17 18  2  0
 17 34  1  0
 18 19  1  0
 18 35  1  0
 19 20  2  0
 19 36  1  0
 20 21  1  0
 20 37  1  0
 21 22  1  0
 22 23  1  6
 22 24  1  0
 23 38  1  0
 24 25  1  0
 24 26  1  0
 24 27  1  0
M  CHG  2   3  -1  10   1
M  END
>  <i_m_ct_stereo_status>  (250) 
1

>  <s_m_source_file>  (250) 
/var/tmp/pbs.5102103.sched01/tmpndyyrgqo/88kp20v8wr.sdf

>  <i_m_source_file_index>  (250) 
5

>  <i_lp_mmshare_version>  (250) 
48012

>  <i_f3d_flags>  (250) 
0

>  <s_epik_input>  (250) 
W2NIXTFbY0hdW2NIXVtjSF1jKFtDQF0yKFtPSF0pQyhGKShGKUYpYzFjKGMyMyljKEMoPU8pW09IXSlbY0hdYyhbY0hdMyktYzRbY0hdW2NIXW5bY0hdW2NIXTQ=

>  <s_epik_cmdline>  (250) 
J2VwaWtfcHl0aG9uJywgJy1waHQnLCAnMi4wJywgJy1waCcsICc3LjAnLCAnLXRuJywgJzgnLCAnLW1hJywgJzIwMCcsICctaW1hZScsICc8aW5maWxlLm1hZT4nLCAnLW9tYWUnLCAnPG91dGZpbGUubWFlPic=

>  <r_epik_Ionization_Penalty>  (250) 
2.42005

>  <r_epik_Ionization_Penalty_Charging>  (250) 
2.41993

>  <r_epik_Ionization_Penalty_Neutral>  (250) 
0.000119015

>  <r_epik_State_Penalty>  (250) 
2.57915

>  <r_epik_Charging_Adjusted_Penalty>  (250) 
4.99909

>  <i_epik_Tot_Q>  (250) 
0

>  <i_epik_Tot_abs_Q>  (250) 
2

>  <s_lp_Force_Field>  (250) 
OPLS3e

>  <r_lp_Energy>  (250) 
42.1745

>  <b_lp_Chiralities_Consistent>  (250) 
1

>  <s_lp_Variant>  (250) 
58:0-2

>  <s_i_glide_gridfile>  (250) 
pfpi4k_grid

>  <i_i_glide_lignum>  (250) 
5

>  <i_i_glide_rotatable_bonds>  (250) 
4

>  <r_i_docking_score>  (250) 
-3.2787

>  <r_i_glide_ligand_efficiency>  (250) 
-0.121433

>  <r_i_glide_ligand_efficiency_sa>  (250) 
-0.3643

>  <r_i_glide_ligand_efficiency_ln>  (250) 
-0.763226

>  <r_i_glide_gscore>  (250) 
-3.2787

>  <r_i_glide_lipo>  (250) 
-0.244055

>  <r_i_glide_hbond>  (250) 
-0.139593

>  <r_i_glide_metal>  (250) 
-0

>  <r_i_glide_rewards>  (250) 
-1.01461

>  <r_i_glide_evdw>  (250) 
-21.0774

>  <r_i_glide_ecoul>  (250) 
-6.33963

>  <r_i_glide_erotb>  (250) 
0.139999

>  <r_i_glide_esite>  (250) 
-0.0156241

>  <r_i_glide_emodel>  (250) 
-36.8964

>  <r_i_glide_energy>  (250) 
-27.4171

>  <r_i_glide_einternal>  (250) 
0.93784

>  <r_i_glide_intrahb_reward>  (250) 
-0

>  <i_i_glide_confnum>  (250) 
2

>  <i_i_glide_posenum>  (250) 
9

>  <r_i_glide_eff_state_penalty>  (250) 
0

>  <ligand_id>  (250) 
58

>  <original_smiles>  (250) 
O=C(O)c1cc(-c2ccncc2)cc2c1-c1ccccc1C2(O)C(F)(F)F

>  <smiles>  (250) 
[H]OC1(C(F)(F)F)c2c([H])c([H])c([H])c([H])c2-c2c(C(=O)[O-])c([H])c(-c3c([H])c([H])[n+]([H])c([H])c3[H])c([H])c21

$$$$
59:1:0
     RDKit          3D

 72 78  0  0  1  0  0  0  0  0999 V2000
    7.7598   -9.0526    3.2424 C   0  0  0  0  0  0  0  0  0  0  0  0
    7.4604   -8.3703    4.5863 C   0  0  0  0  0  0  0  0  0  0  0  0
    6.2999   -7.4587    4.6226 N   0  0  0  0  0  0  0  0  0  0  0  0
    6.2668   -6.6934    5.8883 C   0  0  0  0  0  0  0  0  0  0  0  0
    7.4638   -5.7656    6.1518 C   0  0  0  0  0  0  0  0  0  0  0  0
    5.0191   -8.1372    4.2822 C   0  0  2  0  0  0  0  0  0  0  0  0
    4.3206   -7.8197    2.7006 C   0  0  1  0  0  0  0  0  0  0  0  0
    2.7273   -8.3886    2.4103 C   0  0  2  0  0  0  0  0  0  0  0  0
    1.3158   -7.4781    2.5110 C   0  0  0  0  0  0  0  0  0  0  0  0
    0.7682   -7.0903    3.9857 C   0  0  0  0  0  0  0  0  0  0  0  0
   -0.2251   -6.2369    4.5062 C   0  0  0  0  0  0  0  0  0  0  0  0
   -0.1211   -5.7805    5.8790 C   0  0  0  0  0  0  0  0  0  0  0  0
    0.9909   -6.0860    6.7216 C   0  0  0  0  0  0  0  0  0  0  0  0
    1.1173   -5.4731    7.9531 O   0  0  0  0  0  0  0  0  0  0  0  0
    2.3147   -5.7430    8.6814 C   0  0  0  0  0  0  0  0  0  0  0  0
    1.9788   -6.9733    6.2247 C   0  0  0  0  0  0  0  0  0  0  0  0
    1.6824   -7.4039    4.9890 C   0  0  0  0  0  0  0  0  0  0  0  0
    2.9188   -7.7883    4.5435 C   0  0  2  0  0  0  0  0  0  0  0  0
    3.3878   -6.2882    3.9565 C   0  0  0  0  0  0  0  0  0  0  0  0
    4.0513   -6.4272    2.6735 N   0  0  0  0  0  0  0  0  0  0  0  0
    5.1451   -5.5043    2.4136 C   0  0  0  0  0  0  0  0  0  0  0  0
    5.7417   -5.6334    1.0239 C   0  0  0  0  0  0  0  0  0  0  0  0
    6.9002   -4.7529    0.6278 C   0  0  0  0  0  0  0  0  0  0  0  0
    5.5464   -4.5495   -0.0103 C   0  0  0  0  0  0  0  0  0  0  0  0
    2.7245   -9.0870    3.6832 C   0  0  1  0  0  0  0  0  0  0  0  0
    1.8948  -10.1953    4.2464 N   0  0  2  0  0  0  0  0  0  0  0  0
    0.4440  -10.2914    3.9153 C   0  0  0  0  0  0  0  0  0  0  0  0
    0.2209  -10.6200    2.4287 C   0  0  0  0  0  0  0  0  0  0  0  0
    2.2181  -10.2912    5.7180 C   0  0  0  0  0  0  0  0  0  0  0  0
    3.6094   -9.6574    6.0957 C   0  0  0  0  0  0  0  0  0  0  0  0
    3.8874   -8.2081    5.5367 C   0  0  1  0  0  0  0  0  0  0  0  0
    3.3275   -7.2522    6.5326 O   0  0  0  0  0  0  0  0  0  0  0  0
    8.7201   -9.5723    3.2972 H   0  0  0  0  0  0  0  0  0  0  0  0
    7.8360   -8.3156    2.4417 H   0  0  0  0  0  0  0  0  0  0  0  0
    7.0073   -9.7928    2.9709 H   0  0  0  0  0  0  0  0  0  0  0  0
    7.3605   -9.1195    5.3703 H   0  0  0  0  0  0  0  0  0  0  0  0
    8.3666   -7.8174    4.8206 H   0  0  0  0  0  0  0  0  0  0  0  0
    5.4190   -6.0043    5.8801 H   0  0  0  0  0  0  0  0  0  0  0  0
    6.1506   -7.3803    6.7359 H   0  0  0  0  0  0  0  0  0  0  0  0
    7.2697   -5.1916    7.0575 H   0  0  0  0  0  0  0  0  0  0  0  0
    7.5837   -5.0535    5.3341 H   0  0  0  0  0  0  0  0  0  0  0  0
    8.4142   -6.2898    6.3044 H   0  0  0  0  0  0  0  0  0  0  0  0
    5.2968   -9.1811    4.2041 H   0  0  0  0  0  0  0  0  0  0  0  0
    5.0034   -8.1530    1.8941 H   0  0  0  0  0  0  0  0  0  0  0  0
    2.7492   -9.0644    1.5575 H   0  0  0  0  0  0  0  0  0  0  0  0
    1.4784   -6.5504    1.9381 H   0  0  0  0  0  0  0  0  0  0  0  0
    0.4846   -8.0085    2.0246 H   0  0  0  0  0  0  0  0  0  0  0  0
   -1.0012   -5.8563    3.8687 H   0  0  0  0  0  0  0  0  0  0  0  0
   -0.8561   -5.0845    6.2433 H   0  0  0  0  0  0  0  0  0  0  0  0
    2.3391   -5.2394    9.6472 H   0  0  0  0  0  0  0  0  0  0  0  0
    3.1829   -5.3976    8.1173 H   0  0  0  0  0  0  0  0  0  0  0  0
    2.4140   -6.8149    8.8632 H   0  0  0  0  0  0  0  0  0  0  0  0
    2.5781   -5.5614    3.8185 H   0  0  0  0  0  0  0  0  0  0  0  0
    4.0419   -5.7688    4.6549 H   0  0  0  0  0  0  0  0  0  0  0  0
    4.7597   -4.4977    2.5402 H   0  0  0  0  0  0  0  0  0  0  0  0
    5.9323   -5.5981    3.1501 H   0  0  0  0  0  0  0  0  0  0  0  0
    5.7967   -6.6534    0.6409 H   0  0  0  0  0  0  0  0  0  0  0  0
    7.2500   -4.0154    1.3506 H   0  0  0  0  0  0  0  0  0  0  0  0
    7.6804   -5.2563    0.0623 H   0  0  0  0  0  0  0  0  0  0  0  0
    5.3961   -4.8997   -1.0312 H   0  0  0  0  0  0  0  0  0  0  0  0
    4.9661   -3.6702    0.2729 H   0  0  0  0  0  0  0  0  0  0  0  0
    3.5486   -9.7963    3.5311 H   0  0  0  0  0  0  0  0  0  0  0  0
    0.0602  -11.1273    4.5075 H   0  0  0  0  0  0  0  0  0  0  0  0
   -0.1299   -9.4281    4.2590 H   0  0  0  0  0  0  0  0  0  0  0  0
   -0.8403  -10.5461    2.2064 H   0  0  0  0  0  0  0  0  0  0  0  0
    0.5280  -11.6530    2.2225 H   0  0  0  0  0  0  0  0  0  0  0  0
    0.7259   -9.9319    1.7421 H   0  0  0  0  0  0  0  0  0  0  0  0
    1.4328   -9.8071    6.3041 H   0  0  0  0  0  0  0  0  0  0  0  0
    2.2353  -11.3429    6.0110 H   0  0  0  0  0  0  0  0  0  0  0  0
    3.6643   -9.6213    7.1826 H   0  0  0  0  0  0  0  0  0  0  0  0
    4.4005  -10.3445    5.7904 H   0  0  0  0  0  0  0  0  0  0  0  0
    2.2929  -11.0471    3.8652 H   0  0  0  0  0  0  0  0  0  0  0  0
  1  2  1  0
  1 33  1  0
  1 34  1  0
  1 35  1  0
  2  3  1  0
  2 36  1  0
  2 37  1  0
  3  4  1  0
  3  6  1  0
  4  5  1  0
  4 38  1  0
  4 39  1  0
  5 40  1  0
  5 41  1  0
  5 42  1  0
  6 31  1  0
  6  7  1  0
  6 43  1  6
  7 20  1  0
  7  8  1  0
  7 44  1  6
  8 25  1  0
  8  9  1  0
  8 45  1  6
  9 10  1  0
  9 46  1  0
  9 47  1  0
 10 17  2  0
 10 11  1  0
 11 12  2  0
 11 48  1  0
 12 13  1  0
 12 49  1  0
 13 14  1  0
 13 16  2  0
 14 15  1  0
 15 50  1  0
 15 51  1  0
 15 52  1  0
 16 32  1  0
 16 17  1  0
 17 18  1  0
 18 31  1  0
 18 19  1  6
 18 25  1  0
 19 20  1  0
 19 53  1  0
 19 54  1  0
 20 21  1  0
 21 22  1  0
 21 55  1  0
 21 56  1  0
 22 24  1  0
 22 23  1  0
 22 57  1  0
 23 24  1  0
 23 58  1  0
 23 59  1  0
 24 60  1  0
 24 61  1  0
 25 26  1  0
 25 62  1  6
 26 27  1  0
 26 29  1  0
 26 72  1  6
 27 28  1  0
 27 63  1  0
 27 64  1  0
 28 65  1  0
 28 66  1  0
 28 67  1  0
 29 30  1  0
 29 68  1  0
 29 69  1  0
 30 31  1  0
 30 70  1  0
 30 71  1  0
 31 32  1  1
M  CHG  1  26   1
M  END
>  <i_m_ct_stereo_status>  (251) 
1

>  <s_m_source_file>  (251) 
/var/tmp/pbs.5102103.sched01/tmpndyyrgqo/88kp20v8wr.sdf

>  <i_m_source_file_index>  (251) 
7

>  <i_lp_mmshare_version>  (251) 
48012

>  <i_f3d_flags>  (251) 
0

>  <s_epik_input>  (251) 
W0NIMl0xW0NIMl1bQ0hdMVtDSDJdTihbQ0gyXTIpW0NAQEhdKFtDQEhdKFtDQEBdMzRbQ0BdMjU2KU4oW0NIMl1bQ0gzXSlbQ0gyXVtDSDNdKVtDQEBIXShbQ0BASF02TihbQ0gyXVtDSDNdKVtDSDJdW0NIMl0zKVtDSDJdYzdjNWMoTzQpYyhbY0hdW2NIXTcpT1tDSDNd

>  <s_epik_cmdline>  (251) 
J2VwaWtfcHl0aG9uJywgJy1waHQnLCAnMi4wJywgJy1waCcsICc3LjAnLCAnLXRuJywgJzgnLCAnLW1hJywgJzIwMCcsICctaW1hZScsICc8aW5maWxlLm1hZT4nLCAnLW9tYWUnLCAnPG91dGZpbGUubWFlPic=

>  <r_lp_tautomer_probability>  (251) 
1

>  <r_epik_Ionization_Penalty>  (251) 
0.288105

>  <r_epik_Ionization_Penalty_Charging>  (251) 
0.0204438

>  <r_epik_Ionization_Penalty_Neutral>  (251) 
0.267661

>  <r_epik_State_Penalty>  (251) 
0.713943

>  <r_epik_Charging_Adjusted_Penalty>  (251) 
0.734387

>  <i_epik_Tot_Q>  (251) 
1

>  <i_epik_Tot_abs_Q>  (251) 
1

>  <s_lp_Force_Field>  (251) 
OPLS3e

>  <r_lp_Energy>  (251) 
334.792

>  <b_lp_Chiralities_Consistent>  (251) 
1

>  <s_lp_Variant>  (251) 
59:0-2

>  <s_i_glide_gridfile>  (251) 
pfpi4k_grid

>  <i_i_glide_lignum>  (251) 
7

>  <i_i_glide_rotatable_bonds>  (251) 
7

>  <r_i_docking_score>  (251) 
-1.95986

>  <r_i_glide_ligand_efficiency>  (251) 
-0.0612457

>  <r_i_glide_ligand_efficiency_sa>  (251) 
-0.194443

>  <r_i_glide_ligand_efficiency_ln>  (251) 
-0.438867

>  <r_i_glide_gscore>  (251) 
-1.95986

>  <r_i_glide_lipo>  (251) 
-0.478356

>  <r_i_glide_hbond>  (251) 
0

>  <r_i_glide_metal>  (251) 
-0

>  <r_i_glide_rewards>  (251) 
-0.418463

>  <r_i_glide_evdw>  (251) 
-16.2312

>  <r_i_glide_ecoul>  (251) 
-3.63623

>  <r_i_glide_erotb>  (251) 
0.311105

>  <r_i_glide_esite>  (251) 
-0.0171561

>  <r_i_glide_emodel>  (251) 
-14.3927

>  <r_i_glide_energy>  (251) 
-19.8674

>  <r_i_glide_einternal>  (251) 
14.9471

>  <r_i_glide_intrahb_reward>  (251) 
-0

>  <i_i_glide_confnum>  (251) 
1

>  <i_i_glide_posenum>  (251) 
38

>  <r_i_glide_eff_state_penalty>  (251) 
0

>  <ligand_id>  (251) 
59

>  <original_smiles>  (251) 
CCN(CC)C1C2C3Cc4ccc(OC)c5c4C4(CN2CC2CC2)C3N(CC)CCC14O5

>  <smiles>  (251) 
[H]c1c([H])c2c3c(c1OC([H])([H])[H])OC14C([H])([H])C([H])([H])[N+]([H])(C([H])([H])C([H])([H])[H])C5([H])C([H])(C2([H])[H])C([H])(N(C([H])([H])C2([H])C([H])([H])C2([H])[H])C([H])([H])C315)C4([H])N(C([H])([H])C([H])([H])[H])C([H])([H])C([H])([H])[H]

$$$$
59:1:1
     RDKit          3D

 72 78  0  0  1  0  0  0  0  0999 V2000
    6.0922   -4.4424    0.5813 C   0  0  0  0  0  0  0  0  0  0  0  0
    6.1985   -4.1759    2.0958 C   0  0  0  0  0  0  0  0  0  0  0  0
    4.9948   -4.3060    2.9554 N   0  0  0  0  0  0  0  0  0  0  0  0
    5.3262   -3.8099    4.3264 C   0  0  0  0  0  0  0  0  0  0  0  0
    5.1908   -2.2804    4.4881 C   0  0  0  0  0  0  0  0  0  0  0  0
    4.4021   -5.6738    2.9392 C   0  0  2  0  0  0  0  0  0  0  0  0
    3.4559   -6.1382    1.4967 C   0  0  1  0  0  0  0  0  0  0  0  0
    2.5305   -7.5769    1.6440 C   0  0  2  0  0  0  0  0  0  0  0  0
    0.8892   -7.6681    1.9176 C   0  0  0  0  0  0  0  0  0  0  0  0
    0.3514   -7.3419    3.4074 C   0  0  0  0  0  0  0  0  0  0  0  0
   -0.9215   -7.1138    3.9957 C   0  0  0  0  0  0  0  0  0  0  0  0
   -0.9613   -6.3970    5.2471 C   0  0  0  0  0  0  0  0  0  0  0  0
    0.1848   -5.8291    5.8987 C   0  0  0  0  0  0  0  0  0  0  0  0
    0.0165   -5.0289    7.0045 O   0  0  0  0  0  0  0  0  0  0  0  0
    1.1928   -4.4079    7.5446 C   0  0  0  0  0  0  0  0  0  0  0  0
    1.4585   -6.0884    5.3307 C   0  0  0  0  0  0  0  0  0  0  0  0
    1.3660   -6.8602    4.2398 C   0  0  0  0  0  0  0  0  0  0  0  0
    2.5341   -6.5450    3.6082 C   0  0  2  0  0  0  0  0  0  0  0  0
    1.9625   -5.1895    2.8003 C   0  0  0  0  0  0  0  0  0  0  0  0
    2.3786   -5.1989    1.4164 N   0  0  0  0  0  0  0  0  0  0  0  0
    2.6470   -3.8773    0.8318 C   0  0  0  0  0  0  0  0  0  0  0  0
    2.9813   -3.9132   -0.6517 C   0  0  0  0  0  0  0  0  0  0  0  0
    3.2892   -2.6297   -1.3924 C   0  0  0  0  0  0  0  0  0  0  0  0
    2.0390   -3.4249   -1.7237 C   0  0  0  0  0  0  0  0  0  0  0  0
    3.0656   -7.8578    2.9532 C   0  0  1  0  0  0  0  0  0  0  0  0
    3.1329   -9.0875    3.7939 N   0  0  2  0  0  0  0  0  0  0  0  0
    2.0198  -10.0642    3.7576 C   0  0  0  0  0  0  0  0  0  0  0  0
    2.4287  -11.4037    4.4012 C   0  0  0  0  0  0  0  0  0  0  0  0
    3.5787   -8.6798    5.1674 C   0  0  0  0  0  0  0  0  0  0  0  0
    4.3441   -7.2979    5.1749 C   0  0  0  0  0  0  0  0  0  0  0  0
    3.6485   -6.1115    4.4076 C   0  0  1  0  0  0  0  0  0  0  0  0
    2.7238   -5.4698    5.3900 O   0  0  0  0  0  0  0  0  0  0  0  0
    7.0116   -4.1446    0.0417 H   0  0  0  0  0  0  0  0  0  0  0  0
    5.3227   -3.7765    0.2150 H   0  0  0  0  0  0  0  0  0  0  0  0
    5.8861   -5.4923    0.3729 H   0  0  0  0  0  0  0  0  0  0  0  0
    6.9753   -4.8180    2.5062 H   0  0  0  0  0  0  0  0  0  0  0  0
    6.5467   -3.1485    2.1900 H   0  0  0  0  0  0  0  0  0  0  0  0
    4.6613   -4.1441    5.1301 H   0  0  0  0  0  0  0  0  0  0  0  0
    6.3125   -4.1850    4.6230 H   0  0  0  0  0  0  0  0  0  0  0  0
    5.4348   -2.0064    5.5191 H   0  0  0  0  0  0  0  0  0  0  0  0
    4.1435   -2.0052    4.3287 H   0  0  0  0  0  0  0  0  0  0  0  0
    5.7960   -1.6874    3.7969 H   0  0  0  0  0  0  0  0  0  0  0  0
    5.2722   -6.3257    2.9205 H   0  0  0  0  0  0  0  0  0  0  0  0
    4.0133   -6.2114    0.5597 H   0  0  0  0  0  0  0  0  0  0  0  0
    2.8713   -8.2925    0.9017 H   0  0  0  0  0  0  0  0  0  0  0  0
    0.3893   -7.0114    1.1939 H   0  0  0  0  0  0  0  0  0  0  0  0
    0.5687   -8.6885    1.6705 H   0  0  0  0  0  0  0  0  0  0  0  0
   -1.8422   -7.3949    3.4928 H   0  0  0  0  0  0  0  0  0  0  0  0
   -1.9189   -6.1798    5.6954 H   0  0  0  0  0  0  0  0  0  0  0  0
    0.9936   -3.8006    8.4316 H   0  0  0  0  0  0  0  0  0  0  0  0
    1.6329   -3.7463    6.7937 H   0  0  0  0  0  0  0  0  0  0  0  0
    1.9242   -5.1724    7.8212 H   0  0  0  0  0  0  0  0  0  0  0  0
    0.8724   -5.0380    2.8366 H   0  0  0  0  0  0  0  0  0  0  0  0
    2.3277   -4.2838    3.2869 H   0  0  0  0  0  0  0  0  0  0  0  0
    1.8006   -3.2299    0.9921 H   0  0  0  0  0  0  0  0  0  0  0  0
    3.4225   -3.3505    1.3573 H   0  0  0  0  0  0  0  0  0  0  0  0
    3.6059   -4.7511   -0.9505 H   0  0  0  0  0  0  0  0  0  0  0  0
    3.1929   -1.6944   -0.8438 H   0  0  0  0  0  0  0  0  0  0  0  0
    4.1189   -2.6929   -2.0915 H   0  0  0  0  0  0  0  0  0  0  0  0
    2.0235   -3.9623   -2.6616 H   0  0  0  0  0  0  0  0  0  0  0  0
    1.0581   -3.0775   -1.4117 H   0  0  0  0  0  0  0  0  0  0  0  0
    4.1194   -7.9661    2.7064 H   0  0  0  0  0  0  0  0  0  0  0  0
    1.1280   -9.6850    4.2637 H   0  0  0  0  0  0  0  0  0  0  0  0
    1.7655  -10.2599    2.7134 H   0  0  0  0  0  0  0  0  0  0  0  0
    1.6028  -12.1055    4.2852 H   0  0  0  0  0  0  0  0  0  0  0  0
    2.6199  -11.3059    5.4778 H   0  0  0  0  0  0  0  0  0  0  0  0
    3.3125  -11.8410    3.9213 H   0  0  0  0  0  0  0  0  0  0  0  0
    2.7125   -8.5965    5.8349 H   0  0  0  0  0  0  0  0  0  0  0  0
    4.2245   -9.4577    5.5980 H   0  0  0  0  0  0  0  0  0  0  0  0
    4.4457   -6.9988    6.2156 H   0  0  0  0  0  0  0  0  0  0  0  0
    5.3536   -7.4460    4.7884 H   0  0  0  0  0  0  0  0  0  0  0  0
    3.9164   -9.5986    3.4050 H   0  0  0  0  0  0  0  0  0  0  0  0
  1  2  1  0
  1 33  1  0
  1 34  1  0
  1 35  1  0
  2  3  1  0
  2 36  1  0
  2 37  1  0
  3  4  1  0
  3  6  1  0
  4  5  1  0
  4 38  1  0
  4 39  1  0
  5 40  1  0
  5 41  1  0
  5 42  1  0
  6 31  1  0
  6  7  1  0
  6 43  1  6
  7 20  1  0
  7  8  1  0
  7 44  1  6
  8 25  1  0
  8  9  1  0
  8 45  1  6
  9 10  1  0
  9 46  1  0
  9 47  1  0
 10 17  2  0
 10 11  1  0
 11 12  2  0
 11 48  1  0
 12 13  1  0
 12 49  1  0
 13 14  1  0
 13 16  2  0
 14 15  1  0
 15 50  1  0
 15 51  1  0
 15 52  1  0
 16 32  1  0
 16 17  1  0
 17 18  1  0
 18 31  1  0
 18 19  1  6
 18 25  1  0
 19 20  1  0
 19 53  1  0
 19 54  1  0
 20 21  1  0
 21 22  1  0
 21 55  1  0
 21 56  1  0
 22 24  1  0
 22 23  1  0
 22 57  1  0
 23 24  1  0
 23 58  1  0
 23 59  1  0
 24 60  1  0
 24 61  1  0
 25 26  1  0
 25 62  1  6
 26 27  1  0
 26 29  1  0
 26 72  1  6
 27 28  1  0
 27 63  1  0
 27 64  1  0
 28 65  1  0
 28 66  1  0
 28 67  1  0
 29 30  1  0
 29 68  1  0
 29 69  1  0
 30 31  1  0
 30 70  1  0
 30 71  1  0
 31 32  1  1
M  CHG  1  26   1
M  END
>  <i_m_ct_stereo_status>  (252) 
1

>  <s_m_source_file>  (252) 
/var/tmp/pbs.5102103.sched01/tmpndyyrgqo/88kp20v8wr.sdf

>  <i_m_source_file_index>  (252) 
7

>  <i_lp_mmshare_version>  (252) 
48012

>  <i_f3d_flags>  (252) 
0

>  <s_epik_input>  (252) 
W0NIMl0xW0NIMl1bQ0hdMVtDSDJdTihbQ0gyXTIpW0NAQEhdKFtDQEhdKFtDQEBdMzRbQ0BdMjU2KU4oW0NIMl1bQ0gzXSlbQ0gyXVtDSDNdKVtDQEBIXShbQ0BASF02TihbQ0gyXVtDSDNdKVtDSDJdW0NIMl0zKVtDSDJdYzdjNWMoTzQpYyhbY0hdW2NIXTcpT1tDSDNd

>  <s_epik_cmdline>  (252) 
J2VwaWtfcHl0aG9uJywgJy1waHQnLCAnMi4wJywgJy1waCcsICc3LjAnLCAnLXRuJywgJzgnLCAnLW1hJywgJzIwMCcsICctaW1hZScsICc8aW5maWxlLm1hZT4nLCAnLW9tYWUnLCAnPG91dGZpbGUubWFlPic=

>  <r_lp_tautomer_probability>  (252) 
1

>  <r_epik_Ionization_Penalty>  (252) 
0.288105

>  <r_epik_Ionization_Penalty_Charging>  (252) 
0.0204438

>  <r_epik_Ionization_Penalty_Neutral>  (252) 
0.267661

>  <r_epik_State_Penalty>  (252) 
0.713943

>  <r_epik_Charging_Adjusted_Penalty>  (252) 
0.734387

>  <i_epik_Tot_Q>  (252) 
1

>  <i_epik_Tot_abs_Q>  (252) 
1

>  <s_lp_Force_Field>  (252) 
OPLS3e

>  <r_lp_Energy>  (252) 
334.792

>  <b_lp_Chiralities_Consistent>  (252) 
1

>  <s_lp_Variant>  (252) 
59:0-2

>  <s_i_glide_gridfile>  (252) 
pfpi4k_grid

>  <i_i_glide_lignum>  (252) 
7

>  <i_i_glide_rotatable_bonds>  (252) 
7

>  <r_i_docking_score>  (252) 
-1.90685

>  <r_i_glide_ligand_efficiency>  (252) 
-0.0595891

>  <r_i_glide_ligand_efficiency_sa>  (252) 
-0.189184

>  <r_i_glide_ligand_efficiency_ln>  (252) 
-0.426996

>  <r_i_glide_gscore>  (252) 
-1.90685

>  <r_i_glide_lipo>  (252) 
-0.365428

>  <r_i_glide_hbond>  (252) 
0

>  <r_i_glide_metal>  (252) 
-0

>  <r_i_glide_rewards>  (252) 
-0.418463

>  <r_i_glide_evdw>  (252) 
-18.5651

>  <r_i_glide_ecoul>  (252) 
-3.33736

>  <r_i_glide_erotb>  (252) 
0.311105

>  <r_i_glide_esite>  (252) 
-0.00520758

>  <r_i_glide_emodel>  (252) 
-20.8141

>  <r_i_glide_energy>  (252) 
-21.9024

>  <r_i_glide_einternal>  (252) 
6.98478

>  <r_i_glide_intrahb_reward>  (252) 
-0

>  <i_i_glide_confnum>  (252) 
1

>  <i_i_glide_posenum>  (252) 
13

>  <r_i_glide_eff_state_penalty>  (252) 
0

>  <ligand_id>  (252) 
59

>  <original_smiles>  (252) 
CCN(CC)C1C2C3Cc4ccc(OC)c5c4C4(CN2CC2CC2)C3N(CC)CCC14O5

>  <smiles>  (252) 
[H]c1c([H])c2c3c(c1OC([H])([H])[H])OC14C([H])([H])C([H])([H])[N+]([H])(C([H])([H])C([H])([H])[H])C5([H])C([H])(C2([H])[H])C([H])(N(C([H])([H])C2([H])C([H])([H])C2([H])[H])C([H])([H])C315)C4([H])N(C([H])([H])C([H])([H])[H])C([H])([H])C([H])([H])[H]

$$$$
59:1:2
     RDKit          3D

 72 78  0  0  1  0  0  0  0  0999 V2000
    5.9526   -3.6559    0.3819 C   0  0  0  0  0  0  0  0  0  0  0  0
    6.1137   -3.5352    1.9042 C   0  0  0  0  0  0  0  0  0  0  0  0
    4.9448   -3.7476    2.7962 N   0  0  0  0  0  0  0  0  0  0  0  0
    5.2311   -3.2030    4.1515 C   0  0  0  0  0  0  0  0  0  0  0  0
    5.2535   -1.6631    4.2631 C   0  0  0  0  0  0  0  0  0  0  0  0
    4.4937   -5.1702    2.8715 C   0  0  2  0  0  0  0  0  0  0  0  0
    3.6855   -5.8169    1.4404 C   0  0  1  0  0  0  0  0  0  0  0  0
    2.9285   -7.3386    1.6094 C   0  0  2  0  0  0  0  0  0  0  0  0
    1.2839   -7.5855    1.8007 C   0  0  0  0  0  0  0  0  0  0  0  0
    0.6217   -7.2446    3.2291 C   0  0  0  0  0  0  0  0  0  0  0  0
   -0.7023   -7.1577    3.7368 C   0  0  0  0  0  0  0  0  0  0  0  0
   -0.9283   -6.4123    4.9516 C   0  0  0  0  0  0  0  0  0  0  0  0
    0.1147   -5.6676    5.6295 C   0  0  0  0  0  0  0  0  0  0  0  0
   -0.0940   -4.8152    6.6906 O   0  0  0  0  0  0  0  0  0  0  0  0
   -1.3989   -4.7051    7.2196 C   0  0  0  0  0  0  0  0  0  0  0  0
    1.4438   -5.7785    5.1478 C   0  0  0  0  0  0  0  0  0  0  0  0
    1.5132   -6.6050    4.0837 C   0  0  0  0  0  0  0  0  0  0  0  0
    2.6932   -6.2121    3.4998 C   0  0  2  0  0  0  0  0  0  0  0  0
    2.0357   -4.9743    2.5898 C   0  0  0  0  0  0  0  0  0  0  0  0
    2.5218   -5.0136    1.2347 N   0  0  0  0  0  0  0  0  0  0  0  0
    2.6570   -3.7143    0.5888 C   0  0  0  0  0  0  0  0  0  0  0  0
    2.9956   -3.8139   -0.8808 C   0  0  0  0  0  0  0  0  0  0  0  0
    3.1935   -2.5608   -1.7147 C   0  0  0  0  0  0  0  0  0  0  0  0
    1.9955   -3.4474   -1.9452 C   0  0  0  0  0  0  0  0  0  0  0  0
    3.4116   -7.4927    2.9578 C   0  0  1  0  0  0  0  0  0  0  0  0
    3.5630   -8.6585    3.8577 N   0  0  2  0  0  0  0  0  0  0  0  0
    2.5755   -9.7589    3.8282 C   0  0  0  0  0  0  0  0  0  0  0  0
    2.7280  -10.6353    2.5603 C   0  0  0  0  0  0  0  0  0  0  0  0
    3.8822   -8.1399    5.2226 C   0  0  0  0  0  0  0  0  0  0  0  0
    4.4852   -6.6724    5.2127 C   0  0  0  0  0  0  0  0  0  0  0  0
    3.6985   -5.6037    4.3422 C   0  0  1  0  0  0  0  0  0  0  0  0
    2.6319   -5.0237    5.2413 O   0  0  0  0  0  0  0  0  0  0  0  0
    6.8660   -3.3449   -0.1461 H   0  0  0  0  0  0  0  0  0  0  0  0
    5.1607   -2.9805    0.0756 H   0  0  0  0  0  0  0  0  0  0  0  0
    5.7458   -4.6825    0.0781 H   0  0  0  0  0  0  0  0  0  0  0  0
    6.9248   -4.1790    2.2144 H   0  0  0  0  0  0  0  0  0  0  0  0
    6.4584   -2.5183    2.0568 H   0  0  0  0  0  0  0  0  0  0  0  0
    4.4920   -3.4689    4.9178 H   0  0  0  0  0  0  0  0  0  0  0  0
    6.1426   -3.6401    4.5478 H   0  0  0  0  0  0  0  0  0  0  0  0
    5.4676   -1.3626    5.2939 H   0  0  0  0  0  0  0  0  0  0  0  0
    4.2604   -1.2783    4.0147 H   0  0  0  0  0  0  0  0  0  0  0  0
    5.9740   -1.1629    3.6115 H   0  0  0  0  0  0  0  0  0  0  0  0
    5.4297   -5.7201    2.9361 H   0  0  0  0  0  0  0  0  0  0  0  0
    4.3078   -5.8892    0.5322 H   0  0  0  0  0  0  0  0  0  0  0  0
    3.3740   -8.0430    0.9127 H   0  0  0  0  0  0  0  0  0  0  0  0
    0.7584   -7.0399    1.0032 H   0  0  0  0  0  0  0  0  0  0  0  0
    1.0480   -8.6393    1.6128 H   0  0  0  0  0  0  0  0  0  0  0  0
   -1.5264   -7.5849    3.1828 H   0  0  0  0  0  0  0  0  0  0  0  0
   -1.9490   -6.3419    5.2940 H   0  0  0  0  0  0  0  0  0  0  0  0
   -1.3836   -3.9891    8.0357 H   0  0  0  0  0  0  0  0  0  0  0  0
   -1.7329   -5.6536    7.6271 H   0  0  0  0  0  0  0  0  0  0  0  0
   -2.1120   -4.3497    6.4794 H   0  0  0  0  0  0  0  0  0  0  0  0
    0.9352   -4.9377    2.5630 H   0  0  0  0  0  0  0  0  0  0  0  0
    2.2812   -4.0084    3.0327 H   0  0  0  0  0  0  0  0  0  0  0  0
    1.7146   -3.1705    0.6864 H   0  0  0  0  0  0  0  0  0  0  0  0
    3.3762   -3.1047    1.0917 H   0  0  0  0  0  0  0  0  0  0  0  0
    3.6913   -4.6223   -1.1152 H   0  0  0  0  0  0  0  0  0  0  0  0
    3.0463   -1.5978   -1.2177 H   0  0  0  0  0  0  0  0  0  0  0  0
    3.9895   -2.5900   -2.4607 H   0  0  0  0  0  0  0  0  0  0  0  0
    1.9822   -4.0171   -2.8678 H   0  0  0  0  0  0  0  0  0  0  0  0
    1.0210   -3.0841   -1.6343 H   0  0  0  0  0  0  0  0  0  0  0  0
    4.4848   -7.4919    2.7795 H   0  0  0  0  0  0  0  0  0  0  0  0
    2.7616  -10.4147    4.6912 H   0  0  0  0  0  0  0  0  0  0  0  0
    1.5410   -9.4279    3.9549 H   0  0  0  0  0  0  0  0  0  0  0  0
    1.9212  -11.3737    2.5508 H   0  0  0  0  0  0  0  0  0  0  0  0
    3.6855  -11.1773    2.5382 H   0  0  0  0  0  0  0  0  0  0  0  0
    2.6638  -10.0771    1.6143 H   0  0  0  0  0  0  0  0  0  0  0  0
    2.9713   -8.1279    5.8395 H   0  0  0  0  0  0  0  0  0  0  0  0
    4.5841   -8.8181    5.7315 H   0  0  0  0  0  0  0  0  0  0  0  0
    4.5268   -6.3115    6.2443 H   0  0  0  0  0  0  0  0  0  0  0  0
    5.5263   -6.7211    4.8734 H   0  0  0  0  0  0  0  0  0  0  0  0
    4.4319   -9.1058    3.5578 H   0  0  0  0  0  0  0  0  0  0  0  0
  1  2  1  0
  1 33  1  0
  1 34  1  0
  1 35  1  0
  2  3  1  0
  2 36  1  0
  2 37  1  0
  3  4  1  0
  3  6  1  0
  4  5  1  0
  4 38  1  0
  4 39  1  0
  5 40  1  0
  5 41  1  0
  5 42  1  0
  6 31  1  0
  6  7  1  0
  6 43  1  1
  7 20  1  0
  7  8  1  0
  7 44  1  6
  8 25  1  0
  8  9  1  0
  8 45  1  6
  9 10  1  0
  9 46  1  0
  9 47  1  0
 10 17  2  0
 10 11  1  0
 11 12  2  0
 11 48  1  0
 12 13  1  0
 12 49  1  0
 13 14  1  0
 13 16  2  0
 14 15  1  0
 15 50  1  0
 15 51  1  0
 15 52  1  0
 16 32  1  0
 16 17  1  0
 17 18  1  0
 18 31  1  0
 18 19  1  6
 18 25  1  0
 19 20  1  0
 19 53  1  0
 19 54  1  0
 20 21  1  0
 21 22  1  0
 21 55  1  0
 21 56  1  0
 22 24  1  0
 22 23  1  0
 22 57  1  0
 23 24  1  0
 23 58  1  0
 23 59  1  0
 24 60  1  0
 24 61  1  0
 25 26  1  0
 25 62  1  6
 26 27  1  0
 26 29  1  0
 26 72  1  6
 27 28  1  0
 27 63  1  0
 27 64  1  0
 28 65  1  0
 28 66  1  0
 28 67  1  0
 29 30  1  0
 29 68  1  0
 29 69  1  0
 30 31  1  0
 30 70  1  0
 30 71  1  0
 31 32  1  1
M  CHG  1  26   1
M  END
>  <i_m_ct_stereo_status>  (253) 
1

>  <s_m_source_file>  (253) 
/var/tmp/pbs.5102103.sched01/tmpndyyrgqo/88kp20v8wr.sdf

>  <i_m_source_file_index>  (253) 
7

>  <i_lp_mmshare_version>  (253) 
48012

>  <i_f3d_flags>  (253) 
0

>  <s_epik_input>  (253) 
W0NIMl0xW0NIMl1bQ0hdMVtDSDJdTihbQ0gyXTIpW0NAQEhdKFtDQEhdKFtDQEBdMzRbQ0BdMjU2KU4oW0NIMl1bQ0gzXSlbQ0gyXVtDSDNdKVtDQEBIXShbQ0BASF02TihbQ0gyXVtDSDNdKVtDSDJdW0NIMl0zKVtDSDJdYzdjNWMoTzQpYyhbY0hdW2NIXTcpT1tDSDNd

>  <s_epik_cmdline>  (253) 
J2VwaWtfcHl0aG9uJywgJy1waHQnLCAnMi4wJywgJy1waCcsICc3LjAnLCAnLXRuJywgJzgnLCAnLW1hJywgJzIwMCcsICctaW1hZScsICc8aW5maWxlLm1hZT4nLCAnLW9tYWUnLCAnPG91dGZpbGUubWFlPic=

>  <r_lp_tautomer_probability>  (253) 
1

>  <r_epik_Ionization_Penalty>  (253) 
0.288105

>  <r_epik_Ionization_Penalty_Charging>  (253) 
0.0204438

>  <r_epik_Ionization_Penalty_Neutral>  (253) 
0.267661

>  <r_epik_State_Penalty>  (253) 
0.713943

>  <r_epik_Charging_Adjusted_Penalty>  (253) 
0.734387

>  <i_epik_Tot_Q>  (253) 
1

>  <i_epik_Tot_abs_Q>  (253) 
1

>  <s_lp_Force_Field>  (253) 
OPLS3e

>  <r_lp_Energy>  (253) 
334.792

>  <b_lp_Chiralities_Consistent>  (253) 
1

>  <s_lp_Variant>  (253) 
59:0-2

>  <s_i_glide_gridfile>  (253) 
pfpi4k_grid

>  <i_i_glide_lignum>  (253) 
7

>  <i_i_glide_rotatable_bonds>  (253) 
7

>  <r_i_docking_score>  (253) 
-1.89909

>  <r_i_glide_ligand_efficiency>  (253) 
-0.0593465

>  <r_i_glide_ligand_efficiency_sa>  (253) 
-0.188413

>  <r_i_glide_ligand_efficiency_ln>  (253) 
-0.425258

>  <r_i_glide_gscore>  (253) 
-1.89909

>  <r_i_glide_lipo>  (253) 
-0.457971

>  <r_i_glide_hbond>  (253) 
0

>  <r_i_glide_metal>  (253) 
-0

>  <r_i_glide_rewards>  (253) 
-0.418463

>  <r_i_glide_evdw>  (253) 
-19.5004

>  <r_i_glide_ecoul>  (253) 
-2.37977

>  <r_i_glide_erotb>  (253) 
0.311105

>  <r_i_glide_esite>  (253) 
-0.00177654

>  <r_i_glide_emodel>  (253) 
-23.5949

>  <r_i_glide_energy>  (253) 
-21.8801

>  <r_i_glide_einternal>  (253) 
1.88846

>  <r_i_glide_intrahb_reward>  (253) 
-0

>  <i_i_glide_confnum>  (253) 
1

>  <i_i_glide_posenum>  (253) 
28

>  <r_i_glide_eff_state_penalty>  (253) 
0

>  <ligand_id>  (253) 
59

>  <original_smiles>  (253) 
CCN(CC)C1C2C3Cc4ccc(OC)c5c4C4(CN2CC2CC2)C3N(CC)CCC14O5

>  <smiles>  (253) 
[H]c1c([H])c2c3c(c1OC([H])([H])[H])OC14C([H])([H])C([H])([H])[N+]([H])(C([H])([H])C([H])([H])[H])C5([H])C([H])(C2([H])[H])C([H])(N(C([H])([H])C2([H])C([H])([H])C2([H])[H])C([H])([H])C315)C4([H])N(C([H])([H])C([H])([H])[H])C([H])([H])C([H])([H])[H]

$$$$
59:2:0
     RDKit          3D

 72 78  0  0  1  0  0  0  0  0999 V2000
    5.1752   -8.3129    0.9041 C   0  0  0  0  0  0  0  0  0  0  0  0
    4.0851   -9.2937    1.3736 C   0  0  0  0  0  0  0  0  0  0  0  0
    2.8563   -8.7180    2.0291 N   0  0  0  0  0  0  0  0  0  0  0  0
    1.9155   -9.8155    2.3840 C   0  0  0  0  0  0  0  0  0  0  0  0
    2.4720  -10.9232    3.3033 C   0  0  0  0  0  0  0  0  0  0  0  0
    3.0067   -7.6467    3.0872 C   0  0  2  0  0  0  0  0  0  0  0  0
    1.4993   -7.0064    3.7601 C   0  0  1  0  0  0  0  0  0  0  0  0
    1.6282   -5.5449    4.6657 C   0  0  2  0  0  0  0  0  0  0  0  0
    1.3487   -3.9690    4.1788 C   0  0  0  0  0  0  0  0  0  0  0  0
    2.4058   -3.2690    3.1860 C   0  0  0  0  0  0  0  0  0  0  0  0
    2.4297   -2.0948    2.3871 C   0  0  0  0  0  0  0  0  0  0  0  0
    3.3558   -2.0233    1.2761 C   0  0  0  0  0  0  0  0  0  0  0  0
    4.2026   -3.1404    0.9044 C   0  0  0  0  0  0  0  0  0  0  0  0
    4.9326   -3.1108   -0.2685 O   0  0  0  0  0  0  0  0  0  0  0  0
    5.6004   -4.3221   -0.6572 C   0  0  0  0  0  0  0  0  0  0  0  0
    4.2061   -4.2862    1.7159 C   0  0  0  0  0  0  0  0  0  0  0  0
    3.3819   -4.1679    2.7766 C   0  0  0  0  0  0  0  0  0  0  0  0
    3.1517   -5.4843    3.0933 C   0  0  2  0  0  0  0  0  0  0  0  0
    1.8679   -5.7244    2.0245 C   0  0  0  0  0  0  0  0  0  0  0  0
    0.7744   -6.4454    2.6346 N   0  0  0  0  0  0  0  0  0  0  0  0
   -0.0221   -7.3316    1.7683 C   0  0  0  0  0  0  0  0  0  0  0  0
   -1.2733   -7.7967    2.5141 C   0  0  0  0  0  0  0  0  0  0  0  0
   -1.2923   -8.7733    3.6818 C   0  0  0  0  0  0  0  0  0  0  0  0
   -1.7504   -9.2270    2.3299 C   0  0  0  0  0  0  0  0  0  0  0  0
    3.0794   -5.6119    4.6583 C   0  0  1  0  0  0  0  0  0  0  0  0
    4.0931   -4.7809    5.3184 N   0  0  0  0  0  0  0  0  0  0  0  0
    3.9551   -4.7011    6.7639 C   0  0  0  0  0  0  0  0  0  0  0  0
    4.9452   -3.6874    7.3637 C   0  0  0  0  0  0  0  0  0  0  0  0
    5.3947   -5.3636    4.9220 C   0  0  0  0  0  0  0  0  0  0  0  0
    5.3996   -6.3854    3.7294 C   0  0  0  0  0  0  0  0  0  0  0  0
    4.1475   -6.4396    2.7502 C   0  0  1  0  0  0  0  0  0  0  0  0
    4.5433   -5.6244    1.5378 O   0  0  0  0  0  0  0  0  0  0  0  0
    5.9917   -8.8658    0.4649 H   0  0  0  0  0  0  0  0  0  0  0  0
    5.6591   -7.8638    1.7769 H   0  0  0  0  0  0  0  0  0  0  0  0
    4.7414   -7.5446    0.2152 H   0  0  0  0  0  0  0  0  0  0  0  0
    3.7466   -9.8559    0.4967 H   0  0  0  0  0  0  0  0  0  0  0  0
    4.5995   -9.9853    2.0469 H   0  0  0  0  0  0  0  0  0  0  0  0
    1.0666   -9.3739    2.8934 H   0  0  0  0  0  0  0  0  0  0  0  0
    1.5336  -10.2389    1.4466 H   0  0  0  0  0  0  0  0  0  0  0  0
    1.6901  -11.6637    3.4623 H   0  0  0  0  0  0  0  0  0  0  0  0
    2.7124  -10.5106    4.2771 H   0  0  0  0  0  0  0  0  0  0  0  0
    3.3451  -11.4657    2.9062 H   0  0  0  0  0  0  0  0  0  0  0  0
    3.4482   -8.2356    3.9164 H   0  0  0  0  0  0  0  0  0  0  0  0
    0.9422   -7.7486    4.3410 H   0  0  0  0  0  0  0  0  0  0  0  0
    1.2270   -5.7238    5.6619 H   0  0  0  0  0  0  0  0  0  0  0  0
    0.3307   -3.8899    3.7519 H   0  0  0  0  0  0  0  0  0  0  0  0
    1.3425   -3.3491    5.0953 H   0  0  0  0  0  0  0  0  0  0  0  0
    1.7088   -1.2913    2.5310 H   0  0  0  0  0  0  0  0  0  0  0  0
    3.3424   -1.1650    0.6298 H   0  0  0  0  0  0  0  0  0  0  0  0
    6.1637   -4.1926   -1.5810 H   0  0  0  0  0  0  0  0  0  0  0  0
    4.8774   -5.1234   -0.8294 H   0  0  0  0  0  0  0  0  0  0  0  0
    6.3068   -4.6469    0.1104 H   0  0  0  0  0  0  0  0  0  0  0  0
    1.4354   -4.8215    1.5673 H   0  0  0  0  0  0  0  0  0  0  0  0
    2.2114   -6.2738    1.1454 H   0  0  0  0  0  0  0  0  0  0  0  0
   -0.3342   -6.7638    0.8820 H   0  0  0  0  0  0  0  0  0  0  0  0
    0.5422   -8.1707    1.3815 H   0  0  0  0  0  0  0  0  0  0  0  0
   -2.0611   -7.0391    2.5416 H   0  0  0  0  0  0  0  0  0  0  0  0
   -0.3747   -9.2382    4.0525 H   0  0  0  0  0  0  0  0  0  0  0  0
   -2.0588   -8.6013    4.4281 H   0  0  0  0  0  0  0  0  0  0  0  0
   -2.8142   -9.4333    2.2204 H   0  0  0  0  0  0  0  0  0  0  0  0
   -1.1148   -9.8748    1.7364 H   0  0  0  0  0  0  0  0  0  0  0  0
    3.3001   -6.5664    5.1266 H   0  0  0  0  0  0  0  0  0  0  0  0
    2.9367   -4.3846    6.9913 H   0  0  0  0  0  0  0  0  0  0  0  0
    4.0953   -5.6897    7.2046 H   0  0  0  0  0  0  0  0  0  0  0  0
    4.7738   -3.5906    8.4339 H   0  0  0  0  0  0  0  0  0  0  0  0
    4.8175   -2.7054    6.9131 H   0  0  0  0  0  0  0  0  0  0  0  0
    5.9816   -3.9932    7.2274 H   0  0  0  0  0  0  0  0  0  0  0  0
    6.0833   -4.5462    4.6994 H   0  0  0  0  0  0  0  0  0  0  0  0
    5.8454   -5.8866    5.7682 H   0  0  0  0  0  0  0  0  0  0  0  0
    6.2912   -6.2059    3.1275 H   0  0  0  0  0  0  0  0  0  0  0  0
    5.5289   -7.3852    4.1499 H   0  0  0  0  0  0  0  0  0  0  0  0
    2.3857   -8.2067    1.2764 H   0  0  0  0  0  0  0  0  0  0  0  0
  1  2  1  0
  1 33  1  0
  1 34  1  0
  1 35  1  0
  2  3  1  0
  2 36  1  0
  2 37  1  0
  3  4  1  0
  3  6  1  0
  3 72  1  0
  4  5  1  0
  4 38  1  0
  4 39  1  0
  5 40  1  0
  5 41  1  0
  5 42  1  0
  6 31  1  0
  6  7  1  0
  6 43  1  1
  7 20  1  0
  7  8  1  0
  7 44  1  1
  8 25  1  0
  8  9  1  0
  8 45  1  1
  9 10  1  0
  9 46  1  0
  9 47  1  0
 10 17  2  0
 10 11  1  0
 11 12  2  0
 11 48  1  0
 12 13  1  0
 12 49  1  0
 13 14  1  0
 13 16  2  0
 14 15  1  0
 15 50  1  0
 15 51  1  0
 15 52  1  0
 16 32  1  0
 16 17  1  0
 17 18  1  0
 18 31  1  0
 18 19  1  6
 18 25  1  0
 19 20  1  0
 19 53  1  0
 19 54  1  0
 20 21  1  0
 21 22  1  0
 21 55  1  0
 21 56  1  0
 22 24  1  0
 22 23  1  0
 22 57  1  0
 23 24  1  0
 23 58  1  0
 23 59  1  0
 24 60  1  0
 24 61  1  0
 25 26  1  0
 25 62  1  6
 26 27  1  0
 26 29  1  0
 27 28  1  0
 27 63  1  0
 27 64  1  0
 28 65  1  0
 28 66  1  0
 28 67  1  0
 29 30  1  0
 29 68  1  0
 29 69  1  0
 30 31  1  0
 30 70  1  0
 30 71  1  0
 31 32  1  6
M  CHG  1   3   1
M  END
>  <i_m_ct_stereo_status>  (254) 
1

>  <s_m_source_file>  (254) 
/var/tmp/pbs.5102103.sched01/tmpndyyrgqo/88kp20v8wr.sdf

>  <i_m_source_file_index>  (254) 
8

>  <i_lp_mmshare_version>  (254) 
48012

>  <i_f3d_flags>  (254) 
0

>  <s_epik_input>  (254) 
W0NIMl0xW0NIMl1bQ0hdMVtDSDJdTihbQ0gyXTIpW0NAQEhdKFtDQEhdKFtDQEBdMzRbQ0BdMjU2KU4oW0NIMl1bQ0gzXSlbQ0gyXVtDSDNdKVtDQEBIXShbQ0BASF02TihbQ0gyXVtDSDNdKVtDSDJdW0NIMl0zKVtDSDJdYzdjNWMoTzQpYyhbY0hdW2NIXTcpT1tDSDNd

>  <s_epik_cmdline>  (254) 
J2VwaWtfcHl0aG9uJywgJy1waHQnLCAnMi4wJywgJy1waCcsICc3LjAnLCAnLXRuJywgJzgnLCAnLW1hJywgJzIwMCcsICctaW1hZScsICc8aW5maWxlLm1hZT4nLCAnLW9tYWUnLCAnPG91dGZpbGUubWFlPic=

>  <r_epik_Ionization_Penalty>  (254) 
0.416072

>  <r_epik_Ionization_Penalty_Charging>  (254) 
0.0597521

>  <r_epik_Ionization_Penalty_Neutral>  (254) 
0.35632

>  <r_epik_State_Penalty>  (254) 
1.36912

>  <r_epik_Charging_Adjusted_Penalty>  (254) 
1.42887

>  <i_epik_Tot_Q>  (254) 
1

>  <i_epik_Tot_abs_Q>  (254) 
1

>  <s_lp_Force_Field>  (254) 
OPLS3e

>  <r_lp_Energy>  (254) 
314.81

>  <b_lp_Chiralities_Consistent>  (254) 
1

>  <s_lp_Variant>  (254) 
59:0-3

>  <s_i_glide_gridfile>  (254) 
pfpi4k_grid

>  <i_i_glide_lignum>  (254) 
8

>  <i_i_glide_rotatable_bonds>  (254) 
7

>  <r_i_docking_score>  (254) 
-2.323

>  <r_i_glide_ligand_efficiency>  (254) 
-0.0725937

>  <r_i_glide_ligand_efficiency_sa>  (254) 
-0.230471

>  <r_i_glide_ligand_efficiency_ln>  (254) 
-0.520183

>  <r_i_glide_gscore>  (254) 
-2.323

>  <r_i_glide_lipo>  (254) 
-0.508849

>  <r_i_glide_hbond>  (254) 
0

>  <r_i_glide_metal>  (254) 
-0

>  <r_i_glide_rewards>  (254) 
-0.418463

>  <r_i_glide_evdw>  (254) 
-24.2519

>  <r_i_glide_ecoul>  (254) 
-3.18738

>  <r_i_glide_erotb>  (254) 
0.311105

>  <r_i_glide_esite>  (254) 
-0.0160885

>  <r_i_glide_emodel>  (254) 
-25.8795

>  <r_i_glide_energy>  (254) 
-27.4393

>  <r_i_glide_einternal>  (254) 
7.19878

>  <r_i_glide_intrahb_reward>  (254) 
-0

>  <i_i_glide_confnum>  (254) 
1

>  <i_i_glide_posenum>  (254) 
36

>  <r_i_glide_eff_state_penalty>  (254) 
0

>  <ligand_id>  (254) 
59

>  <original_smiles>  (254) 
CCN(CC)C1C2C3Cc4ccc(OC)c5c4C4(CN2CC2CC2)C3N(CC)CCC14O5

>  <smiles>  (254) 
[H]c1c([H])c2c3c(c1OC([H])([H])[H])OC14C([H])([H])C([H])([H])N(C([H])([H])C([H])([H])[H])C5([H])C([H])(C2([H])[H])C([H])(N(C([H])([H])C2([H])C([H])([H])C2([H])[H])C([H])([H])C351)C4([H])[N+]([H])(C([H])([H])C([H])([H])[H])C([H])([H])C([H])([H])[H]

$$$$
59:2:1
     RDKit          3D

 72 78  0  0  1  0  0  0  0  0999 V2000
    5.4231   -9.8218    1.4907 C   0  0  0  0  0  0  0  0  0  0  0  0
    4.0730   -9.2293    1.0359 C   0  0  0  0  0  0  0  0  0  0  0  0
    3.0802   -9.0323    2.1378 N   0  0  0  0  0  0  0  0  0  0  0  0
    2.8042  -10.3447    2.8072 C   0  0  0  0  0  0  0  0  0  0  0  0
    1.4683  -10.4125    3.5856 C   0  0  0  0  0  0  0  0  0  0  0  0
    3.3445   -7.8558    3.0441 C   0  0  2  0  0  0  0  0  0  0  0  0
    1.9027   -7.0854    3.7309 C   0  0  1  0  0  0  0  0  0  0  0  0
    2.1143   -5.5917    4.4771 C   0  0  2  0  0  0  0  0  0  0  0  0
    1.8217   -4.0896    3.8510 C   0  0  0  0  0  0  0  0  0  0  0  0
    2.8253   -3.4946    2.7366 C   0  0  0  0  0  0  0  0  0  0  0  0
    2.8046   -2.4069    1.8301 C   0  0  0  0  0  0  0  0  0  0  0  0
    3.6553   -2.4601    0.6691 C   0  0  0  0  0  0  0  0  0  0  0  0
    4.4848   -3.6167    0.3334 C   0  0  0  0  0  0  0  0  0  0  0  0
    5.1765   -3.7691   -0.8404 O   0  0  0  0  0  0  0  0  0  0  0  0
    5.0652   -2.7608   -1.8321 C   0  0  0  0  0  0  0  0  0  0  0  0
    4.5126   -4.6971    1.2389 C   0  0  0  0  0  0  0  0  0  0  0  0
    3.7423   -4.4540    2.3319 C   0  0  0  0  0  0  0  0  0  0  0  0
    3.5272   -5.7136    2.8159 C   0  0  2  0  0  0  0  0  0  0  0  0
    2.1883   -6.0567    1.8496 C   0  0  0  0  0  0  0  0  0  0  0  0
    1.1176   -6.6541    2.6126 N   0  0  0  0  0  0  0  0  0  0  0  0
    0.2630   -7.6296    1.8862 C   0  0  0  0  0  0  0  0  0  0  0  0
   -0.6571   -8.3929    2.8116 C   0  0  0  0  0  0  0  0  0  0  0  0
   -1.8051   -9.2094    2.2988 C   0  0  0  0  0  0  0  0  0  0  0  0
   -2.0289   -8.0436    3.2387 C   0  0  0  0  0  0  0  0  0  0  0  0
    3.5551   -5.6968    4.3844 C   0  0  1  0  0  0  0  0  0  0  0  0
    4.6159   -4.8132    4.8964 N   0  0  0  0  0  0  0  0  0  0  0  0
    4.5480   -4.5889    6.3515 C   0  0  0  0  0  0  0  0  0  0  0  0
    5.5658   -3.5256    6.7968 C   0  0  0  0  0  0  0  0  0  0  0  0
    5.8724   -5.4710    4.4920 C   0  0  0  0  0  0  0  0  0  0  0  0
    5.8078   -6.6024    3.3977 C   0  0  0  0  0  0  0  0  0  0  0  0
    4.5065   -6.7352    2.5044 C   0  0  1  0  0  0  0  0  0  0  0  0
    4.8291   -6.0696    1.1959 O   0  0  0  0  0  0  0  0  0  0  0  0
    6.1333   -9.8817    0.6819 H   0  0  0  0  0  0  0  0  0  0  0  0
    5.2971  -10.8325    1.8746 H   0  0  0  0  0  0  0  0  0  0  0  0
    5.8756   -9.2329    2.2816 H   0  0  0  0  0  0  0  0  0  0  0  0
    4.2511   -8.2870    0.4918 H   0  0  0  0  0  0  0  0  0  0  0  0
    3.6446   -9.8609    0.2629 H   0  0  0  0  0  0  0  0  0  0  0  0
    2.7025  -11.1438    2.0855 H   0  0  0  0  0  0  0  0  0  0  0  0
    3.5698  -10.5992    3.5148 H   0  0  0  0  0  0  0  0  0  0  0  0
    1.2913  -11.2818    4.2245 H   0  0  0  0  0  0  0  0  0  0  0  0
    0.6919  -10.4262    2.8644 H   0  0  0  0  0  0  0  0  0  0  0  0
    1.4976   -9.6289    4.3096 H   0  0  0  0  0  0  0  0  0  0  0  0
    3.8301   -8.3618    3.8906 H   0  0  0  0  0  0  0  0  0  0  0  0
    1.3284   -7.6699    4.4487 H   0  0  0  0  0  0  0  0  0  0  0  0
    1.7563   -5.6528    5.5112 H   0  0  0  0  0  0  0  0  0  0  0  0
    0.7906   -4.0089    3.4939 H   0  0  0  0  0  0  0  0  0  0  0  0
    1.8675   -3.3698    4.6781 H   0  0  0  0  0  0  0  0  0  0  0  0
    2.1031   -1.6056    1.9671 H   0  0  0  0  0  0  0  0  0  0  0  0
    3.5847   -1.6261   -0.0118 H   0  0  0  0  0  0  0  0  0  0  0  0
    5.6752   -3.0451   -2.6925 H   0  0  0  0  0  0  0  0  0  0  0  0
    5.4353   -1.7967   -1.4756 H   0  0  0  0  0  0  0  0  0  0  0  0
    4.0369   -2.6462   -2.1852 H   0  0  0  0  0  0  0  0  0  0  0  0
    1.7346   -5.2010    1.3425 H   0  0  0  0  0  0  0  0  0  0  0  0
    2.4695   -6.6850    1.0047 H   0  0  0  0  0  0  0  0  0  0  0  0
   -0.3819   -7.0900    1.1668 H   0  0  0  0  0  0  0  0  0  0  0  0
    0.8578   -8.3035    1.2693 H   0  0  0  0  0  0  0  0  0  0  0  0
   -0.1981   -8.7246    3.7719 H   0  0  0  0  0  0  0  0  0  0  0  0
   -2.0525   -9.0590    1.2711 H   0  0  0  0  0  0  0  0  0  0  0  0
   -1.9165  -10.2067    2.6860 H   0  0  0  0  0  0  0  0  0  0  0  0
   -2.1931   -8.2907    4.2905 H   0  0  0  0  0  0  0  0  0  0  0  0
   -2.3064   -7.0603    2.9001 H   0  0  0  0  0  0  0  0  0  0  0  0
    3.7882   -6.6045    4.9432 H   0  0  0  0  0  0  0  0  0  0  0  0
    3.5540   -4.2320    6.6101 H   0  0  0  0  0  0  0  0  0  0  0  0
    4.7019   -5.5100    6.9072 H   0  0  0  0  0  0  0  0  0  0  0  0
    5.4645   -3.3074    7.8617 H   0  0  0  0  0  0  0  0  0  0  0  0
    5.4218   -2.5865    6.2625 H   0  0  0  0  0  0  0  0  0  0  0  0
    6.5960   -3.8442    6.6377 H   0  0  0  0  0  0  0  0  0  0  0  0
    6.5700   -4.6802    4.1774 H   0  0  0  0  0  0  0  0  0  0  0  0
    6.3558   -5.9143    5.3551 H   0  0  0  0  0  0  0  0  0  0  0  0
    6.6820   -6.5455    2.7510 H   0  0  0  0  0  0  0  0  0  0  0  0
    5.9530   -7.5433    3.9246 H   0  0  0  0  0  0  0  0  0  0  0  0
    2.2481   -8.7574    1.6443 H   0  0  0  0  0  0  0  0  0  0  0  0
  1  2  1  0
  1 33  1  0
  1 34  1  0
  1 35  1  0
  2  3  1  0
  2 36  1  0
  2 37  1  0
  3  4  1  0
  3  6  1  0
  3 72  1  0
  4  5  1  0
  4 38  1  0
  4 39  1  0
  5 40  1  0
  5 41  1  0
  5 42  1  0
  6 31  1  0
  6  7  1  0
  6 43  1  1
  7 20  1  0
  7  8  1  0
  7 44  1  1
  8 25  1  0
  8  9  1  0
  8 45  1  1
  9 10  1  0
  9 46  1  0
  9 47  1  0
 10 17  2  0
 10 11  1  0
 11 12  2  0
 11 48  1  0
 12 13  1  0
 12 49  1  0
 13 14  1  0
 13 16  2  0
 14 15  1  0
 15 50  1  0
 15 51  1  0
 15 52  1  0
 16 32  1  0
 16 17  1  0
 17 18  1  0
 18 31  1  0
 18 19  1  1
 18 25  1  0
 19 20  1  0
 19 53  1  0
 19 54  1  0
 20 21  1  0
 21 22  1  0
 21 55  1  0
 21 56  1  0
 22 24  1  0
 22 23  1  0
 22 57  1  0
 23 24  1  0
 23 58  1  0
 23 59  1  0
 24 60  1  0
 24 61  1  0
 25 26  1  0
 25 62  1  1
 26 27  1  0
 26 29  1  0
 27 28  1  0
 27 63  1  0
 27 64  1  0
 28 65  1  0
 28 66  1  0
 28 67  1  0
 29 30  1  0
 29 68  1  0
 29 69  1  0
 30 31  1  0
 30 70  1  0
 30 71  1  0
 31 32  1  6
M  CHG  1   3   1
M  END
>  <i_m_ct_stereo_status>  (255) 
1

>  <s_m_source_file>  (255) 
/var/tmp/pbs.5102103.sched01/tmpndyyrgqo/88kp20v8wr.sdf

>  <i_m_source_file_index>  (255) 
8

>  <i_lp_mmshare_version>  (255) 
48012

>  <i_f3d_flags>  (255) 
0

>  <s_epik_input>  (255) 
W0NIMl0xW0NIMl1bQ0hdMVtDSDJdTihbQ0gyXTIpW0NAQEhdKFtDQEhdKFtDQEBdMzRbQ0BdMjU2KU4oW0NIMl1bQ0gzXSlbQ0gyXVtDSDNdKVtDQEBIXShbQ0BASF02TihbQ0gyXVtDSDNdKVtDSDJdW0NIMl0zKVtDSDJdYzdjNWMoTzQpYyhbY0hdW2NIXTcpT1tDSDNd

>  <s_epik_cmdline>  (255) 
J2VwaWtfcHl0aG9uJywgJy1waHQnLCAnMi4wJywgJy1waCcsICc3LjAnLCAnLXRuJywgJzgnLCAnLW1hJywgJzIwMCcsICctaW1hZScsICc8aW5maWxlLm1hZT4nLCAnLW9tYWUnLCAnPG91dGZpbGUubWFlPic=

>  <r_epik_Ionization_Penalty>  (255) 
0.416072

>  <r_epik_Ionization_Penalty_Charging>  (255) 
0.0597521

>  <r_epik_Ionization_Penalty_Neutral>  (255) 
0.35632

>  <r_epik_State_Penalty>  (255) 
1.36912

>  <r_epik_Charging_Adjusted_Penalty>  (255) 
1.42887

>  <i_epik_Tot_Q>  (255) 
1

>  <i_epik_Tot_abs_Q>  (255) 
1

>  <s_lp_Force_Field>  (255) 
OPLS3e

>  <r_lp_Energy>  (255) 
314.81

>  <b_lp_Chiralities_Consistent>  (255) 
1

>  <s_lp_Variant>  (255) 
59:0-3

>  <s_i_glide_gridfile>  (255) 
pfpi4k_grid

>  <i_i_glide_lignum>  (255) 
8

>  <i_i_glide_rotatable_bonds>  (255) 
7

>  <r_i_docking_score>  (255) 
-2.24087

>  <r_i_glide_ligand_efficiency>  (255) 
-0.0700271

>  <r_i_glide_ligand_efficiency_sa>  (255) 
-0.222322

>  <r_i_glide_ligand_efficiency_ln>  (255) 
-0.501791

>  <r_i_glide_gscore>  (255) 
-2.24087

>  <r_i_glide_lipo>  (255) 
-0.47225

>  <r_i_glide_hbond>  (255) 
0

>  <r_i_glide_metal>  (255) 
-0

>  <r_i_glide_rewards>  (255) 
-0.418463

>  <r_i_glide_evdw>  (255) 
-24.9542

>  <r_i_glide_ecoul>  (255) 
-2.58837

>  <r_i_glide_erotb>  (255) 
0.311105

>  <r_i_glide_esite>  (255) 
-0.0252923

>  <r_i_glide_emodel>  (255) 
-28.301

>  <r_i_glide_energy>  (255) 
-27.5426

>  <r_i_glide_einternal>  (255) 
3.54686

>  <r_i_glide_intrahb_reward>  (255) 
-0

>  <i_i_glide_confnum>  (255) 
1

>  <i_i_glide_posenum>  (255) 
13

>  <r_i_glide_eff_state_penalty>  (255) 
0

>  <ligand_id>  (255) 
59

>  <original_smiles>  (255) 
CCN(CC)C1C2C3Cc4ccc(OC)c5c4C4(CN2CC2CC2)C3N(CC)CCC14O5

>  <smiles>  (255) 
[H]c1c([H])c2c3c(c1OC([H])([H])[H])OC14C([H])([H])C([H])([H])N(C([H])([H])C([H])([H])[H])C5([H])C([H])(C2([H])[H])C([H])(N(C([H])([H])C2([H])C([H])([H])C2([H])[H])C([H])([H])C351)C4([H])[N+]([H])(C([H])([H])C([H])([H])[H])C([H])([H])C([H])([H])[H]

$$$$
59:2:2
     RDKit          3D

 72 78  0  0  1  0  0  0  0  0999 V2000
   -1.1552   -8.7171    3.1895 C   0  0  0  0  0  0  0  0  0  0  0  0
    0.1055   -9.5778    2.9581 C   0  0  0  0  0  0  0  0  0  0  0  0
    1.0241   -9.5750    4.1530 N   0  0  0  0  0  0  0  0  0  0  0  0
    0.8377  -10.7575    5.0600 C   0  0  0  0  0  0  0  0  0  0  0  0
    0.9695  -12.1375    4.3929 C   0  0  0  0  0  0  0  0  0  0  0  0
    2.4676   -9.1904    3.9440 C   0  0  2  0  0  0  0  0  0  0  0  0
    3.2335   -8.3111    5.2682 C   0  0  1  0  0  0  0  0  0  0  0  0
    4.7271   -7.5489    4.9132 C   0  0  2  0  0  0  0  0  0  0  0  0
    5.0278   -5.9548    4.4912 C   0  0  0  0  0  0  0  0  0  0  0  0
    4.5722   -5.4308    3.0236 C   0  0  0  0  0  0  0  0  0  0  0  0
    4.4433   -4.1788    2.3894 C   0  0  0  0  0  0  0  0  0  0  0  0
    3.5846   -4.0667    1.2292 C   0  0  0  0  0  0  0  0  0  0  0  0
    2.7827   -5.1692    0.7404 C   0  0  0  0  0  0  0  0  0  0  0  0
    1.8203   -5.0801   -0.2517 O   0  0  0  0  0  0  0  0  0  0  0  0
    1.8663   -3.9464   -1.1044 C   0  0  0  0  0  0  0  0  0  0  0  0
    2.9195   -6.4175    1.3722 C   0  0  0  0  0  0  0  0  0  0  0  0
    3.8419   -6.3968    2.3577 C   0  0  0  0  0  0  0  0  0  0  0  0
    3.4990   -7.5032    3.0985 C   0  0  2  0  0  0  0  0  0  0  0  0
    2.3508   -6.7218    4.0571 C   0  0  0  0  0  0  0  0  0  0  0  0
    2.4737   -7.1129    5.4544 N   0  0  0  0  0  0  0  0  0  0  0  0
    1.2351   -7.1615    6.2279 C   0  0  0  0  0  0  0  0  0  0  0  0
    1.5101   -7.4480    7.6929 C   0  0  0  0  0  0  0  0  0  0  0  0
    1.4813   -8.8697    8.2095 C   0  0  0  0  0  0  0  0  0  0  0  0
    0.3830   -7.9191    8.5871 C   0  0  0  0  0  0  0  0  0  0  0  0
    4.8084   -8.2092    3.6281 C   0  0  1  0  0  0  0  0  0  0  0  0
    5.8572   -8.2233    2.6202 N   0  0  0  0  0  0  0  0  0  0  0  0
    7.1621   -8.6663    3.1106 C   0  0  0  0  0  0  0  0  0  0  0  0
    8.2777   -7.8359    2.4759 C   0  0  0  0  0  0  0  0  0  0  0  0
    5.3434   -9.0972    1.5352 C   0  0  0  0  0  0  0  0  0  0  0  0
    3.8009   -9.4446    1.5597 C   0  0  0  0  0  0  0  0  0  0  0  0
    2.8151   -8.5661    2.4112 C   0  0  1  0  0  0  0  0  0  0  0  0
    2.1511   -7.5917    1.4777 O   0  0  0  0  0  0  0  0  0  0  0  0
   -1.7597   -8.8434    2.2939 H   0  0  0  0  0  0  0  0  0  0  0  0
   -0.9269   -7.6535    3.2982 H   0  0  0  0  0  0  0  0  0  0  0  0
   -1.7489   -9.0530    4.0456 H   0  0  0  0  0  0  0  0  0  0  0  0
   -0.2271  -10.5763    2.6876 H   0  0  0  0  0  0  0  0  0  0  0  0
    0.5463   -9.2024    2.0321 H   0  0  0  0  0  0  0  0  0  0  0  0
    1.5986  -10.7489    5.8331 H   0  0  0  0  0  0  0  0  0  0  0  0
   -0.1235  -10.6516    5.5701 H   0  0  0  0  0  0  0  0  0  0  0  0
    0.7377  -12.8985    5.1369 H   0  0  0  0  0  0  0  0  0  0  0  0
    2.0120  -12.2660    4.0908 H   0  0  0  0  0  0  0  0  0  0  0  0
    0.3099  -12.3352    3.5484 H   0  0  0  0  0  0  0  0  0  0  0  0
    2.9747  -10.1522    3.9603 H   0  0  0  0  0  0  0  0  0  0  0  0
    3.3094   -8.8961    6.1923 H   0  0  0  0  0  0  0  0  0  0  0  0
    5.4900   -7.9032    5.6089 H   0  0  0  0  0  0  0  0  0  0  0  0
    4.6092   -5.2919    5.2499 H   0  0  0  0  0  0  0  0  0  0  0  0
    6.1108   -5.8138    4.5256 H   0  0  0  0  0  0  0  0  0  0  0  0
    4.8984   -3.2895    2.8110 H   0  0  0  0  0  0  0  0  0  0  0  0
    3.4638   -3.0907    0.8007 H   0  0  0  0  0  0  0  0  0  0  0  0
    1.0434   -4.0057   -1.8195 H   0  0  0  0  0  0  0  0  0  0  0  0
    2.7994   -3.8807   -1.6595 H   0  0  0  0  0  0  0  0  0  0  0  0
    1.7440   -3.0357   -0.5352 H   0  0  0  0  0  0  0  0  0  0  0  0
    2.3679   -5.6293    4.0378 H   0  0  0  0  0  0  0  0  0  0  0  0
    1.3478   -6.9536    3.7075 H   0  0  0  0  0  0  0  0  0  0  0  0
    0.7598   -6.1850    6.1525 H   0  0  0  0  0  0  0  0  0  0  0  0
    0.5070   -7.8769    5.8537 H   0  0  0  0  0  0  0  0  0  0  0  0
    2.2291   -6.7573    8.1499 H   0  0  0  0  0  0  0  0  0  0  0  0
    1.1957   -9.6696    7.5394 H   0  0  0  0  0  0  0  0  0  0  0  0
    2.2283   -9.1221    8.9627 H   0  0  0  0  0  0  0  0  0  0  0  0
    0.3499   -7.6178    9.6369 H   0  0  0  0  0  0  0  0  0  0  0  0
   -0.5833   -8.1145    8.1274 H   0  0  0  0  0  0  0  0  0  0  0  0
    4.7916   -9.2710    3.8853 H   0  0  0  0  0  0  0  0  0  0  0  0
    7.2156   -8.5378    4.1890 H   0  0  0  0  0  0  0  0  0  0  0  0
    7.3202   -9.7264    2.9273 H   0  0  0  0  0  0  0  0  0  0  0  0
    9.2367   -8.1425    2.8952 H   0  0  0  0  0  0  0  0  0  0  0  0
    8.1566   -6.7736    2.6881 H   0  0  0  0  0  0  0  0  0  0  0  0
    8.3332   -7.9674    1.3948 H   0  0  0  0  0  0  0  0  0  0  0  0
    5.5868   -8.6219    0.5860 H   0  0  0  0  0  0  0  0  0  0  0  0
    5.8787  -10.0469    1.5115 H   0  0  0  0  0  0  0  0  0  0  0  0
    3.4386   -9.4751    0.5342 H   0  0  0  0  0  0  0  0  0  0  0  0
    3.7120  -10.4691    1.9162 H   0  0  0  0  0  0  0  0  0  0  0  0
    0.7189   -8.7993    4.7232 H   0  0  0  0  0  0  0  0  0  0  0  0
  1  2  1  0
  1 33  1  0
  1 34  1  0
  1 35  1  0
  2  3  1  0
  2 36  1  0
  2 37  1  0
  3  4  1  0
  3  6  1  0
  3 72  1  0
  4  5  1  0
  4 38  1  0
  4 39  1  0
  5 40  1  0
  5 41  1  0
  5 42  1  0
  6 31  1  0
  6  7  1  0
  6 43  1  6
  7 20  1  0
  7  8  1  0
  7 44  1  1
  8 25  1  0
  8  9  1  0
  8 45  1  1
  9 10  1  0
  9 46  1  0
  9 47  1  0
 10 17  2  0
 10 11  1  0
 11 12  2  0
 11 48  1  0
 12 13  1  0
 12 49  1  0
 13 14  1  0
 13 16  2  0
 14 15  1  0
 15 50  1  0
 15 51  1  0
 15 52  1  0
 16 32  1  0
 16 17  1  0
 17 18  1  0
 18 31  1  0
 18 19  1  1
 18 25  1  0
 19 20  1  0
 19 53  1  0
 19 54  1  0
 20 21  1  0
 21 22  1  0
 21 55  1  0
 21 56  1  0
 22 24  1  0
 22 23  1  0
 22 57  1  0
 23 24  1  0
 23 58  1  0
 23 59  1  0
 24 60  1  0
 24 61  1  0
 25 26  1  0
 25 62  1  1
 26 27  1  0
 26 29  1  0
 27 28  1  0
 27 63  1  0
 27 64  1  0
 28 65  1  0
 28 66  1  0
 28 67  1  0
 29 30  1  0
 29 68  1  0
 29 69  1  0
 30 31  1  0
 30 70  1  0
 30 71  1  0
 31 32  1  6
M  CHG  1   3   1
M  END
>  <i_m_ct_stereo_status>  (256) 
1

>  <s_m_source_file>  (256) 
/var/tmp/pbs.5102103.sched01/tmpndyyrgqo/88kp20v8wr.sdf

>  <i_m_source_file_index>  (256) 
8

>  <i_lp_mmshare_version>  (256) 
48012

>  <i_f3d_flags>  (256) 
0

>  <s_epik_input>  (256) 
W0NIMl0xW0NIMl1bQ0hdMVtDSDJdTihbQ0gyXTIpW0NAQEhdKFtDQEhdKFtDQEBdMzRbQ0BdMjU2KU4oW0NIMl1bQ0gzXSlbQ0gyXVtDSDNdKVtDQEBIXShbQ0BASF02TihbQ0gyXVtDSDNdKVtDSDJdW0NIMl0zKVtDSDJdYzdjNWMoTzQpYyhbY0hdW2NIXTcpT1tDSDNd

>  <s_epik_cmdline>  (256) 
J2VwaWtfcHl0aG9uJywgJy1waHQnLCAnMi4wJywgJy1waCcsICc3LjAnLCAnLXRuJywgJzgnLCAnLW1hJywgJzIwMCcsICctaW1hZScsICc8aW5maWxlLm1hZT4nLCAnLW9tYWUnLCAnPG91dGZpbGUubWFlPic=

>  <r_epik_Ionization_Penalty>  (256) 
0.416072

>  <r_epik_Ionization_Penalty_Charging>  (256) 
0.0597521

>  <r_epik_Ionization_Penalty_Neutral>  (256) 
0.35632

>  <r_epik_State_Penalty>  (256) 
1.36912

>  <r_epik_Charging_Adjusted_Penalty>  (256) 
1.42887

>  <i_epik_Tot_Q>  (256) 
1

>  <i_epik_Tot_abs_Q>  (256) 
1

>  <s_lp_Force_Field>  (256) 
OPLS3e

>  <r_lp_Energy>  (256) 
314.81

>  <b_lp_Chiralities_Consistent>  (256) 
1

>  <s_lp_Variant>  (256) 
59:0-3

>  <s_i_glide_gridfile>  (256) 
pfpi4k_grid

>  <i_i_glide_lignum>  (256) 
8

>  <i_i_glide_rotatable_bonds>  (256) 
7

>  <r_i_docking_score>  (256) 
-2.16501

>  <r_i_glide_ligand_efficiency>  (256) 
-0.0676565

>  <r_i_glide_ligand_efficiency_sa>  (256) 
-0.214796

>  <r_i_glide_ligand_efficiency_ln>  (256) 
-0.484805

>  <r_i_glide_gscore>  (256) 
-2.16501

>  <r_i_glide_lipo>  (256) 
-0.0900244

>  <r_i_glide_hbond>  (256) 
-0.0472037

>  <r_i_glide_metal>  (256) 
-0

>  <r_i_glide_rewards>  (256) 
-0.418463

>  <r_i_glide_evdw>  (256) 
-23.5664

>  <r_i_glide_ecoul>  (256) 
-4.79024

>  <r_i_glide_erotb>  (256) 
0.311105

>  <r_i_glide_esite>  (256) 
-0.0235668

>  <r_i_glide_emodel>  (256) 
-28.2985

>  <r_i_glide_energy>  (256) 
-28.3566

>  <r_i_glide_einternal>  (256) 
7.5776

>  <r_i_glide_intrahb_reward>  (256) 
-0

>  <i_i_glide_confnum>  (256) 
1

>  <i_i_glide_posenum>  (256) 
34

>  <r_i_glide_eff_state_penalty>  (256) 
0

>  <ligand_id>  (256) 
59

>  <original_smiles>  (256) 
CCN(CC)C1C2C3Cc4ccc(OC)c5c4C4(CN2CC2CC2)C3N(CC)CCC14O5

>  <smiles>  (256) 
[H]c1c([H])c2c3c(c1OC([H])([H])[H])OC14C([H])([H])C([H])([H])N(C([H])([H])C([H])([H])[H])C5([H])C([H])(C2([H])[H])C([H])(N(C([H])([H])C2([H])C([H])([H])C2([H])[H])C([H])([H])C351)C4([H])[N+]([H])(C([H])([H])C([H])([H])[H])C([H])([H])C([H])([H])[H]

$$$$
59:3:0
     RDKit          3D

 73 79  0  0  1  0  0  0  0  0999 V2000
    5.0784   -9.0510    1.1489 C   0  0  0  0  0  0  0  0  0  0  0  0
    4.4690   -9.7037    2.3924 C   0  0  0  0  0  0  0  0  0  0  0  0
    3.2086   -9.0437    2.9249 N   0  0  0  0  0  0  0  0  0  0  0  0
    2.3921  -10.0191    3.7559 C   0  0  0  0  0  0  0  0  0  0  0  0
    1.6926  -11.1064    2.9153 C   0  0  0  0  0  0  0  0  0  0  0  0
    3.3734   -7.6785    3.5949 C   0  0  2  0  0  0  0  0  0  0  0  0
    1.8567   -6.8811    4.0229 C   0  0  1  0  0  0  0  0  0  0  0  0
    1.9440   -5.2095    4.4302 C   0  0  2  0  0  0  0  0  0  0  0  0
    1.5958   -3.9077    3.4097 C   0  0  0  0  0  0  0  0  0  0  0  0
    2.6548   -3.5358    2.2560 C   0  0  0  0  0  0  0  0  0  0  0  0
    2.6490   -2.6852    1.1191 C   0  0  0  0  0  0  0  0  0  0  0  0
    3.5785   -2.9430    0.0503 C   0  0  0  0  0  0  0  0  0  0  0  0
    4.4792   -4.0679    0.0517 C   0  0  0  0  0  0  0  0  0  0  0  0
    5.2653   -4.4809   -0.9963 O   0  0  0  0  0  0  0  0  0  0  0  0
    5.1484   -3.7829   -2.2364 C   0  0  0  0  0  0  0  0  0  0  0  0
    4.5161   -4.9203    1.2135 C   0  0  0  0  0  0  0  0  0  0  0  0
    3.6654   -4.4796    2.1591 C   0  0  0  0  0  0  0  0  0  0  0  0
    3.4968   -5.6316    2.8736 C   0  0  2  0  0  0  0  0  0  0  0  0
    2.2171   -6.2445    1.9570 C   0  0  0  0  0  0  0  0  0  0  0  0
    1.1302   -6.7211    2.7966 N   0  0  0  0  0  0  0  0  0  0  0  0
    0.3618   -7.8415    2.2612 C   0  0  0  0  0  0  0  0  0  0  0  0
   -0.7500   -8.2715    3.2047 C   0  0  0  0  0  0  0  0  0  0  0  0
   -1.9631   -8.9796    2.6592 C   0  0  0  0  0  0  0  0  0  0  0  0
   -2.0786   -7.5616    3.1494 C   0  0  0  0  0  0  0  0  0  0  0  0
    3.3769   -5.2540    4.3982 C   0  0  1  0  0  0  0  0  0  0  0  0
    4.4577   -4.3657    4.9634 N   0  0  2  0  0  0  0  0  0  0  0  0
    4.2668   -2.8806    5.0867 C   0  0  0  0  0  0  0  0  0  0  0  0
    3.2332   -2.5224    6.1541 C   0  0  0  0  0  0  0  0  0  0  0  0
    5.7688   -4.7754    4.3263 C   0  0  0  0  0  0  0  0  0  0  0  0
    5.7400   -6.2484    3.7926 C   0  0  0  0  0  0  0  0  0  0  0  0
    4.5218   -6.6550    2.8763 C   0  0  1  0  0  0  0  0  0  0  0  0
    4.9027   -6.2209    1.4672 O   0  0  0  0  0  0  0  0  0  0  0  0
    5.8664   -9.6893    0.7130 H   0  0  0  0  0  0  0  0  0  0  0  0
    5.6512   -8.1742    1.4259 H   0  0  0  0  0  0  0  0  0  0  0  0
    4.3314   -8.8354    0.3659 H   0  0  0  0  0  0  0  0  0  0  0  0
    4.2120  -10.7140    2.1176 H   0  0  0  0  0  0  0  0  0  0  0  0
    5.1940   -9.7675    3.2024 H   0  0  0  0  0  0  0  0  0  0  0  0
    3.0158  -10.4760    4.5281 H   0  0  0  0  0  0  0  0  0  0  0  0
    1.6169   -9.4971    4.2961 H   0  0  0  0  0  0  0  0  0  0  0  0
    0.9962  -11.6705    3.5297 H   0  0  0  0  0  0  0  0  0  0  0  0
    2.3928  -11.8338    2.4950 H   0  0  0  0  0  0  0  0  0  0  0  0
    1.0969  -10.7118    2.0882 H   0  0  0  0  0  0  0  0  0  0  0  0
    3.8077   -7.9797    4.5371 H   0  0  0  0  0  0  0  0  0  0  0  0
    1.2902   -7.4133    4.7820 H   0  0  0  0  0  0  0  0  0  0  0  0
    1.5365   -5.0600    5.4296 H   0  0  0  0  0  0  0  0  0  0  0  0
    0.6028   -4.0621    2.9660 H   0  0  0  0  0  0  0  0  0  0  0  0
    1.4914   -3.0134    3.9985 H   0  0  0  0  0  0  0  0  0  0  0  0
    1.8840   -1.9078    1.0002 H   0  0  0  0  0  0  0  0  0  0  0  0
    3.5120   -2.3208   -0.8306 H   0  0  0  0  0  0  0  0  0  0  0  0
    5.8247   -4.2252   -2.9661 H   0  0  0  0  0  0  0  0  0  0  0  0
    5.4301   -2.7391   -2.1260 H   0  0  0  0  0  0  0  0  0  0  0  0
    4.1408   -3.8525   -2.6516 H   0  0  0  0  0  0  0  0  0  0  0  0
    1.7761   -5.5719    1.2342 H   0  0  0  0  0  0  0  0  0  0  0  0
    2.5828   -7.0561    1.3172 H   0  0  0  0  0  0  0  0  0  0  0  0
   -0.0552   -7.6046    1.2956 H   0  0  0  0  0  0  0  0  0  0  0  0
    0.9949   -8.7048    2.0446 H   0  0  0  0  0  0  0  0  0  0  0  0
   -0.4397   -8.6263    4.1838 H   0  0  0  0  0  0  0  0  0  0  0  0
   -2.0075   -9.1572    1.5853 H   0  0  0  0  0  0  0  0  0  0  0  0
   -2.4170   -9.7556    3.2800 H   0  0  0  0  0  0  0  0  0  0  0  0
   -2.5860   -7.3893    4.0925 H   0  0  0  0  0  0  0  0  0  0  0  0
   -2.1648   -6.7663    2.4202 H   0  0  0  0  0  0  0  0  0  0  0  0
    3.6006   -5.9969    5.1682 H   0  0  0  0  0  0  0  0  0  0  0  0
    5.2211   -2.4706    5.4123 H   0  0  0  0  0  0  0  0  0  0  0  0
    4.0689   -2.4182    4.1272 H   0  0  0  0  0  0  0  0  0  0  0  0
    2.2398   -2.9111    5.9473 H   0  0  0  0  0  0  0  0  0  0  0  0
    3.1337   -1.4372    6.2305 H   0  0  0  0  0  0  0  0  0  0  0  0
    3.5127   -2.8992    7.1446 H   0  0  0  0  0  0  0  0  0  0  0  0
    5.9794   -4.1055    3.4977 H   0  0  0  0  0  0  0  0  0  0  0  0
    6.5734   -4.6395    5.0449 H   0  0  0  0  0  0  0  0  0  0  0  0
    6.6605   -6.4274    3.2355 H   0  0  0  0  0  0  0  0  0  0  0  0
    5.8080   -6.9322    4.6502 H   0  0  0  0  0  0  0  0  0  0  0  0
    4.5521   -4.6641    5.9185 H   0  0  0  0  0  0  0  0  0  0  0  0
    2.6269   -8.8557    2.1145 H   0  0  0  0  0  0  0  0  0  0  0  0
  1  2  1  0
  1 33  1  0
  1 34  1  0
  1 35  1  0
  2  3  1  0
  2 36  1  0
  2 37  1  0
  3  4  1  0
  3  6  1  0
  3 73  1  0
  4  5  1  0
  4 38  1  0
  4 39  1  0
  5 40  1  0
  5 41  1  0
  5 42  1  0
  6 31  1  0
  6  7  1  0
  6 43  1  1
  7 20  1  0
  7  8  1  0
  7 44  1  1
  8 25  1  0
  8  9  1  0
  8 45  1  1
  9 10  1  0
  9 46  1  0
  9 47  1  0
 10 17  2  0
 10 11  1  0
 11 12  2  0
 11 48  1  0
 12 13  1  0
 12 49  1  0
 13 14  1  0
 13 16  2  0
 14 15  1  0
 15 50  1  0
 15 51  1  0
 15 52  1  0
 16 32  1  0
 16 17  1  0
 17 18  1  0
 18 31  1  0
 18 19  1  6
 18 25  1  0
 19 20  1  0
 19 53  1  0
 19 54  1  0
 20 21  1  0
 21 22  1  0
 21 55  1  0
 21 56  1  0
 22 24  1  0
 22 23  1  0
 22 57  1  0
 23 24  1  0
 23 58  1  0
 23 59  1  0
 24 60  1  0
 24 61  1  0
 25 26  1  0
 25 62  1  1
 26 27  1  0
 26 29  1  0
 26 72  1  1
 27 28  1  0
 27 63  1  0
 27 64  1  0
 28 65  1  0
 28 66  1  0
 28 67  1  0
 29 30  1  0
 29 68  1  0
 29 69  1  0
 30 31  1  0
 30 70  1  0
 30 71  1  0
 31 32  1  6
M  CHG  2   3   1  26   1
M  END
>  <i_m_ct_stereo_status>  (257) 
1

>  <s_m_source_file>  (257) 
/var/tmp/pbs.5102103.sched01/tmpndyyrgqo/88kp20v8wr.sdf

>  <i_m_source_file_index>  (257) 
9

>  <i_lp_mmshare_version>  (257) 
48012

>  <i_f3d_flags>  (257) 
0

>  <s_epik_input>  (257) 
W0NIMl0xW0NIMl1bQ0hdMVtDSDJdTihbQ0gyXTIpW0NAQEhdKFtDQEhdKFtDQEBdMzRbQ0BdMjU2KU4oW0NIMl1bQ0gzXSlbQ0gyXVtDSDNdKVtDQEBIXShbQ0BASF02TihbQ0gyXVtDSDNdKVtDSDJdW0NIMl0zKVtDSDJdYzdjNWMoTzQpYyhbY0hdW2NIXTcpT1tDSDNd

>  <s_epik_cmdline>  (257) 
J2VwaWtfcHl0aG9uJywgJy1waHQnLCAnMi4wJywgJy1waCcsICc3LjAnLCAnLXRuJywgJzgnLCAnLW1hJywgJzIwMCcsICctaW1hZScsICc8aW5maWxlLm1hZT4nLCAnLW9tYWUnLCAnPG91dGZpbGUubWFlPic=

>  <r_lp_tautomer_probability>  (257) 
1

>  <r_epik_Ionization_Penalty>  (257) 
1.23021

>  <r_epik_Ionization_Penalty_Charging>  (257) 
1.227

>  <r_epik_Ionization_Penalty_Neutral>  (257) 
0.00320227

>  <r_epik_State_Penalty>  (257) 
1.4107

>  <r_epik_Charging_Adjusted_Penalty>  (257) 
2.6377

>  <i_epik_Tot_Q>  (257) 
2

>  <i_epik_Tot_abs_Q>  (257) 
2

>  <s_lp_Force_Field>  (257) 
OPLS3e

>  <r_lp_Energy>  (257) 
343.326

>  <b_lp_Chiralities_Consistent>  (257) 
1

>  <s_lp_Variant>  (257) 
59:0-4

>  <s_i_glide_gridfile>  (257) 
pfpi4k_grid

>  <i_i_glide_lignum>  (257) 
9

>  <i_i_glide_rotatable_bonds>  (257) 
7

>  <r_i_docking_score>  (257) 
-2.29955

>  <r_i_glide_ligand_efficiency>  (257) 
-0.0718609

>  <r_i_glide_ligand_efficiency_sa>  (257) 
-0.228144

>  <r_i_glide_ligand_efficiency_ln>  (257) 
-0.514932

>  <r_i_glide_gscore>  (257) 
-2.29955

>  <r_i_glide_lipo>  (257) 
-0.303345

>  <r_i_glide_hbond>  (257) 
0

>  <r_i_glide_metal>  (257) 
-0

>  <r_i_glide_rewards>  (257) 
-0.411591

>  <r_i_glide_evdw>  (257) 
-23.5868

>  <r_i_glide_ecoul>  (257) 
-4.68285

>  <r_i_glide_erotb>  (257) 
0.309812

>  <r_i_glide_esite>  (257) 
-0.0126604

>  <r_i_glide_emodel>  (257) 
-31.3956

>  <r_i_glide_energy>  (257) 
-28.2696

>  <r_i_glide_einternal>  (257) 
1.4057

>  <r_i_glide_intrahb_reward>  (257) 
-0

>  <i_i_glide_confnum>  (257) 
1

>  <i_i_glide_posenum>  (257) 
40

>  <r_i_glide_eff_state_penalty>  (257) 
0

>  <ligand_id>  (257) 
59

>  <original_smiles>  (257) 
CCN(CC)C1C2C3Cc4ccc(OC)c5c4C4(CN2CC2CC2)C3N(CC)CCC14O5

>  <smiles>  (257) 
[H]c1c([H])c2c3c(c1OC([H])([H])[H])OC14C([H])([H])C([H])([H])[N+]([H])(C([H])([H])C([H])([H])[H])C5([H])C([H])(C2([H])[H])C([H])(N(C([H])([H])C2([H])C([H])([H])C2([H])[H])C([H])([H])C315)C4([H])[N+]([H])(C([H])([H])C([H])([H])[H])C([H])([H])C([H])([H])[H]

$$$$
59:3:1
     RDKit          3D

 73 79  0  0  1  0  0  0  0  0999 V2000
    5.3672   -8.5346    0.8987 C   0  0  0  0  0  0  0  0  0  0  0  0
    4.1679   -9.4057    1.3263 C   0  0  0  0  0  0  0  0  0  0  0  0
    3.0092   -8.7760    2.0688 N   0  0  0  0  0  0  0  0  0  0  0  0
    2.0634   -9.8112    2.5263 C   0  0  0  0  0  0  0  0  0  0  0  0
    2.6327  -10.9601    3.3848 C   0  0  0  0  0  0  0  0  0  0  0  0
    3.2650   -7.6658    3.0650 C   0  0  2  0  0  0  0  0  0  0  0  0
    1.8321   -6.9655    3.8455 C   0  0  1  0  0  0  0  0  0  0  0  0
    2.0213   -5.4818    4.7040 C   0  0  2  0  0  0  0  0  0  0  0  0
    1.7311   -3.9388    4.1502 C   0  0  0  0  0  0  0  0  0  0  0  0
    2.7430   -3.2737    3.0931 C   0  0  0  0  0  0  0  0  0  0  0  0
    2.7378   -2.1205    2.2581 C   0  0  0  0  0  0  0  0  0  0  0  0
    3.5991   -2.0944    1.0974 C   0  0  0  0  0  0  0  0  0  0  0  0
    4.3984   -3.2290    0.6886 C   0  0  0  0  0  0  0  0  0  0  0  0
    5.0459   -3.2198   -0.5147 O   0  0  0  0  0  0  0  0  0  0  0  0
    4.6450   -4.2340   -1.4440 C   0  0  0  0  0  0  0  0  0  0  0  0
    4.4402   -4.3726    1.5292 C   0  0  0  0  0  0  0  0  0  0  0  0
    3.6921   -4.2072    2.6396 C   0  0  0  0  0  0  0  0  0  0  0  0
    3.4541   -5.5091    3.0022 C   0  0  2  0  0  0  0  0  0  0  0  0
    2.0986   -5.7528    2.0493 C   0  0  0  0  0  0  0  0  0  0  0  0
    1.0353   -6.4196    2.7669 N   0  0  0  0  0  0  0  0  0  0  0  0
    0.1565   -7.3134    1.9790 C   0  0  0  0  0  0  0  0  0  0  0  0
   -0.7576   -8.1702    2.8497 C   0  0  0  0  0  0  0  0  0  0  0  0
   -1.7206   -9.1197    2.1778 C   0  0  0  0  0  0  0  0  0  0  0  0
   -2.2269   -7.9489    2.9768 C   0  0  0  0  0  0  0  0  0  0  0  0
    3.4752   -5.5768    4.5747 C   0  0  1  0  0  0  0  0  0  0  0  0
    4.6236   -4.9507    5.2896 N   0  0  2  0  0  0  0  0  0  0  0  0
    4.5421   -3.6026    5.8732 C   0  0  0  0  0  0  0  0  0  0  0  0
    3.5892   -3.5216    7.0809 C   0  0  0  0  0  0  0  0  0  0  0  0
    5.8482   -5.2138    4.4948 C   0  0  0  0  0  0  0  0  0  0  0  0
    5.7252   -6.4502    3.5522 C   0  0  0  0  0  0  0  0  0  0  0  0
    4.4223   -6.4981    2.6315 C   0  0  1  0  0  0  0  0  0  0  0  0
    4.7657   -5.7144    1.3826 O   0  0  0  0  0  0  0  0  0  0  0  0
    6.0881   -9.1084    0.3471 H   0  0  0  0  0  0  0  0  0  0  0  0
    5.8544   -8.2206    1.8225 H   0  0  0  0  0  0  0  0  0  0  0  0
    4.9859   -7.6933    0.2732 H   0  0  0  0  0  0  0  0  0  0  0  0
    3.7444   -9.8506    0.4134 H   0  0  0  0  0  0  0  0  0  0  0  0
    4.6253  -10.1842    1.9370 H   0  0  0  0  0  0  0  0  0  0  0  0
    1.2853   -9.3932    3.1647 H   0  0  0  0  0  0  0  0  0  0  0  0
    1.5394  -10.1702    1.6344 H   0  0  0  0  0  0  0  0  0  0  0  0
    1.8350  -11.6582    3.6215 H   0  0  0  0  0  0  0  0  0  0  0  0
    2.9762  -10.5433    4.3332 H   0  0  0  0  0  0  0  0  0  0  0  0
    3.4511  -11.5427    2.9181 H   0  0  0  0  0  0  0  0  0  0  0  0
    3.7360   -8.2534    3.8791 H   0  0  0  0  0  0  0  0  0  0  0  0
    1.3059   -7.6739    4.4842 H   0  0  0  0  0  0  0  0  0  0  0  0
    1.6941   -5.6302    5.7382 H   0  0  0  0  0  0  0  0  0  0  0  0
    0.7014   -3.8886    3.7461 H   0  0  0  0  0  0  0  0  0  0  0  0
    1.7108   -3.2329    5.0025 H   0  0  0  0  0  0  0  0  0  0  0  0
    2.0411   -1.3175    2.4251 H   0  0  0  0  0  0  0  0  0  0  0  0
    3.5613   -1.2554    0.4281 H   0  0  0  0  0  0  0  0  0  0  0  0
    5.2842   -4.2044   -2.3310 H   0  0  0  0  0  0  0  0  0  0  0  0
    3.6281   -4.0172   -1.7721 H   0  0  0  0  0  0  0  0  0  0  0  0
    4.6805   -5.2455   -1.0498 H   0  0  0  0  0  0  0  0  0  0  0  0
    1.6586   -4.8474    1.5848 H   0  0  0  0  0  0  0  0  0  0  0  0
    2.3761   -6.3207    1.1657 H   0  0  0  0  0  0  0  0  0  0  0  0
   -0.4487   -6.6922    1.3138 H   0  0  0  0  0  0  0  0  0  0  0  0
    0.7204   -7.9320    1.3061 H   0  0  0  0  0  0  0  0  0  0  0  0
   -0.3130   -8.5429    3.7810 H   0  0  0  0  0  0  0  0  0  0  0  0
   -1.7918   -9.0597    1.0910 H   0  0  0  0  0  0  0  0  0  0  0  0
   -1.7742  -10.1163    2.6056 H   0  0  0  0  0  0  0  0  0  0  0  0
   -2.6015   -8.1338    3.9732 H   0  0  0  0  0  0  0  0  0  0  0  0
   -2.5911   -7.0567    2.4799 H   0  0  0  0  0  0  0  0  0  0  0  0
    3.6685   -6.5294    5.0683 H   0  0  0  0  0  0  0  0  0  0  0  0
    5.5446   -3.3454    6.2445 H   0  0  0  0  0  0  0  0  0  0  0  0
    4.3243   -2.8404    5.1089 H   0  0  0  0  0  0  0  0  0  0  0  0
    2.5632   -3.7876    6.8245 H   0  0  0  0  0  0  0  0  0  0  0  0
    3.5787   -2.5113    7.4739 H   0  0  0  0  0  0  0  0  0  0  0  0
    3.9042   -4.2043    7.8770 H   0  0  0  0  0  0  0  0  0  0  0  0
    6.0913   -4.3288    3.8830 H   0  0  0  0  0  0  0  0  0  0  0  0
    6.7262   -5.3451    5.1548 H   0  0  0  0  0  0  0  0  0  0  0  0
    6.5931   -6.4487    2.8978 H   0  0  0  0  0  0  0  0  0  0  0  0
    5.7797   -7.3580    4.1521 H   0  0  0  0  0  0  0  0  0  0  0  0
    4.7486   -5.5586    6.1249 H   0  0  0  0  0  0  0  0  0  0  0  0
    2.4924   -8.2606    1.3377 H   0  0  0  0  0  0  0  0  0  0  0  0
  1  2  1  0
  1 33  1  0
  1 34  1  0
  1 35  1  0
  2  3  1  0
  2 36  1  0
  2 37  1  0
  3  4  1  0
  3  6  1  0
  3 73  1  0
  4  5  1  0
  4 38  1  0
  4 39  1  0
  5 40  1  0
  5 41  1  0
  5 42  1  0
  6 31  1  0
  6  7  1  0
  6 43  1  1
  7 20  1  0
  7  8  1  0
  7 44  1  1
  8 25  1  0
  8  9  1  0
  8 45  1  1
  9 10  1  0
  9 46  1  0
  9 47  1  0
 10 17  2  0
 10 11  1  0
 11 12  2  0
 11 48  1  0
 12 13  1  0
 12 49  1  0
 13 14  1  0
 13 16  2  0
 14 15  1  0
 15 50  1  0
 15 51  1  0
 15 52  1  0
 16 32  1  0
 16 17  1  0
 17 18  1  0
 18 31  1  0
 18 19  1  6
 18 25  1  0
 19 20  1  0
 19 53  1  0
 19 54  1  0
 20 21  1  0
 21 22  1  0
 21 55  1  0
 21 56  1  0
 22 24  1  0
 22 23  1  0
 22 57  1  0
 23 24  1  0
 23 58  1  0
 23 59  1  0
 24 60  1  0
 24 61  1  0
 25 26  1  0
 25 62  1  6
 26 27  1  0
 26 29  1  0
 26 72  1  1
 27 28  1  0
 27 63  1  0
 27 64  1  0
 28 65  1  0
 28 66  1  0
 28 67  1  0
 29 30  1  0
 29 68  1  0
 29 69  1  0
 30 31  1  0
 30 70  1  0
 30 71  1  0
 31 32  1  6
M  CHG  2   3   1  26   1
M  END
>  <i_m_ct_stereo_status>  (258) 
1

>  <s_m_source_file>  (258) 
/var/tmp/pbs.5102103.sched01/tmpndyyrgqo/88kp20v8wr.sdf

>  <i_m_source_file_index>  (258) 
9

>  <i_lp_mmshare_version>  (258) 
48012

>  <i_f3d_flags>  (258) 
0

>  <s_epik_input>  (258) 
W0NIMl0xW0NIMl1bQ0hdMVtDSDJdTihbQ0gyXTIpW0NAQEhdKFtDQEhdKFtDQEBdMzRbQ0BdMjU2KU4oW0NIMl1bQ0gzXSlbQ0gyXVtDSDNdKVtDQEBIXShbQ0BASF02TihbQ0gyXVtDSDNdKVtDSDJdW0NIMl0zKVtDSDJdYzdjNWMoTzQpYyhbY0hdW2NIXTcpT1tDSDNd

>  <s_epik_cmdline>  (258) 
J2VwaWtfcHl0aG9uJywgJy1waHQnLCAnMi4wJywgJy1waCcsICc3LjAnLCAnLXRuJywgJzgnLCAnLW1hJywgJzIwMCcsICctaW1hZScsICc8aW5maWxlLm1hZT4nLCAnLW9tYWUnLCAnPG91dGZpbGUubWFlPic=

>  <r_lp_tautomer_probability>  (258) 
1

>  <r_epik_Ionization_Penalty>  (258) 
1.23021

>  <r_epik_Ionization_Penalty_Charging>  (258) 
1.227

>  <r_epik_Ionization_Penalty_Neutral>  (258) 
0.00320227

>  <r_epik_State_Penalty>  (258) 
1.4107

>  <r_epik_Charging_Adjusted_Penalty>  (258) 
2.6377

>  <i_epik_Tot_Q>  (258) 
2

>  <i_epik_Tot_abs_Q>  (258) 
2

>  <s_lp_Force_Field>  (258) 
OPLS3e

>  <r_lp_Energy>  (258) 
343.326

>  <b_lp_Chiralities_Consistent>  (258) 
1

>  <s_lp_Variant>  (258) 
59:0-4

>  <s_i_glide_gridfile>  (258) 
pfpi4k_grid

>  <i_i_glide_lignum>  (258) 
9

>  <i_i_glide_rotatable_bonds>  (258) 
7

>  <r_i_docking_score>  (258) 
-2.27779

>  <r_i_glide_ligand_efficiency>  (258) 
-0.071181

>  <r_i_glide_ligand_efficiency_sa>  (258) 
-0.225986

>  <r_i_glide_ligand_efficiency_ln>  (258) 
-0.51006

>  <r_i_glide_gscore>  (258) 
-2.27779

>  <r_i_glide_lipo>  (258) 
-0.345381

>  <r_i_glide_hbond>  (258) 
0

>  <r_i_glide_metal>  (258) 
-0

>  <r_i_glide_rewards>  (258) 
-0.411591

>  <r_i_glide_evdw>  (258) 
-22.8416

>  <r_i_glide_ecoul>  (258) 
-4.45992

>  <r_i_glide_erotb>  (258) 
0.309812

>  <r_i_glide_esite>  (258) 
-0.0195642

>  <r_i_glide_emodel>  (258) 
-24.9961

>  <r_i_glide_energy>  (258) 
-27.3015

>  <r_i_glide_einternal>  (258) 
9.82717

>  <r_i_glide_intrahb_reward>  (258) 
-0

>  <i_i_glide_confnum>  (258) 
1

>  <i_i_glide_posenum>  (258) 
30

>  <r_i_glide_eff_state_penalty>  (258) 
0

>  <ligand_id>  (258) 
59

>  <original_smiles>  (258) 
CCN(CC)C1C2C3Cc4ccc(OC)c5c4C4(CN2CC2CC2)C3N(CC)CCC14O5

>  <smiles>  (258) 
[H]c1c([H])c2c3c(c1OC([H])([H])[H])OC14C([H])([H])C([H])([H])[N+]([H])(C([H])([H])C([H])([H])[H])C5([H])C([H])(C2([H])[H])C([H])(N(C([H])([H])C2([H])C([H])([H])C2([H])[H])C([H])([H])C315)C4([H])[N+]([H])(C([H])([H])C([H])([H])[H])C([H])([H])C([H])([H])[H]

$$$$
59:3:2
     RDKit          3D

 73 79  0  0  1  0  0  0  0  0999 V2000
    4.6757  -12.3650    3.4872 C   0  0  0  0  0  0  0  0  0  0  0  0
    3.5008  -11.5256    2.9482 C   0  0  0  0  0  0  0  0  0  0  0  0
    2.7654  -10.7450    3.9735 N   0  0  0  0  0  0  0  0  0  0  0  0
    1.9070  -11.6000    4.8478 C   0  0  0  0  0  0  0  0  0  0  0  0
    0.5461  -12.0247    4.2262 C   0  0  0  0  0  0  0  0  0  0  0  0
    3.5690   -9.6966    4.6936 C   0  0  2  0  0  0  0  0  0  0  0  0
    2.6575   -8.6490    5.7714 C   0  0  1  0  0  0  0  0  0  0  0  0
    3.4398   -7.2508    6.3578 C   0  0  2  0  0  0  0  0  0  0  0  0
    3.2721   -5.7066    5.7447 C   0  0  0  0  0  0  0  0  0  0  0  0
    3.9833   -5.3343    4.3513 C   0  0  0  0  0  0  0  0  0  0  0  0
    3.9125   -4.2510    3.4478 C   0  0  0  0  0  0  0  0  0  0  0  0
    4.3209   -4.4676    2.0759 C   0  0  0  0  0  0  0  0  0  0  0  0
    4.7123   -5.7566    1.5593 C   0  0  0  0  0  0  0  0  0  0  0  0
    4.9540   -6.0401    0.2342 O   0  0  0  0  0  0  0  0  0  0  0  0
    4.7859   -4.9927   -0.7044 C   0  0  0  0  0  0  0  0  0  0  0  0
    4.7920   -6.8565    2.4624 C   0  0  0  0  0  0  0  0  0  0  0  0
    4.4997   -6.4678    3.7156 C   0  0  0  0  0  0  0  0  0  0  0  0
    4.1701   -7.6639    4.2996 C   0  0  2  0  0  0  0  0  0  0  0  0
    2.5642   -7.6320    3.8448 C   0  0  0  0  0  0  0  0  0  0  0  0
    1.7015   -7.9327    4.9729 N   0  0  0  0  0  0  0  0  0  0  0  0
    0.4662   -8.6178    4.6099 C   0  0  0  0  0  0  0  0  0  0  0  0
   -0.5159   -7.7456    3.8663 C   0  0  0  0  0  0  0  0  0  0  0  0
   -1.7670   -8.3634    3.2733 C   0  0  0  0  0  0  0  0  0  0  0  0
   -0.6639   -7.8905    2.3660 C   0  0  0  0  0  0  0  0  0  0  0  0
    4.6976   -7.6684    5.7777 C   0  0  1  0  0  0  0  0  0  0  0  0
    6.1086   -7.2688    6.0130 N   0  0  2  0  0  0  0  0  0  0  0  0
    6.4820   -5.8980    6.4357 C   0  0  0  0  0  0  0  0  0  0  0  0
    6.0368   -5.5591    7.8712 C   0  0  0  0  0  0  0  0  0  0  0  0
    6.9291   -7.8255    4.8956 C   0  0  0  0  0  0  0  0  0  0  0  0
    6.2482   -9.0583    4.1853 C   0  0  0  0  0  0  0  0  0  0  0  0
    4.7340   -8.8827    3.7356 C   0  0  1  0  0  0  0  0  0  0  0  0
    4.7603   -8.2611    2.3641 O   0  0  0  0  0  0  0  0  0  0  0  0
    5.1875  -12.8709    2.6657 H   0  0  0  0  0  0  0  0  0  0  0  0
    4.3427  -13.1373    4.1847 H   0  0  0  0  0  0  0  0  0  0  0  0
    5.4187  -11.7509    3.9926 H   0  0  0  0  0  0  0  0  0  0  0  0
    3.8548  -10.8624    2.1591 H   0  0  0  0  0  0  0  0  0  0  0  0
    2.8029  -12.2131    2.4777 H   0  0  0  0  0  0  0  0  0  0  0  0
    2.4461  -12.4834    5.1765 H   0  0  0  0  0  0  0  0  0  0  0  0
    1.6685  -11.0763    5.7631 H   0  0  0  0  0  0  0  0  0  0  0  0
   -0.0385  -12.5330    4.9986 H   0  0  0  0  0  0  0  0  0  0  0  0
    0.6580  -12.6751    3.3708 H   0  0  0  0  0  0  0  0  0  0  0  0
   -0.1143  -11.2391    3.8462 H   0  0  0  0  0  0  0  0  0  0  0  0
    4.1570  -10.3295    5.3591 H   0  0  0  0  0  0  0  0  0  0  0  0
    2.1741   -9.1824    6.5921 H   0  0  0  0  0  0  0  0  0  0  0  0
    3.4381   -7.2644    7.4483 H   0  0  0  0  0  0  0  0  0  0  0  0
    2.2094   -5.4532    5.6885 H   0  0  0  0  0  0  0  0  0  0  0  0
    3.6539   -4.9852    6.4585 H   0  0  0  0  0  0  0  0  0  0  0  0
    3.4743   -3.3082    3.7519 H   0  0  0  0  0  0  0  0  0  0  0  0
    4.2137   -3.6272    1.4117 H   0  0  0  0  0  0  0  0  0  0  0  0
    4.9975   -5.3817   -1.6963 H   0  0  0  0  0  0  0  0  0  0  0  0
    5.4765   -4.1700   -0.5208 H   0  0  0  0  0  0  0  0  0  0  0  0
    3.7629   -4.6189   -0.7212 H   0  0  0  0  0  0  0  0  0  0  0  0
    2.1885   -6.6852    3.4561 H   0  0  0  0  0  0  0  0  0  0  0  0
    2.3876   -8.3049    3.0007 H   0  0  0  0  0  0  0  0  0  0  0  0
    0.7238   -9.4095    3.9216 H   0  0  0  0  0  0  0  0  0  0  0  0
   -0.0237   -9.0449    5.4955 H   0  0  0  0  0  0  0  0  0  0  0  0
   -0.6498   -6.7601    4.2941 H   0  0  0  0  0  0  0  0  0  0  0  0
   -1.9218   -9.4431    3.3420 H   0  0  0  0  0  0  0  0  0  0  0  0
   -2.6782   -7.7738    3.2922 H   0  0  0  0  0  0  0  0  0  0  0  0
   -0.8317   -6.9859    1.7922 H   0  0  0  0  0  0  0  0  0  0  0  0
   -0.0755   -8.6550    1.8532 H   0  0  0  0  0  0  0  0  0  0  0  0
    4.8584   -8.6196    6.2903 H   0  0  0  0  0  0  0  0  0  0  0  0
    7.5712   -5.8349    6.4404 H   0  0  0  0  0  0  0  0  0  0  0  0
    6.1715   -5.1367    5.7215 H   0  0  0  0  0  0  0  0  0  0  0  0
    4.9585   -5.5991    8.0100 H   0  0  0  0  0  0  0  0  0  0  0  0
    6.3461   -4.5467    8.1358 H   0  0  0  0  0  0  0  0  0  0  0  0
    6.4691   -6.2406    8.6089 H   0  0  0  0  0  0  0  0  0  0  0  0
    7.1195   -7.0472    4.1551 H   0  0  0  0  0  0  0  0  0  0  0  0
    7.9173   -8.1051    5.2661 H   0  0  0  0  0  0  0  0  0  0  0  0
    6.8423   -9.3139    3.3080 H   0  0  0  0  0  0  0  0  0  0  0  0
    6.3463   -9.9111    4.8576 H   0  0  0  0  0  0  0  0  0  0  0  0
    6.3863   -7.8229    6.8176 H   0  0  0  0  0  0  0  0  0  0  0  0
    2.1038  -10.1955    3.4347 H   0  0  0  0  0  0  0  0  0  0  0  0
  1  2  1  0
  1 33  1  0
  1 34  1  0
  1 35  1  0
  2  3  1  0
  2 36  1  0
  2 37  1  0
  3  4  1  0
  3  6  1  0
  3 73  1  0
  4  5  1  0
  4 38  1  0
  4 39  1  0
  5 40  1  0
  5 41  1  0
  5 42  1  0
  6 31  1  0
  6  7  1  0
  6 43  1  1
  7 20  1  0
  7  8  1  0
  7 44  1  1
  8 25  1  0
  8  9  1  0
  8 45  1  1
  9 10  1  0
  9 46  1  0
  9 47  1  0
 10 17  2  0
 10 11  1  0
 11 12  2  0
 11 48  1  0
 12 13  1  0
 12 49  1  0
 13 14  1  0
 13 16  2  0
 14 15  1  0
 15 50  1  0
 15 51  1  0
 15 52  1  0
 16 32  1  0
 16 17  1  0
 17 18  1  0
 18 31  1  0
 18 19  1  1
 18 25  1  0
 19 20  1  0
 19 53  1  0
 19 54  1  0
 20 21  1  0
 21 22  1  0
 21 55  1  0
 21 56  1  0
 22 24  1  0
 22 23  1  0
 22 57  1  0
 23 24  1  0
 23 58  1  0
 23 59  1  0
 24 60  1  0
 24 61  1  0
 25 26  1  0
 25 62  1  1
 26 27  1  0
 26 29  1  0
 26 72  1  1
 27 28  1  0
 27 63  1  0
 27 64  1  0
 28 65  1  0
 28 66  1  0
 28 67  1  0
 29 30  1  0
 29 68  1  0
 29 69  1  0
 30 31  1  0
 30 70  1  0
 30 71  1  0
 31 32  1  6
M  CHG  2   3   1  26   1
M  END
>  <i_m_ct_stereo_status>  (259) 
1

>  <s_m_source_file>  (259) 
/var/tmp/pbs.5102103.sched01/tmpndyyrgqo/88kp20v8wr.sdf

>  <i_m_source_file_index>  (259) 
9

>  <i_lp_mmshare_version>  (259) 
48012

>  <i_f3d_flags>  (259) 
0

>  <s_epik_input>  (259) 
W0NIMl0xW0NIMl1bQ0hdMVtDSDJdTihbQ0gyXTIpW0NAQEhdKFtDQEhdKFtDQEBdMzRbQ0BdMjU2KU4oW0NIMl1bQ0gzXSlbQ0gyXVtDSDNdKVtDQEBIXShbQ0BASF02TihbQ0gyXVtDSDNdKVtDSDJdW0NIMl0zKVtDSDJdYzdjNWMoTzQpYyhbY0hdW2NIXTcpT1tDSDNd

>  <s_epik_cmdline>  (259) 
J2VwaWtfcHl0aG9uJywgJy1waHQnLCAnMi4wJywgJy1waCcsICc3LjAnLCAnLXRuJywgJzgnLCAnLW1hJywgJzIwMCcsICctaW1hZScsICc8aW5maWxlLm1hZT4nLCAnLW9tYWUnLCAnPG91dGZpbGUubWFlPic=

>  <r_lp_tautomer_probability>  (259) 
1

>  <r_epik_Ionization_Penalty>  (259) 
1.23021

>  <r_epik_Ionization_Penalty_Charging>  (259) 
1.227

>  <r_epik_Ionization_Penalty_Neutral>  (259) 
0.00320227

>  <r_epik_State_Penalty>  (259) 
1.4107

>  <r_epik_Charging_Adjusted_Penalty>  (259) 
2.6377

>  <i_epik_Tot_Q>  (259) 
2

>  <i_epik_Tot_abs_Q>  (259) 
2

>  <s_lp_Force_Field>  (259) 
OPLS3e

>  <r_lp_Energy>  (259) 
343.326

>  <b_lp_Chiralities_Consistent>  (259) 
1

>  <s_lp_Variant>  (259) 
59:0-4

>  <s_i_glide_gridfile>  (259) 
pfpi4k_grid

>  <i_i_glide_lignum>  (259) 
9

>  <i_i_glide_rotatable_bonds>  (259) 
7

>  <r_i_docking_score>  (259) 
-2.04599

>  <r_i_glide_ligand_efficiency>  (259) 
-0.0639372

>  <r_i_glide_ligand_efficiency_sa>  (259) 
-0.202988

>  <r_i_glide_ligand_efficiency_ln>  (259) 
-0.458153

>  <r_i_glide_gscore>  (259) 
-2.04599

>  <r_i_glide_lipo>  (259) 
-0.054768

>  <r_i_glide_hbond>  (259) 
0

>  <r_i_glide_metal>  (259) 
-0

>  <r_i_glide_rewards>  (259) 
-0.411591

>  <r_i_glide_evdw>  (259) 
-19.9754

>  <r_i_glide_ecoul>  (259) 
-5.84892

>  <r_i_glide_erotb>  (259) 
0.309812

>  <r_i_glide_esite>  (259) 
-0.013333

>  <r_i_glide_emodel>  (259) 
-28.37

>  <r_i_glide_energy>  (259) 
-25.8244

>  <r_i_glide_einternal>  (259) 
1.61363

>  <r_i_glide_intrahb_reward>  (259) 
-0

>  <i_i_glide_confnum>  (259) 
1

>  <i_i_glide_posenum>  (259) 
18

>  <r_i_glide_eff_state_penalty>  (259) 
0

>  <ligand_id>  (259) 
59

>  <original_smiles>  (259) 
CCN(CC)C1C2C3Cc4ccc(OC)c5c4C4(CN2CC2CC2)C3N(CC)CCC14O5

>  <smiles>  (259) 
[H]c1c([H])c2c3c(c1OC([H])([H])[H])OC14C([H])([H])C([H])([H])[N+]([H])(C([H])([H])C([H])([H])[H])C5([H])C([H])(C2([H])[H])C([H])(N(C([H])([H])C2([H])C([H])([H])C2([H])[H])C([H])([H])C315)C4([H])[N+]([H])(C([H])([H])C([H])([H])[H])C([H])([H])C([H])([H])[H]

$$$$
59:5:0
     RDKit          3D

 71 77  0  0  1  0  0  0  0  0999 V2000
    5.3622    5.3105    6.7835 C   0  0  0  0  0  0  0  0  0  0  0  0
    5.0435    4.5626    5.4856 C   0  0  0  0  0  0  0  0  0  0  0  0
    3.6840    4.7079    4.9246 N   0  0  0  0  0  0  0  0  0  0  0  0
    3.3776    6.0830    4.5007 C   0  0  0  0  0  0  0  0  0  0  0  0
    4.2477    6.6268    3.3547 C   0  0  0  0  0  0  0  0  0  0  0  0
    2.6629    4.0531    5.7734 C   0  0  2  0  0  0  0  0  0  0  0  0
    2.7206    2.3027    5.8741 C   0  0  1  0  0  0  0  0  0  0  0  0
    1.4449    1.5531    6.6906 C   0  0  2  0  0  0  0  0  0  0  0  0
    0.1021    0.8181    6.0313 C   0  0  0  0  0  0  0  0  0  0  0  0
   -1.0444    1.7453    5.3575 C   0  0  0  0  0  0  0  0  0  0  0  0
   -2.1496    1.5367    4.5287 C   0  0  0  0  0  0  0  0  0  0  0  0
   -2.6991    2.6300    3.7625 C   0  0  0  0  0  0  0  0  0  0  0  0
   -2.0997    3.9194    3.6897 C   0  0  0  0  0  0  0  0  0  0  0  0
   -2.5145    4.9353    2.8894 O   0  0  0  0  0  0  0  0  0  0  0  0
   -3.6948    4.7039    2.1098 C   0  0  0  0  0  0  0  0  0  0  0  0
   -0.9402    4.1481    4.5263 C   0  0  0  0  0  0  0  0  0  0  0  0
   -0.6553    3.0914    5.2819 C   0  0  0  0  0  0  0  0  0  0  0  0
    0.6582    3.3085    5.6117 C   0  0  2  0  0  0  0  0  0  0  0  0
    1.3158    2.6294    4.2296 C   0  0  0  0  0  0  0  0  0  0  0  0
    2.4488    1.7938    4.5706 N   0  0  0  0  0  0  0  0  0  0  0  0
    3.5273    1.7936    3.5994 C   0  0  0  0  0  0  0  0  0  0  0  0
    4.6417    0.7939    3.9191 C   0  0  0  0  0  0  0  0  0  0  0  0
    5.6184    0.2474    2.8670 C   0  0  0  0  0  0  0  0  0  0  0  0
    4.5363   -0.6266    3.4068 C   0  0  0  0  0  0  0  0  0  0  0  0
    0.8816    2.8181    7.0943 C   0  0  1  0  0  0  0  0  0  0  0  0
   -0.2279    3.1547    7.9746 N   0  0  0  0  0  0  0  0  0  0  0  0
   -0.1350    2.5439    9.3011 C   0  0  0  0  0  0  0  0  0  0  0  0
   -1.4262    2.7626   10.1070 C   0  0  0  0  0  0  0  0  0  0  0  0
   -0.2153    4.6384    8.0436 C   0  0  0  0  0  0  0  0  0  0  0  0
    0.6137    5.4265    6.9499 C   0  0  0  0  0  0  0  0  0  0  0  0
    1.0845    4.6813    5.6490 C   0  0  1  0  0  0  0  0  0  0  0  0
    0.1295    5.0626    4.5455 O   0  0  0  0  0  0  0  0  0  0  0  0
    6.3864    5.0773    7.0807 H   0  0  0  0  0  0  0  0  0  0  0  0
    4.7023    5.0488    7.6093 H   0  0  0  0  0  0  0  0  0  0  0  0
    5.3244    6.3880    6.6171 H   0  0  0  0  0  0  0  0  0  0  0  0
    5.7754    4.9817    4.8133 H   0  0  0  0  0  0  0  0  0  0  0  0
    5.2855    3.5015    5.5767 H   0  0  0  0  0  0  0  0  0  0  0  0
    2.3584    6.1336    4.1165 H   0  0  0  0  0  0  0  0  0  0  0  0
    3.4176    6.7557    5.3560 H   0  0  0  0  0  0  0  0  0  0  0  0
    3.8371    7.5645    2.9812 H   0  0  0  0  0  0  0  0  0  0  0  0
    4.2719    5.9350    2.5096 H   0  0  0  0  0  0  0  0  0  0  0  0
    5.2746    6.8290    3.6612 H   0  0  0  0  0  0  0  0  0  0  0  0
    2.9510    4.3765    6.7650 H   0  0  0  0  0  0  0  0  0  0  0  0
    3.6936    1.9372    6.2509 H   0  0  0  0  0  0  0  0  0  0  0  0
    1.8197    0.9677    7.5112 H   0  0  0  0  0  0  0  0  0  0  0  0
    0.3955    0.0630    5.2956 H   0  0  0  0  0  0  0  0  0  0  0  0
   -0.4178    0.2774    6.8272 H   0  0  0  0  0  0  0  0  0  0  0  0
   -2.5661    0.5399    4.4394 H   0  0  0  0  0  0  0  0  0  0  0  0
   -3.5499    2.4138    3.1557 H   0  0  0  0  0  0  0  0  0  0  0  0
   -3.8104    5.5595    1.4354 H   0  0  0  0  0  0  0  0  0  0  0  0
   -4.5850    4.6428    2.7207 H   0  0  0  0  0  0  0  0  0  0  0  0
   -3.6386    3.7638    1.5484 H   0  0  0  0  0  0  0  0  0  0  0  0
    0.6422    2.0266    3.6044 H   0  0  0  0  0  0  0  0  0  0  0  0
    1.6347    3.4070    3.5337 H   0  0  0  0  0  0  0  0  0  0  0  0
    3.1349    1.5907    2.6011 H   0  0  0  0  0  0  0  0  0  0  0  0
    3.9437    2.7892    3.5641 H   0  0  0  0  0  0  0  0  0  0  0  0
    5.0741    0.9253    4.9140 H   0  0  0  0  0  0  0  0  0  0  0  0
    5.5192    0.5509    1.8134 H   0  0  0  0  0  0  0  0  0  0  0  0
    6.6397    0.1100    3.2580 H   0  0  0  0  0  0  0  0  0  0  0  0
    4.9000   -1.4540    4.0110 H   0  0  0  0  0  0  0  0  0  0  0  0
    3.7525   -0.8495    2.6889 H   0  0  0  0  0  0  0  0  0  0  0  0
    1.6895    3.2308    7.7001 H   0  0  0  0  0  0  0  0  0  0  0  0
    0.0246    1.4719    9.1800 H   0  0  0  0  0  0  0  0  0  0  0  0
    0.7274    2.9387    9.8371 H   0  0  0  0  0  0  0  0  0  0  0  0
   -1.3715    2.2317   11.0613 H   0  0  0  0  0  0  0  0  0  0  0  0
   -2.2990    2.3865    9.5708 H   0  0  0  0  0  0  0  0  0  0  0  0
   -1.5957    3.8170   10.3364 H   0  0  0  0  0  0  0  0  0  0  0  0
   -1.2525    4.9711    8.0185 H   0  0  0  0  0  0  0  0  0  0  0  0
    0.1695    4.9507    9.0172 H   0  0  0  0  0  0  0  0  0  0  0  0
    0.0534    6.3172    6.6575 H   0  0  0  0  0  0  0  0  0  0  0  0
    1.5066    5.8198    7.4406 H   0  0  0  0  0  0  0  0  0  0  0  0
  1  2  1  0
  1 33  1  0
  1 34  1  0
  1 35  1  0
  2  3  1  0
  2 36  1  0
  2 37  1  0
  3  4  1  0
  3  6  1  0
  4  5  1  0
  4 38  1  0
  4 39  1  0
  5 40  1  0
  5 41  1  0
  5 42  1  0
  6 31  1  0
  6  7  1  0
  6 43  1  1
  7 20  1  0
  7  8  1  0
  7 44  1  1
  8 25  1  0
  8  9  1  0
  8 45  1  1
  9 10  1  0
  9 46  1  0
  9 47  1  0
 10 17  2  0
 10 11  1  0
 11 12  2  0
 11 48  1  0
 12 13  1  0
 12 49  1  0
 13 14  1  0
 13 16  2  0
 14 15  1  0
 15 50  1  0
 15 51  1  0
 15 52  1  0
 16 32  1  0
 16 17  1  0
 17 18  1  0
 18 31  1  0
 18 19  1  6
 18 25  1  0
 19 20  1  0
 19 53  1  0
 19 54  1  0
 20 21  1  0
 21 22  1  0
 21 55  1  0
 21 56  1  0
 22 24  1  0
 22 23  1  0
 22 57  1  0
 23 24  1  0
 23 58  1  0
 23 59  1  0
 24 60  1  0
 24 61  1  0
 25 26  1  0
 25 62  1  1
 26 27  1  0
 26 29  1  0
 27 28  1  0
 27 63  1  0
 27 64  1  0
 28 65  1  0
 28 66  1  0
 28 67  1  0
 29 30  1  0
 29 68  1  0
 29 69  1  0
 30 31  1  0
 30 70  1  0
 30 71  1  0
 31 32  1  6
M  END
>  <i_m_ct_stereo_status>  (260) 
1

>  <s_m_source_file>  (260) 
/var/tmp/pbs.5102103.sched01/tmpndyyrgqo/88kp20v8wr.sdf

>  <i_m_source_file_index>  (260) 
11

>  <i_lp_mmshare_version>  (260) 
48012

>  <i_f3d_flags>  (260) 
0

>  <s_epik_input>  (260) 
W0NIMl0xW0NIMl1bQ0hdMVtDSDJdTihbQ0gyXTIpW0NAQEhdKFtDQEhdKFtDQEBdMzRbQ0BdMjU2KU4oW0NIMl1bQ0gzXSlbQ0gyXVtDSDNdKVtDQEBIXShbQ0BASF02TihbQ0gyXVtDSDNdKVtDSDJdW0NIMl0zKVtDSDJdYzdjNWMoTzQpYyhbY0hdW2NIXTcpT1tDSDNd

>  <s_epik_cmdline>  (260) 
J2VwaWtfcHl0aG9uJywgJy1waHQnLCAnMi4wJywgJy1waCcsICc3LjAnLCAnLXRuJywgJzgnLCAnLW1hJywgJzIwMCcsICctaW1hZScsICc8aW5maWxlLm1hZT4nLCAnLW9tYWUnLCAnPG91dGZpbGUubWFlPic=

>  <r_lp_tautomer_probability>  (260) 
1

>  <r_epik_Ionization_Penalty>  (260) 
5.22922

>  <r_epik_Ionization_Penalty_Charging>  (260) 
0

>  <r_epik_Ionization_Penalty_Neutral>  (260) 
5.22922

>  <r_epik_State_Penalty>  (260) 
2.66564

>  <r_epik_Charging_Adjusted_Penalty>  (260) 
2.66564

>  <i_epik_Tot_Q>  (260) 
0

>  <i_epik_Tot_abs_Q>  (260) 
0

>  <s_lp_Force_Field>  (260) 
OPLS3e

>  <r_lp_Energy>  (260) 
315.207

>  <b_lp_Chiralities_Consistent>  (260) 
1

>  <s_lp_Variant>  (260) 
59:0-6

>  <s_i_glide_gridfile>  (260) 
pfpi4k_grid

>  <i_i_glide_lignum>  (260) 
11

>  <i_i_glide_rotatable_bonds>  (260) 
7

>  <r_i_docking_score>  (260) 
-1.39024

>  <r_i_glide_ligand_efficiency>  (260) 
-0.043445

>  <r_i_glide_ligand_efficiency_sa>  (260) 
-0.137929

>  <r_i_glide_ligand_efficiency_ln>  (260) 
-0.311312

>  <r_i_glide_gscore>  (260) 
-1.39024

>  <r_i_glide_lipo>  (260) 
-0.287177

>  <r_i_glide_hbond>  (260) 
-0.16

>  <r_i_glide_metal>  (260) 
-0

>  <r_i_glide_rewards>  (260) 
-0.425335

>  <r_i_glide_evdw>  (260) 
-8.55999

>  <r_i_glide_ecoul>  (260) 
-2.68089

>  <r_i_glide_erotb>  (260) 
0.312406

>  <r_i_glide_esite>  (260) 
0

>  <r_i_glide_emodel>  (260) 
-8.38517

>  <r_i_glide_energy>  (260) 
-11.2409

>  <r_i_glide_einternal>  (260) 
3.89248

>  <r_i_glide_intrahb_reward>  (260) 
-0

>  <i_i_glide_confnum>  (260) 
1

>  <i_i_glide_posenum>  (260) 
6

>  <r_i_glide_eff_state_penalty>  (260) 
0

>  <ligand_id>  (260) 
59

>  <original_smiles>  (260) 
CCN(CC)C1C2C3Cc4ccc(OC)c5c4C4(CN2CC2CC2)C3N(CC)CCC14O5

>  <smiles>  (260) 
[H]c1c([H])c2c3c(c1OC([H])([H])[H])OC14C([H])([H])C([H])([H])N(C([H])([H])C([H])([H])[H])C5([H])C([H])(C2([H])[H])C([H])(N(C([H])([H])C2([H])C([H])([H])C2([H])[H])C([H])([H])C351)C4([H])N(C([H])([H])C([H])([H])[H])C([H])([H])C([H])([H])[H]

$$$$
59:5:1
     RDKit          3D

 71 77  0  0  1  0  0  0  0  0999 V2000
    4.7893   -1.2882    0.6540 C   0  0  0  0  0  0  0  0  0  0  0  0
    3.6671   -0.2719    0.8487 C   0  0  0  0  0  0  0  0  0  0  0  0
    2.4933   -0.5594    1.7274 N   0  0  0  0  0  0  0  0  0  0  0  0
    1.4552    0.5024    1.5623 C   0  0  0  0  0  0  0  0  0  0  0  0
    1.8706    1.9356    1.9920 C   0  0  0  0  0  0  0  0  0  0  0  0
    2.8117   -0.8397    3.1391 C   0  0  2  0  0  0  0  0  0  0  0  0
    3.5935   -2.3843    3.4718 C   0  0  1  0  0  0  0  0  0  0  0  0
    3.7274   -2.7785    5.1152 C   0  0  2  0  0  0  0  0  0  0  0  0
    2.8101   -3.8433    5.9798 C   0  0  0  0  0  0  0  0  0  0  0  0
    1.3183   -3.4132    6.3989 C   0  0  0  0  0  0  0  0  0  0  0  0
    0.1779   -4.0646    6.9303 C   0  0  0  0  0  0  0  0  0  0  0  0
   -1.0991   -3.4433    6.7461 C   0  0  0  0  0  0  0  0  0  0  0  0
   -1.2960   -2.2305    5.9682 C   0  0  0  0  0  0  0  0  0  0  0  0
   -2.5938   -1.7931    5.7038 O   0  0  0  0  0  0  0  0  0  0  0  0
   -2.5887   -0.7243    4.7767 C   0  0  0  0  0  0  0  0  0  0  0  0
   -0.1536   -1.5745    5.4268 C   0  0  0  0  0  0  0  0  0  0  0  0
    0.9555   -2.2099    5.7946 C   0  0  0  0  0  0  0  0  0  0  0  0
    1.8103   -1.7423    4.8494 C   0  0  2  0  0  0  0  0  0  0  0  0
    1.4634   -2.8721    3.6523 C   0  0  0  0  0  0  0  0  0  0  0  0
    2.6709   -3.3986    3.0741 N   0  0  0  0  0  0  0  0  0  0  0  0
    2.5955   -3.7409    1.6556 C   0  0  0  0  0  0  0  0  0  0  0  0
    3.8348   -4.4351    1.1231 C   0  0  0  0  0  0  0  0  0  0  0  0
    3.8289   -4.9492   -0.2855 C   0  0  0  0  0  0  0  0  0  0  0  0
    3.8819   -5.9161    0.8695 C   0  0  0  0  0  0  0  0  0  0  0  0
    3.1976   -1.5123    5.5355 C   0  0  1  0  0  0  0  0  0  0  0  0
    3.0943   -0.8953    6.8585 N   0  0  0  0  0  0  0  0  0  0  0  0
    4.3474   -0.8284    7.6023 C   0  0  0  0  0  0  0  0  0  0  0  0
    5.5402   -0.2013    6.8440 C   0  0  0  0  0  0  0  0  0  0  0  0
    2.5092    0.4443    6.6534 C   0  0  0  0  0  0  0  0  0  0  0  0
    1.8866    0.7320    5.2513 C   0  0  0  0  0  0  0  0  0  0  0  0
    1.5871   -0.4543    4.2558 C   0  0  1  0  0  0  0  0  0  0  0  0
    0.1156   -0.6877    4.3800 O   0  0  0  0  0  0  0  0  0  0  0  0
    5.4819   -0.9873   -0.1503 H   0  0  0  0  0  0  0  0  0  0  0  0
    4.2703   -2.1503    0.2545 H   0  0  0  0  0  0  0  0  0  0  0  0
    5.3448   -1.4382    1.5963 H   0  0  0  0  0  0  0  0  0  0  0  0
    4.1472    0.6761    1.1116 H   0  0  0  0  0  0  0  0  0  0  0  0
    3.2585   -0.2799   -0.1587 H   0  0  0  0  0  0  0  0  0  0  0  0
    1.2126    0.5584    0.5028 H   0  0  0  0  0  0  0  0  0  0  0  0
    0.4743    0.2447    2.0095 H   0  0  0  0  0  0  0  0  0  0  0  0
    1.1999    2.6566    1.5376 H   0  0  0  0  0  0  0  0  0  0  0  0
    2.8786    2.2418    1.7273 H   0  0  0  0  0  0  0  0  0  0  0  0
    1.8394    2.1007    3.0545 H   0  0  0  0  0  0  0  0  0  0  0  0
    3.5481   -0.0655    3.3422 H   0  0  0  0  0  0  0  0  0  0  0  0
    4.5787   -2.5335    3.0355 H   0  0  0  0  0  0  0  0  0  0  0  0
    4.7784   -2.8796    5.3385 H   0  0  0  0  0  0  0  0  0  0  0  0
    2.7762   -4.7995    5.4546 H   0  0  0  0  0  0  0  0  0  0  0  0
    3.3361   -4.0125    6.9237 H   0  0  0  0  0  0  0  0  0  0  0  0
    0.2558   -5.0638    7.3794 H   0  0  0  0  0  0  0  0  0  0  0  0
   -1.9791   -3.9382    7.0755 H   0  0  0  0  0  0  0  0  0  0  0  0
   -3.6259   -0.6356    4.4941 H   0  0  0  0  0  0  0  0  0  0  0  0
   -2.1392   -0.9903    3.8205 H   0  0  0  0  0  0  0  0  0  0  0  0
   -2.1776    0.2195    5.1582 H   0  0  0  0  0  0  0  0  0  0  0  0
    0.8642   -3.7265    4.0055 H   0  0  0  0  0  0  0  0  0  0  0  0
    0.8191   -2.4396    2.8772 H   0  0  0  0  0  0  0  0  0  0  0  0
    1.7530   -4.4193    1.5127 H   0  0  0  0  0  0  0  0  0  0  0  0
    2.3376   -2.8914    1.0366 H   0  0  0  0  0  0  0  0  0  0  0  0
    4.7863   -4.0187    1.4717 H   0  0  0  0  0  0  0  0  0  0  0  0
    2.8774   -4.8008   -0.8012 H   0  0  0  0  0  0  0  0  0  0  0  0
    4.7343   -4.8112   -0.8766 H   0  0  0  0  0  0  0  0  0  0  0  0
    4.8303   -6.3894    1.1100 H   0  0  0  0  0  0  0  0  0  0  0  0
    2.9924   -6.4923    1.1493 H   0  0  0  0  0  0  0  0  0  0  0  0
    3.8715   -0.7926    5.0951 H   0  0  0  0  0  0  0  0  0  0  0  0
    4.1479   -0.2832    8.5249 H   0  0  0  0  0  0  0  0  0  0  0  0
    4.5998   -1.8428    7.9007 H   0  0  0  0  0  0  0  0  0  0  0  0
    6.4138   -0.1390    7.4896 H   0  0  0  0  0  0  0  0  0  0  0  0
    5.3353    0.8070    6.4863 H   0  0  0  0  0  0  0  0  0  0  0  0
    5.8394   -0.7989    5.9840 H   0  0  0  0  0  0  0  0  0  0  0  0
    1.7529    0.6060    7.4203 H   0  0  0  0  0  0  0  0  0  0  0  0
    3.2453    1.2364    6.8288 H   0  0  0  0  0  0  0  0  0  0  0  0
    0.9949    1.3552    5.3582 H   0  0  0  0  0  0  0  0  0  0  0  0
    2.6392    1.3641    4.8003 H   0  0  0  0  0  0  0  0  0  0  0  0
  1  2  1  0
  1 33  1  0
  1 34  1  0
  1 35  1  0
  2  3  1  0
  2 36  1  0
  2 37  1  0
  3  4  1  0
  3  6  1  0
  4  5  1  0
  4 38  1  0
  4 39  1  0
  5 40  1  0
  5 41  1  0
  5 42  1  0
  6 31  1  0
  6  7  1  0
  6 43  1  1
  7 20  1  0
  7  8  1  0
  7 44  1  6
  8 25  1  0
  8  9  1  0
  8 45  1  1
  9 10  1  0
  9 46  1  0
  9 47  1  0
 10 17  2  0
 10 11  1  0
 11 12  2  0
 11 48  1  0
 12 13  1  0
 12 49  1  0
 13 14  1  0
 13 16  2  0
 14 15  1  0
 15 50  1  0
 15 51  1  0
 15 52  1  0
 16 32  1  0
 16 17  1  0
 17 18  1  0
 18 31  1  0
 18 19  1  6
 18 25  1  0
 19 20  1  0
 19 53  1  0
 19 54  1  0
 20 21  1  0
 21 22  1  0
 21 55  1  0
 21 56  1  0
 22 24  1  0
 22 23  1  0
 22 57  1  0
 23 24  1  0
 23 58  1  0
 23 59  1  0
 24 60  1  0
 24 61  1  0
 25 26  1  0
 25 62  1  6
 26 27  1  0
 26 29  1  0
 27 28  1  0
 27 63  1  0
 27 64  1  0
 28 65  1  0
 28 66  1  0
 28 67  1  0
 29 30  1  0
 29 68  1  0
 29 69  1  0
 30 31  1  0
 30 70  1  0
 30 71  1  0
 31 32  1  6
M  END
>  <i_m_ct_stereo_status>  (261) 
1

>  <s_m_source_file>  (261) 
/var/tmp/pbs.5102103.sched01/tmpndyyrgqo/88kp20v8wr.sdf

>  <i_m_source_file_index>  (261) 
11

>  <i_lp_mmshare_version>  (261) 
48012

>  <i_f3d_flags>  (261) 
0

>  <s_epik_input>  (261) 
W0NIMl0xW0NIMl1bQ0hdMVtDSDJdTihbQ0gyXTIpW0NAQEhdKFtDQEhdKFtDQEBdMzRbQ0BdMjU2KU4oW0NIMl1bQ0gzXSlbQ0gyXVtDSDNdKVtDQEBIXShbQ0BASF02TihbQ0gyXVtDSDNdKVtDSDJdW0NIMl0zKVtDSDJdYzdjNWMoTzQpYyhbY0hdW2NIXTcpT1tDSDNd

>  <s_epik_cmdline>  (261) 
J2VwaWtfcHl0aG9uJywgJy1waHQnLCAnMi4wJywgJy1waCcsICc3LjAnLCAnLXRuJywgJzgnLCAnLW1hJywgJzIwMCcsICctaW1hZScsICc8aW5maWxlLm1hZT4nLCAnLW9tYWUnLCAnPG91dGZpbGUubWFlPic=

>  <r_lp_tautomer_probability>  (261) 
1

>  <r_epik_Ionization_Penalty>  (261) 
5.22922

>  <r_epik_Ionization_Penalty_Charging>  (261) 
0

>  <r_epik_Ionization_Penalty_Neutral>  (261) 
5.22922

>  <r_epik_State_Penalty>  (261) 
2.66564

>  <r_epik_Charging_Adjusted_Penalty>  (261) 
2.66564

>  <i_epik_Tot_Q>  (261) 
0

>  <i_epik_Tot_abs_Q>  (261) 
0

>  <s_lp_Force_Field>  (261) 
OPLS3e

>  <r_lp_Energy>  (261) 
315.207

>  <b_lp_Chiralities_Consistent>  (261) 
1

>  <s_lp_Variant>  (261) 
59:0-6

>  <s_i_glide_gridfile>  (261) 
pfpi4k_grid

>  <i_i_glide_lignum>  (261) 
11

>  <i_i_glide_rotatable_bonds>  (261) 
7

>  <r_i_docking_score>  (261) 
-1.14923

>  <r_i_glide_ligand_efficiency>  (261) 
-0.0359133

>  <r_i_glide_ligand_efficiency_sa>  (261) 
-0.114018

>  <r_i_glide_ligand_efficiency_ln>  (261) 
-0.257343

>  <r_i_glide_gscore>  (261) 
-1.14923

>  <r_i_glide_lipo>  (261) 
-0.149647

>  <r_i_glide_hbond>  (261) 
-0.00223285

>  <r_i_glide_metal>  (261) 
-0

>  <r_i_glide_rewards>  (261) 
-0.425335

>  <r_i_glide_evdw>  (261) 
-11.5124

>  <r_i_glide_ecoul>  (261) 
-2.05865

>  <r_i_glide_erotb>  (261) 
0.312406

>  <r_i_glide_esite>  (261) 
0

>  <r_i_glide_emodel>  (261) 
-5.32391

>  <r_i_glide_energy>  (261) 
-13.571

>  <r_i_glide_einternal>  (261) 
9.83779

>  <r_i_glide_intrahb_reward>  (261) 
-0

>  <i_i_glide_confnum>  (261) 
1

>  <i_i_glide_posenum>  (261) 
13

>  <r_i_glide_eff_state_penalty>  (261) 
0

>  <ligand_id>  (261) 
59

>  <original_smiles>  (261) 
CCN(CC)C1C2C3Cc4ccc(OC)c5c4C4(CN2CC2CC2)C3N(CC)CCC14O5

>  <smiles>  (261) 
[H]c1c([H])c2c3c(c1OC([H])([H])[H])OC14C([H])([H])C([H])([H])N(C([H])([H])C([H])([H])[H])C5([H])C([H])(C2([H])[H])C([H])(N(C([H])([H])C2([H])C([H])([H])C2([H])[H])C([H])([H])C351)C4([H])N(C([H])([H])C([H])([H])[H])C([H])([H])C([H])([H])[H]

$$$$
59:5:2
     RDKit          3D

 71 77  0  0  1  0  0  0  0  0999 V2000
    0.1283    0.8812    6.0840 C   0  0  0  0  0  0  0  0  0  0  0  0
    0.3145   -0.6039    6.3305 C   0  0  0  0  0  0  0  0  0  0  0  0
    0.5908   -1.4914    5.1686 N   0  0  0  0  0  0  0  0  0  0  0  0
    0.4803   -2.8999    5.5925 C   0  0  0  0  0  0  0  0  0  0  0  0
   -0.9137   -3.3100    6.0967 C   0  0  0  0  0  0  0  0  0  0  0  0
    1.8821   -1.1852    4.4763 C   0  0  2  0  0  0  0  0  0  0  0  0
    1.9405    0.3042    3.5200 C   0  0  1  0  0  0  0  0  0  0  0  0
    3.3229    0.5360    2.5845 C   0  0  2  0  0  0  0  0  0  0  0  0
    3.4775    0.3029    0.9456 C   0  0  0  0  0  0  0  0  0  0  0  0
    3.5232   -1.2035    0.3733 C   0  0  0  0  0  0  0  0  0  0  0  0
    3.4261   -1.8005   -0.9245 C   0  0  0  0  0  0  0  0  0  0  0  0
    3.0407   -3.1835   -1.0009 C   0  0  0  0  0  0  0  0  0  0  0  0
    2.6956   -3.9812    0.1585 C   0  0  0  0  0  0  0  0  0  0  0  0
    2.1922   -5.2541    0.0202 O   0  0  0  0  0  0  0  0  0  0  0  0
    2.5743   -6.1718    1.0412 C   0  0  0  0  0  0  0  0  0  0  0  0
    2.7827   -3.3729    1.4422 C   0  0  0  0  0  0  0  0  0  0  0  0
    3.2519   -2.1232    1.3429 C   0  0  0  0  0  0  0  0  0  0  0  0
    2.8257   -1.6097    2.5533 C   0  0  2  0  0  0  0  0  0  0  0  0
    1.2946   -1.1543    2.0765 C   0  0  0  0  0  0  0  0  0  0  0  0
    0.9565    0.1813    2.5061 N   0  0  0  0  0  0  0  0  0  0  0  0
   -0.4371    0.4237    2.8429 C   0  0  0  0  0  0  0  0  0  0  0  0
   -0.7507    1.8687    3.2437 C   0  0  0  0  0  0  0  0  0  0  0  0
   -2.0867    2.2044    3.8480 C   0  0  0  0  0  0  0  0  0  0  0  0
   -1.7229    2.6998    2.5052 C   0  0  0  0  0  0  0  0  0  0  0  0
    3.9416   -0.6500    3.0863 C   0  0  1  0  0  0  0  0  0  0  0  0
    5.2764   -1.1895    2.9136 N   0  0  0  0  0  0  0  0  0  0  0  0
    6.3116   -0.2105    3.2094 C   0  0  0  0  0  0  0  0  0  0  0  0
    6.2475    0.4462    4.5991 C   0  0  0  0  0  0  0  0  0  0  0  0
    5.3422   -2.4115    3.7409 C   0  0  0  0  0  0  0  0  0  0  0  0
    3.9827   -2.9779    4.2981 C   0  0  0  0  0  0  0  0  0  0  0  0
    2.6288   -2.4982    3.6588 C   0  0  1  0  0  0  0  0  0  0  0  0
    2.2097   -3.5864    2.7184 O   0  0  0  0  0  0  0  0  0  0  0  0
   -0.2968    1.4575    6.8979 H   0  0  0  0  0  0  0  0  0  0  0  0
   -0.6562    0.9067    5.3628 H   0  0  0  0  0  0  0  0  0  0  0  0
    1.0363    1.3945    5.7907 H   0  0  0  0  0  0  0  0  0  0  0  0
    1.0681   -0.7228    7.1005 H   0  0  0  0  0  0  0  0  0  0  0  0
   -0.6455   -0.8869    6.7518 H   0  0  0  0  0  0  0  0  0  0  0  0
    0.6824   -3.5612    4.7476 H   0  0  0  0  0  0  0  0  0  0  0  0
    1.2257   -3.1366    6.3555 H   0  0  0  0  0  0  0  0  0  0  0  0
   -1.0027   -4.3943    6.1723 H   0  0  0  0  0  0  0  0  0  0  0  0
   -1.6698   -2.9338    5.4150 H   0  0  0  0  0  0  0  0  0  0  0  0
   -1.1532   -2.9053    7.0759 H   0  0  0  0  0  0  0  0  0  0  0  0
    2.5504   -1.0070    5.3194 H   0  0  0  0  0  0  0  0  0  0  0  0
    1.8250    1.2453    4.0528 H   0  0  0  0  0  0  0  0  0  0  0  0
    3.8028    1.4528    2.8842 H   0  0  0  0  0  0  0  0  0  0  0  0
    2.6378    0.8537    0.5045 H   0  0  0  0  0  0  0  0  0  0  0  0
    4.3811    0.7907    0.6070 H   0  0  0  0  0  0  0  0  0  0  0  0
    3.5323   -1.1980   -1.8105 H   0  0  0  0  0  0  0  0  0  0  0  0
    2.9214   -3.6136   -1.9905 H   0  0  0  0  0  0  0  0  0  0  0  0
    2.0807   -7.1283    0.8882 H   0  0  0  0  0  0  0  0  0  0  0  0
    2.3149   -5.8617    2.0539 H   0  0  0  0  0  0  0  0  0  0  0  0
    3.6528   -6.3361    1.0076 H   0  0  0  0  0  0  0  0  0  0  0  0
    1.1672   -1.1968    1.0192 H   0  0  0  0  0  0  0  0  0  0  0  0
    0.5507   -1.8678    2.4298 H   0  0  0  0  0  0  0  0  0  0  0  0
   -1.0968    0.1701    2.0032 H   0  0  0  0  0  0  0  0  0  0  0  0
   -0.7843   -0.2485    3.6207 H   0  0  0  0  0  0  0  0  0  0  0  0
    0.0849    2.3953    3.7247 H   0  0  0  0  0  0  0  0  0  0  0  0
   -2.8069    1.3987    3.9220 H   0  0  0  0  0  0  0  0  0  0  0  0
   -2.1525    2.9285    4.6719 H   0  0  0  0  0  0  0  0  0  0  0  0
   -1.4581    3.7577    2.3882 H   0  0  0  0  0  0  0  0  0  0  0  0
   -2.2106    2.1851    1.7185 H   0  0  0  0  0  0  0  0  0  0  0  0
    3.9897   -0.4523    4.1531 H   0  0  0  0  0  0  0  0  0  0  0  0
    7.3192   -0.6146    3.0185 H   0  0  0  0  0  0  0  0  0  0  0  0
    6.1597    0.5504    2.4750 H   0  0  0  0  0  0  0  0  0  0  0  0
    7.1166    1.0835    4.7717 H   0  0  0  0  0  0  0  0  0  0  0  0
    6.2130   -0.2826    5.4090 H   0  0  0  0  0  0  0  0  0  0  0  0
    5.3666    1.0847    4.6740 H   0  0  0  0  0  0  0  0  0  0  0  0
    5.8902   -3.1671    3.1806 H   0  0  0  0  0  0  0  0  0  0  0  0
    5.9279   -2.2205    4.6300 H   0  0  0  0  0  0  0  0  0  0  0  0
    4.0382   -4.0673    4.2899 H   0  0  0  0  0  0  0  0  0  0  0  0
    3.9584   -2.7267    5.3567 H   0  0  0  0  0  0  0  0  0  0  0  0
  1  2  1  0
  1 33  1  0
  1 34  1  0
  1 35  1  0
  2  3  1  0
  2 36  1  0
  2 37  1  0
  3  4  1  0
  3  6  1  0
  4  5  1  0
  4 38  1  0
  4 39  1  0
  5 40  1  0
  5 41  1  0
  5 42  1  0
  6 31  1  0
  6  7  1  0
  6 43  1  1
  7 20  1  0
  7  8  1  0
  7 44  1  1
  8 25  1  0
  8  9  1  0
  8 45  1  1
  9 10  1  0
  9 46  1  0
  9 47  1  0
 10 17  2  0
 10 11  1  0
 11 12  2  0
 11 48  1  0
 12 13  1  0
 12 49  1  0
 13 14  1  0
 13 16  2  0
 14 15  1  0
 15 50  1  0
 15 51  1  0
 15 52  1  0
 16 32  1  0
 16 17  1  0
 17 18  1  0
 18 31  1  0
 18 19  1  6
 18 25  1  0
 19 20  1  0
 19 53  1  0
 19 54  1  0
 20 21  1  0
 21 22  1  0
 21 55  1  0
 21 56  1  0
 22 24  1  0
 22 23  1  0
 22 57  1  0
 23 24  1  0
 23 58  1  0
 23 59  1  0
 24 60  1  0
 24 61  1  0
 25 26  1  0
 25 62  1  1
 26 27  1  0
 26 29  1  0
 27 28  1  0
 27 63  1  0
 27 64  1  0
 28 65  1  0
 28 66  1  0
 28 67  1  0
 29 30  1  0
 29 68  1  0
 29 69  1  0
 30 31  1  0
 30 70  1  0
 30 71  1  0
 31 32  1  6
M  END
>  <i_m_ct_stereo_status>  (262) 
1

>  <s_m_source_file>  (262) 
/var/tmp/pbs.5102103.sched01/tmpndyyrgqo/88kp20v8wr.sdf

>  <i_m_source_file_index>  (262) 
11

>  <i_lp_mmshare_version>  (262) 
48012

>  <i_f3d_flags>  (262) 
0

>  <s_epik_input>  (262) 
W0NIMl0xW0NIMl1bQ0hdMVtDSDJdTihbQ0gyXTIpW0NAQEhdKFtDQEhdKFtDQEBdMzRbQ0BdMjU2KU4oW0NIMl1bQ0gzXSlbQ0gyXVtDSDNdKVtDQEBIXShbQ0BASF02TihbQ0gyXVtDSDNdKVtDSDJdW0NIMl0zKVtDSDJdYzdjNWMoTzQpYyhbY0hdW2NIXTcpT1tDSDNd

>  <s_epik_cmdline>  (262) 
J2VwaWtfcHl0aG9uJywgJy1waHQnLCAnMi4wJywgJy1waCcsICc3LjAnLCAnLXRuJywgJzgnLCAnLW1hJywgJzIwMCcsICctaW1hZScsICc8aW5maWxlLm1hZT4nLCAnLW9tYWUnLCAnPG91dGZpbGUubWFlPic=

>  <r_lp_tautomer_probability>  (262) 
1

>  <r_epik_Ionization_Penalty>  (262) 
5.22922

>  <r_epik_Ionization_Penalty_Charging>  (262) 
0

>  <r_epik_Ionization_Penalty_Neutral>  (262) 
5.22922

>  <r_epik_State_Penalty>  (262) 
2.66564

>  <r_epik_Charging_Adjusted_Penalty>  (262) 
2.66564

>  <i_epik_Tot_Q>  (262) 
0

>  <i_epik_Tot_abs_Q>  (262) 
0

>  <s_lp_Force_Field>  (262) 
OPLS3e

>  <r_lp_Energy>  (262) 
315.207

>  <b_lp_Chiralities_Consistent>  (262) 
1

>  <s_lp_Variant>  (262) 
59:0-6

>  <s_i_glide_gridfile>  (262) 
pfpi4k_grid

>  <i_i_glide_lignum>  (262) 
11

>  <i_i_glide_rotatable_bonds>  (262) 
7

>  <r_i_docking_score>  (262) 
-0.757773

>  <r_i_glide_ligand_efficiency>  (262) 
-0.0236804

>  <r_i_glide_ligand_efficiency_sa>  (262) 
-0.0751806

>  <r_i_glide_ligand_efficiency_ln>  (262) 
-0.169686

>  <r_i_glide_gscore>  (262) 
-0.757773

>  <r_i_glide_lipo>  (262) 
-0.410578

>  <r_i_glide_hbond>  (262) 
-0.000671446

>  <r_i_glide_metal>  (262) 
-0

>  <r_i_glide_rewards>  (262) 
-0.425335

>  <r_i_glide_evdw>  (262) 
-8.48461

>  <r_i_glide_ecoul>  (262) 
1.27091

>  <r_i_glide_erotb>  (262) 
0.312406

>  <r_i_glide_esite>  (262) 
0

>  <r_i_glide_emodel>  (262) 
-0.250537

>  <r_i_glide_energy>  (262) 
-7.2137

>  <r_i_glide_einternal>  (262) 
7.38851

>  <r_i_glide_intrahb_reward>  (262) 
-0

>  <i_i_glide_confnum>  (262) 
1

>  <i_i_glide_posenum>  (262) 
27

>  <r_i_glide_eff_state_penalty>  (262) 
0

>  <ligand_id>  (262) 
59

>  <original_smiles>  (262) 
CCN(CC)C1C2C3Cc4ccc(OC)c5c4C4(CN2CC2CC2)C3N(CC)CCC14O5

>  <smiles>  (262) 
[H]c1c([H])c2c3c(c1OC([H])([H])[H])OC14C([H])([H])C([H])([H])N(C([H])([H])C([H])([H])[H])C5([H])C([H])(C2([H])[H])C([H])(N(C([H])([H])C2([H])C([H])([H])C2([H])[H])C([H])([H])C351)C4([H])N(C([H])([H])C([H])([H])[H])C([H])([H])C([H])([H])[H]

$$$$
60:0:0
     RDKit          3D

 30 31  0  0  1  0  0  0  0  0999 V2000
    0.7741   -8.6678    3.1405 N   0  0  0  0  0  0  0  0  0  0  0  0
    1.4720   -7.7943    2.3397 C   0  0  0  0  0  0  0  0  0  0  0  0
    2.8138   -7.7898    2.2451 C   0  0  0  0  0  0  0  0  0  0  0  0
    3.5202   -6.8311    1.4757 C   0  0  0  0  0  0  0  0  0  0  0  0
    2.8447   -5.8666    0.8510 N   0  0  0  0  0  0  0  0  0  0  0  0
    3.5153   -4.8506   -0.0364 C   0  0  2  0  0  0  0  0  0  0  0  0
    4.6262   -4.3501    0.6362 O   0  0  0  0  0  0  0  0  0  0  0  0
    4.6153   -2.9325    0.6528 C   0  0  1  0  0  0  0  0  0  0  0  0
    6.0548   -2.4225    0.4560 C   0  0  0  0  0  0  0  0  0  0  0  0
    6.0888   -1.0151    0.3444 O   0  0  0  0  0  0  0  0  0  0  0  0
    3.6043   -2.5432   -0.4404 C   0  0  1  0  0  0  0  0  0  0  0  0
    4.1920   -2.5522   -1.7317 O   0  0  0  0  0  0  0  0  0  0  0  0
    2.6001   -3.6580   -0.3481 C   0  0  1  0  0  0  0  0  0  0  0  0
    1.8536   -3.8026   -1.5500 O   0  0  0  0  0  0  0  0  0  0  0  0
    1.3756   -5.9545    0.7979 N   0  0  0  0  0  0  0  0  0  0  0  0
    0.6797   -6.8014    1.5916 C   0  0  0  0  0  0  0  0  0  0  0  0
   -0.5373   -6.7323    1.7269 O   0  0  0  0  0  0  0  0  0  0  0  0
   -0.2305   -8.6822    3.1275 H   0  0  0  0  0  0  0  0  0  0  0  0
    1.2204   -9.4201    3.6412 H   0  0  0  0  0  0  0  0  0  0  0  0
    3.4237   -8.4947    2.7871 H   0  0  0  0  0  0  0  0  0  0  0  0
    4.5984   -6.8269    1.3715 H   0  0  0  0  0  0  0  0  0  0  0  0
    3.8964   -5.3911   -0.8891 H   0  0  0  0  0  0  0  0  0  0  0  0
    4.2224   -2.6415    1.6324 H   0  0  0  0  0  0  0  0  0  0  0  0
    6.6850   -2.7226    1.2920 H   0  0  0  0  0  0  0  0  0  0  0  0
    6.4851   -2.8759   -0.4357 H   0  0  0  0  0  0  0  0  0  0  0  0
    5.6053   -0.6549    1.0712 H   0  0  0  0  0  0  0  0  0  0  0  0
    3.1369   -1.5740   -0.2393 H   0  0  0  0  0  0  0  0  0  0  0  0
    3.4786   -2.4430   -2.3433 H   0  0  0  0  0  0  0  0  0  0  0  0
    1.9688   -3.4168    0.5069 H   0  0  0  0  0  0  0  0  0  0  0  0
    2.2613   -4.4586   -2.1064 H   0  0  0  0  0  0  0  0  0  0  0  0
  1  2  1  0
  1 19  1  0
  1 18  1  0
  2 16  1  0
  2  3  2  0
  3 20  1  0
  3  4  1  0
  4 21  1  0
  4  5  2  0
  5 15  1  0
  5  6  1  0
  6 13  1  0
  6  7  1  0
  6 22  1  6
  7  8  1  0
  8  9  1  0
  8 11  1  0
  8 23  1  1
  9 10  1  0
  9 24  1  0
  9 25  1  0
 10 26  1  0
 11 12  1  0
 11 13  1  0
 11 27  1  1
 12 28  1  0
 13 14  1  0
 13 29  1  1
 14 30  1  0
 15 16  1  0
 16 17  2  0
M  CHG  2   5   1  15  -1
M  END
>  <i_m_ct_stereo_status>  (263) 
1

>  <s_m_source_file>  (263) 
/var/tmp/pbs.5102103.sched01/tmpndyyrgqo/88kp20v8wr.sdf

>  <i_m_source_file_index>  (263) 
12

>  <i_lp_mmshare_version>  (263) 
48012

>  <i_f3d_flags>  (263) 
0

>  <s_epik_input>  (263) 
W0hdL049YzFcW2NIXVtjSF1uKFtuSF1jMT1PKVtDQEBIXTJPW0NAQEhdKFtDSDJdW09IXSlbQ0BASF0oW09IXSlbQ0BIXTJbT0hd

>  <s_epik_cmdline>  (263) 
J2VwaWtfcHl0aG9uJywgJy1waHQnLCAnMi4wJywgJy1waCcsICc3LjAnLCAnLXRuJywgJzgnLCAnLW1hJywgJzIwMCcsICctaW1hZScsICc8aW5maWxlLm1hZT4nLCAnLW9tYWUnLCAnPG91dGZpbGUubWFlPic=

>  <r_lp_tautomer_probability>  (263) 
1

>  <r_epik_Ionization_Penalty>  (263) 
0.000892024

>  <r_epik_Ionization_Penalty_Charging>  (263) 
0.000890252

>  <r_epik_Ionization_Penalty_Neutral>  (263) 
1.77279e-06

>  <r_epik_State_Penalty>  (263) 
0.000215561

>  <r_epik_Charging_Adjusted_Penalty>  (263) 
0.00110581

>  <i_epik_Tot_Q>  (263) 
0

>  <i_epik_Tot_abs_Q>  (263) 
2

>  <s_epik_Chemistry_Notes>  (263) 
This compound contains an acetal/aminal-like group ( X-CH(R)-Y where X, Y are N, S, or O) that may be acid/base labile, releasing an aldehyde.

>  <s_lp_Force_Field>  (263) 
OPLS3e

>  <r_lp_Energy>  (263) 
28.4554

>  <b_lp_Chiralities_Consistent>  (263) 
1

>  <s_lp_Variant>  (263) 
60:0-1

>  <s_i_glide_gridfile>  (263) 
pfpi4k_grid

>  <i_i_glide_lignum>  (263) 
12

>  <i_i_glide_rotatable_bonds>  (263) 
5

>  <r_i_docking_score>  (263) 
-4.7511

>  <r_i_glide_ligand_efficiency>  (263) 
-0.279477

>  <r_i_glide_ligand_efficiency_sa>  (263) 
-0.718613

>  <r_i_glide_ligand_efficiency_ln>  (263) 
-1.23946

>  <r_i_glide_gscore>  (263) 
-4.7511

>  <r_i_glide_lipo>  (263) 
-0.141298

>  <r_i_glide_hbond>  (263) 
-0.350792

>  <r_i_glide_metal>  (263) 
-0

>  <r_i_glide_rewards>  (263) 
-1.7508

>  <r_i_glide_evdw>  (263) 
-17.1324

>  <r_i_glide_ecoul>  (263) 
-14.4927

>  <r_i_glide_erotb>  (263) 
0.586995

>  <r_i_glide_esite>  (263) 
-0.0646786

>  <r_i_glide_emodel>  (263) 
-40.435

>  <r_i_glide_energy>  (263) 
-31.6252

>  <r_i_glide_einternal>  (263) 
5.47998

>  <r_i_glide_intrahb_reward>  (263) 
-0

>  <i_i_glide_confnum>  (263) 
4

>  <i_i_glide_posenum>  (263) 
19

>  <r_i_glide_eff_state_penalty>  (263) 
0

>  <ligand_id>  (263) 
60

>  <original_smiles>  (263) 
N=c1ccn(C2OC(CO)C(O)C2O)[nH]c1=O

>  <smiles>  (263) 
[H]OC([H])([H])C1([H])OC([H])([n+]2[n-]c(=O)c(N([H])[H])c([H])c2[H])C([H])(O[H])C1([H])O[H]

$$$$
60:0:1
     RDKit          3D

 30 31  0  0  1  0  0  0  0  0999 V2000
    1.8123   -8.6287    1.9638 N   0  0  0  0  0  0  0  0  0  0  0  0
    2.4161   -7.4641    1.5602 C   0  0  0  0  0  0  0  0  0  0  0  0
    3.7518   -7.3781    1.3457 C   0  0  0  0  0  0  0  0  0  0  0  0
    4.3796   -6.1850    0.9236 C   0  0  0  0  0  0  0  0  0  0  0  0
    3.6494   -5.0979    0.7021 N   0  0  0  0  0  0  0  0  0  0  0  0
    4.2223   -3.7916    0.2311 C   0  0  2  0  0  0  0  0  0  0  0  0
    3.9834   -2.8240    1.2031 O   0  0  0  0  0  0  0  0  0  0  0  0
    3.4347   -1.6526    0.6088 C   0  0  1  0  0  0  0  0  0  0  0  0
    4.0800   -0.3974    1.2297 C   0  0  0  0  0  0  0  0  0  0  0  0
    3.4112   -0.0027    2.4050 O   0  0  0  0  0  0  0  0  0  0  0  0
    3.7217   -1.8350   -0.8980 C   0  0  1  0  0  0  0  0  0  0  0  0
    5.0526   -1.4202   -1.1922 O   0  0  0  0  0  0  0  0  0  0  0  0
    3.5758   -3.3344   -1.0708 C   0  0  1  0  0  0  0  0  0  0  0  0
    4.2541   -3.8317   -2.2028 O   0  0  0  0  0  0  0  0  0  0  0  0
    2.2026   -5.1554    0.9231 N   0  0  0  0  0  0  0  0  0  0  0  0
    1.5755   -6.2928    1.3173 C   0  0  0  0  0  0  0  0  0  0  0  0
    0.3526   -6.3591    1.4518 O   0  0  0  0  0  0  0  0  0  0  0  0
    0.8063   -8.6872    2.0207 H   0  0  0  0  0  0  0  0  0  0  0  0
    2.3125   -9.4994    2.0810 H   0  0  0  0  0  0  0  0  0  0  0  0
    4.4034   -8.2253    1.4764 H   0  0  0  0  0  0  0  0  0  0  0  0
    5.4484   -6.1158    0.7584 H   0  0  0  0  0  0  0  0  0  0  0  0
    5.2993   -3.9016    0.1566 H   0  0  0  0  0  0  0  0  0  0  0  0
    2.3523   -1.6736    0.7716 H   0  0  0  0  0  0  0  0  0  0  0  0
    5.1376   -0.5692    1.4327 H   0  0  0  0  0  0  0  0  0  0  0  0
    4.0150    0.4288    0.5245 H   0  0  0  0  0  0  0  0  0  0  0  0
    2.5162    0.2020    2.1765 H   0  0  0  0  0  0  0  0  0  0  0  0
    3.0158   -1.2825   -1.5187 H   0  0  0  0  0  0  0  0  0  0  0  0
    5.6240   -1.9342   -0.6416 H   0  0  0  0  0  0  0  0  0  0  0  0
    2.5122   -3.5793   -1.1163 H   0  0  0  0  0  0  0  0  0  0  0  0
    3.9207   -4.7183   -2.3700 H   0  0  0  0  0  0  0  0  0  0  0  0
  1  2  1  0
  1 19  1  0
  1 18  1  0
  2 16  1  0
  2  3  2  0
  3 20  1  0
  3  4  1  0
  4 21  1  0
  4  5  2  0
  5 15  1  0
  5  6  1  0
  6 13  1  0
  6  7  1  0
  6 22  1  6
  7  8  1  0
  8  9  1  0
  8 11  1  0
  8 23  1  6
  9 10  1  0
  9 24  1  0
  9 25  1  0
 10 26  1  0
 11 12  1  0
 11 13  1  0
 11 27  1  6
 12 28  1  0
 13 14  1  0
 13 29  1  1
 14 30  1  0
 15 16  1  0
 16 17  2  0
M  CHG  2   5   1  15  -1
M  END
>  <i_m_ct_stereo_status>  (264) 
1

>  <s_m_source_file>  (264) 
/var/tmp/pbs.5102103.sched01/tmpndyyrgqo/88kp20v8wr.sdf

>  <i_m_source_file_index>  (264) 
12

>  <i_lp_mmshare_version>  (264) 
48012

>  <i_f3d_flags>  (264) 
0

>  <s_epik_input>  (264) 
W0hdL049YzFcW2NIXVtjSF1uKFtuSF1jMT1PKVtDQEBIXTJPW0NAQEhdKFtDSDJdW09IXSlbQ0BASF0oW09IXSlbQ0BIXTJbT0hd

>  <s_epik_cmdline>  (264) 
J2VwaWtfcHl0aG9uJywgJy1waHQnLCAnMi4wJywgJy1waCcsICc3LjAnLCAnLXRuJywgJzgnLCAnLW1hJywgJzIwMCcsICctaW1hZScsICc8aW5maWxlLm1hZT4nLCAnLW9tYWUnLCAnPG91dGZpbGUubWFlPic=

>  <r_lp_tautomer_probability>  (264) 
1

>  <r_epik_Ionization_Penalty>  (264) 
0.000892024

>  <r_epik_Ionization_Penalty_Charging>  (264) 
0.000890252

>  <r_epik_Ionization_Penalty_Neutral>  (264) 
1.77279e-06

>  <r_epik_State_Penalty>  (264) 
0.000215561

>  <r_epik_Charging_Adjusted_Penalty>  (264) 
0.00110581

>  <i_epik_Tot_Q>  (264) 
0

>  <i_epik_Tot_abs_Q>  (264) 
2

>  <s_epik_Chemistry_Notes>  (264) 
This compound contains an acetal/aminal-like group ( X-CH(R)-Y where X, Y are N, S, or O) that may be acid/base labile, releasing an aldehyde.

>  <s_lp_Force_Field>  (264) 
OPLS3e

>  <r_lp_Energy>  (264) 
28.4554

>  <b_lp_Chiralities_Consistent>  (264) 
1

>  <s_lp_Variant>  (264) 
60:0-1

>  <s_i_glide_gridfile>  (264) 
pfpi4k_grid

>  <i_i_glide_lignum>  (264) 
12

>  <i_i_glide_rotatable_bonds>  (264) 
5

>  <r_i_docking_score>  (264) 
-4.30749

>  <r_i_glide_ligand_efficiency>  (264) 
-0.253382

>  <r_i_glide_ligand_efficiency_sa>  (264) 
-0.651515

>  <r_i_glide_ligand_efficiency_ln>  (264) 
-1.12373

>  <r_i_glide_gscore>  (264) 
-4.30749

>  <r_i_glide_lipo>  (264) 
-0.325787

>  <r_i_glide_hbond>  (264) 
-0.207032

>  <r_i_glide_metal>  (264) 
-0

>  <r_i_glide_rewards>  (264) 
-1.77926

>  <r_i_glide_evdw>  (264) 
-17.7654

>  <r_i_glide_ecoul>  (264) 
-11.206

>  <r_i_glide_erotb>  (264) 
0.586995

>  <r_i_glide_esite>  (264) 
-0.0132284

>  <r_i_glide_emodel>  (264) 
-39.794

>  <r_i_glide_energy>  (264) 
-28.9714

>  <r_i_glide_einternal>  (264) 
0.534799

>  <r_i_glide_intrahb_reward>  (264) 
-0

>  <i_i_glide_confnum>  (264) 
5

>  <i_i_glide_posenum>  (264) 
33

>  <r_i_glide_eff_state_penalty>  (264) 
0

>  <ligand_id>  (264) 
60

>  <original_smiles>  (264) 
N=c1ccn(C2OC(CO)C(O)C2O)[nH]c1=O

>  <smiles>  (264) 
[H]OC([H])([H])C1([H])OC([H])([n+]2[n-]c(=O)c(N([H])[H])c([H])c2[H])C([H])(O[H])C1([H])O[H]

$$$$
60:0:2
     RDKit          3D

 30 31  0  0  1  0  0  0  0  0999 V2000
    1.7922   -9.0289    1.9425 N   0  0  0  0  0  0  0  0  0  0  0  0
    2.3324   -7.7879    1.6774 C   0  0  0  0  0  0  0  0  0  0  0  0
    3.6642   -7.5693    1.6868 C   0  0  0  0  0  0  0  0  0  0  0  0
    4.2237   -6.3072    1.4113 C   0  0  0  0  0  0  0  0  0  0  0  0
    3.4306   -5.2879    1.1013 N   0  0  0  0  0  0  0  0  0  0  0  0
    3.9537   -3.9234    0.7876 C   0  0  2  0  0  0  0  0  0  0  0  0
    3.4583   -3.0247    1.7233 O   0  0  0  0  0  0  0  0  0  0  0  0
    2.9509   -1.8698    1.0667 C   0  0  1  0  0  0  0  0  0  0  0  0
    3.3105   -0.6038    1.8721 C   0  0  0  0  0  0  0  0  0  0  0  0
    2.6310    0.4966    1.2970 O   0  0  0  0  0  0  0  0  0  0  0  0
    3.4844   -1.9631   -0.3759 C   0  0  1  0  0  0  0  0  0  0  0  0
    4.7777   -1.3897   -0.4811 O   0  0  0  0  0  0  0  0  0  0  0  0
    3.5172   -3.4648   -0.6022 C   0  0  1  0  0  0  0  0  0  0  0  0
    4.4014   -3.8562   -1.6389 O   0  0  0  0  0  0  0  0  0  0  0  0
    1.9816   -5.4798    1.0796 N   0  0  0  0  0  0  0  0  0  0  0  0
    1.4087   -6.6849    1.3300 C   0  0  0  0  0  0  0  0  0  0  0  0
    0.1892   -6.8678    1.2660 O   0  0  0  0  0  0  0  0  0  0  0  0
    0.8028   -9.1968    1.7755 H   0  0  0  0  0  0  0  0  0  0  0  0
    2.3438   -9.8595    2.0660 H   0  0  0  0  0  0  0  0  0  0  0  0
    4.3560   -8.3690    1.8867 H   0  0  0  0  0  0  0  0  0  0  0  0
    5.2940   -6.1363    1.4331 H   0  0  0  0  0  0  0  0  0  0  0  0
    5.0515   -3.9077    0.9087 H   0  0  0  0  0  0  0  0  0  0  0  0
    1.8704   -2.0142    1.0660 H   0  0  0  0  0  0  0  0  0  0  0  0
    3.0136   -0.7023    2.9173 H   0  0  0  0  0  0  0  0  0  0  0  0
    4.3844   -0.4163    1.8931 H   0  0  0  0  0  0  0  0  0  0  0  0
    1.8674    0.1803    0.8488 H   0  0  0  0  0  0  0  0  0  0  0  0
    2.8441   -1.4733   -1.1033 H   0  0  0  0  0  0  0  0  0  0  0  0
    4.7122   -0.4924   -0.2151 H   0  0  0  0  0  0  0  0  0  0  0  0
    2.5081   -3.7919   -0.8347 H   0  0  0  0  0  0  0  0  0  0  0  0
    4.1330   -4.6998   -1.9685 H   0  0  0  0  0  0  0  0  0  0  0  0
  1  2  1  0
  1 19  1  0
  1 18  1  0
  2 16  1  0
  2  3  2  0
  3 20  1  0
  3  4  1  0
  4 21  1  0
  4  5  2  0
  5 15  1  0
  5  6  1  0
  6 13  1  0
  6  7  1  0
  6 22  1  6
  7  8  1  0
  8  9  1  0
  8 11  1  0
  8 23  1  6
  9 10  1  0
  9 24  1  0
  9 25  1  0
 10 26  1  0
 11 12  1  0
 11 13  1  0
 11 27  1  6
 12 28  1  0
 13 14  1  0
 13 29  1  6
 14 30  1  0
 15 16  1  0
 16 17  2  0
M  CHG  2   5   1  15  -1
M  END
>  <i_m_ct_stereo_status>  (265) 
1

>  <s_m_source_file>  (265) 
/var/tmp/pbs.5102103.sched01/tmpndyyrgqo/88kp20v8wr.sdf

>  <i_m_source_file_index>  (265) 
12

>  <i_lp_mmshare_version>  (265) 
48012

>  <i_f3d_flags>  (265) 
0

>  <s_epik_input>  (265) 
W0hdL049YzFcW2NIXVtjSF1uKFtuSF1jMT1PKVtDQEBIXTJPW0NAQEhdKFtDSDJdW09IXSlbQ0BASF0oW09IXSlbQ0BIXTJbT0hd

>  <s_epik_cmdline>  (265) 
J2VwaWtfcHl0aG9uJywgJy1waHQnLCAnMi4wJywgJy1waCcsICc3LjAnLCAnLXRuJywgJzgnLCAnLW1hJywgJzIwMCcsICctaW1hZScsICc8aW5maWxlLm1hZT4nLCAnLW9tYWUnLCAnPG91dGZpbGUubWFlPic=

>  <r_lp_tautomer_probability>  (265) 
1

>  <r_epik_Ionization_Penalty>  (265) 
0.000892024

>  <r_epik_Ionization_Penalty_Charging>  (265) 
0.000890252

>  <r_epik_Ionization_Penalty_Neutral>  (265) 
1.77279e-06

>  <r_epik_State_Penalty>  (265) 
0.000215561

>  <r_epik_Charging_Adjusted_Penalty>  (265) 
0.00110581

>  <i_epik_Tot_Q>  (265) 
0

>  <i_epik_Tot_abs_Q>  (265) 
2

>  <s_epik_Chemistry_Notes>  (265) 
This compound contains an acetal/aminal-like group ( X-CH(R)-Y where X, Y are N, S, or O) that may be acid/base labile, releasing an aldehyde.

>  <s_lp_Force_Field>  (265) 
OPLS3e

>  <r_lp_Energy>  (265) 
28.4554

>  <b_lp_Chiralities_Consistent>  (265) 
1

>  <s_lp_Variant>  (265) 
60:0-1

>  <s_i_glide_gridfile>  (265) 
pfpi4k_grid

>  <i_i_glide_lignum>  (265) 
12

>  <i_i_glide_rotatable_bonds>  (265) 
5

>  <r_i_docking_score>  (265) 
-4.17811

>  <r_i_glide_ligand_efficiency>  (265) 
-0.245771

>  <r_i_glide_ligand_efficiency_sa>  (265) 
-0.631947

>  <r_i_glide_ligand_efficiency_ln>  (265) 
-1.08998

>  <r_i_glide_gscore>  (265) 
-4.17811

>  <r_i_glide_lipo>  (265) 
-0.142584

>  <r_i_glide_hbond>  (265) 
-0.147033

>  <r_i_glide_metal>  (265) 
-0

>  <r_i_glide_rewards>  (265) 
-1.76916

>  <r_i_glide_evdw>  (265) 
-18.188

>  <r_i_glide_ecoul>  (265) 
-11.9671

>  <r_i_glide_erotb>  (265) 
0.586995

>  <r_i_glide_esite>  (265) 
-0.00184983

>  <r_i_glide_emodel>  (265) 
-39.219

>  <r_i_glide_energy>  (265) 
-30.1552

>  <r_i_glide_einternal>  (265) 
2.38185

>  <r_i_glide_intrahb_reward>  (265) 
-0

>  <i_i_glide_confnum>  (265) 
5

>  <i_i_glide_posenum>  (265) 
24

>  <r_i_glide_eff_state_penalty>  (265) 
0

>  <ligand_id>  (265) 
60

>  <original_smiles>  (265) 
N=c1ccn(C2OC(CO)C(O)C2O)[nH]c1=O

>  <smiles>  (265) 
[H]OC([H])([H])C1([H])OC([H])([n+]2[n-]c(=O)c(N([H])[H])c([H])c2[H])C([H])(O[H])C1([H])O[H]

$$$$
61:0:0
     RDKit          3D

 48 51  0  0  1  0  0  0  0  0999 V2000
    3.6168    0.5929   -4.7257 C   0  0  0  0  0  0  0  0  0  0  0  0
    3.5549    0.0499   -3.3028 C   0  0  0  0  0  0  0  0  0  0  0  0
    3.9011   -1.3733   -3.1763 N   0  0  2  0  0  0  0  0  0  0  0  0
    3.1158   -2.2072   -4.0867 C   0  0  0  0  0  0  0  0  0  0  0  0
    3.3235   -3.6035   -3.6040 C   0  0  0  0  0  0  0  0  0  0  0  0
    3.6771   -3.4540   -2.1215 C   0  0  0  0  0  0  0  0  0  0  0  0
    3.6280   -1.9523   -1.8473 C   0  0  1  0  0  0  0  0  0  0  0  0
    4.6646   -1.5083   -0.8068 C   0  0  0  0  0  0  0  0  0  0  0  0
    5.7947   -1.1148   -1.1333 O   0  0  0  0  0  0  0  0  0  0  0  0
    4.2540   -1.5921    0.6766 C   0  0  1  0  0  0  0  0  0  0  0  0
    3.4409   -0.3287    1.0575 C   0  0  0  0  0  0  0  0  0  0  0  0
    3.0049   -0.4026    2.5433 C   0  0  1  0  0  0  0  0  0  0  0  0
    2.1322   -1.6565    2.7633 C   0  0  0  0  0  0  0  0  0  0  0  0
    2.9452   -2.9207    2.4306 C   0  0  1  0  0  0  0  0  0  0  0  0
    3.3641   -2.8462    0.9535 C   0  0  0  0  0  0  0  0  0  0  0  0
    4.1961   -2.9908    3.3231 C   0  0  1  0  0  0  0  0  0  0  0  0
    4.9315   -4.1678    3.0418 O   0  0  0  0  0  0  0  0  0  0  0  0
    5.0606   -1.7383    3.0716 C   0  0  2  0  0  0  0  0  0  0  0  0
    4.2571   -0.4763    3.4288 C   0  0  0  0  0  0  0  0  0  0  0  0
    5.5035   -1.6579    1.5898 C   0  0  0  0  0  0  0  0  0  0  0  0
    3.4376    1.6674   -4.7328 H   0  0  0  0  0  0  0  0  0  0  0  0
    2.8747    0.1443   -5.3877 H   0  0  0  0  0  0  0  0  0  0  0  0
    4.6092    0.4255   -5.1200 H   0  0  0  0  0  0  0  0  0  0  0  0
    4.2168    0.6430   -2.6776 H   0  0  0  0  0  0  0  0  0  0  0  0
    2.5345    0.1407   -2.9283 H   0  0  0  0  0  0  0  0  0  0  0  0
    2.0491   -1.9556   -4.0135 H   0  0  0  0  0  0  0  0  0  0  0  0
    3.4247   -2.0951   -5.1219 H   0  0  0  0  0  0  0  0  0  0  0  0
    2.4183   -4.1944   -3.7507 H   0  0  0  0  0  0  0  0  0  0  0  0
    4.1409   -4.0878   -4.1378 H   0  0  0  0  0  0  0  0  0  0  0  0
    2.9615   -4.0165   -1.5156 H   0  0  0  0  0  0  0  0  0  0  0  0
    4.6639   -3.8871   -1.9383 H   0  0  0  0  0  0  0  0  0  0  0  0
    2.6287   -1.6728   -1.5303 H   0  0  0  0  0  0  0  0  0  0  0  0
    4.0313    0.5712    0.8727 H   0  0  0  0  0  0  0  0  0  0  0  0
    2.5551   -0.2394    0.4342 H   0  0  0  0  0  0  0  0  0  0  0  0
    2.4328    0.4916    2.7896 H   0  0  0  0  0  0  0  0  0  0  0  0
    1.7774   -1.6950    3.7925 H   0  0  0  0  0  0  0  0  0  0  0  0
    1.2456   -1.5994    2.1336 H   0  0  0  0  0  0  0  0  0  0  0  0
    2.3245   -3.8024    2.5892 H   0  0  0  0  0  0  0  0  0  0  0  0
    2.4349   -2.8181    0.3826 H   0  0  0  0  0  0  0  0  0  0  0  0
    3.8837   -3.7617    0.6670 H   0  0  0  0  0  0  0  0  0  0  0  0
    3.9070   -3.0370    4.3724 H   0  0  0  0  0  0  0  0  0  0  0  0
    5.1813   -4.1535    2.1309 H   0  0  0  0  0  0  0  0  0  0  0  0
    5.9258   -1.7807    3.7131 H   0  0  0  0  0  0  0  0  0  0  0  0
    4.8691    0.4119    3.2900 H   0  0  0  0  0  0  0  0  0  0  0  0
    3.9748   -0.4949    4.4836 H   0  0  0  0  0  0  0  0  0  0  0  0
    6.1154   -2.5178    1.3169 H   0  0  0  0  0  0  0  0  0  0  0  0
    6.1456   -0.7866    1.4509 H   0  0  0  0  0  0  0  0  0  0  0  0
    4.8858   -1.5362   -3.3563 H   0  0  0  0  0  0  0  0  0  0  0  0
  1  2  1  0
  1 21  1  0
  1 22  1  0
  1 23  1  0
  2  3  1  0
  2 24  1  0
  2 25  1  0
  3  7  1  0
  3  4  1  0
  3 48  1  6
  4  5  1  0
  4 26  1  0
  4 27  1  0
  5  6  1  0
  5 28  1  0
  5 29  1  0
  6  7  1  0
  6 30  1  0
  6 31  1  0
  7  8  1  0
  7 32  1  1
  8  9  2  0
 10  8  1  6
 10 15  1  0
 10 20  1  0
 10 11  1  0
 11 12  1  0
 11 33  1  0
 11 34  1  0
 12 19  1  0
 12 13  1  0
 12 35  1  1
 13 14  1  0
 13 36  1  0
 13 37  1  0
 14 15  1  0
 14 16  1  0
 14 38  1  6
 15 39  1  0
 15 40  1  0
 16 17  1  0
 16 18  1  0
 16 41  1  1
 17 42  1  0
 18 19  1  0
 18 20  1  0
 18 43  1  1
 19 44  1  0
 19 45  1  0
 20 46  1  0
 20 47  1  0
M  CHG  1   3   1
M  END
>  <i_m_ct_stereo_status>  (266) 
1

>  <s_m_source_file>  (266) 
/var/tmp/pbs.5102103.sched01/tmpndyyrgqo/88kp20v8wr.sdf

>  <i_m_source_file_index>  (266) 
13

>  <i_lp_mmshare_version>  (266) 
48012

>  <i_f3d_flags>  (266) 
0

>  <s_epik_input>  (266) 
W0NIM11bQ0gyXU4xW0NIMl1bQ0gyXVtDSDJdW0NASF0xQyg9TylbQ0BAXTIzW0NIMl1bQ0BIXTRbQ0gyXVtDQEBIXShbQ0gyXTIpW0NAQEhdKFtPSF0pW0NASF0oW0NIMl00KVtDSDJdMw==

>  <s_epik_cmdline>  (266) 
J2VwaWtfcHl0aG9uJywgJy1waHQnLCAnMi4wJywgJy1waCcsICc3LjAnLCAnLXRuJywgJzgnLCAnLW1hJywgJzIwMCcsICctaW1hZScsICc8aW5maWxlLm1hZT4nLCAnLW9tYWUnLCAnPG91dGZpbGUubWFlPic=

>  <r_epik_Ionization_Penalty>  (266) 
0.0355215

>  <r_epik_Ionization_Penalty_Charging>  (266) 
0.0355198

>  <r_epik_Ionization_Penalty_Neutral>  (266) 
1.76313e-06

>  <r_epik_State_Penalty>  (266) 
0.0296173

>  <r_epik_Charging_Adjusted_Penalty>  (266) 
0.065137

>  <i_epik_Tot_Q>  (266) 
1

>  <i_epik_Tot_abs_Q>  (266) 
1

>  <s_lp_Force_Field>  (266) 
OPLS3e

>  <r_lp_Energy>  (266) 
20.1402

>  <b_lp_Chiralities_Consistent>  (266) 
1

>  <s_lp_Variant>  (266) 
61:0-1

>  <s_i_glide_gridfile>  (266) 
pfpi4k_grid

>  <i_i_glide_lignum>  (266) 
13

>  <i_i_glide_rotatable_bonds>  (266) 
4

>  <r_i_docking_score>  (266) 
-3.28758

>  <r_i_glide_ligand_efficiency>  (266) 
-0.164379

>  <r_i_glide_ligand_efficiency_sa>  (266) 
-0.446194

>  <r_i_glide_ligand_efficiency_ln>  (266) 
-0.822773

>  <r_i_glide_gscore>  (266) 
-3.28758

>  <r_i_glide_lipo>  (266) 
-0.496829

>  <r_i_glide_hbond>  (266) 
-0.0638237

>  <r_i_glide_metal>  (266) 
-0

>  <r_i_glide_rewards>  (266) 
-1.51084

>  <r_i_glide_evdw>  (266) 
-19.0023

>  <r_i_glide_ecoul>  (266) 
-4.62955

>  <r_i_glide_erotb>  (266) 
0.465103

>  <r_i_glide_esite>  (266) 
-0.0366432

>  <r_i_glide_emodel>  (266) 
-27.6962

>  <r_i_glide_energy>  (266) 
-23.6318

>  <r_i_glide_einternal>  (266) 
1.64547

>  <r_i_glide_intrahb_reward>  (266) 
-0

>  <i_i_glide_confnum>  (266) 
1

>  <i_i_glide_posenum>  (266) 
1

>  <r_i_glide_eff_state_penalty>  (266) 
0

>  <ligand_id>  (266) 
61

>  <original_smiles>  (266) 
CCN1CCCC1C(=O)C12CC3CC(C1)C(O)C(C3)C2

>  <smiles>  (266) 
[H]OC1([H])C2([H])C([H])([H])C3([H])C([H])([H])C1([H])C([H])([H])C(C(=O)C1([H])C([H])([H])C([H])([H])C([H])([H])[N+]1([H])C([H])([H])C([H])([H])[H])(C3([H])[H])C2([H])[H]

$$$$
61:0:1
     RDKit          3D

 48 51  0  0  1  0  0  0  0  0999 V2000
    3.7276    0.7911   -4.7034 C   0  0  0  0  0  0  0  0  0  0  0  0
    3.7223    0.1334   -3.3098 C   0  0  0  0  0  0  0  0  0  0  0  0
    3.9670   -1.3130   -3.2846 N   0  0  2  0  0  0  0  0  0  0  0  0
    3.1470   -2.0242   -4.2771 C   0  0  0  0  0  0  0  0  0  0  0  0
    3.2919   -3.4797   -3.9495 C   0  0  0  0  0  0  0  0  0  0  0  0
    3.5781   -3.4539   -2.4650 C   0  0  0  0  0  0  0  0  0  0  0  0
    3.6482   -2.0072   -2.0126 C   0  0  1  0  0  0  0  0  0  0  0  0
    4.7185   -1.7496   -0.9174 C   0  0  0  0  0  0  0  0  0  0  0  0
    5.7957   -1.2003   -1.1645 O   0  0  0  0  0  0  0  0  0  0  0  0
    4.4238   -2.2679    0.5066 C   0  0  1  0  0  0  0  0  0  0  0  0
    3.1811   -1.5653    1.1089 C   0  0  0  0  0  0  0  0  0  0  0  0
    2.9021   -2.1390    2.5249 C   0  0  1  0  0  0  0  0  0  0  0  0
    2.6641   -3.6609    2.4425 C   0  0  0  0  0  0  0  0  0  0  0  0
    3.9079   -4.3601    1.8903 C   0  0  1  0  0  0  0  0  0  0  0  0
    4.1339   -3.8096    0.4740 C   0  0  0  0  0  0  0  0  0  0  0  0
    5.1058   -4.1059    2.8014 C   0  0  1  0  0  0  0  0  0  0  0  0
    6.2176   -4.8286    2.2909 O   0  0  0  0  0  0  0  0  0  0  0  0
    5.3545   -2.5718    2.8497 C   0  0  2  0  0  0  0  0  0  0  0  0
    4.1096   -1.8764    3.4371 C   0  0  0  0  0  0  0  0  0  0  0  0
    5.6311   -1.9826    1.4388 C   0  0  0  0  0  0  0  0  0  0  0  0
    3.6235    1.8680   -4.6034 H   0  0  0  0  0  0  0  0  0  0  0  0
    2.9075    0.4487   -5.3235 H   0  0  0  0  0  0  0  0  0  0  0  0
    4.6336    0.5880   -5.2589 H   0  0  0  0  0  0  0  0  0  0  0  0
    4.4298    0.6442   -2.6555 H   0  0  0  0  0  0  0  0  0  0  0  0
    2.7144    0.2083   -2.8948 H   0  0  0  0  0  0  0  0  0  0  0  0
    2.0933   -1.7451   -4.1617 H   0  0  0  0  0  0  0  0  0  0  0  0
    3.4444   -1.7829   -5.2908 H   0  0  0  0  0  0  0  0  0  0  0  0
    2.3624   -3.9988   -4.1544 H   0  0  0  0  0  0  0  0  0  0  0  0
    4.0973   -3.9506   -4.5208 H   0  0  0  0  0  0  0  0  0  0  0  0
    2.7664   -3.9626   -1.9526 H   0  0  0  0  0  0  0  0  0  0  0  0
    4.5056   -4.0119   -2.3243 H   0  0  0  0  0  0  0  0  0  0  0  0
    2.6426   -1.7157   -1.6901 H   0  0  0  0  0  0  0  0  0  0  0  0
    3.3215   -0.4778    1.1446 H   0  0  0  0  0  0  0  0  0  0  0  0
    2.2975   -1.7256    0.4891 H   0  0  0  0  0  0  0  0  0  0  0  0
    2.0112   -1.6545    2.9322 H   0  0  0  0  0  0  0  0  0  0  0  0
    2.3743   -4.0755    3.4078 H   0  0  0  0  0  0  0  0  0  0  0  0
    1.8430   -3.8457    1.7575 H   0  0  0  0  0  0  0  0  0  0  0  0
    3.7270   -5.4259    1.8041 H   0  0  0  0  0  0  0  0  0  0  0  0
    3.2179   -4.0665   -0.0448 H   0  0  0  0  0  0  0  0  0  0  0  0
    4.9840   -4.3328    0.0147 H   0  0  0  0  0  0  0  0  0  0  0  0
    4.8932   -4.4861    3.8042 H   0  0  0  0  0  0  0  0  0  0  0  0
    6.9797   -4.6700    2.8207 H   0  0  0  0  0  0  0  0  0  0  0  0
    6.2024   -2.3638    3.4998 H   0  0  0  0  0  0  0  0  0  0  0  0
    4.2782   -0.8063    3.5167 H   0  0  0  0  0  0  0  0  0  0  0  0
    3.9049   -2.2471    4.4399 H   0  0  0  0  0  0  0  0  0  0  0  0
    6.5253   -2.4360    1.0092 H   0  0  0  0  0  0  0  0  0  0  0  0
    5.8612   -0.9111    1.5227 H   0  0  0  0  0  0  0  0  0  0  0  0
    4.9386   -1.5399   -3.4515 H   0  0  0  0  0  0  0  0  0  0  0  0
  1  2  1  0
  1 21  1  0
  1 22  1  0
  1 23  1  0
  2  3  1  0
  2 24  1  0
  2 25  1  0
  3  7  1  0
  3  4  1  0
  3 48  1  6
  4  5  1  0
  4 26  1  0
  4 27  1  0
  5  6  1  0
  5 28  1  0
  5 29  1  0
  6  7  1  0
  6 30  1  0
  6 31  1  0
  7  8  1  0
  7 32  1  1
  8  9  2  0
 10  8  1  6
 10 15  1  0
 10 20  1  0
 10 11  1  0
 11 12  1  0
 11 33  1  0
 11 34  1  0
 12 19  1  0
 12 13  1  0
 12 35  1  1
 13 14  1  0
 13 36  1  0
 13 37  1  0
 14 15  1  0
 14 16  1  0
 14 38  1  6
 15 39  1  0
 15 40  1  0
 16 17  1  0
 16 18  1  0
 16 41  1  1
 17 42  1  0
 18 19  1  0
 18 20  1  0
 18 43  1  1
 19 44  1  0
 19 45  1  0
 20 46  1  0
 20 47  1  0
M  CHG  1   3   1
M  END
>  <i_m_ct_stereo_status>  (267) 
1

>  <s_m_source_file>  (267) 
/var/tmp/pbs.5102103.sched01/tmpndyyrgqo/88kp20v8wr.sdf

>  <i_m_source_file_index>  (267) 
13

>  <i_lp_mmshare_version>  (267) 
48012

>  <i_f3d_flags>  (267) 
0

>  <s_epik_input>  (267) 
W0NIM11bQ0gyXU4xW0NIMl1bQ0gyXVtDSDJdW0NASF0xQyg9TylbQ0BAXTIzW0NIMl1bQ0BIXTRbQ0gyXVtDQEBIXShbQ0gyXTIpW0NAQEhdKFtPSF0pW0NASF0oW0NIMl00KVtDSDJdMw==

>  <s_epik_cmdline>  (267) 
J2VwaWtfcHl0aG9uJywgJy1waHQnLCAnMi4wJywgJy1waCcsICc3LjAnLCAnLXRuJywgJzgnLCAnLW1hJywgJzIwMCcsICctaW1hZScsICc8aW5maWxlLm1hZT4nLCAnLW9tYWUnLCAnPG91dGZpbGUubWFlPic=

>  <r_epik_Ionization_Penalty>  (267) 
0.0355215

>  <r_epik_Ionization_Penalty_Charging>  (267) 
0.0355198

>  <r_epik_Ionization_Penalty_Neutral>  (267) 
1.76313e-06

>  <r_epik_State_Penalty>  (267) 
0.0296173

>  <r_epik_Charging_Adjusted_Penalty>  (267) 
0.065137

>  <i_epik_Tot_Q>  (267) 
1

>  <i_epik_Tot_abs_Q>  (267) 
1

>  <s_lp_Force_Field>  (267) 
OPLS3e

>  <r_lp_Energy>  (267) 
20.1402

>  <b_lp_Chiralities_Consistent>  (267) 
1

>  <s_lp_Variant>  (267) 
61:0-1

>  <s_i_glide_gridfile>  (267) 
pfpi4k_grid

>  <i_i_glide_lignum>  (267) 
13

>  <i_i_glide_rotatable_bonds>  (267) 
4

>  <r_i_docking_score>  (267) 
-2.79319

>  <r_i_glide_ligand_efficiency>  (267) 
-0.13966

>  <r_i_glide_ligand_efficiency_sa>  (267) 
-0.379094

>  <r_i_glide_ligand_efficiency_ln>  (267) 
-0.699044

>  <r_i_glide_gscore>  (267) 
-2.79319

>  <r_i_glide_lipo>  (267) 
-0.334213

>  <r_i_glide_hbond>  (267) 
-0.0666222

>  <r_i_glide_metal>  (267) 
-0

>  <r_i_glide_rewards>  (267) 
-1.51084

>  <r_i_glide_evdw>  (267) 
-14.412

>  <r_i_glide_ecoul>  (267) 
-3.96254

>  <r_i_glide_erotb>  (267) 
0.465103

>  <r_i_glide_esite>  (267) 
-0.0316369

>  <r_i_glide_emodel>  (267) 
-19.8699

>  <r_i_glide_energy>  (267) 
-18.3745

>  <r_i_glide_einternal>  (267) 
2.68293

>  <r_i_glide_intrahb_reward>  (267) 
-0

>  <i_i_glide_confnum>  (267) 
6

>  <i_i_glide_posenum>  (267) 
7

>  <r_i_glide_eff_state_penalty>  (267) 
0

>  <ligand_id>  (267) 
61

>  <original_smiles>  (267) 
CCN1CCCC1C(=O)C12CC3CC(C1)C(O)C(C3)C2

>  <smiles>  (267) 
[H]OC1([H])C2([H])C([H])([H])C3([H])C([H])([H])C1([H])C([H])([H])C(C(=O)C1([H])C([H])([H])C([H])([H])C([H])([H])[N+]1([H])C([H])([H])C([H])([H])[H])(C3([H])[H])C2([H])[H]

$$$$
62:0:0
     RDKit          3D

 35 37  0  0  1  0  0  0  0  0999 V2000
    1.0289  -11.7037    4.2630 C   0  0  0  0  0  0  0  0  0  0  0  0
    1.2502  -10.4088    3.5220 C   0  0  0  0  0  0  0  0  0  0  0  0
    2.4151  -10.2493    2.7509 C   0  0  0  0  0  0  0  0  0  0  0  0
    2.6486   -9.0507    2.0530 C   0  0  0  0  0  0  0  0  0  0  0  0
    1.7384   -7.9642    2.1342 C   0  0  0  0  0  0  0  0  0  0  0  0
    1.9663   -6.6758    1.4222 C   0  0  0  0  0  0  0  0  0  0  0  0
    1.0641   -5.8646    1.2140 O   0  0  0  0  0  0  0  0  0  0  0  0
    3.3651   -6.3740    0.8779 C   0  0  0  0  0  0  0  0  0  0  0  0
    4.2520   -5.0751    1.8113 S   0  0  0  0  0  0  0  0  0  0  0  0
    4.4902   -3.7783    0.5861 C   0  0  0  0  0  0  0  0  0  0  0  0
    5.2607   -2.8021    0.8583 N   0  0  0  0  0  0  0  0  0  0  0  0
    5.3984   -1.7800   -0.0903 C   0  0  0  0  0  0  0  0  0  0  0  0
    6.1724   -0.8498    0.1147 O   0  0  0  0  0  0  0  0  0  0  0  0
    4.6193   -1.8327   -1.2319 N   0  0  0  0  0  0  0  0  0  0  0  0
    4.5894   -0.7427   -2.1363 C   0  0  0  0  0  0  0  0  0  0  0  0
    3.8331   -0.7600   -3.2397 C   0  0  0  0  0  0  0  0  0  0  0  0
    3.0451   -1.9360   -3.5324 C   0  0  0  0  0  0  0  0  0  0  0  0
    3.0427   -2.9929   -2.7111 C   0  0  0  0  0  0  0  0  0  0  0  0
    3.8116   -2.9886   -1.4870 C   0  0  0  0  0  0  0  0  0  0  0  0
    3.7237   -3.9328   -0.6293 N   0  0  0  0  0  0  0  0  0  0  0  0
    0.5482   -8.1483    2.8827 C   0  0  0  0  0  0  0  0  0  0  0  0
    0.3080   -9.3582    3.5804 C   0  0  0  0  0  0  0  0  0  0  0  0
    1.8502  -11.8902    4.9498 H   0  0  0  0  0  0  0  0  0  0  0  0
    0.9641  -12.5126    3.5445 H   0  0  0  0  0  0  0  0  0  0  0  0
    0.1119  -11.6806    4.8348 H   0  0  0  0  0  0  0  0  0  0  0  0
    3.1390  -11.0559    2.6730 H   0  0  0  0  0  0  0  0  0  0  0  0
    3.5518   -9.0469    1.4618 H   0  0  0  0  0  0  0  0  0  0  0  0
    4.0487   -7.2068    0.8862 H   0  0  0  0  0  0  0  0  0  0  0  0
    3.2333   -6.1866   -0.1841 H   0  0  0  0  0  0  0  0  0  0  0  0
    5.1616    0.1352   -1.8739 H   0  0  0  0  0  0  0  0  0  0  0  0
    3.7908    0.0913   -3.8988 H   0  0  0  0  0  0  0  0  0  0  0  0
    2.4167   -1.9605   -4.4024 H   0  0  0  0  0  0  0  0  0  0  0  0
    2.4173   -3.8377   -2.9612 H   0  0  0  0  0  0  0  0  0  0  0  0
   -0.1918   -7.3587    2.9480 H   0  0  0  0  0  0  0  0  0  0  0  0
   -0.5979   -9.4804    4.1679 H   0  0  0  0  0  0  0  0  0  0  0  0
  1  2  1  0
  1 23  1  0
  1 24  1  0
  1 25  1  0
  2 22  2  0
  2  3  1  0
  3  4  2  0
  3 26  1  0
  4  5  1  0
  4 27  1  0
  5  6  1  0
  5 21  2  0
  6  7  2  0
  6  8  1  0
  8  9  1  0
  8 28  1  0
  8 29  1  0
  9 10  1  0
 10 20  1  0
 10 11  2  0
 11 12  1  0
 12 13  2  0
 12 14  1  0
 14 19  1  0
 14 15  1  0
 15 16  2  0
 15 30  1  0
 16 17  1  0
 16 31  1  0
 17 18  2  0
 17 32  1  0
 18 19  1  0
 18 33  1  0
 19 20  2  0
 21 22  1  0
 21 34  1  0
 22 35  1  0
M  END
>  <i_m_ct_stereo_status>  (268) 
1

>  <s_m_source_file>  (268) 
/var/tmp/pbs.5102103.sched01/tmpndyyrgqo/88kp20v8wr.sdf

>  <i_m_source_file_index>  (268) 
15

>  <i_lp_mmshare_version>  (268) 
48012

>  <i_f3d_flags>  (268) 
0

>  <s_epik_input>  (268) 
W0NIM11jMVtjSF1bY0hdYyhbY0hdW2NIXTEpQyg9TylbQ0gyXVNjKG5jMj1PKW5jKG4yMylbY0hdW2NIXVtjSF1bY0hdMw==

>  <s_epik_cmdline>  (268) 
J2VwaWtfcHl0aG9uJywgJy1waHQnLCAnMi4wJywgJy1waCcsICc3LjAnLCAnLXRuJywgJzgnLCAnLW1hJywgJzIwMCcsICctaW1hZScsICc8aW5maWxlLm1hZT4nLCAnLW9tYWUnLCAnPG91dGZpbGUubWFlPic=

>  <r_lp_tautomer_probability>  (268) 
1

>  <r_epik_Ionization_Penalty>  (268) 
0.000137177

>  <r_epik_Ionization_Penalty_Charging>  (268) 
0

>  <r_epik_Ionization_Penalty_Neutral>  (268) 
0.000137177

>  <r_epik_State_Penalty>  (268) 
-0

>  <r_epik_Charging_Adjusted_Penalty>  (268) 
0

>  <i_epik_Tot_Q>  (268) 
0

>  <i_epik_Tot_abs_Q>  (268) 
0

>  <s_lp_Force_Field>  (268) 
OPLS3e

>  <r_lp_Energy>  (268) 
64.507

>  <b_lp_Chiralities_Consistent>  (268) 
1

>  <s_lp_Variant>  (268) 
62:0-1

>  <s_i_glide_gridfile>  (268) 
pfpi4k_grid

>  <i_i_glide_lignum>  (268) 
15

>  <i_i_glide_rotatable_bonds>  (268) 
4

>  <r_i_docking_score>  (268) 
-3.8563

>  <r_i_glide_ligand_efficiency>  (268) 
-0.175287

>  <r_i_glide_ligand_efficiency_sa>  (268) 
-0.49116

>  <r_i_glide_ligand_efficiency_ln>  (268) 
-0.942622

>  <r_i_glide_gscore>  (268) 
-3.8563

>  <r_i_glide_lipo>  (268) 
-0.554689

>  <r_i_glide_hbond>  (268) 
-0.165307

>  <r_i_glide_metal>  (268) 
-0

>  <r_i_glide_rewards>  (268) 
-1.32524

>  <r_i_glide_evdw>  (268) 
-32.0404

>  <r_i_glide_ecoul>  (268) 
-4.67346

>  <r_i_glide_erotb>  (268) 
0.573858

>  <r_i_glide_esite>  (268) 
-0.0818824

>  <r_i_glide_emodel>  (268) 
-44.2529

>  <r_i_glide_energy>  (268) 
-36.7139

>  <r_i_glide_einternal>  (268) 
2.73832

>  <r_i_glide_intrahb_reward>  (268) 
-0

>  <i_i_glide_confnum>  (268) 
5

>  <i_i_glide_posenum>  (268) 
9

>  <r_i_glide_eff_state_penalty>  (268) 
0

>  <ligand_id>  (268) 
62

>  <original_smiles>  (268) 
Cc1ccc(C(=O)CSc2nc(=O)n3ccccc3n2)cc1

>  <smiles>  (268) 
[H]c1c([H])c(C([H])([H])[H])c([H])c([H])c1C(=O)C([H])([H])Sc1nc(=O)n2c([H])c([H])c([H])c([H])c2n1

$$$$
62:0:1
     RDKit          3D

 35 37  0  0  1  0  0  0  0  0999 V2000
    1.1404  -11.8849    4.5071 C   0  0  0  0  0  0  0  0  0  0  0  0
    1.0899  -10.5350    3.8453 C   0  0  0  0  0  0  0  0  0  0  0  0
    2.2522   -9.7497    3.8263 C   0  0  0  0  0  0  0  0  0  0  0  0
    2.2306   -8.4835    3.2221 C   0  0  0  0  0  0  0  0  0  0  0  0
    1.0447   -7.9804    2.6267 C   0  0  0  0  0  0  0  0  0  0  0  0
    0.9830   -6.6554    1.9580 C   0  0  0  0  0  0  0  0  0  0  0  0
    0.0002   -6.2744    1.3173 O   0  0  0  0  0  0  0  0  0  0  0  0
    2.1820   -5.7173    2.1059 C   0  0  0  0  0  0  0  0  0  0  0  0
    2.6108   -4.9753    0.5099 S   0  0  0  0  0  0  0  0  0  0  0  0
    4.4012   -4.8132    0.5962 C   0  0  0  0  0  0  0  0  0  0  0  0
    5.0483   -5.3773    1.5457 N   0  0  0  0  0  0  0  0  0  0  0  0
    6.4384   -5.2042    1.6280 C   0  0  0  0  0  0  0  0  0  0  0  0
    7.1003   -5.7662    2.4969 O   0  0  0  0  0  0  0  0  0  0  0  0
    7.0238   -4.3494    0.7213 N   0  0  0  0  0  0  0  0  0  0  0  0
    8.3961   -4.0186    0.8634 C   0  0  0  0  0  0  0  0  0  0  0  0
    9.0029   -3.1889    0.0029 C   0  0  0  0  0  0  0  0  0  0  0  0
    8.2498   -2.6649   -1.1103 C   0  0  0  0  0  0  0  0  0  0  0  0
    6.9472   -2.9496   -1.2871 C   0  0  0  0  0  0  0  0  0  0  0  0
    6.2487   -3.7860   -0.3420 C   0  0  0  0  0  0  0  0  0  0  0  0
    4.9795   -4.0113   -0.4389 N   0  0  0  0  0  0  0  0  0  0  0  0
   -0.1220   -8.7792    2.6545 C   0  0  0  0  0  0  0  0  0  0  0  0
   -0.0937  -10.0478    3.2620 C   0  0  0  0  0  0  0  0  0  0  0  0
    1.4430  -11.7533    5.5414 H   0  0  0  0  0  0  0  0  0  0  0  0
    1.8957  -12.4938    4.0197 H   0  0  0  0  0  0  0  0  0  0  0  0
    0.1818  -12.3979    4.4771 H   0  0  0  0  0  0  0  0  0  0  0  0
    3.1709  -10.1169    4.2713 H   0  0  0  0  0  0  0  0  0  0  0  0
    3.1740   -7.9662    3.2505 H   0  0  0  0  0  0  0  0  0  0  0  0
    1.9772   -4.9640    2.8680 H   0  0  0  0  0  0  0  0  0  0  0  0
    3.0587   -6.2606    2.4220 H   0  0  0  0  0  0  0  0  0  0  0  0
    8.9198   -4.4208    1.7244 H   0  0  0  0  0  0  0  0  0  0  0  0
   10.0378   -2.9017    0.1182 H   0  0  0  0  0  0  0  0  0  0  0  0
    8.7667   -2.0574   -1.8326 H   0  0  0  0  0  0  0  0  0  0  0  0
    6.4460   -2.5239   -2.1477 H   0  0  0  0  0  0  0  0  0  0  0  0
   -1.0491   -8.4423    2.2074 H   0  0  0  0  0  0  0  0  0  0  0  0
   -0.9867  -10.6467    3.2803 H   0  0  0  0  0  0  0  0  0  0  0  0
  1  2  1  0
  1 23  1  0
  1 24  1  0
  1 25  1  0
  2 22  2  0
  2  3  1  0
  3  4  2  0
  3 26  1  0
  4  5  1  0
  4 27  1  0
  5  6  1  0
  5 21  2  0
  6  7  2  0
  6  8  1  0
  8  9  1  0
  8 28  1  0
  8 29  1  0
  9 10  1  0
 10 20  1  0
 10 11  2  0
 11 12  1  0
 12 13  2  0
 12 14  1  0
 14 19  1  0
 14 15  1  0
 15 16  2  0
 15 30  1  0
 16 17  1  0
 16 31  1  0
 17 18  2  0
 17 32  1  0
 18 19  1  0
 18 33  1  0
 19 20  2  0
 21 22  1  0
 21 34  1  0
 22 35  1  0
M  END
>  <i_m_ct_stereo_status>  (269) 
1

>  <s_m_source_file>  (269) 
/var/tmp/pbs.5102103.sched01/tmpndyyrgqo/88kp20v8wr.sdf

>  <i_m_source_file_index>  (269) 
15

>  <i_lp_mmshare_version>  (269) 
48012

>  <i_f3d_flags>  (269) 
0

>  <s_epik_input>  (269) 
W0NIM11jMVtjSF1bY0hdYyhbY0hdW2NIXTEpQyg9TylbQ0gyXVNjKG5jMj1PKW5jKG4yMylbY0hdW2NIXVtjSF1bY0hdMw==

>  <s_epik_cmdline>  (269) 
J2VwaWtfcHl0aG9uJywgJy1waHQnLCAnMi4wJywgJy1waCcsICc3LjAnLCAnLXRuJywgJzgnLCAnLW1hJywgJzIwMCcsICctaW1hZScsICc8aW5maWxlLm1hZT4nLCAnLW9tYWUnLCAnPG91dGZpbGUubWFlPic=

>  <r_lp_tautomer_probability>  (269) 
1

>  <r_epik_Ionization_Penalty>  (269) 
0.000137177

>  <r_epik_Ionization_Penalty_Charging>  (269) 
0

>  <r_epik_Ionization_Penalty_Neutral>  (269) 
0.000137177

>  <r_epik_State_Penalty>  (269) 
-0

>  <r_epik_Charging_Adjusted_Penalty>  (269) 
0

>  <i_epik_Tot_Q>  (269) 
0

>  <i_epik_Tot_abs_Q>  (269) 
0

>  <s_lp_Force_Field>  (269) 
OPLS3e

>  <r_lp_Energy>  (269) 
64.507

>  <b_lp_Chiralities_Consistent>  (269) 
1

>  <s_lp_Variant>  (269) 
62:0-1

>  <s_i_glide_gridfile>  (269) 
pfpi4k_grid

>  <i_i_glide_lignum>  (269) 
15

>  <i_i_glide_rotatable_bonds>  (269) 
4

>  <r_i_docking_score>  (269) 
-3.36312

>  <r_i_glide_ligand_efficiency>  (269) 
-0.152869

>  <r_i_glide_ligand_efficiency_sa>  (269) 
-0.428345

>  <r_i_glide_ligand_efficiency_ln>  (269) 
-0.822069

>  <r_i_glide_gscore>  (269) 
-3.36312

>  <r_i_glide_lipo>  (269) 
-0.137

>  <r_i_glide_hbond>  (269) 
-0.267633

>  <r_i_glide_metal>  (269) 
-0

>  <r_i_glide_rewards>  (269) 
-1.71598

>  <r_i_glide_evdw>  (269) 
-25.4239

>  <r_i_glide_ecoul>  (269) 
-3.21324

>  <r_i_glide_erotb>  (269) 
0.573858

>  <r_i_glide_esite>  (269) 
-0.0631796

>  <r_i_glide_emodel>  (269) 
-36.0615

>  <r_i_glide_energy>  (269) 
-28.6372

>  <r_i_glide_einternal>  (269) 
1.17671

>  <r_i_glide_intrahb_reward>  (269) 
-0

>  <i_i_glide_confnum>  (269) 
5

>  <i_i_glide_posenum>  (269) 
6

>  <r_i_glide_eff_state_penalty>  (269) 
0

>  <ligand_id>  (269) 
62

>  <original_smiles>  (269) 
Cc1ccc(C(=O)CSc2nc(=O)n3ccccc3n2)cc1

>  <smiles>  (269) 
[H]c1c([H])c(C([H])([H])[H])c([H])c([H])c1C(=O)C([H])([H])Sc1nc(=O)n2c([H])c([H])c([H])c([H])c2n1

$$$$
62:0:2
     RDKit          3D

 35 37  0  0  1  0  0  0  0  0999 V2000
   -1.5094    2.7516    4.0336 C   0  0  0  0  0  0  0  0  0  0  0  0
   -0.3868    1.9237    3.4490 C   0  0  0  0  0  0  0  0  0  0  0  0
   -0.4908    0.5217    3.4308 C   0  0  0  0  0  0  0  0  0  0  0  0
    0.5472   -0.2593    2.8851 C   0  0  0  0  0  0  0  0  0  0  0  0
    1.7008    0.3491    2.3375 C   0  0  0  0  0  0  0  0  0  0  0  0
    2.8009   -0.4533    1.7290 C   0  0  0  0  0  0  0  0  0  0  0  0
    3.8156    0.0518    1.2441 O   0  0  0  0  0  0  0  0  0  0  0  0
    2.6366   -1.9798    1.7528 C   0  0  0  0  0  0  0  0  0  0  0  0
    3.9974   -2.8433    0.9063 S   0  0  0  0  0  0  0  0  0  0  0  0
    3.5194   -4.5751    1.0020 C   0  0  0  0  0  0  0  0  0  0  0  0
    2.2832   -4.8710    1.1338 N   0  0  0  0  0  0  0  0  0  0  0  0
    1.9219   -6.2182    1.2644 C   0  0  0  0  0  0  0  0  0  0  0  0
    0.7370   -6.5462    1.3110 O   0  0  0  0  0  0  0  0  0  0  0  0
    2.9331   -7.1451    1.3748 N   0  0  0  0  0  0  0  0  0  0  0  0
    2.6175   -8.4915    1.6926 C   0  0  0  0  0  0  0  0  0  0  0  0
    3.5707   -9.4297    1.8033 C   0  0  0  0  0  0  0  0  0  0  0  0
    4.9474   -9.0606    1.5754 C   0  0  0  0  0  0  0  0  0  0  0  0
    5.2938   -7.7950    1.2787 C   0  0  0  0  0  0  0  0  0  0  0  0
    4.2957   -6.7519    1.1743 C   0  0  0  0  0  0  0  0  0  0  0  0
    4.6048   -5.5156    0.9520 N   0  0  0  0  0  0  0  0  0  0  0  0
    1.7974    1.7568    2.3644 C   0  0  0  0  0  0  0  0  0  0  0  0
    0.7636    2.5393    2.9157 C   0  0  0  0  0  0  0  0  0  0  0  0
   -1.6645    2.4803    5.0774 H   0  0  0  0  0  0  0  0  0  0  0  0
   -2.4367    2.5793    3.4867 H   0  0  0  0  0  0  0  0  0  0  0  0
   -1.2788    3.8140    3.9889 H   0  0  0  0  0  0  0  0  0  0  0  0
   -1.3791    0.0450    3.8231 H   0  0  0  0  0  0  0  0  0  0  0  0
    0.4214   -1.3326    2.8846 H   0  0  0  0  0  0  0  0  0  0  0  0
    2.5994   -2.3110    2.7928 H   0  0  0  0  0  0  0  0  0  0  0  0
    1.7025   -2.2525    1.2641 H   0  0  0  0  0  0  0  0  0  0  0  0
    1.5740   -8.7294    1.8593 H   0  0  0  0  0  0  0  0  0  0  0  0
    3.3220  -10.4530    2.0451 H   0  0  0  0  0  0  0  0  0  0  0  0
    5.7162   -9.8098    1.6687 H   0  0  0  0  0  0  0  0  0  0  0  0
    6.3459   -7.5767    1.1402 H   0  0  0  0  0  0  0  0  0  0  0  0
    2.6616    2.2516    1.9490 H   0  0  0  0  0  0  0  0  0  0  0  0
    0.8511    3.6163    2.8969 H   0  0  0  0  0  0  0  0  0  0  0  0
  1  2  1  0
  1 23  1  0
  1 24  1  0
  1 25  1  0
  2 22  2  0
  2  3  1  0
  3  4  2  0
  3 26  1  0
  4  5  1  0
  4 27  1  0
  5  6  1  0
  5 21  2  0
  6  7  2  0
  6  8  1  0
  8  9  1  0
  8 28  1  0
  8 29  1  0
  9 10  1  0
 10 20  1  0
 10 11  2  0
 11 12  1  0
 12 13  2  0
 12 14  1  0
 14 19  1  0
 14 15  1  0
 15 16  2  0
 15 30  1  0
 16 17  1  0
 16 31  1  0
 17 18  2  0
 17 32  1  0
 18 19  1  0
 18 33  1  0
 19 20  2  0
 21 22  1  0
 21 34  1  0
 22 35  1  0
M  END
>  <i_m_ct_stereo_status>  (270) 
1

>  <s_m_source_file>  (270) 
/var/tmp/pbs.5102103.sched01/tmpndyyrgqo/88kp20v8wr.sdf

>  <i_m_source_file_index>  (270) 
15

>  <i_lp_mmshare_version>  (270) 
48012

>  <i_f3d_flags>  (270) 
0

>  <s_epik_input>  (270) 
W0NIM11jMVtjSF1bY0hdYyhbY0hdW2NIXTEpQyg9TylbQ0gyXVNjKG5jMj1PKW5jKG4yMylbY0hdW2NIXVtjSF1bY0hdMw==

>  <s_epik_cmdline>  (270) 
J2VwaWtfcHl0aG9uJywgJy1waHQnLCAnMi4wJywgJy1waCcsICc3LjAnLCAnLXRuJywgJzgnLCAnLW1hJywgJzIwMCcsICctaW1hZScsICc8aW5maWxlLm1hZT4nLCAnLW9tYWUnLCAnPG91dGZpbGUubWFlPic=

>  <r_lp_tautomer_probability>  (270) 
1

>  <r_epik_Ionization_Penalty>  (270) 
0.000137177

>  <r_epik_Ionization_Penalty_Charging>  (270) 
0

>  <r_epik_Ionization_Penalty_Neutral>  (270) 
0.000137177

>  <r_epik_State_Penalty>  (270) 
-0

>  <r_epik_Charging_Adjusted_Penalty>  (270) 
0

>  <i_epik_Tot_Q>  (270) 
0

>  <i_epik_Tot_abs_Q>  (270) 
0

>  <s_lp_Force_Field>  (270) 
OPLS3e

>  <r_lp_Energy>  (270) 
64.507

>  <b_lp_Chiralities_Consistent>  (270) 
1

>  <s_lp_Variant>  (270) 
62:0-1

>  <s_i_glide_gridfile>  (270) 
pfpi4k_grid

>  <i_i_glide_lignum>  (270) 
15

>  <i_i_glide_rotatable_bonds>  (270) 
4

>  <r_i_docking_score>  (270) 
-2.99453

>  <r_i_glide_ligand_efficiency>  (270) 
-0.136115

>  <r_i_glide_ligand_efficiency_sa>  (270) 
-0.3814

>  <r_i_glide_ligand_efficiency_ln>  (270) 
-0.731973

>  <r_i_glide_gscore>  (270) 
-2.99453

>  <r_i_glide_lipo>  (270) 
-0.0796984

>  <r_i_glide_hbond>  (270) 
-0.121673

>  <r_i_glide_metal>  (270) 
-0

>  <r_i_glide_rewards>  (270) 
-1.47373

>  <r_i_glide_evdw>  (270) 
-27.7572

>  <r_i_glide_ecoul>  (270) 
-2.81766

>  <r_i_glide_erotb>  (270) 
0.573858

>  <r_i_glide_esite>  (270) 
-0.0827787

>  <r_i_glide_emodel>  (270) 
-37.3578

>  <r_i_glide_energy>  (270) 
-30.5749

>  <r_i_glide_einternal>  (270) 
0.919469

>  <r_i_glide_intrahb_reward>  (270) 
-0

>  <i_i_glide_confnum>  (270) 
5

>  <i_i_glide_posenum>  (270) 
27

>  <r_i_glide_eff_state_penalty>  (270) 
0

>  <ligand_id>  (270) 
62

>  <original_smiles>  (270) 
Cc1ccc(C(=O)CSc2nc(=O)n3ccccc3n2)cc1

>  <smiles>  (270) 
[H]c1c([H])c(C([H])([H])[H])c([H])c([H])c1C(=O)C([H])([H])Sc1nc(=O)n2c([H])c([H])c([H])c([H])c2n1

$$$$
63:0:0
     RDKit          3D

 37 38  0  0  1  0  0  0  0  0999 V2000
    5.1892   -0.3386    2.9088 C   0  0  0  0  0  0  0  0  0  0  0  0
    4.8041   -0.8796    1.6613 O   0  0  0  0  0  0  0  0  0  0  0  0
    5.7184   -1.4505    0.8518 C   0  0  0  0  0  0  0  0  0  0  0  0
    6.9385   -1.4053    0.9664 O   0  0  0  0  0  0  0  0  0  0  0  0
    5.0013   -2.2771   -0.2355 C   0  0  2  0  0  0  0  0  0  0  0  0
    4.5298   -1.3028   -1.3167 C   0  0  0  0  0  0  0  0  0  0  0  0
    3.8111   -2.1854   -2.7537 S   0  0  0  0  0  0  0  0  0  0  0  0
    3.0889   -1.2402   -3.5948 O   0  0  0  0  0  0  0  0  0  0  0  0
    4.8540   -3.0240   -3.3535 O   0  0  0  0  0  0  0  0  0  0  0  0
    2.6415   -3.2682   -1.8673 C   0  0  0  0  0  0  0  0  0  0  0  0
    3.3729   -4.0091   -0.7520 C   0  0  0  0  0  0  0  0  0  0  0  0
    3.8948   -3.1223    0.3015 N   0  0  0  0  0  0  0  0  0  0  0  0
    4.3264   -3.9540    1.4399 C   0  0  0  0  0  0  0  0  0  0  0  0
    3.1781   -4.5069    2.2434 C   0  0  0  0  0  0  0  0  0  0  0  0
    2.7881   -5.8421    2.0506 C   0  0  0  0  0  0  0  0  0  0  0  0
    1.7292   -6.3733    2.8029 C   0  0  0  0  0  0  0  0  0  0  0  0
    1.0770   -5.5694    3.7608 C   0  0  0  0  0  0  0  0  0  0  0  0
    1.4705   -4.2281    3.9575 C   0  0  0  0  0  0  0  0  0  0  0  0
    0.8044   -3.4094    4.9616 C   0  0  0  0  0  0  0  0  0  0  0  0
    0.2743   -2.7606    5.7615 N   0  0  0  0  0  0  0  0  0  0  0  0
    2.5214   -3.6884    3.1921 C   0  0  0  0  0  0  0  0  0  0  0  0
    4.3079    0.0162    3.4488 H   0  0  0  0  0  0  0  0  0  0  0  0
    5.8447    0.5055    2.7263 H   0  0  0  0  0  0  0  0  0  0  0  0
    5.7036   -1.0635    3.5471 H   0  0  0  0  0  0  0  0  0  0  0  0
    5.7317   -2.9584   -0.6697 H   0  0  0  0  0  0  0  0  0  0  0  0
    3.7474   -0.6565   -0.9368 H   0  0  0  0  0  0  0  0  0  0  0  0
    5.3502   -0.6792   -1.6964 H   0  0  0  0  0  0  0  0  0  0  0  0
    1.8318   -2.6577   -1.4904 H   0  0  0  0  0  0  0  0  0  0  0  0
    2.1981   -3.9501   -2.6039 H   0  0  0  0  0  0  0  0  0  0  0  0
    2.6423   -4.7115   -0.3508 H   0  0  0  0  0  0  0  0  0  0  0  0
    4.1794   -4.6259   -1.1562 H   0  0  0  0  0  0  0  0  0  0  0  0
    5.0015   -4.7388    1.0982 H   0  0  0  0  0  0  0  0  0  0  0  0
    4.8765   -3.4414    2.2206 H   0  0  0  0  0  0  0  0  0  0  0  0
    3.2999   -6.4416    1.3080 H   0  0  0  0  0  0  0  0  0  0  0  0
    1.4422   -7.4048    2.6482 H   0  0  0  0  0  0  0  0  0  0  0  0
    0.2816   -6.0004    4.3520 H   0  0  0  0  0  0  0  0  0  0  0  0
    2.8339   -2.6549    3.3298 H   0  0  0  0  0  0  0  0  0  0  0  0
  1  2  1  0
  1 22  1  0
  1 23  1  0
  1 24  1  0
  2  3  1  0
  3  4  2  0
  3  5  1  0
  5 12  1  0
  5  6  1  0
  5 25  1  6
  6  7  1  0
  6 26  1  0
  6 27  1  0
  7  8  2  0
  7  9  2  0
  7 10  1  0
 10 11  1  0
 10 28  1  0
 10 29  1  0
 11 12  1  0
 11 30  1  0
 11 31  1  0
 12 13  1  0
 13 14  1  0
 13 32  1  0
 13 33  1  0
 14 21  1  0
 14 15  2  0
 15 16  1  0
 15 34  1  0
 16 17  2  0
 16 35  1  0
 17 18  1  0
 17 36  1  0
 18 19  1  0
 18 21  2  0
 19 20  3  0
 21 37  1  0
M  END
>  <i_m_ct_stereo_status>  (271) 
1

>  <s_m_source_file>  (271) 
/var/tmp/pbs.5102103.sched01/tmpndyyrgqo/88kp20v8wr.sdf

>  <i_m_source_file_index>  (271) 
16

>  <i_lp_mmshare_version>  (271) 
48012

>  <i_f3d_flags>  (271) 
0

>  <s_epik_input>  (271) 
W0NIM11PQyg9TylbQ0BIXShbQ0gyXVMxKD1PKT1PKU4oW0NIMl1bQ0gyXTEpW0NIMl1jMltjSF1bY0hdW2NIXWMoQyNOKVtjSF0y

>  <s_epik_cmdline>  (271) 
J2VwaWtfcHl0aG9uJywgJy1waHQnLCAnMi4wJywgJy1waCcsICc3LjAnLCAnLXRuJywgJzgnLCAnLW1hJywgJzIwMCcsICctaW1hZScsICc8aW5maWxlLm1hZT4nLCAnLW9tYWUnLCAnPG91dGZpbGUubWFlPic=

>  <r_epik_Ionization_Penalty>  (271) 
0.000621816

>  <r_epik_Ionization_Penalty_Charging>  (271) 
0

>  <r_epik_Ionization_Penalty_Neutral>  (271) 
0.000621816

>  <r_epik_State_Penalty>  (271) 
0.00039258

>  <r_epik_Charging_Adjusted_Penalty>  (271) 
0.00039258

>  <i_epik_Tot_Q>  (271) 
0

>  <i_epik_Tot_abs_Q>  (271) 
0

>  <s_epik_Chemistry_Notes>  (271) 
This compound has an ester and may undergo hydrolysis at high or low pH.

>  <s_lp_Force_Field>  (271) 
OPLS3e

>  <r_lp_Energy>  (271) 
14.7456

>  <b_lp_Chiralities_Consistent>  (271) 
1

>  <s_lp_Variant>  (271) 
63:0-1

>  <s_i_glide_gridfile>  (271) 
pfpi4k_grid

>  <i_i_glide_lignum>  (271) 
16

>  <i_i_glide_rotatable_bonds>  (271) 
5

>  <r_i_docking_score>  (271) 
-3.07233

>  <r_i_glide_ligand_efficiency>  (271) 
-0.146301

>  <r_i_glide_ligand_efficiency_sa>  (271) 
-0.403635

>  <r_i_glide_ligand_efficiency_ln>  (271) 
-0.759627

>  <r_i_glide_gscore>  (271) 
-3.07233

>  <r_i_glide_lipo>  (271) 
-0.255941

>  <r_i_glide_hbond>  (271) 
0

>  <r_i_glide_metal>  (271) 
-0

>  <r_i_glide_rewards>  (271) 
-1.52649

>  <r_i_glide_evdw>  (271) 
-26.6261

>  <r_i_glide_ecoul>  (271) 
-3.61542

>  <r_i_glide_erotb>  (271) 
0.583716

>  <r_i_glide_esite>  (271) 
0

>  <r_i_glide_emodel>  (271) 
-34.7035

>  <r_i_glide_energy>  (271) 
-30.2415

>  <r_i_glide_einternal>  (271) 
1.67502

>  <r_i_glide_intrahb_reward>  (271) 
-0

>  <i_i_glide_confnum>  (271) 
2

>  <i_i_glide_posenum>  (271) 
16

>  <r_i_glide_eff_state_penalty>  (271) 
0

>  <ligand_id>  (271) 
63

>  <original_smiles>  (271) 
COC(=O)C1CS(=O)(=O)CCN1Cc1cccc(C#N)c1

>  <smiles>  (271) 
[H]c1c([H])c(C#N)c([H])c(C([H])([H])N2C([H])([H])C([H])([H])S(=O)(=O)C([H])([H])C2([H])C(=O)OC([H])([H])[H])c1[H]

$$$$
63:0:1
     RDKit          3D

 37 38  0  0  1  0  0  0  0  0999 V2000
    4.4541   -8.5683    0.5218 C   0  0  0  0  0  0  0  0  0  0  0  0
    3.9015   -7.5058    1.2653 O   0  0  0  0  0  0  0  0  0  0  0  0
    4.5724   -7.0366    2.3193 C   0  0  0  0  0  0  0  0  0  0  0  0
    5.7014   -7.3809    2.6559 O   0  0  0  0  0  0  0  0  0  0  0  0
    3.7753   -5.9174    2.9947 C   0  0  2  0  0  0  0  0  0  0  0  0
    2.4011   -6.4938    3.3691 C   0  0  0  0  0  0  0  0  0  0  0  0
    1.4175   -5.2993    4.3567 S   0  0  0  0  0  0  0  0  0  0  0  0
    0.0212   -5.7321    4.3653 O   0  0  0  0  0  0  0  0  0  0  0  0
    2.1133   -5.0328    5.6067 O   0  0  0  0  0  0  0  0  0  0  0  0
    1.5918   -3.8224    3.2928 C   0  0  0  0  0  0  0  0  0  0  0  0
    3.0600   -3.5906    2.9608 C   0  0  0  0  0  0  0  0  0  0  0  0
    3.6564   -4.6829    2.1714 N   0  0  0  0  0  0  0  0  0  0  0  0
    4.9729   -4.2353    1.6768 C   0  0  0  0  0  0  0  0  0  0  0  0
    4.8976   -3.2963    0.5023 C   0  0  0  0  0  0  0  0  0  0  0  0
    4.9444   -1.9077    0.7233 C   0  0  0  0  0  0  0  0  0  0  0  0
    4.8709   -1.0282   -0.3674 C   0  0  0  0  0  0  0  0  0  0  0  0
    4.7770   -1.5279   -1.6724 C   0  0  0  0  0  0  0  0  0  0  0  0
    4.7367   -2.9254   -1.8859 C   0  0  0  0  0  0  0  0  0  0  0  0
    4.6623   -3.4533   -3.2200 C   0  0  0  0  0  0  0  0  0  0  0  0
    4.6107   -3.8775   -4.2775 N   0  0  0  0  0  0  0  0  0  0  0  0
    4.7936   -3.8189   -0.7978 C   0  0  0  0  0  0  0  0  0  0  0  0
    3.8214   -8.8307   -0.3139 H   0  0  0  0  0  0  0  0  0  0  0  0
    4.5657   -9.4497    1.1515 H   0  0  0  0  0  0  0  0  0  0  0  0
    5.4109   -8.2797    0.1320 H   0  0  0  0  0  0  0  0  0  0  0  0
    4.2965   -5.6412    3.9071 H   0  0  0  0  0  0  0  0  0  0  0  0
    1.8099   -6.7083    2.4809 H   0  0  0  0  0  0  0  0  0  0  0  0
    2.4871   -7.4115    3.9573 H   0  0  0  0  0  0  0  0  0  0  0  0
    1.0144   -4.0294    2.4036 H   0  0  0  0  0  0  0  0  0  0  0  0
    1.1339   -2.9683    3.7950 H   0  0  0  0  0  0  0  0  0  0  0  0
    3.0759   -2.6593    2.4077 H   0  0  0  0  0  0  0  0  0  0  0  0
    3.6312   -3.4216    3.8737 H   0  0  0  0  0  0  0  0  0  0  0  0
    5.5537   -3.7988    2.4919 H   0  0  0  0  0  0  0  0  0  0  0  0
    5.6195   -5.0083    1.2657 H   0  0  0  0  0  0  0  0  0  0  0  0
    5.0054   -1.5284    1.7341 H   0  0  0  0  0  0  0  0  0  0  0  0
    4.8882    0.0333   -0.1796 H   0  0  0  0  0  0  0  0  0  0  0  0
    4.7350   -0.8439   -2.5080 H   0  0  0  0  0  0  0  0  0  0  0  0
    4.7584   -4.8940   -0.9723 H   0  0  0  0  0  0  0  0  0  0  0  0
  1  2  1  0
  1 22  1  0
  1 23  1  0
  1 24  1  0
  2  3  1  0
  3  4  2  0
  3  5  1  0
  5 12  1  0
  5  6  1  0
  5 25  1  1
  6  7  1  0
  6 26  1  0
  6 27  1  0
  7  8  2  0
  7  9  2  0
  7 10  1  0
 10 11  1  0
 10 28  1  0
 10 29  1  0
 11 12  1  0
 11 30  1  0
 11 31  1  0
 12 13  1  0
 13 14  1  0
 13 32  1  0
 13 33  1  0
 14 21  1  0
 14 15  2  0
 15 16  1  0
 15 34  1  0
 16 17  2  0
 16 35  1  0
 17 18  1  0
 17 36  1  0
 18 19  1  0
 18 21  2  0
 19 20  3  0
 21 37  1  0
M  END
>  <i_m_ct_stereo_status>  (272) 
1

>  <s_m_source_file>  (272) 
/var/tmp/pbs.5102103.sched01/tmpndyyrgqo/88kp20v8wr.sdf

>  <i_m_source_file_index>  (272) 
16

>  <i_lp_mmshare_version>  (272) 
48012

>  <i_f3d_flags>  (272) 
0

>  <s_epik_input>  (272) 
W0NIM11PQyg9TylbQ0BIXShbQ0gyXVMxKD1PKT1PKU4oW0NIMl1bQ0gyXTEpW0NIMl1jMltjSF1bY0hdW2NIXWMoQyNOKVtjSF0y

>  <s_epik_cmdline>  (272) 
J2VwaWtfcHl0aG9uJywgJy1waHQnLCAnMi4wJywgJy1waCcsICc3LjAnLCAnLXRuJywgJzgnLCAnLW1hJywgJzIwMCcsICctaW1hZScsICc8aW5maWxlLm1hZT4nLCAnLW9tYWUnLCAnPG91dGZpbGUubWFlPic=

>  <r_epik_Ionization_Penalty>  (272) 
0.000621816

>  <r_epik_Ionization_Penalty_Charging>  (272) 
0

>  <r_epik_Ionization_Penalty_Neutral>  (272) 
0.000621816

>  <r_epik_State_Penalty>  (272) 
0.00039258

>  <r_epik_Charging_Adjusted_Penalty>  (272) 
0.00039258

>  <i_epik_Tot_Q>  (272) 
0

>  <i_epik_Tot_abs_Q>  (272) 
0

>  <s_epik_Chemistry_Notes>  (272) 
This compound has an ester and may undergo hydrolysis at high or low pH.

>  <s_lp_Force_Field>  (272) 
OPLS3e

>  <r_lp_Energy>  (272) 
14.7456

>  <b_lp_Chiralities_Consistent>  (272) 
1

>  <s_lp_Variant>  (272) 
63:0-1

>  <s_i_glide_gridfile>  (272) 
pfpi4k_grid

>  <i_i_glide_lignum>  (272) 
16

>  <i_i_glide_rotatable_bonds>  (272) 
5

>  <r_i_docking_score>  (272) 
-2.72083

>  <r_i_glide_ligand_efficiency>  (272) 
-0.129564

>  <r_i_glide_ligand_efficiency_sa>  (272) 
-0.357456

>  <r_i_glide_ligand_efficiency_ln>  (272) 
-0.672721

>  <r_i_glide_gscore>  (272) 
-2.72083

>  <r_i_glide_lipo>  (272) 
-0.136338

>  <r_i_glide_hbond>  (272) 
-0.0142439

>  <r_i_glide_metal>  (272) 
-0

>  <r_i_glide_rewards>  (272) 
-1.51297

>  <r_i_glide_evdw>  (272) 
-20.9396

>  <r_i_glide_ecoul>  (272) 
-3.77166

>  <r_i_glide_erotb>  (272) 
0.583716

>  <r_i_glide_esite>  (272) 
-0.0282756

>  <r_i_glide_emodel>  (272) 
-28.9539

>  <r_i_glide_energy>  (272) 
-24.7112

>  <r_i_glide_einternal>  (272) 
0.676906

>  <r_i_glide_intrahb_reward>  (272) 
-0

>  <i_i_glide_confnum>  (272) 
4

>  <i_i_glide_posenum>  (272) 
12

>  <r_i_glide_eff_state_penalty>  (272) 
0

>  <ligand_id>  (272) 
63

>  <original_smiles>  (272) 
COC(=O)C1CS(=O)(=O)CCN1Cc1cccc(C#N)c1

>  <smiles>  (272) 
[H]c1c([H])c(C#N)c([H])c(C([H])([H])N2C([H])([H])C([H])([H])S(=O)(=O)C([H])([H])C2([H])C(=O)OC([H])([H])[H])c1[H]

$$$$
63:0:2
     RDKit          3D

 37 38  0  0  1  0  0  0  0  0999 V2000
    0.6420   -2.1037    3.9778 C   0  0  0  0  0  0  0  0  0  0  0  0
    1.4983   -2.9196    3.2106 O   0  0  0  0  0  0  0  0  0  0  0  0
    2.7187   -3.2214    3.6724 C   0  0  0  0  0  0  0  0  0  0  0  0
    3.2081   -2.8226    4.7276 O   0  0  0  0  0  0  0  0  0  0  0  0
    3.4022   -4.2183    2.7254 C   0  0  2  0  0  0  0  0  0  0  0  0
    3.6737   -3.4918    1.3987 C   0  0  0  0  0  0  0  0  0  0  0  0
    4.6406   -4.5348    0.2398 S   0  0  0  0  0  0  0  0  0  0  0  0
    4.5803   -3.9514   -1.0928 O   0  0  0  0  0  0  0  0  0  0  0  0
    5.9373   -4.8309    0.8553 O   0  0  0  0  0  0  0  0  0  0  0  0
    3.6322   -6.0537    0.3102 C   0  0  0  0  0  0  0  0  0  0  0  0
    3.4181   -6.4610    1.7612 C   0  0  0  0  0  0  0  0  0  0  0  0
    2.6284   -5.4748    2.5261 N   0  0  0  0  0  0  0  0  0  0  0  0
    2.2198   -6.0919    3.8027 C   0  0  0  0  0  0  0  0  0  0  0  0
    1.0552   -7.0321    3.6328 C   0  0  0  0  0  0  0  0  0  0  0  0
   -0.2625   -6.5309    3.6266 C   0  0  0  0  0  0  0  0  0  0  0  0
   -1.3501   -7.4033    3.4093 C   0  0  0  0  0  0  0  0  0  0  0  0
   -1.1100   -8.7738    3.2120 C   0  0  0  0  0  0  0  0  0  0  0  0
    0.2103   -9.2634    3.2516 C   0  0  0  0  0  0  0  0  0  0  0  0
    0.4880  -10.6615    3.0635 C   0  0  0  0  0  0  0  0  0  0  0  0
    0.7108  -11.7817    2.9172 N   0  0  0  0  0  0  0  0  0  0  0  0
    1.2911   -8.4015    3.4733 C   0  0  0  0  0  0  0  0  0  0  0  0
   -0.3067   -1.9911    3.4595 H   0  0  0  0  0  0  0  0  0  0  0  0
    1.0969   -1.1204    4.0730 H   0  0  0  0  0  0  0  0  0  0  0  0
    0.4369   -2.5206    4.9677 H   0  0  0  0  0  0  0  0  0  0  0  0
    4.3550   -4.5109    3.1598 H   0  0  0  0  0  0  0  0  0  0  0  0
    2.7480   -3.2512    0.8790 H   0  0  0  0  0  0  0  0  0  0  0  0
    4.2432   -2.5668    1.5464 H   0  0  0  0  0  0  0  0  0  0  0  0
    2.6975   -5.8412   -0.2073 H   0  0  0  0  0  0  0  0  0  0  0  0
    4.1609   -6.8300   -0.2594 H   0  0  0  0  0  0  0  0  0  0  0  0
    2.9061   -7.4150    1.6847 H   0  0  0  0  0  0  0  0  0  0  0  0
    4.3696   -6.6619    2.2576 H   0  0  0  0  0  0  0  0  0  0  0  0
    3.0700   -6.5877    4.2727 H   0  0  0  0  0  0  0  0  0  0  0  0
    1.8352   -5.4303    4.5778 H   0  0  0  0  0  0  0  0  0  0  0  0
   -0.4212   -5.4676    3.7702 H   0  0  0  0  0  0  0  0  0  0  0  0
   -2.3672   -7.0384    3.3882 H   0  0  0  0  0  0  0  0  0  0  0  0
   -1.9379   -9.4529    3.0587 H   0  0  0  0  0  0  0  0  0  0  0  0
    2.3098   -8.7706    3.4854 H   0  0  0  0  0  0  0  0  0  0  0  0
  1  2  1  0
  1 22  1  0
  1 23  1  0
  1 24  1  0
  2  3  1  0
  3  4  2  0
  3  5  1  0
  5 12  1  0
  5  6  1  0
  5 25  1  1
  6  7  1  0
  6 26  1  0
  6 27  1  0
  7  8  2  0
  7  9  2  0
  7 10  1  0
 10 11  1  0
 10 28  1  0
 10 29  1  0
 11 12  1  0
 11 30  1  0
 11 31  1  0
 12 13  1  0
 13 14  1  0
 13 32  1  0
 13 33  1  0
 14 21  1  0
 14 15  2  0
 15 16  1  0
 15 34  1  0
 16 17  2  0
 16 35  1  0
 17 18  1  0
 17 36  1  0
 18 19  1  0
 18 21  2  0
 19 20  3  0
 21 37  1  0
M  END
>  <i_m_ct_stereo_status>  (273) 
1

>  <s_m_source_file>  (273) 
/var/tmp/pbs.5102103.sched01/tmpndyyrgqo/88kp20v8wr.sdf

>  <i_m_source_file_index>  (273) 
16

>  <i_lp_mmshare_version>  (273) 
48012

>  <i_f3d_flags>  (273) 
0

>  <s_epik_input>  (273) 
W0NIM11PQyg9TylbQ0BIXShbQ0gyXVMxKD1PKT1PKU4oW0NIMl1bQ0gyXTEpW0NIMl1jMltjSF1bY0hdW2NIXWMoQyNOKVtjSF0y

>  <s_epik_cmdline>  (273) 
J2VwaWtfcHl0aG9uJywgJy1waHQnLCAnMi4wJywgJy1waCcsICc3LjAnLCAnLXRuJywgJzgnLCAnLW1hJywgJzIwMCcsICctaW1hZScsICc8aW5maWxlLm1hZT4nLCAnLW9tYWUnLCAnPG91dGZpbGUubWFlPic=

>  <r_epik_Ionization_Penalty>  (273) 
0.000621816

>  <r_epik_Ionization_Penalty_Charging>  (273) 
0

>  <r_epik_Ionization_Penalty_Neutral>  (273) 
0.000621816

>  <r_epik_State_Penalty>  (273) 
0.00039258

>  <r_epik_Charging_Adjusted_Penalty>  (273) 
0.00039258

>  <i_epik_Tot_Q>  (273) 
0

>  <i_epik_Tot_abs_Q>  (273) 
0

>  <s_epik_Chemistry_Notes>  (273) 
This compound has an ester and may undergo hydrolysis at high or low pH.

>  <s_lp_Force_Field>  (273) 
OPLS3e

>  <r_lp_Energy>  (273) 
14.7456

>  <b_lp_Chiralities_Consistent>  (273) 
1

>  <s_lp_Variant>  (273) 
63:0-1

>  <s_i_glide_gridfile>  (273) 
pfpi4k_grid

>  <i_i_glide_lignum>  (273) 
16

>  <i_i_glide_rotatable_bonds>  (273) 
5

>  <r_i_docking_score>  (273) 
-1.93087

>  <r_i_glide_ligand_efficiency>  (273) 
-0.091946

>  <r_i_glide_ligand_efficiency_sa>  (273) 
-0.253672

>  <r_i_glide_ligand_efficiency_ln>  (273) 
-0.477403

>  <r_i_glide_gscore>  (273) 
-1.93087

>  <r_i_glide_lipo>  (273) 
-0.0852124

>  <r_i_glide_hbond>  (273) 
0

>  <r_i_glide_metal>  (273) 
-0

>  <r_i_glide_rewards>  (273) 
-1.43253

>  <r_i_glide_evdw>  (273) 
-18.4481

>  <r_i_glide_ecoul>  (273) 
-0.40436

>  <r_i_glide_erotb>  (273) 
0.583716

>  <r_i_glide_esite>  (273) 
-0.0137801

>  <r_i_glide_emodel>  (273) 
-21.7766

>  <r_i_glide_energy>  (273) 
-18.8525

>  <r_i_glide_einternal>  (273) 
0.557795

>  <r_i_glide_intrahb_reward>  (273) 
-0

>  <i_i_glide_confnum>  (273) 
5

>  <i_i_glide_posenum>  (273) 
22

>  <r_i_glide_eff_state_penalty>  (273) 
0

>  <ligand_id>  (273) 
63

>  <original_smiles>  (273) 
COC(=O)C1CS(=O)(=O)CCN1Cc1cccc(C#N)c1

>  <smiles>  (273) 
[H]c1c([H])c(C#N)c([H])c(C([H])([H])N2C([H])([H])C([H])([H])S(=O)(=O)C([H])([H])C2([H])C(=O)OC([H])([H])[H])c1[H]

$$$$
64:0:0
     RDKit          3D

 24 26  0  0  1  0  0  0  0  0999 V2000
    2.0119   -2.0346    2.5071 C   0  0  0  0  0  0  0  0  0  0  0  0
    1.9499   -0.6976    2.0817 C   0  0  0  0  0  0  0  0  0  0  0  0
    1.1873    0.2114    2.8313 C   0  0  0  0  0  0  0  0  0  0  0  0
    0.4679   -0.2416    3.9616 C   0  0  0  0  0  0  0  0  0  0  0  0
   -0.3804    0.6528    4.7881 C   0  0  0  0  0  0  0  0  0  0  0  0
   -0.3880    0.5506    6.1685 C   0  0  0  0  0  0  0  0  0  0  0  0
   -1.1516    1.4270    6.9783 C   0  0  0  0  0  0  0  0  0  0  0  0
   -1.9109    2.4062    6.3932 C   0  0  0  0  0  0  0  0  0  0  0  0
   -1.9302    2.5381    4.9822 C   0  0  0  0  0  0  0  0  0  0  0  0
   -2.5809    3.3950    4.2027 N   0  0  0  0  0  0  0  0  0  0  0  0
   -2.2484    3.0506    2.9051 C   0  0  0  0  0  0  0  0  0  0  0  0
   -1.3934    1.9867    2.8843 C   0  0  0  0  0  0  0  0  0  0  0  0
   -1.1535    1.6338    4.2089 N   0  0  0  0  0  0  0  0  0  0  0  0
    0.5409   -1.5327    4.3720 N   0  0  0  0  0  0  0  0  0  0  0  0
    1.2998   -2.3968    3.6653 C   0  0  0  0  0  0  0  0  0  0  0  0
    2.5874   -2.7592    1.9531 H   0  0  0  0  0  0  0  0  0  0  0  0
    2.4647   -0.3723    1.1886 H   0  0  0  0  0  0  0  0  0  0  0  0
    1.1579    1.2433    2.5208 H   0  0  0  0  0  0  0  0  0  0  0  0
    0.2340   -0.2098    6.6378 H   0  0  0  0  0  0  0  0  0  0  0  0
   -1.1301    1.3438    8.0625 H   0  0  0  0  0  0  0  0  0  0  0  0
   -2.5005    3.0910    6.9939 H   0  0  0  0  0  0  0  0  0  0  0  0
   -2.6668    3.6076    2.0822 H   0  0  0  0  0  0  0  0  0  0  0  0
   -0.9593    1.4555    2.0469 H   0  0  0  0  0  0  0  0  0  0  0  0
    1.3279   -3.4146    4.0217 H   0  0  0  0  0  0  0  0  0  0  0  0
  1 15  2  0
  1  2  1  0
  1 16  1  0
  2  3  2  0
  2 17  1  0
  3  4  1  0
  3 18  1  0
  4  5  1  0
  4 14  2  0
  5 13  1  0
  5  6  2  0
  6  7  1  0
  6 19  1  0
  7  8  2  0
  7 20  1  0
  8  9  1  0
  8 21  1  0
  9 13  1  0
  9 10  2  0
 10 11  1  0
 11 12  2  0
 11 22  1  0
 12 13  1  0
 12 23  1  0
 14 15  1  0
 15 24  1  0
M  END
>  <i_m_ct_stereo_status>  (274) 
1

>  <s_m_source_file>  (274) 
/var/tmp/pbs.5102103.sched01/tmpndyyrgqo/88kp20v8wr.sdf

>  <i_m_source_file_index>  (274) 
17

>  <i_lp_mmshare_version>  (274) 
48012

>  <i_f3d_flags>  (274) 
0

>  <s_epik_input>  (274) 
bjFbY0hdW2NIXVtjSF1bY0hdYzEtYyhbY0hdW2NIXVtjSF0yKW4oYzIzKVtjSF1bY0hdbjM=

>  <s_epik_cmdline>  (274) 
J2VwaWtfcHl0aG9uJywgJy1waHQnLCAnMi4wJywgJy1waCcsICc3LjAnLCAnLXRuJywgJzgnLCAnLW1hJywgJzIwMCcsICctaW1hZScsICc8aW5maWxlLm1hZT4nLCAnLW9tYWUnLCAnPG91dGZpbGUubWFlPic=

>  <r_epik_Ionization_Penalty>  (274) 
0.0668734

>  <r_epik_Ionization_Penalty_Charging>  (274) 
0.0668208

>  <r_epik_Ionization_Penalty_Neutral>  (274) 
5.25355e-05

>  <r_epik_State_Penalty>  (274) 
0.0583643

>  <r_epik_Charging_Adjusted_Penalty>  (274) 
0.125185

>  <i_epik_Tot_Q>  (274) 
0

>  <i_epik_Tot_abs_Q>  (274) 
0

>  <s_lp_Force_Field>  (274) 
OPLS3e

>  <r_lp_Energy>  (274) 
30.4131

>  <b_lp_Chiralities_Consistent>  (274) 
1

>  <s_lp_Variant>  (274) 
64:0-1

>  <s_i_glide_gridfile>  (274) 
pfpi4k_grid

>  <i_i_glide_lignum>  (274) 
17

>  <i_i_glide_rotatable_bonds>  (274) 
1

>  <r_i_docking_score>  (274) 
-2.76824

>  <r_i_glide_ligand_efficiency>  (274) 
-0.184549

>  <r_i_glide_ligand_efficiency_sa>  (274) 
-0.455138

>  <r_i_glide_ligand_efficiency_ln>  (274) 
-0.746549

>  <r_i_glide_gscore>  (274) 
-2.76824

>  <r_i_glide_lipo>  (274) 
-0.0788782

>  <r_i_glide_hbond>  (274) 
0

>  <r_i_glide_metal>  (274) 
-0

>  <r_i_glide_rewards>  (274) 
-2.07805

>  <r_i_glide_evdw>  (274) 
-17.2009

>  <r_i_glide_ecoul>  (274) 
-1.02113

>  <r_i_glide_erotb>  (274) 
0.425105

>  <r_i_glide_esite>  (274) 
-0.0232057

>  <r_i_glide_emodel>  (274) 
-21.7151

>  <r_i_glide_energy>  (274) 
-18.2221

>  <r_i_glide_einternal>  (274) 
0.0193455

>  <r_i_glide_intrahb_reward>  (274) 
-0

>  <i_i_glide_confnum>  (274) 
1

>  <i_i_glide_posenum>  (274) 
7

>  <r_i_glide_eff_state_penalty>  (274) 
0

>  <ligand_id>  (274) 
64

>  <original_smiles>  (274) 
c1ccc(-c2cccc3nccn23)nc1

>  <smiles>  (274) 
[H]c1nc(-c2c([H])c([H])c([H])c3nc([H])c([H])n23)c([H])c([H])c1[H]

$$$$
64:0:1
     RDKit          3D

 24 26  0  0  1  0  0  0  0  0999 V2000
   -2.2572    4.1474    9.4070 C   0  0  0  0  0  0  0  0  0  0  0  0
   -1.3775    4.8275    8.5452 C   0  0  0  0  0  0  0  0  0  0  0  0
   -1.1123    4.2727    7.2797 C   0  0  0  0  0  0  0  0  0  0  0  0
   -1.7317    3.0536    6.9133 C   0  0  0  0  0  0  0  0  0  0  0  0
   -1.4803    2.4115    5.5998 C   0  0  0  0  0  0  0  0  0  0  0  0
   -1.6307    3.1239    4.4267 C   0  0  0  0  0  0  0  0  0  0  0  0
   -1.3855    2.5295    3.1658 C   0  0  0  0  0  0  0  0  0  0  0  0
   -0.9868    1.2188    3.0878 C   0  0  0  0  0  0  0  0  0  0  0  0
   -0.8338    0.4538    4.2727 C   0  0  0  0  0  0  0  0  0  0  0  0
   -0.4774   -0.8152    4.4709 N   0  0  0  0  0  0  0  0  0  0  0  0
   -0.4789   -1.0125    5.8415 C   0  0  0  0  0  0  0  0  0  0  0  0
   -0.8544    0.1350    6.4882 C   0  0  0  0  0  0  0  0  0  0  0  0
   -1.0965    1.0946    5.5130 N   0  0  0  0  0  0  0  0  0  0  0  0
   -2.5781    2.4076    7.7482 N   0  0  0  0  0  0  0  0  0  0  0  0
   -2.8288    2.9440    8.9628 C   0  0  0  0  0  0  0  0  0  0  0  0
   -2.4835    4.5266   10.3932 H   0  0  0  0  0  0  0  0  0  0  0  0
   -0.9109    5.7511    8.8604 H   0  0  0  0  0  0  0  0  0  0  0  0
   -0.4317    4.7689    6.6031 H   0  0  0  0  0  0  0  0  0  0  0  0
   -1.9534    4.1586    4.4768 H   0  0  0  0  0  0  0  0  0  0  0  0
   -1.5187    3.1026    2.2469 H   0  0  0  0  0  0  0  0  0  0  0  0
   -0.7902    0.7668    2.1230 H   0  0  0  0  0  0  0  0  0  0  0  0
   -0.1933   -1.9735    6.2448 H   0  0  0  0  0  0  0  0  0  0  0  0
   -0.9471    0.3999    7.5293 H   0  0  0  0  0  0  0  0  0  0  0  0
   -3.5011    2.3915    9.6006 H   0  0  0  0  0  0  0  0  0  0  0  0
  1 15  2  0
  1  2  1  0
  1 16  1  0
  2  3  2  0
  2 17  1  0
  3  4  1  0
  3 18  1  0
  4  5  1  0
  4 14  2  0
  5 13  1  0
  5  6  2  0
  6  7  1  0
  6 19  1  0
  7  8  2  0
  7 20  1  0
  8  9  1  0
  8 21  1  0
  9 13  1  0
  9 10  2  0
 10 11  1  0
 11 12  2  0
 11 22  1  0
 12 13  1  0
 12 23  1  0
 14 15  1  0
 15 24  1  0
M  END
>  <i_m_ct_stereo_status>  (275) 
1

>  <s_m_source_file>  (275) 
/var/tmp/pbs.5102103.sched01/tmpndyyrgqo/88kp20v8wr.sdf

>  <i_m_source_file_index>  (275) 
17

>  <i_lp_mmshare_version>  (275) 
48012

>  <i_f3d_flags>  (275) 
0

>  <s_epik_input>  (275) 
bjFbY0hdW2NIXVtjSF1bY0hdYzEtYyhbY0hdW2NIXVtjSF0yKW4oYzIzKVtjSF1bY0hdbjM=

>  <s_epik_cmdline>  (275) 
J2VwaWtfcHl0aG9uJywgJy1waHQnLCAnMi4wJywgJy1waCcsICc3LjAnLCAnLXRuJywgJzgnLCAnLW1hJywgJzIwMCcsICctaW1hZScsICc8aW5maWxlLm1hZT4nLCAnLW9tYWUnLCAnPG91dGZpbGUubWFlPic=

>  <r_epik_Ionization_Penalty>  (275) 
0.0668734

>  <r_epik_Ionization_Penalty_Charging>  (275) 
0.0668208

>  <r_epik_Ionization_Penalty_Neutral>  (275) 
5.25355e-05

>  <r_epik_State_Penalty>  (275) 
0.0583643

>  <r_epik_Charging_Adjusted_Penalty>  (275) 
0.125185

>  <i_epik_Tot_Q>  (275) 
0

>  <i_epik_Tot_abs_Q>  (275) 
0

>  <s_lp_Force_Field>  (275) 
OPLS3e

>  <r_lp_Energy>  (275) 
30.4131

>  <b_lp_Chiralities_Consistent>  (275) 
1

>  <s_lp_Variant>  (275) 
64:0-1

>  <s_i_glide_gridfile>  (275) 
pfpi4k_grid

>  <i_i_glide_lignum>  (275) 
17

>  <i_i_glide_rotatable_bonds>  (275) 
1

>  <r_i_docking_score>  (275) 
-2.62163

>  <r_i_glide_ligand_efficiency>  (275) 
-0.174775

>  <r_i_glide_ligand_efficiency_sa>  (275) 
-0.431033

>  <r_i_glide_ligand_efficiency_ln>  (275) 
-0.70701

>  <r_i_glide_gscore>  (275) 
-2.62163

>  <r_i_glide_lipo>  (275) 
-0.0576133

>  <r_i_glide_hbond>  (275) 
0

>  <r_i_glide_metal>  (275) 
-0

>  <r_i_glide_rewards>  (275) 
-2.07805

>  <r_i_glide_evdw>  (275) 
-18.0727

>  <r_i_glide_ecoul>  (275) 
0.24992

>  <r_i_glide_erotb>  (275) 
0.425105

>  <r_i_glide_esite>  (275) 
-0.0449277

>  <r_i_glide_emodel>  (275) 
-20.8157

>  <r_i_glide_energy>  (275) 
-17.8228

>  <r_i_glide_einternal>  (275) 
0.860972

>  <r_i_glide_intrahb_reward>  (275) 
-0

>  <i_i_glide_confnum>  (275) 
4

>  <i_i_glide_posenum>  (275) 
21

>  <r_i_glide_eff_state_penalty>  (275) 
0

>  <ligand_id>  (275) 
64

>  <original_smiles>  (275) 
c1ccc(-c2cccc3nccn23)nc1

>  <smiles>  (275) 
[H]c1nc(-c2c([H])c([H])c([H])c3nc([H])c([H])n23)c([H])c([H])c1[H]

$$$$
64:0:2
     RDKit          3D

 24 26  0  0  1  0  0  0  0  0999 V2000
    3.2494   -0.2551    2.5776 C   0  0  0  0  0  0  0  0  0  0  0  0
    3.4191    0.6767    3.6163 C   0  0  0  0  0  0  0  0  0  0  0  0
    2.2895    1.3497    4.1133 C   0  0  0  0  0  0  0  0  0  0  0  0
    1.0206    1.0697    3.5567 C   0  0  0  0  0  0  0  0  0  0  0  0
   -0.2154    1.7256    4.0365 C   0  0  0  0  0  0  0  0  0  0  0  0
   -1.0375    2.4199    3.1701 C   0  0  0  0  0  0  0  0  0  0  0  0
   -2.2275    3.0394    3.6229 C   0  0  0  0  0  0  0  0  0  0  0  0
   -2.5836    2.9467    4.9466 C   0  0  0  0  0  0  0  0  0  0  0  0
   -1.7569    2.2476    5.8606 C   0  0  0  0  0  0  0  0  0  0  0  0
   -1.8929    2.0041    7.1639 N   0  0  0  0  0  0  0  0  0  0  0  0
   -0.7518    1.3163    7.5466 C   0  0  0  0  0  0  0  0  0  0  0  0
    0.0460    1.0743    6.4631 C   0  0  0  0  0  0  0  0  0  0  0  0
   -0.5647    1.6650    5.3627 N   0  0  0  0  0  0  0  0  0  0  0  0
    0.8619    0.1786    2.5521 N   0  0  0  0  0  0  0  0  0  0  0  0
    1.9498   -0.4625    2.0774 C   0  0  0  0  0  0  0  0  0  0  0  0
    4.0895   -0.7952    2.1689 H   0  0  0  0  0  0  0  0  0  0  0  0
    4.4022    0.8716    4.0214 H   0  0  0  0  0  0  0  0  0  0  0  0
    2.3924    2.0784    4.9011 H   0  0  0  0  0  0  0  0  0  0  0  0
   -0.7549    2.4959    2.1192 H   0  0  0  0  0  0  0  0  0  0  0  0
   -2.8675    3.5720    2.9219 H   0  0  0  0  0  0  0  0  0  0  0  0
   -3.5069    3.3752    5.3139 H   0  0  0  0  0  0  0  0  0  0  0  0
   -0.6129    1.0306    8.5805 H   0  0  0  0  0  0  0  0  0  0  0  0
    0.9878    0.5545    6.3569 H   0  0  0  0  0  0  0  0  0  0  0  0
    1.7856   -1.1760    1.2848 H   0  0  0  0  0  0  0  0  0  0  0  0
  1 15  2  0
  1  2  1  0
  1 16  1  0
  2  3  2  0
  2 17  1  0
  3  4  1  0
  3 18  1  0
  4  5  1  0
  4 14  2  0
  5 13  1  0
  5  6  2  0
  6  7  1  0
  6 19  1  0
  7  8  2  0
  7 20  1  0
  8  9  1  0
  8 21  1  0
  9 13  1  0
  9 10  2  0
 10 11  1  0
 11 12  2  0
 11 22  1  0
 12 13  1  0
 12 23  1  0
 14 15  1  0
 15 24  1  0
M  END
>  <i_m_ct_stereo_status>  (276) 
1

>  <s_m_source_file>  (276) 
/var/tmp/pbs.5102103.sched01/tmpndyyrgqo/88kp20v8wr.sdf

>  <i_m_source_file_index>  (276) 
17

>  <i_lp_mmshare_version>  (276) 
48012

>  <i_f3d_flags>  (276) 
0

>  <s_epik_input>  (276) 
bjFbY0hdW2NIXVtjSF1bY0hdYzEtYyhbY0hdW2NIXVtjSF0yKW4oYzIzKVtjSF1bY0hdbjM=

>  <s_epik_cmdline>  (276) 
J2VwaWtfcHl0aG9uJywgJy1waHQnLCAnMi4wJywgJy1waCcsICc3LjAnLCAnLXRuJywgJzgnLCAnLW1hJywgJzIwMCcsICctaW1hZScsICc8aW5maWxlLm1hZT4nLCAnLW9tYWUnLCAnPG91dGZpbGUubWFlPic=

>  <r_epik_Ionization_Penalty>  (276) 
0.0668734

>  <r_epik_Ionization_Penalty_Charging>  (276) 
0.0668208

>  <r_epik_Ionization_Penalty_Neutral>  (276) 
5.25355e-05

>  <r_epik_State_Penalty>  (276) 
0.0583643

>  <r_epik_Charging_Adjusted_Penalty>  (276) 
0.125185

>  <i_epik_Tot_Q>  (276) 
0

>  <i_epik_Tot_abs_Q>  (276) 
0

>  <s_lp_Force_Field>  (276) 
OPLS3e

>  <r_lp_Energy>  (276) 
30.4131

>  <b_lp_Chiralities_Consistent>  (276) 
1

>  <s_lp_Variant>  (276) 
64:0-1

>  <s_i_glide_gridfile>  (276) 
pfpi4k_grid

>  <i_i_glide_lignum>  (276) 
17

>  <i_i_glide_rotatable_bonds>  (276) 
1

>  <r_i_docking_score>  (276) 
-2.57982

>  <r_i_glide_ligand_efficiency>  (276) 
-0.171988

>  <r_i_glide_ligand_efficiency_sa>  (276) 
-0.424159

>  <r_i_glide_ligand_efficiency_ln>  (276) 
-0.695735

>  <r_i_glide_gscore>  (276) 
-2.57982

>  <r_i_glide_lipo>  (276) 
0

>  <r_i_glide_hbond>  (276) 
0

>  <r_i_glide_metal>  (276) 
-0

>  <r_i_glide_rewards>  (276) 
-2.08293

>  <r_i_glide_evdw>  (276) 
-16.4693

>  <r_i_glide_ecoul>  (276) 
-0.599638

>  <r_i_glide_erotb>  (276) 
0.425105

>  <r_i_glide_esite>  (276) 
-0.00858315

>  <r_i_glide_emodel>  (276) 
-20.0292

>  <r_i_glide_energy>  (276) 
-17.069

>  <r_i_glide_einternal>  (276) 
0.743701

>  <r_i_glide_intrahb_reward>  (276) 
-0

>  <i_i_glide_confnum>  (276) 
4

>  <i_i_glide_posenum>  (276) 
26

>  <r_i_glide_eff_state_penalty>  (276) 
0

>  <ligand_id>  (276) 
64

>  <original_smiles>  (276) 
c1ccc(-c2cccc3nccn23)nc1

>  <smiles>  (276) 
[H]c1nc(-c2c([H])c([H])c([H])c3nc([H])c([H])n23)c([H])c([H])c1[H]

$$$$
64:1:0
     RDKit          3D

 25 27  0  0  1  0  0  0  0  0999 V2000
   -6.6422   -4.8693   -4.3202 C   0  0  0  0  0  0  0  0  0  0  0  0
   -7.8290   -4.6028   -5.0225 C   0  0  0  0  0  0  0  0  0  0  0  0
   -8.1875   -5.4410   -6.0958 C   0  0  0  0  0  0  0  0  0  0  0  0
   -7.3443   -6.5250   -6.4291 C   0  0  0  0  0  0  0  0  0  0  0  0
   -7.6697   -7.4678   -7.5278 C   0  0  0  0  0  0  0  0  0  0  0  0
   -8.1902   -7.0084   -8.7267 C   0  0  0  0  0  0  0  0  0  0  0  0
   -8.4667   -7.8937   -9.8017 C   0  0  0  0  0  0  0  0  0  0  0  0
   -8.2222   -9.2416   -9.6669 C   0  0  0  0  0  0  0  0  0  0  0  0
   -7.7165   -9.6512   -8.4467 C   0  0  0  0  0  0  0  0  0  0  0  0
   -7.4136  -10.8925   -8.0677 N   0  0  0  0  0  0  0  0  0  0  0  0
   -6.9595  -10.8273   -6.7508 C   0  0  0  0  0  0  0  0  0  0  0  0
   -6.9923   -9.5241   -6.3239 C   0  0  0  0  0  0  0  0  0  0  0  0
   -7.4551   -8.8375   -7.4309 N   0  0  0  0  0  0  0  0  0  0  0  0
   -6.1890   -6.7526   -5.7629 N   0  0  0  0  0  0  0  0  0  0  0  0
   -5.8585   -5.9589   -4.7284 C   0  0  0  0  0  0  0  0  0  0  0  0
   -6.3425   -4.2574   -3.4830 H   0  0  0  0  0  0  0  0  0  0  0  0
   -8.4622   -3.7787   -4.7284 H   0  0  0  0  0  0  0  0  0  0  0  0
   -9.1061   -5.2558   -6.6331 H   0  0  0  0  0  0  0  0  0  0  0  0
   -8.3731   -5.9469   -8.8506 H   0  0  0  0  0  0  0  0  0  0  0  0
   -8.8685   -7.5085  -10.7353 H   0  0  0  0  0  0  0  0  0  0  0  0
   -8.4174   -9.9587  -10.4557 H   0  0  0  0  0  0  0  0  0  0  0  0
   -6.6563  -11.7202   -6.2225 H   0  0  0  0  0  0  0  0  0  0  0  0
   -6.7317   -9.0834   -5.3744 H   0  0  0  0  0  0  0  0  0  0  0  0
   -4.9473   -6.2166   -4.2126 H   0  0  0  0  0  0  0  0  0  0  0  0
   -7.5070  -11.7347   -8.6203 H   0  0  0  0  0  0  0  0  0  0  0  0
  1 15  2  0
  1  2  1  0
  1 16  1  0
  2  3  2  0
  2 17  1  0
  3  4  1  0
  3 18  1  0
  4  5  1  0
  4 14  2  0
  5 13  1  0
  5  6  2  0
  6  7  1  0
  6 19  1  0
  7  8  2  0
  7 20  1  0
  8  9  1  0
  8 21  1  0
  9 13  1  0
  9 10  2  0
 10 11  1  0
 10 25  1  0
 11 12  2  0
 11 22  1  0
 12 13  1  0
 12 23  1  0
 14 15  1  0
 15 24  1  0
M  CHG  1  10   1
M  END
>  <i_m_ct_stereo_status>  (277) 
1

>  <s_m_source_file>  (277) 
/var/tmp/pbs.5102103.sched01/tmpndyyrgqo/88kp20v8wr.sdf

>  <i_m_source_file_index>  (277) 
18

>  <i_lp_mmshare_version>  (277) 
48012

>  <i_f3d_flags>  (277) 
0

>  <s_epik_input>  (277) 
bjFbY0hdW2NIXVtjSF1bY0hdYzEtYyhbY0hdW2NIXVtjSF0yKW4oYzIzKVtjSF1bY0hdbjM=

>  <s_epik_cmdline>  (277) 
J2VwaWtfcHl0aG9uJywgJy1waHQnLCAnMi4wJywgJy1waCcsICc3LjAnLCAnLXRuJywgJzgnLCAnLW1hJywgJzIwMCcsICctaW1hZScsICc8aW5maWxlLm1hZT4nLCAnLW9tYWUnLCAnPG91dGZpbGUubWFlPic=

>  <r_epik_Ionization_Penalty>  (277) 
1.32614

>  <r_epik_Ionization_Penalty_Charging>  (277) 
0

>  <r_epik_Ionization_Penalty_Neutral>  (277) 
1.32614

>  <r_epik_State_Penalty>  (277) 
1.4021

>  <r_epik_Charging_Adjusted_Penalty>  (277) 
1.4021

>  <i_epik_Tot_Q>  (277) 
1

>  <i_epik_Tot_abs_Q>  (277) 
1

>  <s_lp_Force_Field>  (277) 
OPLS3e

>  <r_lp_Energy>  (277) 
34.2446

>  <b_lp_Chiralities_Consistent>  (277) 
1

>  <s_lp_Variant>  (277) 
64:0-2

>  <s_i_glide_gridfile>  (277) 
pfpi4k_grid

>  <i_i_glide_lignum>  (277) 
18

>  <i_i_glide_rotatable_bonds>  (277) 
1

>  <r_i_docking_score>  (277) 
-5.81856

>  <r_i_glide_ligand_efficiency>  (277) 
-0.387904

>  <r_i_glide_ligand_efficiency_sa>  (277) 
-0.956654

>  <r_i_glide_ligand_efficiency_ln>  (277) 
-1.56917

>  <r_i_glide_gscore>  (277) 
-5.81856

>  <r_i_glide_lipo>  (277) 
-2.43466

>  <r_i_glide_hbond>  (277) 
0

>  <r_i_glide_metal>  (277) 
-0

>  <r_i_glide_rewards>  (277) 
-2.6702

>  <r_i_glide_evdw>  (277) 
-23.5373

>  <r_i_glide_ecoul>  (277) 
0.27784

>  <r_i_glide_erotb>  (277) 
0.421482

>  <r_i_glide_esite>  (277) 
0

>  <r_i_glide_emodel>  (277) 
-33.9578

>  <r_i_glide_energy>  (277) 
-23.2595

>  <r_i_glide_einternal>  (277) 
0.583947

>  <r_i_glide_intrahb_reward>  (277) 
-0

>  <i_i_glide_confnum>  (277) 
6

>  <i_i_glide_posenum>  (277) 
8

>  <r_i_glide_eff_state_penalty>  (277) 
0

>  <ligand_id>  (277) 
64

>  <original_smiles>  (277) 
c1ccc(-c2cccc3nccn23)nc1

>  <smiles>  (277) 
[H]c1nc(-c2c([H])c([H])c([H])c3n2c([H])c([H])[n+]3[H])c([H])c([H])c1[H]

$$$$
64:1:1
     RDKit          3D

 25 27  0  0  1  0  0  0  0  0999 V2000
   -9.5181   -6.7814   -9.7890 C   0  0  0  0  0  0  0  0  0  0  0  0
   -8.4009   -7.5305  -10.1925 C   0  0  0  0  0  0  0  0  0  0  0  0
   -7.4139   -7.8314   -9.2394 C   0  0  0  0  0  0  0  0  0  0  0  0
   -7.5910   -7.4180   -7.9026 C   0  0  0  0  0  0  0  0  0  0  0  0
   -6.6238   -7.7417   -6.8222 C   0  0  0  0  0  0  0  0  0  0  0  0
   -6.3002   -6.8012   -5.8535 C   0  0  0  0  0  0  0  0  0  0  0  0
   -5.3804   -7.0906   -4.8122 C   0  0  0  0  0  0  0  0  0  0  0  0
   -4.7833   -8.3306   -4.7495 C   0  0  0  0  0  0  0  0  0  0  0  0
   -5.1257   -9.2275   -5.7401 C   0  0  0  0  0  0  0  0  0  0  0  0
   -4.6886  -10.4754   -5.8770 N   0  0  0  0  0  0  0  0  0  0  0  0
   -5.3065  -11.0077   -7.0087 C   0  0  0  0  0  0  0  0  0  0  0  0
   -6.1521  -10.0704   -7.5506 C   0  0  0  0  0  0  0  0  0  0  0  0
   -5.9840   -8.9724   -6.7234 N   0  0  0  0  0  0  0  0  0  0  0  0
   -8.6504   -6.6672   -7.5297 N   0  0  0  0  0  0  0  0  0  0  0  0
   -9.5897   -6.3633   -8.4497 C   0  0  0  0  0  0  0  0  0  0  0  0
  -10.2953   -6.5327  -10.4941 H   0  0  0  0  0  0  0  0  0  0  0  0
   -8.2899   -7.8712  -11.2064 H   0  0  0  0  0  0  0  0  0  0  0  0
   -6.5247   -8.3551   -9.5575 H   0  0  0  0  0  0  0  0  0  0  0  0
   -6.7626   -5.8203   -5.9076 H   0  0  0  0  0  0  0  0  0  0  0  0
   -5.1572   -6.3365   -4.0638 H   0  0  0  0  0  0  0  0  0  0  0  0
   -4.1068   -8.6403   -3.9559 H   0  0  0  0  0  0  0  0  0  0  0  0
   -5.1078  -12.0239   -7.3194 H   0  0  0  0  0  0  0  0  0  0  0  0
   -6.8149  -10.1417   -8.4009 H   0  0  0  0  0  0  0  0  0  0  0  0
  -10.4358   -5.7873   -8.1052 H   0  0  0  0  0  0  0  0  0  0  0  0
   -4.0585  -10.9652   -5.2445 H   0  0  0  0  0  0  0  0  0  0  0  0
  1 15  2  0
  1  2  1  0
  1 16  1  0
  2  3  2  0
  2 17  1  0
  3  4  1  0
  3 18  1  0
  4  5  1  0
  4 14  2  0
  5 13  1  0
  5  6  2  0
  6  7  1  0
  6 19  1  0
  7  8  2  0
  7 20  1  0
  8  9  1  0
  8 21  1  0
  9 13  1  0
  9 10  2  0
 10 11  1  0
 10 25  1  0
 11 12  2  0
 11 22  1  0
 12 13  1  0
 12 23  1  0
 14 15  1  0
 15 24  1  0
M  CHG  1  10   1
M  END
>  <i_m_ct_stereo_status>  (278) 
1

>  <s_m_source_file>  (278) 
/var/tmp/pbs.5102103.sched01/tmpndyyrgqo/88kp20v8wr.sdf

>  <i_m_source_file_index>  (278) 
18

>  <i_lp_mmshare_version>  (278) 
48012

>  <i_f3d_flags>  (278) 
0

>  <s_epik_input>  (278) 
bjFbY0hdW2NIXVtjSF1bY0hdYzEtYyhbY0hdW2NIXVtjSF0yKW4oYzIzKVtjSF1bY0hdbjM=

>  <s_epik_cmdline>  (278) 
J2VwaWtfcHl0aG9uJywgJy1waHQnLCAnMi4wJywgJy1waCcsICc3LjAnLCAnLXRuJywgJzgnLCAnLW1hJywgJzIwMCcsICctaW1hZScsICc8aW5maWxlLm1hZT4nLCAnLW9tYWUnLCAnPG91dGZpbGUubWFlPic=

>  <r_epik_Ionization_Penalty>  (278) 
1.32614

>  <r_epik_Ionization_Penalty_Charging>  (278) 
0

>  <r_epik_Ionization_Penalty_Neutral>  (278) 
1.32614

>  <r_epik_State_Penalty>  (278) 
1.4021

>  <r_epik_Charging_Adjusted_Penalty>  (278) 
1.4021

>  <i_epik_Tot_Q>  (278) 
1

>  <i_epik_Tot_abs_Q>  (278) 
1

>  <s_lp_Force_Field>  (278) 
OPLS3e

>  <r_lp_Energy>  (278) 
34.2446

>  <b_lp_Chiralities_Consistent>  (278) 
1

>  <s_lp_Variant>  (278) 
64:0-2

>  <s_i_glide_gridfile>  (278) 
pfpi4k_grid

>  <i_i_glide_lignum>  (278) 
18

>  <i_i_glide_rotatable_bonds>  (278) 
1

>  <r_i_docking_score>  (278) 
-5.60433

>  <r_i_glide_ligand_efficiency>  (278) 
-0.373622

>  <r_i_glide_ligand_efficiency_sa>  (278) 
-0.921431

>  <r_i_glide_ligand_efficiency_ln>  (278) 
-1.5114

>  <r_i_glide_gscore>  (278) 
-5.60433

>  <r_i_glide_lipo>  (278) 
-1.81672

>  <r_i_glide_hbond>  (278) 
0

>  <r_i_glide_metal>  (278) 
-0

>  <r_i_glide_rewards>  (278) 
-2.85449

>  <r_i_glide_evdw>  (278) 
-21.4572

>  <r_i_glide_ecoul>  (278) 
-1.87833

>  <r_i_glide_erotb>  (278) 
0.421482

>  <r_i_glide_esite>  (278) 
0

>  <r_i_glide_emodel>  (278) 
-33.5391

>  <r_i_glide_energy>  (278) 
-23.3355

>  <r_i_glide_einternal>  (278) 
0.516873

>  <r_i_glide_intrahb_reward>  (278) 
-0

>  <i_i_glide_confnum>  (278) 
3

>  <i_i_glide_posenum>  (278) 
4

>  <r_i_glide_eff_state_penalty>  (278) 
0

>  <ligand_id>  (278) 
64

>  <original_smiles>  (278) 
c1ccc(-c2cccc3nccn23)nc1

>  <smiles>  (278) 
[H]c1nc(-c2c([H])c([H])c([H])c3n2c([H])c([H])[n+]3[H])c([H])c([H])c1[H]

$$$$
64:1:2
     RDKit          3D

 25 27  0  0  1  0  0  0  0  0999 V2000
    3.2261   -1.1814   -3.9088 C   0  0  0  0  0  0  0  0  0  0  0  0
    3.2454   -2.5832   -3.8248 C   0  0  0  0  0  0  0  0  0  0  0  0
    4.1723   -3.1908   -2.9567 C   0  0  0  0  0  0  0  0  0  0  0  0
    5.0266   -2.3841   -2.1823 C   0  0  0  0  0  0  0  0  0  0  0  0
    6.0223   -2.9524   -1.2527 C   0  0  0  0  0  0  0  0  0  0  0  0
    7.3818   -2.8545   -1.4996 C   0  0  0  0  0  0  0  0  0  0  0  0
    8.3389   -3.3766   -0.5902 C   0  0  0  0  0  0  0  0  0  0  0  0
    7.9220   -4.0028    0.5657 C   0  0  0  0  0  0  0  0  0  0  0  0
    6.5540   -4.0881    0.7511 C   0  0  0  0  0  0  0  0  0  0  0  0
    5.9032   -4.6392    1.7735 N   0  0  0  0  0  0  0  0  0  0  0  0
    4.5373   -4.4940    1.5237 C   0  0  0  0  0  0  0  0  0  0  0  0
    4.3547   -3.8383    0.3261 C   0  0  0  0  0  0  0  0  0  0  0  0
    5.6492   -3.6115   -0.0950 N   0  0  0  0  0  0  0  0  0  0  0  0
    5.0093   -1.0386   -2.2704 N   0  0  0  0  0  0  0  0  0  0  0  0
    4.1236   -0.4561   -3.1059 C   0  0  0  0  0  0  0  0  0  0  0  0
    2.5213   -0.6738   -4.5522 H   0  0  0  0  0  0  0  0  0  0  0  0
    2.5600   -3.1794   -4.4084 H   0  0  0  0  0  0  0  0  0  0  0  0
    4.2233   -4.2653   -2.8817 H   0  0  0  0  0  0  0  0  0  0  0  0
    7.7230   -2.3900   -2.4178 H   0  0  0  0  0  0  0  0  0  0  0  0
    9.3978   -3.2787   -0.8173 H   0  0  0  0  0  0  0  0  0  0  0  0
    8.6040   -4.4129    1.3048 H   0  0  0  0  0  0  0  0  0  0  0  0
    3.8160   -4.8783    2.2350 H   0  0  0  0  0  0  0  0  0  0  0  0
    3.4646   -3.5401   -0.2120 H   0  0  0  0  0  0  0  0  0  0  0  0
    4.1286    0.6220   -3.1397 H   0  0  0  0  0  0  0  0  0  0  0  0
    6.3162   -5.0825    2.5852 H   0  0  0  0  0  0  0  0  0  0  0  0
  1 15  2  0
  1  2  1  0
  1 16  1  0
  2  3  2  0
  2 17  1  0
  3  4  1  0
  3 18  1  0
  4  5  1  0
  4 14  2  0
  5 13  1  0
  5  6  2  0
  6  7  1  0
  6 19  1  0
  7  8  2  0
  7 20  1  0
  8  9  1  0
  8 21  1  0
  9 13  1  0
  9 10  2  0
 10 11  1  0
 10 25  1  0
 11 12  2  0
 11 22  1  0
 12 13  1  0
 12 23  1  0
 14 15  1  0
 15 24  1  0
M  CHG  1  10   1
M  END
>  <i_m_ct_stereo_status>  (279) 
1

>  <s_m_source_file>  (279) 
/var/tmp/pbs.5102103.sched01/tmpndyyrgqo/88kp20v8wr.sdf

>  <i_m_source_file_index>  (279) 
18

>  <i_lp_mmshare_version>  (279) 
48012

>  <i_f3d_flags>  (279) 
0

>  <s_epik_input>  (279) 
bjFbY0hdW2NIXVtjSF1bY0hdYzEtYyhbY0hdW2NIXVtjSF0yKW4oYzIzKVtjSF1bY0hdbjM=

>  <s_epik_cmdline>  (279) 
J2VwaWtfcHl0aG9uJywgJy1waHQnLCAnMi4wJywgJy1waCcsICc3LjAnLCAnLXRuJywgJzgnLCAnLW1hJywgJzIwMCcsICctaW1hZScsICc8aW5maWxlLm1hZT4nLCAnLW9tYWUnLCAnPG91dGZpbGUubWFlPic=

>  <r_epik_Ionization_Penalty>  (279) 
1.32614

>  <r_epik_Ionization_Penalty_Charging>  (279) 
0

>  <r_epik_Ionization_Penalty_Neutral>  (279) 
1.32614

>  <r_epik_State_Penalty>  (279) 
1.4021

>  <r_epik_Charging_Adjusted_Penalty>  (279) 
1.4021

>  <i_epik_Tot_Q>  (279) 
1

>  <i_epik_Tot_abs_Q>  (279) 
1

>  <s_lp_Force_Field>  (279) 
OPLS3e

>  <r_lp_Energy>  (279) 
34.2446

>  <b_lp_Chiralities_Consistent>  (279) 
1

>  <s_lp_Variant>  (279) 
64:0-2

>  <s_i_glide_gridfile>  (279) 
pfpi4k_grid

>  <i_i_glide_lignum>  (279) 
18

>  <i_i_glide_rotatable_bonds>  (279) 
1

>  <r_i_docking_score>  (279) 
-4.53086

>  <r_i_glide_ligand_efficiency>  (279) 
-0.302057

>  <r_i_glide_ligand_efficiency_sa>  (279) 
-0.744937

>  <r_i_glide_ligand_efficiency_ln>  (279) 
-1.2219

>  <r_i_glide_gscore>  (279) 
-4.53086

>  <r_i_glide_lipo>  (279) 
-0.975782

>  <r_i_glide_hbond>  (279) 
0

>  <r_i_glide_metal>  (279) 
-0

>  <r_i_glide_rewards>  (279) 
-2.29768

>  <r_i_glide_evdw>  (279) 
-23.0505

>  <r_i_glide_ecoul>  (279) 
-3.509

>  <r_i_glide_erotb>  (279) 
0.421482

>  <r_i_glide_esite>  (279) 
0

>  <r_i_glide_emodel>  (279) 
-34.5123

>  <r_i_glide_energy>  (279) 
-26.5595

>  <r_i_glide_einternal>  (279) 
1.29963

>  <r_i_glide_intrahb_reward>  (279) 
-0

>  <i_i_glide_confnum>  (279) 
4

>  <i_i_glide_posenum>  (279) 
28

>  <r_i_glide_eff_state_penalty>  (279) 
0

>  <ligand_id>  (279) 
64

>  <original_smiles>  (279) 
c1ccc(-c2cccc3nccn23)nc1

>  <smiles>  (279) 
[H]c1nc(-c2c([H])c([H])c([H])c3n2c([H])c([H])[n+]3[H])c([H])c([H])c1[H]

$$$$
65:0:0
     RDKit          3D

 41 44  0  0  1  0  0  0  0  0999 V2000
    3.4782   -0.1920   -3.9813 N   0  0  0  0  0  0  0  0  0  0  0  0
    3.8489   -1.2889   -3.2535 C   0  0  0  0  0  0  0  0  0  0  0  0
    3.8486   -1.1410   -1.9397 N   0  0  0  0  0  0  0  0  0  0  0  0
    4.2358   -2.2045   -1.2064 C   0  0  0  0  0  0  0  0  0  0  0  0
    4.0827   -2.0780    0.2966 C   0  0  2  0  0  0  0  0  0  0  0  0
    2.8726   -2.6678    1.0054 C   0  0  0  0  0  0  0  0  0  0  0  0
    2.9295   -1.5276    1.9173 N   0  0  2  0  0  0  0  0  0  0  0  0
    1.6090   -0.9555    2.2623 C   0  0  0  0  0  0  0  0  0  0  0  0
    1.7701    0.2477    3.1814 C   0  0  0  0  0  0  0  0  0  0  0  0
    0.4856    0.9772    3.3642 C   0  0  0  0  0  0  0  0  0  0  0  0
   -0.3639    1.3974    2.3731 C   0  0  0  0  0  0  0  0  0  0  0  0
   -1.4402    2.0573    2.9507 N   0  0  0  0  0  0  0  0  0  0  0  0
   -1.3026    2.0960    4.3199 C   0  0  0  0  0  0  0  0  0  0  0  0
   -2.1623    2.6696    5.2187 N   0  0  0  0  0  0  0  0  0  0  0  0
   -1.7807    2.5488    6.5079 C   0  0  0  0  0  0  0  0  0  0  0  0
   -0.6014    1.9005    6.9387 C   0  0  0  0  0  0  0  0  0  0  0  0
    0.2557    1.3348    5.9730 C   0  0  0  0  0  0  0  0  0  0  0  0
   -0.0889    1.4150    4.6072 C   0  0  0  0  0  0  0  0  0  0  0  0
    3.6580   -0.7559    0.9138 C   0  0  0  0  0  0  0  0  0  0  0  0
    4.6473   -3.4072   -1.8036 C   0  0  0  0  0  0  0  0  0  0  0  0
    4.6149   -3.4380   -3.2070 C   0  0  0  0  0  0  0  0  0  0  0  0
    4.2190   -2.3703   -3.9318 N   0  0  0  0  0  0  0  0  0  0  0  0
   -2.2011    2.4456    2.4183 H   0  0  0  0  0  0  0  0  0  0  0  0
    3.1143    0.6235   -3.5047 H   0  0  0  0  0  0  0  0  0  0  0  0
    3.4155   -0.2509   -4.9837 H   0  0  0  0  0  0  0  0  0  0  0  0
    5.0027   -2.4248    0.7760 H   0  0  0  0  0  0  0  0  0  0  0  0
    1.9788   -2.6725    0.3736 H   0  0  0  0  0  0  0  0  0  0  0  0
    3.0336   -3.6333    1.4957 H   0  0  0  0  0  0  0  0  0  0  0  0
    1.0824   -0.6625    1.3536 H   0  0  0  0  0  0  0  0  0  0  0  0
    0.9762   -1.7089    2.7286 H   0  0  0  0  0  0  0  0  0  0  0  0
    2.1432   -0.1009    4.1416 H   0  0  0  0  0  0  0  0  0  0  0  0
    2.5129    0.9428    2.7938 H   0  0  0  0  0  0  0  0  0  0  0  0
   -0.2953    1.2863    1.2950 H   0  0  0  0  0  0  0  0  0  0  0  0
   -2.4439    2.9930    7.2362 H   0  0  0  0  0  0  0  0  0  0  0  0
   -0.3466    1.8571    7.9873 H   0  0  0  0  0  0  0  0  0  0  0  0
    1.1737    0.8480    6.2687 H   0  0  0  0  0  0  0  0  0  0  0  0
    4.4629   -0.1162    1.2869 H   0  0  0  0  0  0  0  0  0  0  0  0
    2.9724   -0.2036    0.2681 H   0  0  0  0  0  0  0  0  0  0  0  0
    4.9158   -4.2780   -1.2267 H   0  0  0  0  0  0  0  0  0  0  0  0
    4.9039   -4.3204   -3.7575 H   0  0  0  0  0  0  0  0  0  0  0  0
    3.5222   -1.7243    2.7143 H   0  0  0  0  0  0  0  0  0  0  0  0
  1  2  1  0
  1 25  1  0
  1 24  1  0
  2  3  2  0
  2 22  1  0
  3  4  1  0
  4  5  1  0
  4 20  2  0
  5 19  1  0
  5  6  1  0
  5 26  1  1
  6  7  1  0
  6 27  1  0
  6 28  1  0
  7  8  1  0
  7 19  1  0
  7 41  1  1
  8  9  1  0
  8 29  1  0
  8 30  1  0
  9 10  1  0
  9 31  1  0
  9 32  1  0
 10 18  1  0
 10 11  2  0
 11 12  1  0
 11 33  1  0
 12 23  1  0
 12 13  1  0
 13 18  2  0
 13 14  1  0
 14 15  2  0
 15 16  1  0
 15 34  1  0
 16 17  2  0
 16 35  1  0
 17 18  1  0
 17 36  1  0
 19 37  1  0
 19 38  1  0
 20 39  1  0
 20 21  1  0
 21 40  1  0
 21 22  2  0
M  CHG  1   7   1
M  END
>  <i_m_ct_stereo_status>  (280) 
1

>  <s_m_source_file>  (280) 
/var/tmp/pbs.5102103.sched01/tmpndyyrgqo/88kp20v8wr.sdf

>  <i_m_source_file_index>  (280) 
19

>  <i_lp_mmshare_version>  (280) 
48012

>  <i_f3d_flags>  (280) 
0

>  <s_epik_input>  (280) 
W0hdL049YzEvbmMoW2NIXVtjSF1bbkhdMSlbQ0hdMltDSDJdTihbQ0gyXTIpW0NIMl1bQ0gyXWMoW2NIXVtuSF0zKWMoYzM0KVtjSF1bY0hdW2NIXW40

>  <s_epik_cmdline>  (280) 
J2VwaWtfcHl0aG9uJywgJy1waHQnLCAnMi4wJywgJy1waCcsICc3LjAnLCAnLXRuJywgJzgnLCAnLW1hJywgJzIwMCcsICctaW1hZScsICc8aW5maWxlLm1hZT4nLCAnLW9tYWUnLCAnPG91dGZpbGUubWFlPic=

>  <r_lp_tautomer_probability>  (280) 
0.999998

>  <r_epik_Ionization_Penalty>  (280) 
0.0255194

>  <r_epik_Ionization_Penalty_Charging>  (280) 
0.0241843

>  <r_epik_Ionization_Penalty_Neutral>  (280) 
0.00133508

>  <r_epik_State_Penalty>  (280) 
0.0196169

>  <r_epik_Charging_Adjusted_Penalty>  (280) 
0.0438012

>  <i_epik_Tot_Q>  (280) 
1

>  <i_epik_Tot_abs_Q>  (280) 
1

>  <s_lp_Force_Field>  (280) 
OPLS3e

>  <r_lp_Energy>  (280) 
39.4348

>  <b_lp_Chiralities_Consistent>  (280) 
1

>  <s_lp_Variant>  (280) 
65:0-1

>  <s_i_glide_gridfile>  (280) 
pfpi4k_grid

>  <i_i_glide_lignum>  (280) 
19

>  <i_i_glide_rotatable_bonds>  (280) 
4

>  <r_i_docking_score>  (280) 
-4.13111

>  <r_i_glide_ligand_efficiency>  (280) 
-0.187778

>  <r_i_glide_ligand_efficiency_sa>  (280) 
-0.526161

>  <r_i_glide_ligand_efficiency_ln>  (280) 
-1.0098

>  <r_i_glide_gscore>  (280) 
-4.13111

>  <r_i_glide_lipo>  (280) 
-0.198908

>  <r_i_glide_hbond>  (280) 
-0.390714

>  <r_i_glide_metal>  (280) 
-0

>  <r_i_glide_rewards>  (280) 
-1.52812

>  <r_i_glide_evdw>  (280) 
-30.1539

>  <r_i_glide_ecoul>  (280) 
-8.40975

>  <r_i_glide_erotb>  (280) 
0.83922

>  <r_i_glide_esite>  (280) 
-0.083436

>  <r_i_glide_emodel>  (280) 
-47.2089

>  <r_i_glide_energy>  (280) 
-38.5637

>  <r_i_glide_einternal>  (280) 
3.43048

>  <r_i_glide_intrahb_reward>  (280) 
-0

>  <i_i_glide_confnum>  (280) 
5

>  <i_i_glide_posenum>  (280) 
3

>  <r_i_glide_eff_state_penalty>  (280) 
0

>  <ligand_id>  (280) 
65

>  <original_smiles>  (280) 
N=c1nc(C2CN(CCc3c[nH]c4ncccc34)C2)cc[nH]1

>  <smiles>  (280) 
[H]c1nc(N([H])[H])nc(C2([H])C([H])([H])[N+]([H])(C([H])([H])C([H])([H])c3c([H])n([H])c4nc([H])c([H])c([H])c34)C2([H])[H])c1[H]

$$$$
65:0:1
     RDKit          3D

 41 44  0  0  1  0  0  0  0  0999 V2000
    2.3176   -3.3108   -3.9196 N   0  0  0  0  0  0  0  0  0  0  0  0
    3.0275   -2.5632   -3.0516 C   0  0  0  0  0  0  0  0  0  0  0  0
    3.2105   -3.0547   -1.8213 N   0  0  0  0  0  0  0  0  0  0  0  0
    3.9270   -2.2908   -0.9817 C   0  0  0  0  0  0  0  0  0  0  0  0
    4.0468   -2.7462    0.4575 C   0  0  2  0  0  0  0  0  0  0  0  0
    2.8102   -2.9793    1.3036 C   0  0  0  0  0  0  0  0  0  0  0  0
    3.5899   -2.4827    2.4449 N   0  0  2  0  0  0  0  0  0  0  0  0
    2.8381   -1.6014    3.3816 C   0  0  0  0  0  0  0  0  0  0  0  0
    1.9385   -2.4431    4.2846 C   0  0  0  0  0  0  0  0  0  0  0  0
    1.2501   -1.6100    5.3060 C   0  0  0  0  0  0  0  0  0  0  0  0
    1.4642   -1.6426    6.6555 C   0  0  0  0  0  0  0  0  0  0  0  0
    0.6279   -0.7119    7.2594 N   0  0  0  0  0  0  0  0  0  0  0  0
   -0.1416   -0.0710    6.3211 C   0  0  0  0  0  0  0  0  0  0  0  0
   -1.0898    0.8920    6.5517 N   0  0  0  0  0  0  0  0  0  0  0  0
   -1.6703    1.3876    5.4340 C   0  0  0  0  0  0  0  0  0  0  0  0
   -1.3835    0.9406    4.1274 C   0  0  0  0  0  0  0  0  0  0  0  0
   -0.4148   -0.0687    3.9487 C   0  0  0  0  0  0  0  0  0  0  0  0
    0.2381   -0.6054    5.0646 C   0  0  0  0  0  0  0  0  0  0  0  0
    4.4738   -1.7630    1.5338 C   0  0  0  0  0  0  0  0  0  0  0  0
    4.5014   -1.0663   -1.3947 C   0  0  0  0  0  0  0  0  0  0  0  0
    4.2154   -0.6689   -2.7080 C   0  0  0  0  0  0  0  0  0  0  0  0
    3.4889   -1.4153   -3.5417 N   0  0  0  0  0  0  0  0  0  0  0  0
    0.6303   -0.5131    8.2475 H   0  0  0  0  0  0  0  0  0  0  0  0
    1.8344   -4.1355   -3.5770 H   0  0  0  0  0  0  0  0  0  0  0  0
    2.0612   -2.9059   -4.8168 H   0  0  0  0  0  0  0  0  0  0  0  0
    4.6941   -3.6349    0.4854 H   0  0  0  0  0  0  0  0  0  0  0  0
    1.9831   -2.3317    0.9983 H   0  0  0  0  0  0  0  0  0  0  0  0
    2.4950   -4.0234    1.3937 H   0  0  0  0  0  0  0  0  0  0  0  0
    3.5214   -1.0037    3.9908 H   0  0  0  0  0  0  0  0  0  0  0  0
    2.2294   -0.8615    2.8540 H   0  0  0  0  0  0  0  0  0  0  0  0
    1.1882   -2.9501    3.6814 H   0  0  0  0  0  0  0  0  0  0  0  0
    2.5324   -3.2113    4.7721 H   0  0  0  0  0  0  0  0  0  0  0  0
    2.1595   -2.2555    7.2283 H   0  0  0  0  0  0  0  0  0  0  0  0
   -2.4027    2.1715    5.5866 H   0  0  0  0  0  0  0  0  0  0  0  0
   -1.9041    1.3518    3.2771 H   0  0  0  0  0  0  0  0  0  0  0  0
   -0.1807   -0.4309    2.9563 H   0  0  0  0  0  0  0  0  0  0  0  0
    5.5314   -1.7854    1.8060 H   0  0  0  0  0  0  0  0  0  0  0  0
    4.1230   -0.7415    1.3565 H   0  0  0  0  0  0  0  0  0  0  0  0
    5.0537   -0.4268   -0.7339 H   0  0  0  0  0  0  0  0  0  0  0  0
    4.5718    0.2858   -3.0719 H   0  0  0  0  0  0  0  0  0  0  0  0
    4.1091   -3.2382    2.8646 H   0  0  0  0  0  0  0  0  0  0  0  0
  1  2  1  0
  1 25  1  0
  1 24  1  0
  2  3  2  0
  2 22  1  0
  3  4  1  0
  4  5  1  0
  4 20  2  0
  5 19  1  0
  5  6  1  0
  5 26  1  6
  6  7  1  0
  6 27  1  0
  6 28  1  0
  7  8  1  0
  7 19  1  0
  7 41  1  1
  8  9  1  0
  8 29  1  0
  8 30  1  0
  9 10  1  0
  9 31  1  0
  9 32  1  0
 10 18  1  0
 10 11  2  0
 11 12  1  0
 11 33  1  0
 12 23  1  0
 12 13  1  0
 13 18  2  0
 13 14  1  0
 14 15  2  0
 15 16  1  0
 15 34  1  0
 16 17  2  0
 16 35  1  0
 17 18  1  0
 17 36  1  0
 19 37  1  0
 19 38  1  0
 20 39  1  0
 20 21  1  0
 21 40  1  0
 21 22  2  0
M  CHG  1   7   1
M  END
>  <i_m_ct_stereo_status>  (281) 
1

>  <s_m_source_file>  (281) 
/var/tmp/pbs.5102103.sched01/tmpndyyrgqo/88kp20v8wr.sdf

>  <i_m_source_file_index>  (281) 
19

>  <i_lp_mmshare_version>  (281) 
48012

>  <i_f3d_flags>  (281) 
0

>  <s_epik_input>  (281) 
W0hdL049YzEvbmMoW2NIXVtjSF1bbkhdMSlbQ0hdMltDSDJdTihbQ0gyXTIpW0NIMl1bQ0gyXWMoW2NIXVtuSF0zKWMoYzM0KVtjSF1bY0hdW2NIXW40

>  <s_epik_cmdline>  (281) 
J2VwaWtfcHl0aG9uJywgJy1waHQnLCAnMi4wJywgJy1waCcsICc3LjAnLCAnLXRuJywgJzgnLCAnLW1hJywgJzIwMCcsICctaW1hZScsICc8aW5maWxlLm1hZT4nLCAnLW9tYWUnLCAnPG91dGZpbGUubWFlPic=

>  <r_lp_tautomer_probability>  (281) 
0.999998

>  <r_epik_Ionization_Penalty>  (281) 
0.0255194

>  <r_epik_Ionization_Penalty_Charging>  (281) 
0.0241843

>  <r_epik_Ionization_Penalty_Neutral>  (281) 
0.00133508

>  <r_epik_State_Penalty>  (281) 
0.0196169

>  <r_epik_Charging_Adjusted_Penalty>  (281) 
0.0438012

>  <i_epik_Tot_Q>  (281) 
1

>  <i_epik_Tot_abs_Q>  (281) 
1

>  <s_lp_Force_Field>  (281) 
OPLS3e

>  <r_lp_Energy>  (281) 
39.4348

>  <b_lp_Chiralities_Consistent>  (281) 
1

>  <s_lp_Variant>  (281) 
65:0-1

>  <s_i_glide_gridfile>  (281) 
pfpi4k_grid

>  <i_i_glide_lignum>  (281) 
19

>  <i_i_glide_rotatable_bonds>  (281) 
4

>  <r_i_docking_score>  (281) 
-3.61448

>  <r_i_glide_ligand_efficiency>  (281) 
-0.164295

>  <r_i_glide_ligand_efficiency_sa>  (281) 
-0.46036

>  <r_i_glide_ligand_efficiency_ln>  (281) 
-0.883511

>  <r_i_glide_gscore>  (281) 
-3.61448

>  <r_i_glide_lipo>  (281) 
-0.118051

>  <r_i_glide_hbond>  (281) 
-0.507056

>  <r_i_glide_metal>  (281) 
-0

>  <r_i_glide_rewards>  (281) 
-1.44063

>  <r_i_glide_evdw>  (281) 
-24.2093

>  <r_i_glide_ecoul>  (281) 
-7.49098

>  <r_i_glide_erotb>  (281) 
0.83922

>  <r_i_glide_esite>  (281) 
-0.0538577

>  <r_i_glide_emodel>  (281) 
-40.3858

>  <r_i_glide_energy>  (281) 
-31.7002

>  <r_i_glide_einternal>  (281) 
0.376008

>  <r_i_glide_intrahb_reward>  (281) 
-0

>  <i_i_glide_confnum>  (281) 
4

>  <i_i_glide_posenum>  (281) 
39

>  <r_i_glide_eff_state_penalty>  (281) 
0

>  <ligand_id>  (281) 
65

>  <original_smiles>  (281) 
N=c1nc(C2CN(CCc3c[nH]c4ncccc34)C2)cc[nH]1

>  <smiles>  (281) 
[H]c1nc(N([H])[H])nc(C2([H])C([H])([H])[N+]([H])(C([H])([H])C([H])([H])c3c([H])n([H])c4nc([H])c([H])c([H])c34)C2([H])[H])c1[H]

$$$$
65:0:2
     RDKit          3D

 41 44  0  0  1  0  0  0  0  0999 V2000
    2.3584   -2.6555   -3.5170 N   0  0  0  0  0  0  0  0  0  0  0  0
    3.5249   -2.7172   -2.8197 C   0  0  0  0  0  0  0  0  0  0  0  0
    3.4753   -2.2889   -1.5697 N   0  0  0  0  0  0  0  0  0  0  0  0
    4.6250   -2.3205   -0.8667 C   0  0  0  0  0  0  0  0  0  0  0  0
    4.5099   -1.8054    0.5546 C   0  0  2  0  0  0  0  0  0  0  0  0
    3.4385   -2.3485    1.4896 C   0  0  0  0  0  0  0  0  0  0  0  0
    3.3445   -1.0025    2.0462 N   0  0  2  0  0  0  0  0  0  0  0  0
    1.9531   -0.5535    2.3261 C   0  0  0  0  0  0  0  0  0  0  0  0
    1.9563    0.8760    2.8385 C   0  0  0  0  0  0  0  0  0  0  0  0
    0.5801    1.3499    3.1368 C   0  0  0  0  0  0  0  0  0  0  0  0
   -0.4898    1.3381    2.2872 C   0  0  0  0  0  0  0  0  0  0  0  0
   -1.5976    1.8674    2.9434 N   0  0  0  0  0  0  0  0  0  0  0  0
   -1.2606    2.2479    4.2148 C   0  0  0  0  0  0  0  0  0  0  0  0
   -2.0931    2.8101    5.1593 N   0  0  0  0  0  0  0  0  0  0  0  0
   -1.4980    3.0719    6.3331 C   0  0  0  0  0  0  0  0  0  0  0  0
   -0.1317    2.8109    6.6240 C   0  0  0  0  0  0  0  0  0  0  0  0
    0.6744    2.2349    5.6245 C   0  0  0  0  0  0  0  0  0  0  0  0
    0.1124    1.9304    4.3703 C   0  0  0  0  0  0  0  0  0  0  0  0
    3.9165   -0.4365    0.8267 C   0  0  0  0  0  0  0  0  0  0  0  0
    5.8273   -2.7800   -1.4174 C   0  0  0  0  0  0  0  0  0  0  0  0
    5.7435   -3.2220   -2.7471 C   0  0  0  0  0  0  0  0  0  0  0  0
    4.6030   -3.1696   -3.4611 N   0  0  0  0  0  0  0  0  0  0  0  0
   -2.5120    1.9171    2.5278 H   0  0  0  0  0  0  0  0  0  0  0  0
    1.5323   -2.3343   -3.0433 H   0  0  0  0  0  0  0  0  0  0  0  0
    2.2974   -2.9900   -4.4588 H   0  0  0  0  0  0  0  0  0  0  0  0
    5.4807   -1.8715    1.0390 H   0  0  0  0  0  0  0  0  0  0  0  0
    2.5384   -2.6558    0.9582 H   0  0  0  0  0  0  0  0  0  0  0  0
    3.7761   -3.1208    2.1895 H   0  0  0  0  0  0  0  0  0  0  0  0
    1.3360   -0.6280    1.4291 H   0  0  0  0  0  0  0  0  0  0  0  0
    1.4960   -1.2228    3.0509 H   0  0  0  0  0  0  0  0  0  0  0  0
    2.5647    0.9255    3.7359 H   0  0  0  0  0  0  0  0  0  0  0  0
    2.4072    1.5485    2.1131 H   0  0  0  0  0  0  0  0  0  0  0  0
   -0.5597    0.9820    1.2738 H   0  0  0  0  0  0  0  0  0  0  0  0
   -2.1273    3.5166    7.0915 H   0  0  0  0  0  0  0  0  0  0  0  0
    0.2825    3.0580    7.5887 H   0  0  0  0  0  0  0  0  0  0  0  0
    1.7200    2.0282    5.8101 H   0  0  0  0  0  0  0  0  0  0  0  0
    4.6328    0.3823    0.9666 H   0  0  0  0  0  0  0  0  0  0  0  0
    3.1692   -0.2010    0.0853 H   0  0  0  0  0  0  0  0  0  0  0  0
    6.7481   -2.8224   -0.8579 H   0  0  0  0  0  0  0  0  0  0  0  0
    6.6076   -3.6067   -3.2575 H   0  0  0  0  0  0  0  0  0  0  0  0
    3.9957   -0.9016    2.8141 H   0  0  0  0  0  0  0  0  0  0  0  0
  1  2  1  0
  1 25  1  0
  1 24  1  0
  2  3  2  0
  2 22  1  0
  3  4  1  0
  4  5  1  0
  4 20  2  0
  5 19  1  0
  5  6  1  0
  5 26  1  1
  6  7  1  0
  6 27  1  0
  6 28  1  0
  7  8  1  0
  7 19  1  0
  7 41  1  1
  8  9  1  0
  8 29  1  0
  8 30  1  0
  9 10  1  0
  9 31  1  0
  9 32  1  0
 10 18  1  0
 10 11  2  0
 11 12  1  0
 11 33  1  0
 12 23  1  0
 12 13  1  0
 13 18  2  0
 13 14  1  0
 14 15  2  0
 15 16  1  0
 15 34  1  0
 16 17  2  0
 16 35  1  0
 17 18  1  0
 17 36  1  0
 19 37  1  0
 19 38  1  0
 20 39  1  0
 20 21  1  0
 21 40  1  0
 21 22  2  0
M  CHG  1   7   1
M  END
>  <i_m_ct_stereo_status>  (282) 
1

>  <s_m_source_file>  (282) 
/var/tmp/pbs.5102103.sched01/tmpndyyrgqo/88kp20v8wr.sdf

>  <i_m_source_file_index>  (282) 
19

>  <i_lp_mmshare_version>  (282) 
48012

>  <i_f3d_flags>  (282) 
0

>  <s_epik_input>  (282) 
W0hdL049YzEvbmMoW2NIXVtjSF1bbkhdMSlbQ0hdMltDSDJdTihbQ0gyXTIpW0NIMl1bQ0gyXWMoW2NIXVtuSF0zKWMoYzM0KVtjSF1bY0hdW2NIXW40

>  <s_epik_cmdline>  (282) 
J2VwaWtfcHl0aG9uJywgJy1waHQnLCAnMi4wJywgJy1waCcsICc3LjAnLCAnLXRuJywgJzgnLCAnLW1hJywgJzIwMCcsICctaW1hZScsICc8aW5maWxlLm1hZT4nLCAnLW9tYWUnLCAnPG91dGZpbGUubWFlPic=

>  <r_lp_tautomer_probability>  (282) 
0.999998

>  <r_epik_Ionization_Penalty>  (282) 
0.0255194

>  <r_epik_Ionization_Penalty_Charging>  (282) 
0.0241843

>  <r_epik_Ionization_Penalty_Neutral>  (282) 
0.00133508

>  <r_epik_State_Penalty>  (282) 
0.0196169

>  <r_epik_Charging_Adjusted_Penalty>  (282) 
0.0438012

>  <i_epik_Tot_Q>  (282) 
1

>  <i_epik_Tot_abs_Q>  (282) 
1

>  <s_lp_Force_Field>  (282) 
OPLS3e

>  <r_lp_Energy>  (282) 
39.4348

>  <b_lp_Chiralities_Consistent>  (282) 
1

>  <s_lp_Variant>  (282) 
65:0-1

>  <s_i_glide_gridfile>  (282) 
pfpi4k_grid

>  <i_i_glide_lignum>  (282) 
19

>  <i_i_glide_rotatable_bonds>  (282) 
4

>  <r_i_docking_score>  (282) 
-3.37452

>  <r_i_glide_ligand_efficiency>  (282) 
-0.153387

>  <r_i_glide_ligand_efficiency_sa>  (282) 
-0.429797

>  <r_i_glide_ligand_efficiency_ln>  (282) 
-0.824855

>  <r_i_glide_gscore>  (282) 
-3.37452

>  <r_i_glide_lipo>  (282) 
-0.32353

>  <r_i_glide_hbond>  (282) 
-0.116056

>  <r_i_glide_metal>  (282) 
-0

>  <r_i_glide_rewards>  (282) 
-1.39526

>  <r_i_glide_evdw>  (282) 
-28.2666

>  <r_i_glide_ecoul>  (282) 
-6.02981

>  <r_i_glide_erotb>  (282) 
0.83922

>  <r_i_glide_esite>  (282) 
-0.0610892

>  <r_i_glide_emodel>  (282) 
-42.487

>  <r_i_glide_energy>  (282) 
-34.2965

>  <r_i_glide_einternal>  (282) 
0.397687

>  <r_i_glide_intrahb_reward>  (282) 
-0

>  <i_i_glide_confnum>  (282) 
5

>  <i_i_glide_posenum>  (282) 
29

>  <r_i_glide_eff_state_penalty>  (282) 
0

>  <ligand_id>  (282) 
65

>  <original_smiles>  (282) 
N=c1nc(C2CN(CCc3c[nH]c4ncccc34)C2)cc[nH]1

>  <smiles>  (282) 
[H]c1nc(N([H])[H])nc(C2([H])C([H])([H])[N+]([H])(C([H])([H])C([H])([H])c3c([H])n([H])c4nc([H])c([H])c([H])c34)C2([H])[H])c1[H]

$$$$
65:1:0
     RDKit          3D

 40 43  0  0  1  0  0  0  0  0999 V2000
    3.4725   -0.2333   -4.0365 N   0  0  0  0  0  0  0  0  0  0  0  0
    3.8528   -1.3142   -3.2941 C   0  0  0  0  0  0  0  0  0  0  0  0
    3.8717   -1.1410   -1.9825 N   0  0  0  0  0  0  0  0  0  0  0  0
    4.2649   -2.1885   -1.2265 C   0  0  0  0  0  0  0  0  0  0  0  0
    4.1546   -2.0237    0.2783 C   0  0  0  0  0  0  0  0  0  0  0  0
    2.9591   -2.6012    1.0352 C   0  0  0  0  0  0  0  0  0  0  0  0
    3.0815   -1.4554    1.9353 N   0  0  0  0  0  0  0  0  0  0  0  0
    1.7653   -0.9010    2.2472 C   0  0  0  0  0  0  0  0  0  0  0  0
    1.8847    0.3425    3.1407 C   0  0  0  0  0  0  0  0  0  0  0  0
    0.5707    1.0358    3.3467 C   0  0  0  0  0  0  0  0  0  0  0  0
   -0.2473    1.5585    2.3707 C   0  0  0  0  0  0  0  0  0  0  0  0
   -1.3527    2.1377    2.9749 N   0  0  0  0  0  0  0  0  0  0  0  0
   -1.2778    2.0287    4.3441 C   0  0  0  0  0  0  0  0  0  0  0  0
   -2.1793    2.4929    5.2582 N   0  0  0  0  0  0  0  0  0  0  0  0
   -1.8649    2.2168    6.5460 C   0  0  0  0  0  0  0  0  0  0  0  0
   -0.7009    1.5262    6.9507 C   0  0  0  0  0  0  0  0  0  0  0  0
    0.2090    1.0895    5.9684 C   0  0  0  0  0  0  0  0  0  0  0  0
   -0.0693    1.3225    4.6048 C   0  0  0  0  0  0  0  0  0  0  0  0
    3.7114   -0.6857    0.8662 C   0  0  0  0  0  0  0  0  0  0  0  0
    4.6795   -3.3997   -1.8122 C   0  0  0  0  0  0  0  0  0  0  0  0
    4.6270   -3.4597   -3.2160 C   0  0  0  0  0  0  0  0  0  0  0  0
    4.2094   -2.4118   -3.9587 N   0  0  0  0  0  0  0  0  0  0  0  0
   -2.0969    2.5832    2.4603 H   0  0  0  0  0  0  0  0  0  0  0  0
    3.1157    0.5877   -3.5564 H   0  0  0  0  0  0  0  0  0  0  0  0
    3.3889   -0.3132   -5.0360 H   0  0  0  0  0  0  0  0  0  0  0  0
    5.0946   -2.3458    0.7376 H   0  0  0  0  0  0  0  0  0  0  0  0
    2.0300   -2.5706    0.4587 H   0  0  0  0  0  0  0  0  0  0  0  0
    3.1327   -3.5460    1.5571 H   0  0  0  0  0  0  0  0  0  0  0  0
    1.2254   -0.6556    1.3338 H   0  0  0  0  0  0  0  0  0  0  0  0
    1.1742   -1.6587    2.7606 H   0  0  0  0  0  0  0  0  0  0  0  0
    2.2915    0.0301    4.0987 H   0  0  0  0  0  0  0  0  0  0  0  0
    2.5995    1.0524    2.7250 H   0  0  0  0  0  0  0  0  0  0  0  0
   -0.1292    1.5811    1.2911 H   0  0  0  0  0  0  0  0  0  0  0  0
   -2.5729    2.5515    7.2874 H   0  0  0  0  0  0  0  0  0  0  0  0
   -0.4960    1.3547    7.9977 H   0  0  0  0  0  0  0  0  0  0  0  0
    1.1258    0.5833    6.2437 H   0  0  0  0  0  0  0  0  0  0  0  0
    4.4999   -0.0214    1.2250 H   0  0  0  0  0  0  0  0  0  0  0  0
    2.9527   -0.1959    0.2518 H   0  0  0  0  0  0  0  0  0  0  0  0
    4.9638   -4.2555   -1.2244 H   0  0  0  0  0  0  0  0  0  0  0  0
    4.9087   -4.3537   -3.7559 H   0  0  0  0  0  0  0  0  0  0  0  0
  1  2  1  0
  1 25  1  0
  1 24  1  0
  2  3  2  0
  2 22  1  0
  3  4  1  0
  4  5  1  0
  4 20  2  0
  5 19  1  0
  5  6  1  0
  5 26  1  0
  6  7  1  0
  6 27  1  0
  6 28  1  0
  7  8  1  0
  7 19  1  0
  8  9  1  0
  8 29  1  0
  8 30  1  0
  9 10  1  0
  9 31  1  0
  9 32  1  0
 10 18  1  0
 10 11  2  0
 11 12  1  0
 11 33  1  0
 12 23  1  0
 12 13  1  0
 13 18  2  0
 13 14  1  0
 14 15  2  0
 15 16  1  0
 15 34  1  0
 16 17  2  0
 16 35  1  0
 17 18  1  0
 17 36  1  0
 19 37  1  0
 19 38  1  0
 20 39  1  0
 20 21  1  0
 21 40  1  0
 21 22  2  0
M  END
>  <i_m_ct_stereo_status>  (283) 
1

>  <s_m_source_file>  (283) 
/var/tmp/pbs.5102103.sched01/tmpndyyrgqo/88kp20v8wr.sdf

>  <i_m_source_file_index>  (283) 
20

>  <i_lp_mmshare_version>  (283) 
48012

>  <i_f3d_flags>  (283) 
0

>  <s_epik_input>  (283) 
W0hdL049YzEvbmMoW2NIXVtjSF1bbkhdMSlbQ0hdMltDSDJdTihbQ0gyXTIpW0NIMl1bQ0gyXWMoW2NIXVtuSF0zKWMoYzM0KVtjSF1bY0hdW2NIXW40

>  <s_epik_cmdline>  (283) 
J2VwaWtfcHl0aG9uJywgJy1waHQnLCAnMi4wJywgJy1waCcsICc3LjAnLCAnLXRuJywgJzgnLCAnLW1hJywgJzIwMCcsICctaW1hZScsICc8aW5maWxlLm1hZT4nLCAnLW9tYWUnLCAnPG91dGZpbGUubWFlPic=

>  <r_lp_tautomer_probability>  (283) 
0.999998

>  <r_epik_Ionization_Penalty>  (283) 
2.03435

>  <r_epik_Ionization_Penalty_Charging>  (283) 
0

>  <r_epik_Ionization_Penalty_Neutral>  (283) 
2.03435

>  <r_epik_State_Penalty>  (283) 
2.02894

>  <r_epik_Charging_Adjusted_Penalty>  (283) 
2.02894

>  <i_epik_Tot_Q>  (283) 
0

>  <i_epik_Tot_abs_Q>  (283) 
0

>  <s_lp_Force_Field>  (283) 
OPLS3e

>  <r_lp_Energy>  (283) 
25.0008

>  <b_lp_Chiralities_Consistent>  (283) 
1

>  <s_lp_Variant>  (283) 
65:0-2

>  <s_i_glide_gridfile>  (283) 
pfpi4k_grid

>  <i_i_glide_lignum>  (283) 
20

>  <i_i_glide_rotatable_bonds>  (283) 
4

>  <r_i_docking_score>  (283) 
-3.65786

>  <r_i_glide_ligand_efficiency>  (283) 
-0.166267

>  <r_i_glide_ligand_efficiency_sa>  (283) 
-0.465885

>  <r_i_glide_ligand_efficiency_ln>  (283) 
-0.894115

>  <r_i_glide_gscore>  (283) 
-3.65786

>  <r_i_glide_lipo>  (283) 
-0.157686

>  <r_i_glide_hbond>  (283) 
-0.373611

>  <r_i_glide_metal>  (283) 
-0

>  <r_i_glide_rewards>  (283) 
-1.55275

>  <r_i_glide_evdw>  (283) 
-30.6996

>  <r_i_glide_ecoul>  (283) 
-5.44972

>  <r_i_glide_erotb>  (283) 
0.844246

>  <r_i_glide_esite>  (283) 
-0.065624

>  <r_i_glide_emodel>  (283) 
-41.9779

>  <r_i_glide_energy>  (283) 
-36.1493

>  <r_i_glide_einternal>  (283) 
4.72887

>  <r_i_glide_intrahb_reward>  (283) 
-0

>  <i_i_glide_confnum>  (283) 
5

>  <i_i_glide_posenum>  (283) 
10

>  <r_i_glide_eff_state_penalty>  (283) 
0

>  <ligand_id>  (283) 
65

>  <original_smiles>  (283) 
N=c1nc(C2CN(CCc3c[nH]c4ncccc34)C2)cc[nH]1

>  <smiles>  (283) 
[H]c1nc(N([H])[H])nc(C2([H])C([H])([H])N(C([H])([H])C([H])([H])c3c([H])n([H])c4nc([H])c([H])c([H])c34)C2([H])[H])c1[H]

$$$$
65:1:1
     RDKit          3D

 40 43  0  0  1  0  0  0  0  0999 V2000
    3.4671   -0.3710   -3.9529 N   0  0  0  0  0  0  0  0  0  0  0  0
    3.9520   -1.3498   -3.1347 C   0  0  0  0  0  0  0  0  0  0  0  0
    3.9412   -1.0664   -1.8411 N   0  0  0  0  0  0  0  0  0  0  0  0
    4.4716   -1.9802   -1.0041 C   0  0  0  0  0  0  0  0  0  0  0  0
    4.3661   -1.6506    0.4767 C   0  0  0  0  0  0  0  0  0  0  0  0
    3.0144   -1.6610    1.1791 C   0  0  0  0  0  0  0  0  0  0  0  0
    3.5251   -0.5646    2.0051 N   0  0  0  0  0  0  0  0  0  0  0  0
    2.5086    0.4755    2.1791 C   0  0  0  0  0  0  0  0  0  0  0  0
    2.8484    1.3669    3.3818 C   0  0  0  0  0  0  0  0  0  0  0  0
    1.8986    2.5129    3.5442 C   0  0  0  0  0  0  0  0  0  0  0  0
    2.2027    3.8517    3.4555 C   0  0  0  0  0  0  0  0  0  0  0  0
    1.0495    4.5927    3.6763 N   0  0  0  0  0  0  0  0  0  0  0  0
   -0.0276    3.7592    3.8952 C   0  0  0  0  0  0  0  0  0  0  0  0
   -1.3230    4.1308    4.1471 N   0  0  0  0  0  0  0  0  0  0  0  0
   -2.1717    3.0901    4.3313 C   0  0  0  0  0  0  0  0  0  0  0  0
   -1.7895    1.7343    4.2941 C   0  0  0  0  0  0  0  0  0  0  0  0
   -0.4447    1.4091    4.0304 C   0  0  0  0  0  0  0  0  0  0  0  0
    0.4924    2.4392    3.8239 C   0  0  0  0  0  0  0  0  0  0  0  0
    4.4819   -0.2043    0.9532 C   0  0  0  0  0  0  0  0  0  0  0  0
    5.0392   -3.1778   -1.4873 C   0  0  0  0  0  0  0  0  0  0  0  0
    4.9915   -3.3664   -2.8839 C   0  0  0  0  0  0  0  0  0  0  0  0
    4.4387   -2.4472   -3.7077 N   0  0  0  0  0  0  0  0  0  0  0  0
    1.0095    5.5996    3.6167 H   0  0  0  0  0  0  0  0  0  0  0  0
    3.0076    0.4265   -3.5270 H   0  0  0  0  0  0  0  0  0  0  0  0
    3.3686   -0.5496   -4.9386 H   0  0  0  0  0  0  0  0  0  0  0  0
    5.0808   -2.2734    1.0260 H   0  0  0  0  0  0  0  0  0  0  0  0
    2.2057   -1.3354    0.5395 H   0  0  0  0  0  0  0  0  0  0  0  0
    2.7890   -2.5522    1.7723 H   0  0  0  0  0  0  0  0  0  0  0  0
    2.3804    1.0753    1.2808 H   0  0  0  0  0  0  0  0  0  0  0  0
    1.5459   -0.0036    2.3527 H   0  0  0  0  0  0  0  0  0  0  0  0
    2.8385    0.7559    4.2788 H   0  0  0  0  0  0  0  0  0  0  0  0
    3.8565    1.7487    3.2837 H   0  0  0  0  0  0  0  0  0  0  0  0
    3.1507    4.3319    3.2500 H   0  0  0  0  0  0  0  0  0  0  0  0
   -3.2060    3.3387    4.5203 H   0  0  0  0  0  0  0  0  0  0  0  0
   -2.5164    0.9542    4.4380 H   0  0  0  0  0  0  0  0  0  0  0  0
   -0.1217    0.3822    3.9874 H   0  0  0  0  0  0  0  0  0  0  0  0
    5.4517    0.1067    1.3452 H   0  0  0  0  0  0  0  0  0  0  0  0
    4.0492    0.5035    0.2410 H   0  0  0  0  0  0  0  0  0  0  0  0
    5.4493   -3.9293   -0.8358 H   0  0  0  0  0  0  0  0  0  0  0  0
    5.3946   -4.2528   -3.3543 H   0  0  0  0  0  0  0  0  0  0  0  0
  1  2  1  0
  1 25  1  0
  1 24  1  0
  2  3  2  0
  2 22  1  0
  3  4  1  0
  4  5  1  0
  4 20  2  0
  5 19  1  0
  5  6  1  0
  5 26  1  0
  6  7  1  0
  6 27  1  0
  6 28  1  0
  7  8  1  0
  7 19  1  0
  8  9  1  0
  8 29  1  0
  8 30  1  0
  9 10  1  0
  9 31  1  0
  9 32  1  0
 10 18  1  0
 10 11  2  0
 11 12  1  0
 11 33  1  0
 12 23  1  0
 12 13  1  0
 13 18  2  0
 13 14  1  0
 14 15  2  0
 15 16  1  0
 15 34  1  0
 16 17  2  0
 16 35  1  0
 17 18  1  0
 17 36  1  0
 19 37  1  0
 19 38  1  0
 20 39  1  0
 20 21  1  0
 21 40  1  0
 21 22  2  0
M  END
>  <i_m_ct_stereo_status>  (284) 
1

>  <s_m_source_file>  (284) 
/var/tmp/pbs.5102103.sched01/tmpndyyrgqo/88kp20v8wr.sdf

>  <i_m_source_file_index>  (284) 
20

>  <i_lp_mmshare_version>  (284) 
48012

>  <i_f3d_flags>  (284) 
0

>  <s_epik_input>  (284) 
W0hdL049YzEvbmMoW2NIXVtjSF1bbkhdMSlbQ0hdMltDSDJdTihbQ0gyXTIpW0NIMl1bQ0gyXWMoW2NIXVtuSF0zKWMoYzM0KVtjSF1bY0hdW2NIXW40

>  <s_epik_cmdline>  (284) 
J2VwaWtfcHl0aG9uJywgJy1waHQnLCAnMi4wJywgJy1waCcsICc3LjAnLCAnLXRuJywgJzgnLCAnLW1hJywgJzIwMCcsICctaW1hZScsICc8aW5maWxlLm1hZT4nLCAnLW9tYWUnLCAnPG91dGZpbGUubWFlPic=

>  <r_lp_tautomer_probability>  (284) 
0.999998

>  <r_epik_Ionization_Penalty>  (284) 
2.03435

>  <r_epik_Ionization_Penalty_Charging>  (284) 
0

>  <r_epik_Ionization_Penalty_Neutral>  (284) 
2.03435

>  <r_epik_State_Penalty>  (284) 
2.02894

>  <r_epik_Charging_Adjusted_Penalty>  (284) 
2.02894

>  <i_epik_Tot_Q>  (284) 
0

>  <i_epik_Tot_abs_Q>  (284) 
0

>  <s_lp_Force_Field>  (284) 
OPLS3e

>  <r_lp_Energy>  (284) 
25.0008

>  <b_lp_Chiralities_Consistent>  (284) 
1

>  <s_lp_Variant>  (284) 
65:0-2

>  <s_i_glide_gridfile>  (284) 
pfpi4k_grid

>  <i_i_glide_lignum>  (284) 
20

>  <i_i_glide_rotatable_bonds>  (284) 
4

>  <r_i_docking_score>  (284) 
-3.62559

>  <r_i_glide_ligand_efficiency>  (284) 
-0.1648

>  <r_i_glide_ligand_efficiency_sa>  (284) 
-0.461775

>  <r_i_glide_ligand_efficiency_ln>  (284) 
-0.886228

>  <r_i_glide_gscore>  (284) 
-3.62559

>  <r_i_glide_lipo>  (284) 
-0.371762

>  <r_i_glide_hbond>  (284) 
-0.105296

>  <r_i_glide_metal>  (284) 
-0

>  <r_i_glide_rewards>  (284) 
-1.46668

>  <r_i_glide_evdw>  (284) 
-30.1935

>  <r_i_glide_ecoul>  (284) 
-5.67165

>  <r_i_glide_erotb>  (284) 
0.844246

>  <r_i_glide_esite>  (284) 
-0.165681

>  <r_i_glide_emodel>  (284) 
-42.548

>  <r_i_glide_energy>  (284) 
-35.8652

>  <r_i_glide_einternal>  (284) 
2.53861

>  <r_i_glide_intrahb_reward>  (284) 
-0

>  <i_i_glide_confnum>  (284) 
5

>  <i_i_glide_posenum>  (284) 
1

>  <r_i_glide_eff_state_penalty>  (284) 
0

>  <ligand_id>  (284) 
65

>  <original_smiles>  (284) 
N=c1nc(C2CN(CCc3c[nH]c4ncccc34)C2)cc[nH]1

>  <smiles>  (284) 
[H]c1nc(N([H])[H])nc(C2([H])C([H])([H])N(C([H])([H])C([H])([H])c3c([H])n([H])c4nc([H])c([H])c([H])c34)C2([H])[H])c1[H]

$$$$
65:1:2
     RDKit          3D

 40 43  0  0  1  0  0  0  0  0999 V2000
    2.7269   -2.6386   -3.1964 N   0  0  0  0  0  0  0  0  0  0  0  0
    3.9108   -2.6001   -2.5180 C   0  0  0  0  0  0  0  0  0  0  0  0
    3.8725   -2.0291   -1.3246 N   0  0  0  0  0  0  0  0  0  0  0  0
    5.0302   -1.9403   -0.6398 C   0  0  0  0  0  0  0  0  0  0  0  0
    4.9336   -1.2812    0.7203 C   0  0  0  0  0  0  0  0  0  0  0  0
    4.0071   -1.8532    1.7898 C   0  0  0  0  0  0  0  0  0  0  0  0
    3.7961   -0.4680    2.2156 N   0  0  0  0  0  0  0  0  0  0  0  0
    2.3834   -0.2264    2.5020 C   0  0  0  0  0  0  0  0  0  0  0  0
    2.1400    1.2392    2.8897 C   0  0  0  0  0  0  0  0  0  0  0  0
    0.6986    1.5334    3.1680 C   0  0  0  0  0  0  0  0  0  0  0  0
   -0.3550    1.4021    2.2941 C   0  0  0  0  0  0  0  0  0  0  0  0
   -1.5232    1.7893    2.9324 N   0  0  0  0  0  0  0  0  0  0  0  0
   -1.2606    2.1941    4.2212 C   0  0  0  0  0  0  0  0  0  0  0  0
   -2.1672    2.6410    5.1421 N   0  0  0  0  0  0  0  0  0  0  0  0
   -1.6359    2.9555    6.3461 C   0  0  0  0  0  0  0  0  0  0  0  0
   -0.2622    2.8606    6.6518 C   0  0  0  0  0  0  0  0  0  0  0  0
    0.6304    2.4043    5.6643 C   0  0  0  0  0  0  0  0  0  0  0  0
    0.1399    2.0395    4.3939 C   0  0  0  0  0  0  0  0  0  0  0  0
    4.1343    0.0070    0.8755 C   0  0  0  0  0  0  0  0  0  0  0  0
    6.2358   -2.4514   -1.1615 C   0  0  0  0  0  0  0  0  0  0  0  0
    6.1440   -3.0568   -2.4275 C   0  0  0  0  0  0  0  0  0  0  0  0
    4.9826   -3.1113   -3.1192 N   0  0  0  0  0  0  0  0  0  0  0  0
   -2.4404    1.7506    2.5066 H   0  0  0  0  0  0  0  0  0  0  0  0
    1.8994   -2.2640   -2.7492 H   0  0  0  0  0  0  0  0  0  0  0  0
    2.6657   -3.1026   -4.0857 H   0  0  0  0  0  0  0  0  0  0  0  0
    5.9404   -1.1442    1.1264 H   0  0  0  0  0  0  0  0  0  0  0  0
    3.0965   -2.2932    1.3699 H   0  0  0  0  0  0  0  0  0  0  0  0
    4.4819   -2.4569    2.5680 H   0  0  0  0  0  0  0  0  0  0  0  0
    1.7611   -0.5045    1.6494 H   0  0  0  0  0  0  0  0  0  0  0  0
    2.0883   -0.8729    3.3275 H   0  0  0  0  0  0  0  0  0  0  0  0
    2.7386    1.4610    3.7700 H   0  0  0  0  0  0  0  0  0  0  0  0
    2.4962    1.9059    2.1056 H   0  0  0  0  0  0  0  0  0  0  0  0
   -0.3643    1.0705    1.2653 H   0  0  0  0  0  0  0  0  0  0  0  0
   -2.3295    3.3021    7.0971 H   0  0  0  0  0  0  0  0  0  0  0  0
    0.1055    3.1368    7.6287 H   0  0  0  0  0  0  0  0  0  0  0  0
    1.6880    2.3245    5.8620 H   0  0  0  0  0  0  0  0  0  0  0  0
    4.6977    0.9410    0.8773 H   0  0  0  0  0  0  0  0  0  0  0  0
    3.2552    0.0198    0.2319 H   0  0  0  0  0  0  0  0  0  0  0  0
    7.1634   -2.4290   -0.6140 H   0  0  0  0  0  0  0  0  0  0  0  0
    7.0051   -3.5026   -2.9035 H   0  0  0  0  0  0  0  0  0  0  0  0
  1  2  1  0
  1 25  1  0
  1 24  1  0
  2  3  2  0
  2 22  1  0
  3  4  1  0
  4  5  1  0
  4 20  2  0
  5 19  1  0
  5  6  1  0
  5 26  1  0
  6  7  1  0
  6 27  1  0
  6 28  1  0
  7  8  1  0
  7 19  1  0
  8  9  1  0
  8 29  1  0
  8 30  1  0
  9 10  1  0
  9 31  1  0
  9 32  1  0
 10 18  1  0
 10 11  2  0
 11 12  1  0
 11 33  1  0
 12 23  1  0
 12 13  1  0
 13 18  2  0
 13 14  1  0
 14 15  2  0
 15 16  1  0
 15 34  1  0
 16 17  2  0
 16 35  1  0
 17 18  1  0
 17 36  1  0
 19 37  1  0
 19 38  1  0
 20 39  1  0
 20 21  1  0
 21 40  1  0
 21 22  2  0
M  END
>  <i_m_ct_stereo_status>  (285) 
1

>  <s_m_source_file>  (285) 
/var/tmp/pbs.5102103.sched01/tmpndyyrgqo/88kp20v8wr.sdf

>  <i_m_source_file_index>  (285) 
20

>  <i_lp_mmshare_version>  (285) 
48012

>  <i_f3d_flags>  (285) 
0

>  <s_epik_input>  (285) 
W0hdL049YzEvbmMoW2NIXVtjSF1bbkhdMSlbQ0hdMltDSDJdTihbQ0gyXTIpW0NIMl1bQ0gyXWMoW2NIXVtuSF0zKWMoYzM0KVtjSF1bY0hdW2NIXW40

>  <s_epik_cmdline>  (285) 
J2VwaWtfcHl0aG9uJywgJy1waHQnLCAnMi4wJywgJy1waCcsICc3LjAnLCAnLXRuJywgJzgnLCAnLW1hJywgJzIwMCcsICctaW1hZScsICc8aW5maWxlLm1hZT4nLCAnLW9tYWUnLCAnPG91dGZpbGUubWFlPic=

>  <r_lp_tautomer_probability>  (285) 
0.999998

>  <r_epik_Ionization_Penalty>  (285) 
2.03435

>  <r_epik_Ionization_Penalty_Charging>  (285) 
0

>  <r_epik_Ionization_Penalty_Neutral>  (285) 
2.03435

>  <r_epik_State_Penalty>  (285) 
2.02894

>  <r_epik_Charging_Adjusted_Penalty>  (285) 
2.02894

>  <i_epik_Tot_Q>  (285) 
0

>  <i_epik_Tot_abs_Q>  (285) 
0

>  <s_lp_Force_Field>  (285) 
OPLS3e

>  <r_lp_Energy>  (285) 
25.0008

>  <b_lp_Chiralities_Consistent>  (285) 
1

>  <s_lp_Variant>  (285) 
65:0-2

>  <s_i_glide_gridfile>  (285) 
pfpi4k_grid

>  <i_i_glide_lignum>  (285) 
20

>  <i_i_glide_rotatable_bonds>  (285) 
4

>  <r_i_docking_score>  (285) 
-3.09038

>  <r_i_glide_ligand_efficiency>  (285) 
-0.140472

>  <r_i_glide_ligand_efficiency_sa>  (285) 
-0.393607

>  <r_i_glide_ligand_efficiency_ln>  (285) 
-0.755401

>  <r_i_glide_gscore>  (285) 
-3.09038

>  <r_i_glide_lipo>  (285) 
-0.370773

>  <r_i_glide_hbond>  (285) 
-0.126508

>  <r_i_glide_metal>  (285) 
-0

>  <r_i_glide_rewards>  (285) 
-1.4092

>  <r_i_glide_evdw>  (285) 
-28.4499

>  <r_i_glide_ecoul>  (285) 
-3.72138

>  <r_i_glide_erotb>  (285) 
0.844246

>  <r_i_glide_esite>  (285) 
-0.0474382

>  <r_i_glide_emodel>  (285) 
-38.0748

>  <r_i_glide_energy>  (285) 
-32.1713

>  <r_i_glide_einternal>  (285) 
2.04064

>  <r_i_glide_intrahb_reward>  (285) 
-0

>  <i_i_glide_confnum>  (285) 
5

>  <i_i_glide_posenum>  (285) 
12

>  <r_i_glide_eff_state_penalty>  (285) 
0

>  <ligand_id>  (285) 
65

>  <original_smiles>  (285) 
N=c1nc(C2CN(CCc3c[nH]c4ncccc34)C2)cc[nH]1

>  <smiles>  (285) 
[H]c1nc(N([H])[H])nc(C2([H])C([H])([H])N(C([H])([H])C([H])([H])c3c([H])n([H])c4nc([H])c([H])c([H])c34)C2([H])[H])c1[H]

$$$$
66:0:0
     RDKit          3D

 43 45  0  0  1  0  0  0  0  0999 V2000
   -7.6480   -6.3060  -10.5005 C   0  0  0  0  0  0  0  0  0  0  0  0
   -8.0991   -7.9521   -9.8964 S   0  0  0  0  0  0  0  0  0  0  0  0
   -7.3572   -8.2012   -8.2949 C   0  0  0  0  0  0  0  0  0  0  0  0
   -6.5160   -9.3313   -8.2083 C   0  0  0  0  0  0  0  0  0  0  0  0
   -5.7304   -9.5729   -7.0757 C   0  0  0  0  0  0  0  0  0  0  0  0
   -5.7622   -8.6209   -6.0394 C   0  0  0  0  0  0  0  0  0  0  0  0
   -6.6149   -7.4961   -6.1066 C   0  0  0  0  0  0  0  0  0  0  0  0
   -6.4949   -6.4654   -5.0190 C   0  0  0  0  0  0  0  0  0  0  0  0
   -5.7862   -6.6704   -4.0382 O   0  0  0  0  0  0  0  0  0  0  0  0
   -7.1384   -5.2877   -5.1795 N   0  0  0  0  0  0  0  0  0  0  0  0
   -6.9370   -4.1859   -4.2446 C   0  0  0  0  0  0  0  0  0  0  0  0
   -8.1674   -5.1618   -6.1285 C   0  0  0  0  0  0  0  0  0  0  0  0
   -8.4169   -6.0961   -7.0836 C   0  0  0  0  0  0  0  0  0  0  0  0
   -9.6775   -5.9316   -7.8213 C   0  0  0  0  0  0  0  0  0  0  0  0
  -10.0966   -4.8302   -8.1870 O   0  0  0  0  0  0  0  0  0  0  0  0
  -10.3628   -7.0758   -8.0266 N   0  0  0  0  0  0  0  0  0  0  0  0
  -11.6046   -7.1703   -8.7759 C   0  0  0  0  0  0  0  0  0  0  0  0
  -11.5903   -8.3874   -9.7043 C   0  0  2  0  0  0  0  0  0  0  0  0
  -12.9764   -8.9326  -10.0487 C   0  0  0  0  0  0  0  0  0  0  0  0
  -12.7602  -10.4390  -10.1969 C   0  0  0  0  0  0  0  0  0  0  0  0
  -11.2719  -10.6284   -9.9551 C   0  0  0  0  0  0  0  0  0  0  0  0
  -10.9299   -9.5113   -9.1319 O   0  0  0  0  0  0  0  0  0  0  0  0
   -7.5200   -7.3085   -7.1872 C   0  0  0  0  0  0  0  0  0  0  0  0
   -8.1405   -6.0924  -11.4514 H   0  0  0  0  0  0  0  0  0  0  0  0
   -6.5900   -6.2792  -10.6877 H   0  0  0  0  0  0  0  0  0  0  0  0
   -7.8922   -5.5159   -9.7879 H   0  0  0  0  0  0  0  0  0  0  0  0
   -6.4541  -10.0124   -9.0482 H   0  0  0  0  0  0  0  0  0  0  0  0
   -5.0551  -10.4226   -7.0372 H   0  0  0  0  0  0  0  0  0  0  0  0
   -5.0713   -8.7685   -5.2228 H   0  0  0  0  0  0  0  0  0  0  0  0
   -6.9646   -3.2273   -4.7549 H   0  0  0  0  0  0  0  0  0  0  0  0
   -5.9813   -4.2051   -3.7210 H   0  0  0  0  0  0  0  0  0  0  0  0
   -7.7409   -4.2141   -3.5126 H   0  0  0  0  0  0  0  0  0  0  0  0
   -8.7702   -4.2673   -5.9606 H   0  0  0  0  0  0  0  0  0  0  0  0
   -9.9751   -7.9441   -7.6753 H   0  0  0  0  0  0  0  0  0  0  0  0
  -12.3878   -7.2055   -8.0262 H   0  0  0  0  0  0  0  0  0  0  0  0
  -11.8060   -6.2718   -9.3603 H   0  0  0  0  0  0  0  0  0  0  0  0
  -11.0535   -8.1480  -10.6269 H   0  0  0  0  0  0  0  0  0  0  0  0
  -13.6789   -8.7623   -9.2352 H   0  0  0  0  0  0  0  0  0  0  0  0
  -13.3844   -8.4711  -10.9540 H   0  0  0  0  0  0  0  0  0  0  0  0
  -13.3290  -10.9522   -9.4256 H   0  0  0  0  0  0  0  0  0  0  0  0
  -13.0857  -10.8182  -11.1642 H   0  0  0  0  0  0  0  0  0  0  0  0
  -11.0423  -11.5660   -9.4596 H   0  0  0  0  0  0  0  0  0  0  0  0
  -10.7258  -10.5994  -10.8961 H   0  0  0  0  0  0  0  0  0  0  0  0
  1  2  1  0
  1 24  1  0
  1 25  1  0
  1 26  1  0
  2  3  1  0
  3 23  2  0
  3  4  1  0
  4  5  2  0
  4 27  1  0
  5  6  1  0
  5 28  1  0
  6  7  2  0
  6 29  1  0
  7 23  1  0
  7  8  1  0
  8  9  2  0
  8 10  1  0
 10 11  1  0
 10 12  1  0
 11 30  1  0
 11 31  1  0
 11 32  1  0
 12 13  2  0
 12 33  1  0
 13 14  1  0
 13 23  1  0
 14 15  2  0
 14 16  1  0
 16 17  1  0
 16 34  1  0
 17 18  1  0
 17 35  1  0
 17 36  1  0
 18 22  1  0
 18 19  1  0
 18 37  1  6
 19 20  1  0
 19 38  1  0
 19 39  1  0
 20 21  1  0
 20 40  1  0
 20 41  1  0
 21 22  1  0
 21 42  1  0
 21 43  1  0
M  END
>  <i_m_ct_stereo_status>  (286) 
1

>  <s_m_source_file>  (286) 
/var/tmp/pbs.5102103.sched01/tmpndyyrgqo/88kp20v8wr.sdf

>  <i_m_source_file_index>  (286) 
21

>  <i_lp_mmshare_version>  (286) 
48012

>  <i_f3d_flags>  (286) 
0

>  <s_epik_input>  (286) 
W2NIXTFbY0hdW2NIXWMoU1tDSDNdKWMoYzEyKWMoW2NIXW4oYzI9TylbQ0gzXSlDKD1PKVtOSF1bQ0gyXVtDQEBIXTNbQ0gyXVtDSDJdW0NIMl1PMw==

>  <s_epik_cmdline>  (286) 
J2VwaWtfcHl0aG9uJywgJy1waHQnLCAnMi4wJywgJy1waCcsICc3LjAnLCAnLXRuJywgJzgnLCAnLW1hJywgJzIwMCcsICctaW1hZScsICc8aW5maWxlLm1hZT4nLCAnLW9tYWUnLCAnPG91dGZpbGUubWFlPic=

>  <r_lp_tautomer_probability>  (286) 
1

>  <r_epik_Ionization_Penalty>  (286) 
5.28901e-07

>  <r_epik_Ionization_Penalty_Charging>  (286) 
1.57221e-08

>  <r_epik_Ionization_Penalty_Neutral>  (286) 
5.13179e-07

>  <r_epik_State_Penalty>  (286) 
-0

>  <r_epik_Charging_Adjusted_Penalty>  (286) 
1.57221e-08

>  <i_epik_Tot_Q>  (286) 
0

>  <i_epik_Tot_abs_Q>  (286) 
0

>  <s_lp_Force_Field>  (286) 
OPLS3e

>  <r_lp_Energy>  (286) 
41.1839

>  <b_lp_Chiralities_Consistent>  (286) 
1

>  <s_lp_Variant>  (286) 
66:0-1

>  <s_i_glide_gridfile>  (286) 
pfpi4k_grid

>  <i_i_glide_lignum>  (286) 
21

>  <i_i_glide_rotatable_bonds>  (286) 
5

>  <r_i_docking_score>  (286) 
-6.39053

>  <r_i_glide_ligand_efficiency>  (286) 
-0.277849

>  <r_i_glide_ligand_efficiency_sa>  (286) 
-0.790166

>  <r_i_glide_ligand_efficiency_ln>  (286) 
-1.54529

>  <r_i_glide_gscore>  (286) 
-6.39053

>  <r_i_glide_lipo>  (286) 
-2.68979

>  <r_i_glide_hbond>  (286) 
0

>  <r_i_glide_metal>  (286) 
-0

>  <r_i_glide_rewards>  (286) 
-2.18754

>  <r_i_glide_evdw>  (286) 
-31.9325

>  <r_i_glide_ecoul>  (286) 
-2.76645

>  <r_i_glide_erotb>  (286) 
0.511327

>  <r_i_glide_esite>  (286) 
-0.0129309

>  <r_i_glide_emodel>  (286) 
-44.0371

>  <r_i_glide_energy>  (286) 
-34.699

>  <r_i_glide_einternal>  (286) 
4.69754

>  <r_i_glide_intrahb_reward>  (286) 
-0

>  <i_i_glide_confnum>  (286) 
4

>  <i_i_glide_posenum>  (286) 
33

>  <r_i_glide_eff_state_penalty>  (286) 
0

>  <ligand_id>  (286) 
66

>  <original_smiles>  (286) 
CSc1cccc2c(=O)n(C)cc(C(=O)NCC3CCCO3)c12

>  <smiles>  (286) 
[H]c1c([H])c([H])c2c(=O)n(C([H])([H])[H])c([H])c(C(=O)N([H])C([H])([H])C3([H])OC([H])([H])C([H])([H])C3([H])[H])c2c1SC([H])([H])[H]

$$$$
66:0:1
     RDKit          3D

 43 45  0  0  1  0  0  0  0  0999 V2000
    4.0598   -9.9957    2.3586 C   0  0  0  0  0  0  0  0  0  0  0  0
    2.9830   -8.6985    1.6858 S   0  0  0  0  0  0  0  0  0  0  0  0
    1.7537   -8.4106    2.9267 C   0  0  0  0  0  0  0  0  0  0  0  0
    1.1913   -9.5640    3.5245 C   0  0  0  0  0  0  0  0  0  0  0  0
    0.3320   -9.4611    4.6250 C   0  0  0  0  0  0  0  0  0  0  0  0
    0.0430   -8.1980    5.1494 C   0  0  0  0  0  0  0  0  0  0  0  0
    0.5679   -7.0288    4.5535 C   0  0  0  0  0  0  0  0  0  0  0  0
    0.3165   -5.7132    5.2382 C   0  0  0  0  0  0  0  0  0  0  0  0
   -0.4464   -5.6609    6.2059 O   0  0  0  0  0  0  0  0  0  0  0  0
    0.9988   -4.6332    4.7959 N   0  0  0  0  0  0  0  0  0  0  0  0
    0.9897   -3.3622    5.5076 C   0  0  0  0  0  0  0  0  0  0  0  0
    1.6473   -4.6414    3.5535 C   0  0  0  0  0  0  0  0  0  0  0  0
    1.8603   -5.7723    2.8538 C   0  0  0  0  0  0  0  0  0  0  0  0
    2.2241   -5.6299    1.4423 C   0  0  0  0  0  0  0  0  0  0  0  0
    1.4870   -5.9298    0.4986 O   0  0  0  0  0  0  0  0  0  0  0  0
    3.4280   -5.0337    1.3012 N   0  0  0  0  0  0  0  0  0  0  0  0
    4.0747   -4.7001    0.0314 C   0  0  0  0  0  0  0  0  0  0  0  0
    3.6285   -3.3330   -0.5315 C   0  0  2  0  0  0  0  0  0  0  0  0
    4.1228   -3.0840   -1.9635 C   0  0  0  0  0  0  0  0  0  0  0  0
    4.3904   -1.5861   -2.0322 C   0  0  0  0  0  0  0  0  0  0  0  0
    4.0528   -1.0910   -0.6296 C   0  0  0  0  0  0  0  0  0  0  0  0
    4.2044   -2.2466    0.1867 O   0  0  0  0  0  0  0  0  0  0  0  0
    1.3830   -7.1000    3.3807 C   0  0  0  0  0  0  0  0  0  0  0  0
    4.8470  -10.2504    1.6489 H   0  0  0  0  0  0  0  0  0  0  0  0
    3.5132  -10.9156    2.5685 H   0  0  0  0  0  0  0  0  0  0  0  0
    4.5186   -9.6497    3.2862 H   0  0  0  0  0  0  0  0  0  0  0  0
    1.4311  -10.5527    3.1632 H   0  0  0  0  0  0  0  0  0  0  0  0
   -0.0725  -10.3521    5.0906 H   0  0  0  0  0  0  0  0  0  0  0  0
   -0.5675   -8.1515    6.0407 H   0  0  0  0  0  0  0  0  0  0  0  0
    1.9813   -2.9029    5.4833 H   0  0  0  0  0  0  0  0  0  0  0  0
    0.7264   -3.4669    6.5606 H   0  0  0  0  0  0  0  0  0  0  0  0
    0.2805   -2.6785    5.0412 H   0  0  0  0  0  0  0  0  0  0  0  0
    1.8650   -3.6572    3.1496 H   0  0  0  0  0  0  0  0  0  0  0  0
    3.9409   -4.8253    2.1457 H   0  0  0  0  0  0  0  0  0  0  0  0
    5.1544   -4.6959    0.1840 H   0  0  0  0  0  0  0  0  0  0  0  0
    3.8775   -5.4822   -0.7019 H   0  0  0  0  0  0  0  0  0  0  0  0
    2.5401   -3.2291   -0.5071 H   0  0  0  0  0  0  0  0  0  0  0  0
    5.0465   -3.6294   -2.1606 H   0  0  0  0  0  0  0  0  0  0  0  0
    3.3828   -3.4129   -2.6944 H   0  0  0  0  0  0  0  0  0  0  0  0
    5.4422   -1.4087   -2.2569 H   0  0  0  0  0  0  0  0  0  0  0  0
    3.7963   -1.0889   -2.7983 H   0  0  0  0  0  0  0  0  0  0  0  0
    4.6913   -0.2674   -0.3116 H   0  0  0  0  0  0  0  0  0  0  0  0
    3.0140   -0.7483   -0.5836 H   0  0  0  0  0  0  0  0  0  0  0  0
  1  2  1  0
  1 24  1  0
  1 25  1  0
  1 26  1  0
  2  3  1  0
  3 23  2  0
  3  4  1  0
  4  5  2  0
  4 27  1  0
  5  6  1  0
  5 28  1  0
  6  7  2  0
  6 29  1  0
  7 23  1  0
  7  8  1  0
  8  9  2  0
  8 10  1  0
 10 11  1  0
 10 12  1  0
 11 30  1  0
 11 31  1  0
 11 32  1  0
 12 13  2  0
 12 33  1  0
 13 14  1  0
 13 23  1  0
 14 15  2  0
 14 16  1  0
 16 17  1  0
 16 34  1  0
 17 18  1  0
 17 35  1  0
 17 36  1  0
 18 22  1  0
 18 19  1  0
 18 37  1  6
 19 20  1  0
 19 38  1  0
 19 39  1  0
 20 21  1  0
 20 40  1  0
 20 41  1  0
 21 22  1  0
 21 42  1  0
 21 43  1  0
M  END
>  <i_m_ct_stereo_status>  (287) 
1

>  <s_m_source_file>  (287) 
/var/tmp/pbs.5102103.sched01/tmpndyyrgqo/88kp20v8wr.sdf

>  <i_m_source_file_index>  (287) 
21

>  <i_lp_mmshare_version>  (287) 
48012

>  <i_f3d_flags>  (287) 
0

>  <s_epik_input>  (287) 
W2NIXTFbY0hdW2NIXWMoU1tDSDNdKWMoYzEyKWMoW2NIXW4oYzI9TylbQ0gzXSlDKD1PKVtOSF1bQ0gyXVtDQEBIXTNbQ0gyXVtDSDJdW0NIMl1PMw==

>  <s_epik_cmdline>  (287) 
J2VwaWtfcHl0aG9uJywgJy1waHQnLCAnMi4wJywgJy1waCcsICc3LjAnLCAnLXRuJywgJzgnLCAnLW1hJywgJzIwMCcsICctaW1hZScsICc8aW5maWxlLm1hZT4nLCAnLW9tYWUnLCAnPG91dGZpbGUubWFlPic=

>  <r_lp_tautomer_probability>  (287) 
1

>  <r_epik_Ionization_Penalty>  (287) 
5.28901e-07

>  <r_epik_Ionization_Penalty_Charging>  (287) 
1.57221e-08

>  <r_epik_Ionization_Penalty_Neutral>  (287) 
5.13179e-07

>  <r_epik_State_Penalty>  (287) 
-0

>  <r_epik_Charging_Adjusted_Penalty>  (287) 
1.57221e-08

>  <i_epik_Tot_Q>  (287) 
0

>  <i_epik_Tot_abs_Q>  (287) 
0

>  <s_lp_Force_Field>  (287) 
OPLS3e

>  <r_lp_Energy>  (287) 
41.1839

>  <b_lp_Chiralities_Consistent>  (287) 
1

>  <s_lp_Variant>  (287) 
66:0-1

>  <s_i_glide_gridfile>  (287) 
pfpi4k_grid

>  <i_i_glide_lignum>  (287) 
21

>  <i_i_glide_rotatable_bonds>  (287) 
5

>  <r_i_docking_score>  (287) 
-2.85039

>  <r_i_glide_ligand_efficiency>  (287) 
-0.12393

>  <r_i_glide_ligand_efficiency_sa>  (287) 
-0.35244

>  <r_i_glide_ligand_efficiency_ln>  (287) 
-0.689249

>  <r_i_glide_gscore>  (287) 
-2.85039

>  <r_i_glide_lipo>  (287) 
-0.0542991

>  <r_i_glide_hbond>  (287) 
-0.157028

>  <r_i_glide_metal>  (287) 
-0

>  <r_i_glide_rewards>  (287) 
-1.1426

>  <r_i_glide_evdw>  (287) 
-24.9212

>  <r_i_glide_ecoul>  (287) 
-4.86348

>  <r_i_glide_erotb>  (287) 
0.511327

>  <r_i_glide_esite>  (287) 
-0.0322036

>  <r_i_glide_emodel>  (287) 
-34.0671

>  <r_i_glide_energy>  (287) 
-29.7846

>  <r_i_glide_einternal>  (287) 
2.09036

>  <r_i_glide_intrahb_reward>  (287) 
-0

>  <i_i_glide_confnum>  (287) 
5

>  <i_i_glide_posenum>  (287) 
18

>  <r_i_glide_eff_state_penalty>  (287) 
0

>  <ligand_id>  (287) 
66

>  <original_smiles>  (287) 
CSc1cccc2c(=O)n(C)cc(C(=O)NCC3CCCO3)c12

>  <smiles>  (287) 
[H]c1c([H])c([H])c2c(=O)n(C([H])([H])[H])c([H])c(C(=O)N([H])C([H])([H])C3([H])OC([H])([H])C([H])([H])C3([H])[H])c2c1SC([H])([H])[H]

$$$$
66:0:2
     RDKit          3D

 43 45  0  0  1  0  0  0  0  0999 V2000
    2.3314   -9.9986    2.2824 C   0  0  0  0  0  0  0  0  0  0  0  0
    2.4467   -8.2131    1.9912 S   0  0  0  0  0  0  0  0  0  0  0  0
    1.3345   -7.4037    3.1172 C   0  0  0  0  0  0  0  0  0  0  0  0
    0.4414   -8.2395    3.8312 C   0  0  0  0  0  0  0  0  0  0  0  0
   -0.3712   -7.7342    4.8371 C   0  0  0  0  0  0  0  0  0  0  0  0
   -0.2996   -6.3780    5.1651 C   0  0  0  0  0  0  0  0  0  0  0  0
    0.5657   -5.5125    4.4667 C   0  0  0  0  0  0  0  0  0  0  0  0
    0.6568   -4.0812    4.9376 C   0  0  0  0  0  0  0  0  0  0  0  0
   -0.0872   -3.6770    5.8403 O   0  0  0  0  0  0  0  0  0  0  0  0
    1.6193   -3.3104    4.3876 N   0  0  0  0  0  0  0  0  0  0  0  0
    1.9453   -1.9912    4.9256 C   0  0  0  0  0  0  0  0  0  0  0  0
    2.2749   -3.6954    3.2176 C   0  0  0  0  0  0  0  0  0  0  0  0
    2.1839   -4.9323    2.6840 C   0  0  0  0  0  0  0  0  0  0  0  0
    2.6169   -5.1000    1.2978 C   0  0  0  0  0  0  0  0  0  0  0  0
    1.9184   -5.6114    0.4227 O   0  0  0  0  0  0  0  0  0  0  0  0
    3.8542   -4.5982    1.0819 N   0  0  0  0  0  0  0  0  0  0  0  0
    4.5782   -4.5592   -0.1898 C   0  0  0  0  0  0  0  0  0  0  0  0
    4.2557   -3.3121   -1.0419 C   0  0  2  0  0  0  0  0  0  0  0  0
    2.7888   -3.2317   -1.4701 C   0  0  0  0  0  0  0  0  0  0  0  0
    2.8072   -2.6339   -2.8629 C   0  0  0  0  0  0  0  0  0  0  0  0
    4.2911   -2.4161   -3.1455 C   0  0  0  0  0  0  0  0  0  0  0  0
    4.9590   -3.3282   -2.2800 O   0  0  0  0  0  0  0  0  0  0  0  0
    1.3556   -5.9870    3.3754 C   0  0  0  0  0  0  0  0  0  0  0  0
    3.0310  -10.5638    1.6647 H   0  0  0  0  0  0  0  0  0  0  0  0
    1.3189  -10.3463    2.0713 H   0  0  0  0  0  0  0  0  0  0  0  0
    2.5691  -10.2059    3.3250 H   0  0  0  0  0  0  0  0  0  0  0  0
    0.3837   -9.3037    3.6615 H   0  0  0  0  0  0  0  0  0  0  0  0
   -1.0007   -8.4193    5.3825 H   0  0  0  0  0  0  0  0  0  0  0  0
   -0.8876   -6.0275    6.0039 H   0  0  0  0  0  0  0  0  0  0  0  0
    3.0242   -1.8317    4.8949 H   0  0  0  0  0  0  0  0  0  0  0  0
    1.6376   -1.8694    5.9653 H   0  0  0  0  0  0  0  0  0  0  0  0
    1.4677   -1.2201    4.3239 H   0  0  0  0  0  0  0  0  0  0  0  0
    2.7438   -2.8565    2.7103 H   0  0  0  0  0  0  0  0  0  0  0  0
    4.3254   -4.2030    1.8791 H   0  0  0  0  0  0  0  0  0  0  0  0
    5.6412   -4.5625    0.0416 H   0  0  0  0  0  0  0  0  0  0  0  0
    4.3947   -5.4752   -0.7518 H   0  0  0  0  0  0  0  0  0  0  0  0
    4.5445   -2.3983   -0.5124 H   0  0  0  0  0  0  0  0  0  0  0  0
    2.3470   -4.2259   -1.5436 H   0  0  0  0  0  0  0  0  0  0  0  0
    2.2147   -2.6515   -0.7537 H   0  0  0  0  0  0  0  0  0  0  0  0
    2.3867   -3.3610   -3.5567 H   0  0  0  0  0  0  0  0  0  0  0  0
    2.2189   -1.7184   -2.9363 H   0  0  0  0  0  0  0  0  0  0  0  0
    4.5447   -2.5968   -4.1916 H   0  0  0  0  0  0  0  0  0  0  0  0
    4.5771   -1.3950   -2.8883 H   0  0  0  0  0  0  0  0  0  0  0  0
  1  2  1  0
  1 24  1  0
  1 25  1  0
  1 26  1  0
  2  3  1  0
  3 23  2  0
  3  4  1  0
  4  5  2  0
  4 27  1  0
  5  6  1  0
  5 28  1  0
  6  7  2  0
  6 29  1  0
  7 23  1  0
  7  8  1  0
  8  9  2  0
  8 10  1  0
 10 11  1  0
 10 12  1  0
 11 30  1  0
 11 31  1  0
 11 32  1  0
 12 13  2  0
 12 33  1  0
 13 14  1  0
 13 23  1  0
 14 15  2  0
 14 16  1  0
 16 17  1  0
 16 34  1  0
 17 18  1  0
 17 35  1  0
 17 36  1  0
 18 22  1  0
 18 19  1  0
 18 37  1  1
 19 20  1  0
 19 38  1  0
 19 39  1  0
 20 21  1  0
 20 40  1  0
 20 41  1  0
 21 22  1  0
 21 42  1  0
 21 43  1  0
M  END
>  <i_m_ct_stereo_status>  (288) 
1

>  <s_m_source_file>  (288) 
/var/tmp/pbs.5102103.sched01/tmpndyyrgqo/88kp20v8wr.sdf

>  <i_m_source_file_index>  (288) 
21

>  <i_lp_mmshare_version>  (288) 
48012

>  <i_f3d_flags>  (288) 
0

>  <s_epik_input>  (288) 
W2NIXTFbY0hdW2NIXWMoU1tDSDNdKWMoYzEyKWMoW2NIXW4oYzI9TylbQ0gzXSlDKD1PKVtOSF1bQ0gyXVtDQEBIXTNbQ0gyXVtDSDJdW0NIMl1PMw==

>  <s_epik_cmdline>  (288) 
J2VwaWtfcHl0aG9uJywgJy1waHQnLCAnMi4wJywgJy1waCcsICc3LjAnLCAnLXRuJywgJzgnLCAnLW1hJywgJzIwMCcsICctaW1hZScsICc8aW5maWxlLm1hZT4nLCAnLW9tYWUnLCAnPG91dGZpbGUubWFlPic=

>  <r_lp_tautomer_probability>  (288) 
1

>  <r_epik_Ionization_Penalty>  (288) 
5.28901e-07

>  <r_epik_Ionization_Penalty_Charging>  (288) 
1.57221e-08

>  <r_epik_Ionization_Penalty_Neutral>  (288) 
5.13179e-07

>  <r_epik_State_Penalty>  (288) 
-0

>  <r_epik_Charging_Adjusted_Penalty>  (288) 
1.57221e-08

>  <i_epik_Tot_Q>  (288) 
0

>  <i_epik_Tot_abs_Q>  (288) 
0

>  <s_lp_Force_Field>  (288) 
OPLS3e

>  <r_lp_Energy>  (288) 
41.1839

>  <b_lp_Chiralities_Consistent>  (288) 
1

>  <s_lp_Variant>  (288) 
66:0-1

>  <s_i_glide_gridfile>  (288) 
pfpi4k_grid

>  <i_i_glide_lignum>  (288) 
21

>  <i_i_glide_rotatable_bonds>  (288) 
5

>  <r_i_docking_score>  (288) 
-2.76969

>  <r_i_glide_ligand_efficiency>  (288) 
-0.120421

>  <r_i_glide_ligand_efficiency_sa>  (288) 
-0.342462

>  <r_i_glide_ligand_efficiency_ln>  (288) 
-0.669735

>  <r_i_glide_gscore>  (288) 
-2.76969

>  <r_i_glide_lipo>  (288) 
-0.23804

>  <r_i_glide_hbond>  (288) 
-0.0599528

>  <r_i_glide_metal>  (288) 
-0

>  <r_i_glide_rewards>  (288) 
-1.15885

>  <r_i_glide_evdw>  (288) 
-25.6873

>  <r_i_glide_ecoul>  (288) 
-3.4548

>  <r_i_glide_erotb>  (288) 
0.511327

>  <r_i_glide_esite>  (288) 
-0.0215862

>  <r_i_glide_emodel>  (288) 
-32.8594

>  <r_i_glide_energy>  (288) 
-29.1421

>  <r_i_glide_einternal>  (288) 
2.5959

>  <r_i_glide_intrahb_reward>  (288) 
-0

>  <i_i_glide_confnum>  (288) 
5

>  <i_i_glide_posenum>  (288) 
40

>  <r_i_glide_eff_state_penalty>  (288) 
0

>  <ligand_id>  (288) 
66

>  <original_smiles>  (288) 
CSc1cccc2c(=O)n(C)cc(C(=O)NCC3CCCO3)c12

>  <smiles>  (288) 
[H]c1c([H])c([H])c2c(=O)n(C([H])([H])[H])c([H])c(C(=O)N([H])C([H])([H])C3([H])OC([H])([H])C([H])([H])C3([H])[H])c2c1SC([H])([H])[H]

$$$$
67:0:0
     RDKit          3D

 15 15  0  0  1  0  0  0  0  0999 V2000
    1.1462  -11.4221    3.9302 C   0  0  0  0  0  0  0  0  0  0  0  0
    1.7554  -10.3796    3.1132 N   0  0  0  0  0  0  0  0  0  0  0  0
    1.0188   -9.2391    2.7822 C   0  0  0  0  0  0  0  0  0  0  0  0
   -0.3318   -9.0704    3.1440 C   0  0  0  0  0  0  0  0  0  0  0  0
   -0.9415   -7.8734    2.7553 C   0  0  0  0  0  0  0  0  0  0  0  0
   -0.2729   -6.9176    2.0802 N   0  0  0  0  0  0  0  0  0  0  0  0
    1.0040   -7.1756    1.7779 C   0  0  0  0  0  0  0  0  0  0  0  0
    1.8433   -5.9552    0.8974 Cl  0  0  0  0  0  0  0  0  0  0  0  0
    1.6787   -8.2824    2.0966 N   0  0  0  0  0  0  0  0  0  0  0  0
    2.7019  -10.4972    2.7668 H   0  0  0  0  0  0  0  0  0  0  0  0
    1.8355  -12.2527    4.0992 H   0  0  0  0  0  0  0  0  0  0  0  0
    0.2546  -11.8153    3.4364 H   0  0  0  0  0  0  0  0  0  0  0  0
    0.8491  -11.0173    4.9032 H   0  0  0  0  0  0  0  0  0  0  0  0
   -0.8992   -9.8113    3.6886 H   0  0  0  0  0  0  0  0  0  0  0  0
   -1.9742   -7.6713    2.9922 H   0  0  0  0  0  0  0  0  0  0  0  0
  1 11  1  0
  1 12  1  0
  1 13  1  0
  1  2  1  0
  2  3  1  0
  2 10  1  0
  3  4  2  0
  3  9  1  0
  4 14  1  0
  4  5  1  0
  5 15  1  0
  5  6  2  0
  6  7  1  0
  7  8  1  0
  7  9  2  0
M  END
>  <i_m_ct_stereo_status>  (289) 
1

>  <s_m_source_file>  (289) 
/var/tmp/pbs.5102103.sched01/tmpndyyrgqo/88kp20v8wr.sdf

>  <i_m_source_file_index>  (289) 
22

>  <i_lp_mmshare_version>  (289) 
48012

>  <i_f3d_flags>  (289) 
0

>  <s_epik_input>  (289) 
W0NIM10vTj1jMS9bY0hdW2NIXW5jKENsKVtuSF0x

>  <s_epik_cmdline>  (289) 
J2VwaWtfcHl0aG9uJywgJy1waHQnLCAnMi4wJywgJy1waCcsICc3LjAnLCAnLXRuJywgJzgnLCAnLW1hJywgJzIwMCcsICctaW1hZScsICc8aW5maWxlLm1hZT4nLCAnLW9tYWUnLCAnPG91dGZpbGUubWFlPic=

>  <r_lp_tautomer_probability>  (289) 
1

>  <r_epik_Ionization_Penalty>  (289) 
0.000905686

>  <r_epik_Ionization_Penalty_Charging>  (289) 
0

>  <r_epik_Ionization_Penalty_Neutral>  (289) 
0.000905686

>  <r_epik_State_Penalty>  (289) 
0.000584603

>  <r_epik_Charging_Adjusted_Penalty>  (289) 
0.000584603

>  <i_epik_Tot_Q>  (289) 
0

>  <i_epik_Tot_abs_Q>  (289) 
0

>  <s_lp_Force_Field>  (289) 
OPLS3e

>  <r_lp_Energy>  (289) 
13.5009

>  <b_lp_Chiralities_Consistent>  (289) 
1

>  <s_lp_Variant>  (289) 
67:0-1

>  <s_i_glide_gridfile>  (289) 
pfpi4k_grid

>  <i_i_glide_lignum>  (289) 
22

>  <i_i_glide_rotatable_bonds>  (289) 
1

>  <r_i_docking_score>  (289) 
-3.8931

>  <r_i_glide_ligand_efficiency>  (289) 
-0.432567

>  <r_i_glide_ligand_efficiency_sa>  (289) 
-0.899776

>  <r_i_glide_ligand_efficiency_ln>  (289) 
-1.21765

>  <r_i_glide_gscore>  (289) 
-3.8931

>  <r_i_glide_lipo>  (289) 
-0.193241

>  <r_i_glide_hbond>  (289) 
-0.122656

>  <r_i_glide_metal>  (289) 
-0

>  <r_i_glide_rewards>  (289) 
-2.25

>  <r_i_glide_evdw>  (289) 
-15.5671

>  <r_i_glide_ecoul>  (289) 
-3.30587

>  <r_i_glide_erotb>  (289) 
0

>  <r_i_glide_esite>  (289) 
-0.0529698

>  <r_i_glide_emodel>  (289) 
-23.631

>  <r_i_glide_energy>  (289) 
-18.873

>  <r_i_glide_einternal>  (289) 
1.09336

>  <r_i_glide_intrahb_reward>  (289) 
-0

>  <i_i_glide_confnum>  (289) 
2

>  <i_i_glide_posenum>  (289) 
22

>  <r_i_glide_eff_state_penalty>  (289) 
0

>  <ligand_id>  (289) 
67

>  <original_smiles>  (289) 
CN=c1ccnc(Cl)[nH]1

>  <smiles>  (289) 
[H]c1nc(Cl)nc(N([H])C([H])([H])[H])c1[H]

$$$$
67:0:1
     RDKit          3D

 15 15  0  0  1  0  0  0  0  0999 V2000
    3.3932   -0.3146   -4.5898 C   0  0  0  0  0  0  0  0  0  0  0  0
    3.9275   -0.4474   -3.2415 N   0  0  0  0  0  0  0  0  0  0  0  0
    3.4720   -1.4846   -2.4252 C   0  0  0  0  0  0  0  0  0  0  0  0
    2.6103   -2.5072   -2.8782 C   0  0  0  0  0  0  0  0  0  0  0  0
    2.2189   -3.4535   -1.9279 C   0  0  0  0  0  0  0  0  0  0  0  0
    2.6712   -3.4230   -0.6607 N   0  0  0  0  0  0  0  0  0  0  0  0
    3.4823   -2.4197   -0.3299 C   0  0  0  0  0  0  0  0  0  0  0  0
    4.0451   -2.3779    1.2986 Cl  0  0  0  0  0  0  0  0  0  0  0  0
    3.9150   -1.4607   -1.1518 N   0  0  0  0  0  0  0  0  0  0  0  0
    4.4501    0.3058   -2.8159 H   0  0  0  0  0  0  0  0  0  0  0  0
    3.8184    0.5489   -5.1056 H   0  0  0  0  0  0  0  0  0  0  0  0
    2.3052   -0.2099   -4.5723 H   0  0  0  0  0  0  0  0  0  0  0  0
    3.6448   -1.2180   -5.1475 H   0  0  0  0  0  0  0  0  0  0  0  0
    2.1940   -2.5660   -3.8730 H   0  0  0  0  0  0  0  0  0  0  0  0
    1.5541   -4.2655   -2.1681 H   0  0  0  0  0  0  0  0  0  0  0  0
  1 11  1  0
  1 12  1  0
  1 13  1  0
  1  2  1  0
  2  3  1  0
  2 10  1  0
  3  4  2  0
  3  9  1  0
  4 14  1  0
  4  5  1  0
  5 15  1  0
  5  6  2  0
  6  7  1  0
  7  8  1  0
  7  9  2  0
M  END
>  <i_m_ct_stereo_status>  (290) 
1

>  <s_m_source_file>  (290) 
/var/tmp/pbs.5102103.sched01/tmpndyyrgqo/88kp20v8wr.sdf

>  <i_m_source_file_index>  (290) 
22

>  <i_lp_mmshare_version>  (290) 
48012

>  <i_f3d_flags>  (290) 
0

>  <s_epik_input>  (290) 
W0NIM10vTj1jMS9bY0hdW2NIXW5jKENsKVtuSF0x

>  <s_epik_cmdline>  (290) 
J2VwaWtfcHl0aG9uJywgJy1waHQnLCAnMi4wJywgJy1waCcsICc3LjAnLCAnLXRuJywgJzgnLCAnLW1hJywgJzIwMCcsICctaW1hZScsICc8aW5maWxlLm1hZT4nLCAnLW9tYWUnLCAnPG91dGZpbGUubWFlPic=

>  <r_lp_tautomer_probability>  (290) 
1

>  <r_epik_Ionization_Penalty>  (290) 
0.000905686

>  <r_epik_Ionization_Penalty_Charging>  (290) 
0

>  <r_epik_Ionization_Penalty_Neutral>  (290) 
0.000905686

>  <r_epik_State_Penalty>  (290) 
0.000584603

>  <r_epik_Charging_Adjusted_Penalty>  (290) 
0.000584603

>  <i_epik_Tot_Q>  (290) 
0

>  <i_epik_Tot_abs_Q>  (290) 
0

>  <s_lp_Force_Field>  (290) 
OPLS3e

>  <r_lp_Energy>  (290) 
13.5009

>  <b_lp_Chiralities_Consistent>  (290) 
1

>  <s_lp_Variant>  (290) 
67:0-1

>  <s_i_glide_gridfile>  (290) 
pfpi4k_grid

>  <i_i_glide_lignum>  (290) 
22

>  <i_i_glide_rotatable_bonds>  (290) 
1

>  <r_i_docking_score>  (290) 
-3.85289

>  <r_i_glide_ligand_efficiency>  (290) 
-0.428099

>  <r_i_glide_ligand_efficiency_sa>  (290) 
-0.890482

>  <r_i_glide_ligand_efficiency_ln>  (290) 
-1.20507

>  <r_i_glide_gscore>  (290) 
-3.85289

>  <r_i_glide_lipo>  (290) 
-0.499317

>  <r_i_glide_hbond>  (290) 
0

>  <r_i_glide_metal>  (290) 
-0

>  <r_i_glide_rewards>  (290) 
-2.25

>  <r_i_glide_evdw>  (290) 
-15.8475

>  <r_i_glide_ecoul>  (290) 
-1.75001

>  <r_i_glide_erotb>  (290) 
0

>  <r_i_glide_esite>  (290) 
-0.0486975

>  <r_i_glide_emodel>  (290) 
-22.3209

>  <r_i_glide_energy>  (290) 
-17.5975

>  <r_i_glide_einternal>  (290) 
1.06294

>  <r_i_glide_intrahb_reward>  (290) 
-0

>  <i_i_glide_confnum>  (290) 
2

>  <i_i_glide_posenum>  (290) 
16

>  <r_i_glide_eff_state_penalty>  (290) 
0

>  <ligand_id>  (290) 
67

>  <original_smiles>  (290) 
CN=c1ccnc(Cl)[nH]1

>  <smiles>  (290) 
[H]c1nc(Cl)nc(N([H])C([H])([H])[H])c1[H]

$$$$
67:0:2
     RDKit          3D

 15 15  0  0  1  0  0  0  0  0999 V2000
   -2.0542   -7.9211    3.1701 C   0  0  0  0  0  0  0  0  0  0  0  0
   -1.0389   -8.9461    3.3396 N   0  0  0  0  0  0  0  0  0  0  0  0
    0.2355   -8.7755    2.7849 C   0  0  0  0  0  0  0  0  0  0  0  0
    1.1750   -9.8174    2.8835 C   0  0  0  0  0  0  0  0  0  0  0  0
    2.4354   -9.5766    2.3081 C   0  0  0  0  0  0  0  0  0  0  0  0
    2.7280   -8.4024    1.7198 N   0  0  0  0  0  0  0  0  0  0  0  0
    1.7731   -7.4757    1.6825 C   0  0  0  0  0  0  0  0  0  0  0  0
    2.1577   -5.9681    0.9355 Cl  0  0  0  0  0  0  0  0  0  0  0  0
    0.5421   -7.6036    2.1847 N   0  0  0  0  0  0  0  0  0  0  0  0
   -1.2652   -9.7824    3.8765 H   0  0  0  0  0  0  0  0  0  0  0  0
   -2.9589   -8.2514    3.6729 H   0  0  0  0  0  0  0  0  0  0  0  0
   -2.2820   -7.7866    2.1109 H   0  0  0  0  0  0  0  0  0  0  0  0
   -1.7438   -6.9703    3.6109 H   0  0  0  0  0  0  0  0  0  0  0  0
    0.9458  -10.7550    3.3664 H   0  0  0  0  0  0  0  0  0  0  0  0
    3.2249  -10.3182    2.3229 H   0  0  0  0  0  0  0  0  0  0  0  0
  1 11  1  0
  1 12  1  0
  1 13  1  0
  1  2  1  0
  2  3  1  0
  2 10  1  0
  3  4  2  0
  3  9  1  0
  4 14  1  0
  4  5  1  0
  5 15  1  0
  5  6  2  0
  6  7  1  0
  7  8  1  0
  7  9  2  0
M  END
>  <i_m_ct_stereo_status>  (291) 
1

>  <s_m_source_file>  (291) 
/var/tmp/pbs.5102103.sched01/tmpndyyrgqo/88kp20v8wr.sdf

>  <i_m_source_file_index>  (291) 
22

>  <i_lp_mmshare_version>  (291) 
48012

>  <i_f3d_flags>  (291) 
0

>  <s_epik_input>  (291) 
W0NIM10vTj1jMS9bY0hdW2NIXW5jKENsKVtuSF0x

>  <s_epik_cmdline>  (291) 
J2VwaWtfcHl0aG9uJywgJy1waHQnLCAnMi4wJywgJy1waCcsICc3LjAnLCAnLXRuJywgJzgnLCAnLW1hJywgJzIwMCcsICctaW1hZScsICc8aW5maWxlLm1hZT4nLCAnLW9tYWUnLCAnPG91dGZpbGUubWFlPic=

>  <r_lp_tautomer_probability>  (291) 
1

>  <r_epik_Ionization_Penalty>  (291) 
0.000905686

>  <r_epik_Ionization_Penalty_Charging>  (291) 
0

>  <r_epik_Ionization_Penalty_Neutral>  (291) 
0.000905686

>  <r_epik_State_Penalty>  (291) 
0.000584603

>  <r_epik_Charging_Adjusted_Penalty>  (291) 
0.000584603

>  <i_epik_Tot_Q>  (291) 
0

>  <i_epik_Tot_abs_Q>  (291) 
0

>  <s_lp_Force_Field>  (291) 
OPLS3e

>  <r_lp_Energy>  (291) 
13.5009

>  <b_lp_Chiralities_Consistent>  (291) 
1

>  <s_lp_Variant>  (291) 
67:0-1

>  <s_i_glide_gridfile>  (291) 
pfpi4k_grid

>  <i_i_glide_lignum>  (291) 
22

>  <i_i_glide_rotatable_bonds>  (291) 
1

>  <r_i_docking_score>  (291) 
-3.73524

>  <r_i_glide_ligand_efficiency>  (291) 
-0.415027

>  <r_i_glide_ligand_efficiency_sa>  (291) 
-0.86329

>  <r_i_glide_ligand_efficiency_ln>  (291) 
-1.16828

>  <r_i_glide_gscore>  (291) 
-3.73524

>  <r_i_glide_lipo>  (291) 
-0.0998192

>  <r_i_glide_hbond>  (291) 
-0.16

>  <r_i_glide_metal>  (291) 
-0

>  <r_i_glide_rewards>  (291) 
-2.25

>  <r_i_glide_evdw>  (291) 
-14.9348

>  <r_i_glide_ecoul>  (291) 
-2.51667

>  <r_i_glide_erotb>  (291) 
0

>  <r_i_glide_esite>  (291) 
-0.101181

>  <r_i_glide_emodel>  (291) 
-22.5107

>  <r_i_glide_energy>  (291) 
-17.4515

>  <r_i_glide_einternal>  (291) 
0.0864949

>  <r_i_glide_intrahb_reward>  (291) 
-0

>  <i_i_glide_confnum>  (291) 
1

>  <i_i_glide_posenum>  (291) 
3

>  <r_i_glide_eff_state_penalty>  (291) 
0

>  <ligand_id>  (291) 
67

>  <original_smiles>  (291) 
CN=c1ccnc(Cl)[nH]1

>  <smiles>  (291) 
[H]c1nc(Cl)nc(N([H])C([H])([H])[H])c1[H]

$$$$
69:0:0
     RDKit          3D

 30 32  0  0  1  0  0  0  0  0999 V2000
    4.1576   -0.6549    0.4087 C   0  0  0  0  0  0  0  0  0  0  0  0
    5.0253   -1.3804   -0.6327 C   0  0  2  0  0  0  0  0  0  0  0  0
    4.4866   -1.2847   -2.0049 C   0  0  0  0  0  0  0  0  0  0  0  0
    4.2097   -0.4290   -3.0295 C   0  0  0  0  0  0  0  0  0  0  0  0
    3.6610   -1.3089   -4.0213 C   0  0  0  0  0  0  0  0  0  0  0  0
    3.6293   -2.5833   -3.6478 N   0  0  0  0  0  0  0  0  0  0  0  0
    4.1349   -2.5114   -2.4082 N   0  0  0  0  0  0  0  0  0  0  0  0
    4.3023   -3.5490   -1.4517 C   0  0  0  0  0  0  0  0  0  0  0  0
    5.0440   -2.8434   -0.3806 N   0  0  0  0  0  0  0  0  0  0  0  0
    5.8076   -3.4200    0.5785 C   0  0  0  0  0  0  0  0  0  0  0  0
    6.6061   -2.7721    1.2553 O   0  0  0  0  0  0  0  0  0  0  0  0
    5.6851   -4.9041    0.8067 C   0  0  0  0  0  0  0  0  0  0  0  0
    4.4157   -5.5258    0.8554 C   0  0  0  0  0  0  0  0  0  0  0  0
    4.2982   -6.9107    1.0612 C   0  0  0  0  0  0  0  0  0  0  0  0
    5.4488   -7.6838    1.2846 C   0  0  0  0  0  0  0  0  0  0  0  0
    5.3315   -9.0177    1.4863 F   0  0  0  0  0  0  0  0  0  0  0  0
    6.7171   -7.0729    1.2885 C   0  0  0  0  0  0  0  0  0  0  0  0
    7.8218   -7.8231    1.5111 F   0  0  0  0  0  0  0  0  0  0  0  0
    6.8373   -5.6885    1.0534 C   0  0  0  0  0  0  0  0  0  0  0  0
    4.0929    0.4094    0.1809 H   0  0  0  0  0  0  0  0  0  0  0  0
    4.5736   -0.7487    1.4121 H   0  0  0  0  0  0  0  0  0  0  0  0
    3.1415   -1.0621    0.4225 H   0  0  0  0  0  0  0  0  0  0  0  0
    6.0358   -0.9753   -0.6204 H   0  0  0  0  0  0  0  0  0  0  0  0
    4.3610    0.6357   -3.0688 H   0  0  0  0  0  0  0  0  0  0  0  0
    3.2934   -1.0667   -5.0070 H   0  0  0  0  0  0  0  0  0  0  0  0
    3.3077   -3.8603   -1.1265 H   0  0  0  0  0  0  0  0  0  0  0  0
    4.8471   -4.3875   -1.8871 H   0  0  0  0  0  0  0  0  0  0  0  0
    3.5153   -4.9491    0.7458 H   0  0  0  0  0  0  0  0  0  0  0  0
    3.3238   -7.3685    1.0536 H   0  0  0  0  0  0  0  0  0  0  0  0
    7.8187   -5.2334    1.0697 H   0  0  0  0  0  0  0  0  0  0  0  0
  1  2  1  0
  1 20  1  0
  1 21  1  0
  1 22  1  0
  2  9  1  0
  2  3  1  0
  2 23  1  6
  3  7  1  0
  3  4  2  0
  4  5  1  0
  4 24  1  0
  5  6  2  0
  5 25  1  0
  6  7  1  0
  7  8  1  0
  8  9  1  0
  8 26  1  0
  8 27  1  0
  9 10  1  0
 10 11  2  0
 10 12  1  0
 12 19  1  0
 12 13  2  0
 13 14  1  0
 13 28  1  0
 14 15  2  0
 14 29  1  0
 15 16  1  0
 15 17  1  0
 17 18  1  0
 17 19  2  0
 19 30  1  0
M  END
>  <i_m_ct_stereo_status>  (292) 
1

>  <s_m_source_file>  (292) 
/var/tmp/pbs.5102103.sched01/tmphafng327/110q8crsuru.sdf

>  <i_m_source_file_index>  (292) 
2

>  <i_lp_mmshare_version>  (292) 
48012

>  <i_f3d_flags>  (292) 
0

>  <s_epik_input>  (292) 
W2NIXTFbY0hdbm4oYzEyKVtDSDJdTihbQ0BASF0yW0NIM10pQyg9TyljM1tjSF1bY0hdYyhGKWMoRilbY0hdMw==

>  <s_epik_cmdline>  (292) 
J2VwaWtfcHl0aG9uJywgJy1waHQnLCAnMi4wJywgJy1waCcsICc3LjAnLCAnLXRuJywgJzgnLCAnLW1hJywgJzIwMCcsICctaW1hZScsICc8aW5maWxlLm1hZT4nLCAnLW9tYWUnLCAnPG91dGZpbGUubWFlPic=

>  <r_lp_tautomer_probability>  (292) 
1

>  <r_epik_Ionization_Penalty>  (292) 
0.000124575

>  <r_epik_Ionization_Penalty_Charging>  (292) 
0

>  <r_epik_Ionization_Penalty_Neutral>  (292) 
0.000124575

>  <r_epik_State_Penalty>  (292) 
-0

>  <r_epik_Charging_Adjusted_Penalty>  (292) 
0

>  <i_epik_Tot_Q>  (292) 
0

>  <i_epik_Tot_abs_Q>  (292) 
0

>  <s_epik_Chemistry_Notes>  (292) 
This compound contains an acetal/aminal-like group ( X-CH(R)-Y where X, Y are N, S, or O) that may be acid/base labile, releasing an aldehyde.

>  <s_lp_Force_Field>  (292) 
OPLS3e

>  <r_lp_Energy>  (292) 
28.8157

>  <b_lp_Chiralities_Consistent>  (292) 
1

>  <s_lp_Variant>  (292) 
69:0-1

>  <s_i_glide_gridfile>  (292) 
pfpi4k_grid

>  <i_i_glide_lignum>  (292) 
2

>  <i_i_glide_rotatable_bonds>  (292) 
2

>  <r_i_docking_score>  (292) 
-3.62552

>  <r_i_glide_ligand_efficiency>  (292) 
-0.190817

>  <r_i_glide_ligand_efficiency_sa>  (292) 
-0.509176

>  <r_i_glide_ligand_efficiency_ln>  (292) 
-0.919148

>  <r_i_glide_gscore>  (292) 
-3.62552

>  <r_i_glide_lipo>  (292) 
-0.847152

>  <r_i_glide_hbond>  (292) 
0

>  <r_i_glide_metal>  (292) 
-0

>  <r_i_glide_rewards>  (292) 
-1.77699

>  <r_i_glide_evdw>  (292) 
-26.2528

>  <r_i_glide_ecoul>  (292) 
-0.858596

>  <r_i_glide_erotb>  (292) 
0.51244

>  <r_i_glide_esite>  (292) 
-0.0723912

>  <r_i_glide_emodel>  (292) 
-32.1583

>  <r_i_glide_energy>  (292) 
-27.1114

>  <r_i_glide_einternal>  (292) 
0.812451

>  <r_i_glide_intrahb_reward>  (292) 
-0

>  <i_i_glide_confnum>  (292) 
3

>  <i_i_glide_posenum>  (292) 
15

>  <r_i_glide_eff_state_penalty>  (292) 
0

>  <ligand_id>  (292) 
69

>  <original_smiles>  (292) 
CC1c2ccnn2CN1C(=O)c1ccc(F)c(F)c1

>  <smiles>  (292) 
[H]c1nn2c(c1[H])C([H])(C([H])([H])[H])N(C(=O)c1c([H])c([H])c(F)c(F)c1[H])C2([H])[H]

$$$$
69:0:1
     RDKit          3D

 30 32  0  0  1  0  0  0  0  0999 V2000
    4.0075   -0.4189    0.5122 C   0  0  0  0  0  0  0  0  0  0  0  0
    4.4704   -1.5687   -0.3998 C   0  0  2  0  0  0  0  0  0  0  0  0
    4.0382   -1.3652   -1.8058 C   0  0  0  0  0  0  0  0  0  0  0  0
    4.2211   -0.5979   -2.9174 C   0  0  0  0  0  0  0  0  0  0  0  0
    3.3602   -1.2317   -3.8761 C   0  0  0  0  0  0  0  0  0  0  0  0
    2.7043   -2.2733   -3.3809 N   0  0  0  0  0  0  0  0  0  0  0  0
    3.1322   -2.2940   -2.1085 N   0  0  0  0  0  0  0  0  0  0  0  0
    2.8129   -3.2226   -1.0825 C   0  0  0  0  0  0  0  0  0  0  0  0
    3.7968   -2.8445   -0.0398 N   0  0  0  0  0  0  0  0  0  0  0  0
    4.1612   -3.5944    1.0262 C   0  0  0  0  0  0  0  0  0  0  0  0
    5.2165   -3.3783    1.6312 O   0  0  0  0  0  0  0  0  0  0  0  0
    3.2068   -4.6219    1.5902 C   0  0  0  0  0  0  0  0  0  0  0  0
    2.9788   -4.6698    2.9878 C   0  0  0  0  0  0  0  0  0  0  0  0
    2.0912   -5.6059    3.5555 C   0  0  0  0  0  0  0  0  0  0  0  0
    1.4140   -6.5145    2.7196 C   0  0  0  0  0  0  0  0  0  0  0  0
    0.5491   -7.4117    3.2568 F   0  0  0  0  0  0  0  0  0  0  0  0
    1.6426   -6.4937    1.3310 C   0  0  0  0  0  0  0  0  0  0  0  0
    0.9719   -7.3536    0.5324 F   0  0  0  0  0  0  0  0  0  0  0  0
    2.5622   -5.5854    0.7683 C   0  0  0  0  0  0  0  0  0  0  0  0
    4.4214    0.5404    0.1894 H   0  0  0  0  0  0  0  0  0  0  0  0
    4.3092   -0.5722    1.5505 H   0  0  0  0  0  0  0  0  0  0  0  0
    2.9174   -0.3148    0.4928 H   0  0  0  0  0  0  0  0  0  0  0  0
    5.5560   -1.6724   -0.3549 H   0  0  0  0  0  0  0  0  0  0  0  0
    4.8616    0.2608   -3.0300 H   0  0  0  0  0  0  0  0  0  0  0  0
    3.1695   -0.9716   -4.9052 H   0  0  0  0  0  0  0  0  0  0  0  0
    1.7874   -3.0700   -0.7470 H   0  0  0  0  0  0  0  0  0  0  0  0
    2.9449   -4.2032   -1.5003 H   0  0  0  0  0  0  0  0  0  0  0  0
    3.4981   -3.9768    3.6418 H   0  0  0  0  0  0  0  0  0  0  0  0
    1.9334   -5.6378    4.6255 H   0  0  0  0  0  0  0  0  0  0  0  0
    2.7516   -5.6583   -0.2841 H   0  0  0  0  0  0  0  0  0  0  0  0
  1  2  1  0
  1 20  1  0
  1 21  1  0
  1 22  1  0
  2  9  1  0
  2  3  1  0
  2 23  1  6
  3  7  1  0
  3  4  2  0
  4  5  1  0
  4 24  1  0
  5  6  2  0
  5 25  1  0
  6  7  1  0
  7  8  1  0
  8  9  1  0
  8 26  1  0
  8 27  1  0
  9 10  1  0
 10 11  2  0
 10 12  1  0
 12 19  1  0
 12 13  2  0
 13 14  1  0
 13 28  1  0
 14 15  2  0
 14 29  1  0
 15 16  1  0
 15 17  1  0
 17 18  1  0
 17 19  2  0
 19 30  1  0
M  END
>  <i_m_ct_stereo_status>  (293) 
1

>  <s_m_source_file>  (293) 
/var/tmp/pbs.5102103.sched01/tmphafng327/110q8crsuru.sdf

>  <i_m_source_file_index>  (293) 
2

>  <i_lp_mmshare_version>  (293) 
48012

>  <i_f3d_flags>  (293) 
0

>  <s_epik_input>  (293) 
W2NIXTFbY0hdbm4oYzEyKVtDSDJdTihbQ0BASF0yW0NIM10pQyg9TyljM1tjSF1bY0hdYyhGKWMoRilbY0hdMw==

>  <s_epik_cmdline>  (293) 
J2VwaWtfcHl0aG9uJywgJy1waHQnLCAnMi4wJywgJy1waCcsICc3LjAnLCAnLXRuJywgJzgnLCAnLW1hJywgJzIwMCcsICctaW1hZScsICc8aW5maWxlLm1hZT4nLCAnLW9tYWUnLCAnPG91dGZpbGUubWFlPic=

>  <r_lp_tautomer_probability>  (293) 
1

>  <r_epik_Ionization_Penalty>  (293) 
0.000124575

>  <r_epik_Ionization_Penalty_Charging>  (293) 
0

>  <r_epik_Ionization_Penalty_Neutral>  (293) 
0.000124575

>  <r_epik_State_Penalty>  (293) 
-0

>  <r_epik_Charging_Adjusted_Penalty>  (293) 
0

>  <i_epik_Tot_Q>  (293) 
0

>  <i_epik_Tot_abs_Q>  (293) 
0

>  <s_epik_Chemistry_Notes>  (293) 
This compound contains an acetal/aminal-like group ( X-CH(R)-Y where X, Y are N, S, or O) that may be acid/base labile, releasing an aldehyde.

>  <s_lp_Force_Field>  (293) 
OPLS3e

>  <r_lp_Energy>  (293) 
28.8157

>  <b_lp_Chiralities_Consistent>  (293) 
1

>  <s_lp_Variant>  (293) 
69:0-1

>  <s_i_glide_gridfile>  (293) 
pfpi4k_grid

>  <i_i_glide_lignum>  (293) 
2

>  <i_i_glide_rotatable_bonds>  (293) 
2

>  <r_i_docking_score>  (293) 
-2.9451

>  <r_i_glide_ligand_efficiency>  (293) 
-0.155005

>  <r_i_glide_ligand_efficiency_sa>  (293) 
-0.413616

>  <r_i_glide_ligand_efficiency_ln>  (293) 
-0.746646

>  <r_i_glide_gscore>  (293) 
-2.9451

>  <r_i_glide_lipo>  (293) 
-0.373956

>  <r_i_glide_hbond>  (293) 
0

>  <r_i_glide_metal>  (293) 
-0

>  <r_i_glide_rewards>  (293) 
-1.65657

>  <r_i_glide_evdw>  (293) 
-23.2055

>  <r_i_glide_ecoul>  (293) 
-0.733533

>  <r_i_glide_erotb>  (293) 
0.51244

>  <r_i_glide_esite>  (293) 
-0.156706

>  <r_i_glide_emodel>  (293) 
-26.7202

>  <r_i_glide_energy>  (293) 
-23.939

>  <r_i_glide_einternal>  (293) 
2.78203

>  <r_i_glide_intrahb_reward>  (293) 
-0

>  <i_i_glide_confnum>  (293) 
3

>  <i_i_glide_posenum>  (293) 
18

>  <r_i_glide_eff_state_penalty>  (293) 
0

>  <ligand_id>  (293) 
69

>  <original_smiles>  (293) 
CC1c2ccnn2CN1C(=O)c1ccc(F)c(F)c1

>  <smiles>  (293) 
[H]c1nn2c(c1[H])C([H])(C([H])([H])[H])N(C(=O)c1c([H])c([H])c(F)c(F)c1[H])C2([H])[H]

$$$$
69:0:2
     RDKit          3D

 30 32  0  0  1  0  0  0  0  0999 V2000
   -1.3455    2.2525    2.8776 C   0  0  0  0  0  0  0  0  0  0  0  0
   -0.4570    1.9289    4.0892 C   0  0  2  0  0  0  0  0  0  0  0  0
   -0.1676    0.4839    4.2044 C   0  0  0  0  0  0  0  0  0  0  0  0
    0.4740   -0.5732    3.6258 C   0  0  0  0  0  0  0  0  0  0  0  0
    0.1638   -1.6505    4.5235 C   0  0  0  0  0  0  0  0  0  0  0  0
   -0.6071   -1.2890    5.5450 N   0  0  0  0  0  0  0  0  0  0  0  0
   -0.7573    0.0207    5.3143 N   0  0  0  0  0  0  0  0  0  0  0  0
   -1.4848    0.9754    6.0689 C   0  0  0  0  0  0  0  0  0  0  0  0
   -1.1468    2.2347    5.3689 N   0  0  0  0  0  0  0  0  0  0  0  0
   -1.2661    3.4934    5.8669 C   0  0  0  0  0  0  0  0  0  0  0  0
   -0.9553    4.4932    5.2199 O   0  0  0  0  0  0  0  0  0  0  0  0
   -1.7253    3.6696    7.2927 C   0  0  0  0  0  0  0  0  0  0  0  0
   -2.8728    3.0089    7.7850 C   0  0  0  0  0  0  0  0  0  0  0  0
   -3.2733    3.1677    9.1219 C   0  0  0  0  0  0  0  0  0  0  0  0
   -2.5657    4.0345    9.9691 C   0  0  0  0  0  0  0  0  0  0  0  0
   -2.9655    4.1878   11.2530 F   0  0  0  0  0  0  0  0  0  0  0  0
   -1.4486    4.7364    9.4812 C   0  0  0  0  0  0  0  0  0  0  0  0
   -0.7790    5.5920   10.2909 F   0  0  0  0  0  0  0  0  0  0  0  0
   -1.0317    4.5577    8.1488 C   0  0  0  0  0  0  0  0  0  0  0  0
   -0.8703    1.9418    1.9448 H   0  0  0  0  0  0  0  0  0  0  0  0
   -1.5410    3.3229    2.8052 H   0  0  0  0  0  0  0  0  0  0  0  0
   -2.3091    1.7452    2.9501 H   0  0  0  0  0  0  0  0  0  0  0  0
    0.4838    2.4719    4.0194 H   0  0  0  0  0  0  0  0  0  0  0  0
    1.0572   -0.5760    2.7181 H   0  0  0  0  0  0  0  0  0  0  0  0
    0.4600   -2.6891    4.4633 H   0  0  0  0  0  0  0  0  0  0  0  0
   -2.5472    0.7381    5.9748 H   0  0  0  0  0  0  0  0  0  0  0  0
   -1.1602    0.9394    7.1088 H   0  0  0  0  0  0  0  0  0  0  0  0
   -3.4612    2.3740    7.1463 H   0  0  0  0  0  0  0  0  0  0  0  0
   -4.1270    2.6278    9.4941 H   0  0  0  0  0  0  0  0  0  0  0  0
   -0.1709    5.1059    7.7872 H   0  0  0  0  0  0  0  0  0  0  0  0
  1  2  1  0
  1 20  1  0
  1 21  1  0
  1 22  1  0
  2  9  1  0
  2  3  1  0
  2 23  1  6
  3  7  1  0
  3  4  2  0
  4  5  1  0
  4 24  1  0
  5  6  2  0
  5 25  1  0
  6  7  1  0
  7  8  1  0
  8  9  1  0
  8 26  1  0
  8 27  1  0
  9 10  1  0
 10 11  2  0
 10 12  1  0
 12 19  1  0
 12 13  2  0
 13 14  1  0
 13 28  1  0
 14 15  2  0
 14 29  1  0
 15 16  1  0
 15 17  1  0
 17 18  1  0
 17 19  2  0
 19 30  1  0
M  END
>  <i_m_ct_stereo_status>  (294) 
1

>  <s_m_source_file>  (294) 
/var/tmp/pbs.5102103.sched01/tmphafng327/110q8crsuru.sdf

>  <i_m_source_file_index>  (294) 
2

>  <i_lp_mmshare_version>  (294) 
48012

>  <i_f3d_flags>  (294) 
0

>  <s_epik_input>  (294) 
W2NIXTFbY0hdbm4oYzEyKVtDSDJdTihbQ0BASF0yW0NIM10pQyg9TyljM1tjSF1bY0hdYyhGKWMoRilbY0hdMw==

>  <s_epik_cmdline>  (294) 
J2VwaWtfcHl0aG9uJywgJy1waHQnLCAnMi4wJywgJy1waCcsICc3LjAnLCAnLXRuJywgJzgnLCAnLW1hJywgJzIwMCcsICctaW1hZScsICc8aW5maWxlLm1hZT4nLCAnLW9tYWUnLCAnPG91dGZpbGUubWFlPic=

>  <r_lp_tautomer_probability>  (294) 
1

>  <r_epik_Ionization_Penalty>  (294) 
0.000124575

>  <r_epik_Ionization_Penalty_Charging>  (294) 
0

>  <r_epik_Ionization_Penalty_Neutral>  (294) 
0.000124575

>  <r_epik_State_Penalty>  (294) 
-0

>  <r_epik_Charging_Adjusted_Penalty>  (294) 
0

>  <i_epik_Tot_Q>  (294) 
0

>  <i_epik_Tot_abs_Q>  (294) 
0

>  <s_epik_Chemistry_Notes>  (294) 
This compound contains an acetal/aminal-like group ( X-CH(R)-Y where X, Y are N, S, or O) that may be acid/base labile, releasing an aldehyde.

>  <s_lp_Force_Field>  (294) 
OPLS3e

>  <r_lp_Energy>  (294) 
28.8157

>  <b_lp_Chiralities_Consistent>  (294) 
1

>  <s_lp_Variant>  (294) 
69:0-1

>  <s_i_glide_gridfile>  (294) 
pfpi4k_grid

>  <i_i_glide_lignum>  (294) 
2

>  <i_i_glide_rotatable_bonds>  (294) 
2

>  <r_i_docking_score>  (294) 
-2.6642

>  <r_i_glide_ligand_efficiency>  (294) 
-0.140221

>  <r_i_glide_ligand_efficiency_sa>  (294) 
-0.374166

>  <r_i_glide_ligand_efficiency_ln>  (294) 
-0.675432

>  <r_i_glide_gscore>  (294) 
-2.6642

>  <r_i_glide_lipo>  (294) 
-0.198958

>  <r_i_glide_hbond>  (294) 
0

>  <r_i_glide_metal>  (294) 
-0

>  <r_i_glide_rewards>  (294) 
-1.61425

>  <r_i_glide_evdw>  (294) 
-20.5807

>  <r_i_glide_ecoul>  (294) 
-1.16296

>  <r_i_glide_erotb>  (294) 
0.51244

>  <r_i_glide_esite>  (294) 
-0.159951

>  <r_i_glide_emodel>  (294) 
-25.176

>  <r_i_glide_energy>  (294) 
-21.7436

>  <r_i_glide_einternal>  (294) 
1.06248

>  <r_i_glide_intrahb_reward>  (294) 
-0

>  <i_i_glide_confnum>  (294) 
3

>  <i_i_glide_posenum>  (294) 
34

>  <r_i_glide_eff_state_penalty>  (294) 
0

>  <ligand_id>  (294) 
69

>  <original_smiles>  (294) 
CC1c2ccnn2CN1C(=O)c1ccc(F)c(F)c1

>  <smiles>  (294) 
[H]c1nn2c(c1[H])C([H])(C([H])([H])[H])N(C(=O)c1c([H])c([H])c(F)c(F)c1[H])C2([H])[H]

$$$$
70:0:0
     RDKit          3D

 32 34  0  0  1  0  0  0  0  0999 V2000
    4.9924   -2.9511    3.0103 C   0  0  0  0  0  0  0  0  0  0  0  0
    4.6177   -3.2971    1.6436 N   0  0  0  0  0  0  0  0  0  0  0  0
    4.1911   -4.4932    1.1549 C   0  0  0  0  0  0  0  0  0  0  0  0
    3.9034   -5.9183    2.1405 S   0  0  0  0  0  0  0  0  0  0  0  0
    2.9468   -6.9241    0.9467 C   0  0  0  0  0  0  0  0  0  0  0  0
    1.6341   -7.2847    1.5321 C   0  0  0  0  0  0  0  0  0  0  0  0
    0.5368   -6.5425    1.3101 N   0  0  0  0  0  0  0  0  0  0  0  0
   -0.5835   -7.0643    1.9257 N   0  0  0  0  0  0  0  0  0  0  0  0
   -0.2957   -8.2038    2.5723 C   0  0  0  0  0  0  0  0  0  0  0  0
   -1.2319   -8.9362    3.2797 N   0  0  0  0  0  0  0  0  0  0  0  0
    1.3815   -8.7235    2.4984 S   0  0  0  0  0  0  0  0  0  0  0  0
    3.9783   -4.4970   -0.1589 N   0  0  0  0  0  0  0  0  0  0  0  0
    4.2003   -3.1935   -0.5361 C   0  0  0  0  0  0  0  0  0  0  0  0
    4.6163   -2.4634    0.5250 C   0  0  0  0  0  0  0  0  0  0  0  0
    4.9850   -1.0576    0.3840 C   0  0  0  0  0  0  0  0  0  0  0  0
    5.3576   -0.3568    1.3225 O   0  0  0  0  0  0  0  0  0  0  0  0
    4.8867   -0.6336   -0.8943 N   0  0  0  0  0  0  0  0  0  0  0  0
    4.4410   -1.2979   -1.9989 C   0  0  0  0  0  0  0  0  0  0  0  0
    4.3771   -0.7297   -3.0848 O   0  0  0  0  0  0  0  0  0  0  0  0
    4.0925   -2.6056   -1.8232 N   0  0  0  0  0  0  0  0  0  0  0  0
    3.6038   -3.4288   -2.9146 C   0  0  0  0  0  0  0  0  0  0  0  0
    5.0953    0.3535   -1.0477 H   0  0  0  0  0  0  0  0  0  0  0  0
    5.1645   -3.8499    3.6055 H   0  0  0  0  0  0  0  0  0  0  0  0
    4.2079   -2.3597    3.4831 H   0  0  0  0  0  0  0  0  0  0  0  0
    5.9152   -2.3722    3.0086 H   0  0  0  0  0  0  0  0  0  0  0  0
    2.6854   -6.4202    0.0182 H   0  0  0  0  0  0  0  0  0  0  0  0
    3.5014   -7.8246    0.6746 H   0  0  0  0  0  0  0  0  0  0  0  0
   -2.1909   -8.6494    3.3368 H   0  0  0  0  0  0  0  0  0  0  0  0
    3.5090   -2.9125   -3.8683 H   0  0  0  0  0  0  0  0  0  0  0  0
    2.6217   -3.8308   -2.6553 H   0  0  0  0  0  0  0  0  0  0  0  0
    4.2960   -4.2537   -3.0594 H   0  0  0  0  0  0  0  0  0  0  0  0
   -0.9941   -9.7863    3.7736 H   0  0  0  0  0  0  0  0  0  0  0  0
  1  2  1  0
  1 23  1  0
  1 24  1  0
  1 25  1  0
  2 14  1  0
  2  3  1  0
  3  4  1  0
  3 12  2  0
  4  5  1  0
  5  6  1  0
  5 26  1  0
  5 27  1  0
  6 11  1  0
  6  7  2  0
  7  8  1  0
  8  9  2  0
  9 10  1  0
  9 11  1  0
 10 28  1  0
 10 32  1  0
 12 13  1  0
 13 20  1  0
 13 14  2  0
 14 15  1  0
 15 16  2  0
 15 17  1  0
 17 22  1  0
 17 18  1  0
 18 19  2  0
 18 20  1  0
 20 21  1  0
 21 29  1  0
 21 30  1  0
 21 31  1  0
M  END
>  <i_m_ct_stereo_status>  (295) 
1

>  <s_m_source_file>  (295) 
/var/tmp/pbs.5102103.sched01/tmphafng327/110q8crsuru.sdf

>  <i_m_source_file_index>  (295) 
3

>  <i_lp_mmshare_version>  (295) 
48012

>  <i_f3d_flags>  (295) 
0

>  <s_epik_input>  (295) 
W0NIM11uMWMoPU8pW25IXWMoPU8pYyhjMTIpbihbQ0gzXSljKG4yKVNbQ0gyXWMzbltuSF0vYyhzMyk9TlxbSF0=

>  <s_epik_cmdline>  (295) 
J2VwaWtfcHl0aG9uJywgJy1waHQnLCAnMi4wJywgJy1waCcsICc3LjAnLCAnLXRuJywgJzgnLCAnLW1hJywgJzIwMCcsICctaW1hZScsICc8aW5maWxlLm1hZT4nLCAnLW9tYWUnLCAnPG91dGZpbGUubWFlPic=

>  <r_lp_tautomer_probability>  (295) 
1

>  <r_epik_Ionization_Penalty>  (295) 
0.000132387

>  <r_epik_Ionization_Penalty_Charging>  (295) 
0.000117999

>  <r_epik_Ionization_Penalty_Neutral>  (295) 
1.43886e-05

>  <r_epik_State_Penalty>  (295) 
-0

>  <r_epik_Charging_Adjusted_Penalty>  (295) 
0.000117999

>  <i_epik_Tot_Q>  (295) 
0

>  <i_epik_Tot_abs_Q>  (295) 
0

>  <s_lp_Force_Field>  (295) 
OPLS3e

>  <r_lp_Energy>  (295) 
3.57779

>  <b_lp_Chiralities_Consistent>  (295) 
1

>  <s_lp_Variant>  (295) 
70:0-1

>  <s_i_glide_gridfile>  (295) 
pfpi4k_grid

>  <i_i_glide_lignum>  (295) 
3

>  <i_i_glide_rotatable_bonds>  (295) 
3

>  <r_i_docking_score>  (295) 
-4.24711

>  <r_i_glide_ligand_efficiency>  (295) 
-0.202243

>  <r_i_glide_ligand_efficiency_sa>  (295) 
-0.557974

>  <r_i_glide_ligand_efficiency_ln>  (295) 
-1.05009

>  <r_i_glide_gscore>  (295) 
-4.24711

>  <r_i_glide_lipo>  (295) 
-0.160214

>  <r_i_glide_hbond>  (295) 
-0.460085

>  <r_i_glide_metal>  (295) 
-0

>  <r_i_glide_rewards>  (295) 
-1.29351

>  <r_i_glide_evdw>  (295) 
-29.0933

>  <r_i_glide_ecoul>  (295) 
-6.88613

>  <r_i_glide_erotb>  (295) 
0.531053

>  <r_i_glide_esite>  (295) 
-0.376768

>  <r_i_glide_emodel>  (295) 
-46.2013

>  <r_i_glide_energy>  (295) 
-35.9795

>  <r_i_glide_einternal>  (295) 
1.42286

>  <r_i_glide_intrahb_reward>  (295) 
-0

>  <i_i_glide_confnum>  (295) 
5

>  <i_i_glide_posenum>  (295) 
14

>  <r_i_glide_eff_state_penalty>  (295) 
0

>  <ligand_id>  (295) 
70

>  <original_smiles>  (295) 
Cn1c(SCc2n[nH]c(=N)s2)nc2c1c(=O)[nH]c(=O)n2C

>  <smiles>  (295) 
[H]N([H])c1nnc(C([H])([H])Sc2nc3c(c(=O)n([H])c(=O)n3C([H])([H])[H])n2C([H])([H])[H])s1

$$$$
70:0:1
     RDKit          3D

 32 34  0  0  1  0  0  0  0  0999 V2000
    5.0714   -2.9054    2.0172 C   0  0  0  0  0  0  0  0  0  0  0  0
    4.1822   -3.1143    0.8796 N   0  0  0  0  0  0  0  0  0  0  0  0
    3.0916   -3.9284    0.8011 C   0  0  0  0  0  0  0  0  0  0  0  0
    2.5274   -4.9711    2.1035 S   0  0  0  0  0  0  0  0  0  0  0  0
    2.0513   -6.3853    1.0613 C   0  0  0  0  0  0  0  0  0  0  0  0
    1.2867   -7.3952    1.8364 C   0  0  0  0  0  0  0  0  0  0  0  0
   -0.0127   -7.2536    2.1260 N   0  0  0  0  0  0  0  0  0  0  0  0
   -0.5083   -8.3353    2.8435 N   0  0  0  0  0  0  0  0  0  0  0  0
    0.4286   -9.2676    3.0544 C   0  0  0  0  0  0  0  0  0  0  0  0
    0.2182  -10.4408    3.7504 N   0  0  0  0  0  0  0  0  0  0  0  0
    2.0105   -8.8980    2.3898 S   0  0  0  0  0  0  0  0  0  0  0  0
    2.4763   -3.8903   -0.3795 N   0  0  0  0  0  0  0  0  0  0  0  0
    3.2426   -3.0135   -1.1224 C   0  0  0  0  0  0  0  0  0  0  0  0
    4.2671   -2.5286   -0.3900 C   0  0  0  0  0  0  0  0  0  0  0  0
    5.2291   -1.5678   -0.9377 C   0  0  0  0  0  0  0  0  0  0  0  0
    6.1728   -1.1100   -0.2923 O   0  0  0  0  0  0  0  0  0  0  0  0
    4.9827   -1.2501   -2.2334 N   0  0  0  0  0  0  0  0  0  0  0  0
    3.9799   -1.7214   -3.0346 C   0  0  0  0  0  0  0  0  0  0  0  0
    3.9178   -1.3615   -4.2136 O   0  0  0  0  0  0  0  0  0  0  0  0
    3.0923   -2.6016   -2.4736 N   0  0  0  0  0  0  0  0  0  0  0  0
    1.9710   -3.1567   -3.2213 C   0  0  0  0  0  0  0  0  0  0  0  0
    5.6061   -0.5927   -2.6749 H   0  0  0  0  0  0  0  0  0  0  0  0
    4.9360   -3.6822    2.7679 H   0  0  0  0  0  0  0  0  0  0  0  0
    4.8652   -1.9366    2.4704 H   0  0  0  0  0  0  0  0  0  0  0  0
    6.1091   -2.9296    1.6911 H   0  0  0  0  0  0  0  0  0  0  0  0
    1.4280   -6.0962    0.2155 H   0  0  0  0  0  0  0  0  0  0  0  0
    2.9607   -6.8311    0.6587 H   0  0  0  0  0  0  0  0  0  0  0  0
   -0.6817  -10.6397    4.1985 H   0  0  0  0  0  0  0  0  0  0  0  0
    1.8572   -2.7618   -4.2292 H   0  0  0  0  0  0  0  0  0  0  0  0
    1.0393   -2.9824   -2.6808 H   0  0  0  0  0  0  0  0  0  0  0  0
    2.0835   -4.2372   -3.3035 H   0  0  0  0  0  0  0  0  0  0  0  0
    0.9494  -11.1093    3.9237 H   0  0  0  0  0  0  0  0  0  0  0  0
  1  2  1  0
  1 23  1  0
  1 24  1  0
  1 25  1  0
  2 14  1  0
  2  3  1  0
  3  4  1  0
  3 12  2  0
  4  5  1  0
  5  6  1  0
  5 26  1  0
  5 27  1  0
  6 11  1  0
  6  7  2  0
  7  8  1  0
  8  9  2  0
  9 10  1  0
  9 11  1  0
 10 28  1  0
 10 32  1  0
 12 13  1  0
 13 20  1  0
 13 14  2  0
 14 15  1  0
 15 16  2  0
 15 17  1  0
 17 22  1  0
 17 18  1  0
 18 19  2  0
 18 20  1  0
 20 21  1  0
 21 29  1  0
 21 30  1  0
 21 31  1  0
M  END
>  <i_m_ct_stereo_status>  (296) 
1

>  <s_m_source_file>  (296) 
/var/tmp/pbs.5102103.sched01/tmphafng327/110q8crsuru.sdf

>  <i_m_source_file_index>  (296) 
3

>  <i_lp_mmshare_version>  (296) 
48012

>  <i_f3d_flags>  (296) 
0

>  <s_epik_input>  (296) 
W0NIM11uMWMoPU8pW25IXWMoPU8pYyhjMTIpbihbQ0gzXSljKG4yKVNbQ0gyXWMzbltuSF0vYyhzMyk9TlxbSF0=

>  <s_epik_cmdline>  (296) 
J2VwaWtfcHl0aG9uJywgJy1waHQnLCAnMi4wJywgJy1waCcsICc3LjAnLCAnLXRuJywgJzgnLCAnLW1hJywgJzIwMCcsICctaW1hZScsICc8aW5maWxlLm1hZT4nLCAnLW9tYWUnLCAnPG91dGZpbGUubWFlPic=

>  <r_lp_tautomer_probability>  (296) 
1

>  <r_epik_Ionization_Penalty>  (296) 
0.000132387

>  <r_epik_Ionization_Penalty_Charging>  (296) 
0.000117999

>  <r_epik_Ionization_Penalty_Neutral>  (296) 
1.43886e-05

>  <r_epik_State_Penalty>  (296) 
-0

>  <r_epik_Charging_Adjusted_Penalty>  (296) 
0.000117999

>  <i_epik_Tot_Q>  (296) 
0

>  <i_epik_Tot_abs_Q>  (296) 
0

>  <s_lp_Force_Field>  (296) 
OPLS3e

>  <r_lp_Energy>  (296) 
3.57779

>  <b_lp_Chiralities_Consistent>  (296) 
1

>  <s_lp_Variant>  (296) 
70:0-1

>  <s_i_glide_gridfile>  (296) 
pfpi4k_grid

>  <i_i_glide_lignum>  (296) 
3

>  <i_i_glide_rotatable_bonds>  (296) 
3

>  <r_i_docking_score>  (296) 
-4.05075

>  <r_i_glide_ligand_efficiency>  (296) 
-0.192893

>  <r_i_glide_ligand_efficiency_sa>  (296) 
-0.532177

>  <r_i_glide_ligand_efficiency_ln>  (296) 
-1.00154

>  <r_i_glide_gscore>  (296) 
-4.05075

>  <r_i_glide_lipo>  (296) 
-0.253126

>  <r_i_glide_hbond>  (296) 
-0.37795

>  <r_i_glide_metal>  (296) 
-0

>  <r_i_glide_rewards>  (296) 
-1.27999

>  <r_i_glide_evdw>  (296) 
-33.6932

>  <r_i_glide_ecoul>  (296) 
-4.72143

>  <r_i_glide_erotb>  (296) 
0.531053

>  <r_i_glide_esite>  (296) 
-0.277865

>  <r_i_glide_emodel>  (296) 
-49.0822

>  <r_i_glide_energy>  (296) 
-38.4146

>  <r_i_glide_einternal>  (296) 
0.244128

>  <r_i_glide_intrahb_reward>  (296) 
-0

>  <i_i_glide_confnum>  (296) 
5

>  <i_i_glide_posenum>  (296) 
11

>  <r_i_glide_eff_state_penalty>  (296) 
0

>  <ligand_id>  (296) 
70

>  <original_smiles>  (296) 
Cn1c(SCc2n[nH]c(=N)s2)nc2c1c(=O)[nH]c(=O)n2C

>  <smiles>  (296) 
[H]N([H])c1nnc(C([H])([H])Sc2nc3c(c(=O)n([H])c(=O)n3C([H])([H])[H])n2C([H])([H])[H])s1

$$$$
70:0:2
     RDKit          3D

 32 34  0  0  1  0  0  0  0  0999 V2000
    6.1994   -3.7117    1.6199 C   0  0  0  0  0  0  0  0  0  0  0  0
    4.9533   -3.7826    0.8624 N   0  0  0  0  0  0  0  0  0  0  0  0
    3.8198   -4.4762    1.1694 C   0  0  0  0  0  0  0  0  0  0  0  0
    3.6489   -5.5184    2.5759 S   0  0  0  0  0  0  0  0  0  0  0  0
    3.0406   -6.9942    1.6961 C   0  0  0  0  0  0  0  0  0  0  0  0
    1.6169   -7.3029    2.0293 C   0  0  0  0  0  0  0  0  0  0  0  0
    0.5852   -6.5489    1.6283 N   0  0  0  0  0  0  0  0  0  0  0  0
   -0.6358   -7.0537    2.0619 N   0  0  0  0  0  0  0  0  0  0  0  0
   -0.5002   -8.1954    2.7395 C   0  0  0  0  0  0  0  0  0  0  0  0
   -1.5692   -8.8944    3.2756 N   0  0  0  0  0  0  0  0  0  0  0  0
    1.1547   -8.7471    2.9252 S   0  0  0  0  0  0  0  0  0  0  0  0
    2.8364   -4.3293    0.2809 N   0  0  0  0  0  0  0  0  0  0  0  0
    3.3983   -3.5082   -0.6851 C   0  0  0  0  0  0  0  0  0  0  0  0
    4.6603   -3.1556   -0.3533 C   0  0  0  0  0  0  0  0  0  0  0  0
    5.4709   -2.2627   -1.1955 C   0  0  0  0  0  0  0  0  0  0  0  0
    6.6101   -1.9066   -0.9003 O   0  0  0  0  0  0  0  0  0  0  0  0
    4.8274   -1.8727   -2.3265 N   0  0  0  0  0  0  0  0  0  0  0  0
    3.5679   -2.2126   -2.7289 C   0  0  0  0  0  0  0  0  0  0  0  0
    3.1371   -1.7877   -3.8009 O   0  0  0  0  0  0  0  0  0  0  0  0
    2.8419   -3.0361   -1.9001 N   0  0  0  0  0  0  0  0  0  0  0  0
    1.4788   -3.4560   -2.2071 C   0  0  0  0  0  0  0  0  0  0  0  0
    5.3285   -1.2617   -2.9537 H   0  0  0  0  0  0  0  0  0  0  0  0
    6.2554   -4.5034    2.3644 H   0  0  0  0  0  0  0  0  0  0  0  0
    6.2635   -2.7483    2.1226 H   0  0  0  0  0  0  0  0  0  0  0  0
    7.0533   -3.8179    0.9539 H   0  0  0  0  0  0  0  0  0  0  0  0
    3.1331   -6.8934    0.6158 H   0  0  0  0  0  0  0  0  0  0  0  0
    3.6614   -7.8416    1.9786 H   0  0  0  0  0  0  0  0  0  0  0  0
   -2.5162   -8.5697    3.1723 H   0  0  0  0  0  0  0  0  0  0  0  0
    1.0849   -3.0237   -3.1206 H   0  0  0  0  0  0  0  0  0  0  0  0
    0.8092   -3.1721   -1.3986 H   0  0  0  0  0  0  0  0  0  0  0  0
    1.4125   -4.5375   -2.2970 H   0  0  0  0  0  0  0  0  0  0  0  0
   -1.4570   -9.7306    3.8419 H   0  0  0  0  0  0  0  0  0  0  0  0
  1  2  1  0
  1 23  1  0
  1 24  1  0
  1 25  1  0
  2 14  1  0
  2  3  1  0
  3  4  1  0
  3 12  2  0
  4  5  1  0
  5  6  1  0
  5 26  1  0
  5 27  1  0
  6 11  1  0
  6  7  2  0
  7  8  1  0
  8  9  2  0
  9 10  1  0
  9 11  1  0
 10 28  1  0
 10 32  1  0
 12 13  1  0
 13 20  1  0
 13 14  2  0
 14 15  1  0
 15 16  2  0
 15 17  1  0
 17 22  1  0
 17 18  1  0
 18 19  2  0
 18 20  1  0
 20 21  1  0
 21 29  1  0
 21 30  1  0
 21 31  1  0
M  END
>  <i_m_ct_stereo_status>  (297) 
1

>  <s_m_source_file>  (297) 
/var/tmp/pbs.5102103.sched01/tmphafng327/110q8crsuru.sdf

>  <i_m_source_file_index>  (297) 
3

>  <i_lp_mmshare_version>  (297) 
48012

>  <i_f3d_flags>  (297) 
0

>  <s_epik_input>  (297) 
W0NIM11uMWMoPU8pW25IXWMoPU8pYyhjMTIpbihbQ0gzXSljKG4yKVNbQ0gyXWMzbltuSF0vYyhzMyk9TlxbSF0=

>  <s_epik_cmdline>  (297) 
J2VwaWtfcHl0aG9uJywgJy1waHQnLCAnMi4wJywgJy1waCcsICc3LjAnLCAnLXRuJywgJzgnLCAnLW1hJywgJzIwMCcsICctaW1hZScsICc8aW5maWxlLm1hZT4nLCAnLW9tYWUnLCAnPG91dGZpbGUubWFlPic=

>  <r_lp_tautomer_probability>  (297) 
1

>  <r_epik_Ionization_Penalty>  (297) 
0.000132387

>  <r_epik_Ionization_Penalty_Charging>  (297) 
0.000117999

>  <r_epik_Ionization_Penalty_Neutral>  (297) 
1.43886e-05

>  <r_epik_State_Penalty>  (297) 
-0

>  <r_epik_Charging_Adjusted_Penalty>  (297) 
0.000117999

>  <i_epik_Tot_Q>  (297) 
0

>  <i_epik_Tot_abs_Q>  (297) 
0

>  <s_lp_Force_Field>  (297) 
OPLS3e

>  <r_lp_Energy>  (297) 
3.57779

>  <b_lp_Chiralities_Consistent>  (297) 
1

>  <s_lp_Variant>  (297) 
70:0-1

>  <s_i_glide_gridfile>  (297) 
pfpi4k_grid

>  <i_i_glide_lignum>  (297) 
3

>  <i_i_glide_rotatable_bonds>  (297) 
3

>  <r_i_docking_score>  (297) 
-4.04921

>  <r_i_glide_ligand_efficiency>  (297) 
-0.19282

>  <r_i_glide_ligand_efficiency_sa>  (297) 
-0.531975

>  <r_i_glide_ligand_efficiency_ln>  (297) 
-1.00116

>  <r_i_glide_gscore>  (297) 
-4.04921

>  <r_i_glide_lipo>  (297) 
-0.133021

>  <r_i_glide_hbond>  (297) 
-0.319121

>  <r_i_glide_metal>  (297) 
-0

>  <r_i_glide_rewards>  (297) 
-1.30886

>  <r_i_glide_evdw>  (297) 
-31.3159

>  <r_i_glide_ecoul>  (297) 
-6.38132

>  <r_i_glide_erotb>  (297) 
0.531053

>  <r_i_glide_esite>  (297) 
-0.296271

>  <r_i_glide_emodel>  (297) 
-47.6928

>  <r_i_glide_energy>  (297) 
-37.6972

>  <r_i_glide_einternal>  (297) 
1.62026

>  <r_i_glide_intrahb_reward>  (297) 
-0

>  <i_i_glide_confnum>  (297) 
5

>  <i_i_glide_posenum>  (297) 
1

>  <r_i_glide_eff_state_penalty>  (297) 
0

>  <ligand_id>  (297) 
70

>  <original_smiles>  (297) 
Cn1c(SCc2n[nH]c(=N)s2)nc2c1c(=O)[nH]c(=O)n2C

>  <smiles>  (297) 
[H]N([H])c1nnc(C([H])([H])Sc2nc3c(c(=O)n([H])c(=O)n3C([H])([H])[H])n2C([H])([H])[H])s1

$$$$
71:0:0
     RDKit          3D

 33 36  0  0  1  0  0  0  0  0999 V2000
   -1.3507   -8.5181    2.3220 C   0  0  0  0  0  0  0  0  0  0  0  0
    0.0468   -8.7856    2.8545 C   0  0  0  0  0  0  0  0  0  0  0  0
    0.2441   -9.8410    3.7607 C   0  0  0  0  0  0  0  0  0  0  0  0
    1.5209  -10.1123    4.2734 C   0  0  0  0  0  0  0  0  0  0  0  0
    2.6098   -9.3235    3.8607 C   0  0  0  0  0  0  0  0  0  0  0  0
    2.4692   -8.2602    2.9406 C   0  0  0  0  0  0  0  0  0  0  0  0
    3.4508   -7.3443    2.3965 C   0  0  0  0  0  0  0  0  0  0  0  0
    5.0805   -7.4900    2.8730 Cl  0  0  0  0  0  0  0  0  0  0  0  0
    2.8990   -6.4361    1.5210 C   0  0  0  0  0  0  0  0  0  0  0  0
    3.5482   -5.3552    0.7766 C   0  0  0  0  0  0  0  0  0  0  0  0
    4.8551   -5.0123    0.9661 N   0  0  0  0  0  0  0  0  0  0  0  0
    5.0729   -4.0369    0.1449 N   0  0  0  0  0  0  0  0  0  0  0  0
    3.9051   -3.8268   -0.5202 N   0  0  0  0  0  0  0  0  0  0  0  0
    3.7602   -2.8596   -1.5454 C   0  0  0  0  0  0  0  0  0  0  0  0
    4.5727   -1.7018   -1.5674 C   0  0  0  0  0  0  0  0  0  0  0  0
    4.3915   -0.7329   -2.5749 C   0  0  0  0  0  0  0  0  0  0  0  0
    3.4187   -0.9129   -3.5771 C   0  0  0  0  0  0  0  0  0  0  0  0
    2.6249   -2.0740   -3.5674 C   0  0  0  0  0  0  0  0  0  0  0  0
    2.7881   -3.0373   -2.5560 C   0  0  0  0  0  0  0  0  0  0  0  0
    2.8919   -4.6274   -0.1080 N   0  0  0  0  0  0  0  0  0  0  0  0
    1.1752   -6.6615    1.2952 S   0  0  0  0  0  0  0  0  0  0  0  0
    1.1500   -8.0052    2.4400 C   0  0  0  0  0  0  0  0  0  0  0  0
   -2.0719   -9.2202    2.7381 H   0  0  0  0  0  0  0  0  0  0  0  0
   -1.3766   -8.6386    1.2414 H   0  0  0  0  0  0  0  0  0  0  0  0
   -1.6847   -7.5120    2.5742 H   0  0  0  0  0  0  0  0  0  0  0  0
   -0.5789  -10.4575    4.0757 H   0  0  0  0  0  0  0  0  0  0  0  0
    1.6586  -10.9228    4.9806 H   0  0  0  0  0  0  0  0  0  0  0  0
    3.5874   -9.5468    4.2590 H   0  0  0  0  0  0  0  0  0  0  0  0
    5.3140   -1.5368   -0.7980 H   0  0  0  0  0  0  0  0  0  0  0  0
    4.9932    0.1607   -2.5704 H   0  0  0  0  0  0  0  0  0  0  0  0
    3.2703   -0.1587   -4.3361 H   0  0  0  0  0  0  0  0  0  0  0  0
    1.8621   -2.2195   -4.3199 H   0  0  0  0  0  0  0  0  0  0  0  0
    2.1496   -3.9096   -2.5577 H   0  0  0  0  0  0  0  0  0  0  0  0
  1  2  1  0
  1 23  1  0
  1 24  1  0
  1 25  1  0
  2 22  2  0
  2  3  1  0
  3  4  2  0
  3 26  1  0
  4  5  1  0
  4 27  1  0
  5  6  2  0
  5 28  1  0
  6 22  1  0
  6  7  1  0
  7  8  1  0
  7  9  2  0
  9 10  1  0
  9 21  1  0
 10 20  2  0
 10 11  1  0
 11 12  2  0
 12 13  1  0
 13 14  1  0
 13 20  1  0
 14 19  1  0
 14 15  2  0
 15 16  1  0
 15 29  1  0
 16 17  2  0
 16 30  1  0
 17 18  1  0
 17 31  1  0
 18 19  2  0
 18 32  1  0
 19 33  1  0
 21 22  1  0
M  END
>  <i_m_ct_stereo_status>  (298) 
1

>  <s_m_source_file>  (298) 
/var/tmp/pbs.5102103.sched01/tmphafng327/110q8crsuru.sdf

>  <i_m_source_file_index>  (298) 
4

>  <i_lp_mmshare_version>  (298) 
48012

>  <i_f3d_flags>  (298) 
0

>  <s_epik_input>  (298) 
W2NIXTFbY0hdW2NIXWMoW0NIM10pYyhjMTIpc2MoYzJDbCktYzNubm4objMpLWM0W2NIXVtjSF1bY0hdW2NIXVtjSF00

>  <s_epik_cmdline>  (298) 
J2VwaWtfcHl0aG9uJywgJy1waHQnLCAnMi4wJywgJy1waCcsICc3LjAnLCAnLXRuJywgJzgnLCAnLW1hJywgJzIwMCcsICctaW1hZScsICc8aW5maWxlLm1hZT4nLCAnLW9tYWUnLCAnPG91dGZpbGUubWFlPic=

>  <r_lp_tautomer_probability>  (298) 
1

>  <r_epik_Ionization_Penalty>  (298) 
7.58945e-09

>  <r_epik_Ionization_Penalty_Charging>  (298) 
0

>  <r_epik_Ionization_Penalty_Neutral>  (298) 
7.58945e-09

>  <r_epik_State_Penalty>  (298) 
-0

>  <r_epik_Charging_Adjusted_Penalty>  (298) 
0

>  <i_epik_Tot_Q>  (298) 
0

>  <i_epik_Tot_abs_Q>  (298) 
0

>  <s_lp_Force_Field>  (298) 
OPLS3e

>  <r_lp_Energy>  (298) 
24.8802

>  <b_lp_Chiralities_Consistent>  (298) 
1

>  <s_lp_Variant>  (298) 
71:0-1

>  <s_i_glide_gridfile>  (298) 
pfpi4k_grid

>  <i_i_glide_lignum>  (298) 
4

>  <i_i_glide_rotatable_bonds>  (298) 
2

>  <r_i_docking_score>  (298) 
-3.27006

>  <r_i_glide_ligand_efficiency>  (298) 
-0.148639

>  <r_i_glide_ligand_efficiency_sa>  (298) 
-0.416492

>  <r_i_glide_ligand_efficiency_ln>  (298) 
-0.799321

>  <r_i_glide_gscore>  (298) 
-3.27006

>  <r_i_glide_lipo>  (298) 
-0.535147

>  <r_i_glide_hbond>  (298) 
0

>  <r_i_glide_metal>  (298) 
-0

>  <r_i_glide_rewards>  (298) 
-1.18088

>  <r_i_glide_evdw>  (298) 
-31.7848

>  <r_i_glide_ecoul>  (298) 
-2.0329

>  <r_i_glide_erotb>  (298) 
0.351302

>  <r_i_glide_esite>  (298) 
-0.0111549

>  <r_i_glide_emodel>  (298) 
-40.2655

>  <r_i_glide_energy>  (298) 
-33.8177

>  <r_i_glide_einternal>  (298) 
0.705179

>  <r_i_glide_intrahb_reward>  (298) 
-0

>  <i_i_glide_confnum>  (298) 
1

>  <i_i_glide_posenum>  (298) 
29

>  <r_i_glide_eff_state_penalty>  (298) 
0

>  <ligand_id>  (298) 
71

>  <original_smiles>  (298) 
Cc1cccc2c(Cl)c(-c3nnn(-c4ccccc4)n3)sc12

>  <smiles>  (298) 
[H]c1c([H])c([H])c(-n2nnc(-c3sc4c(C([H])([H])[H])c([H])c([H])c([H])c4c3Cl)n2)c([H])c1[H]

$$$$
71:0:1
     RDKit          3D

 33 36  0  0  1  0  0  0  0  0999 V2000
   -1.1886   -8.6043    2.5866 C   0  0  0  0  0  0  0  0  0  0  0  0
   -0.1753   -8.1410    3.6208 C   0  0  0  0  0  0  0  0  0  0  0  0
   -0.2064   -8.7012    4.9117 C   0  0  0  0  0  0  0  0  0  0  0  0
    0.7257   -8.3087    5.8818 C   0  0  0  0  0  0  0  0  0  0  0  0
    1.6833   -7.3274    5.5634 C   0  0  0  0  0  0  0  0  0  0  0  0
    1.7529   -6.7281    4.2838 C   0  0  0  0  0  0  0  0  0  0  0  0
    2.6463   -5.7159    3.7670 C   0  0  0  0  0  0  0  0  0  0  0  0
    3.8516   -5.0608    4.7821 Cl  0  0  0  0  0  0  0  0  0  0  0  0
    2.3837   -5.3985    2.4526 C   0  0  0  0  0  0  0  0  0  0  0  0
    3.0525   -4.4268    1.5828 C   0  0  0  0  0  0  0  0  0  0  0  0
    4.1561   -3.7346    1.9647 N   0  0  0  0  0  0  0  0  0  0  0  0
    4.4412   -2.9623    0.9564 N   0  0  0  0  0  0  0  0  0  0  0  0
    3.5081   -3.2098    0.0035 N   0  0  0  0  0  0  0  0  0  0  0  0
    3.4736   -2.5540   -1.2546 C   0  0  0  0  0  0  0  0  0  0  0  0
    4.2581   -1.4014   -1.4978 C   0  0  0  0  0  0  0  0  0  0  0  0
    4.2131   -0.7675   -2.7556 C   0  0  0  0  0  0  0  0  0  0  0  0
    3.4037   -1.2820   -3.7873 C   0  0  0  0  0  0  0  0  0  0  0  0
    2.6214   -2.4277   -3.5481 C   0  0  0  0  0  0  0  0  0  0  0  0
    2.6537   -3.0545   -2.2914 C   0  0  0  0  0  0  0  0  0  0  0  0
    2.6165   -4.1619    0.3656 N   0  0  0  0  0  0  0  0  0  0  0  0
    1.0499   -6.3153    1.7828 S   0  0  0  0  0  0  0  0  0  0  0  0
    0.7982   -7.1615    3.3076 C   0  0  0  0  0  0  0  0  0  0  0  0
   -1.8440   -9.3730    2.9957 H   0  0  0  0  0  0  0  0  0  0  0  0
   -0.6929   -9.0377    1.7197 H   0  0  0  0  0  0  0  0  0  0  0  0
   -1.8159   -7.7783    2.2537 H   0  0  0  0  0  0  0  0  0  0  0  0
   -0.9444   -9.4511    5.1631 H   0  0  0  0  0  0  0  0  0  0  0  0
    0.7091   -8.7629    6.8662 H   0  0  0  0  0  0  0  0  0  0  0  0
    2.3940   -7.0306    6.3186 H   0  0  0  0  0  0  0  0  0  0  0  0
    4.8759   -0.9795   -0.7167 H   0  0  0  0  0  0  0  0  0  0  0  0
    4.7798    0.1328   -2.9180 H   0  0  0  0  0  0  0  0  0  0  0  0
    3.3535   -0.7894   -4.7504 H   0  0  0  0  0  0  0  0  0  0  0  0
    1.9794   -2.8346   -4.3153 H   0  0  0  0  0  0  0  0  0  0  0  0
    2.0423   -3.9303   -2.1355 H   0  0  0  0  0  0  0  0  0  0  0  0
  1  2  1  0
  1 23  1  0
  1 24  1  0
  1 25  1  0
  2 22  2  0
  2  3  1  0
  3  4  2  0
  3 26  1  0
  4  5  1  0
  4 27  1  0
  5  6  2  0
  5 28  1  0
  6 22  1  0
  6  7  1  0
  7  8  1  0
  7  9  2  0
  9 10  1  0
  9 21  1  0
 10 20  2  0
 10 11  1  0
 11 12  2  0
 12 13  1  0
 13 14  1  0
 13 20  1  0
 14 19  1  0
 14 15  2  0
 15 16  1  0
 15 29  1  0
 16 17  2  0
 16 30  1  0
 17 18  1  0
 17 31  1  0
 18 19  2  0
 18 32  1  0
 19 33  1  0
 21 22  1  0
M  END
>  <i_m_ct_stereo_status>  (299) 
1

>  <s_m_source_file>  (299) 
/var/tmp/pbs.5102103.sched01/tmphafng327/110q8crsuru.sdf

>  <i_m_source_file_index>  (299) 
4

>  <i_lp_mmshare_version>  (299) 
48012

>  <i_f3d_flags>  (299) 
0

>  <s_epik_input>  (299) 
W2NIXTFbY0hdW2NIXWMoW0NIM10pYyhjMTIpc2MoYzJDbCktYzNubm4objMpLWM0W2NIXVtjSF1bY0hdW2NIXVtjSF00

>  <s_epik_cmdline>  (299) 
J2VwaWtfcHl0aG9uJywgJy1waHQnLCAnMi4wJywgJy1waCcsICc3LjAnLCAnLXRuJywgJzgnLCAnLW1hJywgJzIwMCcsICctaW1hZScsICc8aW5maWxlLm1hZT4nLCAnLW9tYWUnLCAnPG91dGZpbGUubWFlPic=

>  <r_lp_tautomer_probability>  (299) 
1

>  <r_epik_Ionization_Penalty>  (299) 
7.58945e-09

>  <r_epik_Ionization_Penalty_Charging>  (299) 
0

>  <r_epik_Ionization_Penalty_Neutral>  (299) 
7.58945e-09

>  <r_epik_State_Penalty>  (299) 
-0

>  <r_epik_Charging_Adjusted_Penalty>  (299) 
0

>  <i_epik_Tot_Q>  (299) 
0

>  <i_epik_Tot_abs_Q>  (299) 
0

>  <s_lp_Force_Field>  (299) 
OPLS3e

>  <r_lp_Energy>  (299) 
24.8802

>  <b_lp_Chiralities_Consistent>  (299) 
1

>  <s_lp_Variant>  (299) 
71:0-1

>  <s_i_glide_gridfile>  (299) 
pfpi4k_grid

>  <i_i_glide_lignum>  (299) 
4

>  <i_i_glide_rotatable_bonds>  (299) 
2

>  <r_i_docking_score>  (299) 
-3.14103

>  <r_i_glide_ligand_efficiency>  (299) 
-0.142774

>  <r_i_glide_ligand_efficiency_sa>  (299) 
-0.400059

>  <r_i_glide_ligand_efficiency_ln>  (299) 
-0.767783

>  <r_i_glide_gscore>  (299) 
-3.14103

>  <r_i_glide_lipo>  (299) 
-0.500606

>  <r_i_glide_hbond>  (299) 
0

>  <r_i_glide_metal>  (299) 
-0

>  <r_i_glide_rewards>  (299) 
-1.18088

>  <r_i_glide_evdw>  (299) 
-28.4447

>  <r_i_glide_ecoul>  (299) 
-2.56798

>  <r_i_glide_erotb>  (299) 
0.351302

>  <r_i_glide_esite>  (299) 
-0.00341816

>  <r_i_glide_emodel>  (299) 
-37.4432

>  <r_i_glide_energy>  (299) 
-31.0126

>  <r_i_glide_einternal>  (299) 
0.252327

>  <r_i_glide_intrahb_reward>  (299) 
-0

>  <i_i_glide_confnum>  (299) 
6

>  <i_i_glide_posenum>  (299) 
20

>  <r_i_glide_eff_state_penalty>  (299) 
0

>  <ligand_id>  (299) 
71

>  <original_smiles>  (299) 
Cc1cccc2c(Cl)c(-c3nnn(-c4ccccc4)n3)sc12

>  <smiles>  (299) 
[H]c1c([H])c([H])c(-n2nnc(-c3sc4c(C([H])([H])[H])c([H])c([H])c([H])c4c3Cl)n2)c([H])c1[H]

$$$$
71:0:2
     RDKit          3D

 33 36  0  0  1  0  0  0  0  0999 V2000
    4.4609  -11.4703    3.7804 C   0  0  0  0  0  0  0  0  0  0  0  0
    3.1665  -10.7567    3.4585 C   0  0  0  0  0  0  0  0  0  0  0  0
    1.9492  -11.3368    3.8632 C   0  0  0  0  0  0  0  0  0  0  0  0
    0.7418  -10.6931    3.5768 C   0  0  0  0  0  0  0  0  0  0  0  0
    0.7368   -9.4745    2.8798 C   0  0  0  0  0  0  0  0  0  0  0  0
    1.9316   -8.8535    2.4502 C   0  0  0  0  0  0  0  0  0  0  0  0
    2.1425   -7.6139    1.7334 C   0  0  0  0  0  0  0  0  0  0  0  0
    0.7957   -6.6599    1.2839 Cl  0  0  0  0  0  0  0  0  0  0  0  0
    3.4809   -7.3550    1.5160 C   0  0  0  0  0  0  0  0  0  0  0  0
    4.0887   -6.2032    0.8410 C   0  0  0  0  0  0  0  0  0  0  0  0
    5.4258   -5.9386    0.8785 N   0  0  0  0  0  0  0  0  0  0  0  0
    5.5760   -4.8524    0.1837 N   0  0  0  0  0  0  0  0  0  0  0  0
    4.3387   -4.5105   -0.2705 N   0  0  0  0  0  0  0  0  0  0  0  0
    4.0831   -3.3885   -1.1054 C   0  0  0  0  0  0  0  0  0  0  0  0
    2.9269   -3.3576   -1.9206 C   0  0  0  0  0  0  0  0  0  0  0  0
    2.6787   -2.2605   -2.7658 C   0  0  0  0  0  0  0  0  0  0  0  0
    3.5510   -1.1587   -2.7711 C   0  0  0  0  0  0  0  0  0  0  0  0
    4.6919   -1.1719   -1.9482 C   0  0  0  0  0  0  0  0  0  0  0  0
    4.9671   -2.2861   -1.1294 C   0  0  0  0  0  0  0  0  0  0  0  0
    3.3627   -5.3413    0.1540 N   0  0  0  0  0  0  0  0  0  0  0  0
    4.5327   -8.5949    2.1629 S   0  0  0  0  0  0  0  0  0  0  0  0
    3.1590   -9.5255    2.7627 C   0  0  0  0  0  0  0  0  0  0  0  0
    4.2681  -12.3985    4.3185 H   0  0  0  0  0  0  0  0  0  0  0  0
    5.0933  -10.8513    4.4146 H   0  0  0  0  0  0  0  0  0  0  0  0
    4.9998  -11.7210    2.8671 H   0  0  0  0  0  0  0  0  0  0  0  0
    1.9256  -12.2782    4.3982 H   0  0  0  0  0  0  0  0  0  0  0  0
   -0.1807  -11.1421    3.9000 H   0  0  0  0  0  0  0  0  0  0  0  0
   -0.2055   -8.9985    2.6622 H   0  0  0  0  0  0  0  0  0  0  0  0
    2.2289   -4.1835   -1.9168 H   0  0  0  0  0  0  0  0  0  0  0  0
    1.7951   -2.2584   -3.3857 H   0  0  0  0  0  0  0  0  0  0  0  0
    3.3268   -0.2997   -3.3860 H   0  0  0  0  0  0  0  0  0  0  0  0
    5.3479   -0.3166   -1.9388 H   0  0  0  0  0  0  0  0  0  0  0  0
    5.8444   -2.2834   -0.4995 H   0  0  0  0  0  0  0  0  0  0  0  0
  1  2  1  0
  1 23  1  0
  1 24  1  0
  1 25  1  0
  2 22  2  0
  2  3  1  0
  3  4  2  0
  3 26  1  0
  4  5  1  0
  4 27  1  0
  5  6  2  0
  5 28  1  0
  6 22  1  0
  6  7  1  0
  7  8  1  0
  7  9  2  0
  9 10  1  0
  9 21  1  0
 10 20  2  0
 10 11  1  0
 11 12  2  0
 12 13  1  0
 13 14  1  0
 13 20  1  0
 14 19  1  0
 14 15  2  0
 15 16  1  0
 15 29  1  0
 16 17  2  0
 16 30  1  0
 17 18  1  0
 17 31  1  0
 18 19  2  0
 18 32  1  0
 19 33  1  0
 21 22  1  0
M  END
>  <i_m_ct_stereo_status>  (300) 
1

>  <s_m_source_file>  (300) 
/var/tmp/pbs.5102103.sched01/tmphafng327/110q8crsuru.sdf

>  <i_m_source_file_index>  (300) 
4

>  <i_lp_mmshare_version>  (300) 
48012

>  <i_f3d_flags>  (300) 
0

>  <s_epik_input>  (300) 
W2NIXTFbY0hdW2NIXWMoW0NIM10pYyhjMTIpc2MoYzJDbCktYzNubm4objMpLWM0W2NIXVtjSF1bY0hdW2NIXVtjSF00

>  <s_epik_cmdline>  (300) 
J2VwaWtfcHl0aG9uJywgJy1waHQnLCAnMi4wJywgJy1waCcsICc3LjAnLCAnLXRuJywgJzgnLCAnLW1hJywgJzIwMCcsICctaW1hZScsICc8aW5maWxlLm1hZT4nLCAnLW9tYWUnLCAnPG91dGZpbGUubWFlPic=

>  <r_lp_tautomer_probability>  (300) 
1

>  <r_epik_Ionization_Penalty>  (300) 
7.58945e-09

>  <r_epik_Ionization_Penalty_Charging>  (300) 
0

>  <r_epik_Ionization_Penalty_Neutral>  (300) 
7.58945e-09

>  <r_epik_State_Penalty>  (300) 
-0

>  <r_epik_Charging_Adjusted_Penalty>  (300) 
0

>  <i_epik_Tot_Q>  (300) 
0

>  <i_epik_Tot_abs_Q>  (300) 
0

>  <s_lp_Force_Field>  (300) 
OPLS3e

>  <r_lp_Energy>  (300) 
24.8802

>  <b_lp_Chiralities_Consistent>  (300) 
1

>  <s_lp_Variant>  (300) 
71:0-1

>  <s_i_glide_gridfile>  (300) 
pfpi4k_grid

>  <i_i_glide_lignum>  (300) 
4

>  <i_i_glide_rotatable_bonds>  (300) 
2

>  <r_i_docking_score>  (300) 
-3.06047

>  <r_i_glide_ligand_efficiency>  (300) 
-0.139112

>  <r_i_glide_ligand_efficiency_sa>  (300) 
-0.389799

>  <r_i_glide_ligand_efficiency_ln>  (300) 
-0.748092

>  <r_i_glide_gscore>  (300) 
-3.06047

>  <r_i_glide_lipo>  (300) 
-0.240291

>  <r_i_glide_hbond>  (300) 
0

>  <r_i_glide_metal>  (300) 
-0

>  <r_i_glide_rewards>  (300) 
-1.31183

>  <r_i_glide_evdw>  (300) 
-30.831

>  <r_i_glide_ecoul>  (300) 
-2.03595

>  <r_i_glide_erotb>  (300) 
0.351302

>  <r_i_glide_esite>  (300) 
-0.0127119

>  <r_i_glide_emodel>  (300) 
-38.8556

>  <r_i_glide_energy>  (300) 
-32.867

>  <r_i_glide_einternal>  (300) 
0.751807

>  <r_i_glide_intrahb_reward>  (300) 
-0

>  <i_i_glide_confnum>  (300) 
6

>  <i_i_glide_posenum>  (300) 
39

>  <r_i_glide_eff_state_penalty>  (300) 
0

>  <ligand_id>  (300) 
71

>  <original_smiles>  (300) 
Cc1cccc2c(Cl)c(-c3nnn(-c4ccccc4)n3)sc12

>  <smiles>  (300) 
[H]c1c([H])c([H])c(-n2nnc(-c3sc4c(C([H])([H])[H])c([H])c([H])c([H])c4c3Cl)n2)c([H])c1[H]

$$$$
72:0:0
     RDKit          3D

 24 25  0  0  1  0  0  0  0  0999 V2000
    0.6724    2.9854    3.4942 C   0  0  0  0  0  0  0  0  0  0  0  0
   -1.0894    2.4053    3.4466 S   0  0  0  0  0  0  0  0  0  0  0  0
   -1.9057    3.5160    2.9323 O   0  0  0  0  0  0  0  0  0  0  0  0
   -1.1386    1.1020    2.7674 O   0  0  0  0  0  0  0  0  0  0  0  0
   -1.5582    2.1803    5.1813 C   0  0  0  0  0  0  0  0  0  0  0  0
   -2.1615    3.3015    5.8054 C   0  0  0  0  0  0  0  0  0  0  0  0
   -2.5244    3.2370    7.1660 C   0  0  0  0  0  0  0  0  0  0  0  0
   -2.2718    2.0467    7.8559 C   0  0  0  0  0  0  0  0  0  0  0  0
   -1.7291    0.9599    7.2687 N   0  0  0  0  0  0  0  0  0  0  0  0
   -1.3614    1.0083    5.9620 C   0  0  0  0  0  0  0  0  0  0  0  0
   -0.7998   -0.1961    5.4423 N   0  0  0  0  0  0  0  0  0  0  0  0
    0.3206   -0.3786    4.6515 C   0  0  0  0  0  0  0  0  0  0  0  0
    0.4594   -1.7198    4.4203 C   0  0  0  0  0  0  0  0  0  0  0  0
   -0.5816   -2.3047    5.1906 C   0  0  0  0  0  0  0  0  0  0  0  0
   -1.3416   -1.3973    5.7738 N   0  0  0  0  0  0  0  0  0  0  0  0
    1.0740    2.9540    2.4824 H   0  0  0  0  0  0  0  0  0  0  0  0
    1.3141    2.3885    4.1383 H   0  0  0  0  0  0  0  0  0  0  0  0
    0.6941    4.0143    3.8471 H   0  0  0  0  0  0  0  0  0  0  0  0
   -2.3480    4.1965    5.2505 H   0  0  0  0  0  0  0  0  0  0  0  0
   -2.9993    4.0685    7.6692 H   0  0  0  0  0  0  0  0  0  0  0  0
   -2.5312    1.9509    8.9032 H   0  0  0  0  0  0  0  0  0  0  0  0
    0.9282    0.4263    4.2814 H   0  0  0  0  0  0  0  0  0  0  0  0
    1.2095   -2.1737    3.7891 H   0  0  0  0  0  0  0  0  0  0  0  0
   -0.8261   -3.3508    5.3013 H   0  0  0  0  0  0  0  0  0  0  0  0
  1  2  1  0
  1 16  1  0
  1 17  1  0
  1 18  1  0
  2  3  2  0
  2  4  2  0
  2  5  1  0
  5 10  2  0
  5  6  1  0
  6  7  2  0
  6 19  1  0
  7  8  1  0
  7 20  1  0
  8  9  2  0
  8 21  1  0
  9 10  1  0
 10 11  1  0
 11 15  1  0
 11 12  1  0
 12 13  2  0
 12 22  1  0
 13 14  1  0
 13 23  1  0
 14 15  2  0
 14 24  1  0
M  END
>  <i_m_ct_stereo_status>  (301) 
1

>  <s_m_source_file>  (301) 
/var/tmp/pbs.5102103.sched01/tmphafng327/110q8crsuru.sdf

>  <i_m_source_file_index>  (301) 
5

>  <i_lp_mmshare_version>  (301) 
48012

>  <i_f3d_flags>  (301) 
0

>  <s_epik_input>  (301) 
W0NIM11TKD1PKSg9TyljMVtjSF1bY0hdW2NIXW5jMS1uMltjSF1bY0hdW2NIXW4y

>  <s_epik_cmdline>  (301) 
J2VwaWtfcHl0aG9uJywgJy1waHQnLCAnMi4wJywgJy1waCcsICc3LjAnLCAnLXRuJywgJzgnLCAnLW1hJywgJzIwMCcsICctaW1hZScsICc8aW5maWxlLm1hZT4nLCAnLW9tYWUnLCAnPG91dGZpbGUubWFlPic=

>  <r_lp_tautomer_probability>  (301) 
1

>  <r_epik_Ionization_Penalty>  (301) 
1.02542e-06

>  <r_epik_Ionization_Penalty_Charging>  (301) 
0

>  <r_epik_Ionization_Penalty_Neutral>  (301) 
1.02542e-06

>  <r_epik_State_Penalty>  (301) 
-0

>  <r_epik_Charging_Adjusted_Penalty>  (301) 
0

>  <i_epik_Tot_Q>  (301) 
0

>  <i_epik_Tot_abs_Q>  (301) 
0

>  <s_lp_Force_Field>  (301) 
OPLS3e

>  <r_lp_Energy>  (301) 
15.4244

>  <b_lp_Chiralities_Consistent>  (301) 
1

>  <s_lp_Variant>  (301) 
72:0-1

>  <s_i_glide_gridfile>  (301) 
pfpi4k_grid

>  <i_i_glide_lignum>  (301) 
5

>  <i_i_glide_rotatable_bonds>  (301) 
2

>  <r_i_docking_score>  (301) 
-3.64367

>  <r_i_glide_ligand_efficiency>  (301) 
-0.242911

>  <r_i_glide_ligand_efficiency_sa>  (301) 
-0.59907

>  <r_i_glide_ligand_efficiency_ln>  (301) 
-0.982637

>  <r_i_glide_gscore>  (301) 
-3.64367

>  <r_i_glide_lipo>  (301) 
-0.146614

>  <r_i_glide_hbond>  (301) 
-0.16

>  <r_i_glide_metal>  (301) 
-0

>  <r_i_glide_rewards>  (301) 
-1.88691

>  <r_i_glide_evdw>  (301) 
-17.6976

>  <r_i_glide_ecoul>  (301) 
-4.41762

>  <r_i_glide_erotb>  (301) 
0.33949

>  <r_i_glide_esite>  (301) 
-0.242104

>  <r_i_glide_emodel>  (301) 
-27.2624

>  <r_i_glide_energy>  (301) 
-22.1153

>  <r_i_glide_einternal>  (301) 
0.710233

>  <r_i_glide_intrahb_reward>  (301) 
-0

>  <i_i_glide_confnum>  (301) 
3

>  <i_i_glide_posenum>  (301) 
5

>  <r_i_glide_eff_state_penalty>  (301) 
0

>  <ligand_id>  (301) 
72

>  <original_smiles>  (301) 
CS(=O)(=O)c1cccnc1-n1cccn1

>  <smiles>  (301) 
[H]c1nc(-n2nc([H])c([H])c2[H])c(S(=O)(=O)C([H])([H])[H])c([H])c1[H]

$$$$
72:0:1
     RDKit          3D

 24 25  0  0  1  0  0  0  0  0999 V2000
    0.6654   -9.4421    7.0643 C   0  0  0  0  0  0  0  0  0  0  0  0
    0.9788   -7.7804    6.3611 S   0  0  0  0  0  0  0  0  0  0  0  0
    0.2148   -6.8777    7.2332 O   0  0  0  0  0  0  0  0  0  0  0  0
    2.4297   -7.6089    6.2340 O   0  0  0  0  0  0  0  0  0  0  0  0
    0.2800   -7.7675    4.6877 C   0  0  0  0  0  0  0  0  0  0  0  0
   -0.1863   -8.9919    4.1551 C   0  0  0  0  0  0  0  0  0  0  0  0
   -0.6688   -9.0306    2.8365 C   0  0  0  0  0  0  0  0  0  0  0  0
   -0.6302   -7.8555    2.0744 C   0  0  0  0  0  0  0  0  0  0  0  0
   -0.1862   -6.6748    2.5611 N   0  0  0  0  0  0  0  0  0  0  0  0
    0.2673   -6.6225    3.8381 C   0  0  0  0  0  0  0  0  0  0  0  0
    0.6888   -5.3329    4.2600 N   0  0  0  0  0  0  0  0  0  0  0  0
    1.5100   -4.4495    3.5876 C   0  0  0  0  0  0  0  0  0  0  0  0
    1.5827   -3.2968    4.3296 C   0  0  0  0  0  0  0  0  0  0  0  0
    0.7566   -3.5778    5.4462 C   0  0  0  0  0  0  0  0  0  0  0  0
    0.1874   -4.7669    5.3754 N   0  0  0  0  0  0  0  0  0  0  0  0
    1.1388   -9.5053    8.0461 H   0  0  0  0  0  0  0  0  0  0  0  0
    1.0857  -10.2277    6.4323 H   0  0  0  0  0  0  0  0  0  0  0  0
   -0.4101   -9.5780    7.1738 H   0  0  0  0  0  0  0  0  0  0  0  0
   -0.1864   -9.9084    4.7171 H   0  0  0  0  0  0  0  0  0  0  0  0
   -1.0455   -9.9566    2.4116 H   0  0  0  0  0  0  0  0  0  0  0  0
   -0.9766   -7.8552    1.0511 H   0  0  0  0  0  0  0  0  0  0  0  0
    1.9596   -4.6922    2.6444 H   0  0  0  0  0  0  0  0  0  0  0  0
    2.1369   -2.3971    4.1022 H   0  0  0  0  0  0  0  0  0  0  0  0
    0.5241   -2.9593    6.3128 H   0  0  0  0  0  0  0  0  0  0  0  0
  1  2  1  0
  1 16  1  0
  1 17  1  0
  1 18  1  0
  2  3  2  0
  2  4  2  0
  2  5  1  0
  5 10  2  0
  5  6  1  0
  6  7  2  0
  6 19  1  0
  7  8  1  0
  7 20  1  0
  8  9  2  0
  8 21  1  0
  9 10  1  0
 10 11  1  0
 11 15  1  0
 11 12  1  0
 12 13  2  0
 12 22  1  0
 13 14  1  0
 13 23  1  0
 14 15  2  0
 14 24  1  0
M  END
>  <i_m_ct_stereo_status>  (302) 
1

>  <s_m_source_file>  (302) 
/var/tmp/pbs.5102103.sched01/tmphafng327/110q8crsuru.sdf

>  <i_m_source_file_index>  (302) 
5

>  <i_lp_mmshare_version>  (302) 
48012

>  <i_f3d_flags>  (302) 
0

>  <s_epik_input>  (302) 
W0NIM11TKD1PKSg9TyljMVtjSF1bY0hdW2NIXW5jMS1uMltjSF1bY0hdW2NIXW4y

>  <s_epik_cmdline>  (302) 
J2VwaWtfcHl0aG9uJywgJy1waHQnLCAnMi4wJywgJy1waCcsICc3LjAnLCAnLXRuJywgJzgnLCAnLW1hJywgJzIwMCcsICctaW1hZScsICc8aW5maWxlLm1hZT4nLCAnLW9tYWUnLCAnPG91dGZpbGUubWFlPic=

>  <r_lp_tautomer_probability>  (302) 
1

>  <r_epik_Ionization_Penalty>  (302) 
1.02542e-06

>  <r_epik_Ionization_Penalty_Charging>  (302) 
0

>  <r_epik_Ionization_Penalty_Neutral>  (302) 
1.02542e-06

>  <r_epik_State_Penalty>  (302) 
-0

>  <r_epik_Charging_Adjusted_Penalty>  (302) 
0

>  <i_epik_Tot_Q>  (302) 
0

>  <i_epik_Tot_abs_Q>  (302) 
0

>  <s_lp_Force_Field>  (302) 
OPLS3e

>  <r_lp_Energy>  (302) 
15.4244

>  <b_lp_Chiralities_Consistent>  (302) 
1

>  <s_lp_Variant>  (302) 
72:0-1

>  <s_i_glide_gridfile>  (302) 
pfpi4k_grid

>  <i_i_glide_lignum>  (302) 
5

>  <i_i_glide_rotatable_bonds>  (302) 
2

>  <r_i_docking_score>  (302) 
-3.41187

>  <r_i_glide_ligand_efficiency>  (302) 
-0.227458

>  <r_i_glide_ligand_efficiency_sa>  (302) 
-0.56096

>  <r_i_glide_ligand_efficiency_ln>  (302) 
-0.920126

>  <r_i_glide_gscore>  (302) 
-3.41187

>  <r_i_glide_lipo>  (302) 
-0.0137024

>  <r_i_glide_hbond>  (302) 
-0.16

>  <r_i_glide_metal>  (302) 
-0

>  <r_i_glide_rewards>  (302) 
-1.88691

>  <r_i_glide_evdw>  (302) 
-16.3448

>  <r_i_glide_ecoul>  (302) 
-5.25221

>  <r_i_glide_erotb>  (302) 
0.33949

>  <r_i_glide_esite>  (302) 
-0.0856738

>  <r_i_glide_emodel>  (302) 
-25.2234

>  <r_i_glide_energy>  (302) 
-21.597

>  <r_i_glide_einternal>  (302) 
3.18238

>  <r_i_glide_intrahb_reward>  (302) 
-0

>  <i_i_glide_confnum>  (302) 
5

>  <i_i_glide_posenum>  (302) 
2

>  <r_i_glide_eff_state_penalty>  (302) 
0

>  <ligand_id>  (302) 
72

>  <original_smiles>  (302) 
CS(=O)(=O)c1cccnc1-n1cccn1

>  <smiles>  (302) 
[H]c1nc(-n2nc([H])c([H])c2[H])c(S(=O)(=O)C([H])([H])[H])c([H])c1[H]

$$$$
72:0:2
     RDKit          3D

 24 25  0  0  1  0  0  0  0  0999 V2000
    2.6445   -1.9849    2.0262 C   0  0  0  0  0  0  0  0  0  0  0  0
    2.6726   -0.7834    3.4577 S   0  0  0  0  0  0  0  0  0  0  0  0
    2.9120   -1.5029    4.7206 O   0  0  0  0  0  0  0  0  0  0  0  0
    3.6238    0.2664    3.0917 O   0  0  0  0  0  0  0  0  0  0  0  0
    1.0331    0.0010    3.5655 C   0  0  0  0  0  0  0  0  0  0  0  0
    0.8857    1.2530    2.8815 C   0  0  0  0  0  0  0  0  0  0  0  0
   -0.3415    1.9391    2.9656 C   0  0  0  0  0  0  0  0  0  0  0  0
   -1.3829    1.3502    3.6960 C   0  0  0  0  0  0  0  0  0  0  0  0
   -1.2660    0.1616    4.3331 N   0  0  0  0  0  0  0  0  0  0  0  0
   -0.0938   -0.5121    4.2909 C   0  0  0  0  0  0  0  0  0  0  0  0
   -0.0778   -1.7650    4.9752 N   0  0  0  0  0  0  0  0  0  0  0  0
    0.4867   -2.9606    4.5782 C   0  0  0  0  0  0  0  0  0  0  0  0
    0.3090   -3.8933    5.5229 C   0  0  0  0  0  0  0  0  0  0  0  0
   -0.4655   -3.2077    6.5102 C   0  0  0  0  0  0  0  0  0  0  0  0
   -0.7012   -1.9354    6.1633 N   0  0  0  0  0  0  0  0  0  0  0  0
    3.6498   -2.3755    1.9069 H   0  0  0  0  0  0  0  0  0  0  0  0
    2.3253   -1.4398    1.1422 H   0  0  0  0  0  0  0  0  0  0  0  0
    1.9954   -2.8581    2.0775 H   0  0  0  0  0  0  0  0  0  0  0  0
    1.7059    1.7029    2.3402 H   0  0  0  0  0  0  0  0  0  0  0  0
   -0.4854    2.8961    2.4812 H   0  0  0  0  0  0  0  0  0  0  0  0
   -2.3471    1.8392    3.7866 H   0  0  0  0  0  0  0  0  0  0  0  0
    0.9724   -3.0808    3.6601 H   0  0  0  0  0  0  0  0  0  0  0  0
    0.6762   -4.8959    5.5083 H   0  0  0  0  0  0  0  0  0  0  0  0
   -0.8530   -3.5857    7.4614 H   0  0  0  0  0  0  0  0  0  0  0  0
  1  2  1  0
  1 16  1  0
  1 17  1  0
  1 18  1  0
  2  3  2  0
  2  4  2  0
  2  5  1  0
  5 10  2  0
  5  6  1  0
  6  7  2  0
  6 19  1  0
  7  8  1  0
  7 20  1  0
  8  9  2  0
  8 21  1  0
  9 10  1  0
 10 11  1  0
 11 15  1  0
 11 12  1  0
 12 13  2  0
 12 22  1  0
 13 14  1  0
 13 23  1  0
 14 15  2  0
 14 24  1  0
M  END
>  <i_m_ct_stereo_status>  (303) 
1

>  <s_m_source_file>  (303) 
/var/tmp/pbs.5102103.sched01/tmphafng327/110q8crsuru.sdf

>  <i_m_source_file_index>  (303) 
5

>  <i_lp_mmshare_version>  (303) 
48012

>  <i_f3d_flags>  (303) 
0

>  <s_epik_input>  (303) 
W0NIM11TKD1PKSg9TyljMVtjSF1bY0hdW2NIXW5jMS1uMltjSF1bY0hdW2NIXW4y

>  <s_epik_cmdline>  (303) 
J2VwaWtfcHl0aG9uJywgJy1waHQnLCAnMi4wJywgJy1waCcsICc3LjAnLCAnLXRuJywgJzgnLCAnLW1hJywgJzIwMCcsICctaW1hZScsICc8aW5maWxlLm1hZT4nLCAnLW9tYWUnLCAnPG91dGZpbGUubWFlPic=

>  <r_lp_tautomer_probability>  (303) 
1

>  <r_epik_Ionization_Penalty>  (303) 
1.02542e-06

>  <r_epik_Ionization_Penalty_Charging>  (303) 
0

>  <r_epik_Ionization_Penalty_Neutral>  (303) 
1.02542e-06

>  <r_epik_State_Penalty>  (303) 
-0

>  <r_epik_Charging_Adjusted_Penalty>  (303) 
0

>  <i_epik_Tot_Q>  (303) 
0

>  <i_epik_Tot_abs_Q>  (303) 
0

>  <s_lp_Force_Field>  (303) 
OPLS3e

>  <r_lp_Energy>  (303) 
15.4244

>  <b_lp_Chiralities_Consistent>  (303) 
1

>  <s_lp_Variant>  (303) 
72:0-1

>  <s_i_glide_gridfile>  (303) 
pfpi4k_grid

>  <i_i_glide_lignum>  (303) 
5

>  <i_i_glide_rotatable_bonds>  (303) 
2

>  <r_i_docking_score>  (303) 
-3.10784

>  <r_i_glide_ligand_efficiency>  (303) 
-0.207189

>  <r_i_glide_ligand_efficiency_sa>  (303) 
-0.510972

>  <r_i_glide_ligand_efficiency_ln>  (303) 
-0.838132

>  <r_i_glide_gscore>  (303) 
-3.10784

>  <r_i_glide_lipo>  (303) 
-0.0254743

>  <r_i_glide_hbond>  (303) 
0

>  <r_i_glide_metal>  (303) 
-0

>  <r_i_glide_rewards>  (303) 
-1.88691

>  <r_i_glide_evdw>  (303) 
-15.5779

>  <r_i_glide_ecoul>  (303) 
-4.87167

>  <r_i_glide_erotb>  (303) 
0.33949

>  <r_i_glide_esite>  (303) 
-0.0252959

>  <r_i_glide_emodel>  (303) 
-23.4544

>  <r_i_glide_energy>  (303) 
-20.4495

>  <r_i_glide_einternal>  (303) 
0.497175

>  <r_i_glide_intrahb_reward>  (303) 
-0

>  <i_i_glide_confnum>  (303) 
2

>  <i_i_glide_posenum>  (303) 
6

>  <r_i_glide_eff_state_penalty>  (303) 
0

>  <ligand_id>  (303) 
72

>  <original_smiles>  (303) 
CS(=O)(=O)c1cccnc1-n1cccn1

>  <smiles>  (303) 
[H]c1nc(-n2nc([H])c([H])c2[H])c(S(=O)(=O)C([H])([H])[H])c([H])c1[H]

$$$$
73:0:0
     RDKit          3D

 38 40  0  0  1  0  0  0  0  0999 V2000
    5.1571   -2.2467   -2.7509 O   0  0  0  0  0  0  0  0  0  0  0  0
    4.0346   -2.1661   -2.2533 C   0  0  0  0  0  0  0  0  0  0  0  0
    3.7518   -2.0820   -0.7420 C   0  0  2  0  0  0  0  0  0  0  0  0
    4.7583   -1.1482   -0.0522 C   0  0  0  0  0  0  0  0  0  0  0  0
    4.4217   -0.6914    1.3590 C   0  0  0  0  0  0  0  0  0  0  0  0
    5.4161   -0.7336    2.3580 C   0  0  0  0  0  0  0  0  0  0  0  0
    5.1406   -0.2602    3.6556 C   0  0  0  0  0  0  0  0  0  0  0  0
    3.8656    0.2555    3.9593 C   0  0  0  0  0  0  0  0  0  0  0  0
    2.8699    0.3055    2.9629 C   0  0  0  0  0  0  0  0  0  0  0  0
    3.1473   -0.1635    1.6630 C   0  0  0  0  0  0  0  0  0  0  0  0
    3.6983   -3.4001   -0.1100 N   0  0  0  0  0  0  0  0  0  0  0  0
    2.6066   -4.2649   -0.1916 C   0  0  0  0  0  0  0  0  0  0  0  0
    1.8087   -3.9540   -1.1093 O   0  0  0  0  0  0  0  0  0  0  0  0
    2.5979   -5.2814    0.7544 C   0  0  0  0  0  0  0  0  0  0  0  0
    3.9019   -5.5946    1.8894 S   0  0  0  0  0  0  0  0  0  0  0  0
    3.2929   -7.2561    2.2833 C   0  0  0  0  0  0  0  0  0  0  0  0
    1.7643   -7.2757    2.0392 C   0  0  1  0  0  0  0  0  0  0  0  0
    0.9754   -6.9965    3.2377 N   0  0  0  0  0  0  0  0  0  0  0  0
    1.4845   -6.4540    4.3671 N   0  0  0  0  0  0  0  0  0  0  0  0
    0.3829   -6.3391    5.0849 C   0  0  0  0  0  0  0  0  0  0  0  0
   -0.7475   -6.7477    4.4456 N   0  0  0  0  0  0  0  0  0  0  0  0
   -0.3646   -7.1654    3.2776 N   0  0  0  0  0  0  0  0  0  0  0  0
    1.5188   -6.2563    0.9217 C   0  0  0  0  0  0  0  0  0  0  0  0
    0.4572   -6.2536    0.3024 O   0  0  0  0  0  0  0  0  0  0  0  0
    3.1246   -2.1361   -2.8527 H   0  0  0  0  0  0  0  0  0  0  0  0
    2.7558   -1.6566   -0.6312 H   0  0  0  0  0  0  0  0  0  0  0  0
    5.7439   -1.6156   -0.0715 H   0  0  0  0  0  0  0  0  0  0  0  0
    4.8435   -0.2463   -0.6525 H   0  0  0  0  0  0  0  0  0  0  0  0
    6.3992   -1.1168    2.1260 H   0  0  0  0  0  0  0  0  0  0  0  0
    5.9116   -0.2860    4.4097 H   0  0  0  0  0  0  0  0  0  0  0  0
    3.6571    0.6261    4.9515 H   0  0  0  0  0  0  0  0  0  0  0  0
    1.8954    0.7109    3.1861 H   0  0  0  0  0  0  0  0  0  0  0  0
    2.3810   -0.1107    0.9013 H   0  0  0  0  0  0  0  0  0  0  0  0
    4.4384   -3.5667    0.5516 H   0  0  0  0  0  0  0  0  0  0  0  0
    3.7583   -7.9248    1.5626 H   0  0  0  0  0  0  0  0  0  0  0  0
    3.5905   -7.6089    3.2678 H   0  0  0  0  0  0  0  0  0  0  0  0
    1.4587   -8.2611    1.6775 H   0  0  0  0  0  0  0  0  0  0  0  0
    0.3861   -5.9284    6.0887 H   0  0  0  0  0  0  0  0  0  0  0  0
  1  2  2  0
  2  3  1  0
  2 25  1  0
  3  4  1  0
  3 11  1  0
  3 26  1  6
  4  5  1  0
  4 27  1  0
  4 28  1  0
  5 10  1  0
  5  6  2  0
  6  7  1  0
  6 29  1  0
  7  8  2  0
  7 30  1  0
  8  9  1  0
  8 31  1  0
  9 10  2  0
  9 32  1  0
 10 33  1  0
 11 12  1  0
 11 34  1  0
 12 13  1  0
 12 14  2  0
 14 23  1  0
 14 15  1  0
 15 16  1  0
 16 17  1  0
 16 35  1  0
 16 36  1  0
 17 18  1  0
 17 23  1  0
 17 37  1  6
 18 22  1  0
 18 19  1  0
 19 20  2  0
 20 21  1  0
 20 38  1  0
 21 22  2  0
 23 24  2  0
M  CHG  1  13  -1
M  END
>  <i_m_ct_stereo_status>  (304) 
1

>  <s_m_source_file>  (304) 
/var/tmp/pbs.5102103.sched01/tmphafng327/110q8crsuru.sdf

>  <i_m_source_file_index>  (304) 
6

>  <i_lp_mmshare_version>  (304) 
48012

>  <i_f3d_flags>  (304) 
0

>  <s_epik_input>  (304) 
W2NIXTFbY0hdW2NIXVtjSF1bY0hdYzFbQ0gyXVtDQEBIXShbQ0hdPU8pW05IXUMoPU8pW0NAQEhdMlNbQ0gyXVtDQEhdKEMyPU8pbjNuW2NIXW5uMw==

>  <s_epik_cmdline>  (304) 
J2VwaWtfcHl0aG9uJywgJy1waHQnLCAnMi4wJywgJy1waCcsICc3LjAnLCAnLXRuJywgJzgnLCAnLW1hJywgJzIwMCcsICctaW1hZScsICc8aW5maWxlLm1hZT4nLCAnLW9tYWUnLCAnPG91dGZpbGUubWFlPic=

>  <r_lp_tautomer_probability>  (304) 
0.9999

>  <r_epik_Ionization_Penalty>  (304) 
0.0502714

>  <r_epik_Ionization_Penalty_Charging>  (304) 
0.049932

>  <r_epik_Ionization_Penalty_Neutral>  (304) 
0.000339412

>  <r_epik_State_Penalty>  (304) 
0.0426168

>  <r_epik_Charging_Adjusted_Penalty>  (304) 
0.0925488

>  <i_epik_Tot_Q>  (304) 
-1

>  <i_epik_Tot_abs_Q>  (304) 
1

>  <s_lp_Force_Field>  (304) 
OPLS3e

>  <r_lp_Energy>  (304) 
18.4667

>  <b_lp_Chiralities_Consistent>  (304) 
1

>  <s_lp_Variant>  (304) 
73:0-1

>  <s_i_glide_gridfile>  (304) 
pfpi4k_grid

>  <i_i_glide_lignum>  (304) 
6

>  <i_i_glide_rotatable_bonds>  (304) 
6

>  <r_i_docking_score>  (304) 
-3.55559

>  <r_i_glide_ligand_efficiency>  (304) 
-0.14815

>  <r_i_glide_ligand_efficiency_sa>  (304) 
-0.427338

>  <r_i_glide_ligand_efficiency_ln>  (304) 
-0.851016

>  <r_i_glide_gscore>  (304) 
-3.55559

>  <r_i_glide_lipo>  (304) 
-0.345835

>  <r_i_glide_hbond>  (304) 
-0.333103

>  <r_i_glide_metal>  (304) 
-0

>  <r_i_glide_rewards>  (304) 
-1.06112

>  <r_i_glide_evdw>  (304) 
-26.849

>  <r_i_glide_ecoul>  (304) 
-5.95576

>  <r_i_glide_erotb>  (304) 
0.640409

>  <r_i_glide_esite>  (304) 
-0.220133

>  <r_i_glide_emodel>  (304) 
-38.916

>  <r_i_glide_energy>  (304) 
-32.8047

>  <r_i_glide_einternal>  (304) 
5.10083

>  <r_i_glide_intrahb_reward>  (304) 
-0

>  <i_i_glide_confnum>  (304) 
3

>  <i_i_glide_posenum>  (304) 
15

>  <r_i_glide_eff_state_penalty>  (304) 
0

>  <ligand_id>  (304) 
73

>  <original_smiles>  (304) 
O=CC(Cc1ccccc1)NC(=O)C1SCC(n2ncnn2)C1=O

>  <smiles>  (304) 
[H]C(=O)C([H])(N([H])C([O-])=C1SC([H])([H])C([H])(n2nnc([H])n2)C1=O)C([H])([H])c1c([H])c([H])c([H])c([H])c1[H]

$$$$
73:0:1
     RDKit          3D

 38 40  0  0  1  0  0  0  0  0999 V2000
    5.8378   -1.4652   -1.5635 O   0  0  0  0  0  0  0  0  0  0  0  0
    4.6666   -1.8145   -1.4283 C   0  0  0  0  0  0  0  0  0  0  0  0
    3.9296   -1.8677   -0.0822 C   0  0  2  0  0  0  0  0  0  0  0  0
    4.5612   -0.8909    0.9327 C   0  0  0  0  0  0  0  0  0  0  0  0
    3.6895   -0.4632    2.1013 C   0  0  0  0  0  0  0  0  0  0  0  0
    4.1970   -0.5385    3.4142 C   0  0  0  0  0  0  0  0  0  0  0  0
    3.4230   -0.0780    4.4968 C   0  0  0  0  0  0  0  0  0  0  0  0
    2.1409    0.4583    4.2697 C   0  0  0  0  0  0  0  0  0  0  0  0
    1.6327    0.5402    2.9591 C   0  0  0  0  0  0  0  0  0  0  0  0
    2.4075    0.0833    1.8761 C   0  0  0  0  0  0  0  0  0  0  0  0
    3.8447   -3.2332    0.4368 N   0  0  0  0  0  0  0  0  0  0  0  0
    2.8468   -4.1522    0.1177 C   0  0  0  0  0  0  0  0  0  0  0  0
    2.2089   -3.8462   -0.9100 O   0  0  0  0  0  0  0  0  0  0  0  0
    2.7411   -5.2200    0.9981 C   0  0  0  0  0  0  0  0  0  0  0  0
    3.8460   -5.5376    2.3230 S   0  0  0  0  0  0  0  0  0  0  0  0
    3.2893   -7.2516    2.5068 C   0  0  0  0  0  0  0  0  0  0  0  0
    1.8227   -7.3269    2.0064 C   0  0  1  0  0  0  0  0  0  0  0  0
    0.8371   -7.1669    3.0738 N   0  0  0  0  0  0  0  0  0  0  0  0
    1.1217   -6.6908    4.3048 N   0  0  0  0  0  0  0  0  0  0  0  0
   -0.0860   -6.6700    4.8366 C   0  0  0  0  0  0  0  0  0  0  0  0
   -1.0763   -7.0624    3.9816 N   0  0  0  0  0  0  0  0  0  0  0  0
   -0.4846   -7.3837    2.8761 N   0  0  0  0  0  0  0  0  0  0  0  0
    1.7055   -6.2546    0.9223 C   0  0  0  0  0  0  0  0  0  0  0  0
    0.7596   -6.2583    0.1326 O   0  0  0  0  0  0  0  0  0  0  0  0
    4.0399   -2.0997   -2.2729 H   0  0  0  0  0  0  0  0  0  0  0  0
    2.9106   -1.5375   -0.2743 H   0  0  0  0  0  0  0  0  0  0  0  0
    5.4960   -1.3203    1.2969 H   0  0  0  0  0  0  0  0  0  0  0  0
    4.8345    0.0341    0.4229 H   0  0  0  0  0  0  0  0  0  0  0  0
    5.1854   -0.9372    3.5912 H   0  0  0  0  0  0  0  0  0  0  0  0
    3.8211   -0.1297    5.4983 H   0  0  0  0  0  0  0  0  0  0  0  0
    1.5512    0.8181    5.0993 H   0  0  0  0  0  0  0  0  0  0  0  0
    0.6552    0.9603    2.7747 H   0  0  0  0  0  0  0  0  0  0  0  0
    2.0114    0.1609    0.8740 H   0  0  0  0  0  0  0  0  0  0  0  0
    4.4807   -3.4106    1.1977 H   0  0  0  0  0  0  0  0  0  0  0  0
    3.9113   -7.8454    1.8398 H   0  0  0  0  0  0  0  0  0  0  0  0
    3.4428   -7.6545    3.5091 H   0  0  0  0  0  0  0  0  0  0  0  0
    1.6416   -8.3039    1.5505 H   0  0  0  0  0  0  0  0  0  0  0  0
   -0.2712   -6.3341    5.8493 H   0  0  0  0  0  0  0  0  0  0  0  0
  1  2  2  0
  2  3  1  0
  2 25  1  0
  3  4  1  0
  3 11  1  0
  3 26  1  6
  4  5  1  0
  4 27  1  0
  4 28  1  0
  5 10  1  0
  5  6  2  0
  6  7  1  0
  6 29  1  0
  7  8  2  0
  7 30  1  0
  8  9  1  0
  8 31  1  0
  9 10  2  0
  9 32  1  0
 10 33  1  0
 11 12  1  0
 11 34  1  0
 12 13  1  0
 12 14  2  0
 14 23  1  0
 14 15  1  0
 15 16  1  0
 16 17  1  0
 16 35  1  0
 16 36  1  0
 17 18  1  0
 17 23  1  0
 17 37  1  6
 18 22  1  0
 18 19  1  0
 19 20  2  0
 20 21  1  0
 20 38  1  0
 21 22  2  0
 23 24  2  0
M  CHG  1  13  -1
M  END
>  <i_m_ct_stereo_status>  (305) 
1

>  <s_m_source_file>  (305) 
/var/tmp/pbs.5102103.sched01/tmphafng327/110q8crsuru.sdf

>  <i_m_source_file_index>  (305) 
6

>  <i_lp_mmshare_version>  (305) 
48012

>  <i_f3d_flags>  (305) 
0

>  <s_epik_input>  (305) 
W2NIXTFbY0hdW2NIXVtjSF1bY0hdYzFbQ0gyXVtDQEBIXShbQ0hdPU8pW05IXUMoPU8pW0NAQEhdMlNbQ0gyXVtDQEhdKEMyPU8pbjNuW2NIXW5uMw==

>  <s_epik_cmdline>  (305) 
J2VwaWtfcHl0aG9uJywgJy1waHQnLCAnMi4wJywgJy1waCcsICc3LjAnLCAnLXRuJywgJzgnLCAnLW1hJywgJzIwMCcsICctaW1hZScsICc8aW5maWxlLm1hZT4nLCAnLW9tYWUnLCAnPG91dGZpbGUubWFlPic=

>  <r_lp_tautomer_probability>  (305) 
0.9999

>  <r_epik_Ionization_Penalty>  (305) 
0.0502714

>  <r_epik_Ionization_Penalty_Charging>  (305) 
0.049932

>  <r_epik_Ionization_Penalty_Neutral>  (305) 
0.000339412

>  <r_epik_State_Penalty>  (305) 
0.0426168

>  <r_epik_Charging_Adjusted_Penalty>  (305) 
0.0925488

>  <i_epik_Tot_Q>  (305) 
-1

>  <i_epik_Tot_abs_Q>  (305) 
1

>  <s_lp_Force_Field>  (305) 
OPLS3e

>  <r_lp_Energy>  (305) 
18.4667

>  <b_lp_Chiralities_Consistent>  (305) 
1

>  <s_lp_Variant>  (305) 
73:0-1

>  <s_i_glide_gridfile>  (305) 
pfpi4k_grid

>  <i_i_glide_lignum>  (305) 
6

>  <i_i_glide_rotatable_bonds>  (305) 
6

>  <r_i_docking_score>  (305) 
-3.54445

>  <r_i_glide_ligand_efficiency>  (305) 
-0.147686

>  <r_i_glide_ligand_efficiency_sa>  (305) 
-0.425999

>  <r_i_glide_ligand_efficiency_ln>  (305) 
-0.84835

>  <r_i_glide_gscore>  (305) 
-3.54445

>  <r_i_glide_lipo>  (305) 
-0.12547

>  <r_i_glide_hbond>  (305) 
-0.475951

>  <r_i_glide_metal>  (305) 
-0

>  <r_i_glide_rewards>  (305) 
-1.06112

>  <r_i_glide_evdw>  (305) 
-26.1546

>  <r_i_glide_ecoul>  (305) 
-6.22332

>  <r_i_glide_erotb>  (305) 
0.640409

>  <r_i_glide_esite>  (305) 
-0.281093

>  <r_i_glide_emodel>  (305) 
-38.4751

>  <r_i_glide_energy>  (305) 
-32.3779

>  <r_i_glide_einternal>  (305) 
5.28966

>  <r_i_glide_intrahb_reward>  (305) 
-0

>  <i_i_glide_confnum>  (305) 
3

>  <i_i_glide_posenum>  (305) 
4

>  <r_i_glide_eff_state_penalty>  (305) 
0

>  <ligand_id>  (305) 
73

>  <original_smiles>  (305) 
O=CC(Cc1ccccc1)NC(=O)C1SCC(n2ncnn2)C1=O

>  <smiles>  (305) 
[H]C(=O)C([H])(N([H])C([O-])=C1SC([H])([H])C([H])(n2nnc([H])n2)C1=O)C([H])([H])c1c([H])c([H])c([H])c([H])c1[H]

$$$$
73:0:2
     RDKit          3D

 38 40  0  0  1  0  0  0  0  0999 V2000
    8.9880   -3.8932    0.1147 O   0  0  0  0  0  0  0  0  0  0  0  0
    7.8718   -4.2551    0.4935 C   0  0  0  0  0  0  0  0  0  0  0  0
    6.5309   -3.6912   -0.0107 C   0  0  2  0  0  0  0  0  0  0  0  0
    6.7218   -2.8814   -1.3055 C   0  0  0  0  0  0  0  0  0  0  0  0
    5.4606   -2.5147   -2.0683 C   0  0  0  0  0  0  0  0  0  0  0  0
    4.9322   -1.2089   -1.9873 C   0  0  0  0  0  0  0  0  0  0  0  0
    3.8196   -0.8508   -2.7708 C   0  0  0  0  0  0  0  0  0  0  0  0
    3.2060   -1.7976   -3.6126 C   0  0  0  0  0  0  0  0  0  0  0  0
    3.7167   -3.1065   -3.6795 C   0  0  0  0  0  0  0  0  0  0  0  0
    4.8418   -3.4597   -2.9139 C   0  0  0  0  0  0  0  0  0  0  0  0
    5.8490   -2.9055    1.0229 N   0  0  0  0  0  0  0  0  0  0  0  0
    4.6159   -3.1849    1.6085 C   0  0  0  0  0  0  0  0  0  0  0  0
    4.1932   -4.3290    1.3317 O   0  0  0  0  0  0  0  0  0  0  0  0
    4.0931   -2.1587    2.3797 C   0  0  0  0  0  0  0  0  0  0  0  0
    4.9582   -0.6724    2.7703 S   0  0  0  0  0  0  0  0  0  0  0  0
    3.7966   -0.2259    4.0951 C   0  0  0  0  0  0  0  0  0  0  0  0
    2.4448   -0.9079    3.7938 C   0  0  1  0  0  0  0  0  0  0  0  0
    1.5073   -0.0237    3.1157 N   0  0  0  0  0  0  0  0  0  0  0  0
    1.8157    0.7168    2.0323 N   0  0  0  0  0  0  0  0  0  0  0  0
    0.6218    1.2084    1.7404 C   0  0  0  0  0  0  0  0  0  0  0  0
   -0.3593    0.8263    2.6098 N   0  0  0  0  0  0  0  0  0  0  0  0
    0.1993    0.0341    3.4715 N   0  0  0  0  0  0  0  0  0  0  0  0
    2.7708   -2.1823    3.0206 C   0  0  0  0  0  0  0  0  0  0  0  0
    1.9417   -3.0894    2.9455 O   0  0  0  0  0  0  0  0  0  0  0  0
    7.7440   -5.0503    1.2262 H   0  0  0  0  0  0  0  0  0  0  0  0
    5.9265   -4.5583   -0.2681 H   0  0  0  0  0  0  0  0  0  0  0  0
    7.2759   -1.9774   -1.0568 H   0  0  0  0  0  0  0  0  0  0  0  0
    7.3502   -3.4532   -1.9933 H   0  0  0  0  0  0  0  0  0  0  0  0
    5.3932   -0.4804   -1.3398 H   0  0  0  0  0  0  0  0  0  0  0  0
    3.4248    0.1479   -2.7212 H   0  0  0  0  0  0  0  0  0  0  0  0
    2.3415   -1.5204   -4.1972 H   0  0  0  0  0  0  0  0  0  0  0  0
    3.2389   -3.8432   -4.3080 H   0  0  0  0  0  0  0  0  0  0  0  0
    5.2299   -4.4657   -2.9728 H   0  0  0  0  0  0  0  0  0  0  0  0
    6.2996   -2.0215    1.1995 H   0  0  0  0  0  0  0  0  0  0  0  0
    4.1998   -0.6792    5.0019 H   0  0  0  0  0  0  0  0  0  0  0  0
    3.7192    0.8460    4.2870 H   0  0  0  0  0  0  0  0  0  0  0  0
    1.9812   -1.2138    4.7309 H   0  0  0  0  0  0  0  0  0  0  0  0
    0.4427    1.8514    0.8886 H   0  0  0  0  0  0  0  0  0  0  0  0
  1  2  2  0
  2  3  1  0
  2 25  1  0
  3  4  1  0
  3 11  1  0
  3 26  1  6
  4  5  1  0
  4 27  1  0
  4 28  1  0
  5 10  1  0
  5  6  2  0
  6  7  1  0
  6 29  1  0
  7  8  2  0
  7 30  1  0
  8  9  1  0
  8 31  1  0
  9 10  2  0
  9 32  1  0
 10 33  1  0
 11 12  1  0
 11 34  1  0
 12 13  1  0
 12 14  2  0
 14 23  1  0
 14 15  1  0
 15 16  1  0
 16 17  1  0
 16 35  1  0
 16 36  1  0
 17 18  1  0
 17 23  1  0
 17 37  1  1
 18 22  1  0
 18 19  1  0
 19 20  2  0
 20 21  1  0
 20 38  1  0
 21 22  2  0
 23 24  2  0
M  CHG  1  13  -1
M  END
>  <i_m_ct_stereo_status>  (306) 
1

>  <s_m_source_file>  (306) 
/var/tmp/pbs.5102103.sched01/tmphafng327/110q8crsuru.sdf

>  <i_m_source_file_index>  (306) 
6

>  <i_lp_mmshare_version>  (306) 
48012

>  <i_f3d_flags>  (306) 
0

>  <s_epik_input>  (306) 
W2NIXTFbY0hdW2NIXVtjSF1bY0hdYzFbQ0gyXVtDQEBIXShbQ0hdPU8pW05IXUMoPU8pW0NAQEhdMlNbQ0gyXVtDQEhdKEMyPU8pbjNuW2NIXW5uMw==

>  <s_epik_cmdline>  (306) 
J2VwaWtfcHl0aG9uJywgJy1waHQnLCAnMi4wJywgJy1waCcsICc3LjAnLCAnLXRuJywgJzgnLCAnLW1hJywgJzIwMCcsICctaW1hZScsICc8aW5maWxlLm1hZT4nLCAnLW9tYWUnLCAnPG91dGZpbGUubWFlPic=

>  <r_lp_tautomer_probability>  (306) 
0.9999

>  <r_epik_Ionization_Penalty>  (306) 
0.0502714

>  <r_epik_Ionization_Penalty_Charging>  (306) 
0.049932

>  <r_epik_Ionization_Penalty_Neutral>  (306) 
0.000339412

>  <r_epik_State_Penalty>  (306) 
0.0426168

>  <r_epik_Charging_Adjusted_Penalty>  (306) 
0.0925488

>  <i_epik_Tot_Q>  (306) 
-1

>  <i_epik_Tot_abs_Q>  (306) 
1

>  <s_lp_Force_Field>  (306) 
OPLS3e

>  <r_lp_Energy>  (306) 
18.4667

>  <b_lp_Chiralities_Consistent>  (306) 
1

>  <s_lp_Variant>  (306) 
73:0-1

>  <s_i_glide_gridfile>  (306) 
pfpi4k_grid

>  <i_i_glide_lignum>  (306) 
6

>  <i_i_glide_rotatable_bonds>  (306) 
6

>  <r_i_docking_score>  (306) 
-3.35532

>  <r_i_glide_ligand_efficiency>  (306) 
-0.139805

>  <r_i_glide_ligand_efficiency_sa>  (306) 
-0.403267

>  <r_i_glide_ligand_efficiency_ln>  (306) 
-0.803081

>  <r_i_glide_gscore>  (306) 
-3.35532

>  <r_i_glide_lipo>  (306) 
-0.838225

>  <r_i_glide_hbond>  (306) 
-0.084664

>  <r_i_glide_metal>  (306) 
-0

>  <r_i_glide_rewards>  (306) 
-1.29853

>  <r_i_glide_evdw>  (306) 
-33.6098

>  <r_i_glide_ecoul>  (306) 
0.477433

>  <r_i_glide_erotb>  (306) 
0.640409

>  <r_i_glide_esite>  (306) 
-0.165427

>  <r_i_glide_emodel>  (306) 
-39.3787

>  <r_i_glide_energy>  (306) 
-33.1324

>  <r_i_glide_einternal>  (306) 
3.82497

>  <r_i_glide_intrahb_reward>  (306) 
-0

>  <i_i_glide_confnum>  (306) 
3

>  <i_i_glide_posenum>  (306) 
2

>  <r_i_glide_eff_state_penalty>  (306) 
0

>  <ligand_id>  (306) 
73

>  <original_smiles>  (306) 
O=CC(Cc1ccccc1)NC(=O)C1SCC(n2ncnn2)C1=O

>  <smiles>  (306) 
[H]C(=O)C([H])(N([H])C([O-])=C1SC([H])([H])C([H])(n2nnc([H])n2)C1=O)C([H])([H])c1c([H])c([H])c([H])c([H])c1[H]

$$$$
73:1:0
     RDKit          3D

 39 41  0  0  1  0  0  0  0  0999 V2000
   -0.3388    4.7134    5.2642 O   0  0  0  0  0  0  0  0  0  0  0  0
    0.4089    3.9810    4.6153 C   0  0  0  0  0  0  0  0  0  0  0  0
   -0.0269    2.9141    3.5853 C   0  0  2  0  0  0  0  0  0  0  0  0
   -1.5307    2.5581    3.5671 C   0  0  0  0  0  0  0  0  0  0  0  0
   -2.4858    3.5859    2.9562 C   0  0  0  0  0  0  0  0  0  0  0  0
   -2.0761    4.8974    2.6265 C   0  0  0  0  0  0  0  0  0  0  0  0
   -2.9878    5.8065    2.0590 C   0  0  0  0  0  0  0  0  0  0  0  0
   -4.3055    5.4244    1.7627 C   0  0  0  0  0  0  0  0  0  0  0  0
   -4.7133    4.1202    2.0724 C   0  0  0  0  0  0  0  0  0  0  0  0
   -3.8075    3.2154    2.6644 C   0  0  0  0  0  0  0  0  0  0  0  0
    0.7727    1.7260    3.8153 N   0  0  0  0  0  0  0  0  0  0  0  0
    1.4151    1.0575    2.8528 C   0  0  0  0  0  0  0  0  0  0  0  0
    1.3185    1.3255    1.6592 O   0  0  0  0  0  0  0  0  0  0  0  0
    2.3454   -0.0504    3.3212 C   0  0  2  0  0  0  0  0  0  0  0  0
    3.8311   -0.1733    2.2928 S   0  0  0  0  0  0  0  0  0  0  0  0
    3.2505   -1.6800    1.4797 C   0  0  0  0  0  0  0  0  0  0  0  0
    2.3620   -2.4518    2.4632 C   0  0  1  0  0  0  0  0  0  0  0  0
    3.1149   -3.3211    3.3530 N   0  0  0  0  0  0  0  0  0  0  0  0
    2.6641   -4.5068    3.7937 N   0  0  0  0  0  0  0  0  0  0  0  0
    3.5666   -4.7901    4.7030 C   0  0  0  0  0  0  0  0  0  0  0  0
    4.5386   -3.8219    4.8312 N   0  0  0  0  0  0  0  0  0  0  0  0
    4.2532   -2.9096    3.9738 N   0  0  0  0  0  0  0  0  0  0  0  0
    1.6135   -1.3787    3.2204 C   0  0  0  0  0  0  0  0  0  0  0  0
    0.5139   -1.5759    3.7552 O   0  0  0  0  0  0  0  0  0  0  0  0
    1.4935    4.0233    4.7297 H   0  0  0  0  0  0  0  0  0  0  0  0
    0.2346    3.2625    2.5892 H   0  0  0  0  0  0  0  0  0  0  0  0
   -1.6403    1.6109    3.0230 H   0  0  0  0  0  0  0  0  0  0  0  0
   -1.8321    2.3153    4.5882 H   0  0  0  0  0  0  0  0  0  0  0  0
   -1.0711    5.2592    2.7316 H   0  0  0  0  0  0  0  0  0  0  0  0
   -2.5836    6.7583    1.7748 H   0  0  0  0  0  0  0  0  0  0  0  0
   -4.9683    6.1279    1.2620 H   0  0  0  0  0  0  0  0  0  0  0  0
   -5.7158    3.7929    1.8571 H   0  0  0  0  0  0  0  0  0  0  0  0
   -4.1272    2.2183    2.9187 H   0  0  0  0  0  0  0  0  0  0  0  0
    0.9421    1.4636    4.7744 H   0  0  0  0  0  0  0  0  0  0  0  0
    2.6338    0.0770    4.3633 H   0  0  0  0  0  0  0  0  0  0  0  0
    2.6449   -1.3633    0.6285 H   0  0  0  0  0  0  0  0  0  0  0  0
    4.0745   -2.2798    1.0979 H   0  0  0  0  0  0  0  0  0  0  0  0
    1.6593   -3.0726    1.9026 H   0  0  0  0  0  0  0  0  0  0  0  0
    3.5593   -5.6821    5.3239 H   0  0  0  0  0  0  0  0  0  0  0  0
  1  2  2  0
  2  3  1  0
  2 25  1  0
  3  4  1  0
  3 11  1  0
  3 26  1  6
  4  5  1  0
  4 27  1  0
  4 28  1  0
  5 10  1  0
  5  6  2  0
  6  7  1  0
  6 29  1  0
  7  8  2  0
  7 30  1  0
  8  9  1  0
  8 31  1  0
  9 10  2  0
  9 32  1  0
 10 33  1  0
 11 12  1  0
 11 34  1  0
 12 13  2  0
 12 14  1  0
 14 23  1  0
 14 15  1  0
 14 35  1  1
 15 16  1  0
 16 17  1  0
 16 36  1  0
 16 37  1  0
 17 18  1  0
 17 23  1  0
 17 38  1  6
 18 22  1  0
 18 19  1  0
 19 20  2  0
 20 21  1  0
 20 39  1  0
 21 22  2  0
 23 24  2  0
M  END
>  <i_m_ct_stereo_status>  (307) 
1

>  <s_m_source_file>  (307) 
/var/tmp/pbs.5102103.sched01/tmphafng327/110q8crsuru.sdf

>  <i_m_source_file_index>  (307) 
7

>  <i_lp_mmshare_version>  (307) 
48012

>  <i_f3d_flags>  (307) 
0

>  <s_epik_input>  (307) 
W2NIXTFbY0hdW2NIXVtjSF1bY0hdYzFbQ0gyXVtDQEBIXShbQ0hdPU8pW05IXUMoPU8pW0NAQEhdMlNbQ0gyXVtDQEhdKEMyPU8pbjNuW2NIXW5uMw==

>  <s_epik_cmdline>  (307) 
J2VwaWtfcHl0aG9uJywgJy1waHQnLCAnMi4wJywgJy1waCcsICc3LjAnLCAnLXRuJywgJzgnLCAnLW1hJywgJzIwMCcsICctaW1hZScsICc8aW5maWxlLm1hZT4nLCAnLW9tYWUnLCAnPG91dGZpbGUubWFlPic=

>  <r_lp_tautomer_probability>  (307) 
0.9999

>  <r_epik_Ionization_Penalty>  (307) 
1.49288

>  <r_epik_Ionization_Penalty_Charging>  (307) 
0

>  <r_epik_Ionization_Penalty_Neutral>  (307) 
1.49288

>  <r_epik_State_Penalty>  (307) 
1.58065

>  <r_epik_Charging_Adjusted_Penalty>  (307) 
1.58065

>  <i_epik_Tot_Q>  (307) 
0

>  <i_epik_Tot_abs_Q>  (307) 
0

>  <s_lp_Force_Field>  (307) 
OPLS3e

>  <r_lp_Energy>  (307) 
23.0059

>  <b_lp_Chiralities_Consistent>  (307) 
1

>  <s_lp_Variant>  (307) 
73:0-2

>  <s_i_glide_gridfile>  (307) 
pfpi4k_grid

>  <i_i_glide_lignum>  (307) 
7

>  <i_i_glide_rotatable_bonds>  (307) 
7

>  <r_i_docking_score>  (307) 
-1.90791

>  <r_i_glide_ligand_efficiency>  (307) 
-0.0794961

>  <r_i_glide_ligand_efficiency_sa>  (307) 
-0.229306

>  <r_i_glide_ligand_efficiency_ln>  (307) 
-0.45665

>  <r_i_glide_gscore>  (307) 
-1.90791

>  <r_i_glide_lipo>  (307) 
-0.234043

>  <r_i_glide_hbond>  (307) 
0

>  <r_i_glide_metal>  (307) 
-0

>  <r_i_glide_rewards>  (307) 
-1.05425

>  <r_i_glide_evdw>  (307) 
-11.4071

>  <r_i_glide_ecoul>  (307) 
-5.10365

>  <r_i_glide_erotb>  (307) 
0.796369

>  <r_i_glide_esite>  (307) 
-0.0800843

>  <r_i_glide_emodel>  (307) 
-16.3854

>  <r_i_glide_energy>  (307) 
-16.5107

>  <r_i_glide_einternal>  (307) 
2.66828

>  <r_i_glide_intrahb_reward>  (307) 
-0

>  <i_i_glide_confnum>  (307) 
2

>  <i_i_glide_posenum>  (307) 
1

>  <r_i_glide_eff_state_penalty>  (307) 
0

>  <ligand_id>  (307) 
73

>  <original_smiles>  (307) 
O=CC(Cc1ccccc1)NC(=O)C1SCC(n2ncnn2)C1=O

>  <smiles>  (307) 
[H]C(=O)C([H])(N([H])C(=O)C1([H])SC([H])([H])C([H])(n2nnc([H])n2)C1=O)C([H])([H])c1c([H])c([H])c([H])c([H])c1[H]

$$$$
74:0:0
     RDKit          3D

 21 22  0  0  1  0  0  0  0  0999 V2000
    0.5974   -7.7423    1.9118 C   0  0  0  0  0  0  0  0  0  0  0  0
    1.6391   -6.8012    1.4304 C   0  0  0  0  0  0  0  0  0  0  0  0
    1.4063   -5.8676    0.4983 N   0  0  0  0  0  0  0  0  0  0  0  0
    2.5454   -5.1040    0.2140 C   0  0  0  0  0  0  0  0  0  0  0  0
    3.6435   -5.4459    0.9681 C   0  0  0  0  0  0  0  0  0  0  0  0
    5.2586   -4.7079    0.8523 S   0  0  0  0  0  0  0  0  0  0  0  0
    5.1877   -3.5553    1.7576 O   0  0  0  0  0  0  0  0  0  0  0  0
    6.1691   -5.7973    1.2567 O   0  0  0  0  0  0  0  0  0  0  0  0
    5.5136   -4.3115   -0.7010 N   0  0  0  0  0  0  0  0  0  0  0  0
    4.9044   -3.3121   -1.3701 C   0  0  0  0  0  0  0  0  0  0  0  0
    4.1361   -2.3874   -0.7866 N   0  0  0  0  0  0  0  0  0  0  0  0
    3.6018   -1.4461   -1.6575 C   0  0  0  0  0  0  0  0  0  0  0  0
    4.0140   -1.6480   -2.9435 C   0  0  0  0  0  0  0  0  0  0  0  0
    3.6822   -0.7172   -4.3415 Cl  0  0  0  0  0  0  0  0  0  0  0  0
    5.0139   -3.0598   -3.1198 S   0  0  0  0  0  0  0  0  0  0  0  0
    3.3047   -6.7909    2.0229 S   0  0  0  0  0  0  0  0  0  0  0  0
   -0.3446   -7.5293    1.4106 H   0  0  0  0  0  0  0  0  0  0  0  0
    0.4708   -7.6258    2.9866 H   0  0  0  0  0  0  0  0  0  0  0  0
    0.8955   -8.7658    1.6906 H   0  0  0  0  0  0  0  0  0  0  0  0
    2.4776   -4.3526   -0.5589 H   0  0  0  0  0  0  0  0  0  0  0  0
    2.9666   -0.6678   -1.2597 H   0  0  0  0  0  0  0  0  0  0  0  0
  1  2  1  0
  1 17  1  0
  1 18  1  0
  1 19  1  0
  2 16  1  0
  2  3  2  0
  3  4  1  0
  4  5  2  0
  4 20  1  0
  5  6  1  0
  5 16  1  0
  6  7  2  0
  6  8  2  0
  6  9  1  0
  9 10  1  0
 10 15  1  0
 10 11  2  0
 11 12  1  0
 12 13  2  0
 12 21  1  0
 13 14  1  0
 13 15  1  0
M  CHG  1   9  -1
M  END
>  <i_m_ct_stereo_status>  (308) 
1

>  <s_m_source_file>  (308) 
/var/tmp/pbs.5102103.sched01/tmphafng327/110q8crsuru.sdf

>  <i_m_source_file_index>  (308) 
8

>  <i_lp_mmshare_version>  (308) 
48012

>  <i_f3d_flags>  (308) 
0

>  <s_epik_input>  (308) 
W0NIM11jMW5bY0hdYyhzMSlTKD1PKSg9TykvTj1jMlxbbkhdW2NIXWMoQ2wpczI=

>  <s_epik_cmdline>  (308) 
J2VwaWtfcHl0aG9uJywgJy1waHQnLCAnMi4wJywgJy1waCcsICc3LjAnLCAnLXRuJywgJzgnLCAnLW1hJywgJzIwMCcsICctaW1hZScsICc8aW5maWxlLm1hZT4nLCAnLW9tYWUnLCAnPG91dGZpbGUubWFlPic=

>  <r_epik_Ionization_Penalty>  (308) 
0.00495755

>  <r_epik_Ionization_Penalty_Charging>  (308) 
0.000864691

>  <r_epik_Ionization_Penalty_Neutral>  (308) 
0.00409286

>  <r_epik_State_Penalty>  (308) 
0.00340436

>  <r_epik_Charging_Adjusted_Penalty>  (308) 
0.00426905

>  <i_epik_Tot_Q>  (308) 
-1

>  <i_epik_Tot_abs_Q>  (308) 
1

>  <s_lp_Force_Field>  (308) 
OPLS3e

>  <r_lp_Energy>  (308) 
8.19187

>  <b_lp_Chiralities_Consistent>  (308) 
1

>  <s_lp_Variant>  (308) 
74:0-1

>  <s_i_glide_gridfile>  (308) 
pfpi4k_grid

>  <i_i_glide_lignum>  (308) 
8

>  <i_i_glide_rotatable_bonds>  (308) 
3

>  <r_i_docking_score>  (308) 
-3.39013

>  <r_i_glide_ligand_efficiency>  (308) 
-0.211883

>  <r_i_glide_ligand_efficiency_sa>  (308) 
-0.533912

>  <r_i_glide_ligand_efficiency_ln>  (308) 
-0.898622

>  <r_i_glide_gscore>  (308) 
-3.39013

>  <r_i_glide_lipo>  (308) 
-0.456807

>  <r_i_glide_hbond>  (308) 
-0.157283

>  <r_i_glide_metal>  (308) 
-0

>  <r_i_glide_rewards>  (308) 
-1.48167

>  <r_i_glide_evdw>  (308) 
-25.6922

>  <r_i_glide_ecoul>  (308) 
-4.27556

>  <r_i_glide_erotb>  (308) 
0.631573

>  <r_i_glide_esite>  (308) 
0

>  <r_i_glide_emodel>  (308) 
-37.7047

>  <r_i_glide_energy>  (308) 
-29.9678

>  <r_i_glide_einternal>  (308) 
0.0319538

>  <r_i_glide_intrahb_reward>  (308) 
-0

>  <i_i_glide_confnum>  (308) 
3

>  <i_i_glide_posenum>  (308) 
17

>  <r_i_glide_eff_state_penalty>  (308) 
0

>  <ligand_id>  (308) 
74

>  <original_smiles>  (308) 
Cc1ncc(S(=O)(=O)N=c2[nH]cc(Cl)s2)s1

>  <smiles>  (308) 
[H]c1nc([N-]S(=O)(=O)c2sc(C([H])([H])[H])nc2[H])sc1Cl

$$$$
74:0:1
     RDKit          3D

 21 22  0  0  1  0  0  0  0  0999 V2000
   -0.0885   -8.0231    2.0095 C   0  0  0  0  0  0  0  0  0  0  0  0
    1.0605   -7.1628    1.7132 C   0  0  0  0  0  0  0  0  0  0  0  0
    0.9905   -6.3375    0.6976 N   0  0  0  0  0  0  0  0  0  0  0  0
    2.1713   -5.6648    0.5347 C   0  0  0  0  0  0  0  0  0  0  0  0
    3.1332   -5.8644    1.5146 C   0  0  0  0  0  0  0  0  0  0  0  0
    4.7657   -5.1058    1.6204 S   0  0  0  0  0  0  0  0  0  0  0  0
    4.5504   -3.8613    2.3561 O   0  0  0  0  0  0  0  0  0  0  0  0
    5.6123   -6.1258    2.2778 O   0  0  0  0  0  0  0  0  0  0  0  0
    5.2653   -4.8414    0.0947 N   0  0  0  0  0  0  0  0  0  0  0  0
    4.6750   -3.9659   -0.7482 C   0  0  0  0  0  0  0  0  0  0  0  0
    3.4851   -3.4003   -0.5790 N   0  0  0  0  0  0  0  0  0  0  0  0
    2.9156   -2.8955   -1.7333 C   0  0  0  0  0  0  0  0  0  0  0  0
    3.9095   -2.6115   -2.6382 C   0  0  0  0  0  0  0  0  0  0  0  0
    3.8223   -1.6267   -4.0256 Cl  0  0  0  0  0  0  0  0  0  0  0  0
    5.4301   -3.3511   -2.2177 S   0  0  0  0  0  0  0  0  0  0  0  0
    2.5830   -7.0963    2.6207 S   0  0  0  0  0  0  0  0  0  0  0  0
   -0.9030   -7.8327    1.3013 H   0  0  0  0  0  0  0  0  0  0  0  0
   -0.4228   -7.8052    3.0159 H   0  0  0  0  0  0  0  0  0  0  0  0
    0.2279   -9.0558    1.9168 H   0  0  0  0  0  0  0  0  0  0  0  0
    2.0940   -5.0950   -0.3498 H   0  0  0  0  0  0  0  0  0  0  0  0
    1.8554   -2.6521   -1.7827 H   0  0  0  0  0  0  0  0  0  0  0  0
  1  2  1  0
  1 17  1  0
  1 18  1  0
  1 19  1  0
  2 16  1  0
  2  3  2  0
  3  4  1  0
  4  5  2  0
  4 20  1  0
  5  6  1  0
  5 16  1  0
  6  7  2  0
  6  8  2  0
  6  9  1  0
  9 10  1  0
 10 15  1  0
 10 11  2  0
 11 12  1  0
 12 13  2  0
 12 21  1  0
 13 14  1  0
 13 15  1  0
M  CHG  1   9  -1
M  END
>  <i_m_ct_stereo_status>  (309) 
1

>  <s_m_source_file>  (309) 
/var/tmp/pbs.5102103.sched01/tmphafng327/110q8crsuru.sdf

>  <i_m_source_file_index>  (309) 
8

>  <i_lp_mmshare_version>  (309) 
48012

>  <i_f3d_flags>  (309) 
0

>  <s_epik_input>  (309) 
W0NIM11jMW5bY0hdYyhzMSlTKD1PKSg9TykvTj1jMlxbbkhdW2NIXWMoQ2wpczI=

>  <s_epik_cmdline>  (309) 
J2VwaWtfcHl0aG9uJywgJy1waHQnLCAnMi4wJywgJy1waCcsICc3LjAnLCAnLXRuJywgJzgnLCAnLW1hJywgJzIwMCcsICctaW1hZScsICc8aW5maWxlLm1hZT4nLCAnLW9tYWUnLCAnPG91dGZpbGUubWFlPic=

>  <r_epik_Ionization_Penalty>  (309) 
0.00495755

>  <r_epik_Ionization_Penalty_Charging>  (309) 
0.000864691

>  <r_epik_Ionization_Penalty_Neutral>  (309) 
0.00409286

>  <r_epik_State_Penalty>  (309) 
0.00340436

>  <r_epik_Charging_Adjusted_Penalty>  (309) 
0.00426905

>  <i_epik_Tot_Q>  (309) 
-1

>  <i_epik_Tot_abs_Q>  (309) 
1

>  <s_lp_Force_Field>  (309) 
OPLS3e

>  <r_lp_Energy>  (309) 
8.19187

>  <b_lp_Chiralities_Consistent>  (309) 
1

>  <s_lp_Variant>  (309) 
74:0-1

>  <s_i_glide_gridfile>  (309) 
pfpi4k_grid

>  <i_i_glide_lignum>  (309) 
8

>  <i_i_glide_rotatable_bonds>  (309) 
3

>  <r_i_docking_score>  (309) 
-3.10308

>  <r_i_glide_ligand_efficiency>  (309) 
-0.193943

>  <r_i_glide_ligand_efficiency_sa>  (309) 
-0.488705

>  <r_i_glide_ligand_efficiency_ln>  (309) 
-0.822534

>  <r_i_glide_gscore>  (309) 
-3.10308

>  <r_i_glide_lipo>  (309) 
-0.270008

>  <r_i_glide_hbond>  (309) 
-0.16

>  <r_i_glide_metal>  (309) 
-0

>  <r_i_glide_rewards>  (309) 
-1.43861

>  <r_i_glide_evdw>  (309) 
-24.4175

>  <r_i_glide_ecoul>  (309) 
-4.3011

>  <r_i_glide_erotb>  (309) 
0.631573

>  <r_i_glide_esite>  (309) 
0

>  <r_i_glide_emodel>  (309) 
-31.8559

>  <r_i_glide_energy>  (309) 
-28.7186

>  <r_i_glide_einternal>  (309) 
1.4885

>  <r_i_glide_intrahb_reward>  (309) 
-0

>  <i_i_glide_confnum>  (309) 
3

>  <i_i_glide_posenum>  (309) 
30

>  <r_i_glide_eff_state_penalty>  (309) 
0

>  <ligand_id>  (309) 
74

>  <original_smiles>  (309) 
Cc1ncc(S(=O)(=O)N=c2[nH]cc(Cl)s2)s1

>  <smiles>  (309) 
[H]c1nc([N-]S(=O)(=O)c2sc(C([H])([H])[H])nc2[H])sc1Cl

$$$$
74:0:2
     RDKit          3D

 21 22  0  0  1  0  0  0  0  0999 V2000
    1.4178   -8.0874    1.6081 C   0  0  0  0  0  0  0  0  0  0  0  0
    2.2442   -6.8936    1.3052 C   0  0  0  0  0  0  0  0  0  0  0  0
    1.7715   -5.8283    0.6427 N   0  0  0  0  0  0  0  0  0  0  0  0
    2.7443   -4.8350    0.4671 C   0  0  0  0  0  0  0  0  0  0  0  0
    3.9714   -5.1630    1.0074 C   0  0  0  0  0  0  0  0  0  0  0  0
    5.4280   -4.1426    1.0094 S   0  0  0  0  0  0  0  0  0  0  0  0
    5.7270   -3.9936    2.4460 O   0  0  0  0  0  0  0  0  0  0  0  0
    6.4073   -4.9119    0.2247 O   0  0  0  0  0  0  0  0  0  0  0  0
    5.0602   -2.7124    0.3397 N   0  0  0  0  0  0  0  0  0  0  0  0
    4.7813   -2.5285   -0.9757 C   0  0  0  0  0  0  0  0  0  0  0  0
    4.8929   -3.4606   -1.9313 N   0  0  0  0  0  0  0  0  0  0  0  0
    4.5964   -3.0222   -3.2297 C   0  0  0  0  0  0  0  0  0  0  0  0
    4.2115   -1.7050   -3.2285 C   0  0  0  0  0  0  0  0  0  0  0  0
    3.7944   -0.6628   -4.5191 Cl  0  0  0  0  0  0  0  0  0  0  0  0
    4.2190   -1.0129   -1.6478 S   0  0  0  0  0  0  0  0  0  0  0  0
    3.9481   -6.7343    1.7520 S   0  0  0  0  0  0  0  0  0  0  0  0
    0.4069   -7.9124    1.2487 H   0  0  0  0  0  0  0  0  0  0  0  0
    1.3960   -8.2563    2.6827 H   0  0  0  0  0  0  0  0  0  0  0  0
    1.8356   -8.9555    1.1007 H   0  0  0  0  0  0  0  0  0  0  0  0
    2.4923   -3.9136   -0.0465 H   0  0  0  0  0  0  0  0  0  0  0  0
    4.7158   -3.6859   -4.0846 H   0  0  0  0  0  0  0  0  0  0  0  0
  1  2  1  0
  1 17  1  0
  1 18  1  0
  1 19  1  0
  2 16  1  0
  2  3  2  0
  3  4  1  0
  4  5  2  0
  4 20  1  0
  5  6  1  0
  5 16  1  0
  6  7  2  0
  6  8  2  0
  6  9  1  0
  9 10  1  0
 10 15  1  0
 10 11  2  0
 11 12  1  0
 12 13  2  0
 12 21  1  0
 13 14  1  0
 13 15  1  0
M  CHG  1   9  -1
M  END
>  <i_m_ct_stereo_status>  (310) 
1

>  <s_m_source_file>  (310) 
/var/tmp/pbs.5102103.sched01/tmphafng327/110q8crsuru.sdf

>  <i_m_source_file_index>  (310) 
8

>  <i_lp_mmshare_version>  (310) 
48012

>  <i_f3d_flags>  (310) 
0

>  <s_epik_input>  (310) 
W0NIM11jMW5bY0hdYyhzMSlTKD1PKSg9TykvTj1jMlxbbkhdW2NIXWMoQ2wpczI=

>  <s_epik_cmdline>  (310) 
J2VwaWtfcHl0aG9uJywgJy1waHQnLCAnMi4wJywgJy1waCcsICc3LjAnLCAnLXRuJywgJzgnLCAnLW1hJywgJzIwMCcsICctaW1hZScsICc8aW5maWxlLm1hZT4nLCAnLW9tYWUnLCAnPG91dGZpbGUubWFlPic=

>  <r_epik_Ionization_Penalty>  (310) 
0.00495755

>  <r_epik_Ionization_Penalty_Charging>  (310) 
0.000864691

>  <r_epik_Ionization_Penalty_Neutral>  (310) 
0.00409286

>  <r_epik_State_Penalty>  (310) 
0.00340436

>  <r_epik_Charging_Adjusted_Penalty>  (310) 
0.00426905

>  <i_epik_Tot_Q>  (310) 
-1

>  <i_epik_Tot_abs_Q>  (310) 
1

>  <s_lp_Force_Field>  (310) 
OPLS3e

>  <r_lp_Energy>  (310) 
8.19187

>  <b_lp_Chiralities_Consistent>  (310) 
1

>  <s_lp_Variant>  (310) 
74:0-1

>  <s_i_glide_gridfile>  (310) 
pfpi4k_grid

>  <i_i_glide_lignum>  (310) 
8

>  <i_i_glide_rotatable_bonds>  (310) 
3

>  <r_i_docking_score>  (310) 
-3.00751

>  <r_i_glide_ligand_efficiency>  (310) 
-0.187969

>  <r_i_glide_ligand_efficiency_sa>  (310) 
-0.473653

>  <r_i_glide_ligand_efficiency_ln>  (310) 
-0.7972

>  <r_i_glide_gscore>  (310) 
-3.00751

>  <r_i_glide_lipo>  (310) 
-0.491914

>  <r_i_glide_hbond>  (310) 
-0.0838533

>  <r_i_glide_metal>  (310) 
-0

>  <r_i_glide_rewards>  (310) 
-1.47322

>  <r_i_glide_evdw>  (310) 
-25.9297

>  <r_i_glide_ecoul>  (310) 
-1.9574

>  <r_i_glide_erotb>  (310) 
0.631573

>  <r_i_glide_esite>  (310) 
0

>  <r_i_glide_emodel>  (310) 
-34.71

>  <r_i_glide_energy>  (310) 
-27.8871

>  <r_i_glide_einternal>  (310) 
0.104475

>  <r_i_glide_intrahb_reward>  (310) 
-0

>  <i_i_glide_confnum>  (310) 
2

>  <i_i_glide_posenum>  (310) 
28

>  <r_i_glide_eff_state_penalty>  (310) 
0

>  <ligand_id>  (310) 
74

>  <original_smiles>  (310) 
Cc1ncc(S(=O)(=O)N=c2[nH]cc(Cl)s2)s1

>  <smiles>  (310) 
[H]c1nc([N-]S(=O)(=O)c2sc(C([H])([H])[H])nc2[H])sc1Cl

$$$$
75:0:0
     RDKit          3D

 51 55  0  0  1  0  0  0  0  0999 V2000
   -4.4810    4.8367    1.9193 C   0  0  0  0  0  0  0  0  0  0  0  0
   -3.2775    4.2326    2.4931 N   0  0  0  0  0  0  0  0  0  0  0  0
   -2.9646    2.9205    2.7297 C   0  0  0  0  0  0  0  0  0  0  0  0
   -1.7084    2.8565    3.2672 C   0  0  0  0  0  0  0  0  0  0  0  0
   -0.8986    1.6360    3.6978 C   0  0  2  0  0  0  0  0  0  0  0  0
   -1.6949    0.8043    4.7412 C   0  0  0  0  0  0  0  0  0  0  0  0
   -1.5284    1.3901    6.0484 N   0  0  0  0  0  0  0  0  0  0  0  0
   -2.3782    1.2227    7.0783 N   0  0  0  0  0  0  0  0  0  0  0  0
   -1.7994    1.8852    8.0832 C   0  0  0  0  0  0  0  0  0  0  0  0
   -0.5437    2.4608    7.7364 C   0  0  0  0  0  0  0  0  0  0  0  0
   -0.4348    2.0971    6.4319 C   0  0  0  0  0  0  0  0  0  0  0  0
    0.6604    2.3944    5.5014 C   0  0  0  0  0  0  0  0  0  0  0  0
    1.6834    2.9236    5.9362 O   0  0  0  0  0  0  0  0  0  0  0  0
    0.4343    2.0623    4.1961 N   0  0  0  0  0  0  0  0  0  0  0  0
    1.4382    2.2906    3.1498 C   0  0  0  0  0  0  0  0  0  0  0  0
    2.4380    1.1568    3.0536 C   0  0  0  0  0  0  0  0  0  0  0  0
    3.6043    1.1618    3.8513 C   0  0  0  0  0  0  0  0  0  0  0  0
    4.5581    0.1311    3.7293 C   0  0  0  0  0  0  0  0  0  0  0  0
    4.3428   -0.9086    2.8067 C   0  0  0  0  0  0  0  0  0  0  0  0
    3.1717   -0.9237    2.0201 C   0  0  0  0  0  0  0  0  0  0  0  0
    2.9001   -2.0111    1.0949 C   0  0  0  0  0  0  0  0  0  0  0  0
    3.6980   -2.4582    0.1103 C   0  0  0  0  0  0  0  0  0  0  0  0
    5.0170   -1.9198   -0.3599 C   0  0  0  0  0  0  0  0  0  0  0  0
    5.3636   -2.9584   -1.4058 C   0  0  0  0  0  0  0  0  0  0  0  0
    6.4094   -2.9551   -2.0428 O   0  0  0  0  0  0  0  0  0  0  0  0
    4.3593   -3.8504   -1.5036 N   0  0  0  0  0  0  0  0  0  0  0  0
    3.3308   -3.6027   -0.6862 C   0  0  0  0  0  0  0  0  0  0  0  0
    2.2860   -4.2535   -0.6280 O   0  0  0  0  0  0  0  0  0  0  0  0
    2.2118    0.0960    2.1553 C   0  0  0  0  0  0  0  0  0  0  0  0
   -1.3172    4.2201    3.3110 C   0  0  0  0  0  0  0  0  0  0  0  0
   -2.2547    5.0174    2.8776 N   0  0  0  0  0  0  0  0  0  0  0  0
   -5.1412    4.0379    1.5643 H   0  0  0  0  0  0  0  0  0  0  0  0
   -4.2338    5.4988    1.1041 H   0  0  0  0  0  0  0  0  0  0  0  0
   -5.0440    5.4081    2.6586 H   0  0  0  0  0  0  0  0  0  0  0  0
   -3.6657    2.1503    2.4713 H   0  0  0  0  0  0  0  0  0  0  0  0
   -0.7747    0.9722    2.8386 H   0  0  0  0  0  0  0  0  0  0  0  0
   -2.7388    0.7437    4.4740 H   0  0  0  0  0  0  0  0  0  0  0  0
   -1.3412   -0.2266    4.7741 H   0  0  0  0  0  0  0  0  0  0  0  0
   -2.2869    1.9128    9.0442 H   0  0  0  0  0  0  0  0  0  0  0  0
    0.1583    3.0291    8.3284 H   0  0  0  0  0  0  0  0  0  0  0  0
    0.9704    2.4700    2.1759 H   0  0  0  0  0  0  0  0  0  0  0  0
    1.9814    3.2194    3.3301 H   0  0  0  0  0  0  0  0  0  0  0  0
    3.7915    1.9845    4.5210 H   0  0  0  0  0  0  0  0  0  0  0  0
    5.4569    0.1547    4.3257 H   0  0  0  0  0  0  0  0  0  0  0  0
    5.0574   -1.7095    2.7252 H   0  0  0  0  0  0  0  0  0  0  0  0
    1.9789   -2.5415    1.2763 H   0  0  0  0  0  0  0  0  0  0  0  0
    4.8886   -0.9362   -0.8143 H   0  0  0  0  0  0  0  0  0  0  0  0
    5.7761   -1.8650    0.4209 H   0  0  0  0  0  0  0  0  0  0  0  0
    4.3536   -4.6231   -2.1475 H   0  0  0  0  0  0  0  0  0  0  0  0
    1.3090    0.0617    1.5596 H   0  0  0  0  0  0  0  0  0  0  0  0
   -0.3829    4.6420    3.6473 H   0  0  0  0  0  0  0  0  0  0  0  0
  1  2  1  0
  1 32  1  0
  1 33  1  0
  1 34  1  0
  2 31  1  0
  2  3  1  0
  3  4  2  0
  3 35  1  0
  4  5  1  0
  4 30  1  0
  5 14  1  0
  5  6  1  0
  5 36  1  6
  6  7  1  0
  6 37  1  0
  6 38  1  0
  7 11  1  0
  7  8  1  0
  8  9  2  0
  9 10  1  0
  9 39  1  0
 10 11  2  0
 10 40  1  0
 11 12  1  0
 12 13  2  0
 12 14  1  0
 14 15  1  0
 15 16  1  0
 15 41  1  0
 15 42  1  0
 16 29  1  0
 16 17  2  0
 17 18  1  0
 17 43  1  0
 18 19  2  0
 18 44  1  0
 19 20  1  0
 19 45  1  0
 20 21  1  0
 20 29  2  0
 21 22  2  3
 21 46  1  0
 22 27  1  0
 22 23  1  0
 23 24  1  0
 23 47  1  0
 23 48  1  0
 24 25  2  0
 24 26  1  0
 26 27  1  0
 26 49  1  0
 27 28  2  0
 29 50  1  0
 30 31  2  0
 30 51  1  0
M  END
>  <i_m_ct_stereo_status>  (311) 
1

>  <s_m_source_file>  (311) 
/var/tmp/pbs.5102103.sched01/tmphafng327/110q8crsuru.sdf

>  <i_m_source_file_index>  (311) 
9

>  <i_lp_mmshare_version>  (311) 
48012

>  <i_f3d_flags>  (311) 
0

>  <s_epik_input>  (311) 
W0NIM11uMVtjSF1jKFtjSF1uMSlbQ0BIXShbQ0gyXTIpTihDKD1PKWMobjIzKVtjSF1bY0hdbjMpW0NIMl1jNFtjSF1bY0hdW2NIXWMoW2NIXTQpL1tDSF09QzVcW0NIMl1DKD1PKVtOSF1DNT1P

>  <s_epik_cmdline>  (311) 
J2VwaWtfcHl0aG9uJywgJy1waHQnLCAnMi4wJywgJy1waCcsICc3LjAnLCAnLXRuJywgJzgnLCAnLW1hJywgJzIwMCcsICctaW1hZScsICc8aW5maWxlLm1hZT4nLCAnLW9tYWUnLCAnPG91dGZpbGUubWFlPic=

>  <r_lp_tautomer_probability>  (311) 
1

>  <r_epik_Ionization_Penalty>  (311) 
0.000262287

>  <r_epik_Ionization_Penalty_Charging>  (311) 
0

>  <r_epik_Ionization_Penalty_Neutral>  (311) 
0.000262287

>  <r_epik_State_Penalty>  (311) 
-0

>  <r_epik_Charging_Adjusted_Penalty>  (311) 
0

>  <i_epik_Tot_Q>  (311) 
0

>  <i_epik_Tot_abs_Q>  (311) 
0

>  <s_lp_Force_Field>  (311) 
OPLS3e

>  <r_lp_Energy>  (311) 
31.9087

>  <b_lp_Chiralities_Consistent>  (311) 
1

>  <s_lp_Variant>  (311) 
75:0-1

>  <s_i_glide_gridfile>  (311) 
pfpi4k_grid

>  <i_i_glide_lignum>  (311) 
9

>  <i_i_glide_rotatable_bonds>  (311) 
4

>  <r_i_docking_score>  (311) 
-3.95776

>  <r_i_glide_ligand_efficiency>  (311) 
-0.12767

>  <r_i_glide_ligand_efficiency_sa>  (311) 
-0.401059

>  <r_i_glide_ligand_efficiency_ln>  (311) 
-0.892596

>  <r_i_glide_gscore>  (311) 
-3.95776

>  <r_i_glide_lipo>  (311) 
-0.0830264

>  <r_i_glide_hbond>  (311) 
-0.515914

>  <r_i_glide_metal>  (311) 
-0

>  <r_i_glide_rewards>  (311) 
-0.637224

>  <r_i_glide_evdw>  (311) 
-22.8265

>  <r_i_glide_ecoul>  (311) 
-12.7684

>  <r_i_glide_erotb>  (311) 
0.455688

>  <r_i_glide_esite>  (311) 
-0.120696

>  <r_i_glide_emodel>  (311) 
-42.2765

>  <r_i_glide_energy>  (311) 
-35.5949

>  <r_i_glide_einternal>  (311) 
4.84858

>  <r_i_glide_intrahb_reward>  (311) 
-0

>  <i_i_glide_confnum>  (311) 
3

>  <i_i_glide_posenum>  (311) 
5

>  <r_i_glide_eff_state_penalty>  (311) 
0

>  <ligand_id>  (311) 
75

>  <original_smiles>  (311) 
Cn1cc(C2Cn3nccc3C(=O)N2Cc2cccc(C=C3CC(=O)NC3=O)c2)cn1

>  <smiles>  (311) 
[H]C(=C1C(=O)N([H])C(=O)C1([H])[H])c1c([H])c([H])c([H])c(C([H])([H])N2C(=O)c3c([H])c([H])nn3C([H])([H])C2([H])c2c([H])nn(C([H])([H])[H])c2[H])c1[H]

$$$$
75:0:1
     RDKit          3D

 51 55  0  0  1  0  0  0  0  0999 V2000
    2.0354    2.9279    2.4198 C   0  0  0  0  0  0  0  0  0  0  0  0
    1.9381    1.6013    2.9779 N   0  0  0  0  0  0  0  0  0  0  0  0
    1.4749    0.4416    2.4004 C   0  0  0  0  0  0  0  0  0  0  0  0
    1.5790   -0.5408    3.3376 C   0  0  0  0  0  0  0  0  0  0  0  0
    1.2186   -2.0001    3.2294 C   0  0  2  0  0  0  0  0  0  0  0  0
    0.2399   -2.3995    4.3679 C   0  0  0  0  0  0  0  0  0  0  0  0
    0.9834   -2.7442    5.5563 N   0  0  0  0  0  0  0  0  0  0  0  0
    0.4731   -2.7452    6.8078 N   0  0  0  0  0  0  0  0  0  0  0  0
    1.4972   -3.1515    7.5629 C   0  0  0  0  0  0  0  0  0  0  0  0
    2.6748   -3.4578    6.8206 C   0  0  0  0  0  0  0  0  0  0  0  0
    2.2754   -3.1802    5.5526 C   0  0  0  0  0  0  0  0  0  0  0  0
    3.0746   -3.2671    4.3201 C   0  0  0  0  0  0  0  0  0  0  0  0
    4.2081   -3.7539    4.3651 O   0  0  0  0  0  0  0  0  0  0  0  0
    2.4615   -2.8201    3.1885 N   0  0  0  0  0  0  0  0  0  0  0  0
    3.1101   -2.9390    1.8658 C   0  0  0  0  0  0  0  0  0  0  0  0
    3.5008   -4.3610    1.4702 C   0  0  0  0  0  0  0  0  0  0  0  0
    4.6273   -4.5998    0.6606 C   0  0  0  0  0  0  0  0  0  0  0  0
    4.9969   -5.9237    0.3597 C   0  0  0  0  0  0  0  0  0  0  0  0
    4.2474   -7.0084    0.8604 C   0  0  0  0  0  0  0  0  0  0  0  0
    3.1082   -6.7865    1.6665 C   0  0  0  0  0  0  0  0  0  0  0  0
    2.3442   -7.9590    2.1706 C   0  0  0  0  0  0  0  0  0  0  0  0
    1.2029   -8.0027    2.9049 C   0  0  0  0  0  0  0  0  0  0  0  0
    0.3617   -6.8808    3.4302 C   0  0  0  0  0  0  0  0  0  0  0  0
   -0.8109   -7.6295    3.9950 C   0  0  0  0  0  0  0  0  0  0  0  0
   -1.7916   -7.0627    4.4739 O   0  0  0  0  0  0  0  0  0  0  0  0
   -0.5958   -8.9438    3.8708 N   0  0  0  0  0  0  0  0  0  0  0  0
    0.5555   -9.2587    3.2635 C   0  0  0  0  0  0  0  0  0  0  0  0
    0.9442  -10.4070    3.0558 O   0  0  0  0  0  0  0  0  0  0  0  0
    2.7582   -5.4514    1.9524 C   0  0  0  0  0  0  0  0  0  0  0  0
    2.1276    0.1304    4.4666 C   0  0  0  0  0  0  0  0  0  0  0  0
    2.3413    1.4108    4.2469 N   0  0  0  0  0  0  0  0  0  0  0  0
    1.8144    2.8938    1.3531 H   0  0  0  0  0  0  0  0  0  0  0  0
    3.0467    3.3209    2.5591 H   0  0  0  0  0  0  0  0  0  0  0  0
    1.3192    3.5942    2.9091 H   0  0  0  0  0  0  0  0  0  0  0  0
    1.1143    0.4175    1.3812 H   0  0  0  0  0  0  0  0  0  0  0  0
    0.6656   -2.1682    2.3125 H   0  0  0  0  0  0  0  0  0  0  0  0
   -0.4813   -1.6094    4.5926 H   0  0  0  0  0  0  0  0  0  0  0  0
   -0.3227   -3.2829    4.0793 H   0  0  0  0  0  0  0  0  0  0  0  0
    1.3663   -3.2048    8.6283 H   0  0  0  0  0  0  0  0  0  0  0  0
    3.6471   -3.7995    7.1421 H   0  0  0  0  0  0  0  0  0  0  0  0
    2.4845   -2.5341    1.0643 H   0  0  0  0  0  0  0  0  0  0  0  0
    4.0058   -2.3162    1.8729 H   0  0  0  0  0  0  0  0  0  0  0  0
    5.2219   -3.7738    0.2995 H   0  0  0  0  0  0  0  0  0  0  0  0
    5.8687   -6.1061   -0.2514 H   0  0  0  0  0  0  0  0  0  0  0  0
    4.5429   -8.0195    0.6137 H   0  0  0  0  0  0  0  0  0  0  0  0
    2.7601   -8.9172    1.9019 H   0  0  0  0  0  0  0  0  0  0  0  0
    0.8643   -6.3178    4.2215 H   0  0  0  0  0  0  0  0  0  0  0  0
    0.0203   -6.2003    2.6518 H   0  0  0  0  0  0  0  0  0  0  0  0
   -1.2382   -9.6509    4.2241 H   0  0  0  0  0  0  0  0  0  0  0  0
    1.9287   -5.2189    2.5874 H   0  0  0  0  0  0  0  0  0  0  0  0
    2.3691   -0.2792    5.4349 H   0  0  0  0  0  0  0  0  0  0  0  0
  1  2  1  0
  1 32  1  0
  1 33  1  0
  1 34  1  0
  2 31  1  0
  2  3  1  0
  3  4  2  0
  3 35  1  0
  4  5  1  0
  4 30  1  0
  5 14  1  0
  5  6  1  0
  5 36  1  6
  6  7  1  0
  6 37  1  0
  6 38  1  0
  7 11  1  0
  7  8  1  0
  8  9  2  0
  9 10  1  0
  9 39  1  0
 10 11  2  0
 10 40  1  0
 11 12  1  0
 12 13  2  0
 12 14  1  0
 14 15  1  0
 15 16  1  0
 15 41  1  0
 15 42  1  0
 16 29  1  0
 16 17  2  0
 17 18  1  0
 17 43  1  0
 18 19  2  0
 18 44  1  0
 19 20  1  0
 19 45  1  0
 20 21  1  0
 20 29  2  0
 21 22  2  3
 21 46  1  0
 22 27  1  0
 22 23  1  0
 23 24  1  0
 23 47  1  0
 23 48  1  0
 24 25  2  0
 24 26  1  0
 26 27  1  0
 26 49  1  0
 27 28  2  0
 29 50  1  0
 30 31  2  0
 30 51  1  0
M  END
>  <i_m_ct_stereo_status>  (312) 
1

>  <s_m_source_file>  (312) 
/var/tmp/pbs.5102103.sched01/tmphafng327/110q8crsuru.sdf

>  <i_m_source_file_index>  (312) 
9

>  <i_lp_mmshare_version>  (312) 
48012

>  <i_f3d_flags>  (312) 
0

>  <s_epik_input>  (312) 
W0NIM11uMVtjSF1jKFtjSF1uMSlbQ0BIXShbQ0gyXTIpTihDKD1PKWMobjIzKVtjSF1bY0hdbjMpW0NIMl1jNFtjSF1bY0hdW2NIXWMoW2NIXTQpL1tDSF09QzVcW0NIMl1DKD1PKVtOSF1DNT1P

>  <s_epik_cmdline>  (312) 
J2VwaWtfcHl0aG9uJywgJy1waHQnLCAnMi4wJywgJy1waCcsICc3LjAnLCAnLXRuJywgJzgnLCAnLW1hJywgJzIwMCcsICctaW1hZScsICc8aW5maWxlLm1hZT4nLCAnLW9tYWUnLCAnPG91dGZpbGUubWFlPic=

>  <r_lp_tautomer_probability>  (312) 
1

>  <r_epik_Ionization_Penalty>  (312) 
0.000262287

>  <r_epik_Ionization_Penalty_Charging>  (312) 
0

>  <r_epik_Ionization_Penalty_Neutral>  (312) 
0.000262287

>  <r_epik_State_Penalty>  (312) 
-0

>  <r_epik_Charging_Adjusted_Penalty>  (312) 
0

>  <i_epik_Tot_Q>  (312) 
0

>  <i_epik_Tot_abs_Q>  (312) 
0

>  <s_lp_Force_Field>  (312) 
OPLS3e

>  <r_lp_Energy>  (312) 
31.9087

>  <b_lp_Chiralities_Consistent>  (312) 
1

>  <s_lp_Variant>  (312) 
75:0-1

>  <s_i_glide_gridfile>  (312) 
pfpi4k_grid

>  <i_i_glide_lignum>  (312) 
9

>  <i_i_glide_rotatable_bonds>  (312) 
4

>  <r_i_docking_score>  (312) 
-3.34875

>  <r_i_glide_ligand_efficiency>  (312) 
-0.108024

>  <r_i_glide_ligand_efficiency_sa>  (312) 
-0.339345

>  <r_i_glide_ligand_efficiency_ln>  (312) 
-0.755246

>  <r_i_glide_gscore>  (312) 
-3.34875

>  <r_i_glide_lipo>  (312) 
-0.442038

>  <r_i_glide_hbond>  (312) 
-0.16

>  <r_i_glide_metal>  (312) 
-0

>  <r_i_glide_rewards>  (312) 
-0.56979

>  <r_i_glide_evdw>  (312) 
-29.1574

>  <r_i_glide_ecoul>  (312) 
-6.74029

>  <r_i_glide_erotb>  (312) 
0.455688

>  <r_i_glide_esite>  (312) 
-0.163699

>  <r_i_glide_emodel>  (312) 
-42.4584

>  <r_i_glide_energy>  (312) 
-35.8976

>  <r_i_glide_einternal>  (312) 
2.08405

>  <r_i_glide_intrahb_reward>  (312) 
-0

>  <i_i_glide_confnum>  (312) 
2

>  <i_i_glide_posenum>  (312) 
1

>  <r_i_glide_eff_state_penalty>  (312) 
0

>  <ligand_id>  (312) 
75

>  <original_smiles>  (312) 
Cn1cc(C2Cn3nccc3C(=O)N2Cc2cccc(C=C3CC(=O)NC3=O)c2)cn1

>  <smiles>  (312) 
[H]C(=C1C(=O)N([H])C(=O)C1([H])[H])c1c([H])c([H])c([H])c(C([H])([H])N2C(=O)c3c([H])c([H])nn3C([H])([H])C2([H])c2c([H])nn(C([H])([H])[H])c2[H])c1[H]

$$$$
75:0:2
     RDKit          3D

 51 55  0  0  1  0  0  0  0  0999 V2000
    2.7028    4.2282    2.5216 C   0  0  0  0  0  0  0  0  0  0  0  0
    2.4925    2.9020    3.0587 N   0  0  0  0  0  0  0  0  0  0  0  0
    1.6904    1.8905    2.5830 C   0  0  0  0  0  0  0  0  0  0  0  0
    1.8462    0.8356    3.4312 C   0  0  0  0  0  0  0  0  0  0  0  0
    1.1848   -0.5234    3.3905 C   0  0  2  0  0  0  0  0  0  0  0  0
   -0.0060   -0.5621    4.3878 C   0  0  0  0  0  0  0  0  0  0  0  0
    0.4646   -0.9135    5.7123 N   0  0  0  0  0  0  0  0  0  0  0  0
   -0.2000   -0.6637    6.8599 N   0  0  0  0  0  0  0  0  0  0  0  0
    0.6030   -1.1525    7.8091 C   0  0  0  0  0  0  0  0  0  0  0  0
    1.7659   -1.7934    7.3020 C   0  0  0  0  0  0  0  0  0  0  0  0
    1.6129   -1.6028    5.9650 C   0  0  0  0  0  0  0  0  0  0  0  0
    2.5258   -2.0259    4.8965 C   0  0  0  0  0  0  0  0  0  0  0  0
    3.4845   -2.7472    5.1724 O   0  0  0  0  0  0  0  0  0  0  0  0
    2.1951   -1.5865    3.6444 N   0  0  0  0  0  0  0  0  0  0  0  0
    2.9727   -2.0104    2.4749 C   0  0  0  0  0  0  0  0  0  0  0  0
    2.9011   -3.5092    2.1707 C   0  0  0  0  0  0  0  0  0  0  0  0
    3.9407   -4.0850    1.4137 C   0  0  0  0  0  0  0  0  0  0  0  0
    3.9164   -5.4566    1.1219 C   0  0  0  0  0  0  0  0  0  0  0  0
    2.8666   -6.2527    1.5836 C   0  0  0  0  0  0  0  0  0  0  0  0
    1.8195   -5.7096    2.3632 C   0  0  0  0  0  0  0  0  0  0  0  0
    0.7095   -6.5214    2.9184 C   0  0  0  0  0  0  0  0  0  0  0  0
    0.6405   -7.8652    3.0434 C   0  0  0  0  0  0  0  0  0  0  0  0
    1.6897   -8.9052    2.7882 C   0  0  0  0  0  0  0  0  0  0  0  0
    1.0240  -10.1389    3.3404 C   0  0  0  0  0  0  0  0  0  0  0  0
    1.5480  -11.2512    3.3875 O   0  0  0  0  0  0  0  0  0  0  0  0
   -0.1886   -9.8136    3.7416 N   0  0  0  0  0  0  0  0  0  0  0  0
   -0.5342   -8.5260    3.5831 C   0  0  0  0  0  0  0  0  0  0  0  0
   -1.6329   -8.0375    3.8427 O   0  0  0  0  0  0  0  0  0  0  0  0
    1.8502   -4.3299    2.6537 C   0  0  0  0  0  0  0  0  0  0  0  0
    2.7752    1.3116    4.3947 C   0  0  0  0  0  0  0  0  0  0  0  0
    3.1470    2.5564    4.1822 N   0  0  0  0  0  0  0  0  0  0  0  0
    2.2133    4.3057    1.5511 H   0  0  0  0  0  0  0  0  0  0  0  0
    3.7713    4.4224    2.3934 H   0  0  0  0  0  0  0  0  0  0  0  0
    2.2761    4.9738    3.1951 H   0  0  0  0  0  0  0  0  0  0  0  0
    1.0847    2.0122    1.6990 H   0  0  0  0  0  0  0  0  0  0  0  0
    0.7421   -0.7037    2.4127 H   0  0  0  0  0  0  0  0  0  0  0  0
   -0.5554    0.3832    4.4193 H   0  0  0  0  0  0  0  0  0  0  0  0
   -0.7192   -1.3329    4.0931 H   0  0  0  0  0  0  0  0  0  0  0  0
    0.3123   -1.0377    8.8368 H   0  0  0  0  0  0  0  0  0  0  0  0
    2.5785   -2.2862    7.8125 H   0  0  0  0  0  0  0  0  0  0  0  0
    2.6948   -1.4667    1.5623 H   0  0  0  0  0  0  0  0  0  0  0  0
    4.0194   -1.7410    2.6389 H   0  0  0  0  0  0  0  0  0  0  0  0
    4.7621   -3.4808    1.0473 H   0  0  0  0  0  0  0  0  0  0  0  0
    4.6987   -5.9244    0.5424 H   0  0  0  0  0  0  0  0  0  0  0  0
    2.8959   -7.2814    1.2805 H   0  0  0  0  0  0  0  0  0  0  0  0
   -0.1623   -5.9615    3.2263 H   0  0  0  0  0  0  0  0  0  0  0  0
    1.8656   -9.0843    1.7248 H   0  0  0  0  0  0  0  0  0  0  0  0
    2.6315   -8.6933    3.3101 H   0  0  0  0  0  0  0  0  0  0  0  0
   -0.8482  -10.4714    4.1695 H   0  0  0  0  0  0  0  0  0  0  0  0
    1.0339   -3.9136    3.2438 H   0  0  0  0  0  0  0  0  0  0  0  0
    3.1814    0.7996    5.2601 H   0  0  0  0  0  0  0  0  0  0  0  0
  1  2  1  0
  1 32  1  0
  1 33  1  0
  1 34  1  0
  2 31  1  0
  2  3  1  0
  3  4  2  0
  3 35  1  0
  4  5  1  0
  4 30  1  0
  5 14  1  0
  5  6  1  0
  5 36  1  6
  6  7  1  0
  6 37  1  0
  6 38  1  0
  7 11  1  0
  7  8  1  0
  8  9  2  0
  9 10  1  0
  9 39  1  0
 10 11  2  0
 10 40  1  0
 11 12  1  0
 12 13  2  0
 12 14  1  0
 14 15  1  0
 15 16  1  0
 15 41  1  0
 15 42  1  0
 16 29  1  0
 16 17  2  0
 17 18  1  0
 17 43  1  0
 18 19  2  0
 18 44  1  0
 19 20  1  0
 19 45  1  0
 20 21  1  0
 20 29  2  0
 21 22  2  3
 21 46  1  0
 22 27  1  0
 22 23  1  0
 23 24  1  0
 23 47  1  0
 23 48  1  0
 24 25  2  0
 24 26  1  0
 26 27  1  0
 26 49  1  0
 27 28  2  0
 29 50  1  0
 30 31  2  0
 30 51  1  0
M  END
>  <i_m_ct_stereo_status>  (313) 
1

>  <s_m_source_file>  (313) 
/var/tmp/pbs.5102103.sched01/tmphafng327/110q8crsuru.sdf

>  <i_m_source_file_index>  (313) 
9

>  <i_lp_mmshare_version>  (313) 
48012

>  <i_f3d_flags>  (313) 
0

>  <s_epik_input>  (313) 
W0NIM11uMVtjSF1jKFtjSF1uMSlbQ0BIXShbQ0gyXTIpTihDKD1PKWMobjIzKVtjSF1bY0hdbjMpW0NIMl1jNFtjSF1bY0hdW2NIXWMoW2NIXTQpL1tDSF09QzVcW0NIMl1DKD1PKVtOSF1DNT1P

>  <s_epik_cmdline>  (313) 
J2VwaWtfcHl0aG9uJywgJy1waHQnLCAnMi4wJywgJy1waCcsICc3LjAnLCAnLXRuJywgJzgnLCAnLW1hJywgJzIwMCcsICctaW1hZScsICc8aW5maWxlLm1hZT4nLCAnLW9tYWUnLCAnPG91dGZpbGUubWFlPic=

>  <r_lp_tautomer_probability>  (313) 
1

>  <r_epik_Ionization_Penalty>  (313) 
0.000262287

>  <r_epik_Ionization_Penalty_Charging>  (313) 
0

>  <r_epik_Ionization_Penalty_Neutral>  (313) 
0.000262287

>  <r_epik_State_Penalty>  (313) 
-0

>  <r_epik_Charging_Adjusted_Penalty>  (313) 
0

>  <i_epik_Tot_Q>  (313) 
0

>  <i_epik_Tot_abs_Q>  (313) 
0

>  <s_lp_Force_Field>  (313) 
OPLS3e

>  <r_lp_Energy>  (313) 
31.9087

>  <b_lp_Chiralities_Consistent>  (313) 
1

>  <s_lp_Variant>  (313) 
75:0-1

>  <s_i_glide_gridfile>  (313) 
pfpi4k_grid

>  <i_i_glide_lignum>  (313) 
9

>  <i_i_glide_rotatable_bonds>  (313) 
4

>  <r_i_docking_score>  (313) 
-2.95668

>  <r_i_glide_ligand_efficiency>  (313) 
-0.0953769

>  <r_i_glide_ligand_efficiency_sa>  (313) 
-0.299615

>  <r_i_glide_ligand_efficiency_ln>  (313) 
-0.666823

>  <r_i_glide_gscore>  (313) 
-2.95668

>  <r_i_glide_lipo>  (313) 
-0.0473547

>  <r_i_glide_hbond>  (313) 
-0.16

>  <r_i_glide_metal>  (313) 
-0

>  <r_i_glide_rewards>  (313) 
-0.683861

>  <r_i_glide_evdw>  (313) 
-28.8941

>  <r_i_glide_ecoul>  (313) 
-6.06371

>  <r_i_glide_erotb>  (313) 
0.455688

>  <r_i_glide_esite>  (313) 
-0.166894

>  <r_i_glide_emodel>  (313) 
-40.7964

>  <r_i_glide_energy>  (313) 
-34.9578

>  <r_i_glide_einternal>  (313) 
1.83822

>  <r_i_glide_intrahb_reward>  (313) 
-0

>  <i_i_glide_confnum>  (313) 
2

>  <i_i_glide_posenum>  (313) 
29

>  <r_i_glide_eff_state_penalty>  (313) 
0

>  <ligand_id>  (313) 
75

>  <original_smiles>  (313) 
Cn1cc(C2Cn3nccc3C(=O)N2Cc2cccc(C=C3CC(=O)NC3=O)c2)cn1

>  <smiles>  (313) 
[H]C(=C1C(=O)N([H])C(=O)C1([H])[H])c1c([H])c([H])c([H])c(C([H])([H])N2C(=O)c3c([H])c([H])nn3C([H])([H])C2([H])c2c([H])nn(C([H])([H])[H])c2[H])c1[H]

$$$$
75:1:0
     RDKit          3D

 51 55  0  0  1  0  0  0  0  0999 V2000
    2.8878  -11.6092    3.3247 C   0  0  0  0  0  0  0  0  0  0  0  0
    2.6561  -10.2597    2.8708 N   0  0  0  0  0  0  0  0  0  0  0  0
    3.5846   -9.2901    2.5726 C   0  0  0  0  0  0  0  0  0  0  0  0
    2.9100   -8.1821    2.1575 C   0  0  0  0  0  0  0  0  0  0  0  0
    3.4583   -6.8458    1.7292 C   0  0  2  0  0  0  0  0  0  0  0  0
    4.7376   -7.0599    0.8590 C   0  0  0  0  0  0  0  0  0  0  0  0
    5.8825   -7.2038    1.7298 N   0  0  0  0  0  0  0  0  0  0  0  0
    7.0281   -7.8237    1.3849 N   0  0  0  0  0  0  0  0  0  0  0  0
    7.7996   -7.7089    2.4678 C   0  0  0  0  0  0  0  0  0  0  0  0
    7.1736   -7.0033    3.5402 C   0  0  0  0  0  0  0  0  0  0  0  0
    5.9638   -6.7042    2.9960 C   0  0  0  0  0  0  0  0  0  0  0  0
    4.8474   -5.9874    3.6226 C   0  0  0  0  0  0  0  0  0  0  0  0
    5.0036   -5.4289    4.7144 O   0  0  0  0  0  0  0  0  0  0  0  0
    3.6800   -5.9917    2.9307 N   0  0  0  0  0  0  0  0  0  0  0  0
    2.5116   -5.2679    3.4612 C   0  0  0  0  0  0  0  0  0  0  0  0
    2.5605   -3.7662    3.2156 C   0  0  0  0  0  0  0  0  0  0  0  0
    2.1117   -2.8644    4.2123 C   0  0  0  0  0  0  0  0  0  0  0  0
    2.1340   -1.4763    3.9478 C   0  0  0  0  0  0  0  0  0  0  0  0
    2.5572   -0.9909    2.6871 C   0  0  0  0  0  0  0  0  0  0  0  0
    3.0123   -1.8916    1.6876 C   0  0  0  0  0  0  0  0  0  0  0  0
    3.4242   -1.3572    0.3604 C   0  0  0  0  0  0  0  0  0  0  0  0
    3.4479   -1.9411   -0.8611 C   0  0  0  0  0  0  0  0  0  0  0  0
    4.0198   -1.3055   -2.1215 C   0  0  0  0  0  0  0  0  0  0  0  0
    3.8410   -2.4141   -3.1329 C   0  0  0  0  0  0  0  0  0  0  0  0
    4.1805   -2.3461   -4.3109 O   0  0  0  0  0  0  0  0  0  0  0  0
    3.2478   -3.4463   -2.5168 N   0  0  0  0  0  0  0  0  0  0  0  0
    2.9286   -3.2436   -1.2339 C   0  0  0  0  0  0  0  0  0  0  0  0
    2.2644   -4.0574   -0.5779 O   0  0  0  0  0  0  0  0  0  0  0  0
    3.0562   -3.2725    1.9926 C   0  0  0  0  0  0  0  0  0  0  0  0
    1.5390   -8.5825    2.2327 C   0  0  0  0  0  0  0  0  0  0  0  0
    1.3951   -9.8214    2.6722 N   0  0  0  0  0  0  0  0  0  0  0  0
    3.8996  -11.6965    3.7251 H   0  0  0  0  0  0  0  0  0  0  0  0
    2.7835  -12.2980    2.4845 H   0  0  0  0  0  0  0  0  0  0  0  0
    2.1735  -11.8708    4.1072 H   0  0  0  0  0  0  0  0  0  0  0  0
    4.6459   -9.4787    2.6832 H   0  0  0  0  0  0  0  0  0  0  0  0
    2.7307   -6.3550    1.0819 H   0  0  0  0  0  0  0  0  0  0  0  0
    4.6406   -7.9396    0.2169 H   0  0  0  0  0  0  0  0  0  0  0  0
    4.9157   -6.2066    0.2040 H   0  0  0  0  0  0  0  0  0  0  0  0
    8.7890   -8.1357    2.4486 H   0  0  0  0  0  0  0  0  0  0  0  0
    7.5439   -6.7623    4.5258 H   0  0  0  0  0  0  0  0  0  0  0  0
    1.5896   -5.6660    3.0301 H   0  0  0  0  0  0  0  0  0  0  0  0
    2.4297   -5.4568    4.5311 H   0  0  0  0  0  0  0  0  0  0  0  0
    1.7916   -3.2348    5.1737 H   0  0  0  0  0  0  0  0  0  0  0  0
    1.8275   -0.7820    4.7210 H   0  0  0  0  0  0  0  0  0  0  0  0
    2.5486    0.0719    2.5009 H   0  0  0  0  0  0  0  0  0  0  0  0
    3.8041   -0.3528    0.4076 H   0  0  0  0  0  0  0  0  0  0  0  0
    3.4503   -0.4224   -2.4149 H   0  0  0  0  0  0  0  0  0  0  0  0
    5.0761   -1.0439   -2.0123 H   0  0  0  0  0  0  0  0  0  0  0  0
    3.0316   -4.3374   -2.9598 H   0  0  0  0  0  0  0  0  0  0  0  0
    3.4629   -3.9714    1.2837 H   0  0  0  0  0  0  0  0  0  0  0  0
    0.6621   -8.0073    1.9885 H   0  0  0  0  0  0  0  0  0  0  0  0
  1  2  1  0
  1 32  1  0
  1 33  1  0
  1 34  1  0
  2 31  1  0
  2  3  1  0
  3  4  2  0
  3 35  1  0
  4  5  1  0
  4 30  1  0
  5 14  1  0
  5  6  1  0
  5 36  1  6
  6  7  1  0
  6 37  1  0
  6 38  1  0
  7 11  1  0
  7  8  1  0
  8  9  2  0
  9 10  1  0
  9 39  1  0
 10 11  2  0
 10 40  1  0
 11 12  1  0
 12 13  2  0
 12 14  1  0
 14 15  1  0
 15 16  1  0
 15 41  1  0
 15 42  1  0
 16 29  1  0
 16 17  2  0
 17 18  1  0
 17 43  1  0
 18 19  2  0
 18 44  1  0
 19 20  1  0
 19 45  1  0
 20 21  1  0
 20 29  2  0
 21 22  2  3
 21 46  1  0
 22 27  1  0
 22 23  1  0
 23 24  1  0
 23 47  1  0
 23 48  1  0
 24 25  2  0
 24 26  1  0
 26 27  1  0
 26 49  1  0
 27 28  2  0
 29 50  1  0
 30 31  2  0
 30 51  1  0
M  END
>  <i_m_ct_stereo_status>  (314) 
1

>  <s_m_source_file>  (314) 
/var/tmp/pbs.5102103.sched01/tmphafng327/110q8crsuru.sdf

>  <i_m_source_file_index>  (314) 
10

>  <i_lp_mmshare_version>  (314) 
48012

>  <i_f3d_flags>  (314) 
0

>  <s_epik_input>  (314) 
W0NIM11uMVtjSF1jKFtjSF1uMSlbQ0BIXShbQ0gyXTIpTihDKD1PKWMobjIzKVtjSF1bY0hdbjMpW0NIMl1jNFtjSF1bY0hdW2NIXWMoW2NIXTQpL1tDSF09QzVcW0NIMl1DKD1PKVtOSF1DNT1P

>  <s_epik_cmdline>  (314) 
J2VwaWtfcHl0aG9uJywgJy1waHQnLCAnMi4wJywgJy1waCcsICc3LjAnLCAnLXRuJywgJzgnLCAnLW1hJywgJzIwMCcsICctaW1hZScsICc8aW5maWxlLm1hZT4nLCAnLW9tYWUnLCAnPG91dGZpbGUubWFlPic=

>  <r_lp_tautomer_probability>  (314) 
1

>  <r_epik_Ionization_Penalty>  (314) 
0.000262287

>  <r_epik_Ionization_Penalty_Charging>  (314) 
0

>  <r_epik_Ionization_Penalty_Neutral>  (314) 
0.000262287

>  <r_epik_State_Penalty>  (314) 
-0

>  <r_epik_Charging_Adjusted_Penalty>  (314) 
0

>  <i_epik_Tot_Q>  (314) 
0

>  <i_epik_Tot_abs_Q>  (314) 
0

>  <s_lp_Force_Field>  (314) 
OPLS3e

>  <r_lp_Energy>  (314) 
37.4337

>  <b_lp_Chiralities_Consistent>  (314) 
1

>  <s_lp_Variant>  (314) 
75:0-2

>  <s_i_glide_gridfile>  (314) 
pfpi4k_grid

>  <i_i_glide_lignum>  (314) 
10

>  <i_i_glide_rotatable_bonds>  (314) 
4

>  <r_i_docking_score>  (314) 
-4.02603

>  <r_i_glide_ligand_efficiency>  (314) 
-0.129872

>  <r_i_glide_ligand_efficiency_sa>  (314) 
-0.407977

>  <r_i_glide_ligand_efficiency_ln>  (314) 
-0.907994

>  <r_i_glide_gscore>  (314) 
-4.02603

>  <r_i_glide_lipo>  (314) 
-0.145552

>  <r_i_glide_hbond>  (314) 
-0.568909

>  <r_i_glide_metal>  (314) 
-0

>  <r_i_glide_rewards>  (314) 
-0.927478

>  <r_i_glide_evdw>  (314) 
-31.1039

>  <r_i_glide_ecoul>  (314) 
-8.26088

>  <r_i_glide_erotb>  (314) 
0.455688

>  <r_i_glide_esite>  (314) 
-0.0454529

>  <r_i_glide_emodel>  (314) 
-48.1774

>  <r_i_glide_energy>  (314) 
-39.3648

>  <r_i_glide_einternal>  (314) 
1.36209

>  <r_i_glide_intrahb_reward>  (314) 
-0

>  <i_i_glide_confnum>  (314) 
1

>  <i_i_glide_posenum>  (314) 
21

>  <r_i_glide_eff_state_penalty>  (314) 
0

>  <ligand_id>  (314) 
75

>  <original_smiles>  (314) 
Cn1cc(C2Cn3nccc3C(=O)N2Cc2cccc(C=C3CC(=O)NC3=O)c2)cn1

>  <smiles>  (314) 
[H]C(=C1C(=O)N([H])C(=O)C1([H])[H])c1c([H])c([H])c([H])c(C([H])([H])N2C(=O)c3c([H])c([H])nn3C([H])([H])C2([H])c2c([H])nn(C([H])([H])[H])c2[H])c1[H]

$$$$
75:1:1
     RDKit          3D

 51 55  0  0  1  0  0  0  0  0999 V2000
   -0.0446   -6.1056    8.5871 C   0  0  0  0  0  0  0  0  0  0  0  0
    0.0566   -4.8468    7.8882 N   0  0  0  0  0  0  0  0  0  0  0  0
    1.1577   -4.0400    7.7366 C   0  0  0  0  0  0  0  0  0  0  0  0
    0.7659   -2.9764    6.9717 C   0  0  0  0  0  0  0  0  0  0  0  0
    1.5909   -1.7994    6.5073 C   0  0  2  0  0  0  0  0  0  0  0  0
    1.2007   -0.5345    7.3271 C   0  0  0  0  0  0  0  0  0  0  0  0
    0.0407    0.0925    6.7316 N   0  0  0  0  0  0  0  0  0  0  0  0
   -0.8093    0.9102    7.3858 N   0  0  0  0  0  0  0  0  0  0  0  0
   -1.6710    1.2991    6.4427 C   0  0  0  0  0  0  0  0  0  0  0  0
   -1.4220    0.7161    5.1659 C   0  0  0  0  0  0  0  0  0  0  0  0
   -0.2915   -0.0053    5.4151 C   0  0  0  0  0  0  0  0  0  0  0  0
    0.4871   -0.8297    4.4767 C   0  0  0  0  0  0  0  0  0  0  0  0
    0.2547   -0.7738    3.2763 O   0  0  0  0  0  0  0  0  0  0  0  0
    1.4281   -1.6330    5.0411 N   0  0  0  0  0  0  0  0  0  0  0  0
    2.2491   -2.5002    4.1970 C   0  0  0  0  0  0  0  0  0  0  0  0
    3.3385   -1.7339    3.4753 C   0  0  0  0  0  0  0  0  0  0  0  0
    4.4408   -1.2256    4.1855 C   0  0  0  0  0  0  0  0  0  0  0  0
    5.4538   -0.5393    3.4958 C   0  0  0  0  0  0  0  0  0  0  0  0
    5.3862   -0.4025    2.0947 C   0  0  0  0  0  0  0  0  0  0  0  0
    4.2752   -0.8963    1.3785 C   0  0  0  0  0  0  0  0  0  0  0  0
    4.2798   -0.7761   -0.0893 C   0  0  0  0  0  0  0  0  0  0  0  0
    3.8895   -1.6246   -1.0732 C   0  0  0  0  0  0  0  0  0  0  0  0
    3.9694   -1.3312   -2.5484 C   0  0  0  0  0  0  0  0  0  0  0  0
    3.4908   -2.6394   -3.1304 C   0  0  0  0  0  0  0  0  0  0  0  0
    3.4738   -2.9030   -4.3269 O   0  0  0  0  0  0  0  0  0  0  0  0
    3.1844   -3.4589   -2.1321 N   0  0  0  0  0  0  0  0  0  0  0  0
    3.4079   -2.9877   -0.8999 C   0  0  0  0  0  0  0  0  0  0  0  0
    3.2622   -3.6632    0.1223 O   0  0  0  0  0  0  0  0  0  0  0  0
    3.2318   -1.5200    2.0875 C   0  0  0  0  0  0  0  0  0  0  0  0
   -0.6063   -3.2445    6.7115 C   0  0  0  0  0  0  0  0  0  0  0  0
   -1.0375   -4.3496    7.2826 N   0  0  0  0  0  0  0  0  0  0  0  0
    0.7887   -6.2149    9.2820 H   0  0  0  0  0  0  0  0  0  0  0  0
   -0.0341   -6.9338    7.8737 H   0  0  0  0  0  0  0  0  0  0  0  0
   -0.9787   -6.1090    9.1472 H   0  0  0  0  0  0  0  0  0  0  0  0
    2.1068   -4.2853    8.1804 H   0  0  0  0  0  0  0  0  0  0  0  0
    2.6472   -1.9805    6.7121 H   0  0  0  0  0  0  0  0  0  0  0  0
    1.0081   -0.7649    8.3792 H   0  0  0  0  0  0  0  0  0  0  0  0
    2.0158    0.1914    7.3018 H   0  0  0  0  0  0  0  0  0  0  0  0
   -2.4586    1.9806    6.7223 H   0  0  0  0  0  0  0  0  0  0  0  0
   -1.9637    0.8170    4.2375 H   0  0  0  0  0  0  0  0  0  0  0  0
    2.7015   -3.3165    4.7693 H   0  0  0  0  0  0  0  0  0  0  0  0
    1.6239   -3.0152    3.4661 H   0  0  0  0  0  0  0  0  0  0  0  0
    4.5133   -1.3633    5.2562 H   0  0  0  0  0  0  0  0  0  0  0  0
    6.3118   -0.1502    4.0357 H   0  0  0  0  0  0  0  0  0  0  0  0
    6.1947    0.0864    1.5647 H   0  0  0  0  0  0  0  0  0  0  0  0
    4.6306    0.1746   -0.4338 H   0  0  0  0  0  0  0  0  0  0  0  0
    3.3253   -0.5043   -2.8674 H   0  0  0  0  0  0  0  0  0  0  0  0
    4.9948   -1.1208   -2.8722 H   0  0  0  0  0  0  0  0  0  0  0  0
    2.9086   -4.4276   -2.2879 H   0  0  0  0  0  0  0  0  0  0  0  0
    2.3399   -1.8408    1.5631 H   0  0  0  0  0  0  0  0  0  0  0  0
   -1.3064   -2.6506    6.1367 H   0  0  0  0  0  0  0  0  0  0  0  0
  1  2  1  0
  1 32  1  0
  1 33  1  0
  1 34  1  0
  2 31  1  0
  2  3  1  0
  3  4  2  0
  3 35  1  0
  4  5  1  0
  4 30  1  0
  5 14  1  0
  5  6  1  0
  5 36  1  6
  6  7  1  0
  6 37  1  0
  6 38  1  0
  7 11  1  0
  7  8  1  0
  8  9  2  0
  9 10  1  0
  9 39  1  0
 10 11  2  0
 10 40  1  0
 11 12  1  0
 12 13  2  0
 12 14  1  0
 14 15  1  0
 15 16  1  0
 15 41  1  0
 15 42  1  0
 16 29  1  0
 16 17  2  0
 17 18  1  0
 17 43  1  0
 18 19  2  0
 18 44  1  0
 19 20  1  0
 19 45  1  0
 20 21  1  0
 20 29  2  0
 21 22  2  3
 21 46  1  0
 22 27  1  0
 22 23  1  0
 23 24  1  0
 23 47  1  0
 23 48  1  0
 24 25  2  0
 24 26  1  0
 26 27  1  0
 26 49  1  0
 27 28  2  0
 29 50  1  0
 30 31  2  0
 30 51  1  0
M  END
>  <i_m_ct_stereo_status>  (315) 
1

>  <s_m_source_file>  (315) 
/var/tmp/pbs.5102103.sched01/tmphafng327/110q8crsuru.sdf

>  <i_m_source_file_index>  (315) 
10

>  <i_lp_mmshare_version>  (315) 
48012

>  <i_f3d_flags>  (315) 
0

>  <s_epik_input>  (315) 
W0NIM11uMVtjSF1jKFtjSF1uMSlbQ0BIXShbQ0gyXTIpTihDKD1PKWMobjIzKVtjSF1bY0hdbjMpW0NIMl1jNFtjSF1bY0hdW2NIXWMoW2NIXTQpL1tDSF09QzVcW0NIMl1DKD1PKVtOSF1DNT1P

>  <s_epik_cmdline>  (315) 
J2VwaWtfcHl0aG9uJywgJy1waHQnLCAnMi4wJywgJy1waCcsICc3LjAnLCAnLXRuJywgJzgnLCAnLW1hJywgJzIwMCcsICctaW1hZScsICc8aW5maWxlLm1hZT4nLCAnLW9tYWUnLCAnPG91dGZpbGUubWFlPic=

>  <r_lp_tautomer_probability>  (315) 
1

>  <r_epik_Ionization_Penalty>  (315) 
0.000262287

>  <r_epik_Ionization_Penalty_Charging>  (315) 
0

>  <r_epik_Ionization_Penalty_Neutral>  (315) 
0.000262287

>  <r_epik_State_Penalty>  (315) 
-0

>  <r_epik_Charging_Adjusted_Penalty>  (315) 
0

>  <i_epik_Tot_Q>  (315) 
0

>  <i_epik_Tot_abs_Q>  (315) 
0

>  <s_lp_Force_Field>  (315) 
OPLS3e

>  <r_lp_Energy>  (315) 
37.4337

>  <b_lp_Chiralities_Consistent>  (315) 
1

>  <s_lp_Variant>  (315) 
75:0-2

>  <s_i_glide_gridfile>  (315) 
pfpi4k_grid

>  <i_i_glide_lignum>  (315) 
10

>  <i_i_glide_rotatable_bonds>  (315) 
4

>  <r_i_docking_score>  (315) 
-3.68361

>  <r_i_glide_ligand_efficiency>  (315) 
-0.118826

>  <r_i_glide_ligand_efficiency_sa>  (315) 
-0.373278

>  <r_i_glide_ligand_efficiency_ln>  (315) 
-0.830767

>  <r_i_glide_gscore>  (315) 
-3.68361

>  <r_i_glide_lipo>  (315) 
-0.310845

>  <r_i_glide_hbond>  (315) 
-0.585055

>  <r_i_glide_metal>  (315) 
-0

>  <r_i_glide_rewards>  (315) 
-0.688433

>  <r_i_glide_evdw>  (315) 
-28.9196

>  <r_i_glide_ecoul>  (315) 
-7.03971

>  <r_i_glide_erotb>  (315) 
0.455688

>  <r_i_glide_esite>  (315) 
-0.0530314

>  <r_i_glide_emodel>  (315) 
-44.1288

>  <r_i_glide_energy>  (315) 
-35.9593

>  <r_i_glide_einternal>  (315) 
1.66155

>  <r_i_glide_intrahb_reward>  (315) 
-0

>  <i_i_glide_confnum>  (315) 
5

>  <i_i_glide_posenum>  (315) 
5

>  <r_i_glide_eff_state_penalty>  (315) 
0

>  <ligand_id>  (315) 
75

>  <original_smiles>  (315) 
Cn1cc(C2Cn3nccc3C(=O)N2Cc2cccc(C=C3CC(=O)NC3=O)c2)cn1

>  <smiles>  (315) 
[H]C(=C1C(=O)N([H])C(=O)C1([H])[H])c1c([H])c([H])c([H])c(C([H])([H])N2C(=O)c3c([H])c([H])nn3C([H])([H])C2([H])c2c([H])nn(C([H])([H])[H])c2[H])c1[H]

$$$$
75:1:2
     RDKit          3D

 51 55  0  0  1  0  0  0  0  0999 V2000
   -2.9561    3.1183    7.7709 C   0  0  0  0  0  0  0  0  0  0  0  0
   -1.8948    2.8467    6.8297 N   0  0  0  0  0  0  0  0  0  0  0  0
   -0.7167    2.1641    7.0227 C   0  0  0  0  0  0  0  0  0  0  0  0
   -0.0512    2.1498    5.8289 C   0  0  0  0  0  0  0  0  0  0  0  0
    1.2918    1.5341    5.5122 C   0  0  2  0  0  0  0  0  0  0  0  0
    2.4408    2.4518    6.0266 C   0  0  0  0  0  0  0  0  0  0  0  0
    2.7295    3.4589    5.0335 N   0  0  0  0  0  0  0  0  0  0  0  0
    3.3370    4.6350    5.2944 N   0  0  0  0  0  0  0  0  0  0  0  0
    3.4160    5.2221    4.0990 C   0  0  0  0  0  0  0  0  0  0  0  0
    2.8858    4.4312    3.0370 C   0  0  0  0  0  0  0  0  0  0  0  0
    2.4986    3.3083    3.6996 C   0  0  0  0  0  0  0  0  0  0  0  0
    1.8828    2.0915    3.1420 C   0  0  0  0  0  0  0  0  0  0  0  0
    1.8362    1.9216    1.9229 O   0  0  0  0  0  0  0  0  0  0  0  0
    1.3873    1.2136    4.0551 N   0  0  0  0  0  0  0  0  0  0  0  0
    0.7412   -0.0369    3.6215 C   0  0  0  0  0  0  0  0  0  0  0  0
    1.7208   -1.1839    3.4268 C   0  0  0  0  0  0  0  0  0  0  0  0
    2.4018   -1.7271    4.5336 C   0  0  0  0  0  0  0  0  0  0  0  0
    3.2973   -2.7954    4.3655 C   0  0  0  0  0  0  0  0  0  0  0  0
    3.5134   -3.3331    3.0853 C   0  0  0  0  0  0  0  0  0  0  0  0
    2.8534   -2.7960    1.9603 C   0  0  0  0  0  0  0  0  0  0  0  0
    3.0844   -3.4018    0.6367 C   0  0  0  0  0  0  0  0  0  0  0  0
    3.4931   -2.7990   -0.5036 C   0  0  0  0  0  0  0  0  0  0  0  0
    3.6297   -3.4671   -1.8433 C   0  0  0  0  0  0  0  0  0  0  0  0
    4.1010   -2.3214   -2.7035 C   0  0  0  0  0  0  0  0  0  0  0  0
    4.3335   -2.3977   -3.9143 O   0  0  0  0  0  0  0  0  0  0  0  0
    4.2277   -1.2375   -1.9356 N   0  0  0  0  0  0  0  0  0  0  0  0
    3.9249   -1.4176   -0.6413 C   0  0  0  0  0  0  0  0  0  0  0  0
    4.0596   -0.5605    0.2285 O   0  0  0  0  0  0  0  0  0  0  0  0
    1.9585   -1.7153    2.1418 C   0  0  0  0  0  0  0  0  0  0  0  0
   -0.9208    2.8753    4.9647 C   0  0  0  0  0  0  0  0  0  0  0  0
   -2.0203    3.2924    5.5668 N   0  0  0  0  0  0  0  0  0  0  0  0
   -2.5969    2.9743    8.7907 H   0  0  0  0  0  0  0  0  0  0  0  0
   -3.7974    2.4478    7.5806 H   0  0  0  0  0  0  0  0  0  0  0  0
   -3.2899    4.1519    7.6673 H   0  0  0  0  0  0  0  0  0  0  0  0
   -0.4514    1.7563    7.9856 H   0  0  0  0  0  0  0  0  0  0  0  0
    1.3990    0.6122    6.0787 H   0  0  0  0  0  0  0  0  0  0  0  0
    2.2039    2.9245    6.9843 H   0  0  0  0  0  0  0  0  0  0  0  0
    3.3519    1.8741    6.1748 H   0  0  0  0  0  0  0  0  0  0  0  0
    3.8596    6.1997    4.0351 H   0  0  0  0  0  0  0  0  0  0  0  0
    2.8018    4.6325    1.9800 H   0  0  0  0  0  0  0  0  0  0  0  0
   -0.0190   -0.3378    4.3429 H   0  0  0  0  0  0  0  0  0  0  0  0
    0.1737    0.1150    2.6998 H   0  0  0  0  0  0  0  0  0  0  0  0
    2.2462   -1.3357    5.5244 H   0  0  0  0  0  0  0  0  0  0  0  0
    3.8034   -3.2091    5.2244 H   0  0  0  0  0  0  0  0  0  0  0  0
    4.1907   -4.1657    2.9668 H   0  0  0  0  0  0  0  0  0  0  0  0
    2.8360   -4.4539    0.5668 H   0  0  0  0  0  0  0  0  0  0  0  0
    4.3646   -4.2698   -1.8145 H   0  0  0  0  0  0  0  0  0  0  0  0
    2.6781   -3.8550   -2.2049 H   0  0  0  0  0  0  0  0  0  0  0  0
    4.5252   -0.3451   -2.2941 H   0  0  0  0  0  0  0  0  0  0  0  0
    1.4494   -1.2984    1.2849 H   0  0  0  0  0  0  0  0  0  0  0  0
   -0.7763    3.1139    3.9206 H   0  0  0  0  0  0  0  0  0  0  0  0
  1  2  1  0
  1 32  1  0
  1 33  1  0
  1 34  1  0
  2 31  1  0
  2  3  1  0
  3  4  2  0
  3 35  1  0
  4  5  1  0
  4 30  1  0
  5 14  1  0
  5  6  1  0
  5 36  1  1
  6  7  1  0
  6 37  1  0
  6 38  1  0
  7 11  1  0
  7  8  1  0
  8  9  2  0
  9 10  1  0
  9 39  1  0
 10 11  2  0
 10 40  1  0
 11 12  1  0
 12 13  2  0
 12 14  1  0
 14 15  1  0
 15 16  1  0
 15 41  1  0
 15 42  1  0
 16 29  1  0
 16 17  2  0
 17 18  1  0
 17 43  1  0
 18 19  2  0
 18 44  1  0
 19 20  1  0
 19 45  1  0
 20 21  1  0
 20 29  2  0
 21 22  2  3
 21 46  1  0
 22 27  1  0
 22 23  1  0
 23 24  1  0
 23 47  1  0
 23 48  1  0
 24 25  2  0
 24 26  1  0
 26 27  1  0
 26 49  1  0
 27 28  2  0
 29 50  1  0
 30 31  2  0
 30 51  1  0
M  END
>  <i_m_ct_stereo_status>  (316) 
1

>  <s_m_source_file>  (316) 
/var/tmp/pbs.5102103.sched01/tmphafng327/110q8crsuru.sdf

>  <i_m_source_file_index>  (316) 
10

>  <i_lp_mmshare_version>  (316) 
48012

>  <i_f3d_flags>  (316) 
0

>  <s_epik_input>  (316) 
W0NIM11uMVtjSF1jKFtjSF1uMSlbQ0BIXShbQ0gyXTIpTihDKD1PKWMobjIzKVtjSF1bY0hdbjMpW0NIMl1jNFtjSF1bY0hdW2NIXWMoW2NIXTQpL1tDSF09QzVcW0NIMl1DKD1PKVtOSF1DNT1P

>  <s_epik_cmdline>  (316) 
J2VwaWtfcHl0aG9uJywgJy1waHQnLCAnMi4wJywgJy1waCcsICc3LjAnLCAnLXRuJywgJzgnLCAnLW1hJywgJzIwMCcsICctaW1hZScsICc8aW5maWxlLm1hZT4nLCAnLW9tYWUnLCAnPG91dGZpbGUubWFlPic=

>  <r_lp_tautomer_probability>  (316) 
1

>  <r_epik_Ionization_Penalty>  (316) 
0.000262287

>  <r_epik_Ionization_Penalty_Charging>  (316) 
0

>  <r_epik_Ionization_Penalty_Neutral>  (316) 
0.000262287

>  <r_epik_State_Penalty>  (316) 
-0

>  <r_epik_Charging_Adjusted_Penalty>  (316) 
0

>  <i_epik_Tot_Q>  (316) 
0

>  <i_epik_Tot_abs_Q>  (316) 
0

>  <s_lp_Force_Field>  (316) 
OPLS3e

>  <r_lp_Energy>  (316) 
37.4337

>  <b_lp_Chiralities_Consistent>  (316) 
1

>  <s_lp_Variant>  (316) 
75:0-2

>  <s_i_glide_gridfile>  (316) 
pfpi4k_grid

>  <i_i_glide_lignum>  (316) 
10

>  <i_i_glide_rotatable_bonds>  (316) 
4

>  <r_i_docking_score>  (316) 
-3.10131

>  <r_i_glide_ligand_efficiency>  (316) 
-0.100042

>  <r_i_glide_ligand_efficiency_sa>  (316) 
-0.314271

>  <r_i_glide_ligand_efficiency_ln>  (316) 
-0.699441

>  <r_i_glide_gscore>  (316) 
-3.10131

>  <r_i_glide_lipo>  (316) 
-0.182719

>  <r_i_glide_hbond>  (316) 
-0.165596

>  <r_i_glide_metal>  (316) 
-0

>  <r_i_glide_rewards>  (316) 
-0.802478

>  <r_i_glide_evdw>  (316) 
-33.1074

>  <r_i_glide_ecoul>  (316) 
-4.0698

>  <r_i_glide_erotb>  (316) 
0.455688

>  <r_i_glide_esite>  (316) 
-0.140366

>  <r_i_glide_emodel>  (316) 
-43.4244

>  <r_i_glide_energy>  (316) 
-37.1772

>  <r_i_glide_einternal>  (316) 
2.83536

>  <r_i_glide_intrahb_reward>  (316) 
-0

>  <i_i_glide_confnum>  (316) 
5

>  <i_i_glide_posenum>  (316) 
30

>  <r_i_glide_eff_state_penalty>  (316) 
0

>  <ligand_id>  (316) 
75

>  <original_smiles>  (316) 
Cn1cc(C2Cn3nccc3C(=O)N2Cc2cccc(C=C3CC(=O)NC3=O)c2)cn1

>  <smiles>  (316) 
[H]C(=C1C(=O)N([H])C(=O)C1([H])[H])c1c([H])c([H])c([H])c(C([H])([H])N2C(=O)c3c([H])c([H])nn3C([H])([H])C2([H])c2c([H])nn(C([H])([H])[H])c2[H])c1[H]

$$$$
76:0:0
     RDKit          3D

 54 57  0  0  1  0  0  0  0  0999 V2000
    2.6894   -2.7429   -3.0876 C   0  0  0  0  0  0  0  0  0  0  0  0
    3.8668   -2.1267   -2.3360 C   0  0  0  0  0  0  0  0  0  0  0  0
    4.0283   -0.9057   -2.3473 O   0  0  0  0  0  0  0  0  0  0  0  0
    4.8601   -3.0767   -1.6087 C   0  0  1  0  0  0  0  0  0  0  0  0
    5.0093   -4.2495   -2.3818 O   0  0  0  0  0  0  0  0  0  0  0  0
    6.2291   -2.3891   -1.4590 C   0  0  0  0  0  0  0  0  0  0  0  0
    6.1715   -1.6072   -0.1284 C   0  0  0  0  0  0  0  0  0  0  0  0
    4.9897   -2.1821    0.6259 C   0  0  0  0  0  0  0  0  0  0  0  0
    4.3720   -1.6317    1.6964 C   0  0  0  0  0  0  0  0  0  0  0  0
    4.8029   -0.3163    2.3214 C   0  0  0  0  0  0  0  0  0  0  0  0
    4.9270   -0.4143    3.8464 C   0  0  0  0  0  0  0  0  0  0  0  0
    3.6386   -0.9704    4.4780 C   0  0  2  0  0  0  0  0  0  0  0  0
    3.6936   -0.9080    6.0214 C   0  0  0  0  0  0  0  0  0  0  0  0
    2.4600   -1.5384    6.6676 C   0  0  0  0  0  0  0  0  0  0  0  0
    1.8984   -1.0244    7.6326 O   0  0  0  0  0  0  0  0  0  0  0  0
    1.9772   -2.8626    6.0866 C   0  0  0  0  0  0  0  0  0  0  0  0
    1.9266   -2.8071    4.5482 C   0  0  0  0  0  0  0  0  0  0  0  0
    3.2763   -2.3785    3.9050 C   0  0  2  0  0  0  0  0  0  0  0  0
    4.3678   -3.4259    4.2608 C   0  0  0  0  0  0  0  0  0  0  0  0
    3.1314   -2.2587    2.3490 C   0  0  2  0  0  0  0  0  0  0  0  0
    2.6827   -3.5798    1.6729 C   0  0  0  0  0  0  0  0  0  0  0  0
    2.9848   -3.6192    0.1682 C   0  0  0  0  0  0  0  0  0  0  0  0
    4.4936   -3.4066   -0.1201 C   0  0  1  0  0  0  0  0  0  0  0  0
    5.2895   -4.6399    0.3956 C   0  0  0  0  0  0  0  0  0  0  0  0
    2.1157   -3.4093   -2.4485 H   0  0  0  0  0  0  0  0  0  0  0  0
    3.0275   -3.3138   -3.9498 H   0  0  0  0  0  0  0  0  0  0  0  0
    2.0206   -1.9565   -3.4316 H   0  0  0  0  0  0  0  0  0  0  0  0
    4.2098   -4.7600   -2.3495 H   0  0  0  0  0  0  0  0  0  0  0  0
    7.0290   -3.1317   -1.4212 H   0  0  0  0  0  0  0  0  0  0  0  0
    6.4659   -1.7579   -2.3132 H   0  0  0  0  0  0  0  0  0  0  0  0
    7.0862   -1.7426    0.4483 H   0  0  0  0  0  0  0  0  0  0  0  0
    6.0173   -0.5426   -0.3068 H   0  0  0  0  0  0  0  0  0  0  0  0
    5.7451    0.0344    1.9000 H   0  0  0  0  0  0  0  0  0  0  0  0
    4.0446    0.4265    2.0718 H   0  0  0  0  0  0  0  0  0  0  0  0
    5.7759   -1.0500    4.0964 H   0  0  0  0  0  0  0  0  0  0  0  0
    5.1480    0.5743    4.2556 H   0  0  0  0  0  0  0  0  0  0  0  0
    2.8375   -0.2882    4.1891 H   0  0  0  0  0  0  0  0  0  0  0  0
    4.5776   -1.4161    6.4048 H   0  0  0  0  0  0  0  0  0  0  0  0
    3.7669    0.1296    6.3485 H   0  0  0  0  0  0  0  0  0  0  0  0
    2.6555   -3.6467    6.4186 H   0  0  0  0  0  0  0  0  0  0  0  0
    0.9976   -3.1030    6.4991 H   0  0  0  0  0  0  0  0  0  0  0  0
    1.6008   -3.7810    4.1772 H   0  0  0  0  0  0  0  0  0  0  0  0
    1.1476   -2.0993    4.2595 H   0  0  0  0  0  0  0  0  0  0  0  0
    4.0110   -4.4442    4.1116 H   0  0  0  0  0  0  0  0  0  0  0  0
    4.6749   -3.3604    5.3038 H   0  0  0  0  0  0  0  0  0  0  0  0
    5.2668   -3.3033    3.6546 H   0  0  0  0  0  0  0  0  0  0  0  0
    2.3435   -1.5349    2.1431 H   0  0  0  0  0  0  0  0  0  0  0  0
    3.1272   -4.4566    2.1379 H   0  0  0  0  0  0  0  0  0  0  0  0
    1.6158   -3.6932    1.8334 H   0  0  0  0  0  0  0  0  0  0  0  0
    2.6521   -4.5592   -0.2729 H   0  0  0  0  0  0  0  0  0  0  0  0
    2.3831   -2.8301   -0.2791 H   0  0  0  0  0  0  0  0  0  0  0  0
    4.9231   -5.5681   -0.0441 H   0  0  0  0  0  0  0  0  0  0  0  0
    5.2148   -4.7412    1.4789 H   0  0  0  0  0  0  0  0  0  0  0  0
    6.3546   -4.5717    0.1737 H   0  0  0  0  0  0  0  0  0  0  0  0
  1  2  1  0
  1 25  1  0
  1 26  1  0
  1 27  1  0
  2  3  2  0
  2  4  1  0
  4 23  1  0
  4  5  1  6
  4  6  1  0
  5 28  1  0
  6  7  1  0
  6 29  1  0
  6 30  1  0
  7  8  1  0
  7 31  1  0
  7 32  1  0
  8 23  1  0
  8  9  2  0
  9 20  1  0
  9 10  1  0
 10 11  1  0
 10 33  1  0
 10 34  1  0
 11 12  1  0
 11 35  1  0
 11 36  1  0
 12 18  1  0
 12 13  1  0
 12 37  1  6
 13 14  1  0
 13 38  1  0
 13 39  1  0
 14 15  2  0
 14 16  1  0
 16 17  1  0
 16 40  1  0
 16 41  1  0
 17 18  1  0
 17 42  1  0
 17 43  1  0
 18 19  1  6
 18 20  1  0
 19 44  1  0
 19 45  1  0
 19 46  1  0
 20 21  1  0
 20 47  1  1
 21 22  1  0
 21 48  1  0
 21 49  1  0
 22 23  1  0
 22 50  1  0
 22 51  1  0
 23 24  1  1
 24 52  1  0
 24 53  1  0
 24 54  1  0
M  END
>  <i_m_ct_stereo_status>  (317) 
1

>  <s_m_source_file>  (317) 
/var/tmp/pbs.5102103.sched01/tmphafng327/110q8crsuru.sdf

>  <i_m_source_file_index>  (317) 
11

>  <i_lp_mmshare_version>  (317) 
48012

>  <i_f3d_flags>  (317) 
0

>  <s_epik_input>  (317) 
W0NIM11DKD1PKVtDQEBdKFtPSF0pKFtDSDJdW0NIMl0xKVtDQF0oW0NIM10pKFtDSDJdW0NIMl1bQ0BIXTIzKUMxPUMyW0NIMl1bQ0gyXVtDQEBIXShbQ0BdMzRbQ0gzXSlbQ0gyXUMoPU8pW0NIMl1bQ0gyXTQ=

>  <s_epik_cmdline>  (317) 
J2VwaWtfcHl0aG9uJywgJy1waHQnLCAnMi4wJywgJy1waCcsICc3LjAnLCAnLXRuJywgJzgnLCAnLW1hJywgJzIwMCcsICctaW1hZScsICc8aW5maWxlLm1hZT4nLCAnLW9tYWUnLCAnPG91dGZpbGUubWFlPic=

>  <r_lp_tautomer_probability>  (317) 
1

>  <r_epik_Ionization_Penalty>  (317) 
2.26118e-08

>  <r_epik_Ionization_Penalty_Charging>  (317) 
0

>  <r_epik_Ionization_Penalty_Neutral>  (317) 
2.26118e-08

>  <r_epik_State_Penalty>  (317) 
-0

>  <r_epik_Charging_Adjusted_Penalty>  (317) 
0

>  <i_epik_Tot_Q>  (317) 
0

>  <i_epik_Tot_abs_Q>  (317) 
0

>  <s_lp_Force_Field>  (317) 
OPLS3e

>  <r_lp_Energy>  (317) 
28.6993

>  <b_lp_Chiralities_Consistent>  (317) 
1

>  <s_lp_Variant>  (317) 
76:0-1

>  <s_i_glide_gridfile>  (317) 
pfpi4k_grid

>  <i_i_glide_lignum>  (317) 
11

>  <i_i_glide_rotatable_bonds>  (317) 
2

>  <r_i_docking_score>  (317) 
-3.55142

>  <r_i_glide_ligand_efficiency>  (317) 
-0.147976

>  <r_i_glide_ligand_efficiency_sa>  (317) 
-0.426836

>  <r_i_glide_ligand_efficiency_ln>  (317) 
-0.850018

>  <r_i_glide_gscore>  (317) 
-3.55142

>  <r_i_glide_lipo>  (317) 
-0.46598

>  <r_i_glide_hbond>  (317) 
0

>  <r_i_glide_metal>  (317) 
-0

>  <r_i_glide_rewards>  (317) 
-1.15595

>  <r_i_glide_evdw>  (317) 
-24.7243

>  <r_i_glide_ecoul>  (317) 
-4.54724

>  <r_i_glide_erotb>  (317) 
0

>  <r_i_glide_esite>  (317) 
-0.011193

>  <r_i_glide_emodel>  (317) 
-34.1376

>  <r_i_glide_energy>  (317) 
-29.2715

>  <r_i_glide_einternal>  (317) 
2.10334

>  <r_i_glide_intrahb_reward>  (317) 
-0

>  <i_i_glide_confnum>  (317) 
2

>  <i_i_glide_posenum>  (317) 
34

>  <r_i_glide_eff_state_penalty>  (317) 
0

>  <ligand_id>  (317) 
76

>  <original_smiles>  (317) 
CC(=O)C1(O)CCC2=C3CCC4CC(=O)CCC4(C)C3CCC21C

>  <smiles>  (317) 
[H]OC1(C(=O)C([H])([H])[H])C([H])([H])C([H])([H])C2=C3C([H])([H])C([H])([H])C4([H])C([H])([H])C(=O)C([H])([H])C([H])([H])C4(C([H])([H])[H])C3([H])C([H])([H])C([H])([H])C21C([H])([H])[H]

$$$$
76:0:1
     RDKit          3D

 54 57  0  0  1  0  0  0  0  0999 V2000
    7.5976   -7.2360    4.5073 C   0  0  0  0  0  0  0  0  0  0  0  0
    6.8824   -6.2268    3.6140 C   0  0  0  0  0  0  0  0  0  0  0  0
    7.5488   -5.4650    2.9248 O   0  0  0  0  0  0  0  0  0  0  0  0
    5.3239   -6.1935    3.6144 C   0  0  1  0  0  0  0  0  0  0  0  0
    4.8288   -7.4453    4.0546 O   0  0  0  0  0  0  0  0  0  0  0  0
    4.8578   -5.0855    4.5979 C   0  0  0  0  0  0  0  0  0  0  0  0
    4.7606   -3.7888    3.7665 C   0  0  0  0  0  0  0  0  0  0  0  0
    4.7771   -4.2271    2.3188 C   0  0  0  0  0  0  0  0  0  0  0  0
    5.0099   -3.4373    1.2425 C   0  0  0  0  0  0  0  0  0  0  0  0
    5.2851   -1.9415    1.3430 C   0  0  0  0  0  0  0  0  0  0  0  0
    4.4478   -1.1309    0.3436 C   0  0  0  0  0  0  0  0  0  0  0  0
    4.6190   -1.6753   -1.0907 C   0  0  2  0  0  0  0  0  0  0  0  0
    3.9041   -0.7860   -2.1333 C   0  0  0  0  0  0  0  0  0  0  0  0
    3.9660   -1.3334   -3.5481 C   0  0  0  0  0  0  0  0  0  0  0  0
    4.1895   -0.6132   -4.5215 O   0  0  0  0  0  0  0  0  0  0  0  0
    3.7106   -2.8178   -3.7051 C   0  0  0  0  0  0  0  0  0  0  0  0
    4.5275   -3.5991   -2.6627 C   0  0  0  0  0  0  0  0  0  0  0  0
    4.2252   -3.1813   -1.1955 C   0  0  2  0  0  0  0  0  0  0  0  0
    2.7183   -3.3911   -0.8709 C   0  0  0  0  0  0  0  0  0  0  0  0
    5.0930   -3.9925   -0.1813 C   0  0  2  0  0  0  0  0  0  0  0  0
    4.8378   -5.5192   -0.2618 C   0  0  0  0  0  0  0  0  0  0  0  0
    5.3087   -6.2945    0.9739 C   0  0  0  0  0  0  0  0  0  0  0  0
    4.6558   -5.7375    2.2691 C   0  0  1  0  0  0  0  0  0  0  0  0
    3.1400   -6.0973    2.2491 C   0  0  0  0  0  0  0  0  0  0  0  0
    7.2379   -8.2482    4.3242 H   0  0  0  0  0  0  0  0  0  0  0  0
    7.4526   -6.9872    5.5593 H   0  0  0  0  0  0  0  0  0  0  0  0
    8.6654   -7.2115    4.2845 H   0  0  0  0  0  0  0  0  0  0  0  0
    3.8852   -7.4055    4.0856 H   0  0  0  0  0  0  0  0  0  0  0  0
    3.8743   -5.3263    5.0014 H   0  0  0  0  0  0  0  0  0  0  0  0
    5.5157   -4.9668    5.4583 H   0  0  0  0  0  0  0  0  0  0  0  0
    3.8325   -3.2524    3.9812 H   0  0  0  0  0  0  0  0  0  0  0  0
    5.6027   -3.1303    3.9754 H   0  0  0  0  0  0  0  0  0  0  0  0
    5.1173   -1.5697    2.3531 H   0  0  0  0  0  0  0  0  0  0  0  0
    6.3438   -1.7923    1.1178 H   0  0  0  0  0  0  0  0  0  0  0  0
    3.3968   -1.1778    0.6386 H   0  0  0  0  0  0  0  0  0  0  0  0
    4.7338   -0.0771    0.3828 H   0  0  0  0  0  0  0  0  0  0  0  0
    5.6838   -1.6012   -1.3231 H   0  0  0  0  0  0  0  0  0  0  0  0
    2.8478   -0.6935   -1.8777 H   0  0  0  0  0  0  0  0  0  0  0  0
    4.3409    0.2111   -2.1298 H   0  0  0  0  0  0  0  0  0  0  0  0
    2.6378   -2.9896   -3.5916 H   0  0  0  0  0  0  0  0  0  0  0  0
    3.9730   -3.1243   -4.7141 H   0  0  0  0  0  0  0  0  0  0  0  0
    4.3381   -4.6503   -2.8315 H   0  0  0  0  0  0  0  0  0  0  0  0
    5.5893   -3.4639   -2.8771 H   0  0  0  0  0  0  0  0  0  0  0  0
    2.3571   -4.3702   -1.1783 H   0  0  0  0  0  0  0  0  0  0  0  0
    2.0973   -2.6690   -1.3955 H   0  0  0  0  0  0  0  0  0  0  0  0
    2.5036   -3.2938    0.1943 H   0  0  0  0  0  0  0  0  0  0  0  0
    6.1392   -3.8459   -0.4579 H   0  0  0  0  0  0  0  0  0  0  0  0
    3.7892   -5.7563   -0.4204 H   0  0  0  0  0  0  0  0  0  0  0  0
    5.3674   -5.8785   -1.1267 H   0  0  0  0  0  0  0  0  0  0  0  0
    5.0982   -7.3623    0.8784 H   0  0  0  0  0  0  0  0  0  0  0  0
    6.3915   -6.2083    0.9606 H   0  0  0  0  0  0  0  0  0  0  0  0
    2.9850   -7.1722    2.1260 H   0  0  0  0  0  0  0  0  0  0  0  0
    2.6256   -5.6063    1.4217 H   0  0  0  0  0  0  0  0  0  0  0  0
    2.6151   -5.7824    3.1529 H   0  0  0  0  0  0  0  0  0  0  0  0
  1  2  1  0
  1 25  1  0
  1 26  1  0
  1 27  1  0
  2  3  2  0
  2  4  1  0
  4 23  1  0
  4  5  1  1
  4  6  1  0
  5 28  1  0
  6  7  1  0
  6 29  1  0
  6 30  1  0
  7  8  1  0
  7 31  1  0
  7 32  1  0
  8 23  1  0
  8  9  2  0
  9 20  1  0
  9 10  1  0
 10 11  1  0
 10 33  1  0
 10 34  1  0
 11 12  1  0
 11 35  1  0
 11 36  1  0
 12 18  1  0
 12 13  1  0
 12 37  1  6
 13 14  1  0
 13 38  1  0
 13 39  1  0
 14 15  2  0
 14 16  1  0
 16 17  1  0
 16 40  1  0
 16 41  1  0
 17 18  1  0
 17 42  1  0
 17 43  1  0
 18 19  1  1
 18 20  1  0
 19 44  1  0
 19 45  1  0
 19 46  1  0
 20 21  1  0
 20 47  1  6
 21 22  1  0
 21 48  1  0
 21 49  1  0
 22 23  1  0
 22 50  1  0
 22 51  1  0
 23 24  1  1
 24 52  1  0
 24 53  1  0
 24 54  1  0
M  END
>  <i_m_ct_stereo_status>  (318) 
1

>  <s_m_source_file>  (318) 
/var/tmp/pbs.5102103.sched01/tmphafng327/110q8crsuru.sdf

>  <i_m_source_file_index>  (318) 
11

>  <i_lp_mmshare_version>  (318) 
48012

>  <i_f3d_flags>  (318) 
0

>  <s_epik_input>  (318) 
W0NIM11DKD1PKVtDQEBdKFtPSF0pKFtDSDJdW0NIMl0xKVtDQF0oW0NIM10pKFtDSDJdW0NIMl1bQ0BIXTIzKUMxPUMyW0NIMl1bQ0gyXVtDQEBIXShbQ0BdMzRbQ0gzXSlbQ0gyXUMoPU8pW0NIMl1bQ0gyXTQ=

>  <s_epik_cmdline>  (318) 
J2VwaWtfcHl0aG9uJywgJy1waHQnLCAnMi4wJywgJy1waCcsICc3LjAnLCAnLXRuJywgJzgnLCAnLW1hJywgJzIwMCcsICctaW1hZScsICc8aW5maWxlLm1hZT4nLCAnLW9tYWUnLCAnPG91dGZpbGUubWFlPic=

>  <r_lp_tautomer_probability>  (318) 
1

>  <r_epik_Ionization_Penalty>  (318) 
2.26118e-08

>  <r_epik_Ionization_Penalty_Charging>  (318) 
0

>  <r_epik_Ionization_Penalty_Neutral>  (318) 
2.26118e-08

>  <r_epik_State_Penalty>  (318) 
-0

>  <r_epik_Charging_Adjusted_Penalty>  (318) 
0

>  <i_epik_Tot_Q>  (318) 
0

>  <i_epik_Tot_abs_Q>  (318) 
0

>  <s_lp_Force_Field>  (318) 
OPLS3e

>  <r_lp_Energy>  (318) 
28.6993

>  <b_lp_Chiralities_Consistent>  (318) 
1

>  <s_lp_Variant>  (318) 
76:0-1

>  <s_i_glide_gridfile>  (318) 
pfpi4k_grid

>  <i_i_glide_lignum>  (318) 
11

>  <i_i_glide_rotatable_bonds>  (318) 
2

>  <r_i_docking_score>  (318) 
-3.39177

>  <r_i_glide_ligand_efficiency>  (318) 
-0.141324

>  <r_i_glide_ligand_efficiency_sa>  (318) 
-0.407649

>  <r_i_glide_ligand_efficiency_ln>  (318) 
-0.811807

>  <r_i_glide_gscore>  (318) 
-3.39177

>  <r_i_glide_lipo>  (318) 
-0.507396

>  <r_i_glide_hbond>  (318) 
-0.0143781

>  <r_i_glide_metal>  (318) 
-0

>  <r_i_glide_rewards>  (318) 
-1.44436

>  <r_i_glide_evdw>  (318) 
-22.7237

>  <r_i_glide_ecoul>  (318) 
-1.92968

>  <r_i_glide_erotb>  (318) 
0

>  <r_i_glide_esite>  (318) 
0

>  <r_i_glide_emodel>  (318) 
-29.6559

>  <r_i_glide_energy>  (318) 
-24.6534

>  <r_i_glide_einternal>  (318) 
1.1508

>  <r_i_glide_intrahb_reward>  (318) 
-0

>  <i_i_glide_confnum>  (318) 
1

>  <i_i_glide_posenum>  (318) 
29

>  <r_i_glide_eff_state_penalty>  (318) 
0

>  <ligand_id>  (318) 
76

>  <original_smiles>  (318) 
CC(=O)C1(O)CCC2=C3CCC4CC(=O)CCC4(C)C3CCC21C

>  <smiles>  (318) 
[H]OC1(C(=O)C([H])([H])[H])C([H])([H])C([H])([H])C2=C3C([H])([H])C([H])([H])C4([H])C([H])([H])C(=O)C([H])([H])C([H])([H])C4(C([H])([H])[H])C3([H])C([H])([H])C([H])([H])C21C([H])([H])[H]

$$$$
76:0:2
     RDKit          3D

 54 57  0  0  1  0  0  0  0  0999 V2000
    0.7575   -5.2835    4.5428 C   0  0  0  0  0  0  0  0  0  0  0  0
    1.1578   -4.2471    5.5908 C   0  0  0  0  0  0  0  0  0  0  0  0
    0.2785   -3.7357    6.2847 O   0  0  0  0  0  0  0  0  0  0  0  0
    2.6585   -3.8489    5.7480 C   0  0  1  0  0  0  0  0  0  0  0  0
    2.7982   -3.0406    6.9081 O   0  0  0  0  0  0  0  0  0  0  0  0
    3.5266   -5.1246    5.8938 C   0  0  0  0  0  0  0  0  0  0  0  0
    3.9474   -5.5259    4.4579 C   0  0  0  0  0  0  0  0  0  0  0  0
    3.6478   -4.3117    3.5948 C   0  0  0  0  0  0  0  0  0  0  0  0
    3.5417   -4.2869    2.2468 C   0  0  0  0  0  0  0  0  0  0  0  0
    3.7214   -5.5197    1.3716 C   0  0  0  0  0  0  0  0  0  0  0  0
    4.6678   -5.2604    0.1952 C   0  0  0  0  0  0  0  0  0  0  0  0
    4.2296   -4.0222   -0.6088 C   0  0  2  0  0  0  0  0  0  0  0  0
    5.0742   -3.8544   -1.8905 C   0  0  0  0  0  0  0  0  0  0  0  0
    4.7007   -2.5997   -2.6708 C   0  0  0  0  0  0  0  0  0  0  0  0
    4.5958   -2.6021   -3.8908 O   0  0  0  0  0  0  0  0  0  0  0  0
    4.5215   -1.3231   -1.8531 C   0  0  0  0  0  0  0  0  0  0  0  0
    3.6493   -1.5898   -0.6160 C   0  0  0  0  0  0  0  0  0  0  0  0
    4.1687   -2.7431    0.2841 C   0  0  2  0  0  0  0  0  0  0  0  0
    5.5705   -2.3699    0.8339 C   0  0  0  0  0  0  0  0  0  0  0  0
    3.1724   -3.0151    1.4654 C   0  0  2  0  0  0  0  0  0  0  0  0
    2.9169   -1.7785    2.3714 C   0  0  0  0  0  0  0  0  0  0  0  0
    2.3726   -2.1451    3.7602 C   0  0  0  0  0  0  0  0  0  0  0  0
    3.3020   -3.1462    4.5006 C   0  0  1  0  0  0  0  0  0  0  0  0
    4.6322   -2.4316    4.8755 C   0  0  0  0  0  0  0  0  0  0  0  0
    1.2986   -6.2175    4.6859 H   0  0  0  0  0  0  0  0  0  0  0  0
    0.9633   -4.9043    3.5437 H   0  0  0  0  0  0  0  0  0  0  0  0
   -0.3057   -5.5082    4.6165 H   0  0  0  0  0  0  0  0  0  0  0  0
    3.7160   -2.8466    7.0270 H   0  0  0  0  0  0  0  0  0  0  0  0
    4.4227   -4.9117    6.4788 H   0  0  0  0  0  0  0  0  0  0  0  0
    3.0171   -5.9331    6.4192 H   0  0  0  0  0  0  0  0  0  0  0  0
    5.0086   -5.7771    4.4088 H   0  0  0  0  0  0  0  0  0  0  0  0
    3.3817   -6.3903    4.1083 H   0  0  0  0  0  0  0  0  0  0  0  0
    4.0797   -6.3734    1.9471 H   0  0  0  0  0  0  0  0  0  0  0  0
    2.7380   -5.7927    0.9861 H   0  0  0  0  0  0  0  0  0  0  0  0
    5.6820   -5.1293    0.5735 H   0  0  0  0  0  0  0  0  0  0  0  0
    4.6895   -6.1383   -0.4540 H   0  0  0  0  0  0  0  0  0  0  0  0
    3.2178   -4.2321   -0.9580 H   0  0  0  0  0  0  0  0  0  0  0  0
    6.1364   -3.8166   -1.6621 H   0  0  0  0  0  0  0  0  0  0  0  0
    4.9280   -4.7159   -2.5437 H   0  0  0  0  0  0  0  0  0  0  0  0
    5.5034   -0.9583   -1.5541 H   0  0  0  0  0  0  0  0  0  0  0  0
    4.0685   -0.5507   -2.4778 H   0  0  0  0  0  0  0  0  0  0  0  0
    3.5341   -0.6615   -0.0512 H   0  0  0  0  0  0  0  0  0  0  0  0
    2.6536   -1.8588   -0.9678 H   0  0  0  0  0  0  0  0  0  0  0  0
    5.5850   -1.3475    1.2195 H   0  0  0  0  0  0  0  0  0  0  0  0
    6.3359   -2.4184    0.0602 H   0  0  0  0  0  0  0  0  0  0  0  0
    5.8832   -3.0318    1.6416 H   0  0  0  0  0  0  0  0  0  0  0  0
    2.2073   -3.2576    1.0221 H   0  0  0  0  0  0  0  0  0  0  0  0
    3.8206   -1.1889    2.5014 H   0  0  0  0  0  0  0  0  0  0  0  0
    2.2095   -1.1093    1.8777 H   0  0  0  0  0  0  0  0  0  0  0  0
    2.2372   -1.2479    4.3643 H   0  0  0  0  0  0  0  0  0  0  0  0
    1.3769   -2.5549    3.6075 H   0  0  0  0  0  0  0  0  0  0  0  0
    4.4560   -1.5261    5.4589 H   0  0  0  0  0  0  0  0  0  0  0  0
    5.1910   -2.1361    3.9857 H   0  0  0  0  0  0  0  0  0  0  0  0
    5.3024   -3.0720    5.4481 H   0  0  0  0  0  0  0  0  0  0  0  0
  1  2  1  0
  1 25  1  0
  1 26  1  0
  1 27  1  0
  2  3  2  0
  2  4  1  0
  4 23  1  0
  4  5  1  1
  4  6  1  0
  5 28  1  0
  6  7  1  0
  6 29  1  0
  6 30  1  0
  7  8  1  0
  7 31  1  0
  7 32  1  0
  8 23  1  0
  8  9  2  0
  9 20  1  0
  9 10  1  0
 10 11  1  0
 10 33  1  0
 10 34  1  0
 11 12  1  0
 11 35  1  0
 11 36  1  0
 12 18  1  0
 12 13  1  0
 12 37  1  6
 13 14  1  0
 13 38  1  0
 13 39  1  0
 14 15  2  0
 14 16  1  0
 16 17  1  0
 16 40  1  0
 16 41  1  0
 17 18  1  0
 17 42  1  0
 17 43  1  0
 18 19  1  1
 18 20  1  0
 19 44  1  0
 19 45  1  0
 19 46  1  0
 20 21  1  0
 20 47  1  6
 21 22  1  0
 21 48  1  0
 21 49  1  0
 22 23  1  0
 22 50  1  0
 22 51  1  0
 23 24  1  1
 24 52  1  0
 24 53  1  0
 24 54  1  0
M  END
>  <i_m_ct_stereo_status>  (319) 
1

>  <s_m_source_file>  (319) 
/var/tmp/pbs.5102103.sched01/tmphafng327/110q8crsuru.sdf

>  <i_m_source_file_index>  (319) 
11

>  <i_lp_mmshare_version>  (319) 
48012

>  <i_f3d_flags>  (319) 
0

>  <s_epik_input>  (319) 
W0NIM11DKD1PKVtDQEBdKFtPSF0pKFtDSDJdW0NIMl0xKVtDQF0oW0NIM10pKFtDSDJdW0NIMl1bQ0BIXTIzKUMxPUMyW0NIMl1bQ0gyXVtDQEBIXShbQ0BdMzRbQ0gzXSlbQ0gyXUMoPU8pW0NIMl1bQ0gyXTQ=

>  <s_epik_cmdline>  (319) 
J2VwaWtfcHl0aG9uJywgJy1waHQnLCAnMi4wJywgJy1waCcsICc3LjAnLCAnLXRuJywgJzgnLCAnLW1hJywgJzIwMCcsICctaW1hZScsICc8aW5maWxlLm1hZT4nLCAnLW9tYWUnLCAnPG91dGZpbGUubWFlPic=

>  <r_lp_tautomer_probability>  (319) 
1

>  <r_epik_Ionization_Penalty>  (319) 
2.26118e-08

>  <r_epik_Ionization_Penalty_Charging>  (319) 
0

>  <r_epik_Ionization_Penalty_Neutral>  (319) 
2.26118e-08

>  <r_epik_State_Penalty>  (319) 
-0

>  <r_epik_Charging_Adjusted_Penalty>  (319) 
0

>  <i_epik_Tot_Q>  (319) 
0

>  <i_epik_Tot_abs_Q>  (319) 
0

>  <s_lp_Force_Field>  (319) 
OPLS3e

>  <r_lp_Energy>  (319) 
28.6993

>  <b_lp_Chiralities_Consistent>  (319) 
1

>  <s_lp_Variant>  (319) 
76:0-1

>  <s_i_glide_gridfile>  (319) 
pfpi4k_grid

>  <i_i_glide_lignum>  (319) 
11

>  <i_i_glide_rotatable_bonds>  (319) 
2

>  <r_i_docking_score>  (319) 
-3.26477

>  <r_i_glide_ligand_efficiency>  (319) 
-0.136032

>  <r_i_glide_ligand_efficiency_sa>  (319) 
-0.392385

>  <r_i_glide_ligand_efficiency_ln>  (319) 
-0.78141

>  <r_i_glide_gscore>  (319) 
-3.26477

>  <r_i_glide_lipo>  (319) 
-0.135034

>  <r_i_glide_hbond>  (319) 
-0.101369

>  <r_i_glide_metal>  (319) 
-0

>  <r_i_glide_rewards>  (319) 
-1.33566

>  <r_i_glide_evdw>  (319) 
-22.6815

>  <r_i_glide_ecoul>  (319) 
-3.7242

>  <r_i_glide_erotb>  (319) 
0

>  <r_i_glide_esite>  (319) 
0

>  <r_i_glide_emodel>  (319) 
-31.8502

>  <r_i_glide_energy>  (319) 
-26.4057

>  <r_i_glide_einternal>  (319) 
0.190863

>  <r_i_glide_intrahb_reward>  (319) 
-0

>  <i_i_glide_confnum>  (319) 
2

>  <i_i_glide_posenum>  (319) 
32

>  <r_i_glide_eff_state_penalty>  (319) 
0

>  <ligand_id>  (319) 
76

>  <original_smiles>  (319) 
CC(=O)C1(O)CCC2=C3CCC4CC(=O)CCC4(C)C3CCC21C

>  <smiles>  (319) 
[H]OC1(C(=O)C([H])([H])[H])C([H])([H])C([H])([H])C2=C3C([H])([H])C([H])([H])C4([H])C([H])([H])C(=O)C([H])([H])C([H])([H])C4(C([H])([H])[H])C3([H])C([H])([H])C([H])([H])C21C([H])([H])[H]

$$$$
77:0:0
     RDKit          3D

 57 59  0  0  1  0  0  0  0  0999 V2000
    2.7912    0.1991    1.4542 C   0  0  0  0  0  0  0  0  0  0  0  0
    2.0491   -0.8242    2.3327 C   0  0  0  0  0  0  0  0  0  0  0  0
    1.7190   -0.3802    3.7732 C   0  0  0  0  0  0  0  0  0  0  0  0
    0.6114    0.6925    3.8261 C   0  0  0  0  0  0  0  0  0  0  0  0
   -0.6573    0.4654    4.2249 C   0  0  0  0  0  0  0  0  0  0  0  0
   -1.1926   -0.8744    4.7080 C   0  0  0  0  0  0  0  0  0  0  0  0
   -1.7182    1.5642    4.2762 C   0  0  0  0  0  0  0  0  0  0  0  0
   -1.3320    2.8511    3.6989 N   0  0  0  0  0  0  0  0  0  0  0  0
   -2.2311    3.7062    3.1387 C   0  0  0  0  0  0  0  0  0  0  0  0
   -3.6642    3.2074    2.8014 C   0  0  0  0  0  0  0  0  0  0  0  0
   -1.9824    4.8723    2.8852 O   0  0  0  0  0  0  0  0  0  0  0  0
    0.1011    3.2311    3.8897 C   0  0  1  0  0  0  0  0  0  0  0  0
    0.4080    3.6356    5.3638 C   0  0  2  0  0  0  0  0  0  0  0  0
    0.1592    2.5242    6.2053 O   0  0  0  0  0  0  0  0  0  0  0  0
    0.0261    2.9493    7.5083 C   0  0  2  0  0  0  0  0  0  0  0  0
   -1.0725    2.3839    8.1414 O   0  0  0  0  0  0  0  0  0  0  0  0
   -1.6830    3.4030    8.8566 C   0  0  0  0  0  0  0  0  0  0  0  0
   -3.1622    3.0620    9.0726 C   0  0  0  0  0  0  0  0  0  0  0  0
   -0.9422    3.6007   10.1993 C   0  0  0  0  0  0  0  0  0  0  0  0
   -1.5950    4.5647    8.1087 O   0  0  0  0  0  0  0  0  0  0  0  0
   -0.3355    4.4526    7.4430 C   0  0  2  0  0  0  0  0  0  0  0  0
   -0.4016    4.7823    5.9466 C   0  0  1  0  0  0  0  0  0  0  0  0
    0.1843    6.0813    5.7077 O   0  0  0  0  0  0  0  0  0  0  0  0
    0.4480    6.4587    4.3488 C   0  0  0  0  0  0  0  0  0  0  0  0
    1.0372    2.1104    3.3963 C   0  0  1  0  0  0  0  0  0  0  0  0
    2.3755    2.3922    3.7997 O   0  0  0  0  0  0  0  0  0  0  0  0
    3.1657   -0.2720    0.5391 H   0  0  0  0  0  0  0  0  0  0  0  0
    3.6723    0.5583    1.9793 H   0  0  0  0  0  0  0  0  0  0  0  0
    2.1784    1.0770    1.2087 H   0  0  0  0  0  0  0  0  0  0  0  0
    1.1368   -1.1070    1.8382 H   0  0  0  0  0  0  0  0  0  0  0  0
    2.6409   -1.7307    2.3996 H   0  0  0  0  0  0  0  0  0  0  0  0
    1.4088   -1.2577    4.3446 H   0  0  0  0  0  0  0  0  0  0  0  0
    2.6225   -0.0089    4.2712 H   0  0  0  0  0  0  0  0  0  0  0  0
   -2.2680   -0.9752    4.5118 H   0  0  0  0  0  0  0  0  0  0  0  0
   -1.0814   -0.9028    5.7940 H   0  0  0  0  0  0  0  0  0  0  0  0
   -0.6403   -1.7287    4.2809 H   0  0  0  0  0  0  0  0  0  0  0  0
   -2.5894    1.1511    3.7826 H   0  0  0  0  0  0  0  0  0  0  0  0
   -2.0165    1.7434    5.3038 H   0  0  0  0  0  0  0  0  0  0  0  0
   -4.1449    2.7648    3.6816 H   0  0  0  0  0  0  0  0  0  0  0  0
   -3.6371    2.4939    1.9756 H   0  0  0  0  0  0  0  0  0  0  0  0
   -4.2901    4.0378    2.4773 H   0  0  0  0  0  0  0  0  0  0  0  0
    0.3024    4.0776    3.2412 H   0  0  0  0  0  0  0  0  0  0  0  0
    1.4478    3.9196    5.5146 H   0  0  0  0  0  0  0  0  0  0  0  0
    0.9466    2.7574    8.0757 H   0  0  0  0  0  0  0  0  0  0  0  0
   -3.6810    2.9391    8.1269 H   0  0  0  0  0  0  0  0  0  0  0  0
   -3.6358    3.8675    9.6352 H   0  0  0  0  0  0  0  0  0  0  0  0
   -3.2463    2.1427    9.6554 H   0  0  0  0  0  0  0  0  0  0  0  0
    0.1056    3.8704   10.0531 H   0  0  0  0  0  0  0  0  0  0  0  0
   -0.9743    2.6812   10.7761 H   0  0  0  0  0  0  0  0  0  0  0  0
   -1.4180    4.4011   10.7668 H   0  0  0  0  0  0  0  0  0  0  0  0
    0.4612    5.0116    7.9430 H   0  0  0  0  0  0  0  0  0  0  0  0
   -1.4328    4.7185    5.6143 H   0  0  0  0  0  0  0  0  0  0  0  0
    0.7382    7.5159    4.2978 H   0  0  0  0  0  0  0  0  0  0  0  0
   -0.4217    6.3274    3.7456 H   0  0  0  0  0  0  0  0  0  0  0  0
    1.2553    5.8560    3.9185 H   0  0  0  0  0  0  0  0  0  0  0  0
    0.9923    2.1826    2.3108 H   0  0  0  0  0  0  0  0  0  0  0  0
    2.7927    3.0153    3.2177 H   0  0  0  0  0  0  0  0  0  0  0  0
  1  2  1  0
  1 27  1  0
  1 28  1  0
  1 29  1  0
  2  3  1  0
  2 30  1  0
  2 31  1  0
  3  4  1  0
  3 32  1  0
  3 33  1  0
  4 25  1  0
  4  5  2  0
  5  6  1  0
  5  7  1  0
  6 34  1  0
  6 35  1  0
  6 36  1  0
  7  8  1  0
  7 37  1  0
  7 38  1  0
  8  9  1  0
  8 12  1  0
  9 10  1  0
  9 11  2  0
 10 39  1  0
 10 40  1  0
 10 41  1  0
 12 13  1  0
 12 25  1  0
 12 42  1  6
 13 22  1  0
 13 14  1  0
 13 43  1  6
 14 15  1  0
 15 21  1  0
 15 16  1  0
 15 44  1  1
 16 17  1  0
 17 18  1  0
 17 19  1  0
 17 20  1  0
 18 45  1  0
 18 46  1  0
 18 47  1  0
 19 48  1  0
 19 49  1  0
 19 50  1  0
 20 21  1  0
 21 22  1  0
 21 51  1  1
 22 23  1  0
 22 52  1  6
 23 24  1  0
 24 53  1  0
 24 54  1  0
 24 55  1  0
 25 26  1  0
 25 56  1  6
 26 57  1  0
M  END
>  <i_m_ct_stereo_status>  (320) 
1

>  <s_m_source_file>  (320) 
/var/tmp/pbs.5102103.sched01/tmphafng327/110q8crsuru.sdf

>  <i_m_source_file_index>  (320) 
12

>  <i_lp_mmshare_version>  (320) 
48012

>  <i_f3d_flags>  (320) 
0

>  <s_epik_input>  (320) 
W0NIM11bQ0gyXVtDSDJdQzE9QyhbQ0gzXSlbQ0gyXU4oQyg9TylbQ0gzXSlbQ0BIXShbQ0BIXTFbT0hdKVtDQEhdKE8yKVtDQEhdKE9bQ0gzXSlbQ0BIXShbQ0BIXTIzKU9DKE8zKShbQ0gzXSlbQ0gzXQ==

>  <s_epik_cmdline>  (320) 
J2VwaWtfcHl0aG9uJywgJy1waHQnLCAnMi4wJywgJy1waCcsICc3LjAnLCAnLXRuJywgJzgnLCAnLW1hJywgJzIwMCcsICctaW1hZScsICc8aW5maWxlLm1hZT4nLCAnLW9tYWUnLCAnPG91dGZpbGUubWFlPic=

>  <r_lp_tautomer_probability>  (320) 
1

>  <r_epik_Ionization_Penalty>  (320) 
3.12091e-07

>  <r_epik_Ionization_Penalty_Charging>  (320) 
0

>  <r_epik_Ionization_Penalty_Neutral>  (320) 
3.12091e-07

>  <r_epik_State_Penalty>  (320) 
-0

>  <r_epik_Charging_Adjusted_Penalty>  (320) 
0

>  <i_epik_Tot_Q>  (320) 
0

>  <i_epik_Tot_abs_Q>  (320) 
0

>  <s_epik_Chemistry_Notes>  (320) 
This compound contains an acetal/aminal-like group ( X-CH(R)-Y where X, Y are N, S, or O) that may be acid/base labile, releasing an aldehyde.

>  <s_lp_Force_Field>  (320) 
OPLS3e

>  <r_lp_Energy>  (320) 
17.0423

>  <b_lp_Chiralities_Consistent>  (320) 
1

>  <s_lp_Variant>  (320) 
77:0-1

>  <s_i_glide_gridfile>  (320) 
pfpi4k_grid

>  <i_i_glide_lignum>  (320) 
12

>  <i_i_glide_rotatable_bonds>  (320) 
6

>  <r_i_docking_score>  (320) 
-2.92851

>  <r_i_glide_ligand_efficiency>  (320) 
-0.112635

>  <r_i_glide_ligand_efficiency_sa>  (320) 
-0.333681

>  <r_i_glide_ligand_efficiency_ln>  (320) 
-0.687751

>  <r_i_glide_gscore>  (320) 
-2.92851

>  <r_i_glide_lipo>  (320) 
0

>  <r_i_glide_hbond>  (320) 
-0.16

>  <r_i_glide_metal>  (320) 
-0

>  <r_i_glide_rewards>  (320) 
-0.890096

>  <r_i_glide_evdw>  (320) 
-22.6398

>  <r_i_glide_ecoul>  (320) 
-5.95524

>  <r_i_glide_erotb>  (320) 
0.282518

>  <r_i_glide_esite>  (320) 
-0.135653

>  <r_i_glide_emodel>  (320) 
-30.7766

>  <r_i_glide_energy>  (320) 
-28.5951

>  <r_i_glide_einternal>  (320) 
4.15683

>  <r_i_glide_intrahb_reward>  (320) 
-0

>  <i_i_glide_confnum>  (320) 
1

>  <i_i_glide_posenum>  (320) 
9

>  <r_i_glide_eff_state_penalty>  (320) 
0

>  <ligand_id>  (320) 
77

>  <original_smiles>  (320) 
CCCC1=C(C)CN(C(C)=O)C(C2OC3OC(C)(C)OC3C2OC)C1O

>  <smiles>  (320) 
[H]OC1([H])C(C([H])([H])C([H])([H])C([H])([H])[H])=C(C([H])([H])[H])C([H])([H])N(C(=O)C([H])([H])[H])C1([H])C1([H])OC2([H])OC(C([H])([H])[H])(C([H])([H])[H])OC2([H])C1([H])OC([H])([H])[H]

$$$$
77:0:1
     RDKit          3D

 57 59  0  0  1  0  0  0  0  0999 V2000
    4.0042    2.4393    5.0783 C   0  0  0  0  0  0  0  0  0  0  0  0
    4.0641    1.2121    4.1764 C   0  0  0  0  0  0  0  0  0  0  0  0
    3.8316   -0.0966    4.9550 C   0  0  0  0  0  0  0  0  0  0  0  0
    3.4579   -1.2662    4.0431 C   0  0  0  0  0  0  0  0  0  0  0  0
    2.1900   -1.5723    3.7032 C   0  0  0  0  0  0  0  0  0  0  0  0
    0.9705   -0.7514    4.1127 C   0  0  0  0  0  0  0  0  0  0  0  0
    1.8538   -2.7499    2.8050 C   0  0  0  0  0  0  0  0  0  0  0  0
    2.9952   -3.6181    2.4808 N   0  0  0  0  0  0  0  0  0  0  0  0
    2.7608   -4.9549    2.1704 C   0  0  0  0  0  0  0  0  0  0  0  0
    3.9407   -5.8680    1.8271 C   0  0  0  0  0  0  0  0  0  0  0  0
    1.6342   -5.4350    2.1501 O   0  0  0  0  0  0  0  0  0  0  0  0
    4.2713   -2.9365    2.2642 C   0  0  1  0  0  0  0  0  0  0  0  0
    4.2264   -2.1210    0.9402 C   0  0  2  0  0  0  0  0  0  0  0  0
    3.2566   -2.6361    0.0384 O   0  0  0  0  0  0  0  0  0  0  0  0
    3.4534   -2.0096   -1.1861 C   0  0  2  0  0  0  0  0  0  0  0  0
    3.2362   -2.8739   -2.2251 O   0  0  0  0  0  0  0  0  0  0  0  0
    4.2891   -2.6999   -3.0979 C   0  0  0  0  0  0  0  0  0  0  0  0
    4.4959   -4.0080   -3.8461 C   0  0  0  0  0  0  0  0  0  0  0  0
    3.9394   -1.5291   -4.0313 C   0  0  0  0  0  0  0  0  0  0  0  0
    5.4251   -2.4032   -2.3785 O   0  0  0  0  0  0  0  0  0  0  0  0
    4.9352   -1.6862   -1.2721 C   0  0  2  0  0  0  0  0  0  0  0  0
    5.4904   -2.1509    0.0680 C   0  0  1  0  0  0  0  0  0  0  0  0
    6.4745   -1.2181    0.4875 O   0  0  0  0  0  0  0  0  0  0  0  0
    7.8081   -1.6674    0.3063 C   0  0  0  0  0  0  0  0  0  0  0  0
    4.6382   -2.0708    3.4896 C   0  0  1  0  0  0  0  0  0  0  0  0
    5.7365   -1.2501    3.1931 O   0  0  0  0  0  0  0  0  0  0  0  0
    4.2078    3.3505    4.5217 H   0  0  0  0  0  0  0  0  0  0  0  0
    4.7404    2.3566    5.8784 H   0  0  0  0  0  0  0  0  0  0  0  0
    3.0193    2.5342    5.5337 H   0  0  0  0  0  0  0  0  0  0  0  0
    3.3298    1.3210    3.3781 H   0  0  0  0  0  0  0  0  0  0  0  0
    5.0333    1.1818    3.6798 H   0  0  0  0  0  0  0  0  0  0  0  0
    4.7450   -0.3679    5.5117 H   0  0  0  0  0  0  0  0  0  0  0  0
    3.0096    0.0535    5.6797 H   0  0  0  0  0  0  0  0  0  0  0  0
    0.0910   -1.3984    4.2541 H   0  0  0  0  0  0  0  0  0  0  0  0
    0.7100   -0.0432    3.3160 H   0  0  0  0  0  0  0  0  0  0  0  0
    1.1723   -0.1840    5.0310 H   0  0  0  0  0  0  0  0  0  0  0  0
    1.0494   -3.3115    3.2810 H   0  0  0  0  0  0  0  0  0  0  0  0
    1.4557   -2.3676    1.8674 H   0  0  0  0  0  0  0  0  0  0  0  0
    4.7203   -5.8138    2.5811 H   0  0  0  0  0  0  0  0  0  0  0  0
    4.3612   -5.6139    0.8541 H   0  0  0  0  0  0  0  0  0  0  0  0
    3.6155   -6.9120    1.7824 H   0  0  0  0  0  0  0  0  0  0  0  0
    5.0872   -3.6508    2.1567 H   0  0  0  0  0  0  0  0  0  0  0  0
    3.9352   -1.0825    1.1333 H   0  0  0  0  0  0  0  0  0  0  0  0
    2.8480   -1.1147   -1.2828 H   0  0  0  0  0  0  0  0  0  0  0  0
    4.7592   -4.8182   -3.1597 H   0  0  0  0  0  0  0  0  0  0  0  0
    5.3024   -3.8992   -4.5784 H   0  0  0  0  0  0  0  0  0  0  0  0
    3.5666   -4.2759   -4.3455 H   0  0  0  0  0  0  0  0  0  0  0  0
    3.8081   -0.5916   -3.4849 H   0  0  0  0  0  0  0  0  0  0  0  0
    3.0084   -1.7448   -4.5640 H   0  0  0  0  0  0  0  0  0  0  0  0
    4.7443   -1.3827   -4.7507 H   0  0  0  0  0  0  0  0  0  0  0  0
    5.0531   -0.6060   -1.3981 H   0  0  0  0  0  0  0  0  0  0  0  0
    5.8489   -3.1877   -0.0030 H   0  0  0  0  0  0  0  0  0  0  0  0
    8.5246   -0.9127    0.6355 H   0  0  0  0  0  0  0  0  0  0  0  0
    8.0041   -1.8775   -0.7436 H   0  0  0  0  0  0  0  0  0  0  0  0
    8.0017   -2.5782    0.8729 H   0  0  0  0  0  0  0  0  0  0  0  0
    4.9678   -2.7346    4.2896 H   0  0  0  0  0  0  0  0  0  0  0  0
    5.5726   -0.7886    2.3639 H   0  0  0  0  0  0  0  0  0  0  0  0
  1  2  1  0
  1 27  1  0
  1 28  1  0
  1 29  1  0
  2  3  1  0
  2 30  1  0
  2 31  1  0
  3  4  1  0
  3 32  1  0
  3 33  1  0
  4 25  1  0
  4  5  2  0
  5  6  1  0
  5  7  1  0
  6 34  1  0
  6 35  1  0
  6 36  1  0
  7  8  1  0
  7 37  1  0
  7 38  1  0
  8  9  1  0
  8 12  1  0
  9 10  1  0
  9 11  2  0
 10 39  1  0
 10 40  1  0
 10 41  1  0
 12 13  1  0
 12 25  1  0
 12 42  1  6
 13 22  1  0
 13 14  1  0
 13 43  1  1
 14 15  1  0
 15 21  1  0
 15 16  1  0
 15 44  1  6
 16 17  1  0
 17 18  1  0
 17 19  1  0
 17 20  1  0
 18 45  1  0
 18 46  1  0
 18 47  1  0
 19 48  1  0
 19 49  1  0
 19 50  1  0
 20 21  1  0
 21 22  1  0
 21 51  1  6
 22 23  1  0
 22 52  1  6
 23 24  1  0
 24 53  1  0
 24 54  1  0
 24 55  1  0
 25 26  1  0
 25 56  1  1
 26 57  1  0
M  END
>  <i_m_ct_stereo_status>  (321) 
1

>  <s_m_source_file>  (321) 
/var/tmp/pbs.5102103.sched01/tmphafng327/110q8crsuru.sdf

>  <i_m_source_file_index>  (321) 
12

>  <i_lp_mmshare_version>  (321) 
48012

>  <i_f3d_flags>  (321) 
0

>  <s_epik_input>  (321) 
W0NIM11bQ0gyXVtDSDJdQzE9QyhbQ0gzXSlbQ0gyXU4oQyg9TylbQ0gzXSlbQ0BIXShbQ0BIXTFbT0hdKVtDQEhdKE8yKVtDQEhdKE9bQ0gzXSlbQ0BIXShbQ0BIXTIzKU9DKE8zKShbQ0gzXSlbQ0gzXQ==

>  <s_epik_cmdline>  (321) 
J2VwaWtfcHl0aG9uJywgJy1waHQnLCAnMi4wJywgJy1waCcsICc3LjAnLCAnLXRuJywgJzgnLCAnLW1hJywgJzIwMCcsICctaW1hZScsICc8aW5maWxlLm1hZT4nLCAnLW9tYWUnLCAnPG91dGZpbGUubWFlPic=

>  <r_lp_tautomer_probability>  (321) 
1

>  <r_epik_Ionization_Penalty>  (321) 
3.12091e-07

>  <r_epik_Ionization_Penalty_Charging>  (321) 
0

>  <r_epik_Ionization_Penalty_Neutral>  (321) 
3.12091e-07

>  <r_epik_State_Penalty>  (321) 
-0

>  <r_epik_Charging_Adjusted_Penalty>  (321) 
0

>  <i_epik_Tot_Q>  (321) 
0

>  <i_epik_Tot_abs_Q>  (321) 
0

>  <s_epik_Chemistry_Notes>  (321) 
This compound contains an acetal/aminal-like group ( X-CH(R)-Y where X, Y are N, S, or O) that may be acid/base labile, releasing an aldehyde.

>  <s_lp_Force_Field>  (321) 
OPLS3e

>  <r_lp_Energy>  (321) 
17.0423

>  <b_lp_Chiralities_Consistent>  (321) 
1

>  <s_lp_Variant>  (321) 
77:0-1

>  <s_i_glide_gridfile>  (321) 
pfpi4k_grid

>  <i_i_glide_lignum>  (321) 
12

>  <i_i_glide_rotatable_bonds>  (321) 
6

>  <r_i_docking_score>  (321) 
-2.71864

>  <r_i_glide_ligand_efficiency>  (321) 
-0.104563

>  <r_i_glide_ligand_efficiency_sa>  (321) 
-0.309768

>  <r_i_glide_ligand_efficiency_ln>  (321) 
-0.638463

>  <r_i_glide_gscore>  (321) 
-2.71864

>  <r_i_glide_lipo>  (321) 
-0.101105

>  <r_i_glide_hbond>  (321) 
-0.0162308

>  <r_i_glide_metal>  (321) 
-0

>  <r_i_glide_rewards>  (321) 
-1.55187

>  <r_i_glide_evdw>  (321) 
-22.9005

>  <r_i_glide_ecoul>  (321) 
-0.691375

>  <r_i_glide_erotb>  (321) 
0.282518

>  <r_i_glide_esite>  (321) 
-0.0832146

>  <r_i_glide_emodel>  (321) 
-31.4078

>  <r_i_glide_energy>  (321) 
-23.5919

>  <r_i_glide_einternal>  (321) 
3.86941

>  <r_i_glide_intrahb_reward>  (321) 
-0.5

>  <i_i_glide_confnum>  (321) 
1

>  <i_i_glide_posenum>  (321) 
1

>  <r_i_glide_eff_state_penalty>  (321) 
0

>  <ligand_id>  (321) 
77

>  <original_smiles>  (321) 
CCCC1=C(C)CN(C(C)=O)C(C2OC3OC(C)(C)OC3C2OC)C1O

>  <smiles>  (321) 
[H]OC1([H])C(C([H])([H])C([H])([H])C([H])([H])[H])=C(C([H])([H])[H])C([H])([H])N(C(=O)C([H])([H])[H])C1([H])C1([H])OC2([H])OC(C([H])([H])[H])(C([H])([H])[H])OC2([H])C1([H])OC([H])([H])[H]

$$$$
77:0:2
     RDKit          3D

 57 59  0  0  1  0  0  0  0  0999 V2000
    4.3950    1.0052    7.0670 C   0  0  0  0  0  0  0  0  0  0  0  0
    4.1585   -0.2075    6.1679 C   0  0  0  0  0  0  0  0  0  0  0  0
    3.6241    0.2166    4.7854 C   0  0  0  0  0  0  0  0  0  0  0  0
    3.3293   -1.0019    3.9122 C   0  0  0  0  0  0  0  0  0  0  0  0
    2.0760   -1.3652    3.5267 C   0  0  0  0  0  0  0  0  0  0  0  0
    0.8130   -0.5896    3.8595 C   0  0  0  0  0  0  0  0  0  0  0  0
    1.8248   -2.5847    2.6482 C   0  0  0  0  0  0  0  0  0  0  0  0
    2.9988   -3.4456    2.3968 N   0  0  0  0  0  0  0  0  0  0  0  0
    2.8273   -4.7671    2.1261 C   0  0  0  0  0  0  0  0  0  0  0  0
    4.0386   -5.6711    1.8384 C   0  0  0  0  0  0  0  0  0  0  0  0
    1.7169   -5.3061    2.0871 O   0  0  0  0  0  0  0  0  0  0  0  0
    4.2864   -2.7301    2.2633 C   0  0  1  0  0  0  0  0  0  0  0  0
    4.3068   -1.9466    0.9242 C   0  0  2  0  0  0  0  0  0  0  0  0
    3.3430   -2.4379    0.0139 O   0  0  0  0  0  0  0  0  0  0  0  0
    3.5866   -1.8421   -1.2091 C   0  0  2  0  0  0  0  0  0  0  0  0
    3.3498   -2.7152   -2.2411 O   0  0  0  0  0  0  0  0  0  0  0  0
    4.4302   -2.6211   -3.0976 C   0  0  0  0  0  0  0  0  0  0  0  0
    4.5871   -3.9574   -3.8121 C   0  0  0  0  0  0  0  0  0  0  0  0
    4.1690   -1.4517   -4.0659 C   0  0  0  0  0  0  0  0  0  0  0  0
    5.5662   -2.3680   -2.3528 O   0  0  0  0  0  0  0  0  0  0  0  0
    5.0927   -1.5918   -1.2756 C   0  0  2  0  0  0  0  0  0  0  0  0
    5.5853   -2.0595    0.0835 C   0  0  1  0  0  0  0  0  0  0  0  0
    6.6099   -1.1839    0.5409 O   0  0  0  0  0  0  0  0  0  0  0  0
    7.9282   -1.6648    0.3247 C   0  0  0  0  0  0  0  0  0  0  0  0
    4.5484   -1.8294    3.4857 C   0  0  1  0  0  0  0  0  0  0  0  0
    5.6635   -1.0061    3.2247 O   0  0  0  0  0  0  0  0  0  0  0  0
    4.7834    0.7111    8.0393 H   0  0  0  0  0  0  0  0  0  0  0  0
    3.4646    1.5533    7.2183 H   0  0  0  0  0  0  0  0  0  0  0  0
    5.1074    1.6826    6.5928 H   0  0  0  0  0  0  0  0  0  0  0  0
    5.0943   -0.7864    6.0855 H   0  0  0  0  0  0  0  0  0  0  0  0
    3.4403   -0.8759    6.6412 H   0  0  0  0  0  0  0  0  0  0  0  0
    2.7478    0.8401    4.9230 H   0  0  0  0  0  0  0  0  0  0  0  0
    4.3983    0.8225    4.2841 H   0  0  0  0  0  0  0  0  0  0  0  0
   -0.0597   -1.2600    3.8924 H   0  0  0  0  0  0  0  0  0  0  0  0
    0.6099    0.1317    3.0624 H   0  0  0  0  0  0  0  0  0  0  0  0
    0.9131   -0.0472    4.7968 H   0  0  0  0  0  0  0  0  0  0  0  0
    1.0100   -3.1549    3.0918 H   0  0  0  0  0  0  0  0  0  0  0  0
    1.4550   -2.2441    1.6851 H   0  0  0  0  0  0  0  0  0  0  0  0
    4.7882   -5.5870    2.6248 H   0  0  0  0  0  0  0  0  0  0  0  0
    4.4900   -5.4183    0.8791 H   0  0  0  0  0  0  0  0  0  0  0  0
    3.7398   -6.7226    1.7974 H   0  0  0  0  0  0  0  0  0  0  0  0
    5.1172   -3.4271    2.2312 H   0  0  0  0  0  0  0  0  0  0  0  0
    4.0681   -0.8891    1.0797 H   0  0  0  0  0  0  0  0  0  0  0  0
    3.0198   -0.9195   -1.3350 H   0  0  0  0  0  0  0  0  0  0  0  0
    4.7845   -4.7571   -3.1016 H   0  0  0  0  0  0  0  0  0  0  0  0
    5.4178   -3.9013   -4.5149 H   0  0  0  0  0  0  0  0  0  0  0  0
    3.6644   -4.1901   -4.3476 H   0  0  0  0  0  0  0  0  0  0  0  0
    4.0595   -0.5053   -3.5335 H   0  0  0  0  0  0  0  0  0  0  0  0
    3.2434   -1.6349   -4.6113 H   0  0  0  0  0  0  0  0  0  0  0  0
    4.9993   -1.3581   -4.7481 H   0  0  0  0  0  0  0  0  0  0  0  0
    5.2703   -0.5220   -1.4297 H   0  0  0  0  0  0  0  0  0  0  0  0
    5.8982   -3.1055    0.0492 H   0  0  0  0  0  0  0  0  0  0  0  0
    8.6678   -0.9323    0.6480 H   0  0  0  0  0  0  0  0  0  0  0  0
    8.0948   -1.8591   -0.7304 H   0  0  0  0  0  0  0  0  0  0  0  0
    8.0969   -2.5826    0.8809 H   0  0  0  0  0  0  0  0  0  0  0  0
    4.8379   -2.4718    4.3160 H   0  0  0  0  0  0  0  0  0  0  0  0
    5.5964   -0.6375    2.3544 H   0  0  0  0  0  0  0  0  0  0  0  0
  1  2  1  0
  1 27  1  0
  1 28  1  0
  1 29  1  0
  2  3  1  0
  2 30  1  0
  2 31  1  0
  3  4  1  0
  3 32  1  0
  3 33  1  0
  4 25  1  0
  4  5  2  0
  5  6  1  0
  5  7  1  0
  6 34  1  0
  6 35  1  0
  6 36  1  0
  7  8  1  0
  7 37  1  0
  7 38  1  0
  8  9  1  0
  8 12  1  0
  9 10  1  0
  9 11  2  0
 10 39  1  0
 10 40  1  0
 10 41  1  0
 12 13  1  0
 12 25  1  0
 12 42  1  6
 13 22  1  0
 13 14  1  0
 13 43  1  1
 14 15  1  0
 15 21  1  0
 15 16  1  0
 15 44  1  6
 16 17  1  0
 17 18  1  0
 17 19  1  0
 17 20  1  0
 18 45  1  0
 18 46  1  0
 18 47  1  0
 19 48  1  0
 19 49  1  0
 19 50  1  0
 20 21  1  0
 21 22  1  0
 21 51  1  6
 22 23  1  0
 22 52  1  6
 23 24  1  0
 24 53  1  0
 24 54  1  0
 24 55  1  0
 25 26  1  0
 25 56  1  1
 26 57  1  0
M  END
>  <i_m_ct_stereo_status>  (322) 
1

>  <s_m_source_file>  (322) 
/var/tmp/pbs.5102103.sched01/tmphafng327/110q8crsuru.sdf

>  <i_m_source_file_index>  (322) 
12

>  <i_lp_mmshare_version>  (322) 
48012

>  <i_f3d_flags>  (322) 
0

>  <s_epik_input>  (322) 
W0NIM11bQ0gyXVtDSDJdQzE9QyhbQ0gzXSlbQ0gyXU4oQyg9TylbQ0gzXSlbQ0BIXShbQ0BIXTFbT0hdKVtDQEhdKE8yKVtDQEhdKE9bQ0gzXSlbQ0BIXShbQ0BIXTIzKU9DKE8zKShbQ0gzXSlbQ0gzXQ==

>  <s_epik_cmdline>  (322) 
J2VwaWtfcHl0aG9uJywgJy1waHQnLCAnMi4wJywgJy1waCcsICc3LjAnLCAnLXRuJywgJzgnLCAnLW1hJywgJzIwMCcsICctaW1hZScsICc8aW5maWxlLm1hZT4nLCAnLW9tYWUnLCAnPG91dGZpbGUubWFlPic=

>  <r_lp_tautomer_probability>  (322) 
1

>  <r_epik_Ionization_Penalty>  (322) 
3.12091e-07

>  <r_epik_Ionization_Penalty_Charging>  (322) 
0

>  <r_epik_Ionization_Penalty_Neutral>  (322) 
3.12091e-07

>  <r_epik_State_Penalty>  (322) 
-0

>  <r_epik_Charging_Adjusted_Penalty>  (322) 
0

>  <i_epik_Tot_Q>  (322) 
0

>  <i_epik_Tot_abs_Q>  (322) 
0

>  <s_epik_Chemistry_Notes>  (322) 
This compound contains an acetal/aminal-like group ( X-CH(R)-Y where X, Y are N, S, or O) that may be acid/base labile, releasing an aldehyde.

>  <s_lp_Force_Field>  (322) 
OPLS3e

>  <r_lp_Energy>  (322) 
17.0423

>  <b_lp_Chiralities_Consistent>  (322) 
1

>  <s_lp_Variant>  (322) 
77:0-1

>  <s_i_glide_gridfile>  (322) 
pfpi4k_grid

>  <i_i_glide_lignum>  (322) 
12

>  <i_i_glide_rotatable_bonds>  (322) 
6

>  <r_i_docking_score>  (322) 
-2.69739

>  <r_i_glide_ligand_efficiency>  (322) 
-0.103746

>  <r_i_glide_ligand_efficiency_sa>  (322) 
-0.307347

>  <r_i_glide_ligand_efficiency_ln>  (322) 
-0.633474

>  <r_i_glide_gscore>  (322) 
-2.69739

>  <r_i_glide_lipo>  (322) 
-0.0777741

>  <r_i_glide_hbond>  (322) 
-0.0174494

>  <r_i_glide_metal>  (322) 
-0

>  <r_i_glide_rewards>  (322) 
-1.55444

>  <r_i_glide_evdw>  (322) 
-23.9294

>  <r_i_glide_ecoul>  (322) 
-0.35317

>  <r_i_glide_erotb>  (322) 
0.282518

>  <r_i_glide_esite>  (322) 
-0.0808036

>  <r_i_glide_emodel>  (322) 
-32.5706

>  <r_i_glide_energy>  (322) 
-24.2825

>  <r_i_glide_einternal>  (322) 
3.19333

>  <r_i_glide_intrahb_reward>  (322) 
-0.5

>  <i_i_glide_confnum>  (322) 
1

>  <i_i_glide_posenum>  (322) 
10

>  <r_i_glide_eff_state_penalty>  (322) 
0

>  <ligand_id>  (322) 
77

>  <original_smiles>  (322) 
CCCC1=C(C)CN(C(C)=O)C(C2OC3OC(C)(C)OC3C2OC)C1O

>  <smiles>  (322) 
[H]OC1([H])C(C([H])([H])C([H])([H])C([H])([H])[H])=C(C([H])([H])[H])C([H])([H])N(C(=O)C([H])([H])[H])C1([H])C1([H])OC2([H])OC(C([H])([H])[H])(C([H])([H])[H])OC2([H])C1([H])OC([H])([H])[H]

$$$$
78:0:0
     RDKit          3D

 45 48  0  0  1  0  0  0  0  0999 V2000
    5.4534   -0.2619    1.1760 O   0  0  0  0  0  0  0  0  0  0  0  0
    4.5228   -0.8350    0.6147 C   0  0  0  0  0  0  0  0  0  0  0  0
    3.1279   -0.8714    1.2993 C   0  0  2  0  0  0  0  0  0  0  0  0
    2.6758    0.5255    1.8223 C   0  0  0  0  0  0  0  0  0  0  0  0
    2.3709    0.4405    3.3340 C   0  0  2  0  0  0  0  0  0  0  0  0
    3.6247   -0.0776    4.0867 C   0  0  0  0  0  0  0  0  0  0  0  0
    4.0298   -1.4967    3.6140 C   0  0  0  0  0  0  0  0  0  0  0  0
    3.0708   -1.9051    2.4695 C   0  0  1  0  0  0  0  0  0  0  0  0
    1.6391   -1.8985    3.0658 C   0  0  0  0  0  0  0  0  0  0  0  0
    1.2774   -0.5353    3.5144 N   0  0  0  0  0  0  0  0  0  0  0  0
    0.0696   -0.2930    4.0769 C   0  0  0  0  0  0  0  0  0  0  0  0
   -0.6183   -1.2003    4.5568 O   0  0  0  0  0  0  0  0  0  0  0  0
   -0.4843    1.0878    4.1028 C   0  0  0  0  0  0  0  0  0  0  0  0
   -0.3478    2.1629    3.2670 C   0  0  0  0  0  0  0  0  0  0  0  0
   -1.1954    3.1957    3.7627 C   0  0  0  0  0  0  0  0  0  0  0  0
   -1.8214    2.6632    4.8523 C   0  0  0  0  0  0  0  0  0  0  0  0
   -1.4081    1.3853    5.0668 O   0  0  0  0  0  0  0  0  0  0  0  0
    4.7005   -1.4485   -0.5718 N   0  0  0  0  0  0  0  0  0  0  0  0
    3.7217   -1.9060   -1.5411 C   0  0  0  0  0  0  0  0  0  0  0  0
    4.1129   -3.2976   -2.0254 C   0  0  0  0  0  0  0  0  0  0  0  0
    5.5336   -3.2577   -2.5810 C   0  0  0  0  0  0  0  0  0  0  0  0
    6.4879   -2.6961   -1.5202 C   0  0  0  0  0  0  0  0  0  0  0  0
    6.0173   -1.4117   -1.1113 O   0  0  0  0  0  0  0  0  0  0  0  0
    2.3653   -1.1794    0.6022 H   0  0  0  0  0  0  0  0  0  0  0  0
    3.4093    1.3155    1.6362 H   0  0  0  0  0  0  0  0  0  0  0  0
    1.7761    0.8170    1.2812 H   0  0  0  0  0  0  0  0  0  0  0  0
    2.1240    1.4293    3.7154 H   0  0  0  0  0  0  0  0  0  0  0  0
    4.4457    0.6176    3.9137 H   0  0  0  0  0  0  0  0  0  0  0  0
    3.4380   -0.0854    5.1620 H   0  0  0  0  0  0  0  0  0  0  0  0
    5.0705   -1.5134    3.2849 H   0  0  0  0  0  0  0  0  0  0  0  0
    3.9614   -2.2123    4.4372 H   0  0  0  0  0  0  0  0  0  0  0  0
    3.3085   -2.9030    2.1046 H   0  0  0  0  0  0  0  0  0  0  0  0
    0.9165   -2.2275    2.3179 H   0  0  0  0  0  0  0  0  0  0  0  0
    1.5624   -2.6020    3.8932 H   0  0  0  0  0  0  0  0  0  0  0  0
    0.2793    2.2160    2.3870 H   0  0  0  0  0  0  0  0  0  0  0  0
   -1.3373    4.1863    3.3562 H   0  0  0  0  0  0  0  0  0  0  0  0
   -2.5563    3.0309    5.5542 H   0  0  0  0  0  0  0  0  0  0  0  0
    2.7097   -1.9696   -1.1671 H   0  0  0  0  0  0  0  0  0  0  0  0
    3.7269   -1.1953   -2.3698 H   0  0  0  0  0  0  0  0  0  0  0  0
    4.0691   -3.9960   -1.1863 H   0  0  0  0  0  0  0  0  0  0  0  0
    3.4039   -3.6418   -2.7785 H   0  0  0  0  0  0  0  0  0  0  0  0
    5.8301   -4.2576   -2.8869 H   0  0  0  0  0  0  0  0  0  0  0  0
    5.5447   -2.6421   -3.4791 H   0  0  0  0  0  0  0  0  0  0  0  0
    6.5863   -3.3731   -0.6674 H   0  0  0  0  0  0  0  0  0  0  0  0
    7.4832   -2.5819   -1.9642 H   0  0  0  0  0  0  0  0  0  0  0  0
  1  2  2  0
  2  3  1  0
  2 18  1  0
  3  8  1  0
  3  4  1  0
  3 24  1  6
  4  5  1  0
  4 25  1  0
  4 26  1  0
  5 10  1  0
  5  6  1  0
  5 27  1  1
  6  7  1  0
  6 28  1  0
  6 29  1  0
  7  8  1  0
  7 30  1  0
  7 31  1  0
  8  9  1  0
  8 32  1  6
  9 10  1  0
  9 33  1  0
  9 34  1  0
 10 11  1  0
 11 12  2  0
 11 13  1  0
 13 17  1  0
 13 14  2  0
 14 15  1  0
 14 35  1  0
 15 16  2  0
 15 36  1  0
 16 17  1  0
 16 37  1  0
 18 23  1  0
 18 19  1  0
 19 20  1  0
 19 38  1  0
 19 39  1  0
 20 21  1  0
 20 40  1  0
 20 41  1  0
 21 22  1  0
 21 42  1  0
 21 43  1  0
 22 23  1  0
 22 44  1  0
 22 45  1  0
M  END
>  <i_m_ct_stereo_status>  (323) 
1

>  <s_m_source_file>  (323) 
/var/tmp/pbs.5102103.sched01/tmphafng327/110q8crsuru.sdf

>  <i_m_source_file_index>  (323) 
13

>  <i_lp_mmshare_version>  (323) 
48012

>  <i_f3d_flags>  (323) 
0

>  <s_epik_input>  (323) 
TzFbQ0gyXVtDSDJdW0NIMl1bQ0gyXU4xQyg9TylbQ0BIXShbQ0gyXVtDQEhdMjMpW0NAQEhdKFtDSDJdW0NIMl0yKVtDSDJdTjNDKD1PKWM0W2NIXVtjSF1bY0hdbzQ=

>  <s_epik_cmdline>  (323) 
J2VwaWtfcHl0aG9uJywgJy1waHQnLCAnMi4wJywgJy1waCcsICc3LjAnLCAnLXRuJywgJzgnLCAnLW1hJywgJzIwMCcsICctaW1hZScsICc8aW5maWxlLm1hZT4nLCAnLW9tYWUnLCAnPG91dGZpbGUubWFlPic=

>  <r_epik_Ionization_Penalty>  (323) 
0.000632761

>  <r_epik_Ionization_Penalty_Charging>  (323) 
0

>  <r_epik_Ionization_Penalty_Neutral>  (323) 
0.000632761

>  <r_epik_State_Penalty>  (323) 
0.000399939

>  <r_epik_Charging_Adjusted_Penalty>  (323) 
0.000399939

>  <i_epik_Tot_Q>  (323) 
0

>  <i_epik_Tot_abs_Q>  (323) 
0

>  <s_epik_Chemistry_Notes>  (323) 
This compound has a N-S or N-O group and may undergo hydrolysis at high or low pH.

>  <s_lp_Force_Field>  (323) 
OPLS3e

>  <r_lp_Energy>  (323) 
44.8015

>  <b_lp_Chiralities_Consistent>  (323) 
1

>  <s_lp_Variant>  (323) 
78:0-1

>  <s_i_glide_gridfile>  (323) 
pfpi4k_grid

>  <i_i_glide_lignum>  (323) 
13

>  <i_i_glide_rotatable_bonds>  (323) 
4

>  <r_i_docking_score>  (323) 
-3.17618

>  <r_i_glide_ligand_efficiency>  (323) 
-0.138095

>  <r_i_glide_ligand_efficiency_sa>  (323) 
-0.392723

>  <r_i_glide_ligand_efficiency_ln>  (323) 
-0.768028

>  <r_i_glide_gscore>  (323) 
-3.17618

>  <r_i_glide_lipo>  (323) 
-0.263025

>  <r_i_glide_hbond>  (323) 
-0.252056

>  <r_i_glide_metal>  (323) 
-0

>  <r_i_glide_rewards>  (323) 
-1.34121

>  <r_i_glide_evdw>  (323) 
-29.3308

>  <r_i_glide_ecoul>  (323) 
-3.54928

>  <r_i_glide_erotb>  (323) 
0.735765

>  <r_i_glide_esite>  (323) 
-0.0567169

>  <r_i_glide_emodel>  (323) 
-35.2009

>  <r_i_glide_energy>  (323) 
-32.8801

>  <r_i_glide_einternal>  (323) 
9.18878

>  <r_i_glide_intrahb_reward>  (323) 
-0

>  <i_i_glide_confnum>  (323) 
6

>  <i_i_glide_posenum>  (323) 
12

>  <r_i_glide_eff_state_penalty>  (323) 
0

>  <ligand_id>  (323) 
78

>  <original_smiles>  (323) 
O=C(C1CC2CCC1CN2C(=O)c1ccco1)N1CCCCO1

>  <smiles>  (323) 
[H]c1oc(C(=O)N2C([H])([H])C3([H])C([H])([H])C([H])([H])C2([H])C([H])([H])C3([H])C(=O)N2OC([H])([H])C([H])([H])C([H])([H])C2([H])[H])c([H])c1[H]

$$$$
78:0:1
     RDKit          3D

 45 48  0  0  1  0  0  0  0  0999 V2000
    3.5737    0.4973    1.2662 O   0  0  0  0  0  0  0  0  0  0  0  0
    3.0445   -0.6084    1.2150 C   0  0  0  0  0  0  0  0  0  0  0  0
    1.7982   -0.8860    2.0854 C   0  0  2  0  0  0  0  0  0  0  0  0
    0.9346    0.4031    2.2770 C   0  0  0  0  0  0  0  0  0  0  0  0
    0.8527    0.7801    3.7682 C   0  0  2  0  0  0  0  0  0  0  0  0
    2.2553    0.9538    4.3854 C   0  0  0  0  0  0  0  0  0  0  0  0
    3.0646   -0.3542    4.2556 C   0  0  0  0  0  0  0  0  0  0  0  0
    2.1998   -1.4101    3.5008 C   0  0  1  0  0  0  0  0  0  0  0  0
    0.8911   -1.6118    4.3224 C   0  0  0  0  0  0  0  0  0  0  0  0
    0.1584   -0.3259    4.4572 N   0  0  0  0  0  0  0  0  0  0  0  0
   -1.0305   -0.2589    5.1148 C   0  0  0  0  0  0  0  0  0  0  0  0
   -1.6505   -1.2864    5.4127 O   0  0  0  0  0  0  0  0  0  0  0  0
   -1.5341    1.0268    5.6780 C   0  0  0  0  0  0  0  0  0  0  0  0
   -1.5868    2.3404    5.2555 C   0  0  0  0  0  0  0  0  0  0  0  0
   -2.2103    3.0869    6.2814 C   0  0  0  0  0  0  0  0  0  0  0  0
   -2.5834    2.1989    7.2451 C   0  0  0  0  0  0  0  0  0  0  0  0
   -2.1886    0.9496    6.8805 O   0  0  0  0  0  0  0  0  0  0  0  0
    3.5668   -1.5668    0.4275 N   0  0  0  0  0  0  0  0  0  0  0  0
    4.8166   -1.4620   -0.3204 C   0  0  0  0  0  0  0  0  0  0  0  0
    4.5874   -1.9748   -1.7397 C   0  0  0  0  0  0  0  0  0  0  0  0
    4.0266   -3.3996   -1.6713 C   0  0  0  0  0  0  0  0  0  0  0  0
    2.7762   -3.4252   -0.7814 C   0  0  0  0  0  0  0  0  0  0  0  0
    3.0700   -2.8884    0.5074 O   0  0  0  0  0  0  0  0  0  0  0  0
    1.1682   -1.6297    1.5924 H   0  0  0  0  0  0  0  0  0  0  0  0
    1.2954    1.2788    1.7376 H   0  0  0  0  0  0  0  0  0  0  0  0
   -0.0695    0.2396    1.8809 H   0  0  0  0  0  0  0  0  0  0  0  0
    0.3791    1.7492    3.7958 H   0  0  0  0  0  0  0  0  0  0  0  0
    2.7631    1.7712    3.8757 H   0  0  0  0  0  0  0  0  0  0  0  0
    2.1730    1.2472    5.4322 H   0  0  0  0  0  0  0  0  0  0  0  0
    4.0063   -0.1485    3.7420 H   0  0  0  0  0  0  0  0  0  0  0  0
    3.3568   -0.7207    5.2423 H   0  0  0  0  0  0  0  0  0  0  0  0
    2.7470   -2.3556    3.4183 H   0  0  0  0  0  0  0  0  0  0  0  0
    0.2586   -2.3703    3.8574 H   0  0  0  0  0  0  0  0  0  0  0  0
    1.1459   -1.9875    5.3153 H   0  0  0  0  0  0  0  0  0  0  0  0
   -1.2217    2.7638    4.3295 H   0  0  0  0  0  0  0  0  0  0  0  0
   -2.4079    4.1463    6.2932 H   0  0  0  0  0  0  0  0  0  0  0  0
   -3.1287    2.2844    8.1716 H   0  0  0  0  0  0  0  0  0  0  0  0
    5.1831   -0.4369   -0.3546 H   0  0  0  0  0  0  0  0  0  0  0  0
    5.5744   -2.0495    0.1970 H   0  0  0  0  0  0  0  0  0  0  0  0
    3.8708   -1.3194   -2.2460 H   0  0  0  0  0  0  0  0  0  0  0  0
    5.5220   -1.9461   -2.3070 H   0  0  0  0  0  0  0  0  0  0  0  0
    3.7920   -3.7570   -2.6738 H   0  0  0  0  0  0  0  0  0  0  0  0
    4.7896   -4.0669   -1.2628 H   0  0  0  0  0  0  0  0  0  0  0  0
    1.9632   -2.8744   -1.2531 H   0  0  0  0  0  0  0  0  0  0  0  0
    2.4445   -4.4526   -0.6584 H   0  0  0  0  0  0  0  0  0  0  0  0
  1  2  2  0
  2  3  1  0
  2 18  1  0
  3  8  1  0
  3  4  1  0
  3 24  1  6
  4  5  1  0
  4 25  1  0
  4 26  1  0
  5 10  1  0
  5  6  1  0
  5 27  1  6
  6  7  1  0
  6 28  1  0
  6 29  1  0
  7  8  1  0
  7 30  1  0
  7 31  1  0
  8  9  1  0
  8 32  1  6
  9 10  1  0
  9 33  1  0
  9 34  1  0
 10 11  1  0
 11 12  2  0
 11 13  1  0
 13 17  1  0
 13 14  2  0
 14 15  1  0
 14 35  1  0
 15 16  2  0
 15 36  1  0
 16 17  1  0
 16 37  1  0
 18 23  1  0
 18 19  1  0
 19 20  1  0
 19 38  1  0
 19 39  1  0
 20 21  1  0
 20 40  1  0
 20 41  1  0
 21 22  1  0
 21 42  1  0
 21 43  1  0
 22 23  1  0
 22 44  1  0
 22 45  1  0
M  END
>  <i_m_ct_stereo_status>  (324) 
1

>  <s_m_source_file>  (324) 
/var/tmp/pbs.5102103.sched01/tmphafng327/110q8crsuru.sdf

>  <i_m_source_file_index>  (324) 
13

>  <i_lp_mmshare_version>  (324) 
48012

>  <i_f3d_flags>  (324) 
0

>  <s_epik_input>  (324) 
TzFbQ0gyXVtDSDJdW0NIMl1bQ0gyXU4xQyg9TylbQ0BIXShbQ0gyXVtDQEhdMjMpW0NAQEhdKFtDSDJdW0NIMl0yKVtDSDJdTjNDKD1PKWM0W2NIXVtjSF1bY0hdbzQ=

>  <s_epik_cmdline>  (324) 
J2VwaWtfcHl0aG9uJywgJy1waHQnLCAnMi4wJywgJy1waCcsICc3LjAnLCAnLXRuJywgJzgnLCAnLW1hJywgJzIwMCcsICctaW1hZScsICc8aW5maWxlLm1hZT4nLCAnLW9tYWUnLCAnPG91dGZpbGUubWFlPic=

>  <r_epik_Ionization_Penalty>  (324) 
0.000632761

>  <r_epik_Ionization_Penalty_Charging>  (324) 
0

>  <r_epik_Ionization_Penalty_Neutral>  (324) 
0.000632761

>  <r_epik_State_Penalty>  (324) 
0.000399939

>  <r_epik_Charging_Adjusted_Penalty>  (324) 
0.000399939

>  <i_epik_Tot_Q>  (324) 
0

>  <i_epik_Tot_abs_Q>  (324) 
0

>  <s_epik_Chemistry_Notes>  (324) 
This compound has a N-S or N-O group and may undergo hydrolysis at high or low pH.

>  <s_lp_Force_Field>  (324) 
OPLS3e

>  <r_lp_Energy>  (324) 
44.8015

>  <b_lp_Chiralities_Consistent>  (324) 
1

>  <s_lp_Variant>  (324) 
78:0-1

>  <s_i_glide_gridfile>  (324) 
pfpi4k_grid

>  <i_i_glide_lignum>  (324) 
13

>  <i_i_glide_rotatable_bonds>  (324) 
4

>  <r_i_docking_score>  (324) 
-2.90472

>  <r_i_glide_ligand_efficiency>  (324) 
-0.126292

>  <r_i_glide_ligand_efficiency_sa>  (324) 
-0.359158

>  <r_i_glide_ligand_efficiency_ln>  (324) 
-0.702388

>  <r_i_glide_gscore>  (324) 
-2.90472

>  <r_i_glide_lipo>  (324) 
-0.108899

>  <r_i_glide_hbond>  (324) 
-0.16

>  <r_i_glide_metal>  (324) 
-0

>  <r_i_glide_rewards>  (324) 
-1.2384

>  <r_i_glide_evdw>  (324) 
-28.52

>  <r_i_glide_ecoul>  (324) 
-3.70912

>  <r_i_glide_erotb>  (324) 
0.735765

>  <r_i_glide_esite>  (324) 
-0.150813

>  <r_i_glide_emodel>  (324) 
-36.5834

>  <r_i_glide_energy>  (324) 
-32.2292

>  <r_i_glide_einternal>  (324) 
3.21072

>  <r_i_glide_intrahb_reward>  (324) 
-0

>  <i_i_glide_confnum>  (324) 
5

>  <i_i_glide_posenum>  (324) 
33

>  <r_i_glide_eff_state_penalty>  (324) 
0

>  <ligand_id>  (324) 
78

>  <original_smiles>  (324) 
O=C(C1CC2CCC1CN2C(=O)c1ccco1)N1CCCCO1

>  <smiles>  (324) 
[H]c1oc(C(=O)N2C([H])([H])C3([H])C([H])([H])C([H])([H])C2([H])C([H])([H])C3([H])C(=O)N2OC([H])([H])C([H])([H])C([H])([H])C2([H])[H])c([H])c1[H]

$$$$
78:0:2
     RDKit          3D

 45 48  0  0  1  0  0  0  0  0999 V2000
    4.8768   -0.2523    1.3502 O   0  0  0  0  0  0  0  0  0  0  0  0
    4.0416   -1.0874    0.9957 C   0  0  0  0  0  0  0  0  0  0  0  0
    2.6434   -1.0826    1.6673 C   0  0  2  0  0  0  0  0  0  0  0  0
    2.1079    0.3737    1.8732 C   0  0  0  0  0  0  0  0  0  0  0  0
    1.8235    0.6350    3.3711 C   0  0  2  0  0  0  0  0  0  0  0  0
    3.1035    0.3790    4.2114 C   0  0  0  0  0  0  0  0  0  0  0  0
    3.5777   -1.0858    4.0664 C   0  0  0  0  0  0  0  0  0  0  0  0
    2.6436   -1.8060    3.0597 C   0  0  1  0  0  0  0  0  0  0  0  0
    1.2130   -1.7287    3.6631 C   0  0  0  0  0  0  0  0  0  0  0  0
    0.7835   -0.3213    3.7899 N   0  0  0  0  0  0  0  0  0  0  0  0
   -0.4314   -0.0109    4.3039 C   0  0  0  0  0  0  0  0  0  0  0  0
   -1.0866   -0.8305    4.9535 O   0  0  0  0  0  0  0  0  0  0  0  0
   -1.0124    1.3338    4.0589 C   0  0  0  0  0  0  0  0  0  0  0  0
   -1.0051    2.1594    2.9750 C   0  0  0  0  0  0  0  0  0  0  0  0
   -1.8338    3.2792    3.2884 C   0  0  0  0  0  0  0  0  0  0  0  0
   -2.3197    3.0281    4.5354 C   0  0  0  0  0  0  0  0  0  0  0  0
   -1.8427    1.8526    5.0158 O   0  0  0  0  0  0  0  0  0  0  0  0
    4.3776   -2.0031    0.0688 N   0  0  0  0  0  0  0  0  0  0  0  0
    5.7318   -2.2434   -0.4238 C   0  0  0  0  0  0  0  0  0  0  0  0
    5.6929   -2.2821   -1.9478 C   0  0  0  0  0  0  0  0  0  0  0  0
    4.6555   -3.3176   -2.4030 C   0  0  0  0  0  0  0  0  0  0  0  0
    3.3050   -3.0266   -1.7488 C   0  0  0  0  0  0  0  0  0  0  0  0
    3.4624   -2.9923   -0.3226 O   0  0  0  0  0  0  0  0  0  0  0  0
    1.9244   -1.6020    1.0276 H   0  0  0  0  0  0  0  0  0  0  0  0
    2.7906    1.1465    1.5136 H   0  0  0  0  0  0  0  0  0  0  0  0
    1.1946    0.5087    1.2876 H   0  0  0  0  0  0  0  0  0  0  0  0
    1.5388    1.6741    3.5170 H   0  0  0  0  0  0  0  0  0  0  0  0
    3.8902    1.0592    3.8854 H   0  0  0  0  0  0  0  0  0  0  0  0
    2.9215    0.6038    5.2626 H   0  0  0  0  0  0  0  0  0  0  0  0
    4.6233   -1.1248    3.7628 H   0  0  0  0  0  0  0  0  0  0  0  0
    3.5657   -1.5935    5.0334 H   0  0  0  0  0  0  0  0  0  0  0  0
    2.9358   -2.8510    2.9478 H   0  0  0  0  0  0  0  0  0  0  0  0
    0.5090   -2.2624    3.0256 H   0  0  0  0  0  0  0  0  0  0  0  0
    1.1858   -2.2205    4.6374 H   0  0  0  0  0  0  0  0  0  0  0  0
   -0.4637    1.9887    2.0484 H   0  0  0  0  0  0  0  0  0  0  0  0
   -2.0550    4.1378    2.6706 H   0  0  0  0  0  0  0  0  0  0  0  0
   -2.9914    3.5478    5.2067 H   0  0  0  0  0  0  0  0  0  0  0  0
    6.4399   -1.4830   -0.0911 H   0  0  0  0  0  0  0  0  0  0  0  0
    6.0798   -3.1896   -0.0132 H   0  0  0  0  0  0  0  0  0  0  0  0
    5.4040   -1.2898   -2.3197 H   0  0  0  0  0  0  0  0  0  0  0  0
    6.6906   -2.5112   -2.3419 H   0  0  0  0  0  0  0  0  0  0  0  0
    4.5788   -3.3100   -3.4967 H   0  0  0  0  0  0  0  0  0  0  0  0
    5.0107   -4.3114   -2.1208 H   0  0  0  0  0  0  0  0  0  0  0  0
    2.8797   -2.0942   -2.0973 H   0  0  0  0  0  0  0  0  0  0  0  0
    2.6124   -3.8214   -1.9804 H   0  0  0  0  0  0  0  0  0  0  0  0
  1  2  2  0
  2  3  1  0
  2 18  1  0
  3  8  1  0
  3  4  1  0
  3 24  1  6
  4  5  1  0
  4 25  1  0
  4 26  1  0
  5 10  1  0
  5  6  1  0
  5 27  1  6
  6  7  1  0
  6 28  1  0
  6 29  1  0
  7  8  1  0
  7 30  1  0
  7 31  1  0
  8  9  1  0
  8 32  1  6
  9 10  1  0
  9 33  1  0
  9 34  1  0
 10 11  1  0
 11 12  2  0
 11 13  1  0
 13 17  1  0
 13 14  2  0
 14 15  1  0
 14 35  1  0
 15 16  2  0
 15 36  1  0
 16 17  1  0
 16 37  1  0
 18 23  1  0
 18 19  1  0
 19 20  1  0
 19 38  1  0
 19 39  1  0
 20 21  1  0
 20 40  1  0
 20 41  1  0
 21 22  1  0
 21 42  1  0
 21 43  1  0
 22 23  1  0
 22 44  1  0
 22 45  1  0
M  END
>  <i_m_ct_stereo_status>  (325) 
1

>  <s_m_source_file>  (325) 
/var/tmp/pbs.5102103.sched01/tmphafng327/110q8crsuru.sdf

>  <i_m_source_file_index>  (325) 
13

>  <i_lp_mmshare_version>  (325) 
48012

>  <i_f3d_flags>  (325) 
0

>  <s_epik_input>  (325) 
TzFbQ0gyXVtDSDJdW0NIMl1bQ0gyXU4xQyg9TylbQ0BIXShbQ0gyXVtDQEhdMjMpW0NAQEhdKFtDSDJdW0NIMl0yKVtDSDJdTjNDKD1PKWM0W2NIXVtjSF1bY0hdbzQ=

>  <s_epik_cmdline>  (325) 
J2VwaWtfcHl0aG9uJywgJy1waHQnLCAnMi4wJywgJy1waCcsICc3LjAnLCAnLXRuJywgJzgnLCAnLW1hJywgJzIwMCcsICctaW1hZScsICc8aW5maWxlLm1hZT4nLCAnLW9tYWUnLCAnPG91dGZpbGUubWFlPic=

>  <r_epik_Ionization_Penalty>  (325) 
0.000632761

>  <r_epik_Ionization_Penalty_Charging>  (325) 
0

>  <r_epik_Ionization_Penalty_Neutral>  (325) 
0.000632761

>  <r_epik_State_Penalty>  (325) 
0.000399939

>  <r_epik_Charging_Adjusted_Penalty>  (325) 
0.000399939

>  <i_epik_Tot_Q>  (325) 
0

>  <i_epik_Tot_abs_Q>  (325) 
0

>  <s_epik_Chemistry_Notes>  (325) 
This compound has a N-S or N-O group and may undergo hydrolysis at high or low pH.

>  <s_lp_Force_Field>  (325) 
OPLS3e

>  <r_lp_Energy>  (325) 
44.8015

>  <b_lp_Chiralities_Consistent>  (325) 
1

>  <s_lp_Variant>  (325) 
78:0-1

>  <s_i_glide_gridfile>  (325) 
pfpi4k_grid

>  <i_i_glide_lignum>  (325) 
13

>  <i_i_glide_rotatable_bonds>  (325) 
4

>  <r_i_docking_score>  (325) 
-2.48546

>  <r_i_glide_ligand_efficiency>  (325) 
-0.108063

>  <r_i_glide_ligand_efficiency_sa>  (325) 
-0.307318

>  <r_i_glide_ligand_efficiency_ln>  (325) 
-0.601006

>  <r_i_glide_gscore>  (325) 
-2.48546

>  <r_i_glide_lipo>  (325) 
-0.0543445

>  <r_i_glide_hbond>  (325) 
-0.0413007

>  <r_i_glide_metal>  (325) 
-0

>  <r_i_glide_rewards>  (325) 
-1.2384

>  <r_i_glide_evdw>  (325) 
-31.1694

>  <r_i_glide_ecoul>  (325) 
-1.87418

>  <r_i_glide_erotb>  (325) 
0.735765

>  <r_i_glide_esite>  (325) 
-0.0475772

>  <r_i_glide_emodel>  (325) 
-36.709

>  <r_i_glide_energy>  (325) 
-33.0436

>  <r_i_glide_einternal>  (325) 
3.36398

>  <r_i_glide_intrahb_reward>  (325) 
-0

>  <i_i_glide_confnum>  (325) 
6

>  <i_i_glide_posenum>  (325) 
1

>  <r_i_glide_eff_state_penalty>  (325) 
0

>  <ligand_id>  (325) 
78

>  <original_smiles>  (325) 
O=C(C1CC2CCC1CN2C(=O)c1ccco1)N1CCCCO1

>  <smiles>  (325) 
[H]c1oc(C(=O)N2C([H])([H])C3([H])C([H])([H])C([H])([H])C2([H])C([H])([H])C3([H])C(=O)N2OC([H])([H])C([H])([H])C([H])([H])C2([H])[H])c([H])c1[H]

$$$$
79:0:0
     RDKit          3D

 36 37  0  0  1  0  0  0  0  0999 V2000
    3.3875   -3.4184   -3.1815 C   0  0  0  0  0  0  0  0  0  0  0  0
    4.0751   -2.2054   -2.8481 O   0  0  0  0  0  0  0  0  0  0  0  0
    5.0164   -2.1297   -1.8652 C   0  0  0  0  0  0  0  0  0  0  0  0
    5.5650   -1.0808   -1.5104 O   0  0  0  0  0  0  0  0  0  0  0  0
    5.3437   -3.4570   -1.1827 C   0  0  0  0  0  0  0  0  0  0  0  0
    3.9300   -4.0223   -0.1842 S   0  0  0  0  0  0  0  0  0  0  0  0
    4.5892   -5.4770    0.5976 C   0  0  0  0  0  0  0  0  0  0  0  0
    5.8387   -5.6713    0.6466 N   0  0  0  0  0  0  0  0  0  0  0  0
    6.3999   -6.7825    1.2810 C   0  0  0  0  0  0  0  0  0  0  0  0
    7.9123   -6.7188    1.4594 C   0  0  0  0  0  0  0  0  0  0  0  0
    5.6659   -7.8330    1.6571 C   0  0  0  0  0  0  0  0  0  0  0  0
    6.3249   -9.1033    2.2692 C   0  0  0  0  0  0  0  0  0  0  0  0
    6.6050  -10.0040    1.4564 O   0  0  0  0  0  0  0  0  0  0  0  0
    6.4997   -9.0619    3.5105 O   0  0  0  0  0  0  0  0  0  0  0  0
    4.1339   -7.8461    1.4732 C   0  0  1  0  0  0  0  0  0  0  0  0
    3.4192   -8.4971    2.6201 C   0  0  0  0  0  0  0  0  0  0  0  0
    3.7064   -8.3824    3.9524 C   0  0  0  0  0  0  0  0  0  0  0  0
    2.8244   -9.1166    4.7984 C   0  0  0  0  0  0  0  0  0  0  0  0
    1.8387   -9.7586    4.1129 C   0  0  0  0  0  0  0  0  0  0  0  0
    1.9854   -9.4745    2.3914 S   0  0  0  0  0  0  0  0  0  0  0  0
    3.5818   -6.4216    1.1935 C   0  0  1  0  0  0  0  0  0  0  0  0
    3.0951   -5.7644    2.4216 C   0  0  0  0  0  0  0  0  0  0  0  0
    2.7138   -5.2652    3.3794 N   0  0  0  0  0  0  0  0  0  0  0  0
    2.7499   -3.2547   -4.0428 H   0  0  0  0  0  0  0  0  0  0  0  0
    2.8046   -3.7623   -2.3221 H   0  0  0  0  0  0  0  0  0  0  0  0
    4.1173   -4.1869   -3.4517 H   0  0  0  0  0  0  0  0  0  0  0  0
    5.5741   -4.2201   -1.9341 H   0  0  0  0  0  0  0  0  0  0  0  0
    6.2212   -3.3377   -0.5584 H   0  0  0  0  0  0  0  0  0  0  0  0
    8.3586   -7.6648    1.7677 H   0  0  0  0  0  0  0  0  0  0  0  0
    8.1643   -5.9783    2.2141 H   0  0  0  0  0  0  0  0  0  0  0  0
    8.3997   -6.4266    0.5353 H   0  0  0  0  0  0  0  0  0  0  0  0
    3.9612   -8.4605    0.5765 H   0  0  0  0  0  0  0  0  0  0  0  0
    4.5273   -7.7959    4.3425 H   0  0  0  0  0  0  0  0  0  0  0  0
    2.9555   -9.1411    5.8716 H   0  0  0  0  0  0  0  0  0  0  0  0
    1.0466  -10.3894    4.4969 H   0  0  0  0  0  0  0  0  0  0  0  0
    2.7146   -6.4959    0.5347 H   0  0  0  0  0  0  0  0  0  0  0  0
  1  2  1  0
  1 24  1  0
  1 25  1  0
  1 26  1  0
  2  3  1  0
  3  4  2  0
  3  5  1  0
  5  6  1  0
  5 27  1  0
  5 28  1  0
  6  7  1  0
  7 21  1  0
  7  8  2  0
  8  9  1  0
  9 10  1  0
  9 11  2  0
 10 29  1  0
 10 30  1  0
 10 31  1  0
 11 12  1  0
 11 15  1  0
 12 13  2  0
 12 14  1  0
 15 16  1  0
 15 21  1  0
 15 32  1  6
 16 20  1  0
 16 17  2  0
 17 18  1  0
 17 33  1  0
 18 19  2  0
 18 34  1  0
 19 20  1  0
 19 35  1  0
 21 22  1  0
 21 36  1  6
 22 23  3  0
M  CHG  1  14  -1
M  END
>  <i_m_ct_stereo_status>  (326) 
1

>  <s_m_source_file>  (326) 
/var/tmp/pbs.5102103.sched01/tmphafng327/110q8crsuru.sdf

>  <i_m_source_file_index>  (326) 
14

>  <i_lp_mmshare_version>  (326) 
48012

>  <i_f3d_flags>  (326) 
0

>  <s_epik_input>  (326) 
W0NIM11PQyg9TylbQ0gyXVNDMT1OQyhbQ0gzXSk9QyhDKD1PKVtPSF0pW0NASF0oW0NASF0xQyNOKWMyW2NIXVtjSF1bY0hdczI=

>  <s_epik_cmdline>  (326) 
J2VwaWtfcHl0aG9uJywgJy1waHQnLCAnMi4wJywgJy1waCcsICc3LjAnLCAnLXRuJywgJzgnLCAnLW1hJywgJzIwMCcsICctaW1hZScsICc8aW5maWxlLm1hZT4nLCAnLW9tYWUnLCAnPG91dGZpbGUubWFlPic=

>  <r_lp_tautomer_probability>  (326) 
1

>  <r_epik_Ionization_Penalty>  (326) 
0.0003625

>  <r_epik_Ionization_Penalty_Charging>  (326) 
0.000184928

>  <r_epik_Ionization_Penalty_Neutral>  (326) 
0.000177572

>  <r_epik_State_Penalty>  (326) 
-0

>  <r_epik_Charging_Adjusted_Penalty>  (326) 
0.000184928

>  <i_epik_Tot_Q>  (326) 
-1

>  <i_epik_Tot_abs_Q>  (326) 
1

>  <s_epik_Chemistry_Notes>  (326) 
This compound has an ester and may undergo hydrolysis at high or low pH. This compound has an imine and may undergo hydrolysis.

>  <s_lp_Force_Field>  (326) 
OPLS3e

>  <r_lp_Energy>  (326) 
27.5919

>  <b_lp_Chiralities_Consistent>  (326) 
1

>  <s_lp_Variant>  (326) 
79:0-1

>  <s_i_glide_gridfile>  (326) 
pfpi4k_grid

>  <i_i_glide_lignum>  (326) 
14

>  <i_i_glide_rotatable_bonds>  (326) 
7

>  <r_i_docking_score>  (326) 
-2.70082

>  <r_i_glide_ligand_efficiency>  (326) 
-0.117427

>  <r_i_glide_ligand_efficiency_sa>  (326) 
-0.333946

>  <r_i_glide_ligand_efficiency_ln>  (326) 
-0.653082

>  <r_i_glide_gscore>  (326) 
-2.70082

>  <r_i_glide_lipo>  (326) 
-0.449507

>  <r_i_glide_hbond>  (326) 
-0.0310166

>  <r_i_glide_metal>  (326) 
-0

>  <r_i_glide_rewards>  (326) 
-1.15667

>  <r_i_glide_evdw>  (326) 
-26.7039

>  <r_i_glide_ecoul>  (326) 
-2.25747

>  <r_i_glide_erotb>  (326) 
0.624102

>  <r_i_glide_esite>  (326) 
-0.0139144

>  <r_i_glide_emodel>  (326) 
-31.1443

>  <r_i_glide_energy>  (326) 
-28.9613

>  <r_i_glide_einternal>  (326) 
8.57444

>  <r_i_glide_intrahb_reward>  (326) 
-0

>  <i_i_glide_confnum>  (326) 
2

>  <i_i_glide_posenum>  (326) 
11

>  <r_i_glide_eff_state_penalty>  (326) 
0

>  <ligand_id>  (326) 
79

>  <original_smiles>  (326) 
COC(=O)CSC1=NC(C)=C(C(=O)O)C(c2cccs2)C1C#N

>  <smiles>  (326) 
[H]c1sc(C2([H])C(C(=O)[O-])=C(C([H])([H])[H])N=C(SC([H])([H])C(=O)OC([H])([H])[H])C2([H])C#N)c([H])c1[H]

$$$$
79:0:1
     RDKit          3D

 36 37  0  0  1  0  0  0  0  0999 V2000
   -0.0771   -8.6274    5.6855 C   0  0  0  0  0  0  0  0  0  0  0  0
    0.8106   -7.6448    5.1774 O   0  0  0  0  0  0  0  0  0  0  0  0
    0.5284   -6.3418    5.3135 C   0  0  0  0  0  0  0  0  0  0  0  0
   -0.4678   -5.8726    5.8722 O   0  0  0  0  0  0  0  0  0  0  0  0
    1.6014   -5.4594    4.6714 C   0  0  0  0  0  0  0  0  0  0  0  0
    1.6056   -5.6641    2.8573 S   0  0  0  0  0  0  0  0  0  0  0  0
    2.7519   -4.3955    2.3323 C   0  0  0  0  0  0  0  0  0  0  0  0
    3.3431   -3.6653    3.1835 N   0  0  0  0  0  0  0  0  0  0  0  0
    4.2106   -2.6392    2.8060 C   0  0  0  0  0  0  0  0  0  0  0  0
    5.0036   -2.0053    3.9405 C   0  0  0  0  0  0  0  0  0  0  0  0
    4.2893   -2.2105    1.5370 C   0  0  0  0  0  0  0  0  0  0  0  0
    5.1659   -0.9817    1.1402 C   0  0  0  0  0  0  0  0  0  0  0  0
    4.6006    0.1283    1.2327 O   0  0  0  0  0  0  0  0  0  0  0  0
    6.3119   -1.2374    0.7541 O   0  0  0  0  0  0  0  0  0  0  0  0
    3.4821   -2.8899    0.4154 C   0  0  1  0  0  0  0  0  0  0  0  0
    4.2398   -2.9719   -0.8728 C   0  0  0  0  0  0  0  0  0  0  0  0
    5.5660   -3.2629   -1.0396 C   0  0  0  0  0  0  0  0  0  0  0  0
    5.9829   -3.2753   -2.3957 C   0  0  0  0  0  0  0  0  0  0  0  0
    4.9560   -3.0633   -3.2643 C   0  0  0  0  0  0  0  0  0  0  0  0
    3.4569   -2.7792   -2.4246 S   0  0  0  0  0  0  0  0  0  0  0  0
    2.9432   -4.2772    0.8473 C   0  0  1  0  0  0  0  0  0  0  0  0
    3.8495   -5.3694    0.4416 C   0  0  0  0  0  0  0  0  0  0  0  0
    4.5602   -6.2161    0.1274 N   0  0  0  0  0  0  0  0  0  0  0  0
    0.3225   -9.6241    5.4833 H   0  0  0  0  0  0  0  0  0  0  0  0
   -1.0580   -8.5479    5.2150 H   0  0  0  0  0  0  0  0  0  0  0  0
   -0.1939   -8.5143    6.7640 H   0  0  0  0  0  0  0  0  0  0  0  0
    1.3943   -4.4181    4.9169 H   0  0  0  0  0  0  0  0  0  0  0  0
    2.5838   -5.7229    5.0811 H   0  0  0  0  0  0  0  0  0  0  0  0
    5.4985   -1.0847    3.6569 H   0  0  0  0  0  0  0  0  0  0  0  0
    5.7702   -2.6939    4.2728 H   0  0  0  0  0  0  0  0  0  0  0  0
    4.3669   -1.7735    4.7854 H   0  0  0  0  0  0  0  0  0  0  0  0
    2.6186   -2.2336    0.2503 H   0  0  0  0  0  0  0  0  0  0  0  0
    6.2432   -3.4658   -0.2216 H   0  0  0  0  0  0  0  0  0  0  0  0
    7.0089   -3.4627   -2.6771 H   0  0  0  0  0  0  0  0  0  0  0  0
    4.9882   -3.0505   -4.3399 H   0  0  0  0  0  0  0  0  0  0  0  0
    1.9939   -4.4756    0.3403 H   0  0  0  0  0  0  0  0  0  0  0  0
  1  2  1  0
  1 24  1  0
  1 25  1  0
  1 26  1  0
  2  3  1  0
  3  4  2  0
  3  5  1  0
  5  6  1  0
  5 27  1  0
  5 28  1  0
  6  7  1  0
  7 21  1  0
  7  8  2  0
  8  9  1  0
  9 10  1  0
  9 11  2  0
 10 29  1  0
 10 30  1  0
 10 31  1  0
 11 12  1  0
 11 15  1  0
 12 13  2  0
 12 14  1  0
 15 16  1  0
 15 21  1  0
 15 32  1  6
 16 20  1  0
 16 17  2  0
 17 18  1  0
 17 33  1  0
 18 19  2  0
 18 34  1  0
 19 20  1  0
 19 35  1  0
 21 22  1  0
 21 36  1  6
 22 23  3  0
M  CHG  1  14  -1
M  END
>  <i_m_ct_stereo_status>  (327) 
1

>  <s_m_source_file>  (327) 
/var/tmp/pbs.5102103.sched01/tmphafng327/110q8crsuru.sdf

>  <i_m_source_file_index>  (327) 
14

>  <i_lp_mmshare_version>  (327) 
48012

>  <i_f3d_flags>  (327) 
0

>  <s_epik_input>  (327) 
W0NIM11PQyg9TylbQ0gyXVNDMT1OQyhbQ0gzXSk9QyhDKD1PKVtPSF0pW0NASF0oW0NASF0xQyNOKWMyW2NIXVtjSF1bY0hdczI=

>  <s_epik_cmdline>  (327) 
J2VwaWtfcHl0aG9uJywgJy1waHQnLCAnMi4wJywgJy1waCcsICc3LjAnLCAnLXRuJywgJzgnLCAnLW1hJywgJzIwMCcsICctaW1hZScsICc8aW5maWxlLm1hZT4nLCAnLW9tYWUnLCAnPG91dGZpbGUubWFlPic=

>  <r_lp_tautomer_probability>  (327) 
1

>  <r_epik_Ionization_Penalty>  (327) 
0.0003625

>  <r_epik_Ionization_Penalty_Charging>  (327) 
0.000184928

>  <r_epik_Ionization_Penalty_Neutral>  (327) 
0.000177572

>  <r_epik_State_Penalty>  (327) 
-0

>  <r_epik_Charging_Adjusted_Penalty>  (327) 
0.000184928

>  <i_epik_Tot_Q>  (327) 
-1

>  <i_epik_Tot_abs_Q>  (327) 
1

>  <s_epik_Chemistry_Notes>  (327) 
This compound has an ester and may undergo hydrolysis at high or low pH. This compound has an imine and may undergo hydrolysis.

>  <s_lp_Force_Field>  (327) 
OPLS3e

>  <r_lp_Energy>  (327) 
27.5919

>  <b_lp_Chiralities_Consistent>  (327) 
1

>  <s_lp_Variant>  (327) 
79:0-1

>  <s_i_glide_gridfile>  (327) 
pfpi4k_grid

>  <i_i_glide_lignum>  (327) 
14

>  <i_i_glide_rotatable_bonds>  (327) 
7

>  <r_i_docking_score>  (327) 
-2.31595

>  <r_i_glide_ligand_efficiency>  (327) 
-0.100693

>  <r_i_glide_ligand_efficiency_sa>  (327) 
-0.286359

>  <r_i_glide_ligand_efficiency_ln>  (327) 
-0.560017

>  <r_i_glide_gscore>  (327) 
-2.31595

>  <r_i_glide_lipo>  (327) 
-0.594655

>  <r_i_glide_hbond>  (327) 
-0.0315663

>  <r_i_glide_metal>  (327) 
-0

>  <r_i_glide_rewards>  (327) 
-1.20694

>  <r_i_glide_evdw>  (327) 
-25.6983

>  <r_i_glide_ecoul>  (327) 
1.26887

>  <r_i_glide_erotb>  (327) 
0.624102

>  <r_i_glide_esite>  (327) 
-0.0123019

>  <r_i_glide_emodel>  (327) 
-29.1281

>  <r_i_glide_energy>  (327) 
-24.4294

>  <r_i_glide_einternal>  (327) 
2.60788

>  <r_i_glide_intrahb_reward>  (327) 
-0

>  <i_i_glide_confnum>  (327) 
1

>  <i_i_glide_posenum>  (327) 
9

>  <r_i_glide_eff_state_penalty>  (327) 
0

>  <ligand_id>  (327) 
79

>  <original_smiles>  (327) 
COC(=O)CSC1=NC(C)=C(C(=O)O)C(c2cccs2)C1C#N

>  <smiles>  (327) 
[H]c1sc(C2([H])C(C(=O)[O-])=C(C([H])([H])[H])N=C(SC([H])([H])C(=O)OC([H])([H])[H])C2([H])C#N)c([H])c1[H]

$$$$
79:0:2
     RDKit          3D

 36 37  0  0  1  0  0  0  0  0999 V2000
    4.4520   -0.8972   -2.5409 C   0  0  0  0  0  0  0  0  0  0  0  0
    3.8172   -1.0816   -1.2889 O   0  0  0  0  0  0  0  0  0  0  0  0
    4.5553   -1.1277   -0.1731 C   0  0  0  0  0  0  0  0  0  0  0  0
    5.7866   -1.0562   -0.1197 O   0  0  0  0  0  0  0  0  0  0  0  0
    3.6916   -1.2770    1.0735 C   0  0  0  0  0  0  0  0  0  0  0  0
    3.0183    0.3365    1.5881 S   0  0  0  0  0  0  0  0  0  0  0  0
    1.8621   -0.1227    2.8720 C   0  0  0  0  0  0  0  0  0  0  0  0
    1.7606   -1.3414    3.2388 N   0  0  0  0  0  0  0  0  0  0  0  0
    0.8609   -1.7583    4.2295 C   0  0  0  0  0  0  0  0  0  0  0  0
    1.0758   -3.1898    4.7359 C   0  0  0  0  0  0  0  0  0  0  0  0
   -0.1151   -0.9373    4.6880 C   0  0  0  0  0  0  0  0  0  0  0  0
   -1.1335   -1.3910    5.7672 C   0  0  0  0  0  0  0  0  0  0  0  0
   -2.3430   -1.4625    5.4587 O   0  0  0  0  0  0  0  0  0  0  0  0
   -0.6271   -1.5879    6.8903 O   0  0  0  0  0  0  0  0  0  0  0  0
   -0.2272    0.5208    4.1992 C   0  0  1  0  0  0  0  0  0  0  0  0
   -0.6703    1.4791    5.2806 C   0  0  0  0  0  0  0  0  0  0  0  0
   -0.1995    1.5385    6.5688 C   0  0  0  0  0  0  0  0  0  0  0  0
   -0.7827    2.5634    7.3533 C   0  0  0  0  0  0  0  0  0  0  0  0
   -1.7021    3.3013    6.6579 C   0  0  0  0  0  0  0  0  0  0  0  0
   -1.8456    2.7447    5.0051 S   0  0  0  0  0  0  0  0  0  0  0  0
    1.0651    1.0140    3.4873 C   0  0  1  0  0  0  0  0  0  0  0  0
    1.9727    1.7513    4.3777 C   0  0  0  0  0  0  0  0  0  0  0  0
    2.6902    2.3297    5.0799 N   0  0  0  0  0  0  0  0  0  0  0  0
    3.6959   -0.8674   -3.3255 H   0  0  0  0  0  0  0  0  0  0  0  0
    5.1304   -1.7293   -2.7384 H   0  0  0  0  0  0  0  0  0  0  0  0
    5.0113    0.0385   -2.5611 H   0  0  0  0  0  0  0  0  0  0  0  0
    2.8601   -1.9456    0.8471 H   0  0  0  0  0  0  0  0  0  0  0  0
    4.2690   -1.7088    1.8898 H   0  0  0  0  0  0  0  0  0  0  0  0
    0.2647   -3.5749    5.3413 H   0  0  0  0  0  0  0  0  0  0  0  0
    1.9653   -3.2374    5.3610 H   0  0  0  0  0  0  0  0  0  0  0  0
    1.1921   -3.8856    3.9077 H   0  0  0  0  0  0  0  0  0  0  0  0
   -1.0193    0.4729    3.4541 H   0  0  0  0  0  0  0  0  0  0  0  0
    0.5485    0.8718    6.9632 H   0  0  0  0  0  0  0  0  0  0  0  0
   -0.4925    2.7180    8.3825 H   0  0  0  0  0  0  0  0  0  0  0  0
   -2.2840    4.1407    7.0151 H   0  0  0  0  0  0  0  0  0  0  0  0
    0.7655    1.7032    2.6923 H   0  0  0  0  0  0  0  0  0  0  0  0
  1  2  1  0
  1 24  1  0
  1 25  1  0
  1 26  1  0
  2  3  1  0
  3  4  2  0
  3  5  1  0
  5  6  1  0
  5 27  1  0
  5 28  1  0
  6  7  1  0
  7 21  1  0
  7  8  2  0
  8  9  1  0
  9 10  1  0
  9 11  2  0
 10 29  1  0
 10 30  1  0
 10 31  1  0
 11 12  1  0
 11 15  1  0
 12 13  2  0
 12 14  1  0
 15 16  1  0
 15 21  1  0
 15 32  1  6
 16 20  1  0
 16 17  2  0
 17 18  1  0
 17 33  1  0
 18 19  2  0
 18 34  1  0
 19 20  1  0
 19 35  1  0
 21 22  1  0
 21 36  1  6
 22 23  3  0
M  CHG  1  14  -1
M  END
>  <i_m_ct_stereo_status>  (328) 
1

>  <s_m_source_file>  (328) 
/var/tmp/pbs.5102103.sched01/tmphafng327/110q8crsuru.sdf

>  <i_m_source_file_index>  (328) 
14

>  <i_lp_mmshare_version>  (328) 
48012

>  <i_f3d_flags>  (328) 
0

>  <s_epik_input>  (328) 
W0NIM11PQyg9TylbQ0gyXVNDMT1OQyhbQ0gzXSk9QyhDKD1PKVtPSF0pW0NASF0oW0NASF0xQyNOKWMyW2NIXVtjSF1bY0hdczI=

>  <s_epik_cmdline>  (328) 
J2VwaWtfcHl0aG9uJywgJy1waHQnLCAnMi4wJywgJy1waCcsICc3LjAnLCAnLXRuJywgJzgnLCAnLW1hJywgJzIwMCcsICctaW1hZScsICc8aW5maWxlLm1hZT4nLCAnLW9tYWUnLCAnPG91dGZpbGUubWFlPic=

>  <r_lp_tautomer_probability>  (328) 
1

>  <r_epik_Ionization_Penalty>  (328) 
0.0003625

>  <r_epik_Ionization_Penalty_Charging>  (328) 
0.000184928

>  <r_epik_Ionization_Penalty_Neutral>  (328) 
0.000177572

>  <r_epik_State_Penalty>  (328) 
-0

>  <r_epik_Charging_Adjusted_Penalty>  (328) 
0.000184928

>  <i_epik_Tot_Q>  (328) 
-1

>  <i_epik_Tot_abs_Q>  (328) 
1

>  <s_epik_Chemistry_Notes>  (328) 
This compound has an ester and may undergo hydrolysis at high or low pH. This compound has an imine and may undergo hydrolysis.

>  <s_lp_Force_Field>  (328) 
OPLS3e

>  <r_lp_Energy>  (328) 
27.5919

>  <b_lp_Chiralities_Consistent>  (328) 
1

>  <s_lp_Variant>  (328) 
79:0-1

>  <s_i_glide_gridfile>  (328) 
pfpi4k_grid

>  <i_i_glide_lignum>  (328) 
14

>  <i_i_glide_rotatable_bonds>  (328) 
7

>  <r_i_docking_score>  (328) 
-2.18091

>  <r_i_glide_ligand_efficiency>  (328) 
-0.0948221

>  <r_i_glide_ligand_efficiency_sa>  (328) 
-0.269661

>  <r_i_glide_ligand_efficiency_ln>  (328) 
-0.527363

>  <r_i_glide_gscore>  (328) 
-2.18091

>  <r_i_glide_lipo>  (328) 
-0.139612

>  <r_i_glide_hbond>  (328) 
-0.00047499

>  <r_i_glide_metal>  (328) 
-0

>  <r_i_glide_rewards>  (328) 
-1.02677

>  <r_i_glide_evdw>  (328) 
-24.0413

>  <r_i_glide_ecoul>  (328) 
-2.28923

>  <r_i_glide_erotb>  (328) 
0.624102

>  <r_i_glide_esite>  (328) 
-0.0926977

>  <r_i_glide_emodel>  (328) 
-30.8112

>  <r_i_glide_energy>  (328) 
-26.3306

>  <r_i_glide_einternal>  (328) 
2.66626

>  <r_i_glide_intrahb_reward>  (328) 
-0

>  <i_i_glide_confnum>  (328) 
2

>  <i_i_glide_posenum>  (328) 
35

>  <r_i_glide_eff_state_penalty>  (328) 
0

>  <ligand_id>  (328) 
79

>  <original_smiles>  (328) 
COC(=O)CSC1=NC(C)=C(C(=O)O)C(c2cccs2)C1C#N

>  <smiles>  (328) 
[H]c1sc(C2([H])C(C(=O)[O-])=C(C([H])([H])[H])N=C(SC([H])([H])C(=O)OC([H])([H])[H])C2([H])C#N)c([H])c1[H]

$$$$
80:0:0
     RDKit          3D

 47 50  0  0  1  0  0  0  0  0999 V2000
    5.3888   -2.9871   -2.9020 C   0  0  0  0  0  0  0  0  0  0  0  0
    4.6096   -2.7249   -1.7404 O   0  0  0  0  0  0  0  0  0  0  0  0
    4.8627   -3.4096   -0.6175 C   0  0  0  0  0  0  0  0  0  0  0  0
    5.7900   -4.2050   -0.4788 O   0  0  0  0  0  0  0  0  0  0  0  0
    3.8708   -3.1296    0.5293 C   0  0  2  0  0  0  0  0  0  0  0  0
    4.1460   -1.7919    1.2361 C   0  0  0  0  0  0  0  0  0  0  0  0
    3.6904   -0.4917    0.6163 C   0  0  0  0  0  0  0  0  0  0  0  0
    4.7115   -1.8437    2.3795 N   0  0  0  0  0  0  0  0  0  0  0  0
    5.0931   -3.2172    2.6231 C   0  0  2  0  0  0  0  0  0  0  0  0
    4.1904   -4.0032    1.7187 C   0  0  0  0  0  0  0  0  0  0  0  0
    3.6302   -5.1095    2.2716 C   0  0  0  0  0  0  0  0  0  0  0  0
    2.5862   -5.9851    1.7195 C   0  0  0  0  0  0  0  0  0  0  0  0
    1.6448   -5.6042    1.0224 O   0  0  0  0  0  0  0  0  0  0  0  0
    2.7016   -7.2938    2.0758 N   0  0  0  0  0  0  0  0  0  0  0  0
    3.9411   -7.9938    2.4576 C   0  0  0  0  0  0  0  0  0  0  0  0
    3.4978   -9.3775    2.8965 C   0  0  0  0  0  0  0  0  0  0  0  0
    2.2682   -9.6542    2.0565 C   0  0  0  0  0  0  0  0  0  0  0  0
    1.6286   -8.2760    1.8610 C   0  0  0  0  0  0  0  0  0  0  0  0
    3.9513   -5.0183    3.7089 C   0  0  0  0  0  0  0  0  0  0  0  0
    4.7337   -3.8810    3.9125 C   0  0  0  0  0  0  0  0  0  0  0  0
    5.0370   -3.8325    5.2378 C   0  0  0  0  0  0  0  0  0  0  0  0
    5.8186   -2.9495    5.9075 O   0  0  0  0  0  0  0  0  0  0  0  0
    4.4499   -4.9200    5.8828 N   0  0  0  0  0  0  0  0  0  0  0  0
    4.5787   -5.2655    7.2936 C   0  0  0  0  0  0  0  0  0  0  0  0
    3.7344   -5.6473    4.9158 C   0  0  0  0  0  0  0  0  0  0  0  0
    3.0373   -6.7612    5.2657 O   0  0  0  0  0  0  0  0  0  0  0  0
    5.0203   -2.3665   -3.7152 H   0  0  0  0  0  0  0  0  0  0  0  0
    5.3001   -4.0296   -3.2139 H   0  0  0  0  0  0  0  0  0  0  0  0
    6.4472   -2.7612   -2.7507 H   0  0  0  0  0  0  0  0  0  0  0  0
    2.8251   -3.1976    0.2063 H   0  0  0  0  0  0  0  0  0  0  0  0
    2.6115   -0.4979    0.4654 H   0  0  0  0  0  0  0  0  0  0  0  0
    4.2025   -0.2940   -0.3297 H   0  0  0  0  0  0  0  0  0  0  0  0
    3.9238    0.3308    1.2949 H   0  0  0  0  0  0  0  0  0  0  0  0
    6.1440   -3.3937    2.3610 H   0  0  0  0  0  0  0  0  0  0  0  0
    4.5958   -8.0383    1.5893 H   0  0  0  0  0  0  0  0  0  0  0  0
    4.5329   -7.5669    3.2645 H   0  0  0  0  0  0  0  0  0  0  0  0
    4.2839  -10.1162    2.7679 H   0  0  0  0  0  0  0  0  0  0  0  0
    3.2188   -9.3673    3.9523 H   0  0  0  0  0  0  0  0  0  0  0  0
    2.5920  -10.0721    1.1007 H   0  0  0  0  0  0  0  0  0  0  0  0
    1.5972  -10.3766    2.5256 H   0  0  0  0  0  0  0  0  0  0  0  0
    0.8518   -8.1193    2.6078 H   0  0  0  0  0  0  0  0  0  0  0  0
    1.1510   -8.2100    0.8809 H   0  0  0  0  0  0  0  0  0  0  0  0
    5.8305   -3.2096    6.8103 H   0  0  0  0  0  0  0  0  0  0  0  0
    3.6723   -5.7616    7.6434 H   0  0  0  0  0  0  0  0  0  0  0  0
    4.7185   -4.3609    7.8885 H   0  0  0  0  0  0  0  0  0  0  0  0
    5.4339   -5.9342    7.4503 H   0  0  0  0  0  0  0  0  0  0  0  0
    2.8041   -7.2229    4.4749 H   0  0  0  0  0  0  0  0  0  0  0  0
  1  2  1  0
  1 27  1  0
  1 28  1  0
  1 29  1  0
  2  3  1  0
  3  4  2  0
  3  5  1  0
  5 10  1  0
  5  6  1  0
  5 30  1  6
  6  7  1  0
  6  8  2  0
  7 31  1  0
  7 32  1  0
  7 33  1  0
  8  9  1  0
  9 20  1  0
  9 10  1  0
  9 34  1  6
 10 11  2  0
 11 12  1  0
 11 19  1  0
 12 13  2  0
 12 14  1  0
 14 18  1  0
 14 15  1  0
 15 16  1  0
 15 35  1  0
 15 36  1  0
 16 17  1  0
 16 37  1  0
 16 38  1  0
 17 18  1  0
 17 39  1  0
 17 40  1  0
 18 41  1  0
 18 42  1  0
 19 25  2  0
 19 20  1  0
 20 21  2  0
 21 22  1  0
 21 23  1  0
 22 43  1  0
 23 24  1  0
 23 25  1  0
 24 44  1  0
 24 45  1  0
 24 46  1  0
 25 26  1  0
 26 47  1  0
M  END
>  <i_m_ct_stereo_status>  (329) 
1

>  <s_m_source_file>  (329) 
/var/tmp/pbs.5102103.sched01/tmphafng327/110q8crsuru.sdf

>  <i_m_source_file_index>  (329) 
15

>  <i_lp_mmshare_version>  (329) 
48012

>  <i_f3d_flags>  (329) 
0

>  <s_epik_input>  (329) 
W09IXWMxbihbQ0gzXSljKFtPSF0pYzJjMUMoPUMoW0NASF0yMylbQ0BASF0oQyg9TjMpW0NIM10pQyg9TylPW0NIM10pQyg9TylONFtDSDJdW0NIMl1bQ0gyXVtDSDJdNA==

>  <s_epik_cmdline>  (329) 
J2VwaWtfcHl0aG9uJywgJy1waHQnLCAnMi4wJywgJy1waCcsICc3LjAnLCAnLXRuJywgJzgnLCAnLW1hJywgJzIwMCcsICctaW1hZScsICc8aW5maWxlLm1hZT4nLCAnLW9tYWUnLCAnPG91dGZpbGUubWFlPic=

>  <r_lp_tautomer_probability>  (329) 
0.999986

>  <r_epik_Ionization_Penalty>  (329) 
0.222367

>  <r_epik_Ionization_Penalty_Charging>  (329) 
0

>  <r_epik_Ionization_Penalty_Neutral>  (329) 
0.222367

>  <r_epik_State_Penalty>  (329) 
0.203974

>  <r_epik_Charging_Adjusted_Penalty>  (329) 
0.203974

>  <i_epik_Tot_Q>  (329) 
0

>  <i_epik_Tot_abs_Q>  (329) 
0

>  <s_epik_Chemistry_Notes>  (329) 
This compound has an ester and may undergo hydrolysis at high or low pH. This compound has an imine and may undergo hydrolysis.

>  <s_lp_Force_Field>  (329) 
OPLS3e

>  <r_lp_Energy>  (329) 
19.015

>  <b_lp_Chiralities_Consistent>  (329) 
1

>  <s_lp_Variant>  (329) 
80:0-1

>  <s_i_glide_gridfile>  (329) 
pfpi4k_grid

>  <i_i_glide_lignum>  (329) 
15

>  <i_i_glide_rotatable_bonds>  (329) 
6

>  <r_i_docking_score>  (329) 
-2.55431

>  <r_i_glide_ligand_efficiency>  (329) 
-0.0982427

>  <r_i_glide_ligand_efficiency_sa>  (329) 
-0.291044

>  <r_i_glide_ligand_efficiency_ln>  (329) 
-0.599871

>  <r_i_glide_gscore>  (329) 
-2.55431

>  <r_i_glide_lipo>  (329) 
-0.30078

>  <r_i_glide_hbond>  (329) 
-0.121836

>  <r_i_glide_metal>  (329) 
-0

>  <r_i_glide_rewards>  (329) 
-1.02582

>  <r_i_glide_evdw>  (329) 
-21.4417

>  <r_i_glide_ecoul>  (329) 
-3.08236

>  <r_i_glide_erotb>  (329) 
0.445214

>  <r_i_glide_esite>  (329) 
-0.0166469

>  <r_i_glide_emodel>  (329) 
-27.339

>  <r_i_glide_energy>  (329) 
-24.5241

>  <r_i_glide_einternal>  (329) 
1.69578

>  <r_i_glide_intrahb_reward>  (329) 
-0

>  <i_i_glide_confnum>  (329) 
5

>  <i_i_glide_posenum>  (329) 
14

>  <r_i_glide_eff_state_penalty>  (329) 
0

>  <ligand_id>  (329) 
80

>  <original_smiles>  (329) 
COC(=O)C1C(C)=NC2C1=C(C(=O)N1CCCC1)c1c2c(O)n(C)c1O

>  <smiles>  (329) 
[H]Oc1c2c(c(O[H])n1C([H])([H])[H])C1([H])N=C(C([H])([H])[H])C([H])(C(=O)OC([H])([H])[H])C1=C2C(=O)N1C([H])([H])C([H])([H])C([H])([H])C1([H])[H]

$$$$
80:0:1
     RDKit          3D

 47 50  0  0  1  0  0  0  0  0999 V2000
    2.2349   -4.1561    4.8243 C   0  0  0  0  0  0  0  0  0  0  0  0
    2.6080   -3.0312    4.0349 O   0  0  0  0  0  0  0  0  0  0  0  0
    2.1914   -1.8129    4.3993 C   0  0  0  0  0  0  0  0  0  0  0  0
    1.4787   -1.5964    5.3784 O   0  0  0  0  0  0  0  0  0  0  0  0
    2.6465   -0.6701    3.4748 C   0  0  2  0  0  0  0  0  0  0  0  0
    4.1584   -0.4701    3.5260 C   0  0  0  0  0  0  0  0  0  0  0  0
    5.0712   -1.3814    2.7356 C   0  0  0  0  0  0  0  0  0  0  0  0
    4.6119    0.5278    4.1924 N   0  0  0  0  0  0  0  0  0  0  0  0
    3.5094    1.1301    4.8936 C   0  0  2  0  0  0  0  0  0  0  0  0
    2.3052    0.6572    4.1090 C   0  0  0  0  0  0  0  0  0  0  0  0
    1.3648    1.5981    3.8547 C   0  0  0  0  0  0  0  0  0  0  0  0
    0.2068    1.5440    2.9723 C   0  0  0  0  0  0  0  0  0  0  0  0
    0.1886    0.9793    1.8752 O   0  0  0  0  0  0  0  0  0  0  0  0
   -0.8749    2.1970    3.4411 N   0  0  0  0  0  0  0  0  0  0  0  0
   -1.2140    2.4202    4.8515 C   0  0  0  0  0  0  0  0  0  0  0  0
   -2.4507    3.3041    4.8442 C   0  0  0  0  0  0  0  0  0  0  0  0
   -3.1281    2.9758    3.5374 C   0  0  0  0  0  0  0  0  0  0  0  0
   -2.0006    2.5766    2.6023 C   0  0  0  0  0  0  0  0  0  0  0  0
    1.9816    2.8773    4.2606 C   0  0  0  0  0  0  0  0  0  0  0  0
    3.2547    2.5904    4.7841 C   0  0  0  0  0  0  0  0  0  0  0  0
    3.7649    3.7718    5.2109 C   0  0  0  0  0  0  0  0  0  0  0  0
    4.9225    3.9842    5.8910 O   0  0  0  0  0  0  0  0  0  0  0  0
    2.8565    4.7989    4.9109 N   0  0  0  0  0  0  0  0  0  0  0  0
    3.0583    6.2137    5.2236 C   0  0  0  0  0  0  0  0  0  0  0  0
    1.7314    4.2138    4.3062 C   0  0  0  0  0  0  0  0  0  0  0  0
    0.6480    4.9658    3.9206 O   0  0  0  0  0  0  0  0  0  0  0  0
    2.6508   -5.0555    4.3783 H   0  0  0  0  0  0  0  0  0  0  0  0
    1.1519   -4.2709    4.8580 H   0  0  0  0  0  0  0  0  0  0  0  0
    2.6054   -4.0893    5.8488 H   0  0  0  0  0  0  0  0  0  0  0  0
    2.2799   -0.7484    2.4429 H   0  0  0  0  0  0  0  0  0  0  0  0
    4.8242   -1.3541    1.6658 H   0  0  0  0  0  0  0  0  0  0  0  0
    5.0383   -2.4163    3.1062 H   0  0  0  0  0  0  0  0  0  0  0  0
    6.1033   -1.0303    2.8515 H   0  0  0  0  0  0  0  0  0  0  0  0
    3.4377    0.7931    5.9347 H   0  0  0  0  0  0  0  0  0  0  0  0
   -1.4464    1.4395    5.2695 H   0  0  0  0  0  0  0  0  0  0  0  0
   -0.4409    2.8871    5.4630 H   0  0  0  0  0  0  0  0  0  0  0  0
   -3.0849    3.1375    5.7094 H   0  0  0  0  0  0  0  0  0  0  0  0
   -2.1358    4.3384    4.8355 H   0  0  0  0  0  0  0  0  0  0  0  0
   -3.8206    2.1557    3.6793 H   0  0  0  0  0  0  0  0  0  0  0  0
   -3.7328    3.7674    3.1179 H   0  0  0  0  0  0  0  0  0  0  0  0
   -1.7218    3.4845    2.0830 H   0  0  0  0  0  0  0  0  0  0  0  0
   -2.3291    1.8173    1.8772 H   0  0  0  0  0  0  0  0  0  0  0  0
    4.9485    4.8972    6.1075 H   0  0  0  0  0  0  0  0  0  0  0  0
    2.5689    6.8453    4.4731 H   0  0  0  0  0  0  0  0  0  0  0  0
    4.1318    6.4592    5.2082 H   0  0  0  0  0  0  0  0  0  0  0  0
    2.6561    6.4543    6.2213 H   0  0  0  0  0  0  0  0  0  0  0  0
    0.3758    4.6453    3.0737 H   0  0  0  0  0  0  0  0  0  0  0  0
  1  2  1  0
  1 27  1  0
  1 28  1  0
  1 29  1  0
  2  3  1  0
  3  4  2  0
  3  5  1  0
  5 10  1  0
  5  6  1  0
  5 30  1  6
  6  7  1  0
  6  8  2  0
  7 31  1  0
  7 32  1  0
  7 33  1  0
  8  9  1  0
  9 20  1  0
  9 10  1  0
  9 34  1  1
 10 11  2  0
 11 12  1  0
 11 19  1  0
 12 13  2  0
 12 14  1  0
 14 18  1  0
 14 15  1  0
 15 16  1  0
 15 35  1  0
 15 36  1  0
 16 17  1  0
 16 37  1  0
 16 38  1  0
 17 18  1  0
 17 39  1  0
 17 40  1  0
 18 41  1  0
 18 42  1  0
 19 25  2  0
 19 20  1  0
 20 21  2  0
 21 22  1  0
 21 23  1  0
 22 43  1  0
 23 24  1  0
 23 25  1  0
 24 44  1  0
 24 45  1  0
 24 46  1  0
 25 26  1  0
 26 47  1  0
M  END
>  <i_m_ct_stereo_status>  (330) 
1

>  <s_m_source_file>  (330) 
/var/tmp/pbs.5102103.sched01/tmphafng327/110q8crsuru.sdf

>  <i_m_source_file_index>  (330) 
15

>  <i_lp_mmshare_version>  (330) 
48012

>  <i_f3d_flags>  (330) 
0

>  <s_epik_input>  (330) 
W09IXWMxbihbQ0gzXSljKFtPSF0pYzJjMUMoPUMoW0NASF0yMylbQ0BASF0oQyg9TjMpW0NIM10pQyg9TylPW0NIM10pQyg9TylONFtDSDJdW0NIMl1bQ0gyXVtDSDJdNA==

>  <s_epik_cmdline>  (330) 
J2VwaWtfcHl0aG9uJywgJy1waHQnLCAnMi4wJywgJy1waCcsICc3LjAnLCAnLXRuJywgJzgnLCAnLW1hJywgJzIwMCcsICctaW1hZScsICc8aW5maWxlLm1hZT4nLCAnLW9tYWUnLCAnPG91dGZpbGUubWFlPic=

>  <r_lp_tautomer_probability>  (330) 
0.999986

>  <r_epik_Ionization_Penalty>  (330) 
0.222367

>  <r_epik_Ionization_Penalty_Charging>  (330) 
0

>  <r_epik_Ionization_Penalty_Neutral>  (330) 
0.222367

>  <r_epik_State_Penalty>  (330) 
0.203974

>  <r_epik_Charging_Adjusted_Penalty>  (330) 
0.203974

>  <i_epik_Tot_Q>  (330) 
0

>  <i_epik_Tot_abs_Q>  (330) 
0

>  <s_epik_Chemistry_Notes>  (330) 
This compound has an ester and may undergo hydrolysis at high or low pH. This compound has an imine and may undergo hydrolysis.

>  <s_lp_Force_Field>  (330) 
OPLS3e

>  <r_lp_Energy>  (330) 
19.015

>  <b_lp_Chiralities_Consistent>  (330) 
1

>  <s_lp_Variant>  (330) 
80:0-1

>  <s_i_glide_gridfile>  (330) 
pfpi4k_grid

>  <i_i_glide_lignum>  (330) 
15

>  <i_i_glide_rotatable_bonds>  (330) 
6

>  <r_i_docking_score>  (330) 
-2.11616

>  <r_i_glide_ligand_efficiency>  (330) 
-0.0813907

>  <r_i_glide_ligand_efficiency_sa>  (330) 
-0.24112

>  <r_i_glide_ligand_efficiency_ln>  (330) 
-0.496973

>  <r_i_glide_gscore>  (330) 
-2.11616

>  <r_i_glide_lipo>  (330) 
-0.0938423

>  <r_i_glide_hbond>  (330) 
-0.0340092

>  <r_i_glide_metal>  (330) 
-0

>  <r_i_glide_rewards>  (330) 
-0.9958

>  <r_i_glide_evdw>  (330) 
-21.8874

>  <r_i_glide_ecoul>  (330) 
-1.66537

>  <r_i_glide_erotb>  (330) 
0.445214

>  <r_i_glide_esite>  (330) 
-0.0935471

>  <r_i_glide_emodel>  (330) 
-24.485

>  <r_i_glide_energy>  (330) 
-23.5527

>  <r_i_glide_einternal>  (330) 
3.42857

>  <r_i_glide_intrahb_reward>  (330) 
-0

>  <i_i_glide_confnum>  (330) 
6

>  <i_i_glide_posenum>  (330) 
7

>  <r_i_glide_eff_state_penalty>  (330) 
0

>  <ligand_id>  (330) 
80

>  <original_smiles>  (330) 
COC(=O)C1C(C)=NC2C1=C(C(=O)N1CCCC1)c1c2c(O)n(C)c1O

>  <smiles>  (330) 
[H]Oc1c2c(c(O[H])n1C([H])([H])[H])C1([H])N=C(C([H])([H])[H])C([H])(C(=O)OC([H])([H])[H])C1=C2C(=O)N1C([H])([H])C([H])([H])C([H])([H])C1([H])[H]

$$$$
80:0:2
     RDKit          3D

 47 50  0  0  1  0  0  0  0  0999 V2000
    0.1443   -4.9128    9.8862 C   0  0  0  0  0  0  0  0  0  0  0  0
   -0.2219   -4.7929    8.5163 O   0  0  0  0  0  0  0  0  0  0  0  0
    0.1416   -3.6953    7.8144 C   0  0  0  0  0  0  0  0  0  0  0  0
    0.7645   -2.7415    8.2871 O   0  0  0  0  0  0  0  0  0  0  0  0
   -0.3299   -3.7178    6.3465 C   0  0  2  0  0  0  0  0  0  0  0  0
    0.2024   -4.9142    5.5371 C   0  0  0  0  0  0  0  0  0  0  0  0
   -0.4589   -6.2785    5.6688 C   0  0  0  0  0  0  0  0  0  0  0  0
    1.1622   -4.6819    4.7331 N   0  0  0  0  0  0  0  0  0  0  0  0
    1.5932   -3.3197    4.9333 C   0  0  2  0  0  0  0  0  0  0  0  0
    0.3798   -2.6544    5.5301 C   0  0  0  0  0  0  0  0  0  0  0  0
    0.0703   -1.4461    4.9997 C   0  0  0  0  0  0  0  0  0  0  0  0
   -1.0898   -0.5929    5.3094 C   0  0  0  0  0  0  0  0  0  0  0  0
   -2.1750   -1.0810    5.6415 O   0  0  0  0  0  0  0  0  0  0  0  0
   -0.8633    0.7558    5.2613 N   0  0  0  0  0  0  0  0  0  0  0  0
    0.4538    1.4317    5.2132 C   0  0  0  0  0  0  0  0  0  0  0  0
    0.1007    2.8825    4.8980 C   0  0  0  0  0  0  0  0  0  0  0  0
   -1.2609    3.1160    5.5480 C   0  0  0  0  0  0  0  0  0  0  0  0
   -1.9526    1.7475    5.4201 C   0  0  0  0  0  0  0  0  0  0  0  0
    0.9626   -1.2870    3.8291 C   0  0  0  0  0  0  0  0  0  0  0  0
    1.7960   -2.4117    3.7694 C   0  0  0  0  0  0  0  0  0  0  0  0
    2.6074   -2.2539    2.6841 C   0  0  0  0  0  0  0  0  0  0  0  0
    3.6045   -3.0683    2.2180 O   0  0  0  0  0  0  0  0  0  0  0  0
    2.3135   -1.0439    2.0727 N   0  0  0  0  0  0  0  0  0  0  0  0
    2.9894   -0.4743    0.9167 C   0  0  0  0  0  0  0  0  0  0  0  0
    1.2272   -0.4852    2.7501 C   0  0  0  0  0  0  0  0  0  0  0  0
    0.6496    0.6713    2.2900 O   0  0  0  0  0  0  0  0  0  0  0  0
   -0.2452   -5.8512   10.2797 H   0  0  0  0  0  0  0  0  0  0  0  0
   -0.2739   -4.1011   10.4843 H   0  0  0  0  0  0  0  0  0  0  0  0
    1.2280   -4.9210   10.0175 H   0  0  0  0  0  0  0  0  0  0  0  0
   -1.4083   -3.6594    6.3024 H   0  0  0  0  0  0  0  0  0  0  0  0
   -1.5108   -6.2307    5.3934 H   0  0  0  0  0  0  0  0  0  0  0  0
   -0.3605   -6.6708    6.6820 H   0  0  0  0  0  0  0  0  0  0  0  0
    0.0243   -6.9903    4.9975 H   0  0  0  0  0  0  0  0  0  0  0  0
    2.4220   -3.2698    5.6442 H   0  0  0  0  0  0  0  0  0  0  0  0
    0.9097    1.3526    6.2099 H   0  0  0  0  0  0  0  0  0  0  0  0
    1.1460    1.1178    4.4448 H   0  0  0  0  0  0  0  0  0  0  0  0
    0.8693    3.5800    5.2309 H   0  0  0  0  0  0  0  0  0  0  0  0
   -0.0073    3.0233    3.8168 H   0  0  0  0  0  0  0  0  0  0  0  0
   -1.0847    3.3551    6.6014 H   0  0  0  0  0  0  0  0  0  0  0  0
   -1.8266    3.9466    5.0957 H   0  0  0  0  0  0  0  0  0  0  0  0
   -2.5809    1.7367    4.5200 H   0  0  0  0  0  0  0  0  0  0  0  0
   -2.5896    1.5632    6.2983 H   0  0  0  0  0  0  0  0  0  0  0  0
    3.9188   -2.7039    1.4062 H   0  0  0  0  0  0  0  0  0  0  0  0
    2.2792    0.1433    0.3836 H   0  0  0  0  0  0  0  0  0  0  0  0
    3.3464   -1.2619    0.2416 H   0  0  0  0  0  0  0  0  0  0  0  0
    3.8294    0.1549    1.2292 H   0  0  0  0  0  0  0  0  0  0  0  0
    1.1677    0.9555    1.5920 H   0  0  0  0  0  0  0  0  0  0  0  0
  1  2  1  0
  1 27  1  0
  1 28  1  0
  1 29  1  0
  2  3  1  0
  3  4  2  0
  3  5  1  0
  5 10  1  0
  5  6  1  0
  5 30  1  1
  6  7  1  0
  6  8  2  0
  7 31  1  0
  7 32  1  0
  7 33  1  0
  8  9  1  0
  9 20  1  0
  9 10  1  0
  9 34  1  1
 10 11  2  0
 11 12  1  0
 11 19  1  0
 12 13  2  0
 12 14  1  0
 14 18  1  0
 14 15  1  0
 15 16  1  0
 15 35  1  0
 15 36  1  0
 16 17  1  0
 16 37  1  0
 16 38  1  0
 17 18  1  0
 17 39  1  0
 17 40  1  0
 18 41  1  0
 18 42  1  0
 19 25  2  0
 19 20  1  0
 20 21  2  0
 21 22  1  0
 21 23  1  0
 22 43  1  0
 23 24  1  0
 23 25  1  0
 24 44  1  0
 24 45  1  0
 24 46  1  0
 25 26  1  0
 26 47  1  0
M  END
>  <i_m_ct_stereo_status>  (331) 
1

>  <s_m_source_file>  (331) 
/var/tmp/pbs.5102103.sched01/tmphafng327/110q8crsuru.sdf

>  <i_m_source_file_index>  (331) 
15

>  <i_lp_mmshare_version>  (331) 
48012

>  <i_f3d_flags>  (331) 
0

>  <s_epik_input>  (331) 
W09IXWMxbihbQ0gzXSljKFtPSF0pYzJjMUMoPUMoW0NASF0yMylbQ0BASF0oQyg9TjMpW0NIM10pQyg9TylPW0NIM10pQyg9TylONFtDSDJdW0NIMl1bQ0gyXVtDSDJdNA==

>  <s_epik_cmdline>  (331) 
J2VwaWtfcHl0aG9uJywgJy1waHQnLCAnMi4wJywgJy1waCcsICc3LjAnLCAnLXRuJywgJzgnLCAnLW1hJywgJzIwMCcsICctaW1hZScsICc8aW5maWxlLm1hZT4nLCAnLW9tYWUnLCAnPG91dGZpbGUubWFlPic=

>  <r_lp_tautomer_probability>  (331) 
0.999986

>  <r_epik_Ionization_Penalty>  (331) 
0.222367

>  <r_epik_Ionization_Penalty_Charging>  (331) 
0

>  <r_epik_Ionization_Penalty_Neutral>  (331) 
0.222367

>  <r_epik_State_Penalty>  (331) 
0.203974

>  <r_epik_Charging_Adjusted_Penalty>  (331) 
0.203974

>  <i_epik_Tot_Q>  (331) 
0

>  <i_epik_Tot_abs_Q>  (331) 
0

>  <s_epik_Chemistry_Notes>  (331) 
This compound has an ester and may undergo hydrolysis at high or low pH. This compound has an imine and may undergo hydrolysis.

>  <s_lp_Force_Field>  (331) 
OPLS3e

>  <r_lp_Energy>  (331) 
19.015

>  <b_lp_Chiralities_Consistent>  (331) 
1

>  <s_lp_Variant>  (331) 
80:0-1

>  <s_i_glide_gridfile>  (331) 
pfpi4k_grid

>  <i_i_glide_lignum>  (331) 
15

>  <i_i_glide_rotatable_bonds>  (331) 
6

>  <r_i_docking_score>  (331) 
-2.01055

>  <r_i_glide_ligand_efficiency>  (331) 
-0.0773289

>  <r_i_glide_ligand_efficiency_sa>  (331) 
-0.229086

>  <r_i_glide_ligand_efficiency_ln>  (331) 
-0.472171

>  <r_i_glide_gscore>  (331) 
-2.01055

>  <r_i_glide_lipo>  (331) 
-0.0202566

>  <r_i_glide_hbond>  (331) 
-0.0358697

>  <r_i_glide_metal>  (331) 
-0

>  <r_i_glide_rewards>  (331) 
-0.958797

>  <r_i_glide_evdw>  (331) 
-22.4578

>  <r_i_glide_ecoul>  (331) 
-1.27736

>  <r_i_glide_erotb>  (331) 
0.445214

>  <r_i_glide_esite>  (331) 
-0.126346

>  <r_i_glide_emodel>  (331) 
-24.7505

>  <r_i_glide_energy>  (331) 
-23.7352

>  <r_i_glide_einternal>  (331) 
1.57092

>  <r_i_glide_intrahb_reward>  (331) 
-0

>  <i_i_glide_confnum>  (331) 
5

>  <i_i_glide_posenum>  (331) 
12

>  <r_i_glide_eff_state_penalty>  (331) 
0

>  <ligand_id>  (331) 
80

>  <original_smiles>  (331) 
COC(=O)C1C(C)=NC2C1=C(C(=O)N1CCCC1)c1c2c(O)n(C)c1O

>  <smiles>  (331) 
[H]Oc1c2c(c(O[H])n1C([H])([H])[H])C1([H])N=C(C([H])([H])[H])C([H])(C(=O)OC([H])([H])[H])C1=C2C(=O)N1C([H])([H])C([H])([H])C([H])([H])C1([H])[H]

$$$$
80:1:0
     RDKit          3D

 46 49  0  0  1  0  0  0  0  0999 V2000
    1.8871  -11.7035    4.8279 C   0  0  0  0  0  0  0  0  0  0  0  0
    1.5809  -10.3246    4.7150 O   0  0  0  0  0  0  0  0  0  0  0  0
    0.7413   -9.8928    3.7602 C   0  0  0  0  0  0  0  0  0  0  0  0
    0.2207  -10.5922    2.8882 O   0  0  0  0  0  0  0  0  0  0  0  0
    0.5320   -8.3630    3.8370 C   0  0  2  0  0  0  0  0  0  0  0  0
   -0.7154   -7.8443    3.0846 C   0  0  0  0  0  0  0  0  0  0  0  0
   -2.0870   -7.9394    3.7070 C   0  0  0  0  0  0  0  0  0  0  0  0
   -0.5180   -7.2650    1.9662 N   0  0  0  0  0  0  0  0  0  0  0  0
    0.8881   -7.4420    1.6299 C   0  0  2  0  0  0  0  0  0  0  0  0
    1.5520   -7.6579    2.9513 C   0  0  0  0  0  0  0  0  0  0  0  0
    2.6920   -6.9294    3.1422 C   0  0  0  0  0  0  0  0  0  0  0  0
    3.4403   -6.8363    4.4147 C   0  0  0  0  0  0  0  0  0  0  0  0
    3.8504   -7.8424    5.0166 O   0  0  0  0  0  0  0  0  0  0  0  0
    3.6663   -5.5935    4.9407 N   0  0  0  0  0  0  0  0  0  0  0  0
    3.3765   -4.3059    4.3195 C   0  0  0  0  0  0  0  0  0  0  0  0
    3.6066   -3.2157    5.3408 C   0  0  0  0  0  0  0  0  0  0  0  0
    4.6302   -3.8429    6.2943 C   0  0  0  0  0  0  0  0  0  0  0  0
    4.3180   -5.3448    6.2466 C   0  0  0  0  0  0  0  0  0  0  0  0
    2.8303   -6.0157    1.9551 C   0  0  0  0  0  0  0  0  0  0  0  0
    1.6945   -6.2775    1.1512 C   0  0  0  0  0  0  0  0  0  0  0  0
    1.7944   -5.4454    0.0677 C   0  0  0  0  0  0  0  0  0  0  0  0
    0.9598   -5.3631   -1.0101 O   0  0  0  0  0  0  0  0  0  0  0  0
    2.9449   -4.6842    0.1855 N   0  0  0  0  0  0  0  0  0  0  0  0
    3.3931   -3.6392   -0.7203 C   0  0  0  0  0  0  0  0  0  0  0  0
    3.6492   -5.1551    1.3002 C   0  0  0  0  0  0  0  0  0  0  0  0
    4.8949   -4.6979    1.5697 O   0  0  0  0  0  0  0  0  0  0  0  0
    2.5722  -11.8530    5.6619 H   0  0  0  0  0  0  0  0  0  0  0  0
    2.3688  -12.0833    3.9267 H   0  0  0  0  0  0  0  0  0  0  0  0
    0.9905  -12.2927    5.0211 H   0  0  0  0  0  0  0  0  0  0  0  0
    0.5115   -8.0342    4.8771 H   0  0  0  0  0  0  0  0  0  0  0  0
   -2.1072   -7.3910    4.6419 H   0  0  0  0  0  0  0  0  0  0  0  0
   -2.3726   -8.9763    3.8791 H   0  0  0  0  0  0  0  0  0  0  0  0
   -2.8259   -7.4904    3.0474 H   0  0  0  0  0  0  0  0  0  0  0  0
    1.0693   -8.3386    1.0214 H   0  0  0  0  0  0  0  0  0  0  0  0
    4.1899   -4.1155    3.6508 H   0  0  0  0  0  0  0  0  0  0  0  0
    2.3898   -4.2522    3.8516 H   0  0  0  0  0  0  0  0  0  0  0  0
    4.0010   -2.3245    4.8341 H   0  0  0  0  0  0  0  0  0  0  0  0
    2.6512   -2.9549    5.8378 H   0  0  0  0  0  0  0  0  0  0  0  0
    5.6423   -3.6628    5.9206 H   0  0  0  0  0  0  0  0  0  0  0  0
    4.5419   -3.4015    7.2824 H   0  0  0  0  0  0  0  0  0  0  0  0
    3.5861   -5.5908    7.0149 H   0  0  0  0  0  0  0  0  0  0  0  0
    5.2211   -5.9468    6.4154 H   0  0  0  0  0  0  0  0  0  0  0  0
    1.5387   -5.0791   -1.7029 H   0  0  0  0  0  0  0  0  0  0  0  0
    3.8865   -2.8598   -0.1584 H   0  0  0  0  0  0  0  0  0  0  0  0
    2.5485   -3.1941   -1.2543 H   0  0  0  0  0  0  0  0  0  0  0  0
    4.0988   -4.0817   -1.4118 H   0  0  0  0  0  0  0  0  0  0  0  0
  1  2  1  0
  1 27  1  0
  1 28  1  0
  1 29  1  0
  2  3  1  0
  3  4  2  0
  3  5  1  0
  5 10  1  0
  5  6  1  0
  5 30  1  1
  6  7  1  0
  6  8  2  0
  7 31  1  0
  7 32  1  0
  7 33  1  0
  8  9  1  0
  9 20  1  0
  9 10  1  0
  9 34  1  6
 10 11  2  0
 11 12  1  0
 11 19  1  0
 12 13  2  0
 12 14  1  0
 14 18  1  0
 14 15  1  0
 15 16  1  0
 15 35  1  0
 15 36  1  0
 16 17  1  0
 16 37  1  0
 16 38  1  0
 17 18  1  0
 17 39  1  0
 17 40  1  0
 18 41  1  0
 18 42  1  0
 19 25  2  0
 19 20  1  0
 20 21  2  0
 21 22  1  0
 21 23  1  0
 22 43  1  0
 23 24  1  0
 23 25  1  0
 24 44  1  0
 24 45  1  0
 24 46  1  0
 25 26  1  0
M  CHG  1  26  -1
M  END
>  <i_m_ct_stereo_status>  (332) 
1

>  <s_m_source_file>  (332) 
/var/tmp/pbs.5102103.sched01/tmphafng327/110q8crsuru.sdf

>  <i_m_source_file_index>  (332) 
16

>  <i_lp_mmshare_version>  (332) 
48012

>  <i_f3d_flags>  (332) 
0

>  <s_epik_input>  (332) 
W09IXWMxbihbQ0gzXSljKFtPSF0pYzJjMUMoPUMoW0NASF0yMylbQ0BASF0oQyg9TjMpW0NIM10pQyg9TylPW0NIM10pQyg9TylONFtDSDJdW0NIMl1bQ0gyXVtDSDJdNA==

>  <s_epik_cmdline>  (332) 
J2VwaWtfcHl0aG9uJywgJy1waHQnLCAnMi4wJywgJy1waCcsICc3LjAnLCAnLXRuJywgJzgnLCAnLW1hJywgJzIwMCcsICctaW1hZScsICc8aW5maWxlLm1hZT4nLCAnLW9tYWUnLCAnPG91dGZpbGUubWFlPic=

>  <r_lp_tautomer_probability>  (332) 
0.999986

>  <r_epik_Ionization_Penalty>  (332) 
0.734502

>  <r_epik_Ionization_Penalty_Charging>  (332) 
0.734084

>  <r_epik_Ionization_Penalty_Neutral>  (332) 
0.000418711

>  <r_epik_State_Penalty>  (332) 
0.771055

>  <r_epik_Charging_Adjusted_Penalty>  (332) 
1.50514

>  <i_epik_Tot_Q>  (332) 
-1

>  <i_epik_Tot_abs_Q>  (332) 
1

>  <s_epik_Chemistry_Notes>  (332) 
This compound has an ester and may undergo hydrolysis at high or low pH. This compound has an imine and may undergo hydrolysis.

>  <s_lp_Force_Field>  (332) 
OPLS3e

>  <r_lp_Energy>  (332) 
24.773

>  <b_lp_Chiralities_Consistent>  (332) 
1

>  <s_lp_Variant>  (332) 
80:0-2

>  <s_i_glide_gridfile>  (332) 
pfpi4k_grid

>  <i_i_glide_lignum>  (332) 
16

>  <i_i_glide_rotatable_bonds>  (332) 
5

>  <r_i_docking_score>  (332) 
-3.34592

>  <r_i_glide_ligand_efficiency>  (332) 
-0.128689

>  <r_i_glide_ligand_efficiency_sa>  (332) 
-0.381241

>  <r_i_glide_ligand_efficiency_ln>  (332) 
-0.785778

>  <r_i_glide_gscore>  (332) 
-3.34592

>  <r_i_glide_lipo>  (332) 
-0.0231854

>  <r_i_glide_hbond>  (332) 
-0.579699

>  <r_i_glide_metal>  (332) 
-0

>  <r_i_glide_rewards>  (332) 
-0.965669

>  <r_i_glide_evdw>  (332) 
-18.6854

>  <r_i_glide_ecoul>  (332) 
-7.83921

>  <r_i_glide_erotb>  (332) 
0.447448

>  <r_i_glide_esite>  (332) 
-0.114657

>  <r_i_glide_emodel>  (332) 
-29.7472

>  <r_i_glide_energy>  (332) 
-26.5247

>  <r_i_glide_einternal>  (332) 
3.89698

>  <r_i_glide_intrahb_reward>  (332) 
-0

>  <i_i_glide_confnum>  (332) 
2

>  <i_i_glide_posenum>  (332) 
20

>  <r_i_glide_eff_state_penalty>  (332) 
0

>  <ligand_id>  (332) 
80

>  <original_smiles>  (332) 
COC(=O)C1C(C)=NC2C1=C(C(=O)N1CCCC1)c1c2c(O)n(C)c1O

>  <smiles>  (332) 
[H]Oc1c2c(c([O-])n1C([H])([H])[H])C(C(=O)N1C([H])([H])C([H])([H])C([H])([H])C1([H])[H])=C1C([H])(C(=O)OC([H])([H])[H])C(C([H])([H])[H])=NC12[H]

$$$$
80:1:1
     RDKit          3D

 46 49  0  0  1  0  0  0  0  0999 V2000
    0.8025  -11.8500    4.5098 C   0  0  0  0  0  0  0  0  0  0  0  0
    0.6097  -10.4446    4.4386 O   0  0  0  0  0  0  0  0  0  0  0  0
    1.3312   -9.7089    3.5813 C   0  0  0  0  0  0  0  0  0  0  0  0
    2.1588  -10.1567    2.7838 O   0  0  0  0  0  0  0  0  0  0  0  0
    1.0406   -8.1953    3.7040 C   0  0  2  0  0  0  0  0  0  0  0  0
   -0.2831   -7.7636    3.0314 C   0  0  0  0  0  0  0  0  0  0  0  0
   -1.6125   -7.9469    3.7357 C   0  0  0  0  0  0  0  0  0  0  0  0
   -0.1908   -7.1553    1.9097 N   0  0  0  0  0  0  0  0  0  0  0  0
    1.1934   -7.2330    1.4933 C   0  0  2  0  0  0  0  0  0  0  0  0
    1.9466   -7.3960    2.7766 C   0  0  0  0  0  0  0  0  0  0  0  0
    3.0391   -6.5889    2.9142 C   0  0  0  0  0  0  0  0  0  0  0  0
    3.8765   -6.4773    4.1304 C   0  0  0  0  0  0  0  0  0  0  0  0
    4.3667   -7.4653    4.6955 O   0  0  0  0  0  0  0  0  0  0  0  0
    4.0672   -5.2305    4.6562 N   0  0  0  0  0  0  0  0  0  0  0  0
    3.6590   -3.9595    4.0797 C   0  0  0  0  0  0  0  0  0  0  0  0
    3.9021   -2.8482    5.0599 C   0  0  0  0  0  0  0  0  0  0  0  0
    4.9934   -3.4250    5.9548 C   0  0  0  0  0  0  0  0  0  0  0  0
    4.7590   -4.9430    5.9215 C   0  0  0  0  0  0  0  0  0  0  0  0
    3.0421   -5.6852    1.7215 C   0  0  0  0  0  0  0  0  0  0  0  0
    1.8873   -6.0130    0.9738 C   0  0  0  0  0  0  0  0  0  0  0  0
    1.8500   -5.1548   -0.0840 C   0  0  0  0  0  0  0  0  0  0  0  0
    0.9675   -5.0855   -1.1106 O   0  0  0  0  0  0  0  0  0  0  0  0
    2.9503   -4.3120   -0.0212 N   0  0  0  0  0  0  0  0  0  0  0  0
    3.2856   -3.2335   -0.9293 C   0  0  0  0  0  0  0  0  0  0  0  0
    3.7555   -4.7243    1.0345 C   0  0  0  0  0  0  0  0  0  0  0  0
    4.9825   -4.1750    1.1734 O   0  0  0  0  0  0  0  0  0  0  0  0
    0.1353  -12.2677    5.2643 H   0  0  0  0  0  0  0  0  0  0  0  0
    1.8232  -12.0998    4.8014 H   0  0  0  0  0  0  0  0  0  0  0  0
    0.5805  -12.3351    3.5586 H   0  0  0  0  0  0  0  0  0  0  0  0
    1.0592   -7.8949    4.7556 H   0  0  0  0  0  0  0  0  0  0  0  0
   -1.6183   -7.4195    4.6862 H   0  0  0  0  0  0  0  0  0  0  0  0
   -1.8197   -9.0016    3.9104 H   0  0  0  0  0  0  0  0  0  0  0  0
   -2.4290   -7.5469    3.1322 H   0  0  0  0  0  0  0  0  0  0  0  0
    1.4052   -8.1088    0.8742 H   0  0  0  0  0  0  0  0  0  0  0  0
    4.4210   -3.7283    3.4070 H   0  0  0  0  0  0  0  0  0  0  0  0
    2.6626   -3.9600    3.6298 H   0  0  0  0  0  0  0  0  0  0  0  0
    4.2127   -1.9369    4.5346 H   0  0  0  0  0  0  0  0  0  0  0  0
    2.9606   -2.6577    5.5896 H   0  0  0  0  0  0  0  0  0  0  0  0
    5.9762   -3.1939    5.5367 H   0  0  0  0  0  0  0  0  0  0  0  0
    4.9305   -2.9903    6.9467 H   0  0  0  0  0  0  0  0  0  0  0  0
    4.0822   -5.2263    6.7260 H   0  0  0  0  0  0  0  0  0  0  0  0
    5.6973   -5.4927    6.0417 H   0  0  0  0  0  0  0  0  0  0  0  0
    1.4978   -4.8176   -1.8741 H   0  0  0  0  0  0  0  0  0  0  0  0
    3.7642   -2.4168   -0.3912 H   0  0  0  0  0  0  0  0  0  0  0  0
    2.3900   -2.8366   -1.4098 H   0  0  0  0  0  0  0  0  0  0  0  0
    3.9802   -3.6077   -1.6771 H   0  0  0  0  0  0  0  0  0  0  0  0
  1  2  1  0
  1 27  1  0
  1 28  1  0
  1 29  1  0
  2  3  1  0
  3  4  2  0
  3  5  1  0
  5 10  1  0
  5  6  1  0
  5 30  1  1
  6  7  1  0
  6  8  2  0
  7 31  1  0
  7 32  1  0
  7 33  1  0
  8  9  1  0
  9 20  1  0
  9 10  1  0
  9 34  1  6
 10 11  2  0
 11 12  1  0
 11 19  1  0
 12 13  2  0
 12 14  1  0
 14 18  1  0
 14 15  1  0
 15 16  1  0
 15 35  1  0
 15 36  1  0
 16 17  1  0
 16 37  1  0
 16 38  1  0
 17 18  1  0
 17 39  1  0
 17 40  1  0
 18 41  1  0
 18 42  1  0
 19 25  2  0
 19 20  1  0
 20 21  2  0
 21 22  1  0
 21 23  1  0
 22 43  1  0
 23 24  1  0
 23 25  1  0
 24 44  1  0
 24 45  1  0
 24 46  1  0
 25 26  1  0
M  CHG  1  26  -1
M  END
>  <i_m_ct_stereo_status>  (333) 
1

>  <s_m_source_file>  (333) 
/var/tmp/pbs.5102103.sched01/tmphafng327/110q8crsuru.sdf

>  <i_m_source_file_index>  (333) 
16

>  <i_lp_mmshare_version>  (333) 
48012

>  <i_f3d_flags>  (333) 
0

>  <s_epik_input>  (333) 
W09IXWMxbihbQ0gzXSljKFtPSF0pYzJjMUMoPUMoW0NASF0yMylbQ0BASF0oQyg9TjMpW0NIM10pQyg9TylPW0NIM10pQyg9TylONFtDSDJdW0NIMl1bQ0gyXVtDSDJdNA==

>  <s_epik_cmdline>  (333) 
J2VwaWtfcHl0aG9uJywgJy1waHQnLCAnMi4wJywgJy1waCcsICc3LjAnLCAnLXRuJywgJzgnLCAnLW1hJywgJzIwMCcsICctaW1hZScsICc8aW5maWxlLm1hZT4nLCAnLW9tYWUnLCAnPG91dGZpbGUubWFlPic=

>  <r_lp_tautomer_probability>  (333) 
0.999986

>  <r_epik_Ionization_Penalty>  (333) 
0.734502

>  <r_epik_Ionization_Penalty_Charging>  (333) 
0.734084

>  <r_epik_Ionization_Penalty_Neutral>  (333) 
0.000418711

>  <r_epik_State_Penalty>  (333) 
0.771055

>  <r_epik_Charging_Adjusted_Penalty>  (333) 
1.50514

>  <i_epik_Tot_Q>  (333) 
-1

>  <i_epik_Tot_abs_Q>  (333) 
1

>  <s_epik_Chemistry_Notes>  (333) 
This compound has an ester and may undergo hydrolysis at high or low pH. This compound has an imine and may undergo hydrolysis.

>  <s_lp_Force_Field>  (333) 
OPLS3e

>  <r_lp_Energy>  (333) 
24.773

>  <b_lp_Chiralities_Consistent>  (333) 
1

>  <s_lp_Variant>  (333) 
80:0-2

>  <s_i_glide_gridfile>  (333) 
pfpi4k_grid

>  <i_i_glide_lignum>  (333) 
16

>  <i_i_glide_rotatable_bonds>  (333) 
5

>  <r_i_docking_score>  (333) 
-2.95465

>  <r_i_glide_ligand_efficiency>  (333) 
-0.11364

>  <r_i_glide_ligand_efficiency_sa>  (333) 
-0.336659

>  <r_i_glide_ligand_efficiency_ln>  (333) 
-0.69389

>  <r_i_glide_gscore>  (333) 
-2.95465

>  <r_i_glide_lipo>  (333) 
-0.0642563

>  <r_i_glide_hbond>  (333) 
-0.485932

>  <r_i_glide_metal>  (333) 
-0

>  <r_i_glide_rewards>  (333) 
-0.965669

>  <r_i_glide_evdw>  (333) 
-20.1024

>  <r_i_glide_ecoul>  (333) 
-5.29422

>  <r_i_glide_erotb>  (333) 
0.447448

>  <r_i_glide_esite>  (333) 
-0.0869897

>  <r_i_glide_emodel>  (333) 
-26.8942

>  <r_i_glide_energy>  (333) 
-25.3966

>  <r_i_glide_einternal>  (333) 
3.81308

>  <r_i_glide_intrahb_reward>  (333) 
-0

>  <i_i_glide_confnum>  (333) 
2

>  <i_i_glide_posenum>  (333) 
37

>  <r_i_glide_eff_state_penalty>  (333) 
0

>  <ligand_id>  (333) 
80

>  <original_smiles>  (333) 
COC(=O)C1C(C)=NC2C1=C(C(=O)N1CCCC1)c1c2c(O)n(C)c1O

>  <smiles>  (333) 
[H]Oc1c2c(c([O-])n1C([H])([H])[H])C(C(=O)N1C([H])([H])C([H])([H])C([H])([H])C1([H])[H])=C1C([H])(C(=O)OC([H])([H])[H])C(C([H])([H])[H])=NC12[H]

$$$$
80:1:2
     RDKit          3D

 46 49  0  0  1  0  0  0  0  0999 V2000
    2.4943   -1.7422    4.8018 C   0  0  0  0  0  0  0  0  0  0  0  0
    1.7533   -2.9522    4.7146 O   0  0  0  0  0  0  0  0  0  0  0  0
    1.0865   -3.4087    5.7905 C   0  0  0  0  0  0  0  0  0  0  0  0
    1.0489   -2.8482    6.8880 O   0  0  0  0  0  0  0  0  0  0  0  0
    0.3808   -4.7521    5.5130 C   0  0  2  0  0  0  0  0  0  0  0  0
   -0.2888   -5.3586    6.7469 C   0  0  0  0  0  0  0  0  0  0  0  0
   -1.6392   -4.8438    7.2278 C   0  0  0  0  0  0  0  0  0  0  0  0
    0.3279   -6.3259    7.3073 N   0  0  0  0  0  0  0  0  0  0  0  0
    1.6207   -6.4751    6.6700 C   0  0  2  0  0  0  0  0  0  0  0  0
    1.4140   -5.8226    5.3247 C   0  0  0  0  0  0  0  0  0  0  0  0
    1.9013   -6.5085    4.2496 C   0  0  0  0  0  0  0  0  0  0  0  0
    1.7128   -6.2052    2.8362 C   0  0  0  0  0  0  0  0  0  0  0  0
    0.6322   -5.8610    2.3711 O   0  0  0  0  0  0  0  0  0  0  0  0
    2.8507   -6.2448    2.0792 N   0  0  0  0  0  0  0  0  0  0  0  0
    4.2162   -6.5365    2.5390 C   0  0  0  0  0  0  0  0  0  0  0  0
    5.1371   -6.1847    1.3718 C   0  0  0  0  0  0  0  0  0  0  0  0
    4.2417   -6.2891    0.1423 C   0  0  0  0  0  0  0  0  0  0  0  0
    2.8535   -5.8865    0.6597 C   0  0  0  0  0  0  0  0  0  0  0  0
    2.3171   -7.8110    4.7965 C   0  0  0  0  0  0  0  0  0  0  0  0
    2.0930   -7.8032    6.1763 C   0  0  0  0  0  0  0  0  0  0  0  0
    2.4527   -9.0236    6.6412 C   0  0  0  0  0  0  0  0  0  0  0  0
    2.4111   -9.5020    7.9030 O   0  0  0  0  0  0  0  0  0  0  0  0
    2.9173   -9.8108    5.5843 N   0  0  0  0  0  0  0  0  0  0  0  0
    3.4768  -11.1490    5.6778 C   0  0  0  0  0  0  0  0  0  0  0  0
    2.7490   -9.0544    4.4181 C   0  0  0  0  0  0  0  0  0  0  0  0
    2.9958   -9.5731    3.1957 O   0  0  0  0  0  0  0  0  0  0  0  0
    2.9593   -1.5450    3.8366 H   0  0  0  0  0  0  0  0  0  0  0  0
    3.2862   -1.7976    5.5524 H   0  0  0  0  0  0  0  0  0  0  0  0
    1.8438   -0.8994    5.0397 H   0  0  0  0  0  0  0  0  0  0  0  0
   -0.3093   -4.6775    4.6823 H   0  0  0  0  0  0  0  0  0  0  0  0
   -2.4138   -4.9915    6.4772 H   0  0  0  0  0  0  0  0  0  0  0  0
   -1.5827   -3.7924    7.5290 H   0  0  0  0  0  0  0  0  0  0  0  0
   -1.9465   -5.4102    8.1069 H   0  0  0  0  0  0  0  0  0  0  0  0
    2.3913   -5.9751    7.2606 H   0  0  0  0  0  0  0  0  0  0  0  0
    4.4804   -5.9687    3.4443 H   0  0  0  0  0  0  0  0  0  0  0  0
    4.3406   -7.5989    2.6947 H   0  0  0  0  0  0  0  0  0  0  0  0
    5.5652   -5.1853    1.4687 H   0  0  0  0  0  0  0  0  0  0  0  0
    5.9468   -6.9075    1.3265 H   0  0  0  0  0  0  0  0  0  0  0  0
    4.6031   -5.6701   -0.6846 H   0  0  0  0  0  0  0  0  0  0  0  0
    4.2124   -7.3226   -0.2214 H   0  0  0  0  0  0  0  0  0  0  0  0
    2.0414   -6.3498    0.0917 H   0  0  0  0  0  0  0  0  0  0  0  0
    2.7405   -4.8042    0.5588 H   0  0  0  0  0  0  0  0  0  0  0  0
    2.2947  -10.4407    7.8316 H   0  0  0  0  0  0  0  0  0  0  0  0
    3.2588  -11.6989    4.7634 H   0  0  0  0  0  0  0  0  0  0  0  0
    3.0333  -11.6966    6.5093 H   0  0  0  0  0  0  0  0  0  0  0  0
    4.5555  -11.0932    5.8376 H   0  0  0  0  0  0  0  0  0  0  0  0
  1  2  1  0
  1 27  1  0
  1 28  1  0
  1 29  1  0
  2  3  1  0
  3  4  2  0
  3  5  1  0
  5 10  1  0
  5  6  1  0
  5 30  1  6
  6  7  1  0
  6  8  2  0
  7 31  1  0
  7 32  1  0
  7 33  1  0
  8  9  1  0
  9 20  1  0
  9 10  1  0
  9 34  1  1
 10 11  2  0
 11 12  1  0
 11 19  1  0
 12 13  2  0
 12 14  1  0
 14 18  1  0
 14 15  1  0
 15 16  1  0
 15 35  1  0
 15 36  1  0
 16 17  1  0
 16 37  1  0
 16 38  1  0
 17 18  1  0
 17 39  1  0
 17 40  1  0
 18 41  1  0
 18 42  1  0
 19 25  2  0
 19 20  1  0
 20 21  2  0
 21 22  1  0
 21 23  1  0
 22 43  1  0
 23 24  1  0
 23 25  1  0
 24 44  1  0
 24 45  1  0
 24 46  1  0
 25 26  1  0
M  CHG  1  26  -1
M  END
>  <i_m_ct_stereo_status>  (334) 
1

>  <s_m_source_file>  (334) 
/var/tmp/pbs.5102103.sched01/tmphafng327/110q8crsuru.sdf

>  <i_m_source_file_index>  (334) 
16

>  <i_lp_mmshare_version>  (334) 
48012

>  <i_f3d_flags>  (334) 
0

>  <s_epik_input>  (334) 
W09IXWMxbihbQ0gzXSljKFtPSF0pYzJjMUMoPUMoW0NASF0yMylbQ0BASF0oQyg9TjMpW0NIM10pQyg9TylPW0NIM10pQyg9TylONFtDSDJdW0NIMl1bQ0gyXVtDSDJdNA==

>  <s_epik_cmdline>  (334) 
J2VwaWtfcHl0aG9uJywgJy1waHQnLCAnMi4wJywgJy1waCcsICc3LjAnLCAnLXRuJywgJzgnLCAnLW1hJywgJzIwMCcsICctaW1hZScsICc8aW5maWxlLm1hZT4nLCAnLW9tYWUnLCAnPG91dGZpbGUubWFlPic=

>  <r_lp_tautomer_probability>  (334) 
0.999986

>  <r_epik_Ionization_Penalty>  (334) 
0.734502

>  <r_epik_Ionization_Penalty_Charging>  (334) 
0.734084

>  <r_epik_Ionization_Penalty_Neutral>  (334) 
0.000418711

>  <r_epik_State_Penalty>  (334) 
0.771055

>  <r_epik_Charging_Adjusted_Penalty>  (334) 
1.50514

>  <i_epik_Tot_Q>  (334) 
-1

>  <i_epik_Tot_abs_Q>  (334) 
1

>  <s_epik_Chemistry_Notes>  (334) 
This compound has an ester and may undergo hydrolysis at high or low pH. This compound has an imine and may undergo hydrolysis.

>  <s_lp_Force_Field>  (334) 
OPLS3e

>  <r_lp_Energy>  (334) 
24.773

>  <b_lp_Chiralities_Consistent>  (334) 
1

>  <s_lp_Variant>  (334) 
80:0-2

>  <s_i_glide_gridfile>  (334) 
pfpi4k_grid

>  <i_i_glide_lignum>  (334) 
16

>  <i_i_glide_rotatable_bonds>  (334) 
5

>  <r_i_docking_score>  (334) 
-2.56972

>  <r_i_glide_ligand_efficiency>  (334) 
-0.0988354

>  <r_i_glide_ligand_efficiency_sa>  (334) 
-0.2928

>  <r_i_glide_ligand_efficiency_ln>  (334) 
-0.603491

>  <r_i_glide_gscore>  (334) 
-2.56972

>  <r_i_glide_lipo>  (334) 
-0.207264

>  <r_i_glide_hbond>  (334) 
-0.243277

>  <r_i_glide_metal>  (334) 
-0

>  <r_i_glide_rewards>  (334) 
-1.02518

>  <r_i_glide_evdw>  (334) 
-17.2664

>  <r_i_glide_ecoul>  (334) 
-4.15506

>  <r_i_glide_erotb>  (334) 
0.447448

>  <r_i_glide_esite>  (334) 
-0.0548646

>  <r_i_glide_emodel>  (334) 
-24.8922

>  <r_i_glide_energy>  (334) 
-21.4215

>  <r_i_glide_einternal>  (334) 
1.70192

>  <r_i_glide_intrahb_reward>  (334) 
-0

>  <i_i_glide_confnum>  (334) 
3

>  <i_i_glide_posenum>  (334) 
11

>  <r_i_glide_eff_state_penalty>  (334) 
0

>  <ligand_id>  (334) 
80

>  <original_smiles>  (334) 
COC(=O)C1C(C)=NC2C1=C(C(=O)N1CCCC1)c1c2c(O)n(C)c1O

>  <smiles>  (334) 
[H]Oc1c2c(c([O-])n1C([H])([H])[H])C(C(=O)N1C([H])([H])C([H])([H])C([H])([H])C1([H])[H])=C1C([H])(C(=O)OC([H])([H])[H])C(C([H])([H])[H])=NC12[H]

$$$$
80:2:0
     RDKit          3D

 46 49  0  0  1  0  0  0  0  0999 V2000
    6.6055   -3.5146    0.9718 C   0  0  0  0  0  0  0  0  0  0  0  0
    5.2229   -3.2072    1.1171 O   0  0  0  0  0  0  0  0  0  0  0  0
    4.6008   -3.4865    2.2775 C   0  0  0  0  0  0  0  0  0  0  0  0
    5.1614   -3.9027    3.2920 O   0  0  0  0  0  0  0  0  0  0  0  0
    3.0816   -3.2392    2.2222 C   0  0  2  0  0  0  0  0  0  0  0  0
    2.6658   -1.8348    2.7014 C   0  0  0  0  0  0  0  0  0  0  0  0
    2.8033   -0.6401    1.7690 C   0  0  0  0  0  0  0  0  0  0  0  0
    2.1683   -1.7514    3.8641 N   0  0  0  0  0  0  0  0  0  0  0  0
    2.2763   -3.0419    4.4925 C   0  0  2  0  0  0  0  0  0  0  0  0
    2.3853   -3.9865    3.3339 C   0  0  0  0  0  0  0  0  0  0  0  0
    1.6216   -5.1113    3.4262 C   0  0  0  0  0  0  0  0  0  0  0  0
    1.4114   -6.1484    2.4104 C   0  0  0  0  0  0  0  0  0  0  0  0
    1.3336   -5.8825    1.2045 O   0  0  0  0  0  0  0  0  0  0  0  0
    1.3050   -7.4176    2.8921 N   0  0  0  0  0  0  0  0  0  0  0  0
    1.5904   -7.8675    4.2850 C   0  0  0  0  0  0  0  0  0  0  0  0
    1.0542   -9.3051    4.3134 C   0  0  0  0  0  0  0  0  0  0  0  0
    1.2229   -9.8269    2.8964 C   0  0  0  0  0  0  0  0  0  0  0  0
    1.0119   -8.5812    2.0196 C   0  0  0  0  0  0  0  0  0  0  0  0
    0.7793   -4.8592    4.6105 C   0  0  0  0  0  0  0  0  0  0  0  0
    1.0932   -3.6454    5.1868 C   0  0  0  0  0  0  0  0  0  0  0  0
    0.2857   -3.4632    6.2761 C   0  0  0  0  0  0  0  0  0  0  0  0
    0.2706   -2.4447    7.1781 O   0  0  0  0  0  0  0  0  0  0  0  0
   -0.5459   -4.5539    6.3927 N   0  0  0  0  0  0  0  0  0  0  0  0
   -1.5314   -4.8009    7.4500 C   0  0  0  0  0  0  0  0  0  0  0  0
   -0.2676   -5.4033    5.3261 C   0  0  0  0  0  0  0  0  0  0  0  0
   -1.0221   -6.5411    5.1382 O   0  0  0  0  0  0  0  0  0  0  0  0
    6.9295   -3.2474   -0.0314 H   0  0  0  0  0  0  0  0  0  0  0  0
    6.8009   -4.5797    1.1171 H   0  0  0  0  0  0  0  0  0  0  0  0
    7.2236   -2.9518    1.6674 H   0  0  0  0  0  0  0  0  0  0  0  0
    2.6780   -3.4510    1.2368 H   0  0  0  0  0  0  0  0  0  0  0  0
    2.1995   -0.7932    0.8722 H   0  0  0  0  0  0  0  0  0  0  0  0
    3.8477   -0.4469    1.5030 H   0  0  0  0  0  0  0  0  0  0  0  0
    2.4181    0.2535    2.2665 H   0  0  0  0  0  0  0  0  0  0  0  0
    3.1666   -3.0980    5.1205 H   0  0  0  0  0  0  0  0  0  0  0  0
    2.6956   -7.8773    4.3979 H   0  0  0  0  0  0  0  0  0  0  0  0
    1.1254   -7.3583    5.1009 H   0  0  0  0  0  0  0  0  0  0  0  0
    1.5395   -9.9149    5.0687 H   0  0  0  0  0  0  0  0  0  0  0  0
   -0.0143   -9.2968    4.5485 H   0  0  0  0  0  0  0  0  0  0  0  0
    2.2501  -10.1912    2.7968 H   0  0  0  0  0  0  0  0  0  0  0  0
    0.5440  -10.6569    2.6498 H   0  0  0  0  0  0  0  0  0  0  0  0
   -0.0272   -8.5335    1.6832 H   0  0  0  0  0  0  0  0  0  0  0  0
    1.6597   -8.6225    1.1359 H   0  0  0  0  0  0  0  0  0  0  0  0
   -2.4129   -5.2682    7.0271 H   0  0  0  0  0  0  0  0  0  0  0  0
   -1.8250   -3.8563    7.9122 H   0  0  0  0  0  0  0  0  0  0  0  0
   -1.1015   -5.4554    8.2107 H   0  0  0  0  0  0  0  0  0  0  0  0
   -0.4857   -7.2183    4.6868 H   0  0  0  0  0  0  0  0  0  0  0  0
  1  2  1  0
  1 27  1  0
  1 28  1  0
  1 29  1  0
  2  3  1  0
  3  4  2  0
  3  5  1  0
  5 10  1  0
  5  6  1  0
  5 30  1  6
  6  7  1  0
  6  8  2  0
  7 31  1  0
  7 32  1  0
  7 33  1  0
  8  9  1  0
  9 20  1  0
  9 10  1  0
  9 34  1  1
 10 11  2  0
 11 12  1  0
 11 19  1  0
 12 13  2  0
 12 14  1  0
 14 18  1  0
 14 15  1  0
 15 16  1  0
 15 35  1  0
 15 36  1  0
 16 17  1  0
 16 37  1  0
 16 38  1  0
 17 18  1  0
 17 39  1  0
 17 40  1  0
 18 41  1  0
 18 42  1  0
 19 25  2  0
 19 20  1  0
 20 21  2  0
 21 22  1  0
 21 23  1  0
 23 24  1  0
 23 25  1  0
 24 43  1  0
 24 44  1  0
 24 45  1  0
 25 26  1  0
 26 46  1  0
M  CHG  1  22  -1
M  END
>  <i_m_ct_stereo_status>  (335) 
1

>  <s_m_source_file>  (335) 
/var/tmp/pbs.5102103.sched01/tmphafng327/110q8crsuru.sdf

>  <i_m_source_file_index>  (335) 
17

>  <i_lp_mmshare_version>  (335) 
48012

>  <i_f3d_flags>  (335) 
0

>  <s_epik_input>  (335) 
W09IXWMxbihbQ0gzXSljKFtPSF0pYzJjMUMoPUMoW0NASF0yMylbQ0BASF0oQyg9TjMpW0NIM10pQyg9TylPW0NIM10pQyg9TylONFtDSDJdW0NIMl1bQ0gyXVtDSDJdNA==

>  <s_epik_cmdline>  (335) 
J2VwaWtfcHl0aG9uJywgJy1waHQnLCAnMi4wJywgJy1waCcsICc3LjAnLCAnLXRuJywgJzgnLCAnLW1hJywgJzIwMCcsICctaW1hZScsICc8aW5maWxlLm1hZT4nLCAnLW9tYWUnLCAnPG91dGZpbGUubWFlPic=

>  <r_epik_Ionization_Penalty>  (335) 
2.03104

>  <r_epik_Ionization_Penalty_Charging>  (335) 
2.02601

>  <r_epik_Ionization_Penalty_Neutral>  (335) 
0.00502682

>  <r_epik_State_Penalty>  (335) 
2.34485

>  <r_epik_Charging_Adjusted_Penalty>  (335) 
4.37086

>  <i_epik_Tot_Q>  (335) 
-1

>  <i_epik_Tot_abs_Q>  (335) 
1

>  <s_epik_Chemistry_Notes>  (335) 
This compound has an ester and may undergo hydrolysis at high or low pH. This compound has an imine and may undergo hydrolysis.

>  <s_lp_Force_Field>  (335) 
OPLS3e

>  <r_lp_Energy>  (335) 
23.4891

>  <b_lp_Chiralities_Consistent>  (335) 
1

>  <s_lp_Variant>  (335) 
80:0-3

>  <s_i_glide_gridfile>  (335) 
pfpi4k_grid

>  <i_i_glide_lignum>  (335) 
17

>  <i_i_glide_rotatable_bonds>  (335) 
5

>  <r_i_docking_score>  (335) 
-2.3437

>  <r_i_glide_ligand_efficiency>  (335) 
-0.0901425

>  <r_i_glide_ligand_efficiency_sa>  (335) 
-0.267047

>  <r_i_glide_ligand_efficiency_ln>  (335) 
-0.550411

>  <r_i_glide_gscore>  (335) 
-2.3437

>  <r_i_glide_lipo>  (335) 
-0.225966

>  <r_i_glide_hbond>  (335) 
-0.150871

>  <r_i_glide_metal>  (335) 
-0

>  <r_i_glide_rewards>  (335) 
-0.997615

>  <r_i_glide_evdw>  (335) 
-19.1704

>  <r_i_glide_ecoul>  (335) 
-2.57717

>  <r_i_glide_erotb>  (335) 
0.447448

>  <r_i_glide_esite>  (335) 
-0.0716023

>  <r_i_glide_emodel>  (335) 
-24.3071

>  <r_i_glide_energy>  (335) 
-21.7476

>  <r_i_glide_einternal>  (335) 
2.17748

>  <r_i_glide_intrahb_reward>  (335) 
-0

>  <i_i_glide_confnum>  (335) 
4

>  <i_i_glide_posenum>  (335) 
15

>  <r_i_glide_eff_state_penalty>  (335) 
0

>  <ligand_id>  (335) 
80

>  <original_smiles>  (335) 
COC(=O)C1C(C)=NC2C1=C(C(=O)N1CCCC1)c1c2c(O)n(C)c1O

>  <smiles>  (335) 
[H]Oc1c2c(c([O-])n1C([H])([H])[H])C1([H])N=C(C([H])([H])[H])C([H])(C(=O)OC([H])([H])[H])C1=C2C(=O)N1C([H])([H])C([H])([H])C([H])([H])C1([H])[H]

$$$$
80:2:1
     RDKit          3D

 46 49  0  0  1  0  0  0  0  0999 V2000
   -3.8199    3.2648    2.0932 C   0  0  0  0  0  0  0  0  0  0  0  0
   -2.5146    2.9158    2.5238 O   0  0  0  0  0  0  0  0  0  0  0  0
   -2.1923    2.9199    3.8279 C   0  0  0  0  0  0  0  0  0  0  0  0
   -2.9390    3.2999    4.7289 O   0  0  0  0  0  0  0  0  0  0  0  0
   -0.7819    2.3891    4.1531 C   0  0  2  0  0  0  0  0  0  0  0  0
   -0.3534    1.1914    3.2995 C   0  0  0  0  0  0  0  0  0  0  0  0
    0.1797    1.4122    1.8991 C   0  0  0  0  0  0  0  0  0  0  0  0
   -0.4388    0.0332    3.8311 N   0  0  0  0  0  0  0  0  0  0  0  0
   -1.0690    0.1757    5.1096 C   0  0  2  0  0  0  0  0  0  0  0  0
   -0.8401    1.6250    5.4564 C   0  0  0  0  0  0  0  0  0  0  0  0
   -0.4351    1.8549    6.7311 C   0  0  0  0  0  0  0  0  0  0  0  0
    0.0271    3.1087    7.3406 C   0  0  0  0  0  0  0  0  0  0  0  0
    0.7198    3.9384    6.7396 O   0  0  0  0  0  0  0  0  0  0  0  0
   -0.3622    3.2993    8.6298 N   0  0  0  0  0  0  0  0  0  0  0  0
   -1.4673    2.6147    9.3306 C   0  0  0  0  0  0  0  0  0  0  0  0
   -1.3496    3.0581   10.7753 C   0  0  0  0  0  0  0  0  0  0  0  0
   -0.7683    4.4554   10.6963 C   0  0  0  0  0  0  0  0  0  0  0  0
    0.1363    4.4093    9.4579 C   0  0  0  0  0  0  0  0  0  0  0  0
   -0.1250    0.5138    7.2939 C   0  0  0  0  0  0  0  0  0  0  0  0
   -0.4368   -0.4354    6.3100 C   0  0  0  0  0  0  0  0  0  0  0  0
   -0.1901   -1.6688    6.8602 C   0  0  0  0  0  0  0  0  0  0  0  0
   -0.4393   -2.9006    6.3638 O   0  0  0  0  0  0  0  0  0  0  0  0
    0.2742   -1.5011    8.1663 N   0  0  0  0  0  0  0  0  0  0  0  0
    0.6118   -2.5568    9.1101 C   0  0  0  0  0  0  0  0  0  0  0  0
    0.3500   -0.1262    8.4008 C   0  0  0  0  0  0  0  0  0  0  0  0
    0.7927    0.3351    9.5947 O   0  0  0  0  0  0  0  0  0  0  0  0
   -3.8756    3.1624    1.0130 H   0  0  0  0  0  0  0  0  0  0  0  0
   -4.0685    4.2919    2.3561 H   0  0  0  0  0  0  0  0  0  0  0  0
   -4.5733    2.5917    2.4951 H   0  0  0  0  0  0  0  0  0  0  0  0
   -0.0281    3.1748    4.1537 H   0  0  0  0  0  0  0  0  0  0  0  0
    1.0518    2.0725    1.9091 H   0  0  0  0  0  0  0  0  0  0  0  0
   -0.5886    1.8414    1.2556 H   0  0  0  0  0  0  0  0  0  0  0  0
    0.4596    0.4555    1.4515 H   0  0  0  0  0  0  0  0  0  0  0  0
   -2.1360   -0.0471    5.0601 H   0  0  0  0  0  0  0  0  0  0  0  0
   -2.4132    2.9362    8.8868 H   0  0  0  0  0  0  0  0  0  0  0  0
   -1.4642    1.5287    9.3453 H   0  0  0  0  0  0  0  0  0  0  0  0
   -2.3087    3.0061   11.2820 H   0  0  0  0  0  0  0  0  0  0  0  0
   -0.6568    2.4047   11.3090 H   0  0  0  0  0  0  0  0  0  0  0  0
   -1.5876    5.1613   10.5517 H   0  0  0  0  0  0  0  0  0  0  0  0
   -0.2355    4.7346   11.6076 H   0  0  0  0  0  0  0  0  0  0  0  0
    1.1677    4.1930    9.7527 H   0  0  0  0  0  0  0  0  0  0  0  0
    0.1340    5.3763    8.9409 H   0  0  0  0  0  0  0  0  0  0  0  0
    1.4921   -2.2766    9.6875 H   0  0  0  0  0  0  0  0  0  0  0  0
    0.8465   -3.4692    8.5639 H   0  0  0  0  0  0  0  0  0  0  0  0
   -0.2200   -2.7514    9.7926 H   0  0  0  0  0  0  0  0  0  0  0  0
    0.8987   -0.4102   10.1652 H   0  0  0  0  0  0  0  0  0  0  0  0
  1  2  1  0
  1 27  1  0
  1 28  1  0
  1 29  1  0
  2  3  1  0
  3  4  2  0
  3  5  1  0
  5 10  1  0
  5  6  1  0
  5 30  1  1
  6  7  1  0
  6  8  2  0
  7 31  1  0
  7 32  1  0
  7 33  1  0
  8  9  1  0
  9 20  1  0
  9 10  1  0
  9 34  1  6
 10 11  2  0
 11 12  1  0
 11 19  1  0
 12 13  2  0
 12 14  1  0
 14 18  1  0
 14 15  1  0
 15 16  1  0
 15 35  1  0
 15 36  1  0
 16 17  1  0
 16 37  1  0
 16 38  1  0
 17 18  1  0
 17 39  1  0
 17 40  1  0
 18 41  1  0
 18 42  1  0
 19 25  2  0
 19 20  1  0
 20 21  2  0
 21 22  1  0
 21 23  1  0
 23 24  1  0
 23 25  1  0
 24 43  1  0
 24 44  1  0
 24 45  1  0
 25 26  1  0
 26 46  1  0
M  CHG  1  22  -1
M  END
>  <i_m_ct_stereo_status>  (336) 
1

>  <s_m_source_file>  (336) 
/var/tmp/pbs.5102103.sched01/tmphafng327/110q8crsuru.sdf

>  <i_m_source_file_index>  (336) 
17

>  <i_lp_mmshare_version>  (336) 
48012

>  <i_f3d_flags>  (336) 
0

>  <s_epik_input>  (336) 
W09IXWMxbihbQ0gzXSljKFtPSF0pYzJjMUMoPUMoW0NASF0yMylbQ0BASF0oQyg9TjMpW0NIM10pQyg9TylPW0NIM10pQyg9TylONFtDSDJdW0NIMl1bQ0gyXVtDSDJdNA==

>  <s_epik_cmdline>  (336) 
J2VwaWtfcHl0aG9uJywgJy1waHQnLCAnMi4wJywgJy1waCcsICc3LjAnLCAnLXRuJywgJzgnLCAnLW1hJywgJzIwMCcsICctaW1hZScsICc8aW5maWxlLm1hZT4nLCAnLW9tYWUnLCAnPG91dGZpbGUubWFlPic=

>  <r_epik_Ionization_Penalty>  (336) 
2.03104

>  <r_epik_Ionization_Penalty_Charging>  (336) 
2.02601

>  <r_epik_Ionization_Penalty_Neutral>  (336) 
0.00502682

>  <r_epik_State_Penalty>  (336) 
2.34485

>  <r_epik_Charging_Adjusted_Penalty>  (336) 
4.37086

>  <i_epik_Tot_Q>  (336) 
-1

>  <i_epik_Tot_abs_Q>  (336) 
1

>  <s_epik_Chemistry_Notes>  (336) 
This compound has an ester and may undergo hydrolysis at high or low pH. This compound has an imine and may undergo hydrolysis.

>  <s_lp_Force_Field>  (336) 
OPLS3e

>  <r_lp_Energy>  (336) 
23.4891

>  <b_lp_Chiralities_Consistent>  (336) 
1

>  <s_lp_Variant>  (336) 
80:0-3

>  <s_i_glide_gridfile>  (336) 
pfpi4k_grid

>  <i_i_glide_lignum>  (336) 
17

>  <i_i_glide_rotatable_bonds>  (336) 
5

>  <r_i_docking_score>  (336) 
-2.13791

>  <r_i_glide_ligand_efficiency>  (336) 
-0.0822273

>  <r_i_glide_ligand_efficiency_sa>  (336) 
-0.243598

>  <r_i_glide_ligand_efficiency_ln>  (336) 
-0.502081

>  <r_i_glide_gscore>  (336) 
-2.13791

>  <r_i_glide_lipo>  (336) 
-0.0837158

>  <r_i_glide_hbond>  (336) 
0

>  <r_i_glide_metal>  (336) 
-0

>  <r_i_glide_rewards>  (336) 
-0.965669

>  <r_i_glide_evdw>  (336) 
-21.1312

>  <r_i_glide_ecoul>  (336) 
-2.28166

>  <r_i_glide_erotb>  (336) 
0.447448

>  <r_i_glide_esite>  (336) 
-0.137165

>  <r_i_glide_emodel>  (336) 
-26.1948

>  <r_i_glide_energy>  (336) 
-23.4129

>  <r_i_glide_einternal>  (336) 
2.50971

>  <r_i_glide_intrahb_reward>  (336) 
-0

>  <i_i_glide_confnum>  (336) 
4

>  <i_i_glide_posenum>  (336) 
1

>  <r_i_glide_eff_state_penalty>  (336) 
0

>  <ligand_id>  (336) 
80

>  <original_smiles>  (336) 
COC(=O)C1C(C)=NC2C1=C(C(=O)N1CCCC1)c1c2c(O)n(C)c1O

>  <smiles>  (336) 
[H]Oc1c2c(c([O-])n1C([H])([H])[H])C1([H])N=C(C([H])([H])[H])C([H])(C(=O)OC([H])([H])[H])C1=C2C(=O)N1C([H])([H])C([H])([H])C([H])([H])C1([H])[H]

$$$$
80:2:2
     RDKit          3D

 46 49  0  0  1  0  0  0  0  0999 V2000
   -0.6749    7.1159    8.7994 C   0  0  0  0  0  0  0  0  0  0  0  0
   -1.3736    5.8911    8.6260 O   0  0  0  0  0  0  0  0  0  0  0  0
   -0.7473    4.8274    8.0859 C   0  0  0  0  0  0  0  0  0  0  0  0
    0.4258    4.8202    7.7003 O   0  0  0  0  0  0  0  0  0  0  0  0
   -1.6621    3.5837    7.9549 C   0  0  2  0  0  0  0  0  0  0  0  0
   -2.0263    2.9611    9.3210 C   0  0  0  0  0  0  0  0  0  0  0  0
   -3.1446    3.5404   10.1741 C   0  0  0  0  0  0  0  0  0  0  0  0
   -1.3887    1.8981    9.6363 N   0  0  0  0  0  0  0  0  0  0  0  0
   -0.3606    1.6618    8.6465 C   0  0  2  0  0  0  0  0  0  0  0  0
   -0.8827    2.3887    7.4369 C   0  0  0  0  0  0  0  0  0  0  0  0
   -0.7902    1.7027    6.2614 C   0  0  0  0  0  0  0  0  0  0  0  0
   -1.2841    2.1329    4.9487 C   0  0  0  0  0  0  0  0  0  0  0  0
   -2.2992    2.8257    4.8178 O   0  0  0  0  0  0  0  0  0  0  0  0
   -0.5035    1.7855    3.8818 N   0  0  0  0  0  0  0  0  0  0  0  0
    0.8034    1.1379    3.8853 C   0  0  0  0  0  0  0  0  0  0  0  0
    1.0863    0.6350    2.4927 C   0  0  0  0  0  0  0  0  0  0  0  0
    0.4335    1.7302    1.6651 C   0  0  0  0  0  0  0  0  0  0  0  0
   -0.8037    2.1343    2.4771 C   0  0  0  0  0  0  0  0  0  0  0  0
   -0.3431    0.3045    6.6391 C   0  0  0  0  0  0  0  0  0  0  0  0
   -0.1630    0.3079    8.0410 C   0  0  0  0  0  0  0  0  0  0  0  0
    0.2221   -0.9458    8.3992 C   0  0  0  0  0  0  0  0  0  0  0  0
    0.4763   -1.4391    9.6283 O   0  0  0  0  0  0  0  0  0  0  0  0
    0.2953   -1.7404    7.2415 N   0  0  0  0  0  0  0  0  0  0  0  0
    0.7192   -3.1128    7.1501 C   0  0  0  0  0  0  0  0  0  0  0  0
   -0.1464   -0.9732    6.1806 C   0  0  0  0  0  0  0  0  0  0  0  0
   -0.2639   -1.5817    4.9699 O   0  0  0  0  0  0  0  0  0  0  0  0
   -1.3467    7.8535    9.2389 H   0  0  0  0  0  0  0  0  0  0  0  0
   -0.3181    7.5154    7.8479 H   0  0  0  0  0  0  0  0  0  0  0  0
    0.1779    6.9998    9.4706 H   0  0  0  0  0  0  0  0  0  0  0  0
   -2.5584    3.8421    7.3935 H   0  0  0  0  0  0  0  0  0  0  0  0
   -4.0830    3.5509    9.6266 H   0  0  0  0  0  0  0  0  0  0  0  0
   -2.9047    4.5537   10.4925 H   0  0  0  0  0  0  0  0  0  0  0  0
   -3.2962    2.9445   11.0757 H   0  0  0  0  0  0  0  0  0  0  0  0
    0.5807    2.1177    8.9557 H   0  0  0  0  0  0  0  0  0  0  0  0
    1.5915    1.7327    4.3628 H   0  0  0  0  0  0  0  0  0  0  0  0
    0.8224    0.2551    4.4529 H   0  0  0  0  0  0  0  0  0  0  0  0
    2.1665    0.5032    2.3325 H   0  0  0  0  0  0  0  0  0  0  0  0
    0.6083   -0.3324    2.2864 H   0  0  0  0  0  0  0  0  0  0  0  0
    1.1492    2.5481    1.6171 H   0  0  0  0  0  0  0  0  0  0  0  0
    0.2038    1.3882    0.6553 H   0  0  0  0  0  0  0  0  0  0  0  0
   -1.6845    1.5759    2.1446 H   0  0  0  0  0  0  0  0  0  0  0  0
   -1.0000    3.2038    2.3850 H   0  0  0  0  0  0  0  0  0  0  0  0
    0.1217   -3.6181    6.3855 H   0  0  0  0  0  0  0  0  0  0  0  0
    0.5636   -3.6333    8.0926 H   0  0  0  0  0  0  0  0  0  0  0  0
    1.7706   -3.1777    6.8526 H   0  0  0  0  0  0  0  0  0  0  0  0
    0.4876   -2.2179    4.9186 H   0  0  0  0  0  0  0  0  0  0  0  0
  1  2  1  0
  1 27  1  0
  1 28  1  0
  1 29  1  0
  2  3  1  0
  3  4  2  0
  3  5  1  0
  5 10  1  0
  5  6  1  0
  5 30  1  6
  6  7  1  0
  6  8  2  0
  7 31  1  0
  7 32  1  0
  7 33  1  0
  8  9  1  0
  9 20  1  0
  9 10  1  0
  9 34  1  1
 10 11  2  0
 11 12  1  0
 11 19  1  0
 12 13  2  0
 12 14  1  0
 14 18  1  0
 14 15  1  0
 15 16  1  0
 15 35  1  0
 15 36  1  0
 16 17  1  0
 16 37  1  0
 16 38  1  0
 17 18  1  0
 17 39  1  0
 17 40  1  0
 18 41  1  0
 18 42  1  0
 19 25  2  0
 19 20  1  0
 20 21  2  0
 21 22  1  0
 21 23  1  0
 23 24  1  0
 23 25  1  0
 24 43  1  0
 24 44  1  0
 24 45  1  0
 25 26  1  0
 26 46  1  0
M  CHG  1  22  -1
M  END
>  <i_m_ct_stereo_status>  (337) 
1

>  <s_m_source_file>  (337) 
/var/tmp/pbs.5102103.sched01/tmphafng327/110q8crsuru.sdf

>  <i_m_source_file_index>  (337) 
17

>  <i_lp_mmshare_version>  (337) 
48012

>  <i_f3d_flags>  (337) 
0

>  <s_epik_input>  (337) 
W09IXWMxbihbQ0gzXSljKFtPSF0pYzJjMUMoPUMoW0NASF0yMylbQ0BASF0oQyg9TjMpW0NIM10pQyg9TylPW0NIM10pQyg9TylONFtDSDJdW0NIMl1bQ0gyXVtDSDJdNA==

>  <s_epik_cmdline>  (337) 
J2VwaWtfcHl0aG9uJywgJy1waHQnLCAnMi4wJywgJy1waCcsICc3LjAnLCAnLXRuJywgJzgnLCAnLW1hJywgJzIwMCcsICctaW1hZScsICc8aW5maWxlLm1hZT4nLCAnLW9tYWUnLCAnPG91dGZpbGUubWFlPic=

>  <r_epik_Ionization_Penalty>  (337) 
2.03104

>  <r_epik_Ionization_Penalty_Charging>  (337) 
2.02601

>  <r_epik_Ionization_Penalty_Neutral>  (337) 
0.00502682

>  <r_epik_State_Penalty>  (337) 
2.34485

>  <r_epik_Charging_Adjusted_Penalty>  (337) 
4.37086

>  <i_epik_Tot_Q>  (337) 
-1

>  <i_epik_Tot_abs_Q>  (337) 
1

>  <s_epik_Chemistry_Notes>  (337) 
This compound has an ester and may undergo hydrolysis at high or low pH. This compound has an imine and may undergo hydrolysis.

>  <s_lp_Force_Field>  (337) 
OPLS3e

>  <r_lp_Energy>  (337) 
23.4891

>  <b_lp_Chiralities_Consistent>  (337) 
1

>  <s_lp_Variant>  (337) 
80:0-3

>  <s_i_glide_gridfile>  (337) 
pfpi4k_grid

>  <i_i_glide_lignum>  (337) 
17

>  <i_i_glide_rotatable_bonds>  (337) 
5

>  <r_i_docking_score>  (337) 
-2.13417

>  <r_i_glide_ligand_efficiency>  (337) 
-0.0820834

>  <r_i_glide_ligand_efficiency_sa>  (337) 
-0.243172

>  <r_i_glide_ligand_efficiency_ln>  (337) 
-0.501202

>  <r_i_glide_gscore>  (337) 
-2.13417

>  <r_i_glide_lipo>  (337) 
-0.00998301

>  <r_i_glide_hbond>  (337) 
0

>  <r_i_glide_metal>  (337) 
-0

>  <r_i_glide_rewards>  (337) 
-0.965669

>  <r_i_glide_evdw>  (337) 
-20.6371

>  <r_i_glide_ecoul>  (337) 
-3.09536

>  <r_i_glide_erotb>  (337) 
0.447448

>  <r_i_glide_esite>  (337) 
-0.109805

>  <r_i_glide_emodel>  (337) 
-24.4292

>  <r_i_glide_energy>  (337) 
-23.7324

>  <r_i_glide_einternal>  (337) 
1.24465

>  <r_i_glide_intrahb_reward>  (337) 
-0

>  <i_i_glide_confnum>  (337) 
4

>  <i_i_glide_posenum>  (337) 
34

>  <r_i_glide_eff_state_penalty>  (337) 
0

>  <ligand_id>  (337) 
80

>  <original_smiles>  (337) 
COC(=O)C1C(C)=NC2C1=C(C(=O)N1CCCC1)c1c2c(O)n(C)c1O

>  <smiles>  (337) 
[H]Oc1c2c(c([O-])n1C([H])([H])[H])C1([H])N=C(C([H])([H])[H])C([H])(C(=O)OC([H])([H])[H])C1=C2C(=O)N1C([H])([H])C([H])([H])C([H])([H])C1([H])[H]

$$$$
81:1:0
     RDKit          3D

 52 55  0  0  1  0  0  0  0  0999 V2000
   -2.2946   -1.0317    4.8684 C   0  0  0  0  0  0  0  0  0  0  0  0
   -1.9437   -0.2015    5.9650 O   0  0  0  0  0  0  0  0  0  0  0  0
   -0.6059    0.0194    6.1998 C   0  0  0  0  0  0  0  0  0  0  0  0
   -0.2772    0.9629    7.1844 C   0  0  0  0  0  0  0  0  0  0  0  0
    1.0633    1.3367    7.4000 C   0  0  0  0  0  0  0  0  0  0  0  0
    2.1089    0.7140    6.6805 C   0  0  0  0  0  0  0  0  0  0  0  0
    3.4996    1.1969    6.8271 C   0  0  0  0  0  0  0  0  0  0  0  0
    4.5280    1.1146    5.9503 C   0  0  0  0  0  0  0  0  0  0  0  0
    4.5264    0.5905    4.5668 C   0  0  0  0  0  0  0  0  0  0  0  0
    5.5164   -0.1973    4.1263 N   0  0  0  0  0  0  0  0  0  0  0  0
    5.1196   -0.5175    2.8531 C   0  0  0  0  0  0  0  0  0  0  0  0
    5.7274   -1.3565    1.8795 C   0  0  0  0  0  0  0  0  0  0  0  0
    5.1207   -1.5408    0.6236 C   0  0  0  0  0  0  0  0  0  0  0  0
    3.9027   -0.9101    0.3202 C   0  0  0  0  0  0  0  0  0  0  0  0
    3.2833   -0.0765    1.2756 C   0  0  0  0  0  0  0  0  0  0  0  0
    3.8879    0.1146    2.5190 C   0  0  0  0  0  0  0  0  0  0  0  0
    3.5609    0.8573    3.6535 N   0  0  0  0  0  0  0  0  0  0  0  0
    2.3899    1.7029    3.7820 C   0  0  0  0  0  0  0  0  0  0  0  0
    2.3416    2.8735    2.8039 C   0  0  0  0  0  0  0  0  0  0  0  0
    1.5606    4.0522    3.4156 C   0  0  0  0  0  0  0  0  0  0  0  0
    0.2352    3.6712    4.0703 C   0  0  0  0  0  0  0  0  0  0  0  0
   -0.0122    3.9713    5.4278 C   0  0  0  0  0  0  0  0  0  0  0  0
   -1.2428    3.6298    6.0216 C   0  0  0  0  0  0  0  0  0  0  0  0
   -2.2258    2.9666    5.2668 C   0  0  0  0  0  0  0  0  0  0  0  0
   -1.9878    2.6599    3.9162 C   0  0  0  0  0  0  0  0  0  0  0  0
   -0.7601    3.0046    3.3248 C   0  0  0  0  0  0  0  0  0  0  0  0
    1.7810   -0.2956    5.7436 C   0  0  0  0  0  0  0  0  0  0  0  0
    0.4386   -0.5909    5.4658 C   0  0  0  0  0  0  0  0  0  0  0  0
   -3.3728   -1.2010    4.8652 H   0  0  0  0  0  0  0  0  0  0  0  0
   -1.8021   -2.0047    4.9173 H   0  0  0  0  0  0  0  0  0  0  0  0
   -2.0359   -0.5544    3.9223 H   0  0  0  0  0  0  0  0  0  0  0  0
   -1.0621    1.4898    7.6993 H   0  0  0  0  0  0  0  0  0  0  0  0
    1.2831    2.1417    8.0763 H   0  0  0  0  0  0  0  0  0  0  0  0
    3.7389    1.6599    7.7759 H   0  0  0  0  0  0  0  0  0  0  0  0
    5.4846    1.5111    6.2666 H   0  0  0  0  0  0  0  0  0  0  0  0
    6.6524   -1.8555    2.1051 H   0  0  0  0  0  0  0  0  0  0  0  0
    5.5926   -2.1707   -0.1170 H   0  0  0  0  0  0  0  0  0  0  0  0
    3.4280   -1.0537   -0.6408 H   0  0  0  0  0  0  0  0  0  0  0  0
    2.3453    0.3967    1.0436 H   0  0  0  0  0  0  0  0  0  0  0  0
    1.5043    1.0712    3.6298 H   0  0  0  0  0  0  0  0  0  0  0  0
    2.3622    2.1071    4.7958 H   0  0  0  0  0  0  0  0  0  0  0  0
    3.3502    3.2115    2.5457 H   0  0  0  0  0  0  0  0  0  0  0  0
    1.8638    2.5562    1.8687 H   0  0  0  0  0  0  0  0  0  0  0  0
    2.1889    4.5243    4.1748 H   0  0  0  0  0  0  0  0  0  0  0  0
    1.3823    4.8128    2.6534 H   0  0  0  0  0  0  0  0  0  0  0  0
    0.7481    4.4368    6.0282 H   0  0  0  0  0  0  0  0  0  0  0  0
   -1.4163    3.8451    7.0632 H   0  0  0  0  0  0  0  0  0  0  0  0
   -3.1496    2.6769    5.7323 H   0  0  0  0  0  0  0  0  0  0  0  0
   -2.7342    2.1463    3.3352 H   0  0  0  0  0  0  0  0  0  0  0  0
   -0.5788    2.7538    2.2952 H   0  0  0  0  0  0  0  0  0  0  0  0
    2.5456   -0.8199    5.1935 H   0  0  0  0  0  0  0  0  0  0  0  0
    0.2413   -1.2665    4.6580 H   0  0  0  0  0  0  0  0  0  0  0  0
  1  2  1  0
  1 29  1  0
  1 30  1  0
  1 31  1  0
  2  3  1  0
  3 28  2  0
  3  4  1  0
  4  5  2  0
  4 32  1  0
  5  6  1  0
  5 33  1  0
  6  7  1  0
  6 27  2  0
  7  8  2  3
  7 34  1  0
  8  9  1  0
  8 35  1  0
  9 17  1  0
  9 10  2  0
 10 11  1  0
 11 16  2  0
 11 12  1  0
 12 13  2  0
 12 36  1  0
 13 14  1  0
 13 37  1  0
 14 15  2  0
 14 38  1  0
 15 16  1  0
 15 39  1  0
 16 17  1  0
 17 18  1  0
 18 19  1  0
 18 40  1  0
 18 41  1  0
 19 20  1  0
 19 42  1  0
 19 43  1  0
 20 21  1  0
 20 44  1  0
 20 45  1  0
 21 26  1  0
 21 22  2  0
 22 23  1  0
 22 46  1  0
 23 24  2  0
 23 47  1  0
 24 25  1  0
 24 48  1  0
 25 26  2  0
 25 49  1  0
 26 50  1  0
 27 28  1  0
 27 51  1  0
 28 52  1  0
M  END
>  <i_m_ct_stereo_status>  (338) 
1

>  <s_m_source_file>  (338) 
/var/tmp/pbs.5102103.sched01/tmphafng327/110q8crsuru.sdf

>  <i_m_source_file_index>  (338) 
19

>  <i_lp_mmshare_version>  (338) 
48012

>  <i_f3d_flags>  (338) 
0

>  <s_epik_input>  (338) 
W0NIM11PYzFbY0hdW2NIXWMoW2NIXVtjSF0xKS9bQ0hdPVtDSF0vYyhuMiluKGMoYzIzKVtjSF1bY0hdW2NIXVtjSF0zKVtDSDJdW0NIMl1bQ0gyXWM0W2NIXVtjSF1bY0hdW2NIXVtjSF00

>  <s_epik_cmdline>  (338) 
J2VwaWtfcHl0aG9uJywgJy1waHQnLCAnMi4wJywgJy1waCcsICc3LjAnLCAnLXRuJywgJzgnLCAnLW1hJywgJzIwMCcsICctaW1hZScsICc8aW5maWxlLm1hZT4nLCAnLW9tYWUnLCAnPG91dGZpbGUubWFlPic=

>  <r_epik_Ionization_Penalty>  (338) 
0.138473

>  <r_epik_Ionization_Penalty_Charging>  (338) 
0

>  <r_epik_Ionization_Penalty_Neutral>  (338) 
0.138473

>  <r_epik_State_Penalty>  (338) 
0.127804

>  <r_epik_Charging_Adjusted_Penalty>  (338) 
0.127804

>  <i_epik_Tot_Q>  (338) 
0

>  <i_epik_Tot_abs_Q>  (338) 
0

>  <s_lp_Force_Field>  (338) 
OPLS3e

>  <r_lp_Energy>  (338) 
41.7229

>  <b_lp_Chiralities_Consistent>  (338) 
1

>  <s_lp_Variant>  (338) 
81:0-2

>  <s_i_glide_gridfile>  (338) 
pfpi4k_grid

>  <i_i_glide_lignum>  (338) 
19

>  <i_i_glide_rotatable_bonds>  (338) 
7

>  <r_i_docking_score>  (338) 
-2.45452

>  <r_i_glide_ligand_efficiency>  (338) 
-0.0876615

>  <r_i_glide_ligand_efficiency_sa>  (338) 
-0.266192

>  <r_i_glide_ligand_efficiency_ln>  (338) 
-0.566576

>  <r_i_glide_gscore>  (338) 
-2.45452

>  <r_i_glide_lipo>  (338) 
-0.372786

>  <r_i_glide_hbond>  (338) 
-0.148663

>  <r_i_glide_metal>  (338) 
-0

>  <r_i_glide_rewards>  (338) 
-0.955235

>  <r_i_glide_evdw>  (338) 
-24.2581

>  <r_i_glide_ecoul>  (338) 
-3.12712

>  <r_i_glide_erotb>  (338) 
0.70966

>  <r_i_glide_esite>  (338) 
-0.00552747

>  <r_i_glide_emodel>  (338) 
-25.0537

>  <r_i_glide_energy>  (338) 
-27.3852

>  <r_i_glide_einternal>  (338) 
9.98631

>  <r_i_glide_intrahb_reward>  (338) 
-0

>  <i_i_glide_confnum>  (338) 
1

>  <i_i_glide_posenum>  (338) 
12

>  <r_i_glide_eff_state_penalty>  (338) 
0

>  <ligand_id>  (338) 
81

>  <original_smiles>  (338) 
COc1ccc(C=Cc2nc3ccccc3n2CCCc2ccccc2)cc1

>  <smiles>  (338) 
[H]C(=C([H])c1nc2c([H])c([H])c([H])c([H])c2n1C([H])([H])C([H])([H])C([H])([H])c1c([H])c([H])c([H])c([H])c1[H])c1c([H])c([H])c(OC([H])([H])[H])c([H])c1[H]

$$$$
81:1:1
     RDKit          3D

 52 55  0  0  1  0  0  0  0  0999 V2000
    4.8506   -3.6595   -3.7310 C   0  0  0  0  0  0  0  0  0  0  0  0
    4.1914   -2.6244   -3.0303 O   0  0  0  0  0  0  0  0  0  0  0  0
    4.4732   -2.5440   -1.6889 C   0  0  0  0  0  0  0  0  0  0  0  0
    5.3718   -3.4157   -1.0132 C   0  0  0  0  0  0  0  0  0  0  0  0
    5.6398   -3.2849    0.3666 C   0  0  0  0  0  0  0  0  0  0  0  0
    5.0049   -2.2423    1.1058 C   0  0  0  0  0  0  0  0  0  0  0  0
    5.2580   -2.1308    2.5590 C   0  0  0  0  0  0  0  0  0  0  0  0
    4.5368   -1.5453    3.5523 C   0  0  0  0  0  0  0  0  0  0  0  0
    3.2676   -0.8016    3.4855 C   0  0  0  0  0  0  0  0  0  0  0  0
    3.0578    0.2729    2.7326 N   0  0  0  0  0  0  0  0  0  0  0  0
    1.7093    0.4822    2.8380 C   0  0  0  0  0  0  0  0  0  0  0  0
    0.8271    1.3377    2.1406 C   0  0  0  0  0  0  0  0  0  0  0  0
   -0.5241    1.4732    2.5143 C   0  0  0  0  0  0  0  0  0  0  0  0
   -1.0450    0.7136    3.5921 C   0  0  0  0  0  0  0  0  0  0  0  0
   -0.2174   -0.2386    4.2393 C   0  0  0  0  0  0  0  0  0  0  0  0
    1.1357   -0.3444    3.8462 C   0  0  0  0  0  0  0  0  0  0  0  0
    2.2084   -1.1480    4.2385 N   0  0  0  0  0  0  0  0  0  0  0  0
    2.1209   -2.1631    5.2575 C   0  0  0  0  0  0  0  0  0  0  0  0
    2.3368   -1.5548    6.6636 C   0  0  0  0  0  0  0  0  0  0  0  0
    2.3082   -2.6052    7.7993 C   0  0  0  0  0  0  0  0  0  0  0  0
    0.9723   -3.3235    7.9487 C   0  0  0  0  0  0  0  0  0  0  0  0
    0.2412   -3.2045    9.1537 C   0  0  0  0  0  0  0  0  0  0  0  0
   -1.0031   -3.8573    9.2801 C   0  0  0  0  0  0  0  0  0  0  0  0
   -1.5570   -4.5633    8.1857 C   0  0  0  0  0  0  0  0  0  0  0  0
   -0.8221   -4.6831    6.9912 C   0  0  0  0  0  0  0  0  0  0  0  0
    0.4602   -4.1219    6.8971 C   0  0  0  0  0  0  0  0  0  0  0  0
    4.1446   -1.3524    0.4164 C   0  0  0  0  0  0  0  0  0  0  0  0
    3.8572   -1.5201   -0.9424 C   0  0  0  0  0  0  0  0  0  0  0  0
    4.5460   -3.6513   -4.7692 H   0  0  0  0  0  0  0  0  0  0  0  0
    4.5931   -4.6274   -3.3098 H   0  0  0  0  0  0  0  0  0  0  0  0
    5.9258   -3.5093   -3.6691 H   0  0  0  0  0  0  0  0  0  0  0  0
    5.8838   -4.2297   -1.5199 H   0  0  0  0  0  0  0  0  0  0  0  0
    6.3226   -3.9845    0.8344 H   0  0  0  0  0  0  0  0  0  0  0  0
    6.1739   -2.5894    2.8930 H   0  0  0  0  0  0  0  0  0  0  0  0
    4.9210   -1.6178    4.5620 H   0  0  0  0  0  0  0  0  0  0  0  0
    1.2099    1.9208    1.3257 H   0  0  0  0  0  0  0  0  0  0  0  0
   -1.1422    2.1969    2.0147 H   0  0  0  0  0  0  0  0  0  0  0  0
   -2.0775    0.8635    3.9050 H   0  0  0  0  0  0  0  0  0  0  0  0
   -0.6124   -0.8256    5.0596 H   0  0  0  0  0  0  0  0  0  0  0  0
    1.1279   -2.5930    5.1510 H   0  0  0  0  0  0  0  0  0  0  0  0
    2.8542   -2.9573    5.0662 H   0  0  0  0  0  0  0  0  0  0  0  0
    3.2904   -1.0184    6.6995 H   0  0  0  0  0  0  0  0  0  0  0  0
    1.5674   -0.7989    6.8496 H   0  0  0  0  0  0  0  0  0  0  0  0
    3.0905   -3.3459    7.6371 H   0  0  0  0  0  0  0  0  0  0  0  0
    2.5645   -2.1016    8.7352 H   0  0  0  0  0  0  0  0  0  0  0  0
    0.6461   -2.6493    9.9921 H   0  0  0  0  0  0  0  0  0  0  0  0
   -1.5473   -3.8090   10.2148 H   0  0  0  0  0  0  0  0  0  0  0  0
   -2.5212   -5.0410    8.2727 H   0  0  0  0  0  0  0  0  0  0  0  0
   -1.2185   -5.2217    6.1457 H   0  0  0  0  0  0  0  0  0  0  0  0
    1.0248   -4.2896    5.9914 H   0  0  0  0  0  0  0  0  0  0  0  0
    3.6905   -0.4997    0.8230 H   0  0  0  0  0  0  0  0  0  0  0  0
    3.1709   -0.8217   -1.3838 H   0  0  0  0  0  0  0  0  0  0  0  0
  1  2  1  0
  1 29  1  0
  1 30  1  0
  1 31  1  0
  2  3  1  0
  3 28  2  0
  3  4  1  0
  4  5  2  0
  4 32  1  0
  5  6  1  0
  5 33  1  0
  6  7  1  0
  6 27  2  0
  7  8  2  3
  7 34  1  0
  8  9  1  0
  8 35  1  0
  9 17  1  0
  9 10  2  0
 10 11  1  0
 11 16  2  0
 11 12  1  0
 12 13  2  0
 12 36  1  0
 13 14  1  0
 13 37  1  0
 14 15  2  0
 14 38  1  0
 15 16  1  0
 15 39  1  0
 16 17  1  0
 17 18  1  0
 18 19  1  0
 18 40  1  0
 18 41  1  0
 19 20  1  0
 19 42  1  0
 19 43  1  0
 20 21  1  0
 20 44  1  0
 20 45  1  0
 21 26  1  0
 21 22  2  0
 22 23  1  0
 22 46  1  0
 23 24  2  0
 23 47  1  0
 24 25  1  0
 24 48  1  0
 25 26  2  0
 25 49  1  0
 26 50  1  0
 27 28  1  0
 27 51  1  0
 28 52  1  0
M  END
>  <i_m_ct_stereo_status>  (339) 
1

>  <s_m_source_file>  (339) 
/var/tmp/pbs.5102103.sched01/tmphafng327/110q8crsuru.sdf

>  <i_m_source_file_index>  (339) 
19

>  <i_lp_mmshare_version>  (339) 
48012

>  <i_f3d_flags>  (339) 
0

>  <s_epik_input>  (339) 
W0NIM11PYzFbY0hdW2NIXWMoW2NIXVtjSF0xKS9bQ0hdPVtDSF0vYyhuMiluKGMoYzIzKVtjSF1bY0hdW2NIXVtjSF0zKVtDSDJdW0NIMl1bQ0gyXWM0W2NIXVtjSF1bY0hdW2NIXVtjSF00

>  <s_epik_cmdline>  (339) 
J2VwaWtfcHl0aG9uJywgJy1waHQnLCAnMi4wJywgJy1waCcsICc3LjAnLCAnLXRuJywgJzgnLCAnLW1hJywgJzIwMCcsICctaW1hZScsICc8aW5maWxlLm1hZT4nLCAnLW9tYWUnLCAnPG91dGZpbGUubWFlPic=

>  <r_epik_Ionization_Penalty>  (339) 
0.138473

>  <r_epik_Ionization_Penalty_Charging>  (339) 
0

>  <r_epik_Ionization_Penalty_Neutral>  (339) 
0.138473

>  <r_epik_State_Penalty>  (339) 
0.127804

>  <r_epik_Charging_Adjusted_Penalty>  (339) 
0.127804

>  <i_epik_Tot_Q>  (339) 
0

>  <i_epik_Tot_abs_Q>  (339) 
0

>  <s_lp_Force_Field>  (339) 
OPLS3e

>  <r_lp_Energy>  (339) 
41.7229

>  <b_lp_Chiralities_Consistent>  (339) 
1

>  <s_lp_Variant>  (339) 
81:0-2

>  <s_i_glide_gridfile>  (339) 
pfpi4k_grid

>  <i_i_glide_lignum>  (339) 
19

>  <i_i_glide_rotatable_bonds>  (339) 
7

>  <r_i_docking_score>  (339) 
-2.0273

>  <r_i_glide_ligand_efficiency>  (339) 
-0.0724035

>  <r_i_glide_ligand_efficiency_sa>  (339) 
-0.21986

>  <r_i_glide_ligand_efficiency_ln>  (339) 
-0.46796

>  <r_i_glide_gscore>  (339) 
-2.0273

>  <r_i_glide_lipo>  (339) 
-0.382371

>  <r_i_glide_hbond>  (339) 
0

>  <r_i_glide_metal>  (339) 
-0

>  <r_i_glide_rewards>  (339) 
-0.899879

>  <r_i_glide_evdw>  (339) 
-28.2583

>  <r_i_glide_ecoul>  (339) 
-0.27839

>  <r_i_glide_erotb>  (339) 
0.70966

>  <r_i_glide_esite>  (339) 
-3.38822e-05

>  <r_i_glide_emodel>  (339) 
-25.4383

>  <r_i_glide_energy>  (339) 
-28.5367

>  <r_i_glide_einternal>  (339) 
9.039

>  <r_i_glide_intrahb_reward>  (339) 
-0

>  <i_i_glide_confnum>  (339) 
1

>  <i_i_glide_posenum>  (339) 
25

>  <r_i_glide_eff_state_penalty>  (339) 
0

>  <ligand_id>  (339) 
81

>  <original_smiles>  (339) 
COc1ccc(C=Cc2nc3ccccc3n2CCCc2ccccc2)cc1

>  <smiles>  (339) 
[H]C(=C([H])c1nc2c([H])c([H])c([H])c([H])c2n1C([H])([H])C([H])([H])C([H])([H])c1c([H])c([H])c([H])c([H])c1[H])c1c([H])c([H])c(OC([H])([H])[H])c([H])c1[H]

$$$$
81:1:2
     RDKit          3D

 52 55  0  0  1  0  0  0  0  0999 V2000
   -2.7456    3.4413    2.7558 C   0  0  0  0  0  0  0  0  0  0  0  0
   -2.5712    3.4305    4.1661 O   0  0  0  0  0  0  0  0  0  0  0  0
   -1.9202    2.3550    4.7241 C   0  0  0  0  0  0  0  0  0  0  0  0
   -1.8066    2.3236    6.1264 C   0  0  0  0  0  0  0  0  0  0  0  0
   -1.1416    1.2630    6.7750 C   0  0  0  0  0  0  0  0  0  0  0  0
   -0.5920    0.1980    6.0298 C   0  0  0  0  0  0  0  0  0  0  0  0
    0.2071   -0.8477    6.7131 C   0  0  0  0  0  0  0  0  0  0  0  0
    1.2221   -1.5936    6.2185 C   0  0  0  0  0  0  0  0  0  0  0  0
    1.8703   -1.5020    4.8964 C   0  0  0  0  0  0  0  0  0  0  0  0
    2.0480   -2.5939    4.1448 N   0  0  0  0  0  0  0  0  0  0  0  0
    2.6164   -2.0848    2.9925 C   0  0  0  0  0  0  0  0  0  0  0  0
    3.0153   -2.7367    1.7998 C   0  0  0  0  0  0  0  0  0  0  0  0
    3.5823   -1.9992    0.7404 C   0  0  0  0  0  0  0  0  0  0  0  0
    3.7533   -0.6059    0.8520 C   0  0  0  0  0  0  0  0  0  0  0  0
    3.3455    0.0610    2.0246 C   0  0  0  0  0  0  0  0  0  0  0  0
    2.7953   -0.6783    3.0849 C   0  0  0  0  0  0  0  0  0  0  0  0
    2.3131   -0.3366    4.3496 N   0  0  0  0  0  0  0  0  0  0  0  0
    2.2811    1.0092    4.8974 C   0  0  0  0  0  0  0  0  0  0  0  0
    3.6736    1.5517    5.2046 C   0  0  0  0  0  0  0  0  0  0  0  0
    3.5983    2.9192    5.9040 C   0  0  0  0  0  0  0  0  0  0  0  0
    2.7451    3.9322    5.1580 C   0  0  0  0  0  0  0  0  0  0  0  0
    1.6675    4.5785    5.8061 C   0  0  0  0  0  0  0  0  0  0  0  0
    0.8732    5.5082    5.1058 C   0  0  0  0  0  0  0  0  0  0  0  0
    1.1513    5.7875    3.7539 C   0  0  0  0  0  0  0  0  0  0  0  0
    2.2164    5.1363    3.1047 C   0  0  0  0  0  0  0  0  0  0  0  0
    3.0069    4.2145    3.8042 C   0  0  0  0  0  0  0  0  0  0  0  0
   -0.7397    0.2182    4.6250 C   0  0  0  0  0  0  0  0  0  0  0  0
   -1.3719    1.2912    3.9781 C   0  0  0  0  0  0  0  0  0  0  0  0
   -3.3142    4.3257    2.4679 H   0  0  0  0  0  0  0  0  0  0  0  0
   -3.2943    2.5677    2.3973 H   0  0  0  0  0  0  0  0  0  0  0  0
   -1.7837    3.4897    2.2458 H   0  0  0  0  0  0  0  0  0  0  0  0
   -2.2041    3.1378    6.7092 H   0  0  0  0  0  0  0  0  0  0  0  0
   -1.0155    1.2980    7.8448 H   0  0  0  0  0  0  0  0  0  0  0  0
   -0.0701   -1.0517    7.7404 H   0  0  0  0  0  0  0  0  0  0  0  0
    1.6585   -2.3418    6.8682 H   0  0  0  0  0  0  0  0  0  0  0  0
    2.8845   -3.8037    1.7068 H   0  0  0  0  0  0  0  0  0  0  0  0
    3.8769   -2.5001   -0.1683 H   0  0  0  0  0  0  0  0  0  0  0  0
    4.1829   -0.0408    0.0391 H   0  0  0  0  0  0  0  0  0  0  0  0
    3.4540    1.1276    2.1078 H   0  0  0  0  0  0  0  0  0  0  0  0
    1.7459    1.6400    4.1804 H   0  0  0  0  0  0  0  0  0  0  0  0
    1.7355    1.0354    5.8366 H   0  0  0  0  0  0  0  0  0  0  0  0
    4.1920    0.8412    5.8533 H   0  0  0  0  0  0  0  0  0  0  0  0
    4.2582    1.6286    4.2865 H   0  0  0  0  0  0  0  0  0  0  0  0
    3.1999    2.7889    6.9162 H   0  0  0  0  0  0  0  0  0  0  0  0
    4.6056    3.3221    6.0214 H   0  0  0  0  0  0  0  0  0  0  0  0
    1.4442    4.3615    6.8391 H   0  0  0  0  0  0  0  0  0  0  0  0
    0.0580    6.0020    5.6061 H   0  0  0  0  0  0  0  0  0  0  0  0
    0.5538    6.5013    3.2092 H   0  0  0  0  0  0  0  0  0  0  0  0
    2.4183    5.3422    2.0686 H   0  0  0  0  0  0  0  0  0  0  0  0
    3.8036    3.7151    3.2889 H   0  0  0  0  0  0  0  0  0  0  0  0
   -0.3329   -0.5609    4.0012 H   0  0  0  0  0  0  0  0  0  0  0  0
   -1.3911    1.2844    2.9005 H   0  0  0  0  0  0  0  0  0  0  0  0
  1  2  1  0
  1 29  1  0
  1 30  1  0
  1 31  1  0
  2  3  1  0
  3 28  2  0
  3  4  1  0
  4  5  2  0
  4 32  1  0
  5  6  1  0
  5 33  1  0
  6  7  1  0
  6 27  2  0
  7  8  2  3
  7 34  1  0
  8  9  1  0
  8 35  1  0
  9 17  1  0
  9 10  2  0
 10 11  1  0
 11 16  2  0
 11 12  1  0
 12 13  2  0
 12 36  1  0
 13 14  1  0
 13 37  1  0
 14 15  2  0
 14 38  1  0
 15 16  1  0
 15 39  1  0
 16 17  1  0
 17 18  1  0
 18 19  1  0
 18 40  1  0
 18 41  1  0
 19 20  1  0
 19 42  1  0
 19 43  1  0
 20 21  1  0
 20 44  1  0
 20 45  1  0
 21 26  1  0
 21 22  2  0
 22 23  1  0
 22 46  1  0
 23 24  2  0
 23 47  1  0
 24 25  1  0
 24 48  1  0
 25 26  2  0
 25 49  1  0
 26 50  1  0
 27 28  1  0
 27 51  1  0
 28 52  1  0
M  END
>  <i_m_ct_stereo_status>  (340) 
1

>  <s_m_source_file>  (340) 
/var/tmp/pbs.5102103.sched01/tmphafng327/110q8crsuru.sdf

>  <i_m_source_file_index>  (340) 
19

>  <i_lp_mmshare_version>  (340) 
48012

>  <i_f3d_flags>  (340) 
0

>  <s_epik_input>  (340) 
W0NIM11PYzFbY0hdW2NIXWMoW2NIXVtjSF0xKS9bQ0hdPVtDSF0vYyhuMiluKGMoYzIzKVtjSF1bY0hdW2NIXVtjSF0zKVtDSDJdW0NIMl1bQ0gyXWM0W2NIXVtjSF1bY0hdW2NIXVtjSF00

>  <s_epik_cmdline>  (340) 
J2VwaWtfcHl0aG9uJywgJy1waHQnLCAnMi4wJywgJy1waCcsICc3LjAnLCAnLXRuJywgJzgnLCAnLW1hJywgJzIwMCcsICctaW1hZScsICc8aW5maWxlLm1hZT4nLCAnLW9tYWUnLCAnPG91dGZpbGUubWFlPic=

>  <r_epik_Ionization_Penalty>  (340) 
0.138473

>  <r_epik_Ionization_Penalty_Charging>  (340) 
0

>  <r_epik_Ionization_Penalty_Neutral>  (340) 
0.138473

>  <r_epik_State_Penalty>  (340) 
0.127804

>  <r_epik_Charging_Adjusted_Penalty>  (340) 
0.127804

>  <i_epik_Tot_Q>  (340) 
0

>  <i_epik_Tot_abs_Q>  (340) 
0

>  <s_lp_Force_Field>  (340) 
OPLS3e

>  <r_lp_Energy>  (340) 
41.7229

>  <b_lp_Chiralities_Consistent>  (340) 
1

>  <s_lp_Variant>  (340) 
81:0-2

>  <s_i_glide_gridfile>  (340) 
pfpi4k_grid

>  <i_i_glide_lignum>  (340) 
19

>  <i_i_glide_rotatable_bonds>  (340) 
7

>  <r_i_docking_score>  (340) 
-1.66271

>  <r_i_glide_ligand_efficiency>  (340) 
-0.0593825

>  <r_i_glide_ligand_efficiency_sa>  (340) 
-0.18032

>  <r_i_glide_ligand_efficiency_ln>  (340) 
-0.383803

>  <r_i_glide_gscore>  (340) 
-1.66271

>  <r_i_glide_lipo>  (340) 
-0.0400692

>  <r_i_glide_hbond>  (340) 
0

>  <r_i_glide_metal>  (340) 
-0

>  <r_i_glide_rewards>  (340) 
-0.89679

>  <r_i_glide_evdw>  (340) 
-25.9581

>  <r_i_glide_ecoul>  (340) 
-0.917172

>  <r_i_glide_erotb>  (340) 
0.70966

>  <r_i_glide_esite>  (340) 
-3.233e-05

>  <r_i_glide_emodel>  (340) 
-25.8643

>  <r_i_glide_energy>  (340) 
-26.8753

>  <r_i_glide_einternal>  (340) 
7.55324

>  <r_i_glide_intrahb_reward>  (340) 
-0

>  <i_i_glide_confnum>  (340) 
1

>  <i_i_glide_posenum>  (340) 
1

>  <r_i_glide_eff_state_penalty>  (340) 
0

>  <ligand_id>  (340) 
81

>  <original_smiles>  (340) 
COc1ccc(C=Cc2nc3ccccc3n2CCCc2ccccc2)cc1

>  <smiles>  (340) 
[H]C(=C([H])c1nc2c([H])c([H])c([H])c([H])c2n1C([H])([H])C([H])([H])C([H])([H])c1c([H])c([H])c([H])c([H])c1[H])c1c([H])c([H])c(OC([H])([H])[H])c([H])c1[H]

$$$$
82:0:0
     RDKit          3D

 75 82  0  0  1  0  0  0  0  0999 V2000
    3.9332   -8.0270    4.1627 C   0  0  0  0  0  0  0  0  0  0  0  0
    4.8324   -6.8070    4.4563 C   0  0  2  0  0  0  0  0  0  0  0  0
    4.9339   -6.2975    5.8723 N   0  0  0  0  0  0  0  0  0  0  0  0
    3.9083   -5.6030    6.7480 C   0  0  2  0  0  0  0  0  0  0  0  0
    3.1257   -4.3478    7.1233 N   0  0  0  0  0  0  0  0  0  0  0  0
    2.1518   -3.7199    6.1968 C   0  0  0  0  0  0  0  0  0  0  0  0
    2.4004   -4.1827    4.7674 C   0  0  1  0  0  0  0  0  0  0  0  0
    2.5332   -3.1059    3.8335 O   0  0  0  0  0  0  0  0  0  0  0  0
    3.7098   -3.9079    4.0935 C   0  0  1  0  0  0  0  0  0  0  0  0
    4.6904   -3.4138    5.1181 C   0  0  2  0  0  0  0  0  0  0  0  0
    5.8483   -4.2228    5.3437 O   0  0  0  0  0  0  0  0  0  0  0  0
    4.8087   -4.2871    6.3599 C   0  0  2  0  0  0  0  0  0  0  0  0
    4.2817   -4.6393    2.8828 C   0  0  2  0  0  0  0  0  0  0  0  0
    5.1272   -5.8769    3.2463 C   0  0  0  0  0  0  0  0  0  0  0  0
    6.1570   -6.2168    2.4494 C   0  0  0  0  0  0  0  0  0  0  0  0
    6.5765   -5.5801    1.3092 O   0  0  0  0  0  0  0  0  0  0  0  0
    5.8922   -4.4037    0.8801 C   0  0  1  0  0  0  0  0  0  0  0  0
    5.1853   -4.6970   -0.4651 C   0  0  1  0  0  0  0  0  0  0  0  0
    3.8880   -5.2312   -0.3189 O   0  0  0  0  0  0  0  0  0  0  0  0
    5.1680   -3.4661   -1.4071 C   0  0  1  0  0  0  0  0  0  0  0  0
    4.8033   -3.8575   -2.7252 O   0  0  0  0  0  0  0  0  0  0  0  0
    4.3686   -2.2311   -0.9333 C   0  0  1  0  0  0  0  0  0  0  0  0
    3.0009   -2.5109   -1.0949 O   0  0  0  0  0  0  0  0  0  0  0  0
    4.6630   -1.7615    0.5157 C   0  0  1  0  0  0  0  0  0  0  0  0
    3.9950   -0.4142    0.8524 C   0  0  0  0  0  0  0  0  0  0  0  0
    4.5563    0.1279    2.0272 O   0  0  0  0  0  0  0  0  0  0  0  0
    4.1498   -2.7461    1.4101 O   0  0  0  0  0  0  0  0  0  0  0  0
    5.0757   -3.6731    1.9681 C   0  0  1  0  0  0  0  0  0  0  0  0
    1.4249   -5.2879    4.4709 C   0  0  1  0  0  0  0  0  0  0  0  0
    1.4875   -5.8213    3.1646 O   0  0  0  0  0  0  0  0  0  0  0  0
    1.6128   -6.3752    5.5303 C   0  0  0  0  0  0  0  0  0  0  0  0
    2.6284   -6.4736    6.4448 C   0  0  0  0  0  0  0  0  0  0  0  0
    2.6093   -7.6081    7.4882 C   0  0  0  0  0  0  0  0  0  0  0  0
    1.2028   -8.1277    7.8728 C   0  0  0  0  0  0  0  0  0  0  0  0
    1.3186   -9.3821    8.7573 C   0  0  0  0  0  0  0  0  0  0  0  0
    0.4275   -7.0454    8.6540 C   0  0  0  0  0  0  0  0  0  0  0  0
    0.5136   -8.5181    6.5643 C   0  0  0  0  0  0  0  0  0  0  0  0
    0.4980   -7.3808    5.5484 C   0  0  0  0  0  0  0  0  0  0  0  0
   -0.4607   -7.3386    4.7803 O   0  0  0  0  0  0  0  0  0  0  0  0
    4.3620   -8.5880    3.3317 H   0  0  0  0  0  0  0  0  0  0  0  0
    2.9137   -7.8117    3.8677 H   0  0  0  0  0  0  0  0  0  0  0  0
    3.9148   -8.7149    5.0049 H   0  0  0  0  0  0  0  0  0  0  0  0
    5.7626   -7.3683    4.4216 H   0  0  0  0  0  0  0  0  0  0  0  0
    5.7690   -5.6966    5.8839 H   0  0  0  0  0  0  0  0  0  0  0  0
    2.8151   -4.3374    8.1008 H   0  0  0  0  0  0  0  0  0  0  0  0
    1.1258   -3.9427    6.4948 H   0  0  0  0  0  0  0  0  0  0  0  0
    2.2365   -2.6353    6.2199 H   0  0  0  0  0  0  0  0  0  0  0  0
    4.8709   -2.3477    5.2196 H   0  0  0  0  0  0  0  0  0  0  0  0
    5.2958   -3.8632    7.2443 H   0  0  0  0  0  0  0  0  0  0  0  0
    3.4676   -4.9836    2.2630 H   0  0  0  0  0  0  0  0  0  0  0  0
    6.7753   -7.0920    2.6358 H   0  0  0  0  0  0  0  0  0  0  0  0
    6.7196   -3.7397    0.6339 H   0  0  0  0  0  0  0  0  0  0  0  0
    5.7897   -5.4594   -0.9606 H   0  0  0  0  0  0  0  0  0  0  0  0
    3.5535   -5.4435   -1.1641 H   0  0  0  0  0  0  0  0  0  0  0  0
    6.1938   -3.1272   -1.5224 H   0  0  0  0  0  0  0  0  0  0  0  0
    3.9927   -4.3504   -2.6925 H   0  0  0  0  0  0  0  0  0  0  0  0
    4.5997   -1.4141   -1.6164 H   0  0  0  0  0  0  0  0  0  0  0  0
    2.4531   -1.7543   -0.8853 H   0  0  0  0  0  0  0  0  0  0  0  0
    5.7431   -1.6347    0.6289 H   0  0  0  0  0  0  0  0  0  0  0  0
    4.2112    0.3051    0.0656 H   0  0  0  0  0  0  0  0  0  0  0  0
    2.9086   -0.4998    0.9296 H   0  0  0  0  0  0  0  0  0  0  0  0
    4.2097    1.0043    2.1528 H   0  0  0  0  0  0  0  0  0  0  0  0
    5.7872   -3.1290    2.5907 H   0  0  0  0  0  0  0  0  0  0  0  0
    0.4185   -4.8668    4.5721 H   0  0  0  0  0  0  0  0  0  0  0  0
    2.3431   -6.2207    3.0493 H   0  0  0  0  0  0  0  0  0  0  0  0
    3.1951   -8.4354    7.0841 H   0  0  0  0  0  0  0  0  0  0  0  0
    3.1279   -7.2949    8.3917 H   0  0  0  0  0  0  0  0  0  0  0  0
    0.3398   -9.7834    9.0040 H   0  0  0  0  0  0  0  0  0  0  0  0
    1.8415   -9.1904    9.6929 H   0  0  0  0  0  0  0  0  0  0  0  0
    1.8535  -10.1784    8.2460 H   0  0  0  0  0  0  0  0  0  0  0  0
   -0.5765   -7.3932    8.8844 H   0  0  0  0  0  0  0  0  0  0  0  0
    0.3261   -6.1185    8.0951 H   0  0  0  0  0  0  0  0  0  0  0  0
    0.9249   -6.7947    9.5938 H   0  0  0  0  0  0  0  0  0  0  0  0
    1.0046   -9.3828    6.1178 H   0  0  0  0  0  0  0  0  0  0  0  0
   -0.5058   -8.8347    6.7682 H   0  0  0  0  0  0  0  0  0  0  0  0
  1  2  1  0
  1 40  1  0
  1 41  1  0
  1 42  1  0
  2 14  1  0
  2  3  1  0
  2 43  1  1
  4  3  1  1
  3 44  1  0
  4 12  1  0
  4 32  1  0
  4  5  1  0
  5  6  1  0
  5 45  1  0
  6  7  1  0
  6 46  1  0
  6 47  1  0
  7  9  1  0
  7  8  1  6
  7 29  1  0
  9  8  1  6
  9 10  1  0
  9 13  1  0
 10 12  1  0
 10 11  1  0
 10 48  1  1
 11 12  1  0
 12 49  1  1
 13 28  1  0
 13 14  1  0
 13 50  1  6
 14 15  2  0
 15 16  1  0
 15 51  1  0
 16 17  1  0
 17 28  1  0
 17 18  1  0
 17 52  1  6
 18 19  1  0
 18 20  1  0
 18 53  1  6
 19 54  1  0
 20 21  1  0
 20 22  1  0
 20 55  1  6
 21 56  1  0
 22 23  1  0
 22 24  1  0
 22 57  1  6
 23 58  1  0
 24 25  1  0
 24 27  1  0
 24 59  1  6
 25 26  1  0
 25 60  1  0
 25 61  1  0
 26 62  1  0
 27 28  1  0
 28 63  1  1
 29 30  1  0
 29 31  1  0
 29 64  1  1
 30 65  1  0
 31 38  1  0
 31 32  2  0
 32 33  1  0
 33 34  1  0
 33 66  1  0
 33 67  1  0
 34 35  1  0
 34 36  1  0
 34 37  1  0
 35 68  1  0
 35 69  1  0
 35 70  1  0
 36 71  1  0
 36 72  1  0
 36 73  1  0
 37 38  1  0
 37 74  1  0
 37 75  1  0
 38 39  2  0
M  END
>  <i_m_ct_stereo_status>  (341) 
1

>  <s_m_source_file>  (341) 
/var/tmp/pbs.5102103.sched01/tmphafng327/110q8crsuru.sdf

>  <i_m_source_file_index>  (341) 
22

>  <i_lp_mmshare_version>  (341) 
48012

>  <i_f3d_flags>  (341) 
0

>  <s_epik_input>  (341) 
W09IXVtDQEhdMVtDQEBIXShbT0hdKVtDQEBIXShbT0hdKVtDQEBIXShbQ0gyXVtPSF0pT1tDQEBIXTJbQ0BIXTFPW0NIXT1DKFtDQEhdKFtDSDNdKVtOSF0zKVtDQEhdMltDQF00KFtDQEhdKE81KVtDQEhdNUMzNjcpW0NAXShPNCkoW0NIMl1bTkhdNilbQ0BASF0oW09IXSlDOD1DN1tDSDJdQyhbQ0gzXSkoW0NIM10pW0NIMl1DOD1P

>  <s_epik_cmdline>  (341) 
J2VwaWtfcHl0aG9uJywgJy1waHQnLCAnMi4wJywgJy1waCcsICc3LjAnLCAnLXRuJywgJzgnLCAnLW1hJywgJzIwMCcsICctaW1hZScsICc8aW5maWxlLm1hZT4nLCAnLW9tYWUnLCAnPG91dGZpbGUubWFlPic=

>  <r_lp_tautomer_probability>  (341) 
1

>  <r_epik_Ionization_Penalty>  (341) 
0.00551434

>  <r_epik_Ionization_Penalty_Charging>  (341) 
0

>  <r_epik_Ionization_Penalty_Neutral>  (341) 
0.00551434

>  <r_epik_State_Penalty>  (341) 
-0

>  <r_epik_Charging_Adjusted_Penalty>  (341) 
0

>  <i_epik_Tot_Q>  (341) 
0

>  <i_epik_Tot_abs_Q>  (341) 
0

>  <s_lp_Force_Field>  (341) 
OPLS3e

>  <r_lp_Energy>  (341) 
256.802

>  <b_lp_Chiralities_Consistent>  (341) 
1

>  <s_lp_Variant>  (341) 
82:0-1

>  <s_i_glide_gridfile>  (341) 
pfpi4k_grid

>  <i_i_glide_lignum>  (341) 
22

>  <i_i_glide_rotatable_bonds>  (341) 
6

>  <r_i_docking_score>  (341) 
-2.79063

>  <r_i_glide_ligand_efficiency>  (341) 
-0.0715547

>  <r_i_glide_ligand_efficiency_sa>  (341) 
-0.242657

>  <r_i_glide_ligand_efficiency_ln>  (341) 
-0.598391

>  <r_i_glide_gscore>  (341) 
-2.79063

>  <r_i_glide_lipo>  (341) 
-0.324982

>  <r_i_glide_hbond>  (341) 
0

>  <r_i_glide_metal>  (341) 
-0

>  <r_i_glide_rewards>  (341) 
0

>  <r_i_glide_evdw>  (341) 
-19.0914

>  <r_i_glide_ecoul>  (341) 
-10.4355

>  <r_i_glide_erotb>  (341) 
0.0688588

>  <r_i_glide_esite>  (341) 
-0.014614

>  <r_i_glide_emodel>  (341) 
-34.5058

>  <r_i_glide_energy>  (341) 
-29.5269

>  <r_i_glide_einternal>  (341) 
2.12366

>  <r_i_glide_intrahb_reward>  (341) 
-0

>  <i_i_glide_confnum>  (341) 
3

>  <i_i_glide_posenum>  (341) 
4

>  <r_i_glide_eff_state_penalty>  (341) 
0

>  <ligand_id>  (341) 
82

>  <original_smiles>  (341) 
CC1NC23NCC4(OC4(C4OC42)C2C1=COC1C(O)C(O)C(O)C(CO)OC12)C(O)C1=C3CC(C)(C)CC1=O

>  <smiles>  (341) 
[H]OC([H])([H])C1([H])OC2([H])C([H])(OC([H])=C3C([H])(C([H])([H])[H])N([H])C45C6=C(C(=O)C([H])([H])C(C([H])([H])[H])(C([H])([H])[H])C6([H])[H])C([H])(O[H])C6(OC6(C6([H])OC46[H])C32[H])C([H])([H])N5[H])C([H])(O[H])C([H])(O[H])C1([H])O[H]

$$$$
82:0:1
     RDKit          3D

 75 82  0  0  1  0  0  0  0  0999 V2000
    3.8928   -6.1922    2.2768 C   0  0  0  0  0  0  0  0  0  0  0  0
    4.2253   -5.4763    3.6005 C   0  0  2  0  0  0  0  0  0  0  0  0
    4.4069   -6.3000    4.8483 N   0  0  0  0  0  0  0  0  0  0  0  0
    3.4215   -7.0984    5.6732 C   0  0  2  0  0  0  0  0  0  0  0  0
    2.2856   -7.1417    6.6897 N   0  0  0  0  0  0  0  0  0  0  0  0
    0.9511   -6.5457    6.4144 C   0  0  0  0  0  0  0  0  0  0  0  0
    1.0373   -5.5459    5.2775 C   0  0  1  0  0  0  0  0  0  0  0  0
    0.4937   -4.2614    5.5963 O   0  0  0  0  0  0  0  0  0  0  0  0
    1.9341   -4.3362    5.3965 C   0  0  1  0  0  0  0  0  0  0  0  0
    2.8061   -4.4878    6.6015 C   0  0  2  0  0  0  0  0  0  0  0  0
    4.2208   -4.5349    6.3711 O   0  0  0  0  0  0  0  0  0  0  0  0
    3.5726   -5.8193    6.6722 C   0  0  2  0  0  0  0  0  0  0  0  0
    2.4662   -3.4876    4.2460 C   0  0  2  0  0  0  0  0  0  0  0  0
    3.8117   -3.9783    3.6847 C   0  0  0  0  0  0  0  0  0  0  0  0
    4.6902   -3.0787    3.1896 C   0  0  0  0  0  0  0  0  0  0  0  0
    4.5302   -1.7151    3.1230 O   0  0  0  0  0  0  0  0  0  0  0  0
    3.3282   -1.1265    3.6118 C   0  0  1  0  0  0  0  0  0  0  0  0
    2.5512   -0.4984    2.4247 C   0  0  1  0  0  0  0  0  0  0  0  0
    1.7223   -1.4369    1.7710 O   0  0  0  0  0  0  0  0  0  0  0  0
    1.7664    0.7749    2.8426 C   0  0  1  0  0  0  0  0  0  0  0  0
    1.2789    1.4358    1.6893 O   0  0  0  0  0  0  0  0  0  0  0  0
    0.6198    0.6358    3.8788 C   0  0  1  0  0  0  0  0  0  0  0  0
   -0.5920    0.1721    3.3116 O   0  0  0  0  0  0  0  0  0  0  0  0
    0.9769   -0.1712    5.1557 C   0  0  1  0  0  0  0  0  0  0  0  0
   -0.0452   -0.0735    6.3188 C   0  0  0  0  0  0  0  0  0  0  0  0
   -1.3689   -0.4323    5.9622 O   0  0  0  0  0  0  0  0  0  0  0  0
    1.2129   -1.5463    4.8693 O   0  0  0  0  0  0  0  0  0  0  0  0
    2.5503   -1.9889    4.6405 C   0  0  1  0  0  0  0  0  0  0  0  0
    0.6023   -6.2504    4.0321 C   0  0  1  0  0  0  0  0  0  0  0  0
    0.6230   -5.4580    2.8605 O   0  0  0  0  0  0  0  0  0  0  0  0
    1.4612   -7.4933    3.8407 C   0  0  0  0  0  0  0  0  0  0  0  0
    2.5994   -7.8211    4.5263 C   0  0  0  0  0  0  0  0  0  0  0  0
    3.2996   -9.1628    4.2439 C   0  0  0  0  0  0  0  0  0  0  0  0
    2.3704  -10.2906    3.7341 C   0  0  0  0  0  0  0  0  0  0  0  0
    3.2077  -11.5091    3.2978 C   0  0  0  0  0  0  0  0  0  0  0  0
    1.3961  -10.7352    4.8535 C   0  0  0  0  0  0  0  0  0  0  0  0
    1.6329   -9.7407    2.5133 C   0  0  0  0  0  0  0  0  0  0  0  0
    0.9126   -8.4310    2.8054 C   0  0  0  0  0  0  0  0  0  0  0  0
   -0.1003   -8.1846    2.1519 O   0  0  0  0  0  0  0  0  0  0  0  0
    4.3183   -5.6222    1.4529 H   0  0  0  0  0  0  0  0  0  0  0  0
    2.8410   -6.2953    2.0426 H   0  0  0  0  0  0  0  0  0  0  0  0
    4.3578   -7.1760    2.2297 H   0  0  0  0  0  0  0  0  0  0  0  0
    5.2740   -5.3217    3.3648 H   0  0  0  0  0  0  0  0  0  0  0  0
    4.8915   -5.6877    5.5195 H   0  0  0  0  0  0  0  0  0  0  0  0
    2.2215   -8.0381    7.1756 H   0  0  0  0  0  0  0  0  0  0  0  0
    0.2225   -7.3204    6.1862 H   0  0  0  0  0  0  0  0  0  0  0  0
    0.5710   -6.0360    7.2986 H   0  0  0  0  0  0  0  0  0  0  0  0
    2.5300   -4.0036    7.5315 H   0  0  0  0  0  0  0  0  0  0  0  0
    4.0095   -6.0963    7.6390 H   0  0  0  0  0  0  0  0  0  0  0  0
    1.7578   -3.4987    3.4276 H   0  0  0  0  0  0  0  0  0  0  0  0
    5.6402   -3.3666    2.7638 H   0  0  0  0  0  0  0  0  0  0  0  0
    3.7145   -0.2820    4.1808 H   0  0  0  0  0  0  0  0  0  0  0  0
    3.2920   -0.1785    1.6891 H   0  0  0  0  0  0  0  0  0  0  0  0
    1.3969   -1.0439    0.9611 H   0  0  0  0  0  0  0  0  0  0  0  0
    2.4994    1.4566    3.2766 H   0  0  0  0  0  0  0  0  0  0  0  0
    0.9884    2.3154    1.9032 H   0  0  0  0  0  0  0  0  0  0  0  0
    0.3808    1.6543    4.1940 H   0  0  0  0  0  0  0  0  0  0  0  0
   -0.7120    0.6287    2.4897 H   0  0  0  0  0  0  0  0  0  0  0  0
    1.8941    0.2572    5.5639 H   0  0  0  0  0  0  0  0  0  0  0  0
    0.2949   -0.6670    7.1712 H   0  0  0  0  0  0  0  0  0  0  0  0
   -0.1077    0.9640    6.6467 H   0  0  0  0  0  0  0  0  0  0  0  0
   -1.4659   -0.1764    5.0467 H   0  0  0  0  0  0  0  0  0  0  0  0
    3.0978   -1.9237    5.5840 H   0  0  0  0  0  0  0  0  0  0  0  0
   -0.4370   -6.5513    4.1757 H   0  0  0  0  0  0  0  0  0  0  0  0
    1.4614   -5.0416    2.8001 H   0  0  0  0  0  0  0  0  0  0  0  0
    4.0742   -8.9720    3.4992 H   0  0  0  0  0  0  0  0  0  0  0  0
    3.8222   -9.5029    5.1396 H   0  0  0  0  0  0  0  0  0  0  0  0
    2.5741  -12.2998    2.9074 H   0  0  0  0  0  0  0  0  0  0  0  0
    3.7871  -11.9258    4.1208 H   0  0  0  0  0  0  0  0  0  0  0  0
    3.9010  -11.2453    2.5022 H   0  0  0  0  0  0  0  0  0  0  0  0
    0.7102  -11.5096    4.5142 H   0  0  0  0  0  0  0  0  0  0  0  0
    0.7882   -9.9135    5.2358 H   0  0  0  0  0  0  0  0  0  0  0  0
    1.9503  -11.1368    5.6987 H   0  0  0  0  0  0  0  0  0  0  0  0
    2.3324   -9.5809    1.6936 H   0  0  0  0  0  0  0  0  0  0  0  0
    0.9130  -10.4761    2.1622 H   0  0  0  0  0  0  0  0  0  0  0  0
  1  2  1  0
  1 40  1  0
  1 41  1  0
  1 42  1  0
  2 14  1  0
  2  3  1  0
  2 43  1  6
  4  3  1  1
  3 44  1  0
  4 12  1  0
  4 32  1  0
  4  5  1  0
  5  6  1  0
  5 45  1  0
  6  7  1  0
  6 46  1  0
  6 47  1  0
  7  9  1  0
  7  8  1  1
  7 29  1  0
  9  8  1  1
  9 10  1  0
  9 13  1  0
 10 12  1  0
 10 11  1  0
 10 48  1  1
 11 12  1  0
 12 49  1  1
 13 28  1  0
 13 14  1  0
 13 50  1  6
 14 15  2  0
 15 16  1  0
 15 51  1  0
 16 17  1  0
 17 28  1  0
 17 18  1  0
 17 52  1  1
 18 19  1  0
 18 20  1  0
 18 53  1  6
 19 54  1  0
 20 21  1  0
 20 22  1  0
 20 55  1  1
 21 56  1  0
 22 23  1  0
 22 24  1  0
 22 57  1  1
 23 58  1  0
 24 25  1  0
 24 27  1  0
 24 59  1  1
 25 26  1  0
 25 60  1  0
 25 61  1  0
 26 62  1  0
 27 28  1  0
 28 63  1  1
 29 30  1  0
 29 31  1  0
 29 64  1  1
 30 65  1  0
 31 38  1  0
 31 32  2  0
 32 33  1  0
 33 34  1  0
 33 66  1  0
 33 67  1  0
 34 35  1  0
 34 36  1  0
 34 37  1  0
 35 68  1  0
 35 69  1  0
 35 70  1  0
 36 71  1  0
 36 72  1  0
 36 73  1  0
 37 38  1  0
 37 74  1  0
 37 75  1  0
 38 39  2  0
M  END
>  <i_m_ct_stereo_status>  (342) 
1

>  <s_m_source_file>  (342) 
/var/tmp/pbs.5102103.sched01/tmphafng327/110q8crsuru.sdf

>  <i_m_source_file_index>  (342) 
22

>  <i_lp_mmshare_version>  (342) 
48012

>  <i_f3d_flags>  (342) 
0

>  <s_epik_input>  (342) 
W09IXVtDQEhdMVtDQEBIXShbT0hdKVtDQEBIXShbT0hdKVtDQEBIXShbQ0gyXVtPSF0pT1tDQEBIXTJbQ0BIXTFPW0NIXT1DKFtDQEhdKFtDSDNdKVtOSF0zKVtDQEhdMltDQF00KFtDQEhdKE81KVtDQEhdNUMzNjcpW0NAXShPNCkoW0NIMl1bTkhdNilbQ0BASF0oW09IXSlDOD1DN1tDSDJdQyhbQ0gzXSkoW0NIM10pW0NIMl1DOD1P

>  <s_epik_cmdline>  (342) 
J2VwaWtfcHl0aG9uJywgJy1waHQnLCAnMi4wJywgJy1waCcsICc3LjAnLCAnLXRuJywgJzgnLCAnLW1hJywgJzIwMCcsICctaW1hZScsICc8aW5maWxlLm1hZT4nLCAnLW9tYWUnLCAnPG91dGZpbGUubWFlPic=

>  <r_lp_tautomer_probability>  (342) 
1

>  <r_epik_Ionization_Penalty>  (342) 
0.00551434

>  <r_epik_Ionization_Penalty_Charging>  (342) 
0

>  <r_epik_Ionization_Penalty_Neutral>  (342) 
0.00551434

>  <r_epik_State_Penalty>  (342) 
-0

>  <r_epik_Charging_Adjusted_Penalty>  (342) 
0

>  <i_epik_Tot_Q>  (342) 
0

>  <i_epik_Tot_abs_Q>  (342) 
0

>  <s_lp_Force_Field>  (342) 
OPLS3e

>  <r_lp_Energy>  (342) 
256.802

>  <b_lp_Chiralities_Consistent>  (342) 
1

>  <s_lp_Variant>  (342) 
82:0-1

>  <s_i_glide_gridfile>  (342) 
pfpi4k_grid

>  <i_i_glide_lignum>  (342) 
22

>  <i_i_glide_rotatable_bonds>  (342) 
6

>  <r_i_docking_score>  (342) 
-2.55638

>  <r_i_glide_ligand_efficiency>  (342) 
-0.0655481

>  <r_i_glide_ligand_efficiency_sa>  (342) 
-0.222287

>  <r_i_glide_ligand_efficiency_ln>  (342) 
-0.548159

>  <r_i_glide_gscore>  (342) 
-2.55638

>  <r_i_glide_lipo>  (342) 
-0.129391

>  <r_i_glide_hbond>  (342) 
0

>  <r_i_glide_metal>  (342) 
-0

>  <r_i_glide_rewards>  (342) 
-0.5

>  <r_i_glide_evdw>  (342) 
-22.2034

>  <r_i_glide_ecoul>  (342) 
-5.75213

>  <r_i_glide_erotb>  (342) 
0.0688588

>  <r_i_glide_esite>  (342) 
-0.0228552

>  <r_i_glide_emodel>  (342) 
-35.68

>  <r_i_glide_energy>  (342) 
-27.9555

>  <r_i_glide_einternal>  (342) 
4.88066

>  <r_i_glide_intrahb_reward>  (342) 
-0.5

>  <i_i_glide_confnum>  (342) 
4

>  <i_i_glide_posenum>  (342) 
16

>  <r_i_glide_eff_state_penalty>  (342) 
0

>  <ligand_id>  (342) 
82

>  <original_smiles>  (342) 
CC1NC23NCC4(OC4(C4OC42)C2C1=COC1C(O)C(O)C(O)C(CO)OC12)C(O)C1=C3CC(C)(C)CC1=O

>  <smiles>  (342) 
[H]OC([H])([H])C1([H])OC2([H])C([H])(OC([H])=C3C([H])(C([H])([H])[H])N([H])C45C6=C(C(=O)C([H])([H])C(C([H])([H])[H])(C([H])([H])[H])C6([H])[H])C([H])(O[H])C6(OC6(C6([H])OC46[H])C32[H])C([H])([H])N5[H])C([H])(O[H])C([H])(O[H])C1([H])O[H]

$$$$
82:0:2
     RDKit          3D

 75 82  0  0  1  0  0  0  0  0999 V2000
    3.8807   -6.2585    2.2680 C   0  0  0  0  0  0  0  0  0  0  0  0
    4.2312   -5.5489    3.5889 C   0  0  2  0  0  0  0  0  0  0  0  0
    4.4039   -6.3687    4.8393 N   0  0  0  0  0  0  0  0  0  0  0  0
    3.4042   -7.1551    5.6612 C   0  0  2  0  0  0  0  0  0  0  0  0
    2.2720   -7.1595    6.6817 N   0  0  0  0  0  0  0  0  0  0  0  0
    0.9528   -6.5512    6.4181 C   0  0  0  0  0  0  0  0  0  0  0  0
    1.0517   -5.5477    5.2804 C   0  0  1  0  0  0  0  0  0  0  0  0
    0.5328   -4.2586    5.5957 O   0  0  0  0  0  0  0  0  0  0  0  0
    1.9621   -4.3644    5.3929 C   0  0  1  0  0  0  0  0  0  0  0  0
    2.8546   -4.5374    6.5917 C   0  0  2  0  0  0  0  0  0  0  0  0
    4.2547   -4.6081    6.3659 O   0  0  0  0  0  0  0  0  0  0  0  0
    3.5878   -5.8583    6.6664 C   0  0  2  0  0  0  0  0  0  0  0  0
    2.5157   -3.5230    4.2379 C   0  0  2  0  0  0  0  0  0  0  0  0
    3.8478   -4.0456    3.6724 C   0  0  0  0  0  0  0  0  0  0  0  0
    4.7395   -3.1552    3.1733 C   0  0  0  0  0  0  0  0  0  0  0  0
    4.6106   -1.7945    3.1054 O   0  0  0  0  0  0  0  0  0  0  0  0
    3.4182   -1.1824    3.5978 C   0  0  1  0  0  0  0  0  0  0  0  0
    2.6498   -0.5488    2.4090 C   0  0  1  0  0  0  0  0  0  0  0  0
    1.7843   -1.4656    1.7669 O   0  0  0  0  0  0  0  0  0  0  0  0
    1.8921    0.7319    2.8308 C   0  0  1  0  0  0  0  0  0  0  0  0
    1.4312    1.4141    1.6865 O   0  0  0  0  0  0  0  0  0  0  0  0
    0.7443    0.6208    3.8629 C   0  0  1  0  0  0  0  0  0  0  0  0
   -0.4635    0.1537    3.2921 O   0  0  0  0  0  0  0  0  0  0  0  0
    1.0898   -0.1792    5.1485 C   0  0  1  0  0  0  0  0  0  0  0  0
    0.0703   -0.0593    6.3080 C   0  0  0  0  0  0  0  0  0  0  0  0
   -1.2508   -0.4234    5.9504 O   0  0  0  0  0  0  0  0  0  0  0  0
    1.3017   -1.5599    4.8676 O   0  0  0  0  0  0  0  0  0  0  0  0
    2.6293   -2.0294    4.6307 C   0  0  1  0  0  0  0  0  0  0  0  0
    0.5979   -6.2539    4.0290 C   0  0  1  0  0  0  0  0  0  0  0  0
    0.6208   -5.4726    2.8629 O   0  0  0  0  0  0  0  0  0  0  0  0
    1.4295   -7.5207    3.8400 C   0  0  0  0  0  0  0  0  0  0  0  0
    2.5710   -7.8583    4.5325 C   0  0  0  0  0  0  0  0  0  0  0  0
    3.2407   -9.2233    4.2389 C   0  0  0  0  0  0  0  0  0  0  0  0
    2.2868  -10.3254    3.7362 C   0  0  0  0  0  0  0  0  0  0  0  0
    3.1018  -11.5574    3.2986 C   0  0  0  0  0  0  0  0  0  0  0  0
    1.3086  -10.7465    4.8595 C   0  0  0  0  0  0  0  0  0  0  0  0
    1.5554   -9.7659    2.5171 C   0  0  0  0  0  0  0  0  0  0  0  0
    0.8591   -8.4388    2.8099 C   0  0  0  0  0  0  0  0  0  0  0  0
   -0.1503   -8.1760    2.1606 O   0  0  0  0  0  0  0  0  0  0  0  0
    4.3147   -5.6974    1.4428 H   0  0  0  0  0  0  0  0  0  0  0  0
    2.8276   -6.3398    2.0376 H   0  0  0  0  0  0  0  0  0  0  0  0
    4.3246   -7.2503    2.2203 H   0  0  0  0  0  0  0  0  0  0  0  0
    5.2855   -5.4138    3.3540 H   0  0  0  0  0  0  0  0  0  0  0  0
    4.8865   -5.7633    5.5040 H   0  0  0  0  0  0  0  0  0  0  0  0
    2.1968   -8.0621    7.1787 H   0  0  0  0  0  0  0  0  0  0  0  0
    0.2092   -7.3101    6.1945 H   0  0  0  0  0  0  0  0  0  0  0  0
    0.5832   -6.0337    7.3074 H   0  0  0  0  0  0  0  0  0  0  0  0
    2.5762   -4.0343    7.5289 H   0  0  0  0  0  0  0  0  0  0  0  0
    4.0243   -6.1636    7.6343 H   0  0  0  0  0  0  0  0  0  0  0  0
    1.8013   -3.5250    3.4218 H   0  0  0  0  0  0  0  0  0  0  0  0
    5.6827   -3.4645    2.7427 H   0  0  0  0  0  0  0  0  0  0  0  0
    3.8237   -0.3442    4.1624 H   0  0  0  0  0  0  0  0  0  0  0  0
    3.3937   -0.2434    1.6719 H   0  0  0  0  0  0  0  0  0  0  0  0
    1.4765   -1.0921    0.9441 H   0  0  0  0  0  0  0  0  0  0  0  0
    2.6321    1.4094    3.2613 H   0  0  0  0  0  0  0  0  0  0  0  0
    0.8729    0.8492    1.1695 H   0  0  0  0  0  0  0  0  0  0  0  0
    0.5185    1.6449    4.1706 H   0  0  0  0  0  0  0  0  0  0  0  0
   -0.6547    0.6989    2.5356 H   0  0  0  0  0  0  0  0  0  0  0  0
    2.0143    0.2369    5.5557 H   0  0  0  0  0  0  0  0  0  0  0  0
    0.4048   -0.6429    7.1685 H   0  0  0  0  0  0  0  0  0  0  0  0
    0.0090    0.9830    6.6248 H   0  0  0  0  0  0  0  0  0  0  0  0
   -1.3522   -0.1678    5.0363 H   0  0  0  0  0  0  0  0  0  0  0  0
    3.1806   -1.9691    5.5732 H   0  0  0  0  0  0  0  0  0  0  0  0
   -0.4455   -6.5348    4.1852 H   0  0  0  0  0  0  0  0  0  0  0  0
    1.4717   -5.0469    2.8024 H   0  0  0  0  0  0  0  0  0  0  0  0
    4.0164   -9.0395    3.4937 H   0  0  0  0  0  0  0  0  0  0  0  0
    3.7598   -9.5643    5.1390 H   0  0  0  0  0  0  0  0  0  0  0  0
    2.4493  -12.3322    2.9104 H   0  0  0  0  0  0  0  0  0  0  0  0
    3.6748  -11.9846    4.1197 H   0  0  0  0  0  0  0  0  0  0  0  0
    3.7973  -11.3076    2.4992 H   0  0  0  0  0  0  0  0  0  0  0  0
    0.6065  -11.5101    4.5267 H   0  0  0  0  0  0  0  0  0  0  0  0
    0.7183   -9.9118    5.2442 H   0  0  0  0  0  0  0  0  0  0  0  0
    1.8631  -11.1567    5.6996 H   0  0  0  0  0  0  0  0  0  0  0  0
    2.2528   -9.6186    1.6962 H   0  0  0  0  0  0  0  0  0  0  0  0
    0.8193  -10.4852    2.1718 H   0  0  0  0  0  0  0  0  0  0  0  0
  1  2  1  0
  1 40  1  0
  1 41  1  0
  1 42  1  0
  2 14  1  0
  2  3  1  0
  2 43  1  6
  4  3  1  1
  3 44  1  0
  4 12  1  0
  4 32  1  0
  4  5  1  0
  5  6  1  0
  5 45  1  0
  6  7  1  0
  6 46  1  0
  6 47  1  0
  7  9  1  0
  7  8  1  1
  7 29  1  0
  9  8  1  1
  9 10  1  0
  9 13  1  0
 10 12  1  0
 10 11  1  0
 10 48  1  1
 11 12  1  0
 12 49  1  1
 13 28  1  0
 13 14  1  0
 13 50  1  6
 14 15  2  0
 15 16  1  0
 15 51  1  0
 16 17  1  0
 17 28  1  0
 17 18  1  0
 17 52  1  1
 18 19  1  0
 18 20  1  0
 18 53  1  6
 19 54  1  0
 20 21  1  0
 20 22  1  0
 20 55  1  1
 21 56  1  0
 22 23  1  0
 22 24  1  0
 22 57  1  1
 23 58  1  0
 24 25  1  0
 24 27  1  0
 24 59  1  1
 25 26  1  0
 25 60  1  0
 25 61  1  0
 26 62  1  0
 27 28  1  0
 28 63  1  1
 29 30  1  0
 29 31  1  0
 29 64  1  1
 30 65  1  0
 31 38  1  0
 31 32  2  0
 32 33  1  0
 33 34  1  0
 33 66  1  0
 33 67  1  0
 34 35  1  0
 34 36  1  0
 34 37  1  0
 35 68  1  0
 35 69  1  0
 35 70  1  0
 36 71  1  0
 36 72  1  0
 36 73  1  0
 37 38  1  0
 37 74  1  0
 37 75  1  0
 38 39  2  0
M  END
>  <i_m_ct_stereo_status>  (343) 
1

>  <s_m_source_file>  (343) 
/var/tmp/pbs.5102103.sched01/tmphafng327/110q8crsuru.sdf

>  <i_m_source_file_index>  (343) 
22

>  <i_lp_mmshare_version>  (343) 
48012

>  <i_f3d_flags>  (343) 
0

>  <s_epik_input>  (343) 
W09IXVtDQEhdMVtDQEBIXShbT0hdKVtDQEBIXShbT0hdKVtDQEBIXShbQ0gyXVtPSF0pT1tDQEBIXTJbQ0BIXTFPW0NIXT1DKFtDQEhdKFtDSDNdKVtOSF0zKVtDQEhdMltDQF00KFtDQEhdKE81KVtDQEhdNUMzNjcpW0NAXShPNCkoW0NIMl1bTkhdNilbQ0BASF0oW09IXSlDOD1DN1tDSDJdQyhbQ0gzXSkoW0NIM10pW0NIMl1DOD1P

>  <s_epik_cmdline>  (343) 
J2VwaWtfcHl0aG9uJywgJy1waHQnLCAnMi4wJywgJy1waCcsICc3LjAnLCAnLXRuJywgJzgnLCAnLW1hJywgJzIwMCcsICctaW1hZScsICc8aW5maWxlLm1hZT4nLCAnLW9tYWUnLCAnPG91dGZpbGUubWFlPic=

>  <r_lp_tautomer_probability>  (343) 
1

>  <r_epik_Ionization_Penalty>  (343) 
0.00551434

>  <r_epik_Ionization_Penalty_Charging>  (343) 
0

>  <r_epik_Ionization_Penalty_Neutral>  (343) 
0.00551434

>  <r_epik_State_Penalty>  (343) 
-0

>  <r_epik_Charging_Adjusted_Penalty>  (343) 
0

>  <i_epik_Tot_Q>  (343) 
0

>  <i_epik_Tot_abs_Q>  (343) 
0

>  <s_lp_Force_Field>  (343) 
OPLS3e

>  <r_lp_Energy>  (343) 
256.802

>  <b_lp_Chiralities_Consistent>  (343) 
1

>  <s_lp_Variant>  (343) 
82:0-1

>  <s_i_glide_gridfile>  (343) 
pfpi4k_grid

>  <i_i_glide_lignum>  (343) 
22

>  <i_i_glide_rotatable_bonds>  (343) 
6

>  <r_i_docking_score>  (343) 
-2.55193

>  <r_i_glide_ligand_efficiency>  (343) 
-0.065434

>  <r_i_glide_ligand_efficiency_sa>  (343) 
-0.2219

>  <r_i_glide_ligand_efficiency_ln>  (343) 
-0.547205

>  <r_i_glide_gscore>  (343) 
-2.55193

>  <r_i_glide_lipo>  (343) 
-0.138242

>  <r_i_glide_hbond>  (343) 
0

>  <r_i_glide_metal>  (343) 
-0

>  <r_i_glide_rewards>  (343) 
-0.5

>  <r_i_glide_evdw>  (343) 
-22.4162

>  <r_i_glide_ecoul>  (343) 
-5.58738

>  <r_i_glide_erotb>  (343) 
0.0688588

>  <r_i_glide_esite>  (343) 
-0.0236246

>  <r_i_glide_emodel>  (343) 
-35.7457

>  <r_i_glide_energy>  (343) 
-28.0036

>  <r_i_glide_einternal>  (343) 
4.68862

>  <r_i_glide_intrahb_reward>  (343) 
-0.5

>  <i_i_glide_confnum>  (343) 
2

>  <i_i_glide_posenum>  (343) 
15

>  <r_i_glide_eff_state_penalty>  (343) 
0

>  <ligand_id>  (343) 
82

>  <original_smiles>  (343) 
CC1NC23NCC4(OC4(C4OC42)C2C1=COC1C(O)C(O)C(O)C(CO)OC12)C(O)C1=C3CC(C)(C)CC1=O

>  <smiles>  (343) 
[H]OC([H])([H])C1([H])OC2([H])C([H])(OC([H])=C3C([H])(C([H])([H])[H])N([H])C45C6=C(C(=O)C([H])([H])C(C([H])([H])[H])(C([H])([H])[H])C6([H])[H])C([H])(O[H])C6(OC6(C6([H])OC46[H])C32[H])C([H])([H])N5[H])C([H])(O[H])C([H])(O[H])C1([H])O[H]

$$$$
83:0:0
     RDKit          3D

 63 68  0  0  1  0  0  0  0  0999 V2000
   -1.5837   -7.8299    4.0737 C   0  0  0  0  0  0  0  0  0  0  0  0
   -0.2605   -8.0141    4.0210 C   0  0  0  0  0  0  0  0  0  0  0  0
    0.6256   -7.4926    2.9711 C   0  0  0  0  0  0  0  0  0  0  0  0
    0.2657   -6.8298    1.9964 O   0  0  0  0  0  0  0  0  0  0  0  0
    2.0701   -7.9801    3.2471 C   0  0  1  0  0  0  0  0  0  0  0  0
    2.9013   -8.0294    1.9028 C   0  0  0  0  0  0  0  0  0  0  0  0
    2.8370   -9.0325    1.1993 O   0  0  0  0  0  0  0  0  0  0  0  0
    3.8511   -6.8907    1.4456 C   0  0  1  0  0  0  0  0  0  0  0  0
    3.1208   -6.2058    0.4844 O   0  0  0  0  0  0  0  0  0  0  0  0
    3.5238   -5.3271    1.5483 C   0  0  2  0  0  0  0  0  0  0  0  0
    3.9410   -4.0133    0.8501 C   0  0  0  0  0  0  0  0  0  0  0  0
    4.6614   -3.1701    1.3912 O   0  0  0  0  0  0  0  0  0  0  0  0
    3.3326   -3.6915   -0.5213 C   0  0  0  0  0  0  0  0  0  0  0  0
    4.2212   -2.9093   -1.3114 O   0  0  0  0  0  0  0  0  0  0  0  0
    3.8690   -2.4680   -2.5424 C   0  0  0  0  0  0  0  0  0  0  0  0
    2.4466   -2.7902   -2.9918 C   0  0  0  0  0  0  0  0  0  0  0  0
    4.6206   -1.8300   -3.2775 O   0  0  0  0  0  0  0  0  0  0  0  0
    3.0773   -5.2102    2.9651 C   0  0  0  0  0  0  0  0  0  0  0  0
    1.8129   -4.4013    3.1852 C   0  0  0  0  0  0  0  0  0  0  0  0
    3.6826   -6.0150    3.8953 C   0  0  0  0  0  0  0  0  0  0  0  0
    5.2272   -6.3978    3.8452 C   0  0  2  0  0  0  0  0  0  0  0  0
    6.0554   -5.3457    3.0589 C   0  0  0  0  0  0  0  0  0  0  0  0
    6.2620   -5.9399    1.6163 C   0  0  0  0  0  0  0  0  0  0  0  0
    5.3866   -7.2201    1.6069 C   0  0  1  0  0  0  0  0  0  0  0  0
    5.7235   -7.6886    3.0816 C   0  0  0  0  0  0  0  0  0  0  0  0
    7.2709   -7.9134    3.3291 C   0  0  0  0  0  0  0  0  0  0  0  0
    5.2777   -9.1106    3.5420 C   0  0  0  0  0  0  0  0  0  0  0  0
    2.8170   -7.1725    4.4038 C   0  0  1  0  0  0  0  0  0  0  0  0
    1.9111   -6.8826    5.6303 C   0  0  0  0  0  0  0  0  0  0  0  0
    1.1846   -8.1713    6.0835 C   0  0  0  0  0  0  0  0  0  0  0  0
    0.5690   -8.9401    4.8865 C   0  0  2  0  0  0  0  0  0  0  0  0
    1.6989   -9.3611    3.9190 C   0  0  1  0  0  0  0  0  0  0  0  0
    1.1788  -10.3806    3.0749 O   0  0  0  0  0  0  0  0  0  0  0  0
   -2.1666   -8.3239    4.8376 H   0  0  0  0  0  0  0  0  0  0  0  0
   -2.1148   -7.2055    3.3674 H   0  0  0  0  0  0  0  0  0  0  0  0
    3.0722   -4.5905   -1.0804 H   0  0  0  0  0  0  0  0  0  0  0  0
    2.4235   -3.1187   -0.3302 H   0  0  0  0  0  0  0  0  0  0  0  0
    2.2603   -3.8619   -2.9572 H   0  0  0  0  0  0  0  0  0  0  0  0
    2.2443   -2.4484   -4.0050 H   0  0  0  0  0  0  0  0  0  0  0  0
    1.7421   -2.2916   -2.3301 H   0  0  0  0  0  0  0  0  0  0  0  0
    1.0280   -4.6174    2.4696 H   0  0  0  0  0  0  0  0  0  0  0  0
    2.0556   -3.3449    3.0805 H   0  0  0  0  0  0  0  0  0  0  0  0
    1.4146   -4.5220    4.1837 H   0  0  0  0  0  0  0  0  0  0  0  0
    5.5553   -6.4322    4.8814 H   0  0  0  0  0  0  0  0  0  0  0  0
    5.5923   -4.3658    3.1406 H   0  0  0  0  0  0  0  0  0  0  0  0
    7.0233   -5.1960    3.5304 H   0  0  0  0  0  0  0  0  0  0  0  0
    6.1031   -5.2817    0.7765 H   0  0  0  0  0  0  0  0  0  0  0  0
    7.3081   -6.2019    1.4716 H   0  0  0  0  0  0  0  0  0  0  0  0
    5.7007   -7.9466    0.8579 H   0  0  0  0  0  0  0  0  0  0  0  0
    7.6874   -8.6138    2.6031 H   0  0  0  0  0  0  0  0  0  0  0  0
    7.4537   -8.3192    4.3228 H   0  0  0  0  0  0  0  0  0  0  0  0
    7.9234   -7.0478    3.2959 H   0  0  0  0  0  0  0  0  0  0  0  0
    5.8551   -9.8833    3.0316 H   0  0  0  0  0  0  0  0  0  0  0  0
    4.2694   -9.4195    3.3702 H   0  0  0  0  0  0  0  0  0  0  0  0
    5.4406   -9.2356    4.6117 H   0  0  0  0  0  0  0  0  0  0  0  0
    3.5384   -7.8509    4.8527 H   0  0  0  0  0  0  0  0  0  0  0  0
    2.5174   -6.4825    6.4439 H   0  0  0  0  0  0  0  0  0  0  0  0
    1.1542   -6.1300    5.4175 H   0  0  0  0  0  0  0  0  0  0  0  0
    1.8943   -8.8236    6.5983 H   0  0  0  0  0  0  0  0  0  0  0  0
    0.4149   -7.9194    6.8133 H   0  0  0  0  0  0  0  0  0  0  0  0
   -0.0111   -9.7973    5.2360 H   0  0  0  0  0  0  0  0  0  0  0  0
    2.5149   -9.8108    4.4855 H   0  0  0  0  0  0  0  0  0  0  0  0
    0.3948  -10.0667    2.6398 H   0  0  0  0  0  0  0  0  0  0  0  0
  1  2  2  0
  1 34  1  0
  1 35  1  0
  2 31  1  0
  2  3  1  0
  3  4  2  0
  5  3  1  6
  5 28  1  0
  5 32  1  0
  5  6  1  0
  6  7  2  0
  6  8  1  0
  8 10  1  0
  8 24  1  0
  8  9  1  6
  9 10  1  0
 10 11  1  6
 10 18  1  0
 11 12  2  0
 11 13  1  0
 13 14  1  0
 13 36  1  0
 13 37  1  0
 14 15  1  0
 15 16  1  0
 15 17  2  0
 16 38  1  0
 16 39  1  0
 16 40  1  0
 18 19  1  0
 18 20  2  0
 19 41  1  0
 19 42  1  0
 19 43  1  0
 20 21  1  0
 20 28  1  0
 21 25  1  0
 21 22  1  0
 21 44  1  1
 22 23  1  0
 22 45  1  0
 22 46  1  0
 23 24  1  0
 23 47  1  0
 23 48  1  0
 24 25  1  0
 24 49  1  6
 25 26  1  0
 25 27  1  0
 26 50  1  0
 26 51  1  0
 26 52  1  0
 27 53  1  0
 27 54  1  0
 27 55  1  0
 28 29  1  0
 28 56  1  1
 29 30  1  0
 29 57  1  0
 29 58  1  0
 30 31  1  0
 30 59  1  0
 30 60  1  0
 31 32  1  0
 31 61  1  1
 32 33  1  0
 32 62  1  1
 33 63  1  0
M  END
>  <i_m_ct_stereo_status>  (344) 
1

>  <s_m_source_file>  (344) 
/var/tmp/pbs.5102103.sched01/tmpr2ljwd0b/132iqlgd2x9.sdf

>  <i_m_source_file_index>  (344) 
1

>  <i_lp_mmshare_version>  (344) 
48012

>  <i_f3d_flags>  (344) 
0

>  <s_epik_input>  (344) 
Tz1DMUMoPVtDSDJdKVtDQEBIXShbQ0BIXTJbT0hdKVtDSDJdW0NIMl1bQ0BASF0oW0NAXTEyMylDNFtDQEBIXTVbQ0gyXVtDSDJdW0NAQEhdKEM1KFtDSDNdKVtDSDNdKVtDQEBdNihDMz1PKVtDQEBdKE82KShDPTRbQ0gzXSlDKD1PKVtDSDJdT0MoPU8pW0NIM10=

>  <s_epik_cmdline>  (344) 
J2VwaWtfcHl0aG9uJywgJy1waHQnLCAnMi4wJywgJy1waCcsICc3LjAnLCAnLXRuJywgJzgnLCAnLW1hJywgJzIwMCcsICctaW1hZScsICc8aW5maWxlLm1hZT4nLCAnLW9tYWUnLCAnPG91dGZpbGUubWFlPic=

>  <r_lp_tautomer_probability>  (344) 
1

>  <r_epik_Ionization_Penalty>  (344) 
0.000123682

>  <r_epik_Ionization_Penalty_Charging>  (344) 
0

>  <r_epik_Ionization_Penalty_Neutral>  (344) 
0.000123682

>  <r_epik_State_Penalty>  (344) 
-0

>  <r_epik_Charging_Adjusted_Penalty>  (344) 
0

>  <i_epik_Tot_Q>  (344) 
0

>  <i_epik_Tot_abs_Q>  (344) 
0

>  <s_epik_Chemistry_Notes>  (344) 
This compound has an ester and may undergo hydrolysis at high or low pH.

>  <s_lp_Force_Field>  (344) 
OPLS3e

>  <r_lp_Energy>  (344) 
166.846

>  <b_lp_Chiralities_Consistent>  (344) 
1

>  <s_lp_Variant>  (344) 
83:0-1

>  <s_i_glide_gridfile>  (344) 
pfpi4k_grid

>  <i_i_glide_lignum>  (344) 
1

>  <i_i_glide_rotatable_bonds>  (344) 
5

>  <r_i_docking_score>  (344) 
-2.90317

>  <r_i_glide_ligand_efficiency>  (344) 
-0.0879749

>  <r_i_glide_ligand_efficiency_sa>  (344) 
-0.282182

>  <r_i_glide_ligand_efficiency_ln>  (344) 
-0.64565

>  <r_i_glide_gscore>  (344) 
-2.90317

>  <r_i_glide_lipo>  (344) 
-0.329179

>  <r_i_glide_hbond>  (344) 
-0.00582954

>  <r_i_glide_metal>  (344) 
-0

>  <r_i_glide_rewards>  (344) 
-0.35916

>  <r_i_glide_evdw>  (344) 
-35.4283

>  <r_i_glide_ecoul>  (344) 
-4.5744

>  <r_i_glide_erotb>  (344) 
0.291629

>  <r_i_glide_esite>  (344) 
-0.0430556

>  <r_i_glide_emodel>  (344) 
-43.9768

>  <r_i_glide_energy>  (344) 
-40.0027

>  <r_i_glide_einternal>  (344) 
7.47166

>  <r_i_glide_intrahb_reward>  (344) 
-0

>  <i_i_glide_confnum>  (344) 
4

>  <i_i_glide_posenum>  (344) 
38

>  <r_i_glide_eff_state_penalty>  (344) 
0

>  <ligand_id>  (344) 
83

>  <original_smiles>  (344) 
C=C1C(=O)C23C(=O)C45OC4(C(=O)COC(C)=O)C(C)=C(C4CCC5C4(C)C)C2CCC1C3O

>  <smiles>  (344) 
[H]OC1([H])C2([H])C(=C([H])[H])C(=O)C13C(=O)C14OC1(C(=O)C([H])([H])OC(=O)C([H])([H])[H])C(C([H])([H])[H])=C(C3([H])C([H])([H])C2([H])[H])C1([H])C([H])([H])C([H])([H])C4([H])C1(C([H])([H])[H])C([H])([H])[H]

$$$$
83:0:1
     RDKit          3D

 63 68  0  0  1  0  0  0  0  0999 V2000
   -1.6586   -7.9462    3.6587 C   0  0  0  0  0  0  0  0  0  0  0  0
   -0.3375   -8.1745    3.6715 C   0  0  0  0  0  0  0  0  0  0  0  0
    0.6262   -7.6079    2.7156 C   0  0  0  0  0  0  0  0  0  0  0  0
    0.3493   -6.8645    1.7663 O   0  0  0  0  0  0  0  0  0  0  0  0
    2.0400   -8.1631    3.0409 C   0  0  1  0  0  0  0  0  0  0  0  0
    2.9637   -8.1426    1.7531 C   0  0  0  0  0  0  0  0  0  0  0  0
    2.9285   -9.0871    0.9672 O   0  0  0  0  0  0  0  0  0  0  0  0
    3.9724   -7.0061    1.4499 C   0  0  1  0  0  0  0  0  0  0  0  0
    3.3306   -6.2372    0.4856 O   0  0  0  0  0  0  0  0  0  0  0  0
    3.6661   -5.4551    1.6483 C   0  0  2  0  0  0  0  0  0  0  0  0
    4.2067   -4.1202    1.1076 C   0  0  0  0  0  0  0  0  0  0  0  0
    4.6098   -3.2263    1.8556 O   0  0  0  0  0  0  0  0  0  0  0  0
    4.1174   -3.8785   -0.4067 C   0  0  0  0  0  0  0  0  0  0  0  0
    4.7544   -2.6567   -0.7738 O   0  0  0  0  0  0  0  0  0  0  0  0
    4.4383   -1.9861   -1.9064 C   0  0  0  0  0  0  0  0  0  0  0  0
    3.2956   -2.5652   -2.7367 C   0  0  0  0  0  0  0  0  0  0  0  0
    5.0133   -0.9645   -2.2658 O   0  0  0  0  0  0  0  0  0  0  0  0
    3.1303   -5.4356    3.0375 C   0  0  0  0  0  0  0  0  0  0  0  0
    1.8810   -4.5936    3.2521 C   0  0  0  0  0  0  0  0  0  0  0  0
    3.6589   -6.3093    3.9496 C   0  0  0  0  0  0  0  0  0  0  0  0
    5.1967   -6.7336    3.9655 C   0  0  2  0  0  0  0  0  0  0  0  0
    6.1112   -5.6514    3.3205 C   0  0  0  0  0  0  0  0  0  0  0  0
    6.3992   -6.1489    1.8588 C   0  0  0  0  0  0  0  0  0  0  0  0
    5.4833   -7.3929    1.6876 C   0  0  1  0  0  0  0  0  0  0  0  0
    5.7027   -7.9868    3.1384 C   0  0  0  0  0  0  0  0  0  0  0  0
    7.2207   -8.2862    3.4725 C   0  0  0  0  0  0  0  0  0  0  0  0
    5.1837   -9.4243    3.4587 C   0  0  0  0  0  0  0  0  0  0  0  0
    2.7340   -7.4753    4.3102 C   0  0  1  0  0  0  0  0  0  0  0  0
    1.7587   -7.2465    5.4969 C   0  0  0  0  0  0  0  0  0  0  0  0
    0.9673   -8.5406    5.8003 C   0  0  0  0  0  0  0  0  0  0  0  0
    0.4147   -9.1859    4.5056 C   0  0  2  0  0  0  0  0  0  0  0  0
    1.5804   -9.5753    3.5775 C   0  0  1  0  0  0  0  0  0  0  0  0
    1.0729  -10.5052    2.6281 O   0  0  0  0  0  0  0  0  0  0  0  0
   -2.3006   -8.4757    4.3408 H   0  0  0  0  0  0  0  0  0  0  0  0
   -2.1193   -7.2605    2.9715 H   0  0  0  0  0  0  0  0  0  0  0  0
    4.5569   -4.7047   -0.9772 H   0  0  0  0  0  0  0  0  0  0  0  0
    3.0466   -3.8452   -0.6138 H   0  0  0  0  0  0  0  0  0  0  0  0
    3.5084   -3.5970   -3.0138 H   0  0  0  0  0  0  0  0  0  0  0  0
    3.1332   -1.9949   -3.6504 H   0  0  0  0  0  0  0  0  0  0  0  0
    2.3691   -2.5316   -2.1608 H   0  0  0  0  0  0  0  0  0  0  0  0
    1.1381   -4.7118    2.4703 H   0  0  0  0  0  0  0  0  0  0  0  0
    2.1703   -3.5446    3.2499 H   0  0  0  0  0  0  0  0  0  0  0  0
    1.4172   -4.7712    4.2137 H   0  0  0  0  0  0  0  0  0  0  0  0
    5.4576   -6.8608    5.0155 H   0  0  0  0  0  0  0  0  0  0  0  0
    5.6738   -4.6635    3.4108 H   0  0  0  0  0  0  0  0  0  0  0  0
    7.0477   -5.5498    3.8702 H   0  0  0  0  0  0  0  0  0  0  0  0
    6.3228   -5.4120    1.0711 H   0  0  0  0  0  0  0  0  0  0  0  0
    7.4462   -6.4344    1.7603 H   0  0  0  0  0  0  0  0  0  0  0  0
    5.8313   -8.0590    0.8958 H   0  0  0  0  0  0  0  0  0  0  0  0
    7.6650   -8.9454    2.7248 H   0  0  0  0  0  0  0  0  0  0  0  0
    7.3256   -8.7777    4.4401 H   0  0  0  0  0  0  0  0  0  0  0  0
    7.9011   -7.4437    3.5521 H   0  0  0  0  0  0  0  0  0  0  0  0
    5.7673  -10.1786    2.9286 H   0  0  0  0  0  0  0  0  0  0  0  0
    4.1801   -9.6851    3.1994 H   0  0  0  0  0  0  0  0  0  0  0  0
    5.2700   -9.6405    4.5233 H   0  0  0  0  0  0  0  0  0  0  0  0
    3.3996   -8.2140    4.7511 H   0  0  0  0  0  0  0  0  0  0  0  0
    2.3163   -6.9293    6.3805 H   0  0  0  0  0  0  0  0  0  0  0  0
    1.0331   -6.4604    5.2930 H   0  0  0  0  0  0  0  0  0  0  0  0
    1.6178   -9.2573    6.3062 H   0  0  0  0  0  0  0  0  0  0  0  0
    0.1538   -8.3227    6.4921 H   0  0  0  0  0  0  0  0  0  0  0  0
   -0.1891  -10.0598    4.7545 H   0  0  0  0  0  0  0  0  0  0  0  0
    2.3393  -10.0976    4.1571 H   0  0  0  0  0  0  0  0  0  0  0  0
    0.5323  -10.0578    1.9889 H   0  0  0  0  0  0  0  0  0  0  0  0
  1  2  2  0
  1 34  1  0
  1 35  1  0
  2 31  1  0
  2  3  1  0
  3  4  2  0
  5  3  1  6
  5 28  1  0
  5 32  1  0
  5  6  1  0
  6  7  2  0
  6  8  1  0
  8 10  1  0
  8 24  1  0
  8  9  1  6
  9 10  1  0
 10 11  1  6
 10 18  1  0
 11 12  2  0
 11 13  1  0
 13 14  1  0
 13 36  1  0
 13 37  1  0
 14 15  1  0
 15 16  1  0
 15 17  2  0
 16 38  1  0
 16 39  1  0
 16 40  1  0
 18 19  1  0
 18 20  2  0
 19 41  1  0
 19 42  1  0
 19 43  1  0
 20 21  1  0
 20 28  1  0
 21 25  1  0
 21 22  1  0
 21 44  1  1
 22 23  1  0
 22 45  1  0
 22 46  1  0
 23 24  1  0
 23 47  1  0
 23 48  1  0
 24 25  1  0
 24 49  1  6
 25 26  1  0
 25 27  1  0
 26 50  1  0
 26 51  1  0
 26 52  1  0
 27 53  1  0
 27 54  1  0
 27 55  1  0
 28 29  1  0
 28 56  1  1
 29 30  1  0
 29 57  1  0
 29 58  1  0
 30 31  1  0
 30 59  1  0
 30 60  1  0
 31 32  1  0
 31 61  1  1
 32 33  1  0
 32 62  1  1
 33 63  1  0
M  END
>  <i_m_ct_stereo_status>  (345) 
1

>  <s_m_source_file>  (345) 
/var/tmp/pbs.5102103.sched01/tmpr2ljwd0b/132iqlgd2x9.sdf

>  <i_m_source_file_index>  (345) 
1

>  <i_lp_mmshare_version>  (345) 
48012

>  <i_f3d_flags>  (345) 
0

>  <s_epik_input>  (345) 
Tz1DMUMoPVtDSDJdKVtDQEBIXShbQ0BIXTJbT0hdKVtDSDJdW0NIMl1bQ0BASF0oW0NAXTEyMylDNFtDQEBIXTVbQ0gyXVtDSDJdW0NAQEhdKEM1KFtDSDNdKVtDSDNdKVtDQEBdNihDMz1PKVtDQEBdKE82KShDPTRbQ0gzXSlDKD1PKVtDSDJdT0MoPU8pW0NIM10=

>  <s_epik_cmdline>  (345) 
J2VwaWtfcHl0aG9uJywgJy1waHQnLCAnMi4wJywgJy1waCcsICc3LjAnLCAnLXRuJywgJzgnLCAnLW1hJywgJzIwMCcsICctaW1hZScsICc8aW5maWxlLm1hZT4nLCAnLW9tYWUnLCAnPG91dGZpbGUubWFlPic=

>  <r_lp_tautomer_probability>  (345) 
1

>  <r_epik_Ionization_Penalty>  (345) 
0.000123682

>  <r_epik_Ionization_Penalty_Charging>  (345) 
0

>  <r_epik_Ionization_Penalty_Neutral>  (345) 
0.000123682

>  <r_epik_State_Penalty>  (345) 
-0

>  <r_epik_Charging_Adjusted_Penalty>  (345) 
0

>  <i_epik_Tot_Q>  (345) 
0

>  <i_epik_Tot_abs_Q>  (345) 
0

>  <s_epik_Chemistry_Notes>  (345) 
This compound has an ester and may undergo hydrolysis at high or low pH.

>  <s_lp_Force_Field>  (345) 
OPLS3e

>  <r_lp_Energy>  (345) 
166.846

>  <b_lp_Chiralities_Consistent>  (345) 
1

>  <s_lp_Variant>  (345) 
83:0-1

>  <s_i_glide_gridfile>  (345) 
pfpi4k_grid

>  <i_i_glide_lignum>  (345) 
1

>  <i_i_glide_rotatable_bonds>  (345) 
5

>  <r_i_docking_score>  (345) 
-2.76847

>  <r_i_glide_ligand_efficiency>  (345) 
-0.0838931

>  <r_i_glide_ligand_efficiency_sa>  (345) 
-0.26909

>  <r_i_glide_ligand_efficiency_ln>  (345) 
-0.615694

>  <r_i_glide_gscore>  (345) 
-2.76847

>  <r_i_glide_lipo>  (345) 
-0.247054

>  <r_i_glide_hbond>  (345) 
0

>  <r_i_glide_metal>  (345) 
-0

>  <r_i_glide_rewards>  (345) 
-0.337445

>  <r_i_glide_evdw>  (345) 
-35.3452

>  <r_i_glide_ecoul>  (345) 
-4.26346

>  <r_i_glide_erotb>  (345) 
0.291629

>  <r_i_glide_esite>  (345) 
-0.068822

>  <r_i_glide_emodel>  (345) 
-43.9704

>  <r_i_glide_energy>  (345) 
-39.6087

>  <r_i_glide_einternal>  (345) 
6.12127

>  <r_i_glide_intrahb_reward>  (345) 
-0

>  <i_i_glide_confnum>  (345) 
3

>  <i_i_glide_posenum>  (345) 
15

>  <r_i_glide_eff_state_penalty>  (345) 
0

>  <ligand_id>  (345) 
83

>  <original_smiles>  (345) 
C=C1C(=O)C23C(=O)C45OC4(C(=O)COC(C)=O)C(C)=C(C4CCC5C4(C)C)C2CCC1C3O

>  <smiles>  (345) 
[H]OC1([H])C2([H])C(=C([H])[H])C(=O)C13C(=O)C14OC1(C(=O)C([H])([H])OC(=O)C([H])([H])[H])C(C([H])([H])[H])=C(C3([H])C([H])([H])C2([H])[H])C1([H])C([H])([H])C([H])([H])C4([H])C1(C([H])([H])[H])C([H])([H])[H]

$$$$
83:0:2
     RDKit          3D

 63 68  0  0  1  0  0  0  0  0999 V2000
   -1.5007   -7.7445    3.7590 C   0  0  0  0  0  0  0  0  0  0  0  0
   -0.1953   -8.0535    3.7876 C   0  0  0  0  0  0  0  0  0  0  0  0
    0.7952   -7.6044    2.7996 C   0  0  0  0  0  0  0  0  0  0  0  0
    0.5551   -6.9041    1.8127 O   0  0  0  0  0  0  0  0  0  0  0  0
    2.1816   -8.2016    3.1674 C   0  0  1  0  0  0  0  0  0  0  0  0
    3.0932   -8.3167    1.8769 C   0  0  0  0  0  0  0  0  0  0  0  0
    2.9853   -9.3003    1.1470 O   0  0  0  0  0  0  0  0  0  0  0  0
    4.1621   -7.2597    1.5046 C   0  0  1  0  0  0  0  0  0  0  0  0
    3.5540   -6.5440    0.4799 O   0  0  0  0  0  0  0  0  0  0  0  0
    3.9215   -5.6858    1.5749 C   0  0  2  0  0  0  0  0  0  0  0  0
    4.5349   -4.4298    0.9355 C   0  0  0  0  0  0  0  0  0  0  0  0
    4.7514   -3.4195    1.6062 O   0  0  0  0  0  0  0  0  0  0  0  0
    4.8769   -4.4150   -0.5717 C   0  0  0  0  0  0  0  0  0  0  0  0
    4.3085   -3.2688   -1.2023 O   0  0  0  0  0  0  0  0  0  0  0  0
    5.0330   -2.1571   -1.4290 C   0  0  0  0  0  0  0  0  0  0  0  0
    4.2214   -1.0768   -2.1296 C   0  0  0  0  0  0  0  0  0  0  0  0
    6.2173   -1.9824   -1.1379 O   0  0  0  0  0  0  0  0  0  0  0  0
    3.3990   -5.5445    2.9680 C   0  0  0  0  0  0  0  0  0  0  0  0
    2.2017   -4.6192    3.1391 C   0  0  0  0  0  0  0  0  0  0  0  0
    3.8928   -6.3728    3.9410 C   0  0  0  0  0  0  0  0  0  0  0  0
    5.4084   -6.8652    3.9885 C   0  0  2  0  0  0  0  0  0  0  0  0
    6.3685   -5.8717    3.2658 C   0  0  0  0  0  0  0  0  0  0  0  0
    6.6347   -6.4943    1.8535 C   0  0  0  0  0  0  0  0  0  0  0  0
    5.6553   -7.6990    1.7673 C   0  0  1  0  0  0  0  0  0  0  0  0
    5.8496   -8.1990    3.2535 C   0  0  0  0  0  0  0  0  0  0  0  0
    7.3513   -8.5541    3.6087 C   0  0  0  0  0  0  0  0  0  0  0  0
    5.2569   -9.5828    3.6687 C   0  0  0  0  0  0  0  0  0  0  0  0
    2.9110   -7.4633    4.3847 C   0  0  1  0  0  0  0  0  0  0  0  0
    1.9497   -7.1067    5.5507 C   0  0  0  0  0  0  0  0  0  0  0  0
    1.0938   -8.3347    5.9404 C   0  0  0  0  0  0  0  0  0  0  0  0
    0.5035   -9.0432    4.6949 C   0  0  2  0  0  0  0  0  0  0  0  0
    1.6615   -9.5496    3.8044 C   0  0  1  0  0  0  0  0  0  0  0  0
    1.1075  -10.4965    2.8970 O   0  0  0  0  0  0  0  0  0  0  0  0
   -2.1788   -8.1745    4.4787 H   0  0  0  0  0  0  0  0  0  0  0  0
   -1.9174   -7.0785    3.0212 H   0  0  0  0  0  0  0  0  0  0  0  0
    5.9613   -4.4373   -0.6898 H   0  0  0  0  0  0  0  0  0  0  0  0
    4.5195   -5.2953   -1.1068 H   0  0  0  0  0  0  0  0  0  0  0  0
    3.8313   -1.4417   -3.0796 H   0  0  0  0  0  0  0  0  0  0  0  0
    4.8410   -0.2030   -2.3201 H   0  0  0  0  0  0  0  0  0  0  0  0
    3.3807   -0.7789   -1.5037 H   0  0  0  0  0  0  0  0  0  0  0  0
    1.4545   -4.7456    2.3625 H   0  0  0  0  0  0  0  0  0  0  0  0
    2.5446   -3.5870    3.0758 H   0  0  0  0  0  0  0  0  0  0  0  0
    1.7326   -4.7077    4.1119 H   0  0  0  0  0  0  0  0  0  0  0  0
    5.6725   -6.9302    5.0442 H   0  0  0  0  0  0  0  0  0  0  0  0
    5.9786   -4.8575    3.2455 H   0  0  0  0  0  0  0  0  0  0  0  0
    7.3064   -5.7669    3.8130 H   0  0  0  0  0  0  0  0  0  0  0  0
    6.6049   -5.8077    1.0207 H   0  0  0  0  0  0  0  0  0  0  0  0
    7.6673   -6.8348    1.7832 H   0  0  0  0  0  0  0  0  0  0  0  0
    5.9739   -8.4314    1.0254 H   0  0  0  0  0  0  0  0  0  0  0  0
    7.7584   -9.2853    2.9075 H   0  0  0  0  0  0  0  0  0  0  0  0
    7.4350   -8.9892    4.6065 H   0  0  0  0  0  0  0  0  0  0  0  0
    8.0737   -7.7421    3.6331 H   0  0  0  0  0  0  0  0  0  0  0  0
    5.7966  -10.4009    3.1895 H   0  0  0  0  0  0  0  0  0  0  0  0
    4.2423   -9.8064    3.4253 H   0  0  0  0  0  0  0  0  0  0  0  0
    5.3323   -9.7342    4.7461 H   0  0  0  0  0  0  0  0  0  0  0  0
    3.5401   -8.2018    4.8754 H   0  0  0  0  0  0  0  0  0  0  0  0
    2.5234   -6.7551    6.4080 H   0  0  0  0  0  0  0  0  0  0  0  0
    1.2657   -6.3004    5.2955 H   0  0  0  0  0  0  0  0  0  0  0  0
    1.7100   -9.0419    6.4975 H   0  0  0  0  0  0  0  0  0  0  0  0
    0.2972   -8.0243    6.6165 H   0  0  0  0  0  0  0  0  0  0  0  0
   -0.1644   -9.8532    4.9954 H   0  0  0  0  0  0  0  0  0  0  0  0
    2.3967  -10.0717    4.4210 H   0  0  0  0  0  0  0  0  0  0  0  0
    1.8107  -10.8803    2.3904 H   0  0  0  0  0  0  0  0  0  0  0  0
  1  2  2  0
  1 34  1  0
  1 35  1  0
  2 31  1  0
  2  3  1  0
  3  4  2  0
  5  3  1  6
  5 28  1  0
  5 32  1  0
  5  6  1  0
  6  7  2  0
  6  8  1  0
  8 10  1  0
  8 24  1  0
  8  9  1  6
  9 10  1  0
 10 11  1  6
 10 18  1  0
 11 12  2  0
 11 13  1  0
 13 14  1  0
 13 36  1  0
 13 37  1  0
 14 15  1  0
 15 16  1  0
 15 17  2  0
 16 38  1  0
 16 39  1  0
 16 40  1  0
 18 19  1  0
 18 20  2  0
 19 41  1  0
 19 42  1  0
 19 43  1  0
 20 21  1  0
 20 28  1  0
 21 25  1  0
 21 22  1  0
 21 44  1  1
 22 23  1  0
 22 45  1  0
 22 46  1  0
 23 24  1  0
 23 47  1  0
 23 48  1  0
 24 25  1  0
 24 49  1  6
 25 26  1  0
 25 27  1  0
 26 50  1  0
 26 51  1  0
 26 52  1  0
 27 53  1  0
 27 54  1  0
 27 55  1  0
 28 29  1  0
 28 56  1  1
 29 30  1  0
 29 57  1  0
 29 58  1  0
 30 31  1  0
 30 59  1  0
 30 60  1  0
 31 32  1  0
 31 61  1  1
 32 33  1  0
 32 62  1  1
 33 63  1  0
M  END
>  <i_m_ct_stereo_status>  (346) 
1

>  <s_m_source_file>  (346) 
/var/tmp/pbs.5102103.sched01/tmpr2ljwd0b/132iqlgd2x9.sdf

>  <i_m_source_file_index>  (346) 
1

>  <i_lp_mmshare_version>  (346) 
48012

>  <i_f3d_flags>  (346) 
0

>  <s_epik_input>  (346) 
Tz1DMUMoPVtDSDJdKVtDQEBIXShbQ0BIXTJbT0hdKVtDSDJdW0NIMl1bQ0BASF0oW0NAXTEyMylDNFtDQEBIXTVbQ0gyXVtDSDJdW0NAQEhdKEM1KFtDSDNdKVtDSDNdKVtDQEBdNihDMz1PKVtDQEBdKE82KShDPTRbQ0gzXSlDKD1PKVtDSDJdT0MoPU8pW0NIM10=

>  <s_epik_cmdline>  (346) 
J2VwaWtfcHl0aG9uJywgJy1waHQnLCAnMi4wJywgJy1waCcsICc3LjAnLCAnLXRuJywgJzgnLCAnLW1hJywgJzIwMCcsICctaW1hZScsICc8aW5maWxlLm1hZT4nLCAnLW9tYWUnLCAnPG91dGZpbGUubWFlPic=

>  <r_lp_tautomer_probability>  (346) 
1

>  <r_epik_Ionization_Penalty>  (346) 
0.000123682

>  <r_epik_Ionization_Penalty_Charging>  (346) 
0

>  <r_epik_Ionization_Penalty_Neutral>  (346) 
0.000123682

>  <r_epik_State_Penalty>  (346) 
-0

>  <r_epik_Charging_Adjusted_Penalty>  (346) 
0

>  <i_epik_Tot_Q>  (346) 
0

>  <i_epik_Tot_abs_Q>  (346) 
0

>  <s_epik_Chemistry_Notes>  (346) 
This compound has an ester and may undergo hydrolysis at high or low pH.

>  <s_lp_Force_Field>  (346) 
OPLS3e

>  <r_lp_Energy>  (346) 
166.846

>  <b_lp_Chiralities_Consistent>  (346) 
1

>  <s_lp_Variant>  (346) 
83:0-1

>  <s_i_glide_gridfile>  (346) 
pfpi4k_grid

>  <i_i_glide_lignum>  (346) 
1

>  <i_i_glide_rotatable_bonds>  (346) 
5

>  <r_i_docking_score>  (346) 
-2.67456

>  <r_i_glide_ligand_efficiency>  (346) 
-0.0810473

>  <r_i_glide_ligand_efficiency_sa>  (346) 
-0.259962

>  <r_i_glide_ligand_efficiency_ln>  (346) 
-0.594808

>  <r_i_glide_gscore>  (346) 
-2.67456

>  <r_i_glide_lipo>  (346) 
-0.27937

>  <r_i_glide_hbond>  (346) 
-0.116591

>  <r_i_glide_metal>  (346) 
-0

>  <r_i_glide_rewards>  (346) 
-0.35352

>  <r_i_glide_evdw>  (346) 
-36.1721

>  <r_i_glide_ecoul>  (346) 
-2.24716

>  <r_i_glide_erotb>  (346) 
0.291629

>  <r_i_glide_esite>  (346) 
-0.0710307

>  <r_i_glide_emodel>  (346) 
-44.5456

>  <r_i_glide_energy>  (346) 
-38.4192

>  <r_i_glide_einternal>  (346) 
2.25798

>  <r_i_glide_intrahb_reward>  (346) 
-0

>  <i_i_glide_confnum>  (346) 
3

>  <i_i_glide_posenum>  (346) 
39

>  <r_i_glide_eff_state_penalty>  (346) 
0

>  <ligand_id>  (346) 
83

>  <original_smiles>  (346) 
C=C1C(=O)C23C(=O)C45OC4(C(=O)COC(C)=O)C(C)=C(C4CCC5C4(C)C)C2CCC1C3O

>  <smiles>  (346) 
[H]OC1([H])C2([H])C(=C([H])[H])C(=O)C13C(=O)C14OC1(C(=O)C([H])([H])OC(=O)C([H])([H])[H])C(C([H])([H])[H])=C(C3([H])C([H])([H])C2([H])[H])C1([H])C([H])([H])C([H])([H])C4([H])C1(C([H])([H])[H])C([H])([H])[H]

$$$$
84:0:0
     RDKit          3D

 46 49  0  0  1  0  0  0  0  0999 V2000
   -0.1948   -0.0083   11.0178 C   0  0  0  0  0  0  0  0  0  0  0  0
    1.1515   -0.0801   10.2613 C   0  0  0  0  0  0  0  0  0  0  0  0
    0.9567   -0.2094    8.8476 O   0  0  0  0  0  0  0  0  0  0  0  0
    0.5103   -1.4081    8.3412 C   0  0  0  0  0  0  0  0  0  0  0  0
    0.2896   -2.5417    9.1641 C   0  0  0  0  0  0  0  0  0  0  0  0
   -0.2499   -3.7058    8.6108 C   0  0  0  0  0  0  0  0  0  0  0  0
   -0.5654   -3.7816    7.2535 C   0  0  0  0  0  0  0  0  0  0  0  0
   -1.0449   -4.9302    6.7407 N   0  0  0  0  0  0  0  0  0  0  0  0
   -0.2396   -5.7623    6.0901 C   0  0  0  0  0  0  0  0  0  0  0  0
   -0.5871   -6.4068    4.9258 C   0  0  0  0  0  0  0  0  0  0  0  0
    0.3855   -7.4317    4.3636 C   0  0  1  0  0  0  0  0  0  0  0  0
    1.7389   -7.0541    5.0515 C   0  0  0  0  0  0  0  0  0  0  0  0
    1.3706   -6.2889    6.6492 S   0  0  0  0  0  0  0  0  0  0  0  0
   -0.0867   -8.8523    4.8094 C   0  0  0  0  0  0  0  0  0  0  0  0
   -0.1930   -9.7711    3.6482 N   0  0  2  0  0  0  0  0  0  0  0  0
    1.1361   -9.8824    2.9717 C   0  0  0  0  0  0  0  0  0  0  0  0
    1.5588   -8.5035    2.3925 C   0  0  0  0  0  0  0  0  0  0  0  0
    0.5101   -7.4291    2.8011 C   0  0  1  0  0  0  0  0  0  0  0  0
   -0.8393   -7.8661    2.1713 C   0  0  0  0  0  0  0  0  0  0  0  0
   -1.2113   -9.2823    2.6904 C   0  0  0  0  0  0  0  0  0  0  0  0
   -0.2859   -2.6945    6.4089 C   0  0  0  0  0  0  0  0  0  0  0  0
    0.2421   -1.4935    6.9560 C   0  0  0  0  0  0  0  0  0  0  0  0
   -0.0345    0.0222   12.0948 H   0  0  0  0  0  0  0  0  0  0  0  0
   -0.8446   -0.8642   10.8277 H   0  0  0  0  0  0  0  0  0  0  0  0
   -0.7461    0.8915   10.7454 H   0  0  0  0  0  0  0  0  0  0  0  0
    1.7308    0.8234   10.4695 H   0  0  0  0  0  0  0  0  0  0  0  0
    1.7777   -0.9065   10.5974 H   0  0  0  0  0  0  0  0  0  0  0  0
    0.4794   -2.5224   10.2235 H   0  0  0  0  0  0  0  0  0  0  0  0
   -0.4274   -4.5372    9.2685 H   0  0  0  0  0  0  0  0  0  0  0  0
   -1.5640   -6.2321    4.4480 H   0  0  0  0  0  0  0  0  0  0  0  0
    2.4347   -7.8904    5.1281 H   0  0  0  0  0  0  0  0  0  0  0  0
    2.2202   -6.2855    4.4463 H   0  0  0  0  0  0  0  0  0  0  0  0
    0.5610   -9.2822    5.5716 H   0  0  0  0  0  0  0  0  0  0  0  0
   -1.0723   -8.8165    5.2756 H   0  0  0  0  0  0  0  0  0  0  0  0
    1.8766  -10.2407    3.6801 H   0  0  0  0  0  0  0  0  0  0  0  0
    1.0843  -10.6227    2.1803 H   0  0  0  0  0  0  0  0  0  0  0  0
    2.5528   -8.2281    2.7477 H   0  0  0  0  0  0  0  0  0  0  0  0
    1.6538   -8.5545    1.3052 H   0  0  0  0  0  0  0  0  0  0  0  0
    0.7939   -6.4443    2.4284 H   0  0  0  0  0  0  0  0  0  0  0  0
   -1.6396   -7.1613    2.4038 H   0  0  0  0  0  0  0  0  0  0  0  0
   -0.7621   -7.8717    1.0819 H   0  0  0  0  0  0  0  0  0  0  0  0
   -1.3121   -9.9867    1.8664 H   0  0  0  0  0  0  0  0  0  0  0  0
   -2.1841   -9.2646    3.1794 H   0  0  0  0  0  0  0  0  0  0  0  0
   -0.4834   -2.7746    5.3534 H   0  0  0  0  0  0  0  0  0  0  0  0
    0.3921   -0.6418    6.3053 H   0  0  0  0  0  0  0  0  0  0  0  0
   -0.4990  -10.6661    4.0185 H   0  0  0  0  0  0  0  0  0  0  0  0
  1  2  1  0
  1 23  1  0
  1 24  1  0
  1 25  1  0
  2  3  1  0
  2 26  1  0
  2 27  1  0
  3  4  1  0
  4 22  2  0
  4  5  1  0
  5  6  2  0
  5 28  1  0
  6  7  1  0
  6 29  1  0
  7  8  1  0
  7 21  2  0
  8  9  1  0
  9 13  1  0
  9 10  2  0
 10 11  1  0
 10 30  1  0
 11 18  1  0
 11 12  1  1
 11 14  1  0
 12 13  1  0
 12 31  1  0
 12 32  1  0
 14 15  1  0
 14 33  1  0
 14 34  1  0
 15 20  1  0
 15 16  1  0
 15 46  1  1
 16 17  1  0
 16 35  1  0
 16 36  1  0
 17 18  1  0
 17 37  1  0
 17 38  1  0
 18 19  1  0
 18 39  1  6
 19 20  1  0
 19 40  1  0
 19 41  1  0
 20 42  1  0
 20 43  1  0
 21 22  1  0
 21 44  1  0
 22 45  1  0
M  CHG  2   8  -1  15   1
M  END
>  <i_m_ct_stereo_status>  (347) 
1

>  <s_m_source_file>  (347) 
/var/tmp/pbs.5102103.sched01/tmpr2ljwd0b/132iqlgd2x9.sdf

>  <i_m_source_file_index>  (347) 
2

>  <i_lp_mmshare_version>  (347) 
48012

>  <i_f3d_flags>  (347) 
0

>  <s_epik_input>  (347) 
W0NIM11bQ0gyXU9jMVtjSF1bY0hdYyhbY0hdW2NIXTEpL049QyhTW0NIMl0yKS9bQ0gyXVtDQEBdMjNbQ0hdNFtDSDJdW0NIMl1OKFtDSDJdMylbQ0gyXVtDSDJdNA==

>  <s_epik_cmdline>  (347) 
J2VwaWtfcHl0aG9uJywgJy1waHQnLCAnMi4wJywgJy1waCcsICc3LjAnLCAnLXRuJywgJzgnLCAnLW1hJywgJzIwMCcsICctaW1hZScsICc8aW5maWxlLm1hZT4nLCAnLW9tYWUnLCAnPG91dGZpbGUubWFlPic=

>  <r_epik_Ionization_Penalty>  (347) 
0.00912152

>  <r_epik_Ionization_Penalty_Charging>  (347) 
0.000317008

>  <r_epik_Ionization_Penalty_Neutral>  (347) 
0.00880451

>  <r_epik_State_Penalty>  (347) 
0.00684326

>  <r_epik_Charging_Adjusted_Penalty>  (347) 
0.00716027

>  <i_epik_Tot_Q>  (347) 
0

>  <i_epik_Tot_abs_Q>  (347) 
2

>  <s_epik_Chemistry_Notes>  (347) 
This compound has an imine and may undergo hydrolysis.

>  <s_lp_Force_Field>  (347) 
OPLS3e

>  <r_lp_Energy>  (347) 
48.2136

>  <b_lp_Chiralities_Consistent>  (347) 
1

>  <s_lp_Variant>  (347) 
84:0-1

>  <s_i_glide_gridfile>  (347) 
pfpi4k_grid

>  <i_i_glide_lignum>  (347) 
2

>  <i_i_glide_rotatable_bonds>  (347) 
4

>  <r_i_docking_score>  (347) 
-3.03146

>  <r_i_glide_ligand_efficiency>  (347) 
-0.137794

>  <r_i_glide_ligand_efficiency_sa>  (347) 
-0.386103

>  <r_i_glide_ligand_efficiency_ln>  (347) 
-0.740999

>  <r_i_glide_gscore>  (347) 
-3.03146

>  <r_i_glide_lipo>  (347) 
-0.182215

>  <r_i_glide_hbond>  (347) 
-0.109198

>  <r_i_glide_metal>  (347) 
-0

>  <r_i_glide_rewards>  (347) 
-1.5514

>  <r_i_glide_evdw>  (347) 
-17.9636

>  <r_i_glide_ecoul>  (347) 
-5.25612

>  <r_i_glide_erotb>  (347) 
0.557687

>  <r_i_glide_esite>  (347) 
-0.0597383

>  <r_i_glide_emodel>  (347) 
-28.8583

>  <r_i_glide_energy>  (347) 
-23.2197

>  <r_i_glide_einternal>  (347) 
3.68951

>  <r_i_glide_intrahb_reward>  (347) 
-0

>  <i_i_glide_confnum>  (347) 
3

>  <i_i_glide_posenum>  (347) 
19

>  <r_i_glide_eff_state_penalty>  (347) 
0

>  <ligand_id>  (347) 
84

>  <original_smiles>  (347) 
CCOc1ccc(N=C2CC3(CS2)CN2CCC3CC2)cc1

>  <smiles>  (347) 
[H]C1=C([N-]c2c([H])c([H])c(OC([H])([H])C([H])([H])[H])c([H])c2[H])SC([H])([H])C12C1([H])C([H])([H])C([H])([H])[N+]([H])(C([H])([H])C1([H])[H])C2([H])[H]

$$$$
84:0:1
     RDKit          3D

 46 49  0  0  1  0  0  0  0  0999 V2000
   -0.1161    1.5438    1.8414 C   0  0  0  0  0  0  0  0  0  0  0  0
   -0.4966    2.2190    3.1715 C   0  0  0  0  0  0  0  0  0  0  0  0
   -1.3598    1.3915    3.9537 O   0  0  0  0  0  0  0  0  0  0  0  0
   -0.8617    0.2191    4.4691 C   0  0  0  0  0  0  0  0  0  0  0  0
    0.5077   -0.1248    4.3389 C   0  0  0  0  0  0  0  0  0  0  0  0
    0.9483   -1.3635    4.8072 C   0  0  0  0  0  0  0  0  0  0  0  0
    0.0815   -2.2632    5.4418 C   0  0  0  0  0  0  0  0  0  0  0  0
    0.5332   -3.4550    5.8723 N   0  0  0  0  0  0  0  0  0  0  0  0
    0.8381   -4.4176    4.9908 C   0  0  0  0  0  0  0  0  0  0  0  0
    0.2186   -5.6463    4.9576 C   0  0  0  0  0  0  0  0  0  0  0  0
    0.7922   -6.6780    3.9950 C   0  0  1  0  0  0  0  0  0  0  0  0
    1.5917   -5.8261    2.9642 C   0  0  0  0  0  0  0  0  0  0  0  0
    2.1576   -4.3259    3.7963 S   0  0  0  0  0  0  0  0  0  0  0  0
    1.7491   -7.6111    4.8046 C   0  0  0  0  0  0  0  0  0  0  0  0
    1.4014   -9.0404    4.5984 N   0  0  2  0  0  0  0  0  0  0  0  0
    1.4843   -9.3778    3.1510 C   0  0  0  0  0  0  0  0  0  0  0  0
    0.4442   -8.5537    2.3441 C   0  0  0  0  0  0  0  0  0  0  0  0
   -0.2815   -7.5644    3.2952 C   0  0  1  0  0  0  0  0  0  0  0  0
   -1.0052   -8.4271    4.3564 C   0  0  0  0  0  0  0  0  0  0  0  0
    0.0331   -9.3046    5.1102 C   0  0  0  0  0  0  0  0  0  0  0  0
   -1.2754   -1.9166    5.5947 C   0  0  0  0  0  0  0  0  0  0  0  0
   -1.7481   -0.6765    5.1001 C   0  0  0  0  0  0  0  0  0  0  0  0
    0.5573    2.1770    1.2644 H   0  0  0  0  0  0  0  0  0  0  0  0
   -1.0304    1.4047    1.2753 H   0  0  0  0  0  0  0  0  0  0  0  0
    0.3619    0.5743    1.9770 H   0  0  0  0  0  0  0  0  0  0  0  0
    0.3742    2.4691    3.7686 H   0  0  0  0  0  0  0  0  0  0  0  0
   -0.9893    3.1664    2.9760 H   0  0  0  0  0  0  0  0  0  0  0  0
    1.2051    0.5491    3.8659 H   0  0  0  0  0  0  0  0  0  0  0  0
    1.9824   -1.6108    4.6379 H   0  0  0  0  0  0  0  0  0  0  0  0
   -0.6104   -5.8888    5.6360 H   0  0  0  0  0  0  0  0  0  0  0  0
    2.4018   -6.3755    2.4784 H   0  0  0  0  0  0  0  0  0  0  0  0
    0.9102   -5.5065    2.1775 H   0  0  0  0  0  0  0  0  0  0  0  0
    2.7969   -7.4356    4.5524 H   0  0  0  0  0  0  0  0  0  0  0  0
    1.6878   -7.4046    5.8754 H   0  0  0  0  0  0  0  0  0  0  0  0
    2.4897   -9.1761    2.7883 H   0  0  0  0  0  0  0  0  0  0  0  0
    1.3175  -10.4420    3.0078 H   0  0  0  0  0  0  0  0  0  0  0  0
    0.9273   -8.0254    1.5213 H   0  0  0  0  0  0  0  0  0  0  0  0
   -0.2882   -9.2159    1.8762 H   0  0  0  0  0  0  0  0  0  0  0  0
   -1.0136   -6.9704    2.7508 H   0  0  0  0  0  0  0  0  0  0  0  0
   -1.5540   -7.7974    5.0574 H   0  0  0  0  0  0  0  0  0  0  0  0
   -1.7632   -9.0516    3.8827 H   0  0  0  0  0  0  0  0  0  0  0  0
   -0.1770  -10.3635    4.9904 H   0  0  0  0  0  0  0  0  0  0  0  0
   -0.0118   -9.1146    6.1796 H   0  0  0  0  0  0  0  0  0  0  0  0
   -1.9311   -2.6229    6.0736 H   0  0  0  0  0  0  0  0  0  0  0  0
   -2.8008   -0.4425    5.2015 H   0  0  0  0  0  0  0  0  0  0  0  0
    2.0563   -9.6152    5.1186 H   0  0  0  0  0  0  0  0  0  0  0  0
  1  2  1  0
  1 23  1  0
  1 24  1  0
  1 25  1  0
  2  3  1  0
  2 26  1  0
  2 27  1  0
  3  4  1  0
  4 22  2  0
  4  5  1  0
  5  6  2  0
  5 28  1  0
  6  7  1  0
  6 29  1  0
  7  8  1  0
  7 21  2  0
  8  9  1  0
  9 13  1  0
  9 10  2  0
 10 11  1  0
 10 30  1  0
 11 18  1  0
 11 12  1  6
 11 14  1  0
 12 13  1  0
 12 31  1  0
 12 32  1  0
 14 15  1  0
 14 33  1  0
 14 34  1  0
 15 20  1  0
 15 16  1  0
 15 46  1  1
 16 17  1  0
 16 35  1  0
 16 36  1  0
 17 18  1  0
 17 37  1  0
 17 38  1  0
 18 19  1  0
 18 39  1  6
 19 20  1  0
 19 40  1  0
 19 41  1  0
 20 42  1  0
 20 43  1  0
 21 22  1  0
 21 44  1  0
 22 45  1  0
M  CHG  2   8  -1  15   1
M  END
>  <i_m_ct_stereo_status>  (348) 
1

>  <s_m_source_file>  (348) 
/var/tmp/pbs.5102103.sched01/tmpr2ljwd0b/132iqlgd2x9.sdf

>  <i_m_source_file_index>  (348) 
2

>  <i_lp_mmshare_version>  (348) 
48012

>  <i_f3d_flags>  (348) 
0

>  <s_epik_input>  (348) 
W0NIM11bQ0gyXU9jMVtjSF1bY0hdYyhbY0hdW2NIXTEpL049QyhTW0NIMl0yKS9bQ0gyXVtDQEBdMjNbQ0hdNFtDSDJdW0NIMl1OKFtDSDJdMylbQ0gyXVtDSDJdNA==

>  <s_epik_cmdline>  (348) 
J2VwaWtfcHl0aG9uJywgJy1waHQnLCAnMi4wJywgJy1waCcsICc3LjAnLCAnLXRuJywgJzgnLCAnLW1hJywgJzIwMCcsICctaW1hZScsICc8aW5maWxlLm1hZT4nLCAnLW9tYWUnLCAnPG91dGZpbGUubWFlPic=

>  <r_epik_Ionization_Penalty>  (348) 
0.00912152

>  <r_epik_Ionization_Penalty_Charging>  (348) 
0.000317008

>  <r_epik_Ionization_Penalty_Neutral>  (348) 
0.00880451

>  <r_epik_State_Penalty>  (348) 
0.00684326

>  <r_epik_Charging_Adjusted_Penalty>  (348) 
0.00716027

>  <i_epik_Tot_Q>  (348) 
0

>  <i_epik_Tot_abs_Q>  (348) 
2

>  <s_epik_Chemistry_Notes>  (348) 
This compound has an imine and may undergo hydrolysis.

>  <s_lp_Force_Field>  (348) 
OPLS3e

>  <r_lp_Energy>  (348) 
48.2136

>  <b_lp_Chiralities_Consistent>  (348) 
1

>  <s_lp_Variant>  (348) 
84:0-1

>  <s_i_glide_gridfile>  (348) 
pfpi4k_grid

>  <i_i_glide_lignum>  (348) 
2

>  <i_i_glide_rotatable_bonds>  (348) 
4

>  <r_i_docking_score>  (348) 
-1.95001

>  <r_i_glide_ligand_efficiency>  (348) 
-0.0886366

>  <r_i_glide_ligand_efficiency_sa>  (348) 
-0.248363

>  <r_i_glide_ligand_efficiency_ln>  (348) 
-0.476652

>  <r_i_glide_gscore>  (348) 
-1.95001

>  <r_i_glide_lipo>  (348) 
-7.01839e-05

>  <r_i_glide_hbond>  (348) 
0

>  <r_i_glide_metal>  (348) 
-0

>  <r_i_glide_rewards>  (348) 
-1.2514

>  <r_i_glide_evdw>  (348) 
-20.0542

>  <r_i_glide_ecoul>  (348) 
-1.55822

>  <r_i_glide_erotb>  (348) 
0.557687

>  <r_i_glide_esite>  (348) 
-0.0197835

>  <r_i_glide_emodel>  (348) 
-24.0231

>  <r_i_glide_energy>  (348) 
-21.6124

>  <r_i_glide_einternal>  (348) 
3.95566

>  <r_i_glide_intrahb_reward>  (348) 
-0

>  <i_i_glide_confnum>  (348) 
3

>  <i_i_glide_posenum>  (348) 
6

>  <r_i_glide_eff_state_penalty>  (348) 
0

>  <ligand_id>  (348) 
84

>  <original_smiles>  (348) 
CCOc1ccc(N=C2CC3(CS2)CN2CCC3CC2)cc1

>  <smiles>  (348) 
[H]C1=C([N-]c2c([H])c([H])c(OC([H])([H])C([H])([H])[H])c([H])c2[H])SC([H])([H])C12C1([H])C([H])([H])C([H])([H])[N+]([H])(C([H])([H])C1([H])[H])C2([H])[H]

$$$$
84:0:2
     RDKit          3D

 46 49  0  0  1  0  0  0  0  0999 V2000
   -2.3547    3.1503    3.2097 C   0  0  0  0  0  0  0  0  0  0  0  0
   -1.3367    2.0057    3.2516 C   0  0  0  0  0  0  0  0  0  0  0  0
   -1.7652    1.0718    4.2419 O   0  0  0  0  0  0  0  0  0  0  0  0
   -0.9958   -0.0449    4.4816 C   0  0  0  0  0  0  0  0  0  0  0  0
   -1.5719   -1.0414    5.2984 C   0  0  0  0  0  0  0  0  0  0  0  0
   -0.8604   -2.2056    5.6293 C   0  0  0  0  0  0  0  0  0  0  0  0
    0.4484   -2.4023    5.1461 C   0  0  0  0  0  0  0  0  0  0  0  0
    1.1189   -3.4866    5.5060 N   0  0  0  0  0  0  0  0  0  0  0  0
    1.1722   -4.5183    4.6355 C   0  0  0  0  0  0  0  0  0  0  0  0
    0.4682   -5.6966    4.7030 C   0  0  0  0  0  0  0  0  0  0  0  0
    0.8284   -6.8021    3.7015 C   0  0  1  0  0  0  0  0  0  0  0  0
    1.5117   -6.0106    2.5649 C   0  0  0  0  0  0  0  0  0  0  0  0
    2.2621   -4.5264    3.2783 S   0  0  0  0  0  0  0  0  0  0  0  0
    1.8347   -7.7881    4.3833 C   0  0  0  0  0  0  0  0  0  0  0  0
    1.3831   -9.1971    4.2255 N   0  0  2  0  0  0  0  0  0  0  0  0
    1.2555   -9.5423    2.7809 C   0  0  0  0  0  0  0  0  0  0  0  0
    0.1504   -8.6636    2.1321 C   0  0  0  0  0  0  0  0  0  0  0  0
   -0.3866   -7.6406    3.1744 C   0  0  1  0  0  0  0  0  0  0  0  0
   -0.9983   -8.4754    4.3244 C   0  0  0  0  0  0  0  0  0  0  0  0
    0.0911   -9.4038    4.9313 C   0  0  0  0  0  0  0  0  0  0  0  0
    1.0233   -1.4138    4.3068 C   0  0  0  0  0  0  0  0  0  0  0  0
    0.3147   -0.2482    3.9738 C   0  0  0  0  0  0  0  0  0  0  0  0
   -2.0577    3.9026    2.4780 H   0  0  0  0  0  0  0  0  0  0  0  0
   -2.4284    3.6370    4.1831 H   0  0  0  0  0  0  0  0  0  0  0  0
   -3.3485    2.7887    2.9408 H   0  0  0  0  0  0  0  0  0  0  0  0
   -1.2714    1.5257    2.2740 H   0  0  0  0  0  0  0  0  0  0  0  0
   -0.3612    2.4153    3.5052 H   0  0  0  0  0  0  0  0  0  0  0  0
   -2.5693   -0.9011    5.6739 H   0  0  0  0  0  0  0  0  0  0  0  0
   -1.2904   -2.9609    6.2753 H   0  0  0  0  0  0  0  0  0  0  0  0
   -0.2431   -5.8473    5.4872 H   0  0  0  0  0  0  0  0  0  0  0  0
    2.2165   -6.5984    1.9736 H   0  0  0  0  0  0  0  0  0  0  0  0
    0.7396   -5.6596    1.8849 H   0  0  0  0  0  0  0  0  0  0  0  0
    2.8496   -7.6645    3.9875 H   0  0  0  0  0  0  0  0  0  0  0  0
    1.9385   -7.5987    5.4544 H   0  0  0  0  0  0  0  0  0  0  0  0
    2.2160   -9.3875    2.2822 H   0  0  0  0  0  0  0  0  0  0  0  0
    1.0179  -10.6009    2.6696 H   0  0  0  0  0  0  0  0  0  0  0  0
    0.5474   -8.1590    1.2542 H   0  0  0  0  0  0  0  0  0  0  0  0
   -0.6687   -9.2838    1.7569 H   0  0  0  0  0  0  0  0  0  0  0  0
   -1.1555   -7.0181    2.7254 H   0  0  0  0  0  0  0  0  0  0  0  0
   -1.4137   -7.8252    5.0951 H   0  0  0  0  0  0  0  0  0  0  0  0
   -1.8482   -9.0559    3.9535 H   0  0  0  0  0  0  0  0  0  0  0  0
   -0.1827  -10.4592    4.8354 H   0  0  0  0  0  0  0  0  0  0  0  0
    0.2031   -9.2123    5.9976 H   0  0  0  0  0  0  0  0  0  0  0  0
    2.0418   -1.5456    3.9564 H   0  0  0  0  0  0  0  0  0  0  0  0
    0.8012    0.4881    3.3569 H   0  0  0  0  0  0  0  0  0  0  0  0
    2.0682   -9.7993    4.6578 H   0  0  0  0  0  0  0  0  0  0  0  0
  1  2  1  0
  1 23  1  0
  1 24  1  0
  1 25  1  0
  2  3  1  0
  2 26  1  0
  2 27  1  0
  3  4  1  0
  4 22  2  0
  4  5  1  0
  5  6  2  0
  5 28  1  0
  6  7  1  0
  6 29  1  0
  7  8  1  0
  7 21  2  0
  8  9  1  0
  9 13  1  0
  9 10  2  0
 10 11  1  0
 10 30  1  0
 11 18  1  0
 11 12  1  6
 11 14  1  0
 12 13  1  0
 12 31  1  0
 12 32  1  0
 14 15  1  0
 14 33  1  0
 14 34  1  0
 15 20  1  0
 15 16  1  0
 15 46  1  1
 16 17  1  0
 16 35  1  0
 16 36  1  0
 17 18  1  0
 17 37  1  0
 17 38  1  0
 18 19  1  0
 18 39  1  6
 19 20  1  0
 19 40  1  0
 19 41  1  0
 20 42  1  0
 20 43  1  0
 21 22  1  0
 21 44  1  0
 22 45  1  0
M  CHG  2   8  -1  15   1
M  END
>  <i_m_ct_stereo_status>  (349) 
1

>  <s_m_source_file>  (349) 
/var/tmp/pbs.5102103.sched01/tmpr2ljwd0b/132iqlgd2x9.sdf

>  <i_m_source_file_index>  (349) 
2

>  <i_lp_mmshare_version>  (349) 
48012

>  <i_f3d_flags>  (349) 
0

>  <s_epik_input>  (349) 
W0NIM11bQ0gyXU9jMVtjSF1bY0hdYyhbY0hdW2NIXTEpL049QyhTW0NIMl0yKS9bQ0gyXVtDQEBdMjNbQ0hdNFtDSDJdW0NIMl1OKFtDSDJdMylbQ0gyXVtDSDJdNA==

>  <s_epik_cmdline>  (349) 
J2VwaWtfcHl0aG9uJywgJy1waHQnLCAnMi4wJywgJy1waCcsICc3LjAnLCAnLXRuJywgJzgnLCAnLW1hJywgJzIwMCcsICctaW1hZScsICc8aW5maWxlLm1hZT4nLCAnLW9tYWUnLCAnPG91dGZpbGUubWFlPic=

>  <r_epik_Ionization_Penalty>  (349) 
0.00912152

>  <r_epik_Ionization_Penalty_Charging>  (349) 
0.000317008

>  <r_epik_Ionization_Penalty_Neutral>  (349) 
0.00880451

>  <r_epik_State_Penalty>  (349) 
0.00684326

>  <r_epik_Charging_Adjusted_Penalty>  (349) 
0.00716027

>  <i_epik_Tot_Q>  (349) 
0

>  <i_epik_Tot_abs_Q>  (349) 
2

>  <s_epik_Chemistry_Notes>  (349) 
This compound has an imine and may undergo hydrolysis.

>  <s_lp_Force_Field>  (349) 
OPLS3e

>  <r_lp_Energy>  (349) 
48.2136

>  <b_lp_Chiralities_Consistent>  (349) 
1

>  <s_lp_Variant>  (349) 
84:0-1

>  <s_i_glide_gridfile>  (349) 
pfpi4k_grid

>  <i_i_glide_lignum>  (349) 
2

>  <i_i_glide_rotatable_bonds>  (349) 
4

>  <r_i_docking_score>  (349) 
-1.89351

>  <r_i_glide_ligand_efficiency>  (349) 
-0.0860686

>  <r_i_glide_ligand_efficiency_sa>  (349) 
-0.241168

>  <r_i_glide_ligand_efficiency_ln>  (349) 
-0.462843

>  <r_i_glide_gscore>  (349) 
-1.89351

>  <r_i_glide_lipo>  (349) 
-0.0605358

>  <r_i_glide_hbond>  (349) 
0

>  <r_i_glide_metal>  (349) 
-0

>  <r_i_glide_rewards>  (349) 
-1.2514

>  <r_i_glide_evdw>  (349) 
-21.1242

>  <r_i_glide_ecoul>  (349) 
-0.43424

>  <r_i_glide_erotb>  (349) 
0.557687

>  <r_i_glide_esite>  (349) 
-0.0179175

>  <r_i_glide_emodel>  (349) 
-25.6834

>  <r_i_glide_energy>  (349) 
-21.5585

>  <r_i_glide_einternal>  (349) 
0.944861

>  <r_i_glide_intrahb_reward>  (349) 
-0

>  <i_i_glide_confnum>  (349) 
5

>  <i_i_glide_posenum>  (349) 
10

>  <r_i_glide_eff_state_penalty>  (349) 
0

>  <ligand_id>  (349) 
84

>  <original_smiles>  (349) 
CCOc1ccc(N=C2CC3(CS2)CN2CCC3CC2)cc1

>  <smiles>  (349) 
[H]C1=C([N-]c2c([H])c([H])c(OC([H])([H])C([H])([H])[H])c([H])c2[H])SC([H])([H])C12C1([H])C([H])([H])C([H])([H])[N+]([H])(C([H])([H])C1([H])[H])C2([H])[H]

$$$$
84:1:0
     RDKit          3D

 47 50  0  0  1  0  0  0  0  0999 V2000
    4.8481   -0.7053    0.4833 C   0  0  0  0  0  0  0  0  0  0  0  0
    3.4804   -1.2344    0.9462 C   0  0  0  0  0  0  0  0  0  0  0  0
    3.2564   -2.5421    0.4227 O   0  0  0  0  0  0  0  0  0  0  0  0
    3.8726   -3.6244    1.0080 C   0  0  0  0  0  0  0  0  0  0  0  0
    3.6318   -4.8811    0.4280 C   0  0  0  0  0  0  0  0  0  0  0  0
    4.1992   -6.0454    0.9810 C   0  0  0  0  0  0  0  0  0  0  0  0
    5.0270   -5.9540    2.1189 C   0  0  0  0  0  0  0  0  0  0  0  0
    5.6171   -7.0938    2.6832 N   0  0  0  0  0  0  0  0  0  0  0  0
    4.9453   -8.2673    3.0314 C   0  0  0  0  0  0  0  0  0  0  0  0
    3.6787   -8.4233    3.3977 C   0  0  0  0  0  0  0  0  0  0  0  0
    3.2480   -9.8505    3.7231 C   0  0  1  0  0  0  0  0  0  0  0  0
    4.3729  -10.7339    3.1134 C   0  0  0  0  0  0  0  0  0  0  0  0
    5.8949   -9.7624    3.0301 S   0  0  0  0  0  0  0  0  0  0  0  0
    3.1471  -10.1080    5.2639 C   0  0  0  0  0  0  0  0  0  0  0  0
    1.8095  -10.6519    5.6184 N   0  0  2  0  0  0  0  0  0  0  0  0
    1.5296  -11.8963    4.8607 C   0  0  0  0  0  0  0  0  0  0  0  0
    1.5098  -11.6170    3.3363 C   0  0  0  0  0  0  0  0  0  0  0  0
    1.8594  -10.1357    3.0852 C   0  0  1  0  0  0  0  0  0  0  0  0
    0.7758   -9.2820    3.8032 C   0  0  0  0  0  0  0  0  0  0  0  0
    0.7764   -9.6316    5.3191 C   0  0  0  0  0  0  0  0  0  0  0  0
    5.2941   -4.6970    2.6830 C   0  0  0  0  0  0  0  0  0  0  0  0
    4.7157   -3.5385    2.1423 C   0  0  0  0  0  0  0  0  0  0  0  0
    5.0252    0.2989    0.8683 H   0  0  0  0  0  0  0  0  0  0  0  0
    4.8975   -0.6652   -0.6055 H   0  0  0  0  0  0  0  0  0  0  0  0
    5.6688   -1.3372    0.8236 H   0  0  0  0  0  0  0  0  0  0  0  0
    3.3845   -1.2199    2.0333 H   0  0  0  0  0  0  0  0  0  0  0  0
    2.6943   -0.5763    0.5761 H   0  0  0  0  0  0  0  0  0  0  0  0
    3.0176   -4.9490   -0.4606 H   0  0  0  0  0  0  0  0  0  0  0  0
    4.0115   -6.9998    0.5104 H   0  0  0  0  0  0  0  0  0  0  0  0
    2.9322   -7.6088    3.4444 H   0  0  0  0  0  0  0  0  0  0  0  0
    4.5096  -11.6877    3.6238 H   0  0  0  0  0  0  0  0  0  0  0  0
    4.1102  -10.9827    2.0905 H   0  0  0  0  0  0  0  0  0  0  0  0
    3.9134  -10.8043    5.6070 H   0  0  0  0  0  0  0  0  0  0  0  0
    3.3339   -9.1861    5.8234 H   0  0  0  0  0  0  0  0  0  0  0  0
    2.2800  -12.6506    5.1098 H   0  0  0  0  0  0  0  0  0  0  0  0
    0.5684  -12.2978    5.1797 H   0  0  0  0  0  0  0  0  0  0  0  0
    2.2228  -12.2677    2.8331 H   0  0  0  0  0  0  0  0  0  0  0  0
    0.5366  -11.8646    2.9134 H   0  0  0  0  0  0  0  0  0  0  0  0
    1.8648   -9.9297    2.0127 H   0  0  0  0  0  0  0  0  0  0  0  0
    0.9714   -8.2145    3.6704 H   0  0  0  0  0  0  0  0  0  0  0  0
   -0.2081   -9.4797    3.3709 H   0  0  0  0  0  0  0  0  0  0  0  0
   -0.1893  -10.0228    5.6270 H   0  0  0  0  0  0  0  0  0  0  0  0
    0.9482   -8.7377    5.9223 H   0  0  0  0  0  0  0  0  0  0  0  0
    5.9315   -4.6270    3.5499 H   0  0  0  0  0  0  0  0  0  0  0  0
    4.9416   -2.6051    2.6289 H   0  0  0  0  0  0  0  0  0  0  0  0
    1.7876  -10.9083    6.6060 H   0  0  0  0  0  0  0  0  0  0  0  0
    6.6190   -7.1264    2.7116 H   0  0  0  0  0  0  0  0  0  0  0  0
  1  2  1  0
  1 23  1  0
  1 24  1  0
  1 25  1  0
  2  3  1  0
  2 26  1  0
  2 27  1  0
  3  4  1  0
  4 22  2  0
  4  5  1  0
  5  6  2  0
  5 28  1  0
  6  7  1  0
  6 29  1  0
  7  8  1  0
  7 21  2  0
  8  9  1  0
  8 47  1  0
  9 13  1  0
  9 10  2  0
 10 11  1  0
 10 30  1  0
 11 18  1  0
 11 12  1  6
 11 14  1  0
 12 13  1  0
 12 31  1  0
 12 32  1  0
 14 15  1  0
 14 33  1  0
 14 34  1  0
 15 20  1  0
 15 16  1  0
 15 46  1  1
 16 17  1  0
 16 35  1  0
 16 36  1  0
 17 18  1  0
 17 37  1  0
 17 38  1  0
 18 19  1  0
 18 39  1  6
 19 20  1  0
 19 40  1  0
 19 41  1  0
 20 42  1  0
 20 43  1  0
 21 22  1  0
 21 44  1  0
 22 45  1  0
M  CHG  1  15   1
M  END
>  <i_m_ct_stereo_status>  (350) 
1

>  <s_m_source_file>  (350) 
/var/tmp/pbs.5102103.sched01/tmpr2ljwd0b/132iqlgd2x9.sdf

>  <i_m_source_file_index>  (350) 
3

>  <i_lp_mmshare_version>  (350) 
48012

>  <i_f3d_flags>  (350) 
0

>  <s_epik_input>  (350) 
W0NIM11bQ0gyXU9jMVtjSF1bY0hdYyhbY0hdW2NIXTEpL049QyhTW0NIMl0yKS9bQ0gyXVtDQEBdMjNbQ0hdNFtDSDJdW0NIMl1OKFtDSDJdMylbQ0gyXVtDSDJdNA==

>  <s_epik_cmdline>  (350) 
J2VwaWtfcHl0aG9uJywgJy1waHQnLCAnMi4wJywgJy1waCcsICc3LjAnLCAnLXRuJywgJzgnLCAnLW1hJywgJzIwMCcsICctaW1hZScsICc8aW5maWxlLm1hZT4nLCAnLW9tYWUnLCAnPG91dGZpbGUubWFlPic=

>  <r_epik_Ionization_Penalty>  (350) 
2.49869

>  <r_epik_Ionization_Penalty_Charging>  (350) 
2.49869

>  <r_epik_Ionization_Penalty_Neutral>  (350) 
4.14211e-12

>  <r_epik_State_Penalty>  (350) 
2.66324

>  <r_epik_Charging_Adjusted_Penalty>  (350) 
5.16192

>  <i_epik_Tot_Q>  (350) 
1

>  <i_epik_Tot_abs_Q>  (350) 
1

>  <s_epik_Chemistry_Notes>  (350) 
This compound has an imine and may undergo hydrolysis.

>  <s_lp_Force_Field>  (350) 
OPLS3e

>  <r_lp_Energy>  (350) 
42.5955

>  <b_lp_Chiralities_Consistent>  (350) 
1

>  <s_lp_Variant>  (350) 
84:0-2

>  <s_i_glide_gridfile>  (350) 
pfpi4k_grid

>  <i_i_glide_lignum>  (350) 
3

>  <i_i_glide_rotatable_bonds>  (350) 
4

>  <r_i_docking_score>  (350) 
-3.21011

>  <r_i_glide_ligand_efficiency>  (350) 
-0.145914

>  <r_i_glide_ligand_efficiency_sa>  (350) 
-0.408857

>  <r_i_glide_ligand_efficiency_ln>  (350) 
-0.784668

>  <r_i_glide_gscore>  (350) 
-3.21011

>  <r_i_glide_lipo>  (350) 
-0.431796

>  <r_i_glide_hbond>  (350) 
-0.1539

>  <r_i_glide_metal>  (350) 
-0

>  <r_i_glide_rewards>  (350) 
-1.24452

>  <r_i_glide_evdw>  (350) 
-19.0086

>  <r_i_glide_ecoul>  (350) 
-5.99555

>  <r_i_glide_erotb>  (350) 
0.554574

>  <r_i_glide_esite>  (350) 
-0.0847045

>  <r_i_glide_emodel>  (350) 
-28.9825

>  <r_i_glide_energy>  (350) 
-25.0041

>  <r_i_glide_einternal>  (350) 
6.7824

>  <r_i_glide_intrahb_reward>  (350) 
-0

>  <i_i_glide_confnum>  (350) 
3

>  <i_i_glide_posenum>  (350) 
33

>  <r_i_glide_eff_state_penalty>  (350) 
0

>  <ligand_id>  (350) 
84

>  <original_smiles>  (350) 
CCOc1ccc(N=C2CC3(CS2)CN2CCC3CC2)cc1

>  <smiles>  (350) 
[H]C1=C(N([H])c2c([H])c([H])c(OC([H])([H])C([H])([H])[H])c([H])c2[H])SC([H])([H])C12C1([H])C([H])([H])C([H])([H])[N+]([H])(C([H])([H])C1([H])[H])C2([H])[H]

$$$$
84:1:1
     RDKit          3D

 47 50  0  0  1  0  0  0  0  0999 V2000
    3.0086    0.6769    2.6053 C   0  0  0  0  0  0  0  0  0  0  0  0
    1.5830    0.1319    2.4143 C   0  0  0  0  0  0  0  0  0  0  0  0
    1.4057   -1.0397    3.2087 O   0  0  0  0  0  0  0  0  0  0  0  0
    1.9604   -2.2246    2.7844 C   0  0  0  0  0  0  0  0  0  0  0  0
    2.5474   -2.3934    1.5069 C   0  0  0  0  0  0  0  0  0  0  0  0
    3.0246   -3.6590    1.1087 C   0  0  0  0  0  0  0  0  0  0  0  0
    2.9796   -4.7549    2.0004 C   0  0  0  0  0  0  0  0  0  0  0  0
    3.4908   -5.9719    1.5113 N   0  0  0  0  0  0  0  0  0  0  0  0
    3.3059   -7.2489    1.9697 C   0  0  0  0  0  0  0  0  0  0  0  0
    2.4021   -7.6729    2.8678 C   0  0  0  0  0  0  0  0  0  0  0  0
    2.3369   -9.1603    3.1051 C   0  0  1  0  0  0  0  0  0  0  0  0
    3.0548   -9.7737    1.8517 C   0  0  0  0  0  0  0  0  0  0  0  0
    4.2084   -8.5501    1.1693 S   0  0  0  0  0  0  0  0  0  0  0  0
    3.0659   -9.5477    4.4441 C   0  0  0  0  0  0  0  0  0  0  0  0
    2.1622  -10.3349    5.3373 N   0  0  2  0  0  0  0  0  0  0  0  0
    1.6734  -11.5498    4.6221 C   0  0  0  0  0  0  0  0  0  0  0  0
    0.8511  -11.1238    3.4047 C   0  0  0  0  0  0  0  0  0  0  0  0
    0.8465   -9.5989    3.2385 C   0  0  1  0  0  0  0  0  0  0  0  0
    0.2016   -9.0103    4.5401 C   0  0  0  0  0  0  0  0  0  0  0  0
    1.0099   -9.4904    5.7761 C   0  0  0  0  0  0  0  0  0  0  0  0
    2.4748   -4.5593    3.3152 C   0  0  0  0  0  0  0  0  0  0  0  0
    1.9310   -3.3228    3.6875 C   0  0  0  0  0  0  0  0  0  0  0  0
    3.1860    1.5087    1.9328 H   0  0  0  0  0  0  0  0  0  0  0  0
    3.7816   -0.0622    2.4058 H   0  0  0  0  0  0  0  0  0  0  0  0
    3.1641    1.0295    3.6221 H   0  0  0  0  0  0  0  0  0  0  0  0
    0.8537    0.8821    2.7513 H   0  0  0  0  0  0  0  0  0  0  0  0
    1.3535   -0.0935    1.3758 H   0  0  0  0  0  0  0  0  0  0  0  0
    2.6239   -1.6053    0.7756 H   0  0  0  0  0  0  0  0  0  0  0  0
    3.4171   -3.7916    0.1225 H   0  0  0  0  0  0  0  0  0  0  0  0
    1.6429   -7.0300    3.3034 H   0  0  0  0  0  0  0  0  0  0  0  0
    3.5547  -10.7093    2.0565 H   0  0  0  0  0  0  0  0  0  0  0  0
    2.3079   -9.9523    1.0731 H   0  0  0  0  0  0  0  0  0  0  0  0
    3.9711  -10.1199    4.2412 H   0  0  0  0  0  0  0  0  0  0  0  0
    3.4105   -8.6544    4.9582 H   0  0  0  0  0  0  0  0  0  0  0  0
    2.5162  -12.1785    4.3245 H   0  0  0  0  0  0  0  0  0  0  0  0
    1.0537  -12.1453    5.2837 H   0  0  0  0  0  0  0  0  0  0  0  0
    1.1995  -11.6472    2.4891 H   0  0  0  0  0  0  0  0  0  0  0  0
   -0.1656  -11.4806    3.5573 H   0  0  0  0  0  0  0  0  0  0  0  0
    0.2482   -9.3091    2.3730 H   0  0  0  0  0  0  0  0  0  0  0  0
    0.1506   -7.9194    4.5425 H   0  0  0  0  0  0  0  0  0  0  0  0
   -0.8430   -9.3425    4.6378 H   0  0  0  0  0  0  0  0  0  0  0  0
    0.3912  -10.0545    6.4694 H   0  0  0  0  0  0  0  0  0  0  0  0
    1.3937   -8.6388    6.3357 H   0  0  0  0  0  0  0  0  0  0  0  0
    2.5072   -5.3384    4.0773 H   0  0  0  0  0  0  0  0  0  0  0  0
    1.5134   -3.2038    4.6795 H   0  0  0  0  0  0  0  0  0  0  0  0
    2.6663  -10.6362    6.1574 H   0  0  0  0  0  0  0  0  0  0  0  0
    4.0235   -5.9322    0.6531 H   0  0  0  0  0  0  0  0  0  0  0  0
  1  2  1  0
  1 23  1  0
  1 24  1  0
  1 25  1  0
  2  3  1  0
  2 26  1  0
  2 27  1  0
  3  4  1  0
  4 22  2  0
  4  5  1  0
  5  6  2  0
  5 28  1  0
  6  7  1  0
  6 29  1  0
  7  8  1  0
  7 21  2  0
  8  9  1  0
  8 47  1  0
  9 13  1  0
  9 10  2  0
 10 11  1  0
 10 30  1  0
 11 18  1  0
 11 12  1  6
 11 14  1  0
 12 13  1  0
 12 31  1  0
 12 32  1  0
 14 15  1  0
 14 33  1  0
 14 34  1  0
 15 20  1  0
 15 16  1  0
 15 46  1  1
 16 17  1  0
 16 35  1  0
 16 36  1  0
 17 18  1  0
 17 37  1  0
 17 38  1  0
 18 19  1  0
 18 39  1  6
 19 20  1  0
 19 40  1  0
 19 41  1  0
 20 42  1  0
 20 43  1  0
 21 22  1  0
 21 44  1  0
 22 45  1  0
M  CHG  1  15   1
M  END
>  <i_m_ct_stereo_status>  (351) 
1

>  <s_m_source_file>  (351) 
/var/tmp/pbs.5102103.sched01/tmpr2ljwd0b/132iqlgd2x9.sdf

>  <i_m_source_file_index>  (351) 
3

>  <i_lp_mmshare_version>  (351) 
48012

>  <i_f3d_flags>  (351) 
0

>  <s_epik_input>  (351) 
W0NIM11bQ0gyXU9jMVtjSF1bY0hdYyhbY0hdW2NIXTEpL049QyhTW0NIMl0yKS9bQ0gyXVtDQEBdMjNbQ0hdNFtDSDJdW0NIMl1OKFtDSDJdMylbQ0gyXVtDSDJdNA==

>  <s_epik_cmdline>  (351) 
J2VwaWtfcHl0aG9uJywgJy1waHQnLCAnMi4wJywgJy1waCcsICc3LjAnLCAnLXRuJywgJzgnLCAnLW1hJywgJzIwMCcsICctaW1hZScsICc8aW5maWxlLm1hZT4nLCAnLW9tYWUnLCAnPG91dGZpbGUubWFlPic=

>  <r_epik_Ionization_Penalty>  (351) 
2.49869

>  <r_epik_Ionization_Penalty_Charging>  (351) 
2.49869

>  <r_epik_Ionization_Penalty_Neutral>  (351) 
4.14211e-12

>  <r_epik_State_Penalty>  (351) 
2.66324

>  <r_epik_Charging_Adjusted_Penalty>  (351) 
5.16192

>  <i_epik_Tot_Q>  (351) 
1

>  <i_epik_Tot_abs_Q>  (351) 
1

>  <s_epik_Chemistry_Notes>  (351) 
This compound has an imine and may undergo hydrolysis.

>  <s_lp_Force_Field>  (351) 
OPLS3e

>  <r_lp_Energy>  (351) 
42.5955

>  <b_lp_Chiralities_Consistent>  (351) 
1

>  <s_lp_Variant>  (351) 
84:0-2

>  <s_i_glide_gridfile>  (351) 
pfpi4k_grid

>  <i_i_glide_lignum>  (351) 
3

>  <i_i_glide_rotatable_bonds>  (351) 
4

>  <r_i_docking_score>  (351) 
-2.70025

>  <r_i_glide_ligand_efficiency>  (351) 
-0.122739

>  <r_i_glide_ligand_efficiency_sa>  (351) 
-0.343918

>  <r_i_glide_ligand_efficiency_ln>  (351) 
-0.660039

>  <r_i_glide_gscore>  (351) 
-2.70025

>  <r_i_glide_lipo>  (351) 
-0.261891

>  <r_i_glide_hbond>  (351) 
0

>  <r_i_glide_metal>  (351) 
-0

>  <r_i_glide_rewards>  (351) 
-1.24452

>  <r_i_glide_evdw>  (351) 
-19.717

>  <r_i_glide_ecoul>  (351) 
-4.70167

>  <r_i_glide_erotb>  (351) 
0.554574

>  <r_i_glide_esite>  (351) 
-0.0573082

>  <r_i_glide_emodel>  (351) 
-28.542

>  <r_i_glide_energy>  (351) 
-24.4187

>  <r_i_glide_einternal>  (351) 
3.50447

>  <r_i_glide_intrahb_reward>  (351) 
-0

>  <i_i_glide_confnum>  (351) 
2

>  <i_i_glide_posenum>  (351) 
6

>  <r_i_glide_eff_state_penalty>  (351) 
0

>  <ligand_id>  (351) 
84

>  <original_smiles>  (351) 
CCOc1ccc(N=C2CC3(CS2)CN2CCC3CC2)cc1

>  <smiles>  (351) 
[H]C1=C(N([H])c2c([H])c([H])c(OC([H])([H])C([H])([H])[H])c([H])c2[H])SC([H])([H])C12C1([H])C([H])([H])C([H])([H])[N+]([H])(C([H])([H])C1([H])[H])C2([H])[H]

$$$$
85:0:0
     RDKit          3D

 97102  0  0  1  0  0  0  0  0999 V2000
    3.1357   -0.5816    8.1781 C   0  0  0  0  0  0  0  0  0  0  0  0
    1.8963   -0.1576    7.3484 C   0  0  2  0  0  0  0  0  0  0  0  0
    2.0452   -0.5503    5.8370 C   0  0  1  0  0  0  0  0  0  0  0  0
    2.4994   -2.0121    5.5932 C   0  0  0  0  0  0  0  0  0  0  0  0
    3.8129   -2.2746    5.4703 C   0  0  0  0  0  0  0  0  0  0  0  0
    4.4250   -3.6372    5.2763 C   0  0  0  0  0  0  0  0  0  0  0  0
    3.4485   -4.8587    5.1748 C   0  0  2  0  0  0  0  0  0  0  0  0
    4.1839   -6.0591    4.4162 C   0  0  1  0  0  0  0  0  0  0  0  0
    5.5764   -6.2160    5.1042 C   0  0  0  0  0  0  0  0  0  0  0  0
    3.4819   -7.4485    4.5698 C   0  0  0  0  0  0  0  0  0  0  0  0
    4.1418   -8.6050    3.7895 C   0  0  0  0  0  0  0  0  0  0  0  0
    4.2956   -8.2377    2.3147 C   0  0  0  0  0  0  0  0  0  0  0  0
    3.9468   -9.0266    1.4330 O   0  0  0  0  0  0  0  0  0  0  0  0
    4.9313   -6.8732    1.9859 C   0  0  0  0  0  0  0  0  0  0  0  0
    6.4693   -7.0002    2.1841 C   0  0  0  0  0  0  0  0  0  0  0  0
    4.7071   -6.5467    0.4879 C   0  0  0  0  0  0  0  0  0  0  0  0
    4.3052   -5.7301    2.8790 C   0  0  1  0  0  0  0  0  0  0  0  0
    2.9287   -5.2427    2.3376 C   0  0  0  0  0  0  0  0  0  0  0  0
    2.2672   -4.1026    3.1370 C   0  0  0  0  0  0  0  0  0  0  0  0
    2.0310   -4.4082    4.6461 C   0  0  1  0  0  0  0  0  0  0  0  0
    0.9732   -5.5517    4.7586 C   0  0  0  0  0  0  0  0  0  0  0  0
    1.4635   -3.1506    5.4789 C   0  0  1  0  0  0  0  0  0  0  0  0
    1.1477   -3.5804    6.9393 C   0  0  0  0  0  0  0  0  0  0  0  0
    0.1368   -2.6178    4.8399 C   0  0  0  0  0  0  0  0  0  0  0  0
   -0.2767   -1.1988    5.2385 C   0  0  0  0  0  0  0  0  0  0  0  0
    0.8209   -0.1496    4.9655 C   0  0  2  0  0  0  0  0  0  0  0  0
    1.2266   -0.2228    3.4628 C   0  0  0  0  0  0  0  0  0  0  0  0
    0.3954    1.3423    5.2686 C   0  0  1  0  0  0  0  0  0  0  0  0
   -0.7038    1.9272    4.3287 C   0  0  0  0  0  0  0  0  0  0  0  0
   -0.8861    3.4562    4.4482 C   0  0  0  0  0  0  0  0  0  0  0  0
    0.3432    4.2238    3.9129 C   0  0  0  0  0  0  0  0  0  0  0  0
   -2.1184    3.8680    3.6219 C   0  0  0  0  0  0  0  0  0  0  0  0
   -1.1222    3.8064    5.9255 C   0  0  0  0  0  0  0  0  0  0  0  0
   -0.0006    3.2902    6.8507 C   0  0  0  0  0  0  0  0  0  0  0  0
    0.2233    1.7484    6.7811 C   0  0  1  0  0  0  0  0  0  0  0  0
   -1.0075    1.1149    7.4995 C   0  0  0  0  0  0  0  0  0  0  0  0
   -1.0232    1.1211    8.7467 O   0  0  0  0  0  0  0  0  0  0  0  0
   -1.9689    0.6445    6.8466 O   0  0  0  0  0  0  0  0  0  0  0  0
    1.5789    1.3668    7.4904 C   0  0  1  0  0  0  0  0  0  0  0  0
    1.7649    1.9102    8.9375 C   0  0  0  0  0  0  0  0  0  0  0  0
    4.0355   -0.0539    7.8581 H   0  0  0  0  0  0  0  0  0  0  0  0
    3.3299   -1.6507    8.1014 H   0  0  0  0  0  0  0  0  0  0  0  0
    2.9963   -0.3974    9.2447 H   0  0  0  0  0  0  0  0  0  0  0  0
    1.0612   -0.6909    7.7905 H   0  0  0  0  0  0  0  0  0  0  0  0
    2.8679    0.0678    5.4777 H   0  0  0  0  0  0  0  0  0  0  0  0
    4.5235   -1.4652    5.5458 H   0  0  0  0  0  0  0  0  0  0  0  0
    5.0407   -3.5330    4.3849 H   0  0  0  0  0  0  0  0  0  0  0  0
    5.1114   -3.7838    6.1125 H   0  0  0  0  0  0  0  0  0  0  0  0
    3.2960   -5.2092    6.1951 H   0  0  0  0  0  0  0  0  0  0  0  0
    6.0269   -7.1970    4.9865 H   0  0  0  0  0  0  0  0  0  0  0  0
    5.4926   -6.0870    6.1842 H   0  0  0  0  0  0  0  0  0  0  0  0
    6.3042   -5.4912    4.7348 H   0  0  0  0  0  0  0  0  0  0  0  0
    3.3790   -7.7181    5.6226 H   0  0  0  0  0  0  0  0  0  0  0  0
    2.4806   -7.4319    4.1632 H   0  0  0  0  0  0  0  0  0  0  0  0
    5.1178   -8.8711    4.1893 H   0  0  0  0  0  0  0  0  0  0  0  0
    3.5324   -9.5047    3.8672 H   0  0  0  0  0  0  0  0  0  0  0  0
    6.9459   -6.0295    2.3129 H   0  0  0  0  0  0  0  0  0  0  0  0
    6.9532   -7.4810    1.3335 H   0  0  0  0  0  0  0  0  0  0  0  0
    6.7448   -7.6149    3.0397 H   0  0  0  0  0  0  0  0  0  0  0  0
    5.0913   -5.5598    0.2212 H   0  0  0  0  0  0  0  0  0  0  0  0
    3.6591   -6.6210    0.1897 H   0  0  0  0  0  0  0  0  0  0  0  0
    5.2067   -7.2860   -0.1145 H   0  0  0  0  0  0  0  0  0  0  0  0
    4.9766   -4.8823    2.7552 H   0  0  0  0  0  0  0  0  0  0  0  0
    3.0469   -4.8434    1.3318 H   0  0  0  0  0  0  0  0  0  0  0  0
    2.2512   -6.0888    2.2233 H   0  0  0  0  0  0  0  0  0  0  0  0
    2.8938   -3.2197    3.0258 H   0  0  0  0  0  0  0  0  0  0  0  0
    1.3394   -3.8719    2.6242 H   0  0  0  0  0  0  0  0  0  0  0  0
   -0.0427   -5.2048    4.9168 H   0  0  0  0  0  0  0  0  0  0  0  0
    1.1896   -6.2148    5.5963 H   0  0  0  0  0  0  0  0  0  0  0  0
    0.8817   -6.1530    3.8589 H   0  0  0  0  0  0  0  0  0  0  0  0
    0.4631   -4.4228    7.0071 H   0  0  0  0  0  0  0  0  0  0  0  0
    0.6768   -2.7834    7.5050 H   0  0  0  0  0  0  0  0  0  0  0  0
    2.0529   -3.8493    7.4857 H   0  0  0  0  0  0  0  0  0  0  0  0
    0.1535   -2.6496    3.7541 H   0  0  0  0  0  0  0  0  0  0  0  0
   -0.6953   -3.2512    5.1342 H   0  0  0  0  0  0  0  0  0  0  0  0
   -1.2034   -0.9284    4.7271 H   0  0  0  0  0  0  0  0  0  0  0  0
   -0.5090   -1.2480    6.2985 H   0  0  0  0  0  0  0  0  0  0  0  0
    0.3481   -0.2279    2.8157 H   0  0  0  0  0  0  0  0  0  0  0  0
    1.7876   -1.1240    3.2179 H   0  0  0  0  0  0  0  0  0  0  0  0
    1.8535    0.6241    3.1713 H   0  0  0  0  0  0  0  0  0  0  0  0
    1.2870    1.8899    4.9654 H   0  0  0  0  0  0  0  0  0  0  0  0
   -0.4695    1.7226    3.2865 H   0  0  0  0  0  0  0  0  0  0  0  0
   -1.6532    1.4293    4.5159 H   0  0  0  0  0  0  0  0  0  0  0  0
    0.1956    5.3026    3.9550 H   0  0  0  0  0  0  0  0  0  0  0  0
    0.5353    3.9554    2.8846 H   0  0  0  0  0  0  0  0  0  0  0  0
    1.2577    4.0068    4.4597 H   0  0  0  0  0  0  0  0  0  0  0  0
   -2.2954    4.9399    3.6836 H   0  0  0  0  0  0  0  0  0  0  0  0
   -3.0175    3.3509    3.9682 H   0  0  0  0  0  0  0  0  0  0  0  0
   -1.9849    3.6196    2.5690 H   0  0  0  0  0  0  0  0  0  0  0  0
   -1.2028    4.8878    6.0396 H   0  0  0  0  0  0  0  0  0  0  0  0
   -2.0841    3.4024    6.2535 H   0  0  0  0  0  0  0  0  0  0  0  0
    0.9264    3.8145    6.6361 H   0  0  0  0  0  0  0  0  0  0  0  0
   -0.2653    3.5916    7.8639 H   0  0  0  0  0  0  0  0  0  0  0  0
    2.3622    1.8894    6.9409 H   0  0  0  0  0  0  0  0  0  0  0  0
    1.2040    1.3422    9.6800 H   0  0  0  0  0  0  0  0  0  0  0  0
    1.4790    2.9573    9.0382 H   0  0  0  0  0  0  0  0  0  0  0  0
    2.8138    1.8717    9.2379 H   0  0  0  0  0  0  0  0  0  0  0  0
  1  2  1  0
  1 41  1  0
  1 42  1  0
  1 43  1  0
  2 39  1  0
  2  3  1  0
  2 44  1  1
  3 26  1  0
  3  4  1  0
  3 45  1  6
  4 22  1  0
  4  5  2  0
  5  6  1  0
  5 46  1  0
  6  7  1  0
  6 47  1  0
  6 48  1  0
  7 20  1  0
  7  8  1  0
  7 49  1  1
  8 17  1  0
  8  9  1  1
  8 10  1  0
  9 50  1  0
  9 51  1  0
  9 52  1  0
 10 11  1  0
 10 53  1  0
 10 54  1  0
 11 12  1  0
 11 55  1  0
 11 56  1  0
 12 13  2  0
 12 14  1  0
 14 15  1  0
 14 16  1  0
 14 17  1  0
 15 57  1  0
 15 58  1  0
 15 59  1  0
 16 60  1  0
 16 61  1  0
 16 62  1  0
 17 18  1  0
 17 63  1  1
 18 19  1  0
 18 64  1  0
 18 65  1  0
 19 20  1  0
 19 66  1  0
 19 67  1  0
 20 21  1  6
 20 22  1  0
 21 68  1  0
 21 69  1  0
 21 70  1  0
 22 23  1  1
 22 24  1  0
 23 71  1  0
 23 72  1  0
 23 73  1  0
 24 25  1  0
 24 74  1  0
 24 75  1  0
 25 26  1  0
 25 76  1  0
 25 77  1  0
 26 27  1  6
 26 28  1  0
 27 78  1  0
 27 79  1  0
 27 80  1  0
 28 35  1  0
 28 29  1  0
 28 81  1  6
 29 30  1  0
 29 82  1  0
 29 83  1  0
 30 31  1  0
 30 32  1  0
 30 33  1  0
 31 84  1  0
 31 85  1  0
 31 86  1  0
 32 87  1  0
 32 88  1  0
 32 89  1  0
 33 34  1  0
 33 90  1  0
 33 91  1  0
 34 35  1  0
 34 92  1  0
 34 93  1  0
 35 36  1  1
 35 39  1  0
 36 37  2  0
 36 38  1  0
 39 40  1  0
 39 94  1  6
 40 95  1  0
 40 96  1  0
 40 97  1  0
M  CHG  1  38  -1
M  END
>  <i_m_ct_stereo_status>  (352) 
1

>  <s_m_source_file>  (352) 
/var/tmp/pbs.5102103.sched01/tmpr2ljwd0b/132iqlgd2x9.sdf

>  <i_m_source_file_index>  (352) 
4

>  <i_lp_mmshare_version>  (352) 
48012

>  <i_f3d_flags>  (352) 
0

>  <s_epik_input>  (352) 
W0NIMl0xQyhbQ0gzXSkoW0NIM10pW0NIMl1bQ0gyXVtDQF0oQyg9TylbT0hdKShbQ0BASF0oW0NIM10pW0NAQEhdMltDSDNdKVtDQEhdMVtDQF0oW0NIM10pKFtDSDJdW0NIMl0zKVtDQEBIXTJDKD1bQ0hdW0NIMl00KVtDQF0zKFtDSDNdKVtDQF0oW0NIM10pKFtDQEhdNFtDQEBdNTZbQ0gzXSlbQ0gyXVtDSDJdW0NAQEhdNkMoW0NIM10pKFtDSDNdKUMoPU8pW0NIMl1bQ0gyXTU=

>  <s_epik_cmdline>  (352) 
J2VwaWtfcHl0aG9uJywgJy1waHQnLCAnMi4wJywgJy1waCcsICc3LjAnLCAnLXRuJywgJzgnLCAnLW1hJywgJzIwMCcsICctaW1hZScsICc8aW5maWxlLm1hZT4nLCAnLW9tYWUnLCAnPG91dGZpbGUubWFlPic=

>  <r_lp_tautomer_probability>  (352) 
0.99995

>  <r_epik_Ionization_Penalty>  (352) 
0.00903774

>  <r_epik_Ionization_Penalty_Charging>  (352) 
0.00903774

>  <r_epik_Ionization_Penalty_Neutral>  (352) 
6.30164e-14

>  <r_epik_State_Penalty>  (352) 
0.00684273

>  <r_epik_Charging_Adjusted_Penalty>  (352) 
0.0158805

>  <i_epik_Tot_Q>  (352) 
-1

>  <i_epik_Tot_abs_Q>  (352) 
1

>  <s_lp_Force_Field>  (352) 
OPLS3e

>  <r_lp_Energy>  (352) 
109.836

>  <b_lp_Chiralities_Consistent>  (352) 
1

>  <s_lp_Variant>  (352) 
85:0-1

>  <s_i_glide_gridfile>  (352) 
pfpi4k_grid

>  <i_i_glide_lignum>  (352) 
4

>  <i_i_glide_rotatable_bonds>  (352) 
1

>  <r_i_docking_score>  (352) 
-2.26529

>  <r_i_glide_ligand_efficiency>  (352) 
-0.0566322

>  <r_i_glide_ligand_efficiency_sa>  (352) 
-0.193679

>  <r_i_glide_ligand_efficiency_ln>  (352) 
-0.483119

>  <r_i_glide_gscore>  (352) 
-2.26529

>  <r_i_glide_lipo>  (352) 
-0.237536

>  <r_i_glide_hbond>  (352) 
-0.2

>  <r_i_glide_metal>  (352) 
-0

>  <r_i_glide_rewards>  (352) 
0

>  <r_i_glide_evdw>  (352) 
-25.2124

>  <r_i_glide_ecoul>  (352) 
-3.37937

>  <r_i_glide_erotb>  (352) 
0

>  <r_i_glide_esite>  (352) 
-0.060223

>  <r_i_glide_emodel>  (352) 
-33.8833

>  <r_i_glide_energy>  (352) 
-28.5918

>  <r_i_glide_einternal>  (352) 
0.222209

>  <r_i_glide_intrahb_reward>  (352) 
-0

>  <i_i_glide_confnum>  (352) 
2

>  <i_i_glide_posenum>  (352) 
33

>  <r_i_glide_eff_state_penalty>  (352) 
0

>  <ligand_id>  (352) 
85

>  <original_smiles>  (352) 
CC1C2C3=CCC4C5(C)CCC(=O)C(C)(C)C5CCC4(C)C3(C)CCC2(C)C2CC(C)(C)CCC2(C(=O)O)C1C

>  <smiles>  (352) 
[H]C1=C2C3([H])C([H])(C([H])([H])[H])C([H])(C([H])([H])[H])C4(C(=O)[O-])C([H])([H])C([H])([H])C(C([H])([H])[H])(C([H])([H])[H])C([H])([H])C4([H])C3(C([H])([H])[H])C([H])([H])C([H])([H])C2(C([H])([H])[H])C2(C([H])([H])[H])C([H])([H])C([H])([H])C3([H])C(C([H])([H])[H])(C([H])([H])[H])C(=O)C([H])([H])C([H])([H])C3(C([H])([H])[H])C2([H])C1([H])[H]

$$$$
85:0:1
     RDKit          3D

 97102  0  0  1  0  0  0  0  0999 V2000
    3.7559   -1.6905    7.9371 C   0  0  0  0  0  0  0  0  0  0  0  0
    2.4342   -1.2170    7.2856 C   0  0  2  0  0  0  0  0  0  0  0  0
    2.1790   -1.9141    5.9076 C   0  0  1  0  0  0  0  0  0  0  0  0
    2.3642   -3.4523    5.9218 C   0  0  0  0  0  0  0  0  0  0  0  0
    3.5622   -3.9673    5.6113 C   0  0  0  0  0  0  0  0  0  0  0  0
    3.9270   -5.4300    5.6169 C   0  0  0  0  0  0  0  0  0  0  0  0
    2.7976   -6.4530    5.9791 C   0  0  2  0  0  0  0  0  0  0  0  0
    3.1751   -7.8904    5.3872 C   0  0  1  0  0  0  0  0  0  0  0  0
    4.6502   -8.1586    5.8192 C   0  0  0  0  0  0  0  0  0  0  0  0
    2.3473   -9.0732    5.9872 C   0  0  0  0  0  0  0  0  0  0  0  0
    2.6563  -10.4571    5.3777 C   0  0  0  0  0  0  0  0  0  0  0  0
    2.5191  -10.4268    3.8589 C   0  0  0  0  0  0  0  0  0  0  0  0
    1.8667  -11.2944    3.2802 O   0  0  0  0  0  0  0  0  0  0  0  0
    3.2458   -9.2979    3.1079 C   0  0  0  0  0  0  0  0  0  0  0  0
    4.7560   -9.6495    3.0395 C   0  0  0  0  0  0  0  0  0  0  0  0
    2.7621   -9.2670    1.6331 C   0  0  0  0  0  0  0  0  0  0  0  0
    2.9921   -7.9014    3.8180 C   0  0  1  0  0  0  0  0  0  0  0  0
    1.6085   -7.2860    3.4543 C   0  0  0  0  0  0  0  0  0  0  0  0
    1.2999   -5.9077    4.0875 C   0  0  0  0  0  0  0  0  0  0  0  0
    1.3733   -5.8611    5.6439 C   0  0  1  0  0  0  0  0  0  0  0  0
    0.2294   -6.7531    6.2137 C   0  0  0  0  0  0  0  0  0  0  0  0
    1.1811   -4.3834    6.2683 C   0  0  1  0  0  0  0  0  0  0  0  0
    1.1480   -4.4627    7.8184 C   0  0  0  0  0  0  0  0  0  0  0  0
   -0.1737   -3.7454    5.8055 C   0  0  0  0  0  0  0  0  0  0  0  0
   -0.2969   -2.2184    5.9311 C   0  0  0  0  0  0  0  0  0  0  0  0
    0.8556   -1.4701    5.2232 C   0  0  2  0  0  0  0  0  0  0  0  0
    0.9017   -1.9112    3.7355 C   0  0  0  0  0  0  0  0  0  0  0  0
    0.7167    0.1033    5.2440 C   0  0  1  0  0  0  0  0  0  0  0  0
   -0.4772    0.6771    4.4135 C   0  0  0  0  0  0  0  0  0  0  0  0
   -0.4253    2.2115    4.2150 C   0  0  0  0  0  0  0  0  0  0  0  0
    0.7373    2.6121    3.2790 C   0  0  0  0  0  0  0  0  0  0  0  0
   -1.7444    2.6812    3.5711 C   0  0  0  0  0  0  0  0  0  0  0  0
   -0.2675    2.8920    5.5863 C   0  0  0  0  0  0  0  0  0  0  0  0
    0.9427    2.3576    6.3864 C   0  0  0  0  0  0  0  0  0  0  0  0
    0.9406    0.8149    6.6317 C   0  0  1  0  0  0  0  0  0  0  0  0
   -0.1979    0.5316    7.6687 C   0  0  0  0  0  0  0  0  0  0  0  0
   -1.3849    0.5385    7.2792 O   0  0  0  0  0  0  0  0  0  0  0  0
    0.0937    0.2790    8.8544 O   0  0  0  0  0  0  0  0  0  0  0  0
    2.3606    0.3400    7.1364 C   0  0  1  0  0  0  0  0  0  0  0  0
    2.9320    1.1118    8.3591 C   0  0  0  0  0  0  0  0  0  0  0  0
    4.6233   -1.4057    7.3410 H   0  0  0  0  0  0  0  0  0  0  0  0
    3.7770   -2.7708    8.0708 H   0  0  0  0  0  0  0  0  0  0  0  0
    3.8785   -1.2799    8.9393 H   0  0  0  0  0  0  0  0  0  0  0  0
    1.6585   -1.5131    7.9834 H   0  0  0  0  0  0  0  0  0  0  0  0
    2.9730   -1.5385    5.2597 H   0  0  0  0  0  0  0  0  0  0  0  0
    4.3791   -3.3029    5.3598 H   0  0  0  0  0  0  0  0  0  0  0  0
    4.3363   -5.6152    4.6254 H   0  0  0  0  0  0  0  0  0  0  0  0
    4.7562   -5.5332    6.3178 H   0  0  0  0  0  0  0  0  0  0  0  0
    2.8333   -6.5673    7.0619 H   0  0  0  0  0  0  0  0  0  0  0  0
    4.9272   -9.2084    5.8470 H   0  0  0  0  0  0  0  0  0  0  0  0
    4.8286   -7.8101    6.8378 H   0  0  0  0  0  0  0  0  0  0  0  0
    5.3694   -7.6642    5.1644 H   0  0  0  0  0  0  0  0  0  0  0  0
    2.4456   -9.1141    7.0748 H   0  0  0  0  0  0  0  0  0  0  0  0
    1.2917   -8.9619    5.7836 H   0  0  0  0  0  0  0  0  0  0  0  0
    3.6489  -10.8148    5.6413 H   0  0  0  0  0  0  0  0  0  0  0  0
    1.9599  -11.1976    5.7654 H   0  0  0  0  0  0  0  0  0  0  0  0
    5.3694   -8.7692    2.8525 H   0  0  0  0  0  0  0  0  0  0  0  0
    4.9711  -10.3665    2.2449 H   0  0  0  0  0  0  0  0  0  0  0  0
    5.1249  -10.1213    3.9471 H   0  0  0  0  0  0  0  0  0  0  0  0
    3.1829   -8.4185    1.0943 H   0  0  0  0  0  0  0  0  0  0  0  0
    1.6744   -9.2180    1.5604 H   0  0  0  0  0  0  0  0  0  0  0  0
    3.0460  -10.1746    1.0968 H   0  0  0  0  0  0  0  0  0  0  0  0
    3.7266   -7.2295    3.3787 H   0  0  0  0  0  0  0  0  0  0  0  0
    1.5534   -7.1255    2.3770 H   0  0  0  0  0  0  0  0  0  0  0  0
    0.8133   -8.0001    3.6715 H   0  0  0  0  0  0  0  0  0  0  0  0
    1.9995   -5.1908    3.6624 H   0  0  0  0  0  0  0  0  0  0  0  0
    0.3168   -5.6176    3.7283 H   0  0  0  0  0  0  0  0  0  0  0  0
   -0.6649   -6.2004    6.4798 H   0  0  0  0  0  0  0  0  0  0  0  0
    0.5362   -7.2713    7.1235 H   0  0  0  0  0  0  0  0  0  0  0  0
   -0.1454   -7.4922    5.5094 H   0  0  0  0  0  0  0  0  0  0  0  0
    0.3861   -5.1395    8.2027 H   0  0  0  0  0  0  0  0  0  0  0  0
    0.9253   -3.4981    8.2650 H   0  0  0  0  0  0  0  0  0  0  0  0
    2.1076   -4.7780    8.2271 H   0  0  0  0  0  0  0  0  0  0  0  0
   -0.3805   -3.9826    4.7694 H   0  0  0  0  0  0  0  0  0  0  0  0
   -1.0050   -4.1628    6.3716 H   0  0  0  0  0  0  0  0  0  0  0  0
   -1.2639   -1.8925    5.5426 H   0  0  0  0  0  0  0  0  0  0  0  0
   -0.3104   -1.9930    6.9936 H   0  0  0  0  0  0  0  0  0  0  0  0
   -0.0982   -1.8891    3.3051 H   0  0  0  0  0  0  0  0  0  0  0  0
    1.2644   -2.9273    3.5957 H   0  0  0  0  0  0  0  0  0  0  0  0
    1.5444   -1.2648    3.1343 H   0  0  0  0  0  0  0  0  0  0  0  0
    1.5826    0.4112    4.6626 H   0  0  0  0  0  0  0  0  0  0  0  0
   -0.5065    0.2328    3.4220 H   0  0  0  0  0  0  0  0  0  0  0  0
   -1.4251    0.4027    4.8692 H   0  0  0  0  0  0  0  0  0  0  0  0
    0.7577    3.6931    3.1155 H   0  0  0  0  0  0  0  0  0  0  0  0
    0.6390    2.1354    2.2970 H   0  0  0  0  0  0  0  0  0  0  0  0
    1.7145    2.3347    3.6720 H   0  0  0  0  0  0  0  0  0  0  0  0
   -1.7509    3.7617    3.4261 H   0  0  0  0  0  0  0  0  0  0  0  0
   -2.6027    2.4231    4.1925 H   0  0  0  0  0  0  0  0  0  0  0  0
   -1.8941    2.2202    2.5948 H   0  0  0  0  0  0  0  0  0  0  0  0
   -0.1746    3.9709    5.4610 H   0  0  0  0  0  0  0  0  0  0  0  0
   -1.1830    2.7598    6.1625 H   0  0  0  0  0  0  0  0  0  0  0  0
    1.8653    2.6508    5.8873 H   0  0  0  0  0  0  0  0  0  0  0  0
    0.9522    2.8890    7.3390 H   0  0  0  0  0  0  0  0  0  0  0  0
    3.0626    0.5960    6.3406 H   0  0  0  0  0  0  0  0  0  0  0  0
    2.4738    0.8133    9.3021 H   0  0  0  0  0  0  0  0  0  0  0  0
    2.8224    2.1915    8.2665 H   0  0  0  0  0  0  0  0  0  0  0  0
    4.0064    0.9438    8.4540 H   0  0  0  0  0  0  0  0  0  0  0  0
  1  2  1  0
  1 41  1  0
  1 42  1  0
  1 43  1  0
  2 39  1  0
  2  3  1  0
  2 44  1  1
  3 26  1  0
  3  4  1  0
  3 45  1  6
  4 22  1  0
  4  5  2  0
  5  6  1  0
  5 46  1  0
  6  7  1  0
  6 47  1  0
  6 48  1  0
  7 20  1  0
  7  8  1  0
  7 49  1  1
  8 17  1  0
  8  9  1  6
  8 10  1  0
  9 50  1  0
  9 51  1  0
  9 52  1  0
 10 11  1  0
 10 53  1  0
 10 54  1  0
 11 12  1  0
 11 55  1  0
 11 56  1  0
 12 13  2  0
 12 14  1  0
 14 15  1  0
 14 16  1  0
 14 17  1  0
 15 57  1  0
 15 58  1  0
 15 59  1  0
 16 60  1  0
 16 61  1  0
 16 62  1  0
 17 18  1  0
 17 63  1  6
 18 19  1  0
 18 64  1  0
 18 65  1  0
 19 20  1  0
 19 66  1  0
 19 67  1  0
 20 21  1  1
 20 22  1  0
 21 68  1  0
 21 69  1  0
 21 70  1  0
 22 23  1  1
 22 24  1  0
 23 71  1  0
 23 72  1  0
 23 73  1  0
 24 25  1  0
 24 74  1  0
 24 75  1  0
 25 26  1  0
 25 76  1  0
 25 77  1  0
 26 27  1  6
 26 28  1  0
 27 78  1  0
 27 79  1  0
 27 80  1  0
 28 35  1  0
 28 29  1  0
 28 81  1  6
 29 30  1  0
 29 82  1  0
 29 83  1  0
 30 31  1  0
 30 32  1  0
 30 33  1  0
 31 84  1  0
 31 85  1  0
 31 86  1  0
 32 87  1  0
 32 88  1  0
 32 89  1  0
 33 34  1  0
 33 90  1  0
 33 91  1  0
 34 35  1  0
 34 92  1  0
 34 93  1  0
 35 36  1  1
 35 39  1  0
 36 37  2  0
 36 38  1  0
 39 40  1  0
 39 94  1  6
 40 95  1  0
 40 96  1  0
 40 97  1  0
M  CHG  1  38  -1
M  END
>  <i_m_ct_stereo_status>  (353) 
1

>  <s_m_source_file>  (353) 
/var/tmp/pbs.5102103.sched01/tmpr2ljwd0b/132iqlgd2x9.sdf

>  <i_m_source_file_index>  (353) 
4

>  <i_lp_mmshare_version>  (353) 
48012

>  <i_f3d_flags>  (353) 
0

>  <s_epik_input>  (353) 
W0NIMl0xQyhbQ0gzXSkoW0NIM10pW0NIMl1bQ0gyXVtDQF0oQyg9TylbT0hdKShbQ0BASF0oW0NIM10pW0NAQEhdMltDSDNdKVtDQEhdMVtDQF0oW0NIM10pKFtDSDJdW0NIMl0zKVtDQEBIXTJDKD1bQ0hdW0NIMl00KVtDQF0zKFtDSDNdKVtDQF0oW0NIM10pKFtDQEhdNFtDQEBdNTZbQ0gzXSlbQ0gyXVtDSDJdW0NAQEhdNkMoW0NIM10pKFtDSDNdKUMoPU8pW0NIMl1bQ0gyXTU=

>  <s_epik_cmdline>  (353) 
J2VwaWtfcHl0aG9uJywgJy1waHQnLCAnMi4wJywgJy1waCcsICc3LjAnLCAnLXRuJywgJzgnLCAnLW1hJywgJzIwMCcsICctaW1hZScsICc8aW5maWxlLm1hZT4nLCAnLW9tYWUnLCAnPG91dGZpbGUubWFlPic=

>  <r_lp_tautomer_probability>  (353) 
0.99995

>  <r_epik_Ionization_Penalty>  (353) 
0.00903774

>  <r_epik_Ionization_Penalty_Charging>  (353) 
0.00903774

>  <r_epik_Ionization_Penalty_Neutral>  (353) 
6.30164e-14

>  <r_epik_State_Penalty>  (353) 
0.00684273

>  <r_epik_Charging_Adjusted_Penalty>  (353) 
0.0158805

>  <i_epik_Tot_Q>  (353) 
-1

>  <i_epik_Tot_abs_Q>  (353) 
1

>  <s_lp_Force_Field>  (353) 
OPLS3e

>  <r_lp_Energy>  (353) 
109.836

>  <b_lp_Chiralities_Consistent>  (353) 
1

>  <s_lp_Variant>  (353) 
85:0-1

>  <s_i_glide_gridfile>  (353) 
pfpi4k_grid

>  <i_i_glide_lignum>  (353) 
4

>  <i_i_glide_rotatable_bonds>  (353) 
1

>  <r_i_docking_score>  (353) 
-2.1227

>  <r_i_glide_ligand_efficiency>  (353) 
-0.0530675

>  <r_i_glide_ligand_efficiency_sa>  (353) 
-0.181488

>  <r_i_glide_ligand_efficiency_ln>  (353) 
-0.45271

>  <r_i_glide_gscore>  (353) 
-2.1227

>  <r_i_glide_lipo>  (353) 
-0.015425

>  <r_i_glide_hbond>  (353) 
-0.18229

>  <r_i_glide_metal>  (353) 
-0

>  <r_i_glide_rewards>  (353) 
0

>  <r_i_glide_evdw>  (353) 
-27.443

>  <r_i_glide_ecoul>  (353) 
-3.3613

>  <r_i_glide_erotb>  (353) 
0

>  <r_i_glide_esite>  (353) 
-0.0486397

>  <r_i_glide_emodel>  (353) 
-35.8582

>  <r_i_glide_energy>  (353) 
-30.8043

>  <r_i_glide_einternal>  (353) 
0.292371

>  <r_i_glide_intrahb_reward>  (353) 
-0

>  <i_i_glide_confnum>  (353) 
2

>  <i_i_glide_posenum>  (353) 
1

>  <r_i_glide_eff_state_penalty>  (353) 
0

>  <ligand_id>  (353) 
85

>  <original_smiles>  (353) 
CC1C2C3=CCC4C5(C)CCC(=O)C(C)(C)C5CCC4(C)C3(C)CCC2(C)C2CC(C)(C)CCC2(C(=O)O)C1C

>  <smiles>  (353) 
[H]C1=C2C3([H])C([H])(C([H])([H])[H])C([H])(C([H])([H])[H])C4(C(=O)[O-])C([H])([H])C([H])([H])C(C([H])([H])[H])(C([H])([H])[H])C([H])([H])C4([H])C3(C([H])([H])[H])C([H])([H])C([H])([H])C2(C([H])([H])[H])C2(C([H])([H])[H])C([H])([H])C([H])([H])C3([H])C(C([H])([H])[H])(C([H])([H])[H])C(=O)C([H])([H])C([H])([H])C3(C([H])([H])[H])C2([H])C1([H])[H]

$$$$
85:0:2
     RDKit          3D

 97102  0  0  1  0  0  0  0  0999 V2000
    3.8663   -4.6647    4.5089 C   0  0  0  0  0  0  0  0  0  0  0  0
    4.2578   -3.7787    3.2988 C   0  0  2  0  0  0  0  0  0  0  0  0
    3.3159   -2.5350    3.1609 C   0  0  1  0  0  0  0  0  0  0  0  0
    3.0880   -1.7463    4.4780 C   0  0  0  0  0  0  0  0  0  0  0  0
    2.0454   -2.0606    5.2585 C   0  0  0  0  0  0  0  0  0  0  0  0
    1.7089   -1.4298    6.5852 C   0  0  0  0  0  0  0  0  0  0  0  0
    2.6385   -0.2729    7.0868 C   0  0  2  0  0  0  0  0  0  0  0  0
    1.8382    0.6279    8.1416 C   0  0  1  0  0  0  0  0  0  0  0  0
    1.2000   -0.3686    9.1599 C   0  0  0  0  0  0  0  0  0  0  0  0
    2.7449    1.5736    8.9976 C   0  0  0  0  0  0  0  0  0  0  0  0
    1.9838    2.4918    9.9742 C   0  0  0  0  0  0  0  0  0  0  0  0
    0.9130    3.2988    9.2444 C   0  0  0  0  0  0  0  0  0  0  0  0
    0.8171    4.5143    9.4205 O   0  0  0  0  0  0  0  0  0  0  0  0
   -0.0496    2.5230    8.3167 C   0  0  0  0  0  0  0  0  0  0  0  0
   -1.0881    1.7943    9.2039 C   0  0  0  0  0  0  0  0  0  0  0  0
   -0.8660    3.5294    7.4582 C   0  0  0  0  0  0  0  0  0  0  0  0
    0.7591    1.5128    7.3993 C   0  0  1  0  0  0  0  0  0  0  0  0
    1.4138    2.2097    6.1711 C   0  0  0  0  0  0  0  0  0  0  0  0
    2.1941    1.2808    5.2126 C   0  0  0  0  0  0  0  0  0  0  0  0
    3.3398    0.4576    5.8760 C   0  0  1  0  0  0  0  0  0  0  0  0
    4.4504    1.4474    6.3515 C   0  0  0  0  0  0  0  0  0  0  0  0
    4.0452   -0.5971    4.8798 C   0  0  1  0  0  0  0  0  0  0  0  0
    5.2422   -1.2852    5.5931 C   0  0  0  0  0  0  0  0  0  0  0  0
    4.6006    0.1273    3.6034 C   0  0  0  0  0  0  0  0  0  0  0  0
    4.8972   -0.7725    2.3967 C   0  0  0  0  0  0  0  0  0  0  0  0
    3.6767   -1.6099    1.9658 C   0  0  2  0  0  0  0  0  0  0  0  0
    2.4771   -0.6554    1.7122 C   0  0  0  0  0  0  0  0  0  0  0  0
    3.8963   -2.4703    0.6539 C   0  0  1  0  0  0  0  0  0  0  0  0
    4.0677   -1.6562   -0.6654 C   0  0  0  0  0  0  0  0  0  0  0  0
    3.9911   -2.5109   -1.9546 C   0  0  0  0  0  0  0  0  0  0  0  0
    2.5666   -3.0599   -2.2131 C   0  0  0  0  0  0  0  0  0  0  0  0
    4.3686   -1.6323   -3.1541 C   0  0  0  0  0  0  0  0  0  0  0  0
    4.9996   -3.6693   -1.8360 C   0  0  0  0  0  0  0  0  0  0  0  0
    4.7792   -4.5178   -0.5669 C   0  0  0  0  0  0  0  0  0  0  0  0
    4.8621   -3.7141    0.7644 C   0  0  1  0  0  0  0  0  0  0  0  0
    6.3804   -3.3576    0.9203 C   0  0  0  0  0  0  0  0  0  0  0  0
    7.1501   -4.2576    1.3208 O   0  0  0  0  0  0  0  0  0  0  0  0
    6.7949   -2.2389    0.5467 O   0  0  0  0  0  0  0  0  0  0  0  0
    4.3048   -4.5842    1.9593 C   0  0  1  0  0  0  0  0  0  0  0  0
    4.9166   -6.0072    2.1077 C   0  0  0  0  0  0  0  0  0  0  0  0
    2.8727   -5.1010    4.3873 H   0  0  0  0  0  0  0  0  0  0  0  0
    3.8744   -4.1012    5.4419 H   0  0  0  0  0  0  0  0  0  0  0  0
    4.5779   -5.4784    4.6642 H   0  0  0  0  0  0  0  0  0  0  0  0
    5.2737   -3.4525    3.4954 H   0  0  0  0  0  0  0  0  0  0  0  0
    2.3407   -2.9584    2.9158 H   0  0  0  0  0  0  0  0  0  0  0  0
    1.3817   -2.8608    4.9588 H   0  0  0  0  0  0  0  0  0  0  0  0
    0.6788   -1.1000    6.4756 H   0  0  0  0  0  0  0  0  0  0  0  0
    1.7057   -2.2394    7.3148 H   0  0  0  0  0  0  0  0  0  0  0  0
    3.4360   -0.7519    7.6549 H   0  0  0  0  0  0  0  0  0  0  0  0
    0.9683    0.0650   10.1274 H   0  0  0  0  0  0  0  0  0  0  0  0
    1.8908   -1.1816    9.3895 H   0  0  0  0  0  0  0  0  0  0  0  0
    0.2769   -0.8095    8.7819 H   0  0  0  0  0  0  0  0  0  0  0  0
    3.5055    1.0033    9.5335 H   0  0  0  0  0  0  0  0  0  0  0  0
    3.2795    2.2759    8.3740 H   0  0  0  0  0  0  0  0  0  0  0  0
    1.5155    1.9392   10.7852 H   0  0  0  0  0  0  0  0  0  0  0  0
    2.6770    3.1854   10.4490 H   0  0  0  0  0  0  0  0  0  0  0  0
   -1.5534    0.9701    8.6669 H   0  0  0  0  0  0  0  0  0  0  0  0
   -1.8902    2.4622    9.5249 H   0  0  0  0  0  0  0  0  0  0  0  0
   -0.6686    1.4008   10.1276 H   0  0  0  0  0  0  0  0  0  0  0  0
   -1.4819    3.0140    6.7192 H   0  0  0  0  0  0  0  0  0  0  0  0
   -0.2193    4.2348    6.9310 H   0  0  0  0  0  0  0  0  0  0  0  0
   -1.5335    4.1380    8.0731 H   0  0  0  0  0  0  0  0  0  0  0  0
    0.0056    0.8509    6.9757 H   0  0  0  0  0  0  0  0  0  0  0  0
    0.6422    2.6679    5.5555 H   0  0  0  0  0  0  0  0  0  0  0  0
    2.0394    3.0376    6.5004 H   0  0  0  0  0  0  0  0  0  0  0  0
    1.4762    0.6098    4.7433 H   0  0  0  0  0  0  0  0  0  0  0  0
    2.5720    1.9157    4.4146 H   0  0  0  0  0  0  0  0  0  0  0  0
    5.2699    1.5673    5.6499 H   0  0  0  0  0  0  0  0  0  0  0  0
    4.9085    1.1164    7.2842 H   0  0  0  0  0  0  0  0  0  0  0  0
    4.0980    2.4666    6.4803 H   0  0  0  0  0  0  0  0  0  0  0  0
    5.9779   -0.5828    5.9773 H   0  0  0  0  0  0  0  0  0  0  0  0
    5.7926   -1.9352    4.9202 H   0  0  0  0  0  0  0  0  0  0  0  0
    4.9161   -1.9106    6.4239 H   0  0  0  0  0  0  0  0  0  0  0  0
    3.9395    0.9192    3.2597 H   0  0  0  0  0  0  0  0  0  0  0  0
    5.5415    0.6233    3.8296 H   0  0  0  0  0  0  0  0  0  0  0  0
    5.2498   -0.1637    1.5624 H   0  0  0  0  0  0  0  0  0  0  0  0
    5.7263   -1.4124    2.6855 H   0  0  0  0  0  0  0  0  0  0  0  0
    2.7538    0.1694    1.0510 H   0  0  0  0  0  0  0  0  0  0  0  0
    2.0827   -0.2038    2.6191 H   0  0  0  0  0  0  0  0  0  0  0  0
    1.6392   -1.2015    1.2819 H   0  0  0  0  0  0  0  0  0  0  0  0
    2.9177   -2.9283    0.5210 H   0  0  0  0  0  0  0  0  0  0  0  0
    3.2975   -0.8940   -0.7462 H   0  0  0  0  0  0  0  0  0  0  0  0
    5.0086   -1.1108   -0.6461 H   0  0  0  0  0  0  0  0  0  0  0  0
    2.5212   -3.6467   -3.1345 H   0  0  0  0  0  0  0  0  0  0  0  0
    1.8476   -2.2455   -2.3286 H   0  0  0  0  0  0  0  0  0  0  0  0
    2.2136   -3.6965   -1.4008 H   0  0  0  0  0  0  0  0  0  0  0  0
    4.3570   -2.1995   -4.0852 H   0  0  0  0  0  0  0  0  0  0  0  0
    5.3706   -1.2342   -3.0123 H   0  0  0  0  0  0  0  0  0  0  0  0
    3.6870   -0.7876   -3.2649 H   0  0  0  0  0  0  0  0  0  0  0  0
    4.9329   -4.3099   -2.7145 H   0  0  0  0  0  0  0  0  0  0  0  0
    6.0179   -3.2757   -1.8439 H   0  0  0  0  0  0  0  0  0  0  0  0
    3.8264   -5.0380   -0.6314 H   0  0  0  0  0  0  0  0  0  0  0  0
    5.5324   -5.3040   -0.5795 H   0  0  0  0  0  0  0  0  0  0  0  0
    3.2661   -4.8030    1.7060 H   0  0  0  0  0  0  0  0  0  0  0  0
    5.9053   -5.9929    2.5670 H   0  0  0  0  0  0  0  0  0  0  0  0
    4.9966   -6.5350    1.1564 H   0  0  0  0  0  0  0  0  0  0  0  0
    4.2835   -6.6428    2.7309 H   0  0  0  0  0  0  0  0  0  0  0  0
  1  2  1  0
  1 41  1  0
  1 42  1  0
  1 43  1  0
  2 39  1  0
  2  3  1  0
  2 44  1  1
  3 26  1  0
  3  4  1  0
  3 45  1  6
  4 22  1  0
  4  5  2  0
  5  6  1  0
  5 46  1  0
  6  7  1  0
  6 47  1  0
  6 48  1  0
  7 20  1  0
  7  8  1  0
  7 49  1  1
  8 17  1  0
  8  9  1  1
  8 10  1  0
  9 50  1  0
  9 51  1  0
  9 52  1  0
 10 11  1  0
 10 53  1  0
 10 54  1  0
 11 12  1  0
 11 55  1  0
 11 56  1  0
 12 13  2  0
 12 14  1  0
 14 15  1  0
 14 16  1  0
 14 17  1  0
 15 57  1  0
 15 58  1  0
 15 59  1  0
 16 60  1  0
 16 61  1  0
 16 62  1  0
 17 18  1  0
 17 63  1  6
 18 19  1  0
 18 64  1  0
 18 65  1  0
 19 20  1  0
 19 66  1  0
 19 67  1  0
 20 21  1  1
 20 22  1  0
 21 68  1  0
 21 69  1  0
 21 70  1  0
 22 23  1  1
 22 24  1  0
 23 71  1  0
 23 72  1  0
 23 73  1  0
 24 25  1  0
 24 74  1  0
 24 75  1  0
 25 26  1  0
 25 76  1  0
 25 77  1  0
 26 27  1  6
 26 28  1  0
 27 78  1  0
 27 79  1  0
 27 80  1  0
 28 35  1  0
 28 29  1  0
 28 81  1  6
 29 30  1  0
 29 82  1  0
 29 83  1  0
 30 31  1  0
 30 32  1  0
 30 33  1  0
 31 84  1  0
 31 85  1  0
 31 86  1  0
 32 87  1  0
 32 88  1  0
 32 89  1  0
 33 34  1  0
 33 90  1  0
 33 91  1  0
 34 35  1  0
 34 92  1  0
 34 93  1  0
 35 36  1  1
 35 39  1  0
 36 37  2  0
 36 38  1  0
 39 40  1  0
 39 94  1  6
 40 95  1  0
 40 96  1  0
 40 97  1  0
M  CHG  1  38  -1
M  END
>  <i_m_ct_stereo_status>  (354) 
1

>  <s_m_source_file>  (354) 
/var/tmp/pbs.5102103.sched01/tmpr2ljwd0b/132iqlgd2x9.sdf

>  <i_m_source_file_index>  (354) 
4

>  <i_lp_mmshare_version>  (354) 
48012

>  <i_f3d_flags>  (354) 
0

>  <s_epik_input>  (354) 
W0NIMl0xQyhbQ0gzXSkoW0NIM10pW0NIMl1bQ0gyXVtDQF0oQyg9TylbT0hdKShbQ0BASF0oW0NIM10pW0NAQEhdMltDSDNdKVtDQEhdMVtDQF0oW0NIM10pKFtDSDJdW0NIMl0zKVtDQEBIXTJDKD1bQ0hdW0NIMl00KVtDQF0zKFtDSDNdKVtDQF0oW0NIM10pKFtDQEhdNFtDQEBdNTZbQ0gzXSlbQ0gyXVtDSDJdW0NAQEhdNkMoW0NIM10pKFtDSDNdKUMoPU8pW0NIMl1bQ0gyXTU=

>  <s_epik_cmdline>  (354) 
J2VwaWtfcHl0aG9uJywgJy1waHQnLCAnMi4wJywgJy1waCcsICc3LjAnLCAnLXRuJywgJzgnLCAnLW1hJywgJzIwMCcsICctaW1hZScsICc8aW5maWxlLm1hZT4nLCAnLW9tYWUnLCAnPG91dGZpbGUubWFlPic=

>  <r_lp_tautomer_probability>  (354) 
0.99995

>  <r_epik_Ionization_Penalty>  (354) 
0.00903774

>  <r_epik_Ionization_Penalty_Charging>  (354) 
0.00903774

>  <r_epik_Ionization_Penalty_Neutral>  (354) 
6.30164e-14

>  <r_epik_State_Penalty>  (354) 
0.00684273

>  <r_epik_Charging_Adjusted_Penalty>  (354) 
0.0158805

>  <i_epik_Tot_Q>  (354) 
-1

>  <i_epik_Tot_abs_Q>  (354) 
1

>  <s_lp_Force_Field>  (354) 
OPLS3e

>  <r_lp_Energy>  (354) 
109.836

>  <b_lp_Chiralities_Consistent>  (354) 
1

>  <s_lp_Variant>  (354) 
85:0-1

>  <s_i_glide_gridfile>  (354) 
pfpi4k_grid

>  <i_i_glide_lignum>  (354) 
4

>  <i_i_glide_rotatable_bonds>  (354) 
1

>  <r_i_docking_score>  (354) 
-1.91156

>  <r_i_glide_ligand_efficiency>  (354) 
-0.047789

>  <r_i_glide_ligand_efficiency_sa>  (354) 
-0.163436

>  <r_i_glide_ligand_efficiency_ln>  (354) 
-0.407679

>  <r_i_glide_gscore>  (354) 
-1.91156

>  <r_i_glide_lipo>  (354) 
-0.335987

>  <r_i_glide_hbond>  (354) 
0

>  <r_i_glide_metal>  (354) 
-0

>  <r_i_glide_rewards>  (354) 
-0.111545

>  <r_i_glide_evdw>  (354) 
-30.725

>  <r_i_glide_ecoul>  (354) 
0.481484

>  <r_i_glide_erotb>  (354) 
0

>  <r_i_glide_esite>  (354) 
0

>  <r_i_glide_emodel>  (354) 
-34.712

>  <r_i_glide_energy>  (354) 
-30.2435

>  <r_i_glide_einternal>  (354) 
0.150715

>  <r_i_glide_intrahb_reward>  (354) 
-0

>  <i_i_glide_confnum>  (354) 
1

>  <i_i_glide_posenum>  (354) 
2

>  <r_i_glide_eff_state_penalty>  (354) 
0

>  <ligand_id>  (354) 
85

>  <original_smiles>  (354) 
CC1C2C3=CCC4C5(C)CCC(=O)C(C)(C)C5CCC4(C)C3(C)CCC2(C)C2CC(C)(C)CCC2(C(=O)O)C1C

>  <smiles>  (354) 
[H]C1=C2C3([H])C([H])(C([H])([H])[H])C([H])(C([H])([H])[H])C4(C(=O)[O-])C([H])([H])C([H])([H])C(C([H])([H])[H])(C([H])([H])[H])C([H])([H])C4([H])C3(C([H])([H])[H])C([H])([H])C([H])([H])C2(C([H])([H])[H])C2(C([H])([H])[H])C([H])([H])C([H])([H])C3([H])C(C([H])([H])[H])(C([H])([H])[H])C(=O)C([H])([H])C([H])([H])C3(C([H])([H])[H])C2([H])C1([H])[H]

$$$$
85:1:0
     RDKit          3D

 98103  0  0  1  0  0  0  0  0999 V2000
    5.6962   -2.9284    5.8384 C   0  0  0  0  0  0  0  0  0  0  0  0
    5.0085   -3.7731    4.7384 C   0  0  2  0  0  0  0  0  0  0  0  0
    3.4827   -3.4508    4.6281 C   0  0  1  0  0  0  0  0  0  0  0  0
    3.1480   -1.9367    4.5571 C   0  0  0  0  0  0  0  0  0  0  0  0
    2.8982   -1.2712    5.6952 C   0  0  0  0  0  0  0  0  0  0  0  0
    2.6056    0.2034    5.8127 C   0  0  0  0  0  0  0  0  0  0  0  0
    2.5469    1.0348    4.4875 C   0  0  2  0  0  0  0  0  0  0  0  0
    1.6835    2.3616    4.7306 C   0  0  1  0  0  0  0  0  0  0  0  0
    2.2439    3.0009    6.0394 C   0  0  0  0  0  0  0  0  0  0  0  0
    1.8534    3.4558    3.6246 C   0  0  0  0  0  0  0  0  0  0  0  0
    0.9765    4.7107    3.8060 C   0  0  0  0  0  0  0  0  0  0  0  0
   -0.4972    4.3362    3.9781 C   0  0  0  0  0  0  0  0  0  0  0  0
   -1.3847    4.9470    3.3800 O   0  0  0  0  0  0  0  0  0  0  0  0
   -0.8314    3.2339    5.0015 C   0  0  0  0  0  0  0  0  0  0  0  0
   -0.7641    3.8572    6.4177 C   0  0  0  0  0  0  0  0  0  0  0  0
   -2.3077    2.8026    4.8099 C   0  0  0  0  0  0  0  0  0  0  0  0
    0.1484    2.0012    4.8410 C   0  0  1  0  0  0  0  0  0  0  0  0
   -0.2508    1.0606    3.6675 C   0  0  0  0  0  0  0  0  0  0  0  0
    0.6465   -0.1850    3.4751 C   0  0  0  0  0  0  0  0  0  0  0  0
    2.1610    0.1156    3.2618 C   0  0  1  0  0  0  0  0  0  0  0  0
    2.3261    0.8601    1.9024 C   0  0  0  0  0  0  0  0  0  0  0  0
    3.0906   -1.2072    3.1968 C   0  0  1  0  0  0  0  0  0  0  0  0
    4.5570   -0.8089    2.8694 C   0  0  0  0  0  0  0  0  0  0  0  0
    2.6012   -2.1858    2.0676 C   0  0  0  0  0  0  0  0  0  0  0  0
    3.0806   -3.6430    2.1719 C   0  0  0  0  0  0  0  0  0  0  0  0
    2.7455   -4.2805    3.5380 C   0  0  2  0  0  0  0  0  0  0  0  0
    1.2157   -4.1688    3.7910 C   0  0  0  0  0  0  0  0  0  0  0  0
    3.1393   -5.8052    3.6593 C   0  0  1  0  0  0  0  0  0  0  0  0
    2.2856   -6.7806    2.7861 C   0  0  0  0  0  0  0  0  0  0  0  0
    2.4865   -8.2766    3.1361 C   0  0  0  0  0  0  0  0  0  0  0  0
    1.8900   -8.6151    4.5254 C   0  0  0  0  0  0  0  0  0  0  0  0
    1.7619   -9.1424    2.0892 C   0  0  0  0  0  0  0  0  0  0  0  0
    3.9907   -8.6051    3.1034 C   0  0  0  0  0  0  0  0  0  0  0  0
    4.8212   -7.6717    4.0106 C   0  0  0  0  0  0  0  0  0  0  0  0
    4.6806   -6.1438    3.7116 C   0  0  1  0  0  0  0  0  0  0  0  0
    5.4762   -5.8537    2.3957 C   0  0  0  0  0  0  0  0  0  0  0  0
    6.5853   -5.3292    2.3613 O   0  0  0  0  0  0  0  0  0  0  0  0
    4.8335   -6.2688    1.2713 O   0  0  0  0  0  0  0  0  0  0  0  0
    5.2444   -5.3098    4.9283 C   0  0  1  0  0  0  0  0  0  0  0  0
    6.6939   -5.6711    5.3637 C   0  0  0  0  0  0  0  0  0  0  0  0
    5.3116   -3.1571    6.8340 H   0  0  0  0  0  0  0  0  0  0  0  0
    5.5703   -1.8603    5.6600 H   0  0  0  0  0  0  0  0  0  0  0  0
    6.7744   -3.0840    5.8497 H   0  0  0  0  0  0  0  0  0  0  0  0
    5.4988   -3.4845    3.8151 H   0  0  0  0  0  0  0  0  0  0  0  0
    3.0666   -3.7863    5.5797 H   0  0  0  0  0  0  0  0  0  0  0  0
    2.9365   -1.7962    6.6380 H   0  0  0  0  0  0  0  0  0  0  0  0
    1.6677    0.2514    6.3610 H   0  0  0  0  0  0  0  0  0  0  0  0
    3.3707    0.6133    6.4710 H   0  0  0  0  0  0  0  0  0  0  0  0
    3.5654    1.3782    4.3007 H   0  0  0  0  0  0  0  0  0  0  0  0
    2.0595    4.0667    6.1321 H   0  0  0  0  0  0  0  0  0  0  0  0
    3.3310    2.9137    6.0802 H   0  0  0  0  0  0  0  0  0  0  0  0
    1.8383    2.5326    6.9373 H   0  0  0  0  0  0  0  0  0  0  0  0
    2.9012    3.7402    3.5161 H   0  0  0  0  0  0  0  0  0  0  0  0
    1.5422    3.0921    2.6564 H   0  0  0  0  0  0  0  0  0  0  0  0
    1.2790    5.3020    4.6644 H   0  0  0  0  0  0  0  0  0  0  0  0
    1.0756    5.3656    2.9401 H   0  0  0  0  0  0  0  0  0  0  0  0
   -0.6517    3.0943    7.1860 H   0  0  0  0  0  0  0  0  0  0  0  0
   -1.6661    4.4181    6.6614 H   0  0  0  0  0  0  0  0  0  0  0  0
    0.0488    4.5699    6.5326 H   0  0  0  0  0  0  0  0  0  0  0  0
   -2.5546    1.9587    5.4551 H   0  0  0  0  0  0  0  0  0  0  0  0
   -2.5297    2.5227    3.7763 H   0  0  0  0  0  0  0  0  0  0  0  0
   -2.9938    3.6130    5.0577 H   0  0  0  0  0  0  0  0  0  0  0  0
   -0.0016    1.4095    5.7419 H   0  0  0  0  0  0  0  0  0  0  0  0
   -1.2518    0.6677    3.8357 H   0  0  0  0  0  0  0  0  0  0  0  0
   -0.3269    1.6296    2.7422 H   0  0  0  0  0  0  0  0  0  0  0  0
    0.5118   -0.8275    4.3441 H   0  0  0  0  0  0  0  0  0  0  0  0
    0.2329   -0.7285    2.6302 H   0  0  0  0  0  0  0  0  0  0  0  0
    2.5842    0.2145    1.0694 H   0  0  0  0  0  0  0  0  0  0  0  0
    3.1146    1.6106    1.9546 H   0  0  0  0  0  0  0  0  0  0  0  0
    1.4170    1.3413    1.5529 H   0  0  0  0  0  0  0  0  0  0  0  0
    4.6523   -0.2220    1.9594 H   0  0  0  0  0  0  0  0  0  0  0  0
    5.1876   -1.6791    2.7155 H   0  0  0  0  0  0  0  0  0  0  0  0
    5.0102   -0.2356    3.6782 H   0  0  0  0  0  0  0  0  0  0  0  0
    1.5187   -2.2132    2.0048 H   0  0  0  0  0  0  0  0  0  0  0  0
    2.9257   -1.8315    1.0912 H   0  0  0  0  0  0  0  0  0  0  0  0
    2.6490   -4.2288    1.3584 H   0  0  0  0  0  0  0  0  0  0  0  0
    4.1508   -3.6333    1.9938 H   0  0  0  0  0  0  0  0  0  0  0  0
    0.6501   -4.4889    2.9152 H   0  0  0  0  0  0  0  0  0  0  0  0
    0.8918   -3.1501    3.9990 H   0  0  0  0  0  0  0  0  0  0  0  0
    0.8948   -4.7767    4.6395 H   0  0  0  0  0  0  0  0  0  0  0  0
    2.7984   -6.0376    4.6667 H   0  0  0  0  0  0  0  0  0  0  0  0
    1.2248   -6.5807    2.9163 H   0  0  0  0  0  0  0  0  0  0  0  0
    2.4620   -6.6151    1.7270 H   0  0  0  0  0  0  0  0  0  0  0  0
    2.0115   -9.6766    4.7586 H   0  0  0  0  0  0  0  0  0  0  0  0
    0.8227   -8.3858    4.5656 H   0  0  0  0  0  0  0  0  0  0  0  0
    2.3669   -8.0618    5.3357 H   0  0  0  0  0  0  0  0  0  0  0  0
    1.8908  -10.2065    2.2968 H   0  0  0  0  0  0  0  0  0  0  0  0
    2.1373   -8.9600    1.0819 H   0  0  0  0  0  0  0  0  0  0  0  0
    0.6896   -8.9387    2.0858 H   0  0  0  0  0  0  0  0  0  0  0  0
    4.1476   -9.6441    3.4001 H   0  0  0  0  0  0  0  0  0  0  0  0
    4.3564   -8.5659    2.0783 H   0  0  0  0  0  0  0  0  0  0  0  0
    4.5758   -7.8712    5.0522 H   0  0  0  0  0  0  0  0  0  0  0  0
    5.8597   -7.9807    3.9022 H   0  0  0  0  0  0  0  0  0  0  0  0
    4.0117   -6.6843    1.4869 H   0  0  0  0  0  0  0  0  0  0  0  0
    4.6532   -5.5976    5.7993 H   0  0  0  0  0  0  0  0  0  0  0  0
    7.4553   -5.2775    4.6901 H   0  0  0  0  0  0  0  0  0  0  0  0
    6.8567   -6.7464    5.4495 H   0  0  0  0  0  0  0  0  0  0  0  0
    6.9119   -5.2715    6.3568 H   0  0  0  0  0  0  0  0  0  0  0  0
  1  2  1  0
  1 41  1  0
  1 42  1  0
  1 43  1  0
  2 39  1  0
  2  3  1  0
  2 44  1  6
  3 26  1  0
  3  4  1  0
  3 45  1  1
  4 22  1  0
  4  5  2  0
  5  6  1  0
  5 46  1  0
  6  7  1  0
  6 47  1  0
  6 48  1  0
  7 20  1  0
  7  8  1  0
  7 49  1  6
  8 17  1  0
  8  9  1  1
  8 10  1  0
  9 50  1  0
  9 51  1  0
  9 52  1  0
 10 11  1  0
 10 53  1  0
 10 54  1  0
 11 12  1  0
 11 55  1  0
 11 56  1  0
 12 13  2  0
 12 14  1  0
 14 15  1  0
 14 16  1  0
 14 17  1  0
 15 57  1  0
 15 58  1  0
 15 59  1  0
 16 60  1  0
 16 61  1  0
 16 62  1  0
 17 18  1  0
 17 63  1  1
 18 19  1  0
 18 64  1  0
 18 65  1  0
 19 20  1  0
 19 66  1  0
 19 67  1  0
 20 21  1  6
 20 22  1  0
 21 68  1  0
 21 69  1  0
 21 70  1  0
 22 23  1  6
 22 24  1  0
 23 71  1  0
 23 72  1  0
 23 73  1  0
 24 25  1  0
 24 74  1  0
 24 75  1  0
 25 26  1  0
 25 76  1  0
 25 77  1  0
 26 27  1  1
 26 28  1  0
 27 78  1  0
 27 79  1  0
 27 80  1  0
 28 35  1  0
 28 29  1  0
 28 81  1  1
 29 30  1  0
 29 82  1  0
 29 83  1  0
 30 31  1  0
 30 32  1  0
 30 33  1  0
 31 84  1  0
 31 85  1  0
 31 86  1  0
 32 87  1  0
 32 88  1  0
 32 89  1  0
 33 34  1  0
 33 90  1  0
 33 91  1  0
 34 35  1  0
 34 92  1  0
 34 93  1  0
 35 36  1  6
 35 39  1  0
 36 37  2  0
 36 38  1  0
 38 94  1  0
 39 40  1  0
 39 95  1  1
 40 96  1  0
 40 97  1  0
 40 98  1  0
M  END
>  <i_m_ct_stereo_status>  (355) 
1

>  <s_m_source_file>  (355) 
/var/tmp/pbs.5102103.sched01/tmpr2ljwd0b/132iqlgd2x9.sdf

>  <i_m_source_file_index>  (355) 
5

>  <i_lp_mmshare_version>  (355) 
48012

>  <i_f3d_flags>  (355) 
0

>  <s_epik_input>  (355) 
W0NIMl0xQyhbQ0gzXSkoW0NIM10pW0NIMl1bQ0gyXVtDQF0oQyg9TylbT0hdKShbQ0BASF0oW0NIM10pW0NAQEhdMltDSDNdKVtDQEhdMVtDQF0oW0NIM10pKFtDSDJdW0NIMl0zKVtDQEBIXTJDKD1bQ0hdW0NIMl00KVtDQF0zKFtDSDNdKVtDQF0oW0NIM10pKFtDQEhdNFtDQEBdNTZbQ0gzXSlbQ0gyXVtDSDJdW0NAQEhdNkMoW0NIM10pKFtDSDNdKUMoPU8pW0NIMl1bQ0gyXTU=

>  <s_epik_cmdline>  (355) 
J2VwaWtfcHl0aG9uJywgJy1waHQnLCAnMi4wJywgJy1waCcsICc3LjAnLCAnLXRuJywgJzgnLCAnLW1hJywgJzIwMCcsICctaW1hZScsICc8aW5maWxlLm1hZT4nLCAnLW9tYWUnLCAnPG91dGZpbGUubWFlPic=

>  <r_lp_tautomer_probability>  (355) 
0.99995

>  <r_epik_Ionization_Penalty>  (355) 
2.48283

>  <r_epik_Ionization_Penalty_Charging>  (355) 
0

>  <r_epik_Ionization_Penalty_Neutral>  (355) 
2.48283

>  <r_epik_State_Penalty>  (355) 
2.64658

>  <r_epik_Charging_Adjusted_Penalty>  (355) 
2.64658

>  <i_epik_Tot_Q>  (355) 
0

>  <i_epik_Tot_abs_Q>  (355) 
0

>  <s_lp_Force_Field>  (355) 
OPLS3e

>  <r_lp_Energy>  (355) 
116.552

>  <b_lp_Chiralities_Consistent>  (355) 
1

>  <s_lp_Variant>  (355) 
85:0-2

>  <s_i_glide_gridfile>  (355) 
pfpi4k_grid

>  <i_i_glide_lignum>  (355) 
5

>  <i_i_glide_rotatable_bonds>  (355) 
2

>  <r_i_docking_score>  (355) 
-2.45315

>  <r_i_glide_ligand_efficiency>  (355) 
-0.0613286

>  <r_i_glide_ligand_efficiency_sa>  (355) 
-0.209741

>  <r_i_glide_ligand_efficiency_ln>  (355) 
-0.523184

>  <r_i_glide_gscore>  (355) 
-2.45315

>  <r_i_glide_lipo>  (355) 
-0.155211

>  <r_i_glide_hbond>  (355) 
-0.16

>  <r_i_glide_metal>  (355) 
-0

>  <r_i_glide_rewards>  (355) 
-0.012151

>  <r_i_glide_evdw>  (355) 
-32.251

>  <r_i_glide_ecoul>  (355) 
-3.27334

>  <r_i_glide_erotb>  (355) 
0.0683353

>  <r_i_glide_esite>  (355) 
-0.0905685

>  <r_i_glide_emodel>  (355) 
-39.9764

>  <r_i_glide_energy>  (355) 
-35.5243

>  <r_i_glide_einternal>  (355) 
1.40609

>  <r_i_glide_intrahb_reward>  (355) 
-0

>  <i_i_glide_confnum>  (355) 
2

>  <i_i_glide_posenum>  (355) 
1

>  <r_i_glide_eff_state_penalty>  (355) 
0

>  <ligand_id>  (355) 
85

>  <original_smiles>  (355) 
CC1C2C3=CCC4C5(C)CCC(=O)C(C)(C)C5CCC4(C)C3(C)CCC2(C)C2CC(C)(C)CCC2(C(=O)O)C1C

>  <smiles>  (355) 
[H]OC(=O)C12C([H])([H])C([H])([H])C(C([H])([H])[H])(C([H])([H])[H])C([H])([H])C1([H])C1(C([H])([H])[H])C([H])([H])C([H])([H])C3(C([H])([H])[H])C(=C([H])C([H])([H])C4([H])C5(C([H])([H])[H])C([H])([H])C([H])([H])C(=O)C(C([H])([H])[H])(C([H])([H])[H])C5([H])C([H])([H])C([H])([H])C43C([H])([H])[H])C1([H])C([H])(C([H])([H])[H])C2([H])C([H])([H])[H]

$$$$
85:1:1
     RDKit          3D

 98103  0  0  1  0  0  0  0  0999 V2000
    5.7217   -2.9904    5.7894 C   0  0  0  0  0  0  0  0  0  0  0  0
    5.0090   -3.8241    4.6985 C   0  0  2  0  0  0  0  0  0  0  0  0
    3.4834   -3.4890    4.6213 C   0  0  1  0  0  0  0  0  0  0  0  0
    3.1578   -1.9739    4.5623 C   0  0  0  0  0  0  0  0  0  0  0  0
    2.9323   -1.3112    5.7087 C   0  0  0  0  0  0  0  0  0  0  0  0
    2.6527    0.1641    5.8380 C   0  0  0  0  0  0  0  0  0  0  0  0
    2.5746    1.0028    4.5178 C   0  0  2  0  0  0  0  0  0  0  0  0
    1.7250    2.3335    4.7831 C   0  0  1  0  0  0  0  0  0  0  0  0
    2.3154    2.9630    6.0834 C   0  0  0  0  0  0  0  0  0  0  0  0
    1.8820    3.4311    3.6788 C   0  0  0  0  0  0  0  0  0  0  0  0
    1.0179    4.6913    3.8835 C   0  0  0  0  0  0  0  0  0  0  0  0
   -0.4551    4.3283    4.0790 C   0  0  0  0  0  0  0  0  0  0  0  0
   -1.3495    4.9452    3.5008 O   0  0  0  0  0  0  0  0  0  0  0  0
   -0.7798    3.2246    5.1048 C   0  0  0  0  0  0  0  0  0  0  0  0
   -0.6798    3.8405    6.5233 C   0  0  0  0  0  0  0  0  0  0  0  0
   -2.2641    2.8034    4.9417 C   0  0  0  0  0  0  0  0  0  0  0  0
    0.1890    1.9843    4.9218 C   0  0  1  0  0  0  0  0  0  0  0  0
   -0.2380    1.0512    3.7520 C   0  0  0  0  0  0  0  0  0  0  0  0
    0.6469   -0.1995    3.5364 C   0  0  0  0  0  0  0  0  0  0  0  0
    2.1592    0.0916    3.2955 C   0  0  1  0  0  0  0  0  0  0  0  0
    2.3036    0.8415    1.9362 C   0  0  0  0  0  0  0  0  0  0  0  0
    3.0778   -1.2370    3.2069 C   0  0  1  0  0  0  0  0  0  0  0  0
    4.5405   -0.8483    2.8531 C   0  0  0  0  0  0  0  0  0  0  0  0
    2.5595   -2.2071    2.0825 C   0  0  0  0  0  0  0  0  0  0  0  0
    3.0314   -3.6675    2.1734 C   0  0  0  0  0  0  0  0  0  0  0  0
    2.7202   -4.3092    3.5437 C   0  0  2  0  0  0  0  0  0  0  0  0
    1.1972   -4.1883    3.8243 C   0  0  0  0  0  0  0  0  0  0  0  0
    3.1028   -5.8377    3.6524 C   0  0  1  0  0  0  0  0  0  0  0  0
    2.2259   -6.8033    2.7912 C   0  0  0  0  0  0  0  0  0  0  0  0
    2.4212   -8.3017    3.1296 C   0  0  0  0  0  0  0  0  0  0  0  0
    1.8493   -8.6440    4.5272 C   0  0  0  0  0  0  0  0  0  0  0  0
    1.6709   -9.1574    2.0916 C   0  0  0  0  0  0  0  0  0  0  0  0
    3.9226   -8.6363    3.0627 C   0  0  0  0  0  0  0  0  0  0  0  0
    4.7769   -7.7169    3.9603 C   0  0  0  0  0  0  0  0  0  0  0  0
    4.6414   -6.1876    3.6700 C   0  0  1  0  0  0  0  0  0  0  0  0
    5.4116   -5.9009    2.3364 C   0  0  0  0  0  0  0  0  0  0  0  0
    6.5459   -5.4348    2.2887 O   0  0  0  0  0  0  0  0  0  0  0  0
    4.7215   -6.2526    1.2156 O   0  0  0  0  0  0  0  0  0  0  0  0
    5.2358   -5.3637    4.8779 C   0  0  1  0  0  0  0  0  0  0  0  0
    6.6910   -5.7384    5.2838 C   0  0  0  0  0  0  0  0  0  0  0  0
    5.3532   -3.2214    6.7904 H   0  0  0  0  0  0  0  0  0  0  0  0
    5.5998   -1.9208    5.6185 H   0  0  0  0  0  0  0  0  0  0  0  0
    6.7984   -3.1552    5.7797 H   0  0  0  0  0  0  0  0  0  0  0  0
    5.4836   -3.5380    3.7656 H   0  0  0  0  0  0  0  0  0  0  0  0
    3.0833   -3.8275    5.5788 H   0  0  0  0  0  0  0  0  0  0  0  0
    2.9853   -1.8421    6.6474 H   0  0  0  0  0  0  0  0  0  0  0  0
    1.7259    0.2162    6.4046 H   0  0  0  0  0  0  0  0  0  0  0  0
    3.4331    0.5656    6.4838 H   0  0  0  0  0  0  0  0  0  0  0  0
    3.5924    1.3390    4.3134 H   0  0  0  0  0  0  0  0  0  0  0  0
    2.1408    4.0297    6.1850 H   0  0  0  0  0  0  0  0  0  0  0  0
    3.4026    2.8682    6.1037 H   0  0  0  0  0  0  0  0  0  0  0  0
    1.9238    2.4938    6.9870 H   0  0  0  0  0  0  0  0  0  0  0  0
    2.9298    3.7086    3.5512 H   0  0  0  0  0  0  0  0  0  0  0  0
    1.5503    3.0746    2.7148 H   0  0  0  0  0  0  0  0  0  0  0  0
    1.3423    5.2766    4.7386 H   0  0  0  0  0  0  0  0  0  0  0  0
    1.1059    5.3489    3.0193 H   0  0  0  0  0  0  0  0  0  0  0  0
   -0.5584    3.0736    7.2872 H   0  0  0  0  0  0  0  0  0  0  0  0
   -1.5721    4.4087    6.7851 H   0  0  0  0  0  0  0  0  0  0  0  0
    0.1415    4.5457    6.6260 H   0  0  0  0  0  0  0  0  0  0  0  0
   -2.5038    1.9566    5.5862 H   0  0  0  0  0  0  0  0  0  0  0  0
   -2.5040    2.5279    3.9115 H   0  0  0  0  0  0  0  0  0  0  0  0
   -2.9493    3.6125    5.2020 H   0  0  0  0  0  0  0  0  0  0  0  0
    0.0536    1.3882    5.8226 H   0  0  0  0  0  0  0  0  0  0  0  0
   -1.2383    0.6643    3.9367 H   0  0  0  0  0  0  0  0  0  0  0  0
   -0.3275    1.6244    2.8304 H   0  0  0  0  0  0  0  0  0  0  0  0
    0.5250   -0.8455    4.4049 H   0  0  0  0  0  0  0  0  0  0  0  0
    0.2154   -0.7370    2.6975 H   0  0  0  0  0  0  0  0  0  0  0  0
    2.5410    0.1982    1.0955 H   0  0  0  0  0  0  0  0  0  0  0  0
    3.0982    1.5865    1.9754 H   0  0  0  0  0  0  0  0  0  0  0  0
    1.3913    1.3302    1.6059 H   0  0  0  0  0  0  0  0  0  0  0  0
    4.6230   -0.2573    1.9445 H   0  0  0  0  0  0  0  0  0  0  0  0
    5.1615   -1.7223    2.6832 H   0  0  0  0  0  0  0  0  0  0  0  0
    5.0135   -0.2827    3.6558 H   0  0  0  0  0  0  0  0  0  0  0  0
    1.4759   -2.2280    2.0403 H   0  0  0  0  0  0  0  0  0  0  0  0
    2.8671   -1.8509    1.1010 H   0  0  0  0  0  0  0  0  0  0  0  0
    2.5810   -4.2489    1.3671 H   0  0  0  0  0  0  0  0  0  0  0  0
    4.0978   -3.6638    1.9744 H   0  0  0  0  0  0  0  0  0  0  0  0
    0.6235   -4.5022    2.9524 H   0  0  0  0  0  0  0  0  0  0  0  0
    0.8806   -3.1692    4.0409 H   0  0  0  0  0  0  0  0  0  0  0  0
    0.8854   -4.7990    4.6739 H   0  0  0  0  0  0  0  0  0  0  0  0
    2.7777   -6.0729    4.6649 H   0  0  0  0  0  0  0  0  0  0  0  0
    1.1679   -6.5963    2.9296 H   0  0  0  0  0  0  0  0  0  0  0  0
    2.4035   -6.6417    1.7317 H   0  0  0  0  0  0  0  0  0  0  0  0
    1.9677   -9.7074    4.7528 H   0  0  0  0  0  0  0  0  0  0  0  0
    0.7847   -8.4070    4.5882 H   0  0  0  0  0  0  0  0  0  0  0  0
    2.3455   -8.0973    5.3303 H   0  0  0  0  0  0  0  0  0  0  0  0
    1.7948  -10.2240    2.2899 H   0  0  0  0  0  0  0  0  0  0  0  0
    2.0320   -8.9708    1.0797 H   0  0  0  0  0  0  0  0  0  0  0  0
    0.5999   -8.9457    2.1036 H   0  0  0  0  0  0  0  0  0  0  0  0
    4.0818   -9.6796    3.3403 H   0  0  0  0  0  0  0  0  0  0  0  0
    4.2638   -8.5751    2.0302 H   0  0  0  0  0  0  0  0  0  0  0  0
    4.5488   -7.9215    5.0053 H   0  0  0  0  0  0  0  0  0  0  0  0
    5.8107   -8.0333    3.8289 H   0  0  0  0  0  0  0  0  0  0  0  0
    5.2216   -6.0813    0.4353 H   0  0  0  0  0  0  0  0  0  0  0  0
    4.6584   -5.6507    5.7593 H   0  0  0  0  0  0  0  0  0  0  0  0
    7.4426   -5.3509    4.5958 H   0  0  0  0  0  0  0  0  0  0  0  0
    6.8452   -6.8155    5.3632 H   0  0  0  0  0  0  0  0  0  0  0  0
    6.9302   -5.3440    6.2738 H   0  0  0  0  0  0  0  0  0  0  0  0
  1  2  1  0
  1 41  1  0
  1 42  1  0
  1 43  1  0
  2 39  1  0
  2  3  1  0
  2 44  1  6
  3 26  1  0
  3  4  1  0
  3 45  1  1
  4 22  1  0
  4  5  2  0
  5  6  1  0
  5 46  1  0
  6  7  1  0
  6 47  1  0
  6 48  1  0
  7 20  1  0
  7  8  1  0
  7 49  1  6
  8 17  1  0
  8  9  1  1
  8 10  1  0
  9 50  1  0
  9 51  1  0
  9 52  1  0
 10 11  1  0
 10 53  1  0
 10 54  1  0
 11 12  1  0
 11 55  1  0
 11 56  1  0
 12 13  2  0
 12 14  1  0
 14 15  1  0
 14 16  1  0
 14 17  1  0
 15 57  1  0
 15 58  1  0
 15 59  1  0
 16 60  1  0
 16 61  1  0
 16 62  1  0
 17 18  1  0
 17 63  1  1
 18 19  1  0
 18 64  1  0
 18 65  1  0
 19 20  1  0
 19 66  1  0
 19 67  1  0
 20 21  1  6
 20 22  1  0
 21 68  1  0
 21 69  1  0
 21 70  1  0
 22 23  1  6
 22 24  1  0
 23 71  1  0
 23 72  1  0
 23 73  1  0
 24 25  1  0
 24 74  1  0
 24 75  1  0
 25 26  1  0
 25 76  1  0
 25 77  1  0
 26 27  1  1
 26 28  1  0
 27 78  1  0
 27 79  1  0
 27 80  1  0
 28 35  1  0
 28 29  1  0
 28 81  1  1
 29 30  1  0
 29 82  1  0
 29 83  1  0
 30 31  1  0
 30 32  1  0
 30 33  1  0
 31 84  1  0
 31 85  1  0
 31 86  1  0
 32 87  1  0
 32 88  1  0
 32 89  1  0
 33 34  1  0
 33 90  1  0
 33 91  1  0
 34 35  1  0
 34 92  1  0
 34 93  1  0
 35 36  1  6
 35 39  1  0
 36 37  2  0
 36 38  1  0
 38 94  1  0
 39 40  1  0
 39 95  1  1
 40 96  1  0
 40 97  1  0
 40 98  1  0
M  END
>  <i_m_ct_stereo_status>  (356) 
1

>  <s_m_source_file>  (356) 
/var/tmp/pbs.5102103.sched01/tmpr2ljwd0b/132iqlgd2x9.sdf

>  <i_m_source_file_index>  (356) 
5

>  <i_lp_mmshare_version>  (356) 
48012

>  <i_f3d_flags>  (356) 
0

>  <s_epik_input>  (356) 
W0NIMl0xQyhbQ0gzXSkoW0NIM10pW0NIMl1bQ0gyXVtDQF0oQyg9TylbT0hdKShbQ0BASF0oW0NIM10pW0NAQEhdMltDSDNdKVtDQEhdMVtDQF0oW0NIM10pKFtDSDJdW0NIMl0zKVtDQEBIXTJDKD1bQ0hdW0NIMl00KVtDQF0zKFtDSDNdKVtDQF0oW0NIM10pKFtDQEhdNFtDQEBdNTZbQ0gzXSlbQ0gyXVtDSDJdW0NAQEhdNkMoW0NIM10pKFtDSDNdKUMoPU8pW0NIMl1bQ0gyXTU=

>  <s_epik_cmdline>  (356) 
J2VwaWtfcHl0aG9uJywgJy1waHQnLCAnMi4wJywgJy1waCcsICc3LjAnLCAnLXRuJywgJzgnLCAnLW1hJywgJzIwMCcsICctaW1hZScsICc8aW5maWxlLm1hZT4nLCAnLW9tYWUnLCAnPG91dGZpbGUubWFlPic=

>  <r_lp_tautomer_probability>  (356) 
0.99995

>  <r_epik_Ionization_Penalty>  (356) 
2.48283

>  <r_epik_Ionization_Penalty_Charging>  (356) 
0

>  <r_epik_Ionization_Penalty_Neutral>  (356) 
2.48283

>  <r_epik_State_Penalty>  (356) 
2.64658

>  <r_epik_Charging_Adjusted_Penalty>  (356) 
2.64658

>  <i_epik_Tot_Q>  (356) 
0

>  <i_epik_Tot_abs_Q>  (356) 
0

>  <s_lp_Force_Field>  (356) 
OPLS3e

>  <r_lp_Energy>  (356) 
116.552

>  <b_lp_Chiralities_Consistent>  (356) 
1

>  <s_lp_Variant>  (356) 
85:0-2

>  <s_i_glide_gridfile>  (356) 
pfpi4k_grid

>  <i_i_glide_lignum>  (356) 
5

>  <i_i_glide_rotatable_bonds>  (356) 
2

>  <r_i_docking_score>  (356) 
-2.44095

>  <r_i_glide_ligand_efficiency>  (356) 
-0.0610237

>  <r_i_glide_ligand_efficiency_sa>  (356) 
-0.208698

>  <r_i_glide_ligand_efficiency_ln>  (356) 
-0.520582

>  <r_i_glide_gscore>  (356) 
-2.44095

>  <r_i_glide_lipo>  (356) 
-0.147062

>  <r_i_glide_hbond>  (356) 
-0.16

>  <r_i_glide_metal>  (356) 
-0

>  <r_i_glide_rewards>  (356) 
-0.0136818

>  <r_i_glide_evdw>  (356) 
-32.1665

>  <r_i_glide_ecoul>  (356) 
-3.32407

>  <r_i_glide_erotb>  (356) 
0.0683353

>  <r_i_glide_esite>  (356) 
-0.081604

>  <r_i_glide_emodel>  (356) 
-40.4992

>  <r_i_glide_energy>  (356) 
-35.4905

>  <r_i_glide_einternal>  (356) 
0.229523

>  <r_i_glide_intrahb_reward>  (356) 
-0

>  <i_i_glide_confnum>  (356) 
2

>  <i_i_glide_posenum>  (356) 
21

>  <r_i_glide_eff_state_penalty>  (356) 
0

>  <ligand_id>  (356) 
85

>  <original_smiles>  (356) 
CC1C2C3=CCC4C5(C)CCC(=O)C(C)(C)C5CCC4(C)C3(C)CCC2(C)C2CC(C)(C)CCC2(C(=O)O)C1C

>  <smiles>  (356) 
[H]OC(=O)C12C([H])([H])C([H])([H])C(C([H])([H])[H])(C([H])([H])[H])C([H])([H])C1([H])C1(C([H])([H])[H])C([H])([H])C([H])([H])C3(C([H])([H])[H])C(=C([H])C([H])([H])C4([H])C5(C([H])([H])[H])C([H])([H])C([H])([H])C(=O)C(C([H])([H])[H])(C([H])([H])[H])C5([H])C([H])([H])C([H])([H])C43C([H])([H])[H])C1([H])C([H])(C([H])([H])[H])C2([H])C([H])([H])[H]

$$$$
85:1:2
     RDKit          3D

 98103  0  0  1  0  0  0  0  0999 V2000
    3.7317   -4.8516    4.4909 C   0  0  0  0  0  0  0  0  0  0  0  0
    4.1868   -3.9617    3.3061 C   0  0  2  0  0  0  0  0  0  0  0  0
    3.3188   -2.6623    3.1901 C   0  0  1  0  0  0  0  0  0  0  0  0
    3.1268   -1.8884    4.5212 C   0  0  0  0  0  0  0  0  0  0  0  0
    2.0601   -2.1623    5.2891 C   0  0  0  0  0  0  0  0  0  0  0  0
    1.7549   -1.5456    6.6291 C   0  0  0  0  0  0  0  0  0  0  0  0
    2.7440   -0.4562    7.1650 C   0  0  2  0  0  0  0  0  0  0  0  0
    1.9911    0.4630    8.2370 C   0  0  1  0  0  0  0  0  0  0  0  0
    1.2900   -0.5196    9.2251 C   0  0  0  0  0  0  0  0  0  0  0  0
    2.9438    1.3342    9.1195 C   0  0  0  0  0  0  0  0  0  0  0  0
    2.2306    2.2705   10.1136 C   0  0  0  0  0  0  0  0  0  0  0  0
    1.2129    3.1563    9.3975 C   0  0  0  0  0  0  0  0  0  0  0  0
    1.1863    4.3688    9.6007 O   0  0  0  0  0  0  0  0  0  0  0  0
    0.2112    2.4577    8.4470 C   0  0  0  0  0  0  0  0  0  0  0  0
   -0.8755    1.7698    9.3105 C   0  0  0  0  0  0  0  0  0  0  0  0
   -0.5375    3.5300    7.6083 C   0  0  0  0  0  0  0  0  0  0  0  0
    0.9684    1.4260    7.5090 C   0  0  1  0  0  0  0  0  0  0  0  0
    1.6707    2.1128    6.3024 C   0  0  0  0  0  0  0  0  0  0  0  0
    2.4036    1.1652    5.3254 C   0  0  0  0  0  0  0  0  0  0  0  0
    3.4955    0.2624    5.9755 C   0  0  1  0  0  0  0  0  0  0  0  0
    4.6584    1.1734    6.4806 C   0  0  0  0  0  0  0  0  0  0  0  0
    4.1444   -0.8095    4.9573 C   0  0  1  0  0  0  0  0  0  0  0  0
    5.2887   -1.5858    5.6641 C   0  0  0  0  0  0  0  0  0  0  0  0
    4.7521   -0.0854    3.7004 C   0  0  0  0  0  0  0  0  0  0  0  0
    5.0032   -0.9747    2.4769 C   0  0  0  0  0  0  0  0  0  0  0  0
    3.7403   -1.7352    2.0156 C   0  0  2  0  0  0  0  0  0  0  0  0
    2.5992   -0.7079    1.7669 C   0  0  0  0  0  0  0  0  0  0  0  0
    3.9197   -2.5913    0.6931 C   0  0  1  0  0  0  0  0  0  0  0  0
    4.1230   -1.7600   -0.6087 C   0  0  0  0  0  0  0  0  0  0  0  0
    3.9938   -2.5834   -1.9134 C   0  0  0  0  0  0  0  0  0  0  0  0
    2.5480   -3.0723   -2.1607 C   0  0  0  0  0  0  0  0  0  0  0  0
    4.3771   -1.6988   -3.1087 C   0  0  0  0  0  0  0  0  0  0  0  0
    4.9651   -3.7725   -1.8203 C   0  0  0  0  0  0  0  0  0  0  0  0
    4.7208   -4.6380   -0.5685 C   0  0  0  0  0  0  0  0  0  0  0  0
    4.8358   -3.8738    0.7836 C   0  0  1  0  0  0  0  0  0  0  0  0
    6.3570   -3.5631    0.9625 C   0  0  0  0  0  0  0  0  0  0  0  0
    6.8839   -2.4906    0.6730 O   0  0  0  0  0  0  0  0  0  0  0  0
    7.0736   -4.6377    1.4027 O   0  0  0  0  0  0  0  0  0  0  0  0
    4.2142   -4.7421    1.9514 C   0  0  1  0  0  0  0  0  0  0  0  0
    4.7420   -6.2029    2.0816 C   0  0  0  0  0  0  0  0  0  0  0  0
    2.7160   -5.2290    4.3473 H   0  0  0  0  0  0  0  0  0  0  0  0
    3.7584   -4.3101    5.4371 H   0  0  0  0  0  0  0  0  0  0  0  0
    4.3941   -5.7070    4.6373 H   0  0  0  0  0  0  0  0  0  0  0  0
    5.2170   -3.6998    3.5242 H   0  0  0  0  0  0  0  0  0  0  0  0
    2.3224   -3.0236    2.9286 H   0  0  0  0  0  0  0  0  0  0  0  0
    1.3572   -2.9160    4.9664 H   0  0  0  0  0  0  0  0  0  0  0  0
    0.7461   -1.1551    6.5220 H   0  0  0  0  0  0  0  0  0  0  0  0
    1.6994   -2.3714    7.3374 H   0  0  0  0  0  0  0  0  0  0  0  0
    3.5098   -0.9945    7.7252 H   0  0  0  0  0  0  0  0  0  0  0  0
    1.0789   -0.0977   10.2030 H   0  0  0  0  0  0  0  0  0  0  0  0
    1.9301   -1.3775    9.4383 H   0  0  0  0  0  0  0  0  0  0  0  0
    0.3451   -0.8959    8.8338 H   0  0  0  0  0  0  0  0  0  0  0  0
    3.6650    0.7083    9.6463 H   0  0  0  0  0  0  0  0  0  0  0  0
    3.5237    2.0174    8.5173 H   0  0  0  0  0  0  0  0  0  0  0  0
    1.7257    1.7281   10.9092 H   0  0  0  0  0  0  0  0  0  0  0  0
    2.9587    2.9126   10.6074 H   0  0  0  0  0  0  0  0  0  0  0  0
   -1.3902    0.9907    8.7516 H   0  0  0  0  0  0  0  0  0  0  0  0
   -1.6331    2.4778    9.6500 H   0  0  0  0  0  0  0  0  0  0  0  0
   -0.4840    1.3246   10.2223 H   0  0  0  0  0  0  0  0  0  0  0  0
   -1.1769    3.0696    6.8533 H   0  0  0  0  0  0  0  0  0  0  0  0
    0.1515    4.2088    7.1017 H   0  0  0  0  0  0  0  0  0  0  0  0
   -1.1731    4.1611    8.2327 H   0  0  0  0  0  0  0  0  0  0  0  0
    0.1818    0.8176    7.0661 H   0  0  0  0  0  0  0  0  0  0  0  0
    0.9316    2.6288    5.6930 H   0  0  0  0  0  0  0  0  0  0  0  0
    2.3403    2.8950    6.6547 H   0  0  0  0  0  0  0  0  0  0  0  0
    1.6531    0.5470    4.8348 H   0  0  0  0  0  0  0  0  0  0  0  0
    2.8243    1.7950    4.5456 H   0  0  0  0  0  0  0  0  0  0  0  0
    5.4884    1.2630    5.7878 H   0  0  0  0  0  0  0  0  0  0  0  0
    5.0900    0.7948    7.4076 H   0  0  0  0  0  0  0  0  0  0  0  0
    4.3645    2.2076    6.6327 H   0  0  0  0  0  0  0  0  0  0  0  0
    6.0637   -0.9426    6.0698 H   0  0  0  0  0  0  0  0  0  0  0  0
    5.8033   -2.2512    4.9789 H   0  0  0  0  0  0  0  0  0  0  0  0
    4.9169   -2.2075    6.4780 H   0  0  0  0  0  0  0  0  0  0  0  0
    4.1432    0.7520    3.3707 H   0  0  0  0  0  0  0  0  0  0  0  0
    5.7186    0.3501    3.9438 H   0  0  0  0  0  0  0  0  0  0  0  0
    5.3990   -0.3682    1.6603 H   0  0  0  0  0  0  0  0  0  0  0  0
    5.7914   -1.6624    2.7647 H   0  0  0  0  0  0  0  0  0  0  0  0
    2.9387    0.1206    1.1402 H   0  0  0  0  0  0  0  0  0  0  0  0
    2.2242   -0.2548    2.6853 H   0  0  0  0  0  0  0  0  0  0  0  0
    1.7399   -1.1732    1.2796 H   0  0  0  0  0  0  0  0  0  0  0  0
    2.9200   -3.0003    0.5584 H   0  0  0  0  0  0  0  0  0  0  0  0
    3.3796   -0.9705   -0.6761 H   0  0  0  0  0  0  0  0  0  0  0  0
    5.0896   -1.2599   -0.5813 H   0  0  0  0  0  0  0  0  0  0  0  0
    2.4703   -3.6488   -3.0832 H   0  0  0  0  0  0  0  0  0  0  0  0
    1.8492   -2.2456   -2.2613 H   0  0  0  0  0  0  0  0  0  0  0  0
    2.1782   -3.7087   -1.3587 H   0  0  0  0  0  0  0  0  0  0  0  0
    4.3200   -2.2528   -4.0462 H   0  0  0  0  0  0  0  0  0  0  0  0
    5.3955   -1.3279   -2.9930 H   0  0  0  0  0  0  0  0  0  0  0  0
    3.7059   -0.8427   -3.1987 H   0  0  0  0  0  0  0  0  0  0  0  0
    4.8746   -4.3937   -2.7118 H   0  0  0  0  0  0  0  0  0  0  0  0
    5.9946   -3.4120   -1.8244 H   0  0  0  0  0  0  0  0  0  0  0  0
    3.7497   -5.1188   -0.6379 H   0  0  0  0  0  0  0  0  0  0  0  0
    5.4393   -5.4552   -0.6064 H   0  0  0  0  0  0  0  0  0  0  0  0
    7.9814   -4.4360    1.5460 H   0  0  0  0  0  0  0  0  0  0  0  0
    3.1692   -4.9014    1.6808 H   0  0  0  0  0  0  0  0  0  0  0  0
    5.7149   -6.2632    2.5709 H   0  0  0  0  0  0  0  0  0  0  0  0
    4.8182   -6.7102    1.1185 H   0  0  0  0  0  0  0  0  0  0  0  0
    4.0655   -6.8213    2.6757 H   0  0  0  0  0  0  0  0  0  0  0  0
  1  2  1  0
  1 41  1  0
  1 42  1  0
  1 43  1  0
  2 39  1  0
  2  3  1  0
  2 44  1  1
  3 26  1  0
  3  4  1  0
  3 45  1  6
  4 22  1  0
  4  5  2  0
  5  6  1  0
  5 46  1  0
  6  7  1  0
  6 47  1  0
  6 48  1  0
  7 20  1  0
  7  8  1  0
  7 49  1  1
  8 17  1  0
  8  9  1  1
  8 10  1  0
  9 50  1  0
  9 51  1  0
  9 52  1  0
 10 11  1  0
 10 53  1  0
 10 54  1  0
 11 12  1  0
 11 55  1  0
 11 56  1  0
 12 13  2  0
 12 14  1  0
 14 15  1  0
 14 16  1  0
 14 17  1  0
 15 57  1  0
 15 58  1  0
 15 59  1  0
 16 60  1  0
 16 61  1  0
 16 62  1  0
 17 18  1  0
 17 63  1  6
 18 19  1  0
 18 64  1  0
 18 65  1  0
 19 20  1  0
 19 66  1  0
 19 67  1  0
 20 21  1  1
 20 22  1  0
 21 68  1  0
 21 69  1  0
 21 70  1  0
 22 23  1  1
 22 24  1  0
 23 71  1  0
 23 72  1  0
 23 73  1  0
 24 25  1  0
 24 74  1  0
 24 75  1  0
 25 26  1  0
 25 76  1  0
 25 77  1  0
 26 27  1  6
 26 28  1  0
 27 78  1  0
 27 79  1  0
 27 80  1  0
 28 35  1  0
 28 29  1  0
 28 81  1  6
 29 30  1  0
 29 82  1  0
 29 83  1  0
 30 31  1  0
 30 32  1  0
 30 33  1  0
 31 84  1  0
 31 85  1  0
 31 86  1  0
 32 87  1  0
 32 88  1  0
 32 89  1  0
 33 34  1  0
 33 90  1  0
 33 91  1  0
 34 35  1  0
 34 92  1  0
 34 93  1  0
 35 36  1  1
 35 39  1  0
 36 37  2  0
 36 38  1  0
 38 94  1  0
 39 40  1  0
 39 95  1  6
 40 96  1  0
 40 97  1  0
 40 98  1  0
M  END
>  <i_m_ct_stereo_status>  (357) 
1

>  <s_m_source_file>  (357) 
/var/tmp/pbs.5102103.sched01/tmpr2ljwd0b/132iqlgd2x9.sdf

>  <i_m_source_file_index>  (357) 
5

>  <i_lp_mmshare_version>  (357) 
48012

>  <i_f3d_flags>  (357) 
0

>  <s_epik_input>  (357) 
W0NIMl0xQyhbQ0gzXSkoW0NIM10pW0NIMl1bQ0gyXVtDQF0oQyg9TylbT0hdKShbQ0BASF0oW0NIM10pW0NAQEhdMltDSDNdKVtDQEhdMVtDQF0oW0NIM10pKFtDSDJdW0NIMl0zKVtDQEBIXTJDKD1bQ0hdW0NIMl00KVtDQF0zKFtDSDNdKVtDQF0oW0NIM10pKFtDQEhdNFtDQEBdNTZbQ0gzXSlbQ0gyXVtDSDJdW0NAQEhdNkMoW0NIM10pKFtDSDNdKUMoPU8pW0NIMl1bQ0gyXTU=

>  <s_epik_cmdline>  (357) 
J2VwaWtfcHl0aG9uJywgJy1waHQnLCAnMi4wJywgJy1waCcsICc3LjAnLCAnLXRuJywgJzgnLCAnLW1hJywgJzIwMCcsICctaW1hZScsICc8aW5maWxlLm1hZT4nLCAnLW9tYWUnLCAnPG91dGZpbGUubWFlPic=

>  <r_lp_tautomer_probability>  (357) 
0.99995

>  <r_epik_Ionization_Penalty>  (357) 
2.48283

>  <r_epik_Ionization_Penalty_Charging>  (357) 
0

>  <r_epik_Ionization_Penalty_Neutral>  (357) 
2.48283

>  <r_epik_State_Penalty>  (357) 
2.64658

>  <r_epik_Charging_Adjusted_Penalty>  (357) 
2.64658

>  <i_epik_Tot_Q>  (357) 
0

>  <i_epik_Tot_abs_Q>  (357) 
0

>  <s_lp_Force_Field>  (357) 
OPLS3e

>  <r_lp_Energy>  (357) 
116.552

>  <b_lp_Chiralities_Consistent>  (357) 
1

>  <s_lp_Variant>  (357) 
85:0-2

>  <s_i_glide_gridfile>  (357) 
pfpi4k_grid

>  <i_i_glide_lignum>  (357) 
5

>  <i_i_glide_rotatable_bonds>  (357) 
2

>  <r_i_docking_score>  (357) 
-2.05155

>  <r_i_glide_ligand_efficiency>  (357) 
-0.0512886

>  <r_i_glide_ligand_efficiency_sa>  (357) 
-0.175405

>  <r_i_glide_ligand_efficiency_ln>  (357) 
-0.437534

>  <r_i_glide_gscore>  (357) 
-2.05155

>  <r_i_glide_lipo>  (357) 
-0.349486

>  <r_i_glide_hbond>  (357) 
0

>  <r_i_glide_metal>  (357) 
-0

>  <r_i_glide_rewards>  (357) 
-0.116013

>  <r_i_glide_evdw>  (357) 
-31.7673

>  <r_i_glide_ecoul>  (357) 
-0.440117

>  <r_i_glide_erotb>  (357) 
0.0683353

>  <r_i_glide_esite>  (357) 
0

>  <r_i_glide_emodel>  (357) 
-36.3764

>  <r_i_glide_energy>  (357) 
-32.2074

>  <r_i_glide_einternal>  (357) 
0.0157345

>  <r_i_glide_intrahb_reward>  (357) 
-0

>  <i_i_glide_confnum>  (357) 
1

>  <i_i_glide_posenum>  (357) 
27

>  <r_i_glide_eff_state_penalty>  (357) 
0

>  <ligand_id>  (357) 
85

>  <original_smiles>  (357) 
CC1C2C3=CCC4C5(C)CCC(=O)C(C)(C)C5CCC4(C)C3(C)CCC2(C)C2CC(C)(C)CCC2(C(=O)O)C1C

>  <smiles>  (357) 
[H]OC(=O)C12C([H])([H])C([H])([H])C(C([H])([H])[H])(C([H])([H])[H])C([H])([H])C1([H])C1(C([H])([H])[H])C([H])([H])C([H])([H])C3(C([H])([H])[H])C(=C([H])C([H])([H])C4([H])C5(C([H])([H])[H])C([H])([H])C([H])([H])C(=O)C(C([H])([H])[H])(C([H])([H])[H])C5([H])C([H])([H])C([H])([H])C43C([H])([H])[H])C1([H])C([H])(C([H])([H])[H])C2([H])C([H])([H])[H]

$$$$
86:0:0
     RDKit          3D

 82 85  0  0  1  0  0  0  0  0999 V2000
   -0.1820    4.2038    5.8913 C   0  0  0  0  0  0  0  0  0  0  0  0
   -1.2082    3.1625    6.3955 C   0  0  0  0  0  0  0  0  0  0  0  0
   -1.8803    3.5799    7.6917 C   0  0  0  0  0  0  0  0  0  0  0  0
   -1.5334    1.9778    5.8255 C   0  0  0  0  0  0  0  0  0  0  0  0
   -1.0049    1.2827    4.5699 C   0  0  0  0  0  0  0  0  0  0  0  0
    0.0880    2.0909    3.8478 C   0  0  0  0  0  0  0  0  0  0  0  0
    0.9308    1.4589    2.7263 C   0  0  1  0  0  0  0  0  0  0  0  0
   -0.0381    0.9248    1.6573 C   0  0  0  0  0  0  0  0  0  0  0  0
    1.6801    2.5069    2.1494 O   0  0  0  0  0  0  0  0  0  0  0  0
    1.8803    0.3716    3.3138 C   0  0  2  0  0  0  0  0  0  0  0  0
    2.9270    0.8415    4.3414 C   0  0  0  0  0  0  0  0  0  0  0  0
    4.1599   -0.0515    4.1301 C   0  0  0  0  0  0  0  0  0  0  0  0
    3.7293   -1.2696    3.2491 C   0  0  1  0  0  0  0  0  0  0  0  0
    3.0270   -2.2400    4.2440 C   0  0  0  0  0  0  0  0  0  0  0  0
    2.6316   -0.5964    2.3689 C   0  0  2  0  0  0  0  0  0  0  0  0
    3.2629    0.0509    1.1308 C   0  0  0  0  0  0  0  0  0  0  0  0
    3.7935   -1.0249    0.1894 C   0  0  1  0  0  0  0  0  0  0  0  0
    4.6363   -0.4573   -0.7747 O   0  0  0  0  0  0  0  0  0  0  0  0
    4.5312   -2.2165    0.8597 C   0  0  1  0  0  0  0  0  0  0  0  0
    4.9078   -1.9524    2.3698 C   0  0  1  0  0  0  0  0  0  0  0  0
    6.1548   -1.0084    2.2975 C   0  0  0  0  0  0  0  0  0  0  0  0
    5.5184   -3.2584    2.9641 C   0  0  0  0  0  0  0  0  0  0  0  0
    4.9323   -4.6326    2.5996 C   0  0  1  0  0  0  0  0  0  0  0  0
    3.8127   -4.9359    3.3995 O   0  0  0  0  0  0  0  0  0  0  0  0
    4.7467   -4.8401    1.0649 C   0  0  1  0  0  0  0  0  0  0  0  0
    6.1538   -5.0850    0.4491 C   0  0  0  0  0  0  0  0  0  0  0  0
    3.8178   -6.0439    0.7198 C   0  0  1  0  0  0  0  0  0  0  0  0
    4.0229   -7.3656    1.4916 C   0  0  0  0  0  0  0  0  0  0  0  0
    2.3872   -5.4758    0.7473 C   0  0  0  0  0  0  0  0  0  0  0  0
    2.5291   -3.9418    0.7333 C   0  0  0  0  0  0  0  0  0  0  0  0
    4.0029   -3.6265    0.3993 C   0  0  1  0  0  0  0  0  0  0  0  0
    4.1294   -3.6683   -1.1579 C   0  0  0  0  0  0  0  0  0  0  0  0
   -0.6571    5.1844    5.9681 H   0  0  0  0  0  0  0  0  0  0  0  0
    0.1727    4.0920    4.9040 H   0  0  0  0  0  0  0  0  0  0  0  0
    0.6725    4.1714    6.5715 H   0  0  0  0  0  0  0  0  0  0  0  0
   -1.1217    3.7227    8.4739 H   0  0  0  0  0  0  0  0  0  0  0  0
   -2.6291    2.8593    8.0748 H   0  0  0  0  0  0  0  0  0  0  0  0
   -2.3818    4.5423    7.5522 H   0  0  0  0  0  0  0  0  0  0  0  0
   -2.2991    1.3592    6.3134 H   0  0  0  0  0  0  0  0  0  0  0  0
   -0.6290    0.3086    4.8635 H   0  0  0  0  0  0  0  0  0  0  0  0
   -1.8447    1.1117    3.8940 H   0  0  0  0  0  0  0  0  0  0  0  0
   -0.3883    2.9767    3.4230 H   0  0  0  0  0  0  0  0  0  0  0  0
    0.7986    2.4319    4.5926 H   0  0  0  0  0  0  0  0  0  0  0  0
   -0.7666    0.2256    2.0755 H   0  0  0  0  0  0  0  0  0  0  0  0
    0.4867    0.4123    0.8761 H   0  0  0  0  0  0  0  0  0  0  0  0
   -0.5931    1.7310    1.1800 H   0  0  0  0  0  0  0  0  0  0  0  0
    1.0792    3.1489    1.7182 H   0  0  0  0  0  0  0  0  0  0  0  0
    1.2142   -0.2802    3.8673 H   0  0  0  0  0  0  0  0  0  0  0  0
    3.1929    1.8888    4.2179 H   0  0  0  0  0  0  0  0  0  0  0  0
    2.5418    0.7401    5.3574 H   0  0  0  0  0  0  0  0  0  0  0  0
    4.8801    0.6028    3.6431 H   0  0  0  0  0  0  0  0  0  0  0  0
    4.6115   -0.3586    5.0746 H   0  0  0  0  0  0  0  0  0  0  0  0
    2.3761   -2.9522    3.7478 H   0  0  0  0  0  0  0  0  0  0  0  0
    2.3779   -1.7288    4.9526 H   0  0  0  0  0  0  0  0  0  0  0  0
    3.7285   -2.7736    4.8791 H   0  0  0  0  0  0  0  0  0  0  0  0
    1.9038   -1.3324    2.0185 H   0  0  0  0  0  0  0  0  0  0  0  0
    2.5149    0.6205    0.5905 H   0  0  0  0  0  0  0  0  0  0  0  0
    4.0113    0.7838    1.4221 H   0  0  0  0  0  0  0  0  0  0  0  0
    2.9273   -1.3869   -0.3559 H   0  0  0  0  0  0  0  0  0  0  0  0
    4.8283    0.4510   -0.5418 H   0  0  0  0  0  0  0  0  0  0  0  0
    5.5036   -2.2325    0.3646 H   0  0  0  0  0  0  0  0  0  0  0  0
    6.9734   -1.4280    1.7106 H   0  0  0  0  0  0  0  0  0  0  0  0
    6.5766   -0.7859    3.2760 H   0  0  0  0  0  0  0  0  0  0  0  0
    5.9487   -0.0551    1.8231 H   0  0  0  0  0  0  0  0  0  0  0  0
    6.5150   -3.3403    2.5259 H   0  0  0  0  0  0  0  0  0  0  0  0
    5.6709   -3.1702    4.0360 H   0  0  0  0  0  0  0  0  0  0  0  0
    5.6545   -5.3778    2.9430 H   0  0  0  0  0  0  0  0  0  0  0  0
    3.1271   -4.3010    3.1860 H   0  0  0  0  0  0  0  0  0  0  0  0
    6.0774   -5.3739   -0.5944 H   0  0  0  0  0  0  0  0  0  0  0  0
    6.6817   -5.8937    0.9543 H   0  0  0  0  0  0  0  0  0  0  0  0
    6.7923   -4.2037    0.4916 H   0  0  0  0  0  0  0  0  0  0  0  0
    4.0081   -6.3287   -0.3107 H   0  0  0  0  0  0  0  0  0  0  0  0
    3.7380   -7.2976    2.5385 H   0  0  0  0  0  0  0  0  0  0  0  0
    5.0629   -7.6878    1.4497 H   0  0  0  0  0  0  0  0  0  0  0  0
    3.4240   -8.1640    1.0513 H   0  0  0  0  0  0  0  0  0  0  0  0
    1.8252   -5.8286   -0.1201 H   0  0  0  0  0  0  0  0  0  0  0  0
    1.8462   -5.8034    1.6339 H   0  0  0  0  0  0  0  0  0  0  0  0
    1.8332   -3.4741    0.0364 H   0  0  0  0  0  0  0  0  0  0  0  0
    2.2819   -3.5571    1.7156 H   0  0  0  0  0  0  0  0  0  0  0  0
    3.9038   -4.6518   -1.5406 H   0  0  0  0  0  0  0  0  0  0  0  0
    5.1300   -3.4246   -1.5169 H   0  0  0  0  0  0  0  0  0  0  0  0
    3.4425   -2.9942   -1.6692 H   0  0  0  0  0  0  0  0  0  0  0  0
  1  2  1  0
  1 33  1  0
  1 34  1  0
  1 35  1  0
  2  3  1  0
  2  4  2  3
  3 36  1  0
  3 37  1  0
  3 38  1  0
  4  5  1  0
  4 39  1  0
  5  6  1  0
  5 40  1  0
  5 41  1  0
  6  7  1  0
  6 42  1  0
  6 43  1  0
  7  8  1  0
  7  9  1  6
  7 10  1  0
  8 44  1  0
  8 45  1  0
  8 46  1  0
  9 47  1  0
 10 15  1  0
 10 11  1  0
 10 48  1  1
 11 12  1  0
 11 49  1  0
 11 50  1  0
 12 13  1  0
 12 51  1  0
 12 52  1  0
 13 20  1  0
 13 14  1  1
 13 15  1  0
 14 53  1  0
 14 54  1  0
 14 55  1  0
 15 16  1  0
 15 56  1  6
 16 17  1  0
 16 57  1  0
 16 58  1  0
 17 18  1  0
 17 19  1  0
 17 59  1  6
 18 60  1  0
 19 31  1  0
 19 20  1  0
 19 61  1  6
 20 21  1  6
 20 22  1  0
 21 62  1  0
 21 63  1  0
 21 64  1  0
 22 23  1  0
 22 65  1  0
 22 66  1  0
 23 24  1  0
 23 25  1  0
 23 67  1  1
 24 68  1  0
 25 31  1  0
 25 26  1  6
 25 27  1  0
 26 69  1  0
 26 70  1  0
 26 71  1  0
 27 28  1  0
 27 29  1  0
 27 72  1  6
 28 73  1  0
 28 74  1  0
 28 75  1  0
 29 30  1  0
 29 76  1  0
 29 77  1  0
 30 31  1  0
 30 78  1  0
 30 79  1  0
 31 32  1  6
 32 80  1  0
 32 81  1  0
 32 82  1  0
M  END
>  <i_m_ct_stereo_status>  (358) 
1

>  <s_m_source_file>  (358) 
/var/tmp/pbs.5102103.sched01/tmpr2ljwd0b/132iqlgd2x9.sdf

>  <i_m_source_file_index>  (358) 
6

>  <i_lp_mmshare_version>  (358) 
48012

>  <i_f3d_flags>  (358) 
0

>  <s_epik_input>  (358) 
W0NIM11DKFtDSDNdKT1bQ0hdW0NIMl1bQ0gyXVtDQEBdKFtDSDNdKShbT0hdKVtDQEhdKFtDSDJdW0NIMl0xKVtDQEhdKFtDQF0xMltDSDNdKVtDSDJdW0NAQEhdKFtPSF0pW0NASF0zW0NAXTIoW0NIM10pW0NIMl1bQ0BASF0oW09IXSlbQ0BdNChbQ0gzXSlbQ0BAXTMoW0NIM10pW0NIMl1bQ0gyXVtDQEBIXTRbQ0gzXQ==

>  <s_epik_cmdline>  (358) 
J2VwaWtfcHl0aG9uJywgJy1waHQnLCAnMi4wJywgJy1waCcsICc3LjAnLCAnLXRuJywgJzgnLCAnLW1hJywgJzIwMCcsICctaW1hZScsICc8aW5maWxlLm1hZT4nLCAnLW9tYWUnLCAnPG91dGZpbGUubWFlPic=

>  <r_lp_tautomer_probability>  (358) 
1

>  <r_epik_Ionization_Penalty>  (358) 
5.42517e-06

>  <r_epik_Ionization_Penalty_Charging>  (358) 
0

>  <r_epik_Ionization_Penalty_Neutral>  (358) 
5.42517e-06

>  <r_epik_State_Penalty>  (358) 
-0

>  <r_epik_Charging_Adjusted_Penalty>  (358) 
0

>  <i_epik_Tot_Q>  (358) 
0

>  <i_epik_Tot_abs_Q>  (358) 
0

>  <s_lp_Force_Field>  (358) 
OPLS3e

>  <r_lp_Energy>  (358) 
80.6171

>  <b_lp_Chiralities_Consistent>  (358) 
1

>  <s_lp_Variant>  (358) 
86:0-1

>  <s_i_glide_gridfile>  (358) 
pfpi4k_grid

>  <i_i_glide_lignum>  (358) 
6

>  <i_i_glide_rotatable_bonds>  (358) 
7

>  <r_i_docking_score>  (358) 
-2.73488

>  <r_i_glide_ligand_efficiency>  (358) 
-0.085465

>  <r_i_glide_ligand_efficiency_sa>  (358) 
-0.271334

>  <r_i_glide_ligand_efficiency_ln>  (358) 
-0.612414

>  <r_i_glide_gscore>  (358) 
-2.73488

>  <r_i_glide_lipo>  (358) 
-0.575984

>  <r_i_glide_hbond>  (358) 
-0.428756

>  <r_i_glide_metal>  (358) 
-0

>  <r_i_glide_rewards>  (358) 
-0.363372

>  <r_i_glide_evdw>  (358) 
-16.1729

>  <r_i_glide_ecoul>  (358) 
-6.39605

>  <r_i_glide_erotb>  (358) 
0.401284

>  <r_i_glide_esite>  (358) 
0

>  <r_i_glide_emodel>  (358) 
-23.367

>  <r_i_glide_energy>  (358) 
-22.5689

>  <r_i_glide_einternal>  (358) 
2.36026

>  <r_i_glide_intrahb_reward>  (358) 
-0

>  <i_i_glide_confnum>  (358) 
2

>  <i_i_glide_posenum>  (358) 
9

>  <r_i_glide_eff_state_penalty>  (358) 
0

>  <ligand_id>  (358) 
86

>  <original_smiles>  (358) 
CC(C)=CCCC(C)(O)C1CCC2(C)C1CC(O)C1C2(C)CC(O)C2(C)C(C)CCC12C

>  <smiles>  (358) 
[H]OC1([H])C([H])([H])C2([H])C([H])(C(O[H])(C([H])([H])[H])C([H])([H])C([H])([H])C([H])=C(C([H])([H])[H])C([H])([H])[H])C([H])([H])C([H])([H])C2(C([H])([H])[H])C2(C([H])([H])[H])C([H])([H])C([H])(O[H])C3(C([H])([H])[H])C([H])(C([H])([H])[H])C([H])([H])C([H])([H])C3(C([H])([H])[H])C12[H]

$$$$
86:0:1
     RDKit          3D

 82 85  0  0  1  0  0  0  0  0999 V2000
    0.1179    5.7124    3.8516 C   0  0  0  0  0  0  0  0  0  0  0  0
   -0.4439    4.9292    5.0247 C   0  0  0  0  0  0  0  0  0  0  0  0
   -0.1430    5.5446    6.3763 C   0  0  0  0  0  0  0  0  0  0  0  0
   -1.1409    3.7805    4.9189 C   0  0  0  0  0  0  0  0  0  0  0  0
   -1.4866    2.9995    3.6599 C   0  0  0  0  0  0  0  0  0  0  0  0
   -1.1096    1.5038    3.7603 C   0  0  0  0  0  0  0  0  0  0  0  0
    0.3697    1.1269    3.4385 C   0  0  1  0  0  0  0  0  0  0  0  0
    0.6741    1.4254    1.9519 C   0  0  0  0  0  0  0  0  0  0  0  0
    1.2137    1.9433    4.2246 O   0  0  0  0  0  0  0  0  0  0  0  0
    0.6452   -0.3707    3.7986 C   0  0  2  0  0  0  0  0  0  0  0  0
    0.4794   -0.7708    5.2777 C   0  0  0  0  0  0  0  0  0  0  0  0
    1.5307   -1.8618    5.5557 C   0  0  0  0  0  0  0  0  0  0  0  0
    2.0762   -2.3744    4.1845 C   0  0  1  0  0  0  0  0  0  0  0  0
    0.9865   -3.3651    3.6915 C   0  0  0  0  0  0  0  0  0  0  0  0
    1.9662   -1.0625    3.3426 C   0  0  2  0  0  0  0  0  0  0  0  0
    3.2485   -0.2303    3.5150 C   0  0  0  0  0  0  0  0  0  0  0  0
    4.4247   -0.9268    2.8292 C   0  0  1  0  0  0  0  0  0  0  0  0
    5.6114   -0.2685    3.2351 O   0  0  0  0  0  0  0  0  0  0  0  0
    4.5301   -2.4701    3.0627 C   0  0  1  0  0  0  0  0  0  0  0  0
    3.5784   -3.0096    4.2099 C   0  0  1  0  0  0  0  0  0  0  0  0
    4.3040   -2.6181    5.5415 C   0  0  0  0  0  0  0  0  0  0  0  0
    3.6533   -4.5779    4.2639 C   0  0  0  0  0  0  0  0  0  0  0  0
    3.7264   -5.3724    2.9441 C   0  0  1  0  0  0  0  0  0  0  0  0
    2.4388   -5.5616    2.3988 O   0  0  0  0  0  0  0  0  0  0  0  0
    4.8080   -4.8512    1.9435 C   0  0  1  0  0  0  0  0  0  0  0  0
    6.1938   -5.2966    2.4779 C   0  0  0  0  0  0  0  0  0  0  0  0
    4.6094   -5.4106    0.5022 C   0  0  1  0  0  0  0  0  0  0  0  0
    4.3032   -6.9122    0.3375 C   0  0  0  0  0  0  0  0  0  0  0  0
    3.6170   -4.4526   -0.1832 C   0  0  0  0  0  0  0  0  0  0  0  0
    3.5462   -3.1963    0.7080 C   0  0  0  0  0  0  0  0  0  0  0  0
    4.7051   -3.2993    1.7245 C   0  0  1  0  0  0  0  0  0  0  0  0
    5.9805   -2.7487    1.0041 C   0  0  0  0  0  0  0  0  0  0  0  0
   -0.1644    6.7623    3.9330 H   0  0  0  0  0  0  0  0  0  0  0  0
   -0.2273    5.3588    2.8829 H   0  0  0  0  0  0  0  0  0  0  0  0
    1.2060    5.6606    3.8600 H   0  0  0  0  0  0  0  0  0  0  0  0
    0.9362    5.6110    6.5176 H   0  0  0  0  0  0  0  0  0  0  0  0
   -0.5488    4.9530    7.1979 H   0  0  0  0  0  0  0  0  0  0  0  0
   -0.5553    6.5513    6.4469 H   0  0  0  0  0  0  0  0  0  0  0  0
   -1.5063    3.3267    5.8302 H   0  0  0  0  0  0  0  0  0  0  0  0
   -2.5630    3.0896    3.5247 H   0  0  0  0  0  0  0  0  0  0  0  0
   -1.0523    3.4380    2.7666 H   0  0  0  0  0  0  0  0  0  0  0  0
   -1.4073    1.1364    4.7453 H   0  0  0  0  0  0  0  0  0  0  0  0
   -1.7488    0.9646    3.0591 H   0  0  0  0  0  0  0  0  0  0  0  0
   -0.0388    0.9362    1.2890 H   0  0  0  0  0  0  0  0  0  0  0  0
    1.6657    1.1116    1.6353 H   0  0  0  0  0  0  0  0  0  0  0  0
    0.6283    2.4907    1.7461 H   0  0  0  0  0  0  0  0  0  0  0  0
    1.0792    2.8407    3.9535 H   0  0  0  0  0  0  0  0  0  0  0  0
   -0.1424   -0.9058    3.2714 H   0  0  0  0  0  0  0  0  0  0  0  0
    0.6303    0.0706    5.9567 H   0  0  0  0  0  0  0  0  0  0  0  0
   -0.5285   -1.1493    5.4587 H   0  0  0  0  0  0  0  0  0  0  0  0
    2.2845   -1.3596    6.1583 H   0  0  0  0  0  0  0  0  0  0  0  0
    1.1364   -2.6697    6.1758 H   0  0  0  0  0  0  0  0  0  0  0  0
    1.0512   -3.5495    2.6278 H   0  0  0  0  0  0  0  0  0  0  0  0
   -0.0235   -2.9970    3.8548 H   0  0  0  0  0  0  0  0  0  0  0  0
    1.0015   -4.3167    4.2158 H   0  0  0  0  0  0  0  0  0  0  0  0
    1.8648   -1.2962    2.2832 H   0  0  0  0  0  0  0  0  0  0  0  0
    3.1714    0.7573    3.0685 H   0  0  0  0  0  0  0  0  0  0  0  0
    3.4405   -0.0334    4.5671 H   0  0  0  0  0  0  0  0  0  0  0  0
    4.2943   -0.7314    1.7667 H   0  0  0  0  0  0  0  0  0  0  0  0
    6.3288   -0.5799    2.7049 H   0  0  0  0  0  0  0  0  0  0  0  0
    5.5225   -2.6132    3.4862 H   0  0  0  0  0  0  0  0  0  0  0  0
    5.3201   -3.0166    5.5946 H   0  0  0  0  0  0  0  0  0  0  0  0
    3.7849   -3.0157    6.4154 H   0  0  0  0  0  0  0  0  0  0  0  0
    4.4216   -1.5451    5.6714 H   0  0  0  0  0  0  0  0  0  0  0  0
    4.5724   -4.8645    4.7752 H   0  0  0  0  0  0  0  0  0  0  0  0
    2.8865   -4.9866    4.9184 H   0  0  0  0  0  0  0  0  0  0  0  0
    4.0018   -6.3890    3.2210 H   0  0  0  0  0  0  0  0  0  0  0  0
    2.5173   -6.1906    1.6943 H   0  0  0  0  0  0  0  0  0  0  0  0
    6.9989   -5.0899    1.7741 H   0  0  0  0  0  0  0  0  0  0  0  0
    6.2207   -6.3690    2.6670 H   0  0  0  0  0  0  0  0  0  0  0  0
    6.4373   -4.7992    3.4132 H   0  0  0  0  0  0  0  0  0  0  0  0
    5.5544   -5.2929   -0.0261 H   0  0  0  0  0  0  0  0  0  0  0  0
    3.3168   -7.1995    0.6921 H   0  0  0  0  0  0  0  0  0  0  0  0
    5.0350   -7.5247    0.8637 H   0  0  0  0  0  0  0  0  0  0  0  0
    4.3558   -7.1852   -0.7177 H   0  0  0  0  0  0  0  0  0  0  0  0
    3.9656   -4.2029   -1.1868 H   0  0  0  0  0  0  0  0  0  0  0  0
    2.6263   -4.8977   -0.2910 H   0  0  0  0  0  0  0  0  0  0  0  0
    3.5671   -2.2793    0.1187 H   0  0  0  0  0  0  0  0  0  0  0  0
    2.5932   -3.1921    1.2228 H   0  0  0  0  0  0  0  0  0  0  0  0
    6.2560   -3.3094    0.1140 H   0  0  0  0  0  0  0  0  0  0  0  0
    6.8493   -2.7500    1.6599 H   0  0  0  0  0  0  0  0  0  0  0  0
    5.8511   -1.7263    0.6564 H   0  0  0  0  0  0  0  0  0  0  0  0
  1  2  1  0
  1 33  1  0
  1 34  1  0
  1 35  1  0
  2  3  1  0
  2  4  2  3
  3 36  1  0
  3 37  1  0
  3 38  1  0
  4  5  1  0
  4 39  1  0
  5  6  1  0
  5 40  1  0
  5 41  1  0
  6  7  1  0
  6 42  1  0
  6 43  1  0
  7  8  1  0
  7  9  1  1
  7 10  1  0
  8 44  1  0
  8 45  1  0
  8 46  1  0
  9 47  1  0
 10 15  1  0
 10 11  1  0
 10 48  1  6
 11 12  1  0
 11 49  1  0
 11 50  1  0
 12 13  1  0
 12 51  1  0
 12 52  1  0
 13 20  1  0
 13 14  1  6
 13 15  1  0
 14 53  1  0
 14 54  1  0
 14 55  1  0
 15 16  1  0
 15 56  1  6
 16 17  1  0
 16 57  1  0
 16 58  1  0
 17 18  1  0
 17 19  1  0
 17 59  1  6
 18 60  1  0
 19 31  1  0
 19 20  1  0
 19 61  1  1
 20 21  1  1
 20 22  1  0
 21 62  1  0
 21 63  1  0
 21 64  1  0
 22 23  1  0
 22 65  1  0
 22 66  1  0
 23 24  1  0
 23 25  1  0
 23 67  1  1
 24 68  1  0
 25 31  1  0
 25 26  1  1
 25 27  1  0
 26 69  1  0
 26 70  1  0
 26 71  1  0
 27 28  1  0
 27 29  1  0
 27 72  1  6
 28 73  1  0
 28 74  1  0
 28 75  1  0
 29 30  1  0
 29 76  1  0
 29 77  1  0
 30 31  1  0
 30 78  1  0
 30 79  1  0
 31 32  1  6
 32 80  1  0
 32 81  1  0
 32 82  1  0
M  END
>  <i_m_ct_stereo_status>  (359) 
1

>  <s_m_source_file>  (359) 
/var/tmp/pbs.5102103.sched01/tmpr2ljwd0b/132iqlgd2x9.sdf

>  <i_m_source_file_index>  (359) 
6

>  <i_lp_mmshare_version>  (359) 
48012

>  <i_f3d_flags>  (359) 
0

>  <s_epik_input>  (359) 
W0NIM11DKFtDSDNdKT1bQ0hdW0NIMl1bQ0gyXVtDQEBdKFtDSDNdKShbT0hdKVtDQEhdKFtDSDJdW0NIMl0xKVtDQEhdKFtDQF0xMltDSDNdKVtDSDJdW0NAQEhdKFtPSF0pW0NASF0zW0NAXTIoW0NIM10pW0NIMl1bQ0BASF0oW09IXSlbQ0BdNChbQ0gzXSlbQ0BAXTMoW0NIM10pW0NIMl1bQ0gyXVtDQEBIXTRbQ0gzXQ==

>  <s_epik_cmdline>  (359) 
J2VwaWtfcHl0aG9uJywgJy1waHQnLCAnMi4wJywgJy1waCcsICc3LjAnLCAnLXRuJywgJzgnLCAnLW1hJywgJzIwMCcsICctaW1hZScsICc8aW5maWxlLm1hZT4nLCAnLW9tYWUnLCAnPG91dGZpbGUubWFlPic=

>  <r_lp_tautomer_probability>  (359) 
1

>  <r_epik_Ionization_Penalty>  (359) 
5.42517e-06

>  <r_epik_Ionization_Penalty_Charging>  (359) 
0

>  <r_epik_Ionization_Penalty_Neutral>  (359) 
5.42517e-06

>  <r_epik_State_Penalty>  (359) 
-0

>  <r_epik_Charging_Adjusted_Penalty>  (359) 
0

>  <i_epik_Tot_Q>  (359) 
0

>  <i_epik_Tot_abs_Q>  (359) 
0

>  <s_lp_Force_Field>  (359) 
OPLS3e

>  <r_lp_Energy>  (359) 
80.6171

>  <b_lp_Chiralities_Consistent>  (359) 
1

>  <s_lp_Variant>  (359) 
86:0-1

>  <s_i_glide_gridfile>  (359) 
pfpi4k_grid

>  <i_i_glide_lignum>  (359) 
6

>  <i_i_glide_rotatable_bonds>  (359) 
7

>  <r_i_docking_score>  (359) 
-1.94435

>  <r_i_glide_ligand_efficiency>  (359) 
-0.0607609

>  <r_i_glide_ligand_efficiency_sa>  (359) 
-0.192904

>  <r_i_glide_ligand_efficiency_ln>  (359) 
-0.435393

>  <r_i_glide_gscore>  (359) 
-1.94435

>  <r_i_glide_lipo>  (359) 
-0.510592

>  <r_i_glide_hbond>  (359) 
0

>  <r_i_glide_metal>  (359) 
-0

>  <r_i_glide_rewards>  (359) 
-0.363372

>  <r_i_glide_evdw>  (359) 
-22.1681

>  <r_i_glide_ecoul>  (359) 
-2.42177

>  <r_i_glide_erotb>  (359) 
0.401284

>  <r_i_glide_esite>  (359) 
0

>  <r_i_glide_emodel>  (359) 
-25.9082

>  <r_i_glide_energy>  (359) 
-24.5898

>  <r_i_glide_einternal>  (359) 
3.53136

>  <r_i_glide_intrahb_reward>  (359) 
-0

>  <i_i_glide_confnum>  (359) 
4

>  <i_i_glide_posenum>  (359) 
24

>  <r_i_glide_eff_state_penalty>  (359) 
0

>  <ligand_id>  (359) 
86

>  <original_smiles>  (359) 
CC(C)=CCCC(C)(O)C1CCC2(C)C1CC(O)C1C2(C)CC(O)C2(C)C(C)CCC12C

>  <smiles>  (359) 
[H]OC1([H])C([H])([H])C2([H])C([H])(C(O[H])(C([H])([H])[H])C([H])([H])C([H])([H])C([H])=C(C([H])([H])[H])C([H])([H])[H])C([H])([H])C([H])([H])C2(C([H])([H])[H])C2(C([H])([H])[H])C([H])([H])C([H])(O[H])C3(C([H])([H])[H])C([H])(C([H])([H])[H])C([H])([H])C([H])([H])C3(C([H])([H])[H])C12[H]

$$$$
86:0:2
     RDKit          3D

 82 85  0  0  1  0  0  0  0  0999 V2000
   -0.1465    4.6572    6.9874 C   0  0  0  0  0  0  0  0  0  0  0  0
   -1.5200    4.0266    6.8466 C   0  0  0  0  0  0  0  0  0  0  0  0
   -2.4061    4.2325    8.0668 C   0  0  0  0  0  0  0  0  0  0  0  0
   -1.9522    3.3298    5.7723 C   0  0  0  0  0  0  0  0  0  0  0  0
   -1.1866    2.9997    4.4945 C   0  0  0  0  0  0  0  0  0  0  0  0
   -0.9020    1.4800    4.3747 C   0  0  0  0  0  0  0  0  0  0  0  0
    0.4841    1.0757    3.7884 C   0  0  1  0  0  0  0  0  0  0  0  0
    0.5370    1.4186    2.2846 C   0  0  0  0  0  0  0  0  0  0  0  0
    1.4573    1.8359    4.4769 O   0  0  0  0  0  0  0  0  0  0  0  0
    0.7890   -0.4402    4.0371 C   0  0  2  0  0  0  0  0  0  0  0  0
    0.7191   -0.9082    5.5030 C   0  0  0  0  0  0  0  0  0  0  0  0
    1.7872   -1.9996    5.6721 C   0  0  0  0  0  0  0  0  0  0  0  0
    2.2574   -2.4435    4.2511 C   0  0  1  0  0  0  0  0  0  0  0  0
    1.1466   -3.4173    3.7727 C   0  0  0  0  0  0  0  0  0  0  0  0
    2.0889   -1.0998    3.4710 C   0  0  2  0  0  0  0  0  0  0  0  0
    3.3725   -0.2642    3.5955 C   0  0  0  0  0  0  0  0  0  0  0  0
    4.5260   -0.9206    2.8420 C   0  0  1  0  0  0  0  0  0  0  0  0
    5.7185   -0.2577    3.2246 O   0  0  0  0  0  0  0  0  0  0  0  0
    4.6545   -2.4685    3.0077 C   0  0  1  0  0  0  0  0  0  0  0  0
    3.7634   -3.0662    4.1736 C   0  0  1  0  0  0  0  0  0  0  0  0
    4.5521   -2.7286    5.4842 C   0  0  0  0  0  0  0  0  0  0  0  0
    3.8500   -4.6342    4.1535 C   0  0  0  0  0  0  0  0  0  0  0  0
    3.8598   -5.3653    2.7962 C   0  0  1  0  0  0  0  0  0  0  0  0
    2.5463   -5.5359    2.3088 O   0  0  0  0  0  0  0  0  0  0  0  0
    4.8867   -4.7902    1.7688 C   0  0  1  0  0  0  0  0  0  0  0  0
    6.3001   -5.2497    2.2104 C   0  0  0  0  0  0  0  0  0  0  0  0
    4.6183   -5.2852    0.3164 C   0  0  1  0  0  0  0  0  0  0  0  0
    4.3152   -6.7817    0.1078 C   0  0  0  0  0  0  0  0  0  0  0  0
    3.5861   -4.3046   -0.2739 C   0  0  0  0  0  0  0  0  0  0  0  0
    3.5538   -3.0906    0.6759 C   0  0  0  0  0  0  0  0  0  0  0  0
    4.7642   -3.2326    1.6262 C   0  0  1  0  0  0  0  0  0  0  0  0
    5.9974   -2.6396    0.8683 C   0  0  0  0  0  0  0  0  0  0  0  0
   -0.2457    5.7001    7.2876 H   0  0  0  0  0  0  0  0  0  0  0  0
    0.4536    4.6346    6.0808 H   0  0  0  0  0  0  0  0  0  0  0  0
    0.4148    4.1445    7.7676 H   0  0  0  0  0  0  0  0  0  0  0  0
   -1.9344    3.8082    8.9538 H   0  0  0  0  0  0  0  0  0  0  0  0
   -3.3824    3.7635    7.9542 H   0  0  0  0  0  0  0  0  0  0  0  0
   -2.5628    5.2955    8.2540 H   0  0  0  0  0  0  0  0  0  0  0  0
   -2.9529    2.9253    5.8045 H   0  0  0  0  0  0  0  0  0  0  0  0
   -1.7724    3.3391    3.6394 H   0  0  0  0  0  0  0  0  0  0  0  0
   -0.2694    3.5788    4.4433 H   0  0  0  0  0  0  0  0  0  0  0  0
   -1.0142    1.0389    5.3635 H   0  0  0  0  0  0  0  0  0  0  0  0
   -1.6972    1.0238    3.7788 H   0  0  0  0  0  0  0  0  0  0  0  0
   -0.2728    0.9353    1.7390 H   0  0  0  0  0  0  0  0  0  0  0  0
    1.4617    1.0975    1.8096 H   0  0  0  0  0  0  0  0  0  0  0  0
    0.4422    2.4884    2.1083 H   0  0  0  0  0  0  0  0  0  0  0  0
    2.2653    1.7982    3.9829 H   0  0  0  0  0  0  0  0  0  0  0  0
   -0.0268   -0.9496    3.5245 H   0  0  0  0  0  0  0  0  0  0  0  0
    0.9103   -0.0952    6.2063 H   0  0  0  0  0  0  0  0  0  0  0  0
   -0.2751   -1.3005    5.7231 H   0  0  0  0  0  0  0  0  0  0  0  0
    2.5664   -1.5190    6.2606 H   0  0  0  0  0  0  0  0  0  0  0  0
    1.4258   -2.8359    6.2738 H   0  0  0  0  0  0  0  0  0  0  0  0
    1.1547   -3.5513    2.6994 H   0  0  0  0  0  0  0  0  0  0  0  0
    0.1449   -3.0636    4.0047 H   0  0  0  0  0  0  0  0  0  0  0  0
    1.1945   -4.3909    4.2524 H   0  0  0  0  0  0  0  0  0  0  0  0
    1.9329   -1.2898    2.4093 H   0  0  0  0  0  0  0  0  0  0  0  0
    3.2580    0.7183    3.1478 H   0  0  0  0  0  0  0  0  0  0  0  0
    3.6187   -0.0824    4.6399 H   0  0  0  0  0  0  0  0  0  0  0  0
    4.3470   -0.6821    1.7963 H   0  0  0  0  0  0  0  0  0  0  0  0
    6.4172   -0.5295    2.6481 H   0  0  0  0  0  0  0  0  0  0  0  0
    5.6681   -2.6191    3.3740 H   0  0  0  0  0  0  0  0  0  0  0  0
    5.5725   -3.1219    5.4692 H   0  0  0  0  0  0  0  0  0  0  0  0
    4.0795   -3.1717    6.3634 H   0  0  0  0  0  0  0  0  0  0  0  0
    4.6677   -1.6601    5.6560 H   0  0  0  0  0  0  0  0  0  0  0  0
    4.7943   -4.9368    4.6059 H   0  0  0  0  0  0  0  0  0  0  0  0
    3.1171   -5.0776    4.8242 H   0  0  0  0  0  0  0  0  0  0  0  0
    4.1530   -6.3915    3.0110 H   0  0  0  0  0  0  0  0  0  0  0  0
    2.5953   -6.1132    1.5599 H   0  0  0  0  0  0  0  0  0  0  0  0
    7.0647   -5.0053    1.4748 H   0  0  0  0  0  0  0  0  0  0  0  0
    6.3390   -6.3295    2.3467 H   0  0  0  0  0  0  0  0  0  0  0  0
    6.5963   -4.7946    3.1524 H   0  0  0  0  0  0  0  0  0  0  0  0
    5.5338   -5.1366   -0.2539 H   0  0  0  0  0  0  0  0  0  0  0  0
    3.3423   -7.0858    0.4828 H   0  0  0  0  0  0  0  0  0  0  0  0
    5.0701   -7.4085    0.5815 H   0  0  0  0  0  0  0  0  0  0  0  0
    4.3332   -7.0235   -0.9529 H   0  0  0  0  0  0  0  0  0  0  0  0
    3.8794   -4.0064   -1.2821 H   0  0  0  0  0  0  0  0  0  0  0  0
    2.5926   -4.7509   -0.3482 H   0  0  0  0  0  0  0  0  0  0  0  0
    3.5394   -2.1473    0.1289 H   0  0  0  0  0  0  0  0  0  0  0  0
    2.6272   -3.1174    1.2369 H   0  0  0  0  0  0  0  0  0  0  0  0
    6.2281   -3.1569   -0.0594 H   0  0  0  0  0  0  0  0  0  0  0  0
    6.8988   -2.6650    1.4778 H   0  0  0  0  0  0  0  0  0  0  0  0
    5.8452   -1.6036    0.5750 H   0  0  0  0  0  0  0  0  0  0  0  0
  1  2  1  0
  1 33  1  0
  1 34  1  0
  1 35  1  0
  2  3  1  0
  2  4  2  3
  3 36  1  0
  3 37  1  0
  3 38  1  0
  4  5  1  0
  4 39  1  0
  5  6  1  0
  5 40  1  0
  5 41  1  0
  6  7  1  0
  6 42  1  0
  6 43  1  0
  7  8  1  0
  7  9  1  1
  7 10  1  0
  8 44  1  0
  8 45  1  0
  8 46  1  0
  9 47  1  0
 10 15  1  0
 10 11  1  0
 10 48  1  6
 11 12  1  0
 11 49  1  0
 11 50  1  0
 12 13  1  0
 12 51  1  0
 12 52  1  0
 13 20  1  0
 13 14  1  6
 13 15  1  0
 14 53  1  0
 14 54  1  0
 14 55  1  0
 15 16  1  0
 15 56  1  6
 16 17  1  0
 16 57  1  0
 16 58  1  0
 17 18  1  0
 17 19  1  0
 17 59  1  6
 18 60  1  0
 19 31  1  0
 19 20  1  0
 19 61  1  1
 20 21  1  1
 20 22  1  0
 21 62  1  0
 21 63  1  0
 21 64  1  0
 22 23  1  0
 22 65  1  0
 22 66  1  0
 23 24  1  0
 23 25  1  0
 23 67  1  1
 24 68  1  0
 25 31  1  0
 25 26  1  1
 25 27  1  0
 26 69  1  0
 26 70  1  0
 26 71  1  0
 27 28  1  0
 27 29  1  0
 27 72  1  6
 28 73  1  0
 28 74  1  0
 28 75  1  0
 29 30  1  0
 29 76  1  0
 29 77  1  0
 30 31  1  0
 30 78  1  0
 30 79  1  0
 31 32  1  6
 32 80  1  0
 32 81  1  0
 32 82  1  0
M  END
>  <i_m_ct_stereo_status>  (360) 
1

>  <s_m_source_file>  (360) 
/var/tmp/pbs.5102103.sched01/tmpr2ljwd0b/132iqlgd2x9.sdf

>  <i_m_source_file_index>  (360) 
6

>  <i_lp_mmshare_version>  (360) 
48012

>  <i_f3d_flags>  (360) 
0

>  <s_epik_input>  (360) 
W0NIM11DKFtDSDNdKT1bQ0hdW0NIMl1bQ0gyXVtDQEBdKFtDSDNdKShbT0hdKVtDQEhdKFtDSDJdW0NIMl0xKVtDQEhdKFtDQF0xMltDSDNdKVtDSDJdW0NAQEhdKFtPSF0pW0NASF0zW0NAXTIoW0NIM10pW0NIMl1bQ0BASF0oW09IXSlbQ0BdNChbQ0gzXSlbQ0BAXTMoW0NIM10pW0NIMl1bQ0gyXVtDQEBIXTRbQ0gzXQ==

>  <s_epik_cmdline>  (360) 
J2VwaWtfcHl0aG9uJywgJy1waHQnLCAnMi4wJywgJy1waCcsICc3LjAnLCAnLXRuJywgJzgnLCAnLW1hJywgJzIwMCcsICctaW1hZScsICc8aW5maWxlLm1hZT4nLCAnLW9tYWUnLCAnPG91dGZpbGUubWFlPic=

>  <r_lp_tautomer_probability>  (360) 
1

>  <r_epik_Ionization_Penalty>  (360) 
5.42517e-06

>  <r_epik_Ionization_Penalty_Charging>  (360) 
0

>  <r_epik_Ionization_Penalty_Neutral>  (360) 
5.42517e-06

>  <r_epik_State_Penalty>  (360) 
-0

>  <r_epik_Charging_Adjusted_Penalty>  (360) 
0

>  <i_epik_Tot_Q>  (360) 
0

>  <i_epik_Tot_abs_Q>  (360) 
0

>  <s_lp_Force_Field>  (360) 
OPLS3e

>  <r_lp_Energy>  (360) 
80.6171

>  <b_lp_Chiralities_Consistent>  (360) 
1

>  <s_lp_Variant>  (360) 
86:0-1

>  <s_i_glide_gridfile>  (360) 
pfpi4k_grid

>  <i_i_glide_lignum>  (360) 
6

>  <i_i_glide_rotatable_bonds>  (360) 
7

>  <r_i_docking_score>  (360) 
-1.86605

>  <r_i_glide_ligand_efficiency>  (360) 
-0.0583141

>  <r_i_glide_ligand_efficiency_sa>  (360) 
-0.185136

>  <r_i_glide_ligand_efficiency_ln>  (360) 
-0.41786

>  <r_i_glide_gscore>  (360) 
-1.86605

>  <r_i_glide_lipo>  (360) 
-0.54273

>  <r_i_glide_hbond>  (360) 
-0.00214286

>  <r_i_glide_metal>  (360) 
-0

>  <r_i_glide_rewards>  (360) 
-0.363372

>  <r_i_glide_evdw>  (360) 
-20.8434

>  <r_i_glide_ecoul>  (360) 
-2.11279

>  <r_i_glide_erotb>  (360) 
0.401284

>  <r_i_glide_esite>  (360) 
0

>  <r_i_glide_emodel>  (360) 
-23.3395

>  <r_i_glide_energy>  (360) 
-22.9562

>  <r_i_glide_einternal>  (360) 
4.66704

>  <r_i_glide_intrahb_reward>  (360) 
-0

>  <i_i_glide_confnum>  (360) 
4

>  <i_i_glide_posenum>  (360) 
2

>  <r_i_glide_eff_state_penalty>  (360) 
0

>  <ligand_id>  (360) 
86

>  <original_smiles>  (360) 
CC(C)=CCCC(C)(O)C1CCC2(C)C1CC(O)C1C2(C)CC(O)C2(C)C(C)CCC12C

>  <smiles>  (360) 
[H]OC1([H])C([H])([H])C2([H])C([H])(C(O[H])(C([H])([H])[H])C([H])([H])C([H])([H])C([H])=C(C([H])([H])[H])C([H])([H])[H])C([H])([H])C([H])([H])C2(C([H])([H])[H])C2(C([H])([H])[H])C([H])([H])C([H])(O[H])C3(C([H])([H])[H])C([H])(C([H])([H])[H])C([H])([H])C([H])([H])C3(C([H])([H])[H])C12[H]

$$$$
88:0:0
     RDKit          3D

 18 18  0  0  1  0  0  0  0  0999 V2000
    4.6831   -2.4487    2.7661 C   0  0  0  0  0  0  0  0  0  0  0  0
    5.0791   -1.1475    2.0570 C   0  0  0  0  0  0  0  0  0  0  0  0
    5.6277   -0.2767    2.7240 O   0  0  0  0  0  0  0  0  0  0  0  0
    4.8160   -0.9428    0.6201 C   0  0  0  0  0  0  0  0  0  0  0  0
    4.2009   -1.8501   -0.1630 C   0  0  0  0  0  0  0  0  0  0  0  0
    3.9136   -1.7497   -1.5548 C   0  0  0  0  0  0  0  0  0  0  0  0
    4.2249   -0.7436   -2.4255 C   0  0  0  0  0  0  0  0  0  0  0  0
    3.7564   -0.9904   -3.7487 C   0  0  0  0  0  0  0  0  0  0  0  0
    3.0888   -2.1817   -3.8563 C   0  0  0  0  0  0  0  0  0  0  0  0
    3.0182   -3.0261   -2.3349 S   0  0  0  0  0  0  0  0  0  0  0  0
    4.2006   -3.1743    2.1173 H   0  0  0  0  0  0  0  0  0  0  0  0
    4.0057   -2.2171    3.5901 H   0  0  0  0  0  0  0  0  0  0  0  0
    5.5719   -2.9111    3.2000 H   0  0  0  0  0  0  0  0  0  0  0  0
    5.1467   -0.0003    0.2021 H   0  0  0  0  0  0  0  0  0  0  0  0
    3.8707   -2.7785    0.2692 H   0  0  0  0  0  0  0  0  0  0  0  0
    4.7590    0.1520   -2.1616 H   0  0  0  0  0  0  0  0  0  0  0  0
    3.9103   -0.2833   -4.5512 H   0  0  0  0  0  0  0  0  0  0  0  0
    2.6059   -2.6201   -4.7166 H   0  0  0  0  0  0  0  0  0  0  0  0
  1  2  1  0
  1 11  1  0
  1 12  1  0
  1 13  1  0
  2  3  2  0
  2  4  1  0
  4  5  2  3
  4 14  1  0
  5  6  1  0
  5 15  1  0
  6 10  1  0
  6  7  2  0
  7  8  1  0
  7 16  1  0
  8  9  2  0
  8 17  1  0
  9 10  1  0
  9 18  1  0
M  END
>  <i_m_ct_stereo_status>  (361) 
1

>  <s_m_source_file>  (361) 
/var/tmp/pbs.5102103.sched01/tmpr2ljwd0b/132iqlgd2x9.sdf

>  <i_m_source_file_index>  (361) 
8

>  <i_lp_mmshare_version>  (361) 
48012

>  <i_f3d_flags>  (361) 
0

>  <s_epik_input>  (361) 
W0NIM11DKD1PKS9bQ0hdPVtDSF0vYzFbY0hdW2NIXVtjSF1zMQ==

>  <s_epik_cmdline>  (361) 
J2VwaWtfcHl0aG9uJywgJy1waHQnLCAnMi4wJywgJy1waCcsICc3LjAnLCAnLXRuJywgJzgnLCAnLW1hJywgJzIwMCcsICctaW1hZScsICc8aW5maWxlLm1hZT4nLCAnLW9tYWUnLCAnPG91dGZpbGUubWFlPic=

>  <r_lp_tautomer_probability>  (361) 
1

>  <r_epik_Ionization_Penalty>  (361) 
0

>  <r_epik_Ionization_Penalty_Charging>  (361) 
0

>  <r_epik_Ionization_Penalty_Neutral>  (361) 
0

>  <r_epik_State_Penalty>  (361) 
-0

>  <r_epik_Charging_Adjusted_Penalty>  (361) 
0

>  <i_epik_Tot_Q>  (361) 
0

>  <i_epik_Tot_abs_Q>  (361) 
0

>  <s_lp_Force_Field>  (361) 
OPLS3e

>  <r_lp_Energy>  (361) 
4.88386

>  <b_lp_Chiralities_Consistent>  (361) 
1

>  <s_lp_Variant>  (361) 
88:0-1

>  <s_i_glide_gridfile>  (361) 
pfpi4k_grid

>  <i_i_glide_lignum>  (361) 
8

>  <i_i_glide_rotatable_bonds>  (361) 
2

>  <r_i_docking_score>  (361) 
-3.43536

>  <r_i_glide_ligand_efficiency>  (361) 
-0.343536

>  <r_i_glide_ligand_efficiency_sa>  (361) 
-0.740126

>  <r_i_glide_ligand_efficiency_ln>  (361) 
-1.0402

>  <r_i_glide_gscore>  (361) 
-3.43536

>  <r_i_glide_lipo>  (361) 
-0.493716

>  <r_i_glide_hbond>  (361) 
-0.119013

>  <r_i_glide_metal>  (361) 
-0

>  <r_i_glide_rewards>  (361) 
-2.39575

>  <r_i_glide_evdw>  (361) 
-17.3201

>  <r_i_glide_ecoul>  (361) 
-1.32703

>  <r_i_glide_erotb>  (361) 
0.638175

>  <r_i_glide_esite>  (361) 
0

>  <r_i_glide_emodel>  (361) 
-22.7406

>  <r_i_glide_energy>  (361) 
-18.6471

>  <r_i_glide_einternal>  (361) 
0.0248639

>  <r_i_glide_intrahb_reward>  (361) 
-0

>  <i_i_glide_confnum>  (361) 
1

>  <i_i_glide_posenum>  (361) 
14

>  <r_i_glide_eff_state_penalty>  (361) 
0

>  <ligand_id>  (361) 
88

>  <original_smiles>  (361) 
CC(=O)C=Cc1cccs1

>  <smiles>  (361) 
[H]C(C(=O)C([H])([H])[H])=C([H])c1sc([H])c([H])c1[H]

$$$$
88:0:1
     RDKit          3D

 18 18  0  0  1  0  0  0  0  0999 V2000
    5.0091   -5.7832    0.3282 C   0  0  0  0  0  0  0  0  0  0  0  0
    5.4464   -4.3557    0.6652 C   0  0  0  0  0  0  0  0  0  0  0  0
    6.0895   -4.1784    1.6963 O   0  0  0  0  0  0  0  0  0  0  0  0
    5.1153   -3.2207   -0.2155 C   0  0  0  0  0  0  0  0  0  0  0  0
    4.5578   -3.3587   -1.4333 C   0  0  0  0  0  0  0  0  0  0  0  0
    4.1919   -2.3248   -2.3404 C   0  0  0  0  0  0  0  0  0  0  0  0
    4.2725   -0.9745   -2.1604 C   0  0  0  0  0  0  0  0  0  0  0  0
    3.8215   -0.2490   -3.3020 C   0  0  0  0  0  0  0  0  0  0  0  0
    3.4126   -1.0612   -4.3213 C   0  0  0  0  0  0  0  0  0  0  0  0
    3.5442   -2.7441   -3.9032 S   0  0  0  0  0  0  0  0  0  0  0  0
    4.4318   -5.8658   -0.5921 H   0  0  0  0  0  0  0  0  0  0  0  0
    4.4008   -6.1843    1.1422 H   0  0  0  0  0  0  0  0  0  0  0  0
    5.8922   -6.4157    0.2315 H   0  0  0  0  0  0  0  0  0  0  0  0
    5.3465   -2.2342    0.1665 H   0  0  0  0  0  0  0  0  0  0  0  0
    4.3351   -4.3406   -1.8116 H   0  0  0  0  0  0  0  0  0  0  0  0
    4.6234   -0.4768   -1.2673 H   0  0  0  0  0  0  0  0  0  0  0  0
    3.8144    0.8316   -3.3280 H   0  0  0  0  0  0  0  0  0  0  0  0
    3.0127   -0.7708   -5.2823 H   0  0  0  0  0  0  0  0  0  0  0  0
  1  2  1  0
  1 11  1  0
  1 12  1  0
  1 13  1  0
  2  3  2  0
  2  4  1  0
  4  5  2  3
  4 14  1  0
  5  6  1  0
  5 15  1  0
  6 10  1  0
  6  7  2  0
  7  8  1  0
  7 16  1  0
  8  9  2  0
  8 17  1  0
  9 10  1  0
  9 18  1  0
M  END
>  <i_m_ct_stereo_status>  (362) 
1

>  <s_m_source_file>  (362) 
/var/tmp/pbs.5102103.sched01/tmpr2ljwd0b/132iqlgd2x9.sdf

>  <i_m_source_file_index>  (362) 
8

>  <i_lp_mmshare_version>  (362) 
48012

>  <i_f3d_flags>  (362) 
0

>  <s_epik_input>  (362) 
W0NIM11DKD1PKS9bQ0hdPVtDSF0vYzFbY0hdW2NIXVtjSF1zMQ==

>  <s_epik_cmdline>  (362) 
J2VwaWtfcHl0aG9uJywgJy1waHQnLCAnMi4wJywgJy1waCcsICc3LjAnLCAnLXRuJywgJzgnLCAnLW1hJywgJzIwMCcsICctaW1hZScsICc8aW5maWxlLm1hZT4nLCAnLW9tYWUnLCAnPG91dGZpbGUubWFlPic=

>  <r_lp_tautomer_probability>  (362) 
1

>  <r_epik_Ionization_Penalty>  (362) 
0

>  <r_epik_Ionization_Penalty_Charging>  (362) 
0

>  <r_epik_Ionization_Penalty_Neutral>  (362) 
0

>  <r_epik_State_Penalty>  (362) 
-0

>  <r_epik_Charging_Adjusted_Penalty>  (362) 
0

>  <i_epik_Tot_Q>  (362) 
0

>  <i_epik_Tot_abs_Q>  (362) 
0

>  <s_lp_Force_Field>  (362) 
OPLS3e

>  <r_lp_Energy>  (362) 
4.88386

>  <b_lp_Chiralities_Consistent>  (362) 
1

>  <s_lp_Variant>  (362) 
88:0-1

>  <s_i_glide_gridfile>  (362) 
pfpi4k_grid

>  <i_i_glide_lignum>  (362) 
8

>  <i_i_glide_rotatable_bonds>  (362) 
2

>  <r_i_docking_score>  (362) 
-3.41998

>  <r_i_glide_ligand_efficiency>  (362) 
-0.341998

>  <r_i_glide_ligand_efficiency_sa>  (362) 
-0.736813

>  <r_i_glide_ligand_efficiency_ln>  (362) 
-1.03555

>  <r_i_glide_gscore>  (362) 
-3.41998

>  <r_i_glide_lipo>  (362) 
-0.517881

>  <r_i_glide_hbond>  (362) 
0

>  <r_i_glide_metal>  (362) 
-0

>  <r_i_glide_rewards>  (362) 
-2.33513

>  <r_i_glide_evdw>  (362) 
-18.1917

>  <r_i_glide_ecoul>  (362) 
-1.9704

>  <r_i_glide_erotb>  (362) 
0.638175

>  <r_i_glide_esite>  (362) 
0

>  <r_i_glide_emodel>  (362) 
-24.194

>  <r_i_glide_energy>  (362) 
-20.1621

>  <r_i_glide_einternal>  (362) 
0.115162

>  <r_i_glide_intrahb_reward>  (362) 
-0

>  <i_i_glide_confnum>  (362) 
3

>  <i_i_glide_posenum>  (362) 
39

>  <r_i_glide_eff_state_penalty>  (362) 
0

>  <ligand_id>  (362) 
88

>  <original_smiles>  (362) 
CC(=O)C=Cc1cccs1

>  <smiles>  (362) 
[H]C(C(=O)C([H])([H])[H])=C([H])c1sc([H])c([H])c1[H]

$$$$
88:0:2
     RDKit          3D

 18 18  0  0  1  0  0  0  0  0999 V2000
   -0.9744    2.3650    3.3598 C   0  0  0  0  0  0  0  0  0  0  0  0
   -1.9833    3.3246    4.0002 C   0  0  0  0  0  0  0  0  0  0  0  0
   -2.5775    4.1257    3.2813 O   0  0  0  0  0  0  0  0  0  0  0  0
   -2.2421    3.2859    5.4495 C   0  0  0  0  0  0  0  0  0  0  0  0
   -1.4064    2.7288    6.3474 C   0  0  0  0  0  0  0  0  0  0  0  0
   -1.5857    2.6353    7.7609 C   0  0  0  0  0  0  0  0  0  0  0  0
   -0.7112    2.0761    8.6561 C   0  0  0  0  0  0  0  0  0  0  0  0
   -1.1767    2.1469    9.9995 C   0  0  0  0  0  0  0  0  0  0  0  0
   -2.4015    2.7548   10.1055 C   0  0  0  0  0  0  0  0  0  0  0  0
   -3.0099    3.2648    8.5551 S   0  0  0  0  0  0  0  0  0  0  0  0
   -0.5143    1.6808    4.0718 H   0  0  0  0  0  0  0  0  0  0  0  0
   -0.1817    2.9302    2.8687 H   0  0  0  0  0  0  0  0  0  0  0  0
   -1.4682    1.7618    2.5973 H   0  0  0  0  0  0  0  0  0  0  0  0
   -3.1685    3.7327    5.7773 H   0  0  0  0  0  0  0  0  0  0  0  0
   -0.4774    2.3006    6.0008 H   0  0  0  0  0  0  0  0  0  0  0  0
    0.2361    1.6303    8.3996 H   0  0  0  0  0  0  0  0  0  0  0  0
   -0.6126    1.7584   10.8361 H   0  0  0  0  0  0  0  0  0  0  0  0
   -2.9758    2.9292   11.0075 H   0  0  0  0  0  0  0  0  0  0  0  0
  1  2  1  0
  1 11  1  0
  1 12  1  0
  1 13  1  0
  2  3  2  0
  2  4  1  0
  4  5  2  3
  4 14  1  0
  5  6  1  0
  5 15  1  0
  6 10  1  0
  6  7  2  0
  7  8  1  0
  7 16  1  0
  8  9  2  0
  8 17  1  0
  9 10  1  0
  9 18  1  0
M  END
>  <i_m_ct_stereo_status>  (363) 
1

>  <s_m_source_file>  (363) 
/var/tmp/pbs.5102103.sched01/tmpr2ljwd0b/132iqlgd2x9.sdf

>  <i_m_source_file_index>  (363) 
8

>  <i_lp_mmshare_version>  (363) 
48012

>  <i_f3d_flags>  (363) 
0

>  <s_epik_input>  (363) 
W0NIM11DKD1PKS9bQ0hdPVtDSF0vYzFbY0hdW2NIXVtjSF1zMQ==

>  <s_epik_cmdline>  (363) 
J2VwaWtfcHl0aG9uJywgJy1waHQnLCAnMi4wJywgJy1waCcsICc3LjAnLCAnLXRuJywgJzgnLCAnLW1hJywgJzIwMCcsICctaW1hZScsICc8aW5maWxlLm1hZT4nLCAnLW9tYWUnLCAnPG91dGZpbGUubWFlPic=

>  <r_lp_tautomer_probability>  (363) 
1

>  <r_epik_Ionization_Penalty>  (363) 
0

>  <r_epik_Ionization_Penalty_Charging>  (363) 
0

>  <r_epik_Ionization_Penalty_Neutral>  (363) 
0

>  <r_epik_State_Penalty>  (363) 
-0

>  <r_epik_Charging_Adjusted_Penalty>  (363) 
0

>  <i_epik_Tot_Q>  (363) 
0

>  <i_epik_Tot_abs_Q>  (363) 
0

>  <s_lp_Force_Field>  (363) 
OPLS3e

>  <r_lp_Energy>  (363) 
4.88386

>  <b_lp_Chiralities_Consistent>  (363) 
1

>  <s_lp_Variant>  (363) 
88:0-1

>  <s_i_glide_gridfile>  (363) 
pfpi4k_grid

>  <i_i_glide_lignum>  (363) 
8

>  <i_i_glide_rotatable_bonds>  (363) 
2

>  <r_i_docking_score>  (363) 
-3.0496

>  <r_i_glide_ligand_efficiency>  (363) 
-0.30496

>  <r_i_glide_ligand_efficiency_sa>  (363) 
-0.657016

>  <r_i_glide_ligand_efficiency_ln>  (363) 
-0.923397

>  <r_i_glide_gscore>  (363) 
-3.0496

>  <r_i_glide_lipo>  (363) 
-0.0997421

>  <r_i_glide_hbond>  (363) 
-0.0620149

>  <r_i_glide_metal>  (363) 
-0

>  <r_i_glide_rewards>  (363) 
-2.25

>  <r_i_glide_evdw>  (363) 
-14.6262

>  <r_i_glide_ecoul>  (363) 
-3.32392

>  <r_i_glide_erotb>  (363) 
0.638175

>  <r_i_glide_esite>  (363) 
-0.0461189

>  <r_i_glide_emodel>  (363) 
-21.1721

>  <r_i_glide_energy>  (363) 
-17.9501

>  <r_i_glide_einternal>  (363) 
0.788999

>  <r_i_glide_intrahb_reward>  (363) 
-0

>  <i_i_glide_confnum>  (363) 
3

>  <i_i_glide_posenum>  (363) 
2

>  <r_i_glide_eff_state_penalty>  (363) 
0

>  <ligand_id>  (363) 
88

>  <original_smiles>  (363) 
CC(=O)C=Cc1cccs1

>  <smiles>  (363) 
[H]C(C(=O)C([H])([H])[H])=C([H])c1sc([H])c([H])c1[H]

$$$$
88:1:0
     RDKit          3D

 18 18  0  0  1  0  0  0  0  0999 V2000
   -7.0404   -4.5480   -4.6683 C   0  0  0  0  0  0  0  0  0  0  0  0
   -6.7121   -5.9315   -5.2336 C   0  0  0  0  0  0  0  0  0  0  0  0
   -7.4725   -6.4063   -6.0711 O   0  0  0  0  0  0  0  0  0  0  0  0
   -5.5257   -6.6193   -4.7136 C   0  0  0  0  0  0  0  0  0  0  0  0
   -5.0255   -7.8295   -5.0371 C   0  0  0  0  0  0  0  0  0  0  0  0
   -5.3487   -8.8408   -6.0091 C   0  0  0  0  0  0  0  0  0  0  0  0
   -6.1949   -8.7926   -7.0949 C   0  0  0  0  0  0  0  0  0  0  0  0
   -6.3074  -10.0309   -7.7613 C   0  0  0  0  0  0  0  0  0  0  0  0
   -5.4940  -11.0248   -7.2921 C   0  0  0  0  0  0  0  0  0  0  0  0
   -4.6099  -10.4286   -5.8995 S   0  0  0  0  0  0  0  0  0  0  0  0
   -7.3226   -4.6205   -3.6145 H   0  0  0  0  0  0  0  0  0  0  0  0
   -7.9288   -4.1871   -5.2166 H   0  0  0  0  0  0  0  0  0  0  0  0
   -6.2364   -3.8113   -4.8187 H   0  0  0  0  0  0  0  0  0  0  0  0
   -4.9868   -6.0897   -3.9610 H   0  0  0  0  0  0  0  0  0  0  0  0
   -4.1744   -8.0980   -4.4372 H   0  0  0  0  0  0  0  0  0  0  0  0
   -6.7814   -7.9578   -7.4540 H   0  0  0  0  0  0  0  0  0  0  0  0
   -6.9857  -10.1116   -8.5879 H   0  0  0  0  0  0  0  0  0  0  0  0
   -5.3540  -12.0489   -7.6740 H   0  0  0  0  0  0  0  0  0  0  0  0
  1  2  1  0
  1 11  1  0
  1 12  1  0
  1 13  1  0
  2  3  2  0
  2  4  1  0
  4  5  2  3
  4 14  1  0
  5  6  1  0
  5 15  1  0
  6 10  1  0
  6  7  2  0
  7  8  1  0
  7 16  1  0
  8  9  2  0
  8 17  1  0
  9 10  1  0
  9 18  1  0
M  END
>  <i_m_ct_stereo_status>  (364) 
1

>  <s_m_source_file>  (364) 
/var/tmp/pbs.5102103.sched01/tmpr2ljwd0b/132iqlgd2x9.sdf

>  <i_m_source_file_index>  (364) 
9

>  <i_lp_mmshare_version>  (364) 
48012

>  <i_f3d_flags>  (364) 
0

>  <s_epik_input>  (364) 
W0NIM11DKD1PKS9bQ0hdPVtDSF0vYzFbY0hdW2NIXVtjSF1zMQ==

>  <s_epik_cmdline>  (364) 
J2VwaWtfcHl0aG9uJywgJy1waHQnLCAnMi4wJywgJy1waCcsICc3LjAnLCAnLXRuJywgJzgnLCAnLW1hJywgJzIwMCcsICctaW1hZScsICc8aW5maWxlLm1hZT4nLCAnLW9tYWUnLCAnPG91dGZpbGUubWFlPic=

>  <r_lp_tautomer_probability>  (364) 
1

>  <r_epik_Ionization_Penalty>  (364) 
0

>  <r_epik_Ionization_Penalty_Charging>  (364) 
0

>  <r_epik_Ionization_Penalty_Neutral>  (364) 
0

>  <r_epik_State_Penalty>  (364) 
-0

>  <r_epik_Charging_Adjusted_Penalty>  (364) 
0

>  <i_epik_Tot_Q>  (364) 
0

>  <i_epik_Tot_abs_Q>  (364) 
0

>  <s_lp_Force_Field>  (364) 
OPLS3e

>  <r_lp_Energy>  (364) 
7.79987

>  <b_lp_Chiralities_Consistent>  (364) 
1

>  <s_lp_Variant>  (364) 
88:0-2

>  <s_i_glide_gridfile>  (364) 
pfpi4k_grid

>  <i_i_glide_lignum>  (364) 
9

>  <i_i_glide_rotatable_bonds>  (364) 
2

>  <r_i_docking_score>  (364) 
-4.72301

>  <r_i_glide_ligand_efficiency>  (364) 
-0.472301

>  <r_i_glide_ligand_efficiency_sa>  (364) 
-1.01754

>  <r_i_glide_ligand_efficiency_ln>  (364) 
-1.4301

>  <r_i_glide_gscore>  (364) 
-4.72301

>  <r_i_glide_lipo>  (364) 
-1.66007

>  <r_i_glide_hbond>  (364) 
0

>  <r_i_glide_metal>  (364) 
-0

>  <r_i_glide_rewards>  (364) 
-2.68428

>  <r_i_glide_evdw>  (364) 
-21.0268

>  <r_i_glide_ecoul>  (364) 
0.230017

>  <r_i_glide_erotb>  (364) 
0.638175

>  <r_i_glide_esite>  (364) 
0

>  <r_i_glide_emodel>  (364) 
-25.8337

>  <r_i_glide_energy>  (364) 
-20.7968

>  <r_i_glide_einternal>  (364) 
0.78751

>  <r_i_glide_intrahb_reward>  (364) 
-0

>  <i_i_glide_confnum>  (364) 
4

>  <i_i_glide_posenum>  (364) 
23

>  <r_i_glide_eff_state_penalty>  (364) 
0

>  <ligand_id>  (364) 
88

>  <original_smiles>  (364) 
CC(=O)C=Cc1cccs1

>  <smiles>  (364) 
[H]C(C(=O)C([H])([H])[H])=C([H])c1sc([H])c([H])c1[H]

$$$$
88:1:1
     RDKit          3D

 18 18  0  0  1  0  0  0  0  0999 V2000
    5.3597   -0.6807    2.4462 C   0  0  0  0  0  0  0  0  0  0  0  0
    5.3350   -0.7861    0.9357 C   0  0  0  0  0  0  0  0  0  0  0  0
    6.4251   -0.9252    0.3967 O   0  0  0  0  0  0  0  0  0  0  0  0
    4.0608   -0.5850    0.2280 C   0  0  0  0  0  0  0  0  0  0  0  0
    3.6735   -1.0970   -0.9437 C   0  0  0  0  0  0  0  0  0  0  0  0
    4.2482   -2.0051   -1.9059 C   0  0  0  0  0  0  0  0  0  0  0  0
    5.4878   -2.5344   -1.9840 C   0  0  0  0  0  0  0  0  0  0  0  0
    5.6628   -3.4147   -3.0560 C   0  0  0  0  0  0  0  0  0  0  0  0
    4.5561   -3.6050   -3.8288 C   0  0  0  0  0  0  0  0  0  0  0  0
    3.2529   -2.6235   -3.2101 S   0  0  0  0  0  0  0  0  0  0  0  0
    5.1544    0.3505    2.7377 H   0  0  0  0  0  0  0  0  0  0  0  0
    6.3615   -0.9292    2.8086 H   0  0  0  0  0  0  0  0  0  0  0  0
    4.6471   -1.3409    2.9474 H   0  0  0  0  0  0  0  0  0  0  0  0
    3.3532    0.0555    0.7416 H   0  0  0  0  0  0  0  0  0  0  0  0
    2.7143   -0.7592   -1.2541 H   0  0  0  0  0  0  0  0  0  0  0  0
    6.3416   -2.3908   -1.3604 H   0  0  0  0  0  0  0  0  0  0  0  0
    6.6256   -3.8600   -3.1784 H   0  0  0  0  0  0  0  0  0  0  0  0
    4.4341   -4.2622   -4.6920 H   0  0  0  0  0  0  0  0  0  0  0  0
  1  2  1  0
  1 11  1  0
  1 12  1  0
  1 13  1  0
  2  3  2  0
  2  4  1  0
  4  5  2  3
  4 14  1  0
  5  6  1  0
  5 15  1  0
  6 10  1  0
  6  7  2  0
  7  8  1  0
  7 16  1  0
  8  9  2  0
  8 17  1  0
  9 10  1  0
  9 18  1  0
M  END
>  <i_m_ct_stereo_status>  (365) 
1

>  <s_m_source_file>  (365) 
/var/tmp/pbs.5102103.sched01/tmpr2ljwd0b/132iqlgd2x9.sdf

>  <i_m_source_file_index>  (365) 
9

>  <i_lp_mmshare_version>  (365) 
48012

>  <i_f3d_flags>  (365) 
0

>  <s_epik_input>  (365) 
W0NIM11DKD1PKS9bQ0hdPVtDSF0vYzFbY0hdW2NIXVtjSF1zMQ==

>  <s_epik_cmdline>  (365) 
J2VwaWtfcHl0aG9uJywgJy1waHQnLCAnMi4wJywgJy1waCcsICc3LjAnLCAnLXRuJywgJzgnLCAnLW1hJywgJzIwMCcsICctaW1hZScsICc8aW5maWxlLm1hZT4nLCAnLW9tYWUnLCAnPG91dGZpbGUubWFlPic=

>  <r_lp_tautomer_probability>  (365) 
1

>  <r_epik_Ionization_Penalty>  (365) 
0

>  <r_epik_Ionization_Penalty_Charging>  (365) 
0

>  <r_epik_Ionization_Penalty_Neutral>  (365) 
0

>  <r_epik_State_Penalty>  (365) 
-0

>  <r_epik_Charging_Adjusted_Penalty>  (365) 
0

>  <i_epik_Tot_Q>  (365) 
0

>  <i_epik_Tot_abs_Q>  (365) 
0

>  <s_lp_Force_Field>  (365) 
OPLS3e

>  <r_lp_Energy>  (365) 
7.79987

>  <b_lp_Chiralities_Consistent>  (365) 
1

>  <s_lp_Variant>  (365) 
88:0-2

>  <s_i_glide_gridfile>  (365) 
pfpi4k_grid

>  <i_i_glide_lignum>  (365) 
9

>  <i_i_glide_rotatable_bonds>  (365) 
2

>  <r_i_docking_score>  (365) 
-3.19243

>  <r_i_glide_ligand_efficiency>  (365) 
-0.319243

>  <r_i_glide_ligand_efficiency_sa>  (365) 
-0.687789

>  <r_i_glide_ligand_efficiency_ln>  (365) 
-0.966647

>  <r_i_glide_gscore>  (365) 
-3.19243

>  <r_i_glide_lipo>  (365) 
-0.514482

>  <r_i_glide_hbond>  (365) 
0

>  <r_i_glide_metal>  (365) 
-0

>  <r_i_glide_rewards>  (365) 
-2.42761

>  <r_i_glide_evdw>  (365) 
-17.5058

>  <r_i_glide_ecoul>  (365) 
-0.0881714

>  <r_i_glide_erotb>  (365) 
0.638175

>  <r_i_glide_esite>  (365) 
0

>  <r_i_glide_emodel>  (365) 
-20.5419

>  <r_i_glide_energy>  (365) 
-17.594

>  <r_i_glide_einternal>  (365) 
1.41828

>  <r_i_glide_intrahb_reward>  (365) 
-0

>  <i_i_glide_confnum>  (365) 
2

>  <i_i_glide_posenum>  (365) 
10

>  <r_i_glide_eff_state_penalty>  (365) 
0

>  <ligand_id>  (365) 
88

>  <original_smiles>  (365) 
CC(=O)C=Cc1cccs1

>  <smiles>  (365) 
[H]C(C(=O)C([H])([H])[H])=C([H])c1sc([H])c([H])c1[H]

$$$$
89:0:0
     RDKit          3D

 58 61  0  0  1  0  0  0  0  0999 V2000
    4.1258   -2.0822   -3.5384 C   0  0  0  0  0  0  0  0  0  0  0  0
    4.4929   -2.3449   -2.0691 C   0  0  2  0  0  0  0  0  0  0  0  0
    5.3434   -3.6047   -1.8702 C   0  0  0  0  0  0  0  0  0  0  0  0
    4.7121   -4.2974   -0.6700 C   0  0  1  0  0  0  0  0  0  0  0  0
    5.7237   -4.9971    0.2478 C   0  0  0  0  0  0  0  0  0  0  0  0
    5.1231   -5.9804    1.0720 O   0  0  0  0  0  0  0  0  0  0  0  0
    3.6761   -3.2682   -0.1016 C   0  0  1  0  0  0  0  0  0  0  0  0
    3.3121   -2.6447   -1.3429 O   0  0  0  0  0  0  0  0  0  0  0  0
    2.3549   -3.8427    0.4407 C   0  0  1  0  0  0  0  0  0  0  0  0
    1.8660   -4.9842   -0.2681 O   0  0  0  0  0  0  0  0  0  0  0  0
    2.4255   -4.2350    1.9151 C   0  0  0  0  0  0  0  0  0  0  0  0
    2.8815   -3.1125    2.8995 C   0  0  1  0  0  0  0  0  0  0  0  0
    2.9776   -3.7059    4.3709 C   0  0  0  0  0  0  0  0  0  0  0  0
    3.1601   -2.6019    5.4362 C   0  0  0  0  0  0  0  0  0  0  0  0
    1.6615   -4.4256    4.7745 C   0  0  0  0  0  0  0  0  0  0  0  0
    4.1970   -4.6765    4.5110 C   0  0  1  0  0  0  0  0  0  0  0  0
    3.9328   -6.0139    4.1440 O   0  0  0  0  0  0  0  0  0  0  0  0
    5.4064   -4.1895    3.7349 C   0  0  0  0  0  0  0  0  0  0  0  0
    5.3946   -3.1802    2.8474 C   0  0  0  0  0  0  0  0  0  0  0  0
    4.1962   -2.3567    2.3938 C   0  0  2  0  0  0  0  0  0  0  0  0
    4.3631   -0.9786    3.1129 C   0  0  0  0  0  0  0  0  0  0  0  0
    4.1410   -2.0679    0.8181 C   0  0  2  0  0  0  0  0  0  0  0  0
    3.0712   -1.1303    0.7511 O   0  0  0  0  0  0  0  0  0  0  0  0
    5.2997   -1.2559    0.1234 C   0  0  1  0  0  0  0  0  0  0  0  0
    6.5962   -1.7666    0.3244 O   0  0  0  0  0  0  0  0  0  0  0  0
    5.0899   -1.0977   -1.3989 C   0  0  0  0  0  0  0  0  0  0  0  0
    5.0095   -1.8363   -4.1265 H   0  0  0  0  0  0  0  0  0  0  0  0
    3.4363   -1.2421   -3.6295 H   0  0  0  0  0  0  0  0  0  0  0  0
    3.6476   -2.9489   -3.9935 H   0  0  0  0  0  0  0  0  0  0  0  0
    5.2819   -4.2585   -2.7376 H   0  0  0  0  0  0  0  0  0  0  0  0
    6.3958   -3.3680   -1.7251 H   0  0  0  0  0  0  0  0  0  0  0  0
    4.1644   -5.1165   -1.1215 H   0  0  0  0  0  0  0  0  0  0  0  0
    6.4427   -5.5705   -0.3211 H   0  0  0  0  0  0  0  0  0  0  0  0
    6.3596   -4.2998    0.7862 H   0  0  0  0  0  0  0  0  0  0  0  0
    5.7405   -6.2168    1.7491 H   0  0  0  0  0  0  0  0  0  0  0  0
    1.6470   -3.0293    0.3072 H   0  0  0  0  0  0  0  0  0  0  0  0
    2.4319   -5.1515   -1.0083 H   0  0  0  0  0  0  0  0  0  0  0  0
    1.4250   -4.5819    2.1899 H   0  0  0  0  0  0  0  0  0  0  0  0
    3.0727   -5.1061    2.0089 H   0  0  0  0  0  0  0  0  0  0  0  0
    2.0726   -2.3818    2.8984 H   0  0  0  0  0  0  0  0  0  0  0  0
    2.8201   -2.9249    6.4186 H   0  0  0  0  0  0  0  0  0  0  0  0
    2.6179   -1.6986    5.1766 H   0  0  0  0  0  0  0  0  0  0  0  0
    4.2070   -2.3573    5.5797 H   0  0  0  0  0  0  0  0  0  0  0  0
    1.6734   -4.7153    5.8232 H   0  0  0  0  0  0  0  0  0  0  0  0
    1.4886   -5.3467    4.2177 H   0  0  0  0  0  0  0  0  0  0  0  0
    0.8053   -3.7730    4.6138 H   0  0  0  0  0  0  0  0  0  0  0  0
    4.4926   -4.7189    5.5611 H   0  0  0  0  0  0  0  0  0  0  0  0
    4.6772   -6.5471    4.3700 H   0  0  0  0  0  0  0  0  0  0  0  0
    6.3238   -4.6935    3.9727 H   0  0  0  0  0  0  0  0  0  0  0  0
    6.3540   -2.8883    2.4417 H   0  0  0  0  0  0  0  0  0  0  0  0
    3.4127   -0.4603    3.2313 H   0  0  0  0  0  0  0  0  0  0  0  0
    5.0291   -0.2977    2.5893 H   0  0  0  0  0  0  0  0  0  0  0  0
    4.8224   -1.0618    4.0914 H   0  0  0  0  0  0  0  0  0  0  0  0
    2.6687   -1.1910   -0.1113 H   0  0  0  0  0  0  0  0  0  0  0  0
    5.3358   -0.2392    0.5150 H   0  0  0  0  0  0  0  0  0  0  0  0
    6.7768   -1.7184    1.2524 H   0  0  0  0  0  0  0  0  0  0  0  0
    6.0197   -0.8286   -1.8959 H   0  0  0  0  0  0  0  0  0  0  0  0
    4.4059   -0.2676   -1.5680 H   0  0  0  0  0  0  0  0  0  0  0  0
  2  1  1  6
  1 27  1  0
  1 28  1  0
  1 29  1  0
  2  8  1  0
  2 26  1  0
  2  3  1  0
  3  4  1  0
  3 30  1  0
  3 31  1  0
  4  5  1  0
  4  7  1  0
  4 32  1  6
  5  6  1  0
  5 33  1  0
  5 34  1  0
  6 35  1  0
  7 22  1  0
  7  8  1  6
  7  9  1  0
  9 10  1  0
  9 11  1  0
  9 36  1  1
 10 37  1  0
 11 12  1  0
 11 38  1  0
 11 39  1  0
 12 20  1  0
 12 13  1  0
 12 40  1  1
 13 14  1  0
 13 15  1  0
 13 16  1  0
 14 41  1  0
 14 42  1  0
 14 43  1  0
 15 44  1  0
 15 45  1  0
 15 46  1  0
 16 17  1  0
 16 18  1  0
 16 47  1  1
 17 48  1  0
 18 19  2  0
 18 49  1  0
 19 20  1  0
 19 50  1  0
 20 21  1  1
 20 22  1  0
 21 51  1  0
 21 52  1  0
 21 53  1  0
 22 23  1  1
 22 24  1  0
 23 54  1  0
 24 25  1  0
 24 26  1  0
 24 55  1  1
 25 56  1  0
 26 57  1  0
 26 58  1  0
M  END
>  <i_m_ct_stereo_status>  (366) 
1

>  <s_m_source_file>  (366) 
/var/tmp/pbs.5102103.sched01/tmpr2ljwd0b/132iqlgd2x9.sdf

>  <i_m_source_file_index>  (366) 
10

>  <i_lp_mmshare_version>  (366) 
48012

>  <i_f3d_flags>  (366) 
0

>  <s_epik_input>  (366) 
W09IXVtDSDJdW0NAQEhdMVtDSDJdW0NAXShPMikoW0NIM10pW0NIMl1bQ0BIXShbT0hdKVtDQF0oW0NAXTEyMykoW09IXSlbQ0BAXTQoW0NIM10pW0NAQEhdKFtDSDJdW0NAQEhdM1tPSF0pQyhbQ0gzXSkoW0NIM10pW0NAQEhdKFtPSF0pW0NIXT1bQ0hdNA==

>  <s_epik_cmdline>  (366) 
J2VwaWtfcHl0aG9uJywgJy1waHQnLCAnMi4wJywgJy1waCcsICc3LjAnLCAnLXRuJywgJzgnLCAnLW1hJywgJzIwMCcsICctaW1hZScsICc8aW5maWxlLm1hZT4nLCAnLW9tYWUnLCAnPG91dGZpbGUubWFlPic=

>  <r_lp_tautomer_probability>  (366) 
1

>  <r_epik_Ionization_Penalty>  (366) 
4.86022e-07

>  <r_epik_Ionization_Penalty_Charging>  (366) 
0

>  <r_epik_Ionization_Penalty_Neutral>  (366) 
4.86022e-07

>  <r_epik_State_Penalty>  (366) 
-0

>  <r_epik_Charging_Adjusted_Penalty>  (366) 
0

>  <i_epik_Tot_Q>  (366) 
0

>  <i_epik_Tot_abs_Q>  (366) 
0

>  <s_lp_Force_Field>  (366) 
OPLS3e

>  <r_lp_Energy>  (366) 
50.5977

>  <b_lp_Chiralities_Consistent>  (366) 
1

>  <s_lp_Variant>  (366) 
89:0-1

>  <s_i_glide_gridfile>  (366) 
pfpi4k_grid

>  <i_i_glide_lignum>  (366) 
10

>  <i_i_glide_rotatable_bonds>  (366) 
6

>  <r_i_docking_score>  (366) 
-2.91023

>  <r_i_glide_ligand_efficiency>  (366) 
-0.111932

>  <r_i_glide_ligand_efficiency_sa>  (366) 
-0.331598

>  <r_i_glide_ligand_efficiency_ln>  (366) 
-0.683458

>  <r_i_glide_gscore>  (366) 
-2.91023

>  <r_i_glide_lipo>  (366) 
-0.533353

>  <r_i_glide_hbond>  (366) 
0

>  <r_i_glide_metal>  (366) 
-0

>  <r_i_glide_rewards>  (366) 
-0.896833

>  <r_i_glide_evdw>  (366) 
-15.8456

>  <r_i_glide_ecoul>  (366) 
-5.53133

>  <r_i_glide_erotb>  (366) 
0.141936

>  <r_i_glide_esite>  (366) 
0

>  <r_i_glide_emodel>  (366) 
-22.7767

>  <r_i_glide_energy>  (366) 
-21.377

>  <r_i_glide_einternal>  (366) 
2.97505

>  <r_i_glide_intrahb_reward>  (366) 
-0

>  <i_i_glide_confnum>  (366) 
5

>  <i_i_glide_posenum>  (366) 
26

>  <r_i_glide_eff_state_penalty>  (366) 
0

>  <ligand_id>  (366) 
89

>  <original_smiles>  (366) 
CC12CC(CO)C3(O1)C(O)CC1C(C)(C)C(O)C=CC1(C)C3(O)C(O)C2

>  <smiles>  (366) 
[H]OC([H])([H])C1([H])C([H])([H])C2(C([H])([H])[H])OC13C([H])(O[H])C([H])([H])C1([H])C(C([H])([H])[H])(C([H])=C([H])C([H])(O[H])C1(C([H])([H])[H])C([H])([H])[H])C3(O[H])C([H])(O[H])C2([H])[H]

$$$$
90:0:0
     RDKit          3D

 29 30  0  0  1  0  0  0  0  0999 V2000
    2.7002   -1.6680    2.9678 C   0  0  0  0  0  0  0  0  0  0  0  0
    3.1456   -0.8574    1.7343 C   0  0  0  0  0  0  0  0  0  0  0  0
    4.5885   -0.2832    1.8867 C   0  0  0  0  0  0  0  0  0  0  0  0
    2.1113    0.0906    1.3105 N   0  0  0  0  0  0  0  0  0  0  0  0
    1.7301    1.2014    2.0666 C   0  0  0  0  0  0  0  0  0  0  0  0
    2.6308    1.9309    2.6361 N   0  0  0  0  0  0  0  0  0  0  0  0
    2.1750    3.0218    3.3730 N   0  0  0  0  0  0  0  0  0  0  0  0
    3.0876    3.6688    4.1029 O   0  0  0  0  0  0  0  0  0  0  0  0
    0.8234    3.2420    3.7101 C   0  0  0  0  0  0  0  0  0  0  0  0
    0.4517    4.2921    4.5865 C   0  0  0  0  0  0  0  0  0  0  0  0
   -0.9060    4.5243    4.8149 C   0  0  0  0  0  0  0  0  0  0  0  0
   -1.8813    3.7186    4.1898 C   0  0  0  0  0  0  0  0  0  0  0  0
   -1.5102    2.6579    3.3408 C   0  0  0  0  0  0  0  0  0  0  0  0
   -0.1436    2.4191    3.0845 C   0  0  0  0  0  0  0  0  0  0  0  0
    0.3615    1.4498    2.2079 N   0  0  0  0  0  0  0  0  0  0  0  0
   -0.6215    0.5915    1.6916 O   0  0  0  0  0  0  0  0  0  0  0  0
    3.4374   -2.4301    3.2285 H   0  0  0  0  0  0  0  0  0  0  0  0
    1.7498   -2.1657    2.7699 H   0  0  0  0  0  0  0  0  0  0  0  0
    2.5673   -1.0175    3.8298 H   0  0  0  0  0  0  0  0  0  0  0  0
    3.1760   -1.5330    0.8850 H   0  0  0  0  0  0  0  0  0  0  0  0
    5.3120   -1.0767    2.0964 H   0  0  0  0  0  0  0  0  0  0  0  0
    4.7245    0.3811    2.7377 H   0  0  0  0  0  0  0  0  0  0  0  0
    4.8748    0.2358    0.9693 H   0  0  0  0  0  0  0  0  0  0  0  0
    1.2000    4.9246    5.0613 H   0  0  0  0  0  0  0  0  0  0  0  0
   -1.1751    5.3251    5.4787 H   0  0  0  0  0  0  0  0  0  0  0  0
   -2.9288    3.8832    4.3485 H   0  0  0  0  0  0  0  0  0  0  0  0
   -2.2593    2.0434    2.8533 H   0  0  0  0  0  0  0  0  0  0  0  0
    1.4536   -0.3127    0.6184 H   0  0  0  0  0  0  0  0  0  0  0  0
   -0.6765    0.7890    0.7390 H   0  0  0  0  0  0  0  0  0  0  0  0
  1  2  1  0
  1 17  1  0
  1 18  1  0
  1 19  1  0
  2  3  1  0
  2  4  1  0
  2 20  1  0
  3 21  1  0
  3 22  1  0
  3 23  1  0
  4  5  1  0
  4 28  1  0
  5 15  1  0
  5  6  2  0
  6  7  1  0
  7  8  2  0
  7  9  1  0
  9 14  2  0
  9 10  1  0
 10 11  2  0
 10 24  1  0
 11 12  1  0
 11 25  1  0
 12 13  2  0
 12 26  1  0
 13 14  1  0
 13 27  1  0
 14 15  1  0
 15 16  1  0
 16 29  1  0
M  CHG  1   7   1
M  END
>  <i_m_ct_stereo_status>  (367) 
1

>  <s_m_source_file>  (367) 
/var/tmp/pbs.5102103.sched01/tmpr2ljwd0b/132iqlgd2x9.sdf

>  <i_m_source_file_index>  (367) 
11

>  <i_lp_mmshare_version>  (367) 
48012

>  <i_f3d_flags>  (367) 
0

>  <s_epik_input>  (367) 
W0NIM11bQ0hdKFtDSDNdKS9OPWMoXFtuSF1bbitdMVtPLV0pW24rXShbTy1dKWMoYzEyKVtjSF1bY0hdW2NIXVtjSF0y

>  <s_epik_cmdline>  (367) 
J2VwaWtfcHl0aG9uJywgJy1waHQnLCAnMi4wJywgJy1waCcsICc3LjAnLCAnLXRuJywgJzgnLCAnLW1hJywgJzIwMCcsICctaW1hZScsICc8aW5maWxlLm1hZT4nLCAnLW9tYWUnLCAnPG91dGZpbGUubWFlPic=

>  <r_epik_Ionization_Penalty>  (367) 
0.00044277

>  <r_epik_Ionization_Penalty_Charging>  (367) 
0

>  <r_epik_Ionization_Penalty_Neutral>  (367) 
0.00044277

>  <r_epik_State_Penalty>  (367) 
0.000273228

>  <r_epik_Charging_Adjusted_Penalty>  (367) 
0.000273228

>  <i_epik_Tot_Q>  (367) 
1

>  <i_epik_Tot_abs_Q>  (367) 
1

>  <s_epik_Chemistry_Notes>  (367) 
This compound has an imine and may undergo hydrolysis. This compound has a N-S or N-O group and may undergo hydrolysis at high or low pH.

>  <s_lp_Force_Field>  (367) 
OPLS3e

>  <r_lp_Energy>  (367) 
26.7546

>  <b_lp_Chiralities_Consistent>  (367) 
1

>  <s_lp_Variant>  (367) 
90:0-1

>  <s_i_glide_gridfile>  (367) 
pfpi4k_grid

>  <i_i_glide_lignum>  (367) 
11

>  <i_i_glide_rotatable_bonds>  (367) 
3

>  <r_i_docking_score>  (367) 
-4.44153

>  <r_i_glide_ligand_efficiency>  (367) 
-0.277596

>  <r_i_glide_ligand_efficiency_sa>  (367) 
-0.699497

>  <r_i_glide_ligand_efficiency_ln>  (367) 
-1.17732

>  <r_i_glide_gscore>  (367) 
-4.44153

>  <r_i_glide_lipo>  (367) 
-0.111649

>  <r_i_glide_hbond>  (367) 
-0.352327

>  <r_i_glide_metal>  (367) 
-0

>  <r_i_glide_rewards>  (367) 
-1.90066

>  <r_i_glide_evdw>  (367) 
-13.2294

>  <r_i_glide_ecoul>  (367) 
-9.74758

>  <r_i_glide_erotb>  (367) 
0.241315

>  <r_i_glide_esite>  (367) 
-0.194596

>  <r_i_glide_emodel>  (367) 
-30.4845

>  <r_i_glide_energy>  (367) 
-22.977

>  <r_i_glide_einternal>  (367) 
2.70369

>  <r_i_glide_intrahb_reward>  (367) 
-0

>  <i_i_glide_confnum>  (367) 
1

>  <i_i_glide_posenum>  (367) 
1

>  <r_i_glide_eff_state_penalty>  (367) 
0

>  <ligand_id>  (367) 
90

>  <original_smiles>  (367) 
CC(C)N=c1[nH][n+]([O-])c2ccccc2[n+]1[O-]

>  <smiles>  (367) 
[H]On1c(N([H])C([H])(C([H])([H])[H])C([H])([H])[H])n[n+](=O)c2c([H])c([H])c([H])c([H])c21

$$$$
90:0:1
     RDKit          3D

 29 30  0  0  1  0  0  0  0  0999 V2000
    4.5749   -0.3289    1.7765 C   0  0  0  0  0  0  0  0  0  0  0  0
    3.1410   -0.9339    1.6655 C   0  0  0  0  0  0  0  0  0  0  0  0
    3.1571   -2.0804    0.6469 C   0  0  0  0  0  0  0  0  0  0  0  0
    2.0669    0.0128    1.3369 N   0  0  0  0  0  0  0  0  0  0  0  0
    1.7206    1.1241    2.1184 C   0  0  0  0  0  0  0  0  0  0  0  0
    2.6316    1.8306    2.7021 N   0  0  0  0  0  0  0  0  0  0  0  0
    2.1960    2.9516    3.4086 N   0  0  0  0  0  0  0  0  0  0  0  0
    3.1253    3.5957    4.1258 O   0  0  0  0  0  0  0  0  0  0  0  0
    0.8475    3.2108    3.7425 C   0  0  0  0  0  0  0  0  0  0  0  0
    0.4928    4.2630    4.6255 C   0  0  0  0  0  0  0  0  0  0  0  0
   -0.8612    4.5202    4.8498 C   0  0  0  0  0  0  0  0  0  0  0  0
   -1.8513    3.7380    4.2212 C   0  0  0  0  0  0  0  0  0  0  0  0
   -1.4988    2.6742    3.3617 C   0  0  0  0  0  0  0  0  0  0  0  0
   -0.1329    2.4119    3.1103 C   0  0  0  0  0  0  0  0  0  0  0  0
    0.3552    1.4215    2.2448 N   0  0  0  0  0  0  0  0  0  0  0  0
   -0.6442    0.6127    1.6929 O   0  0  0  0  0  0  0  0  0  0  0  0
    5.2953   -1.1075    2.0406 H   0  0  0  0  0  0  0  0  0  0  0  0
    4.7213    0.3847    2.5874 H   0  0  0  0  0  0  0  0  0  0  0  0
    4.8655    0.1452    0.8343 H   0  0  0  0  0  0  0  0  0  0  0  0
    2.8482   -1.3536    2.6303 H   0  0  0  0  0  0  0  0  0  0  0  0
    3.9023   -2.8139    0.9470 H   0  0  0  0  0  0  0  0  0  0  0  0
    3.4227   -1.7273   -0.3501 H   0  0  0  0  0  0  0  0  0  0  0  0
    2.1976   -2.5906    0.5898 H   0  0  0  0  0  0  0  0  0  0  0  0
    1.2496    4.8758    5.1069 H   0  0  0  0  0  0  0  0  0  0  0  0
   -1.1185    5.3311    5.5104 H   0  0  0  0  0  0  0  0  0  0  0  0
   -2.8956    3.9194    4.3774 H   0  0  0  0  0  0  0  0  0  0  0  0
   -2.2571    2.0798    2.8681 H   0  0  0  0  0  0  0  0  0  0  0  0
    1.4085   -0.3392    0.6313 H   0  0  0  0  0  0  0  0  0  0  0  0
   -0.6727    0.8210    0.7415 H   0  0  0  0  0  0  0  0  0  0  0  0
  1  2  1  0
  1 17  1  0
  1 18  1  0
  1 19  1  0
  2  3  1  0
  2  4  1  0
  2 20  1  0
  3 21  1  0
  3 22  1  0
  3 23  1  0
  4  5  1  0
  4 28  1  0
  5 15  1  0
  5  6  2  0
  6  7  1  0
  7  8  2  0
  7  9  1  0
  9 14  2  0
  9 10  1  0
 10 11  2  0
 10 24  1  0
 11 12  1  0
 11 25  1  0
 12 13  2  0
 12 26  1  0
 13 14  1  0
 13 27  1  0
 14 15  1  0
 15 16  1  0
 16 29  1  0
M  CHG  1   7   1
M  END
>  <i_m_ct_stereo_status>  (368) 
1

>  <s_m_source_file>  (368) 
/var/tmp/pbs.5102103.sched01/tmpr2ljwd0b/132iqlgd2x9.sdf

>  <i_m_source_file_index>  (368) 
11

>  <i_lp_mmshare_version>  (368) 
48012

>  <i_f3d_flags>  (368) 
0

>  <s_epik_input>  (368) 
W0NIM11bQ0hdKFtDSDNdKS9OPWMoXFtuSF1bbitdMVtPLV0pW24rXShbTy1dKWMoYzEyKVtjSF1bY0hdW2NIXVtjSF0y

>  <s_epik_cmdline>  (368) 
J2VwaWtfcHl0aG9uJywgJy1waHQnLCAnMi4wJywgJy1waCcsICc3LjAnLCAnLXRuJywgJzgnLCAnLW1hJywgJzIwMCcsICctaW1hZScsICc8aW5maWxlLm1hZT4nLCAnLW9tYWUnLCAnPG91dGZpbGUubWFlPic=

>  <r_epik_Ionization_Penalty>  (368) 
0.00044277

>  <r_epik_Ionization_Penalty_Charging>  (368) 
0

>  <r_epik_Ionization_Penalty_Neutral>  (368) 
0.00044277

>  <r_epik_State_Penalty>  (368) 
0.000273228

>  <r_epik_Charging_Adjusted_Penalty>  (368) 
0.000273228

>  <i_epik_Tot_Q>  (368) 
1

>  <i_epik_Tot_abs_Q>  (368) 
1

>  <s_epik_Chemistry_Notes>  (368) 
This compound has an imine and may undergo hydrolysis. This compound has a N-S or N-O group and may undergo hydrolysis at high or low pH.

>  <s_lp_Force_Field>  (368) 
OPLS3e

>  <r_lp_Energy>  (368) 
26.7546

>  <b_lp_Chiralities_Consistent>  (368) 
1

>  <s_lp_Variant>  (368) 
90:0-1

>  <s_i_glide_gridfile>  (368) 
pfpi4k_grid

>  <i_i_glide_lignum>  (368) 
11

>  <i_i_glide_rotatable_bonds>  (368) 
3

>  <r_i_docking_score>  (368) 
-4.35112

>  <r_i_glide_ligand_efficiency>  (368) 
-0.271945

>  <r_i_glide_ligand_efficiency_sa>  (368) 
-0.685258

>  <r_i_glide_ligand_efficiency_ln>  (368) 
-1.15335

>  <r_i_glide_gscore>  (368) 
-4.35112

>  <r_i_glide_lipo>  (368) 
-0.122478

>  <r_i_glide_hbond>  (368) 
-0.344787

>  <r_i_glide_metal>  (368) 
-0

>  <r_i_glide_rewards>  (368) 
-1.90066

>  <r_i_glide_evdw>  (368) 
-13.3925

>  <r_i_glide_ecoul>  (368) 
-9.72653

>  <r_i_glide_erotb>  (368) 
0.344736

>  <r_i_glide_esite>  (368) 
-0.199319

>  <r_i_glide_emodel>  (368) 
-30.5796

>  <r_i_glide_energy>  (368) 
-23.1191

>  <r_i_glide_einternal>  (368) 
2.1709

>  <r_i_glide_intrahb_reward>  (368) 
-0

>  <i_i_glide_confnum>  (368) 
1

>  <i_i_glide_posenum>  (368) 
22

>  <r_i_glide_eff_state_penalty>  (368) 
0

>  <ligand_id>  (368) 
90

>  <original_smiles>  (368) 
CC(C)N=c1[nH][n+]([O-])c2ccccc2[n+]1[O-]

>  <smiles>  (368) 
[H]On1c(N([H])C([H])(C([H])([H])[H])C([H])([H])[H])n[n+](=O)c2c([H])c([H])c([H])c([H])c21

$$$$
90:0:2
     RDKit          3D

 29 30  0  0  1  0  0  0  0  0999 V2000
   -3.0249    3.1014    9.7768 C   0  0  0  0  0  0  0  0  0  0  0  0
   -2.0583    3.0416    8.5839 C   0  0  0  0  0  0  0  0  0  0  0  0
   -1.3145    4.3773    8.4021 C   0  0  0  0  0  0  0  0  0  0  0  0
   -2.7763    2.6507    7.3741 N   0  0  0  0  0  0  0  0  0  0  0  0
   -2.1823    2.4335    6.1328 C   0  0  0  0  0  0  0  0  0  0  0  0
   -2.5000    3.1908    5.1220 N   0  0  0  0  0  0  0  0  0  0  0  0
   -1.8815    2.8641    3.9250 N   0  0  0  0  0  0  0  0  0  0  0  0
   -2.1932    3.6467    2.8848 O   0  0  0  0  0  0  0  0  0  0  0  0
   -0.9529    1.8016    3.7061 C   0  0  0  0  0  0  0  0  0  0  0  0
   -0.3586    1.5402    2.4539 C   0  0  0  0  0  0  0  0  0  0  0  0
    0.5461    0.4730    2.3185 C   0  0  0  0  0  0  0  0  0  0  0  0
    0.8561   -0.3347    3.4282 C   0  0  0  0  0  0  0  0  0  0  0  0
    0.2673   -0.0771    4.6835 C   0  0  0  0  0  0  0  0  0  0  0  0
   -0.6415    1.0011    4.8239 C   0  0  0  0  0  0  0  0  0  0  0  0
   -1.2807    1.3634    6.0253 N   0  0  0  0  0  0  0  0  0  0  0  0
   -0.9633    0.5399    7.1148 O   0  0  0  0  0  0  0  0  0  0  0  0
   -2.4947    3.3141   10.7061 H   0  0  0  0  0  0  0  0  0  0  0  0
   -3.5320    2.1486    9.9187 H   0  0  0  0  0  0  0  0  0  0  0  0
   -3.7862    3.8704    9.6450 H   0  0  0  0  0  0  0  0  0  0  0  0
   -1.3214    2.2760    8.8166 H   0  0  0  0  0  0  0  0  0  0  0  0
   -0.7515    4.6358    9.2995 H   0  0  0  0  0  0  0  0  0  0  0  0
   -2.0046    5.1954    8.1948 H   0  0  0  0  0  0  0  0  0  0  0  0
   -0.5963    4.3258    7.5831 H   0  0  0  0  0  0  0  0  0  0  0  0
   -0.5854    2.1444    1.5891 H   0  0  0  0  0  0  0  0  0  0  0  0
    0.9925    0.2688    1.3554 H   0  0  0  0  0  0  0  0  0  0  0  0
    1.5468   -1.1566    3.3145 H   0  0  0  0  0  0  0  0  0  0  0  0
    0.5245   -0.7102    5.5207 H   0  0  0  0  0  0  0  0  0  0  0  0
   -3.6850    3.0878    7.3778 H   0  0  0  0  0  0  0  0  0  0  0  0
   -0.2309    0.9666    7.5392 H   0  0  0  0  0  0  0  0  0  0  0  0
  1  2  1  0
  1 17  1  0
  1 18  1  0
  1 19  1  0
  2  3  1  0
  2  4  1  0
  2 20  1  0
  3 21  1  0
  3 22  1  0
  3 23  1  0
  4  5  1  0
  4 28  1  0
  5 15  1  0
  5  6  2  0
  6  7  1  0
  7  8  2  0
  7  9  1  0
  9 14  2  0
  9 10  1  0
 10 11  2  0
 10 24  1  0
 11 12  1  0
 11 25  1  0
 12 13  2  0
 12 26  1  0
 13 14  1  0
 13 27  1  0
 14 15  1  0
 15 16  1  0
 16 29  1  0
M  CHG  1   7   1
M  END
>  <i_m_ct_stereo_status>  (369) 
1

>  <s_m_source_file>  (369) 
/var/tmp/pbs.5102103.sched01/tmpr2ljwd0b/132iqlgd2x9.sdf

>  <i_m_source_file_index>  (369) 
11

>  <i_lp_mmshare_version>  (369) 
48012

>  <i_f3d_flags>  (369) 
0

>  <s_epik_input>  (369) 
W0NIM11bQ0hdKFtDSDNdKS9OPWMoXFtuSF1bbitdMVtPLV0pW24rXShbTy1dKWMoYzEyKVtjSF1bY0hdW2NIXVtjSF0y

>  <s_epik_cmdline>  (369) 
J2VwaWtfcHl0aG9uJywgJy1waHQnLCAnMi4wJywgJy1waCcsICc3LjAnLCAnLXRuJywgJzgnLCAnLW1hJywgJzIwMCcsICctaW1hZScsICc8aW5maWxlLm1hZT4nLCAnLW9tYWUnLCAnPG91dGZpbGUubWFlPic=

>  <r_epik_Ionization_Penalty>  (369) 
0.00044277

>  <r_epik_Ionization_Penalty_Charging>  (369) 
0

>  <r_epik_Ionization_Penalty_Neutral>  (369) 
0.00044277

>  <r_epik_State_Penalty>  (369) 
0.000273228

>  <r_epik_Charging_Adjusted_Penalty>  (369) 
0.000273228

>  <i_epik_Tot_Q>  (369) 
1

>  <i_epik_Tot_abs_Q>  (369) 
1

>  <s_epik_Chemistry_Notes>  (369) 
This compound has an imine and may undergo hydrolysis. This compound has a N-S or N-O group and may undergo hydrolysis at high or low pH.

>  <s_lp_Force_Field>  (369) 
OPLS3e

>  <r_lp_Energy>  (369) 
26.7546

>  <b_lp_Chiralities_Consistent>  (369) 
1

>  <s_lp_Variant>  (369) 
90:0-1

>  <s_i_glide_gridfile>  (369) 
pfpi4k_grid

>  <i_i_glide_lignum>  (369) 
11

>  <i_i_glide_rotatable_bonds>  (369) 
3

>  <r_i_docking_score>  (369) 
-3.49643

>  <r_i_glide_ligand_efficiency>  (369) 
-0.218527

>  <r_i_glide_ligand_efficiency_sa>  (369) 
-0.550653

>  <r_i_glide_ligand_efficiency_ln>  (369) 
-0.926799

>  <r_i_glide_gscore>  (369) 
-3.49643

>  <r_i_glide_lipo>  (369) 
0

>  <r_i_glide_hbond>  (369) 
-0.106

>  <r_i_glide_metal>  (369) 
-0

>  <r_i_glide_rewards>  (369) 
-1.98557

>  <r_i_glide_evdw>  (369) 
-19.4071

>  <r_i_glide_ecoul>  (369) 
-4.78218

>  <r_i_glide_erotb>  (369) 
0.344736

>  <r_i_glide_esite>  (369) 
-0.0619182

>  <r_i_glide_emodel>  (369) 
-28.5281

>  <r_i_glide_energy>  (369) 
-24.1893

>  <r_i_glide_einternal>  (369) 
5.98223

>  <r_i_glide_intrahb_reward>  (369) 
-0

>  <i_i_glide_confnum>  (369) 
4

>  <i_i_glide_posenum>  (369) 
4

>  <r_i_glide_eff_state_penalty>  (369) 
0

>  <ligand_id>  (369) 
90

>  <original_smiles>  (369) 
CC(C)N=c1[nH][n+]([O-])c2ccccc2[n+]1[O-]

>  <smiles>  (369) 
[H]On1c(N([H])C([H])(C([H])([H])[H])C([H])([H])[H])n[n+](=O)c2c([H])c([H])c([H])c([H])c21

$$$$
91:0:0
     RDKit          3D

 40 44  0  0  1  0  0  0  0  0999 V2000
    4.3699   -5.3452    4.7085 C   0  0  0  0  0  0  0  0  0  0  0  0
    4.1013   -6.3736    3.5963 C   0  0  2  0  0  0  0  0  0  0  0  0
    4.6092   -5.8585    2.2606 C   0  0  2  0  0  0  0  0  0  0  0  0
    4.6349   -6.7708    1.1542 O   0  0  0  0  0  0  0  0  0  0  0  0
    5.9019   -6.3631    1.6792 C   0  0  2  0  0  0  0  0  0  0  0  0
    6.7036   -7.4593    2.3277 C   0  0  0  0  0  0  0  0  0  0  0  0
    7.9458   -7.6117    1.4605 C   0  0  0  0  0  0  0  0  0  0  0  0
    8.0473   -6.3341    0.6359 C   0  0  2  0  0  0  0  0  0  0  0  0
    8.0111   -4.9456    1.2175 C   0  0  1  0  0  0  0  0  0  0  0  0
    8.6054   -3.7583    0.4922 C   0  0  0  0  0  0  0  0  0  0  0  0
    8.8331   -4.0547   -0.7809 F   0  0  0  0  0  0  0  0  0  0  0  0
    7.7792   -2.7175    0.5532 F   0  0  0  0  0  0  0  0  0  0  0  0
    9.7570   -3.4434    1.0678 F   0  0  0  0  0  0  0  0  0  0  0  0
    6.7701   -5.5999    0.7350 C   0  0  2  0  0  0  0  0  0  0  0  0
    2.7400   -6.8760    3.5432 N   0  0  0  0  0  0  0  0  0  0  0  0
    1.3961   -5.9163    4.0839 S   0  0  0  0  0  0  0  0  0  0  0  0
    0.2756   -7.1327    3.5765 C   0  0  0  0  0  0  0  0  0  0  0  0
   -1.1235   -7.0830    3.7154 C   0  0  0  0  0  0  0  0  0  0  0  0
   -1.8599   -8.1835    3.2171 C   0  0  0  0  0  0  0  0  0  0  0  0
   -1.2061   -9.2916    2.6192 C   0  0  0  0  0  0  0  0  0  0  0  0
    0.2085   -9.3253    2.5205 C   0  0  0  0  0  0  0  0  0  0  0  0
    0.9271   -8.2197    3.0057 C   0  0  0  0  0  0  0  0  0  0  0  0
    2.3990   -8.0650    2.9970 C   0  0  0  0  0  0  0  0  0  0  0  0
    3.1634   -8.9144    2.5297 O   0  0  0  0  0  0  0  0  0  0  0  0
    5.4216   -5.0593    4.7316 H   0  0  0  0  0  0  0  0  0  0  0  0
    4.1287   -5.7530    5.6904 H   0  0  0  0  0  0  0  0  0  0  0  0
    3.7931   -4.4299    4.5700 H   0  0  0  0  0  0  0  0  0  0  0  0
    4.6989   -7.2503    3.8861 H   0  0  0  0  0  0  0  0  0  0  0  0
    4.2810   -4.8534    1.9813 H   0  0  0  0  0  0  0  0  0  0  0  0
    6.9895   -7.1049    3.3263 H   0  0  0  0  0  0  0  0  0  0  0  0
    6.1350   -8.3904    2.4330 H   0  0  0  0  0  0  0  0  0  0  0  0
    8.8226   -7.7542    2.0864 H   0  0  0  0  0  0  0  0  0  0  0  0
    7.8326   -8.4614    0.7807 H   0  0  0  0  0  0  0  0  0  0  0  0
    8.5655   -6.4532   -0.3231 H   0  0  0  0  0  0  0  0  0  0  0  0
    8.0823   -4.8725    2.3166 H   0  0  0  0  0  0  0  0  0  0  0  0
    6.2946   -5.1902   -0.1711 H   0  0  0  0  0  0  0  0  0  0  0  0
   -1.6126   -6.2677    4.2000 H   0  0  0  0  0  0  0  0  0  0  0  0
   -2.9274   -8.1799    3.3156 H   0  0  0  0  0  0  0  0  0  0  0  0
   -1.7840  -10.1259    2.2637 H   0  0  0  0  0  0  0  0  0  0  0  0
    0.7162  -10.1652    2.0844 H   0  0  0  0  0  0  0  0  0  0  0  0
  1  2  1  0
  1 25  1  0
  1 26  1  0
  1 27  1  0
  2  3  1  0
  2 15  1  0
  2 28  1  1
  3  5  1  0
  3  4  1  0
  3 29  1  6
  5  4  1  6
  5 14  1  0
  5  6  1  0
  6  7  1  0
  6 30  1  0
  6 31  1  0
  7  8  1  0
  7 32  1  0
  7 33  1  0
  8 14  1  0
  8  9  1  0
  8 34  1  6
  9 10  1  0
  9 14  1  0
  9 35  1  1
 10 11  1  0
 10 12  1  0
 10 13  1  0
 14 36  1  6
 15 23  1  0
 15 16  1  0
 16 17  1  0
 17 22  2  0
 17 18  1  0
 18 19  2  0
 18 37  1  0
 19 20  1  0
 19 38  1  0
 20 21  2  0
 20 39  1  0
 21 22  1  0
 21 40  1  0
 22 23  1  0
 23 24  2  0
M  END
>  <i_m_ct_stereo_status>  (370) 
1

>  <s_m_source_file>  (370) 
/var/tmp/pbs.5102103.sched01/tmpr2ljwd0b/132iqlgd2x9.sdf

>  <i_m_source_file_index>  (370) 
12

>  <i_lp_mmshare_version>  (370) 
48012

>  <i_f3d_flags>  (370) 
0

>  <s_epik_input>  (370) 
W2NIXTFbY0hdW2NIXVtjSF1jKGMxMiljKD1PKW4oczIpW0NASF0oW0NIM10pW0NASF0oTzMpW0NAXTM0W0NASF01W0NASF0oW0NIMl1bQ0gyXTQpW0NASF01QyhGKShGKUY=

>  <s_epik_cmdline>  (370) 
J2VwaWtfcHl0aG9uJywgJy1waHQnLCAnMi4wJywgJy1waCcsICc3LjAnLCAnLXRuJywgJzgnLCAnLW1hJywgJzIwMCcsICctaW1hZScsICc8aW5maWxlLm1hZT4nLCAnLW9tYWUnLCAnPG91dGZpbGUubWFlPic=

>  <r_lp_tautomer_probability>  (370) 
1

>  <r_epik_Ionization_Penalty>  (370) 
5.6004e-06

>  <r_epik_Ionization_Penalty_Charging>  (370) 
5.54751e-06

>  <r_epik_Ionization_Penalty_Neutral>  (370) 
5.28878e-08

>  <r_epik_State_Penalty>  (370) 
-0

>  <r_epik_Charging_Adjusted_Penalty>  (370) 
5.54751e-06

>  <i_epik_Tot_Q>  (370) 
0

>  <i_epik_Tot_abs_Q>  (370) 
0

>  <s_lp_Force_Field>  (370) 
OPLS3e

>  <r_lp_Energy>  (370) 
69.7166

>  <b_lp_Chiralities_Consistent>  (370) 
1

>  <s_lp_Variant>  (370) 
91:0-1

>  <s_i_glide_gridfile>  (370) 
pfpi4k_grid

>  <i_i_glide_lignum>  (370) 
12

>  <i_i_glide_rotatable_bonds>  (370) 
3

>  <r_i_docking_score>  (370) 
-2.62401

>  <r_i_glide_ligand_efficiency>  (370) 
-0.109334

>  <r_i_glide_ligand_efficiency_sa>  (370) 
-0.315373

>  <r_i_glide_ligand_efficiency_ln>  (370) 
-0.628046

>  <r_i_glide_gscore>  (370) 
-2.62401

>  <r_i_glide_lipo>  (370) 
-0.575871

>  <r_i_glide_hbond>  (370) 
0

>  <r_i_glide_metal>  (370) 
-0

>  <r_i_glide_rewards>  (370) 
-1.22404

>  <r_i_glide_evdw>  (370) 
-21.1512

>  <r_i_glide_ecoul>  (370) 
0.383997

>  <r_i_glide_erotb>  (370) 
0.302788

>  <r_i_glide_esite>  (370) 
-0.126928

>  <r_i_glide_emodel>  (370) 
-22.0117

>  <r_i_glide_energy>  (370) 
-20.7672

>  <r_i_glide_einternal>  (370) 
3.53085

>  <r_i_glide_intrahb_reward>  (370) 
-0

>  <i_i_glide_confnum>  (370) 
2

>  <i_i_glide_posenum>  (370) 
19

>  <r_i_glide_eff_state_penalty>  (370) 
0

>  <ligand_id>  (370) 
91

>  <original_smiles>  (370) 
CC(C1OC12CCC1C(C(F)(F)F)C12)n1sc2ccccc2c1=O

>  <smiles>  (370) 
[H]c1c([H])c([H])c2c(=O)n(C([H])(C([H])([H])[H])C3([H])OC34C([H])([H])C([H])([H])C3([H])C([H])(C(F)(F)F)C34[H])sc2c1[H]

$$$$
91:0:1
     RDKit          3D

 40 44  0  0  1  0  0  0  0  0999 V2000
    5.1133   -5.9560    4.0937 C   0  0  0  0  0  0  0  0  0  0  0  0
    4.4902   -6.6705    2.8722 C   0  0  2  0  0  0  0  0  0  0  0  0
    4.7127   -5.8471    1.6234 C   0  0  2  0  0  0  0  0  0  0  0  0
    4.9455   -6.5738    0.4194 O   0  0  0  0  0  0  0  0  0  0  0  0
    6.0523   -5.8230    0.9354 C   0  0  2  0  0  0  0  0  0  0  0  0
    7.2487   -6.6202    1.4107 C   0  0  0  0  0  0  0  0  0  0  0  0
    8.3642   -5.5752    1.4706 C   0  0  0  0  0  0  0  0  0  0  0  0
    7.9710   -4.4758    0.4917 C   0  0  2  0  0  0  0  0  0  0  0  0
    6.9941   -3.3770    0.8239 C   0  0  1  0  0  0  0  0  0  0  0  0
    7.0546   -2.0712    0.0667 C   0  0  0  0  0  0  0  0  0  0  0  0
    7.1994   -2.2574   -1.2425 F   0  0  0  0  0  0  0  0  0  0  0  0
    5.9430   -1.3747    0.2820 F   0  0  0  0  0  0  0  0  0  0  0  0
    8.0955   -1.3709    0.4937 F   0  0  0  0  0  0  0  0  0  0  0  0
    6.4962   -4.6282    0.1506 C   0  0  2  0  0  0  0  0  0  0  0  0
    3.0949   -7.0502    3.0713 N   0  0  0  0  0  0  0  0  0  0  0  0
    1.9983   -6.0245    3.9469 S   0  0  0  0  0  0  0  0  0  0  0  0
    0.6817   -7.1076    3.6190 C   0  0  0  0  0  0  0  0  0  0  0  0
   -0.6455   -6.9542    4.0475 C   0  0  0  0  0  0  0  0  0  0  0  0
   -1.5616   -7.9553    3.6614 C   0  0  0  0  0  0  0  0  0  0  0  0
   -1.1506   -9.0645    2.8825 C   0  0  0  0  0  0  0  0  0  0  0  0
    0.1934   -9.1989    2.4842 C   0  0  0  0  0  0  0  0  0  0  0  0
    1.0949   -8.1941    2.8622 C   0  0  0  0  0  0  0  0  0  0  0  0
    2.5360   -8.1489    2.5088 C   0  0  0  0  0  0  0  0  0  0  0  0
    3.0934   -8.9850    1.8011 O   0  0  0  0  0  0  0  0  0  0  0  0
    6.1653   -5.7164    3.9239 H   0  0  0  0  0  0  0  0  0  0  0  0
    5.0753   -6.5926    4.9779 H   0  0  0  0  0  0  0  0  0  0  0  0
    4.6250   -5.0071    4.3246 H   0  0  0  0  0  0  0  0  0  0  0  0
    5.0336   -7.6113    2.7362 H   0  0  0  0  0  0  0  0  0  0  0  0
    4.0731   -4.9700    1.5054 H   0  0  0  0  0  0  0  0  0  0  0  0
    7.1095   -7.0942    2.3853 H   0  0  0  0  0  0  0  0  0  0  0  0
    7.4700   -7.4092    0.6892 H   0  0  0  0  0  0  0  0  0  0  0  0
    8.4314   -5.1531    2.4746 H   0  0  0  0  0  0  0  0  0  0  0  0
    9.3198   -6.0238    1.2049 H   0  0  0  0  0  0  0  0  0  0  0  0
    8.6733   -4.2843   -0.3173 H   0  0  0  0  0  0  0  0  0  0  0  0
    6.7133   -3.2643    1.8741 H   0  0  0  0  0  0  0  0  0  0  0  0
    6.1771   -4.5538   -0.8874 H   0  0  0  0  0  0  0  0  0  0  0  0
   -0.9338   -6.1130    4.6547 H   0  0  0  0  0  0  0  0  0  0  0  0
   -2.5907   -7.8882    3.9825 H   0  0  0  0  0  0  0  0  0  0  0  0
   -1.8663   -9.8266    2.6092 H   0  0  0  0  0  0  0  0  0  0  0  0
    0.5307  -10.0503    1.9063 H   0  0  0  0  0  0  0  0  0  0  0  0
  1  2  1  0
  1 25  1  0
  1 26  1  0
  1 27  1  0
  2  3  1  0
  2 15  1  0
  2 28  1  6
  3  5  1  0
  3  4  1  0
  3 29  1  6
  5  4  1  6
  5 14  1  0
  5  6  1  0
  6  7  1  0
  6 30  1  0
  6 31  1  0
  7  8  1  0
  7 32  1  0
  7 33  1  0
  8 14  1  0
  8  9  1  0
  8 34  1  6
  9 10  1  0
  9 14  1  0
  9 35  1  1
 10 11  1  0
 10 12  1  0
 10 13  1  0
 14 36  1  6
 15 23  1  0
 15 16  1  0
 16 17  1  0
 17 22  2  0
 17 18  1  0
 18 19  2  0
 18 37  1  0
 19 20  1  0
 19 38  1  0
 20 21  2  0
 20 39  1  0
 21 22  1  0
 21 40  1  0
 22 23  1  0
 23 24  2  0
M  END
>  <i_m_ct_stereo_status>  (371) 
1

>  <s_m_source_file>  (371) 
/var/tmp/pbs.5102103.sched01/tmpr2ljwd0b/132iqlgd2x9.sdf

>  <i_m_source_file_index>  (371) 
12

>  <i_lp_mmshare_version>  (371) 
48012

>  <i_f3d_flags>  (371) 
0

>  <s_epik_input>  (371) 
W2NIXTFbY0hdW2NIXVtjSF1jKGMxMiljKD1PKW4oczIpW0NASF0oW0NIM10pW0NASF0oTzMpW0NAXTM0W0NASF01W0NASF0oW0NIMl1bQ0gyXTQpW0NASF01QyhGKShGKUY=

>  <s_epik_cmdline>  (371) 
J2VwaWtfcHl0aG9uJywgJy1waHQnLCAnMi4wJywgJy1waCcsICc3LjAnLCAnLXRuJywgJzgnLCAnLW1hJywgJzIwMCcsICctaW1hZScsICc8aW5maWxlLm1hZT4nLCAnLW9tYWUnLCAnPG91dGZpbGUubWFlPic=

>  <r_lp_tautomer_probability>  (371) 
1

>  <r_epik_Ionization_Penalty>  (371) 
5.6004e-06

>  <r_epik_Ionization_Penalty_Charging>  (371) 
5.54751e-06

>  <r_epik_Ionization_Penalty_Neutral>  (371) 
5.28878e-08

>  <r_epik_State_Penalty>  (371) 
-0

>  <r_epik_Charging_Adjusted_Penalty>  (371) 
5.54751e-06

>  <i_epik_Tot_Q>  (371) 
0

>  <i_epik_Tot_abs_Q>  (371) 
0

>  <s_lp_Force_Field>  (371) 
OPLS3e

>  <r_lp_Energy>  (371) 
69.7166

>  <b_lp_Chiralities_Consistent>  (371) 
1

>  <s_lp_Variant>  (371) 
91:0-1

>  <s_i_glide_gridfile>  (371) 
pfpi4k_grid

>  <i_i_glide_lignum>  (371) 
12

>  <i_i_glide_rotatable_bonds>  (371) 
3

>  <r_i_docking_score>  (371) 
-2.55267

>  <r_i_glide_ligand_efficiency>  (371) 
-0.106361

>  <r_i_glide_ligand_efficiency_sa>  (371) 
-0.306799

>  <r_i_glide_ligand_efficiency_ln>  (371) 
-0.610971

>  <r_i_glide_gscore>  (371) 
-2.55267

>  <r_i_glide_lipo>  (371) 
-0.53165

>  <r_i_glide_hbond>  (371) 
0

>  <r_i_glide_metal>  (371) 
-0

>  <r_i_glide_rewards>  (371) 
-1.07718

>  <r_i_glide_evdw>  (371) 
-23.3044

>  <r_i_glide_ecoul>  (371) 
0.299037

>  <r_i_glide_erotb>  (371) 
0.302788

>  <r_i_glide_esite>  (371) 
-0.126264

>  <r_i_glide_emodel>  (371) 
-25.7703

>  <r_i_glide_energy>  (371) 
-23.0054

>  <r_i_glide_einternal>  (371) 
0.721807

>  <r_i_glide_intrahb_reward>  (371) 
-0

>  <i_i_glide_confnum>  (371) 
5

>  <i_i_glide_posenum>  (371) 
9

>  <r_i_glide_eff_state_penalty>  (371) 
0

>  <ligand_id>  (371) 
91

>  <original_smiles>  (371) 
CC(C1OC12CCC1C(C(F)(F)F)C12)n1sc2ccccc2c1=O

>  <smiles>  (371) 
[H]c1c([H])c([H])c2c(=O)n(C([H])(C([H])([H])[H])C3([H])OC34C([H])([H])C([H])([H])C3([H])C([H])(C(F)(F)F)C34[H])sc2c1[H]

$$$$
91:0:2
     RDKit          3D

 40 44  0  0  1  0  0  0  0  0999 V2000
    3.6270   -0.9697    2.5640 C   0  0  0  0  0  0  0  0  0  0  0  0
    3.1792   -2.4442    2.5232 C   0  0  2  0  0  0  0  0  0  0  0  0
    2.6642   -2.7975    1.1521 C   0  0  2  0  0  0  0  0  0  0  0  0
    2.7001   -4.1784    0.7678 O   0  0  0  0  0  0  0  0  0  0  0  0
    3.5954   -3.2849    0.0837 C   0  0  2  0  0  0  0  0  0  0  0  0
    5.0652   -3.5144    0.3365 C   0  0  0  0  0  0  0  0  0  0  0  0
    5.6444   -3.9024   -1.0244 C   0  0  0  0  0  0  0  0  0  0  0  0
    4.6260   -3.4477   -2.0632 C   0  0  2  0  0  0  0  0  0  0  0  0
    4.0862   -2.0466   -2.1391 C   0  0  1  0  0  0  0  0  0  0  0  0
    3.5501   -1.4965   -3.4394 C   0  0  0  0  0  0  0  0  0  0  0  0
    2.6293   -2.3125   -3.9371 F   0  0  0  0  0  0  0  0  0  0  0  0
    3.0242   -0.2971   -3.2444 F   0  0  0  0  0  0  0  0  0  0  0  0
    4.5547   -1.3823   -4.2985 F   0  0  0  0  0  0  0  0  0  0  0  0
    3.3555   -3.1026   -1.3777 C   0  0  2  0  0  0  0  0  0  0  0  0
    2.2596   -2.8044    3.5953 N   0  0  0  0  0  0  0  0  0  0  0  0
    1.0025   -1.7223    4.1117 S   0  0  0  0  0  0  0  0  0  0  0  0
    0.3762   -2.9109    5.2069 C   0  0  0  0  0  0  0  0  0  0  0  0
   -0.7185   -2.7544    6.0797 C   0  0  0  0  0  0  0  0  0  0  0  0
   -1.0597   -3.8584    6.8951 C   0  0  0  0  0  0  0  0  0  0  0  0
   -0.3208   -5.0712    6.8292 C   0  0  0  0  0  0  0  0  0  0  0  0
    0.7742   -5.1993    5.9419 C   0  0  0  0  0  0  0  0  0  0  0  0
    1.1028   -4.0955    5.1403 C   0  0  0  0  0  0  0  0  0  0  0  0
    2.2176   -4.0297    4.1603 C   0  0  0  0  0  0  0  0  0  0  0  0
    2.9640   -4.9816    3.9208 O   0  0  0  0  0  0  0  0  0  0  0  0
    4.3575   -0.7663    1.7727 H   0  0  0  0  0  0  0  0  0  0  0  0
    4.1105   -0.7318    3.5089 H   0  0  0  0  0  0  0  0  0  0  0  0
    2.8008   -0.2757    2.4090 H   0  0  0  0  0  0  0  0  0  0  0  0
    4.0912   -3.0276    2.7000 H   0  0  0  0  0  0  0  0  0  0  0  0
    1.7742   -2.2600    0.8320 H   0  0  0  0  0  0  0  0  0  0  0  0
    5.4931   -2.5624    0.6685 H   0  0  0  0  0  0  0  0  0  0  0  0
    5.2357   -4.2687    1.1121 H   0  0  0  0  0  0  0  0  0  0  0  0
    6.6210   -3.4548   -1.1922 H   0  0  0  0  0  0  0  0  0  0  0  0
    5.7276   -4.9925   -1.0772 H   0  0  0  0  0  0  0  0  0  0  0  0
    4.6196   -4.0138   -3.0008 H   0  0  0  0  0  0  0  0  0  0  0  0
    4.6135   -1.2928   -1.5348 H   0  0  0  0  0  0  0  0  0  0  0  0
    2.4060   -3.4846   -1.7789 H   0  0  0  0  0  0  0  0  0  0  0  0
   -1.2607   -1.8236    6.1042 H   0  0  0  0  0  0  0  0  0  0  0  0
   -1.8894   -3.7995    7.5766 H   0  0  0  0  0  0  0  0  0  0  0  0
   -0.5923   -5.9017    7.4591 H   0  0  0  0  0  0  0  0  0  0  0  0
    1.3456   -6.1126    5.8814 H   0  0  0  0  0  0  0  0  0  0  0  0
  1  2  1  0
  1 25  1  0
  1 26  1  0
  1 27  1  0
  2  3  1  0
  2 15  1  0
  2 28  1  1
  3  5  1  0
  3  4  1  0
  3 29  1  6
  5  4  1  6
  5 14  1  0
  5  6  1  0
  6  7  1  0
  6 30  1  0
  6 31  1  0
  7  8  1  0
  7 32  1  0
  7 33  1  0
  8 14  1  0
  8  9  1  0
  8 34  1  6
  9 10  1  0
  9 14  1  0
  9 35  1  1
 10 11  1  0
 10 12  1  0
 10 13  1  0
 14 36  1  6
 15 23  1  0
 15 16  1  0
 16 17  1  0
 17 22  2  0
 17 18  1  0
 18 19  2  0
 18 37  1  0
 19 20  1  0
 19 38  1  0
 20 21  2  0
 20 39  1  0
 21 22  1  0
 21 40  1  0
 22 23  1  0
 23 24  2  0
M  END
>  <i_m_ct_stereo_status>  (372) 
1

>  <s_m_source_file>  (372) 
/var/tmp/pbs.5102103.sched01/tmpr2ljwd0b/132iqlgd2x9.sdf

>  <i_m_source_file_index>  (372) 
12

>  <i_lp_mmshare_version>  (372) 
48012

>  <i_f3d_flags>  (372) 
0

>  <s_epik_input>  (372) 
W2NIXTFbY0hdW2NIXVtjSF1jKGMxMiljKD1PKW4oczIpW0NASF0oW0NIM10pW0NASF0oTzMpW0NAXTM0W0NASF01W0NASF0oW0NIMl1bQ0gyXTQpW0NASF01QyhGKShGKUY=

>  <s_epik_cmdline>  (372) 
J2VwaWtfcHl0aG9uJywgJy1waHQnLCAnMi4wJywgJy1waCcsICc3LjAnLCAnLXRuJywgJzgnLCAnLW1hJywgJzIwMCcsICctaW1hZScsICc8aW5maWxlLm1hZT4nLCAnLW9tYWUnLCAnPG91dGZpbGUubWFlPic=

>  <r_lp_tautomer_probability>  (372) 
1

>  <r_epik_Ionization_Penalty>  (372) 
5.6004e-06

>  <r_epik_Ionization_Penalty_Charging>  (372) 
5.54751e-06

>  <r_epik_Ionization_Penalty_Neutral>  (372) 
5.28878e-08

>  <r_epik_State_Penalty>  (372) 
-0

>  <r_epik_Charging_Adjusted_Penalty>  (372) 
5.54751e-06

>  <i_epik_Tot_Q>  (372) 
0

>  <i_epik_Tot_abs_Q>  (372) 
0

>  <s_lp_Force_Field>  (372) 
OPLS3e

>  <r_lp_Energy>  (372) 
69.7166

>  <b_lp_Chiralities_Consistent>  (372) 
1

>  <s_lp_Variant>  (372) 
91:0-1

>  <s_i_glide_gridfile>  (372) 
pfpi4k_grid

>  <i_i_glide_lignum>  (372) 
12

>  <i_i_glide_rotatable_bonds>  (372) 
3

>  <r_i_docking_score>  (372) 
-2.41024

>  <r_i_glide_ligand_efficiency>  (372) 
-0.100427

>  <r_i_glide_ligand_efficiency_sa>  (372) 
-0.289681

>  <r_i_glide_ligand_efficiency_ln>  (372) 
-0.576882

>  <r_i_glide_gscore>  (372) 
-2.41024

>  <r_i_glide_lipo>  (372) 
-0.300201

>  <r_i_glide_hbond>  (372) 
0

>  <r_i_glide_metal>  (372) 
-0

>  <r_i_glide_rewards>  (372) 
-1.28272

>  <r_i_glide_evdw>  (372) 
-21.1233

>  <r_i_glide_ecoul>  (372) 
-0.361588

>  <r_i_glide_erotb>  (372) 
0.302788

>  <r_i_glide_esite>  (372) 
-0.0197089

>  <r_i_glide_emodel>  (372) 
-23.5042

>  <r_i_glide_energy>  (372) 
-21.4849

>  <r_i_glide_einternal>  (372) 
1.49547

>  <r_i_glide_intrahb_reward>  (372) 
-0

>  <i_i_glide_confnum>  (372) 
3

>  <i_i_glide_posenum>  (372) 
11

>  <r_i_glide_eff_state_penalty>  (372) 
0

>  <ligand_id>  (372) 
91

>  <original_smiles>  (372) 
CC(C1OC12CCC1C(C(F)(F)F)C12)n1sc2ccccc2c1=O

>  <smiles>  (372) 
[H]c1c([H])c([H])c2c(=O)n(C([H])(C([H])([H])[H])C3([H])OC34C([H])([H])C([H])([H])C3([H])C([H])(C(F)(F)F)C34[H])sc2c1[H]

$$$$
92:0:0
     RDKit          3D

 30 32  0  0  1  0  0  0  0  0999 V2000
   -2.5701    5.2930    9.2240 C   0  0  0  0  0  0  0  0  0  0  0  0
   -1.9232    4.0068    8.7065 C   0  0  0  0  0  0  0  0  0  0  0  0
   -0.7537    3.5682    9.6098 C   0  0  0  0  0  0  0  0  0  0  0  0
   -2.9849    2.8994    8.5640 C   0  0  0  0  0  0  0  0  0  0  0  0
   -2.4602    1.7715    7.8747 O   0  0  0  0  0  0  0  0  0  0  0  0
   -1.6894    2.0634    6.7763 C   0  0  0  0  0  0  0  0  0  0  0  0
   -1.2071    3.3110    6.5465 C   0  0  0  0  0  0  0  0  0  0  0  0
   -1.3943    4.3475    7.4281 O   0  0  0  0  0  0  0  0  0  0  0  0
   -0.3850    3.6438    5.3668 C   0  0  0  0  0  0  0  0  0  0  0  0
    0.0292    4.7893    5.1885 O   0  0  0  0  0  0  0  0  0  0  0  0
   -0.1086    2.5284    4.4191 C   0  0  0  0  0  0  0  0  0  0  0  0
    0.6818    2.7719    3.2770 C   0  0  0  0  0  0  0  0  0  0  0  0
    0.9423    1.7384    2.3549 C   0  0  0  0  0  0  0  0  0  0  0  0
    0.4260    0.4485    2.5746 C   0  0  0  0  0  0  0  0  0  0  0  0
   -0.3470    0.1892    3.7235 C   0  0  0  0  0  0  0  0  0  0  0  0
   -0.6196    1.2203    4.6506 C   0  0  0  0  0  0  0  0  0  0  0  0
   -1.4529    0.9352    5.8519 C   0  0  0  0  0  0  0  0  0  0  0  0
   -1.9167   -0.1831    6.0768 O   0  0  0  0  0  0  0  0  0  0  0  0
   -3.0087    5.1425   10.2096 H   0  0  0  0  0  0  0  0  0  0  0  0
   -3.3619    5.6188    8.5446 H   0  0  0  0  0  0  0  0  0  0  0  0
   -1.8455    6.1058    9.2944 H   0  0  0  0  0  0  0  0  0  0  0  0
   -1.0913    3.3385   10.6203 H   0  0  0  0  0  0  0  0  0  0  0  0
    0.0086    4.3476    9.6749 H   0  0  0  0  0  0  0  0  0  0  0  0
   -0.2647    2.6735    9.2177 H   0  0  0  0  0  0  0  0  0  0  0  0
   -3.3457    2.5787    9.5415 H   0  0  0  0  0  0  0  0  0  0  0  0
   -3.8496    3.2679    8.0117 H   0  0  0  0  0  0  0  0  0  0  0  0
    1.0619    3.7621    3.0675 H   0  0  0  0  0  0  0  0  0  0  0  0
    1.5172    1.9486    1.4630 H   0  0  0  0  0  0  0  0  0  0  0  0
    0.6245   -0.3391    1.8605 H   0  0  0  0  0  0  0  0  0  0  0  0
   -0.7371   -0.8023    3.8885 H   0  0  0  0  0  0  0  0  0  0  0  0
  1  2  1  0
  1 19  1  0
  1 20  1  0
  1 21  1  0
  2  8  1  0
  2  3  1  0
  2  4  1  0
  3 22  1  0
  3 23  1  0
  3 24  1  0
  4  5  1  0
  4 25  1  0
  4 26  1  0
  5  6  1  0
  6 17  1  0
  6  7  2  0
  7  8  1  0
  7  9  1  0
  9 10  2  0
  9 11  1  0
 11 16  2  0
 11 12  1  0
 12 13  2  0
 12 27  1  0
 13 14  1  0
 13 28  1  0
 14 15  2  0
 14 29  1  0
 15 16  1  0
 15 30  1  0
 16 17  1  0
 17 18  2  0
M  END
>  <i_m_ct_stereo_status>  (373) 
1

>  <s_m_source_file>  (373) 
/var/tmp/pbs.5102103.sched01/tmpr2ljwd0b/132iqlgd2x9.sdf

>  <i_m_source_file_index>  (373) 
13

>  <i_lp_mmshare_version>  (373) 
48012

>  <i_f3d_flags>  (373) 
0

>  <s_epik_input>  (373) 
TzFbQ0gyXUMoW0NIM10pKFtDSDNdKU9DKD1DMTIpQyg9TyljM2MoQzI9TylbY0hdW2NIXVtjSF1bY0hdMw==

>  <s_epik_cmdline>  (373) 
J2VwaWtfcHl0aG9uJywgJy1waHQnLCAnMi4wJywgJy1waCcsICc3LjAnLCAnLXRuJywgJzgnLCAnLW1hJywgJzIwMCcsICctaW1hZScsICc8aW5maWxlLm1hZT4nLCAnLW9tYWUnLCAnPG91dGZpbGUubWFlPic=

>  <r_lp_tautomer_probability>  (373) 
1

>  <r_epik_Ionization_Penalty>  (373) 
0

>  <r_epik_Ionization_Penalty_Charging>  (373) 
0

>  <r_epik_Ionization_Penalty_Neutral>  (373) 
0

>  <r_epik_State_Penalty>  (373) 
-0

>  <r_epik_Charging_Adjusted_Penalty>  (373) 
0

>  <i_epik_Tot_Q>  (373) 
0

>  <i_epik_Tot_abs_Q>  (373) 
0

>  <s_lp_Force_Field>  (373) 
OPLS3e

>  <r_lp_Energy>  (373) 
23.3374

>  <b_lp_Chiralities_Consistent>  (373) 
1

>  <s_lp_Variant>  (373) 
92:0-1

>  <s_i_glide_gridfile>  (373) 
pfpi4k_grid

>  <i_i_glide_lignum>  (373) 
13

>  <i_i_glide_rotatable_bonds>  (373) 
0

>  <r_i_docking_score>  (373) 
-3.60811

>  <r_i_glide_ligand_efficiency>  (373) 
-0.200451

>  <r_i_glide_ligand_efficiency_sa>  (373) 
-0.52533

>  <r_i_glide_ligand_efficiency_ln>  (373) 
-0.927447

>  <r_i_glide_gscore>  (373) 
-3.60811

>  <r_i_glide_lipo>  (373) 
-0.0723459

>  <r_i_glide_hbond>  (373) 
-0.170874

>  <r_i_glide_metal>  (373) 
-0

>  <r_i_glide_rewards>  (373) 
-1.7438

>  <r_i_glide_evdw>  (373) 
-19.5528

>  <r_i_glide_ecoul>  (373) 
-3.94691

>  <r_i_glide_erotb>  (373) 
0

>  <r_i_glide_esite>  (373) 
-0.051416

>  <r_i_glide_emodel>  (373) 
-29.3213

>  <r_i_glide_energy>  (373) 
-23.4997

>  <r_i_glide_einternal>  (373) 
0

>  <r_i_glide_intrahb_reward>  (373) 
-0

>  <i_i_glide_confnum>  (373) 
2

>  <i_i_glide_posenum>  (373) 
38

>  <r_i_glide_eff_state_penalty>  (373) 
0

>  <ligand_id>  (373) 
92

>  <original_smiles>  (373) 
CC1(C)COC2=C(O1)C(=O)c1ccccc1C2=O

>  <smiles>  (373) 
[H]c1c([H])c([H])c2c(c1[H])C(=O)C1=C(OC(C([H])([H])[H])(C([H])([H])[H])C([H])([H])O1)C2=O

$$$$
92:0:1
     RDKit          3D

 30 32  0  0  1  0  0  0  0  0999 V2000
   -2.8054    4.9993    9.2672 C   0  0  0  0  0  0  0  0  0  0  0  0
   -1.8003    3.9808    8.7287 C   0  0  0  0  0  0  0  0  0  0  0  0
   -0.3691    4.3038    9.2050 C   0  0  0  0  0  0  0  0  0  0  0  0
   -2.2339    2.5558    9.1234 C   0  0  0  0  0  0  0  0  0  0  0  0
   -1.4541    1.5798    8.4472 O   0  0  0  0  0  0  0  0  0  0  0  0
   -1.2071    1.8379    7.1206 C   0  0  0  0  0  0  0  0  0  0  0  0
   -1.4304    3.0587    6.5656 C   0  0  0  0  0  0  0  0  0  0  0  0
   -1.8434    4.1342    7.3113 O   0  0  0  0  0  0  0  0  0  0  0  0
   -1.1933    3.3409    5.1335 C   0  0  0  0  0  0  0  0  0  0  0  0
   -1.3904    4.4614    4.6626 O   0  0  0  0  0  0  0  0  0  0  0  0
   -0.7086    2.1981    4.3081 C   0  0  0  0  0  0  0  0  0  0  0  0
   -0.4634    2.3913    2.9329 C   0  0  0  0  0  0  0  0  0  0  0  0
    0.0158    1.3381    2.1311 C   0  0  0  0  0  0  0  0  0  0  0  0
    0.2497    0.0762    2.7067 C   0  0  0  0  0  0  0  0  0  0  0  0
   -0.0040   -0.1371    4.0769 C   0  0  0  0  0  0  0  0  0  0  0  0
   -0.4738    0.9214    4.8860 C   0  0  0  0  0  0  0  0  0  0  0  0
   -0.7383    0.6806    6.3317 C   0  0  0  0  0  0  0  0  0  0  0  0
   -0.5937   -0.4238    6.8581 O   0  0  0  0  0  0  0  0  0  0  0  0
   -2.8638    4.9679   10.3550 H   0  0  0  0  0  0  0  0  0  0  0  0
   -3.8043    4.7927    8.8780 H   0  0  0  0  0  0  0  0  0  0  0  0
   -2.5423    6.0154    8.9650 H   0  0  0  0  0  0  0  0  0  0  0  0
   -0.2908    4.2517   10.2905 H   0  0  0  0  0  0  0  0  0  0  0  0
   -0.0638    5.3046    8.8899 H   0  0  0  0  0  0  0  0  0  0  0  0
    0.3556    3.6009    8.7908 H   0  0  0  0  0  0  0  0  0  0  0  0
   -2.1422    2.4042   10.1975 H   0  0  0  0  0  0  0  0  0  0  0  0
   -3.2817    2.3988    8.8666 H   0  0  0  0  0  0  0  0  0  0  0  0
   -0.6324    3.3519    2.4862 H   0  0  0  0  0  0  0  0  0  0  0  0
    0.1925    1.5013    1.0756 H   0  0  0  0  0  0  0  0  0  0  0  0
    0.6148   -0.7335    2.0901 H   0  0  0  0  0  0  0  0  0  0  0  0
    0.1630   -1.1158    4.5006 H   0  0  0  0  0  0  0  0  0  0  0  0
  1  2  1  0
  1 19  1  0
  1 20  1  0
  1 21  1  0
  2  8  1  0
  2  3  1  0
  2  4  1  0
  3 22  1  0
  3 23  1  0
  3 24  1  0
  4  5  1  0
  4 25  1  0
  4 26  1  0
  5  6  1  0
  6 17  1  0
  6  7  2  0
  7  8  1  0
  7  9  1  0
  9 10  2  0
  9 11  1  0
 11 16  2  0
 11 12  1  0
 12 13  2  0
 12 27  1  0
 13 14  1  0
 13 28  1  0
 14 15  2  0
 14 29  1  0
 15 16  1  0
 15 30  1  0
 16 17  1  0
 17 18  2  0
M  END
>  <i_m_ct_stereo_status>  (374) 
1

>  <s_m_source_file>  (374) 
/var/tmp/pbs.5102103.sched01/tmpr2ljwd0b/132iqlgd2x9.sdf

>  <i_m_source_file_index>  (374) 
13

>  <i_lp_mmshare_version>  (374) 
48012

>  <i_f3d_flags>  (374) 
0

>  <s_epik_input>  (374) 
TzFbQ0gyXUMoW0NIM10pKFtDSDNdKU9DKD1DMTIpQyg9TyljM2MoQzI9TylbY0hdW2NIXVtjSF1bY0hdMw==

>  <s_epik_cmdline>  (374) 
J2VwaWtfcHl0aG9uJywgJy1waHQnLCAnMi4wJywgJy1waCcsICc3LjAnLCAnLXRuJywgJzgnLCAnLW1hJywgJzIwMCcsICctaW1hZScsICc8aW5maWxlLm1hZT4nLCAnLW9tYWUnLCAnPG91dGZpbGUubWFlPic=

>  <r_lp_tautomer_probability>  (374) 
1

>  <r_epik_Ionization_Penalty>  (374) 
0

>  <r_epik_Ionization_Penalty_Charging>  (374) 
0

>  <r_epik_Ionization_Penalty_Neutral>  (374) 
0

>  <r_epik_State_Penalty>  (374) 
-0

>  <r_epik_Charging_Adjusted_Penalty>  (374) 
0

>  <i_epik_Tot_Q>  (374) 
0

>  <i_epik_Tot_abs_Q>  (374) 
0

>  <s_lp_Force_Field>  (374) 
OPLS3e

>  <r_lp_Energy>  (374) 
23.3374

>  <b_lp_Chiralities_Consistent>  (374) 
1

>  <s_lp_Variant>  (374) 
92:0-1

>  <s_i_glide_gridfile>  (374) 
pfpi4k_grid

>  <i_i_glide_lignum>  (374) 
13

>  <i_i_glide_rotatable_bonds>  (374) 
0

>  <r_i_docking_score>  (374) 
-3.47236

>  <r_i_glide_ligand_efficiency>  (374) 
-0.192909

>  <r_i_glide_ligand_efficiency_sa>  (374) 
-0.505564

>  <r_i_glide_ligand_efficiency_ln>  (374) 
-0.892552

>  <r_i_glide_gscore>  (374) 
-3.47236

>  <r_i_glide_lipo>  (374) 
-0.0888523

>  <r_i_glide_hbond>  (374) 
-0.0774532

>  <r_i_glide_metal>  (374) 
-0

>  <r_i_glide_rewards>  (374) 
-1.7438

>  <r_i_glide_evdw>  (374) 
-17.3522

>  <r_i_glide_ecoul>  (374) 
-4.28064

>  <r_i_glide_erotb>  (374) 
0

>  <r_i_glide_esite>  (374) 
-0.0525481

>  <r_i_glide_emodel>  (374) 
-27.2331

>  <r_i_glide_energy>  (374) 
-21.6328

>  <r_i_glide_einternal>  (374) 
0

>  <r_i_glide_intrahb_reward>  (374) 
-0

>  <i_i_glide_confnum>  (374) 
1

>  <i_i_glide_posenum>  (374) 
9

>  <r_i_glide_eff_state_penalty>  (374) 
0

>  <ligand_id>  (374) 
92

>  <original_smiles>  (374) 
CC1(C)COC2=C(O1)C(=O)c1ccccc1C2=O

>  <smiles>  (374) 
[H]c1c([H])c([H])c2c(c1[H])C(=O)C1=C(OC(C([H])([H])[H])(C([H])([H])[H])C([H])([H])O1)C2=O

$$$$
92:0:2
     RDKit          3D

 30 32  0  0  1  0  0  0  0  0999 V2000
   -0.9759    1.5666    2.6876 C   0  0  0  0  0  0  0  0  0  0  0  0
   -0.3627    2.2571    3.9144 C   0  0  0  0  0  0  0  0  0  0  0  0
    1.0008    1.6339    4.2810 C   0  0  0  0  0  0  0  0  0  0  0  0
   -0.2478    3.7747    3.6733 C   0  0  0  0  0  0  0  0  0  0  0  0
    0.1034    4.4651    4.8576 O   0  0  0  0  0  0  0  0  0  0  0  0
   -0.5443    4.0476    5.9916 C   0  0  0  0  0  0  0  0  0  0  0  0
   -1.2429    2.8818    6.0381 C   0  0  0  0  0  0  0  0  0  0  0  0
   -1.2761    2.0062    4.9787 O   0  0  0  0  0  0  0  0  0  0  0  0
   -1.9561    2.4291    7.2498 C   0  0  0  0  0  0  0  0  0  0  0  0
   -2.5443    1.3454    7.2809 O   0  0  0  0  0  0  0  0  0  0  0  0
   -1.9107    3.3466    8.4232 C   0  0  0  0  0  0  0  0  0  0  0  0
   -2.5781    2.9875    9.6136 C   0  0  0  0  0  0  0  0  0  0  0  0
   -2.5316    3.8281   10.7400 C   0  0  0  0  0  0  0  0  0  0  0  0
   -1.8246    5.0443   10.6832 C   0  0  0  0  0  0  0  0  0  0  0  0
   -1.1565    5.4154    9.5034 C   0  0  0  0  0  0  0  0  0  0  0  0
   -1.1881    4.5700    8.3703 C   0  0  0  0  0  0  0  0  0  0  0  0
   -0.4739    4.9823    7.1316 C   0  0  0  0  0  0  0  0  0  0  0  0
    0.1251    6.0544    7.0423 O   0  0  0  0  0  0  0  0  0  0  0  0
   -0.3608    1.7032    1.7973 H   0  0  0  0  0  0  0  0  0  0  0  0
   -1.9630    1.9785    2.4755 H   0  0  0  0  0  0  0  0  0  0  0  0
   -1.0994    0.4967    2.8601 H   0  0  0  0  0  0  0  0  0  0  0  0
    1.7261    1.7570    3.4767 H   0  0  0  0  0  0  0  0  0  0  0  0
    0.9048    0.5674    4.4911 H   0  0  0  0  0  0  0  0  0  0  0  0
    1.4235    2.1017    5.1720 H   0  0  0  0  0  0  0  0  0  0  0  0
    0.5004    3.9826    2.9089 H   0  0  0  0  0  0  0  0  0  0  0  0
   -1.1934    4.1729    3.3010 H   0  0  0  0  0  0  0  0  0  0  0  0
   -3.1256    2.0602    9.6765 H   0  0  0  0  0  0  0  0  0  0  0  0
   -3.0440    3.5346   11.6472 H   0  0  0  0  0  0  0  0  0  0  0  0
   -1.7933    5.6902   11.5503 H   0  0  0  0  0  0  0  0  0  0  0  0
   -0.6180    6.3523    9.4692 H   0  0  0  0  0  0  0  0  0  0  0  0
  1  2  1  0
  1 19  1  0
  1 20  1  0
  1 21  1  0
  2  8  1  0
  2  3  1  0
  2  4  1  0
  3 22  1  0
  3 23  1  0
  3 24  1  0
  4  5  1  0
  4 25  1  0
  4 26  1  0
  5  6  1  0
  6 17  1  0
  6  7  2  0
  7  8  1  0
  7  9  1  0
  9 10  2  0
  9 11  1  0
 11 16  2  0
 11 12  1  0
 12 13  2  0
 12 27  1  0
 13 14  1  0
 13 28  1  0
 14 15  2  0
 14 29  1  0
 15 16  1  0
 15 30  1  0
 16 17  1  0
 17 18  2  0
M  END
>  <i_m_ct_stereo_status>  (375) 
1

>  <s_m_source_file>  (375) 
/var/tmp/pbs.5102103.sched01/tmpr2ljwd0b/132iqlgd2x9.sdf

>  <i_m_source_file_index>  (375) 
13

>  <i_lp_mmshare_version>  (375) 
48012

>  <i_f3d_flags>  (375) 
0

>  <s_epik_input>  (375) 
TzFbQ0gyXUMoW0NIM10pKFtDSDNdKU9DKD1DMTIpQyg9TyljM2MoQzI9TylbY0hdW2NIXVtjSF1bY0hdMw==

>  <s_epik_cmdline>  (375) 
J2VwaWtfcHl0aG9uJywgJy1waHQnLCAnMi4wJywgJy1waCcsICc3LjAnLCAnLXRuJywgJzgnLCAnLW1hJywgJzIwMCcsICctaW1hZScsICc8aW5maWxlLm1hZT4nLCAnLW9tYWUnLCAnPG91dGZpbGUubWFlPic=

>  <r_lp_tautomer_probability>  (375) 
1

>  <r_epik_Ionization_Penalty>  (375) 
0

>  <r_epik_Ionization_Penalty_Charging>  (375) 
0

>  <r_epik_Ionization_Penalty_Neutral>  (375) 
0

>  <r_epik_State_Penalty>  (375) 
-0

>  <r_epik_Charging_Adjusted_Penalty>  (375) 
0

>  <i_epik_Tot_Q>  (375) 
0

>  <i_epik_Tot_abs_Q>  (375) 
0

>  <s_lp_Force_Field>  (375) 
OPLS3e

>  <r_lp_Energy>  (375) 
23.3374

>  <b_lp_Chiralities_Consistent>  (375) 
1

>  <s_lp_Variant>  (375) 
92:0-1

>  <s_i_glide_gridfile>  (375) 
pfpi4k_grid

>  <i_i_glide_lignum>  (375) 
13

>  <i_i_glide_rotatable_bonds>  (375) 
0

>  <r_i_docking_score>  (375) 
-3.36432

>  <r_i_glide_ligand_efficiency>  (375) 
-0.186907

>  <r_i_glide_ligand_efficiency_sa>  (375) 
-0.489834

>  <r_i_glide_ligand_efficiency_ln>  (375) 
-0.864782

>  <r_i_glide_gscore>  (375) 
-3.36432

>  <r_i_glide_lipo>  (375) 
-0.0153036

>  <r_i_glide_hbond>  (375) 
-0.16

>  <r_i_glide_metal>  (375) 
-0

>  <r_i_glide_rewards>  (375) 
-1.75417

>  <r_i_glide_evdw>  (375) 
-18.0835

>  <r_i_glide_ecoul>  (375) 
-3.49927

>  <r_i_glide_erotb>  (375) 
0

>  <r_i_glide_esite>  (375) 
-0.00577993

>  <r_i_glide_emodel>  (375) 
-27.0129

>  <r_i_glide_energy>  (375) 
-21.5828

>  <r_i_glide_einternal>  (375) 
0

>  <r_i_glide_intrahb_reward>  (375) 
-0

>  <i_i_glide_confnum>  (375) 
1

>  <i_i_glide_posenum>  (375) 
2

>  <r_i_glide_eff_state_penalty>  (375) 
0

>  <ligand_id>  (375) 
92

>  <original_smiles>  (375) 
CC1(C)COC2=C(O1)C(=O)c1ccccc1C2=O

>  <smiles>  (375) 
[H]c1c([H])c([H])c2c(c1[H])C(=O)C1=C(OC(C([H])([H])[H])(C([H])([H])[H])C([H])([H])O1)C2=O

$$$$
93:0:0
     RDKit          3D

 72 76  0  0  1  0  0  0  0  0999 V2000
    5.0143   -4.1135   -4.0833 C   0  0  0  0  0  0  0  0  0  0  0  0
    4.5039   -3.2661   -2.9872 C   0  0  0  0  0  0  0  0  0  0  0  0
    4.0741   -3.8084   -1.8640 N   0  0  0  0  0  0  0  0  0  0  0  0
    3.6151   -2.8712   -0.9702 C   0  0  0  0  0  0  0  0  0  0  0  0
    2.9629   -3.3551    0.5951 S   0  0  0  0  0  0  0  0  0  0  0  0
    2.2459   -2.1852    1.0406 O   0  0  0  0  0  0  0  0  0  0  0  0
    2.2193   -4.6020    0.3952 O   0  0  0  0  0  0  0  0  0  0  0  0
    4.4218   -3.7262    1.5609 N   0  0  0  0  0  0  0  0  0  0  0  0
    5.4234   -4.6859    0.9946 C   0  0  0  0  0  0  0  0  0  0  0  0
    5.1891   -6.1773    1.3795 C   0  0  0  0  0  0  0  0  0  0  0  0
    6.5137   -6.9403    1.4759 C   0  0  0  0  0  0  0  0  0  0  0  0
    4.2609   -6.9325    0.4129 C   0  0  0  0  0  0  0  0  0  0  0  0
    4.3556   -3.8358    3.0494 C   0  0  0  0  0  0  0  0  0  0  0  0
    4.4305   -2.5149    3.8482 C   0  0  1  0  0  0  0  0  0  0  0  0
    5.4922   -1.5542    3.2642 C   0  0  0  0  0  0  0  0  0  0  0  0
    5.6416   -0.2708    4.1189 C   0  0  0  0  0  0  0  0  0  0  0  0
    4.5408   -0.2326    5.2157 C   0  0  1  0  0  0  0  0  0  0  0  0
    4.5326    1.0527    5.9625 N   0  0  0  0  0  0  0  0  0  0  0  0
    4.1607    2.3166    5.2203 C   0  0  0  0  0  0  0  0  0  0  0  0
    2.6801    2.6289    5.0914 C   0  0  0  0  0  0  0  0  0  0  0  0
    1.9976    3.4577    6.0166 C   0  0  0  0  0  0  0  0  0  0  0  0
    0.5985    3.6208    5.8404 C   0  0  0  0  0  0  0  0  0  0  0  0
   -0.0582    2.9413    4.7882 C   0  0  0  0  0  0  0  0  0  0  0  0
    0.7311    2.1568    3.9096 C   0  0  0  0  0  0  0  0  0  0  0  0
    2.0484    2.1074    4.0237 N   0  0  0  0  0  0  0  0  0  0  0  0
    0.0564    1.3646    2.9537 N   0  0  0  0  0  0  0  0  0  0  0  0
   -1.1956    1.6309    2.5768 C   0  0  0  0  0  0  0  0  0  0  0  0
   -1.7666    0.9977    1.6957 O   0  0  0  0  0  0  0  0  0  0  0  0
   -1.8676    2.8473    3.2514 C   0  0  0  0  0  0  0  0  0  0  0  0
   -1.4279    3.0307    4.6062 O   0  0  0  0  0  0  0  0  0  0  0  0
    3.1936   -0.4916    4.5581 C   0  0  0  0  0  0  0  0  0  0  0  0
    3.0861   -1.8215    3.8858 C   0  0  0  0  0  0  0  0  0  0  0  0
    4.7578   -1.4396    6.1559 C   0  0  0  0  0  0  0  0  0  0  0  0
    4.7614   -2.7681    5.3435 C   0  0  0  0  0  0  0  0  0  0  0  0
    3.7616   -1.5744   -1.3793 C   0  0  0  0  0  0  0  0  0  0  0  0
    4.3819   -1.5047   -3.0116 S   0  0  0  0  0  0  0  0  0  0  0  0
    4.9916   -5.1656   -3.7640 H   0  0  0  0  0  0  0  0  0  0  0  0
    6.0309   -3.8104   -4.3058 H   0  0  0  0  0  0  0  0  0  0  0  0
    4.3650   -4.0042   -4.9478 H   0  0  0  0  0  0  0  0  0  0  0  0
    5.4722   -4.6398   -0.0822 H   0  0  0  0  0  0  0  0  0  0  0  0
    6.4372   -4.3696    1.2701 H   0  0  0  0  0  0  0  0  0  0  0  0
    4.7204   -6.2443    2.3580 H   0  0  0  0  0  0  0  0  0  0  0  0
    6.9913   -7.0245    0.5038 H   0  0  0  0  0  0  0  0  0  0  0  0
    6.3428   -7.9445    1.8580 H   0  0  0  0  0  0  0  0  0  0  0  0
    7.2166   -6.4477    2.1439 H   0  0  0  0  0  0  0  0  0  0  0  0
    4.6292   -6.9346   -0.6140 H   0  0  0  0  0  0  0  0  0  0  0  0
    3.2765   -6.5182    0.3710 H   0  0  0  0  0  0  0  0  0  0  0  0
    4.0619   -7.9453    0.7600 H   0  0  0  0  0  0  0  0  0  0  0  0
    3.4584   -4.3857    3.3192 H   0  0  0  0  0  0  0  0  0  0  0  0
    5.2114   -4.4234    3.4127 H   0  0  0  0  0  0  0  0  0  0  0  0
    6.4083   -2.0978    3.1743 H   0  0  0  0  0  0  0  0  0  0  0  0
    5.2952   -1.2915    2.2272 H   0  0  0  0  0  0  0  0  0  0  0  0
    6.6148   -0.2090    4.5914 H   0  0  0  0  0  0  0  0  0  0  0  0
    5.5863    0.5684    3.4287 H   0  0  0  0  0  0  0  0  0  0  0  0
    3.9169    0.9591    6.7567 H   0  0  0  0  0  0  0  0  0  0  0  0
    4.6500    3.1331    5.7403 H   0  0  0  0  0  0  0  0  0  0  0  0
    4.5739    2.3054    4.2152 H   0  0  0  0  0  0  0  0  0  0  0  0
    2.5517    3.9665    6.7934 H   0  0  0  0  0  0  0  0  0  0  0  0
    0.0611    4.2911    6.5043 H   0  0  0  0  0  0  0  0  0  0  0  0
    0.5557    0.6279    2.4725 H   0  0  0  0  0  0  0  0  0  0  0  0
   -1.6032    3.7394    2.6720 H   0  0  0  0  0  0  0  0  0  0  0  0
   -2.9591    2.7415    3.2295 H   0  0  0  0  0  0  0  0  0  0  0  0
    2.3370   -0.3149    5.2047 H   0  0  0  0  0  0  0  0  0  0  0  0
    3.2178    0.1460    3.6874 H   0  0  0  0  0  0  0  0  0  0  0  0
    2.8599   -1.4749    2.9209 H   0  0  0  0  0  0  0  0  0  0  0  0
    2.2649   -2.4323    4.2490 H   0  0  0  0  0  0  0  0  0  0  0  0
    5.6920   -1.3321    6.6992 H   0  0  0  0  0  0  0  0  0  0  0  0
    3.9507   -1.4654    6.8892 H   0  0  0  0  0  0  0  0  0  0  0  0
    4.0163   -3.4499    5.7557 H   0  0  0  0  0  0  0  0  0  0  0  0
    5.7280   -3.2597    5.4460 H   0  0  0  0  0  0  0  0  0  0  0  0
    3.4632   -0.6759   -0.8550 H   0  0  0  0  0  0  0  0  0  0  0  0
    5.4850    1.1610    6.2887 H   0  0  0  0  0  0  0  0  0  0  0  0
  1  2  1  0
  1 37  1  0
  1 38  1  0
  1 39  1  0
  2 36  1  0
  2  3  2  0
  3  4  1  0
  4  5  1  0
  4 35  2  0
  5  6  2  0
  5  7  2  0
  5  8  1  0
  8  9  1  0
  8 13  1  0
  9 10  1  0
  9 40  1  0
  9 41  1  0
 10 11  1  0
 10 12  1  0
 10 42  1  0
 11 43  1  0
 11 44  1  0
 11 45  1  0
 12 46  1  0
 12 47  1  0
 12 48  1  0
 14 13  1  6
 13 49  1  0
 13 50  1  0
 14 32  1  0
 14 34  1  0
 14 15  1  0
 15 16  1  0
 15 51  1  0
 15 52  1  0
 16 17  1  0
 16 53  1  0
 16 54  1  0
 17 18  1  1
 17 31  1  0
 17 33  1  0
 18 19  1  0
 18 55  1  0
 18 72  1  0
 19 20  1  0
 19 56  1  0
 19 57  1  0
 20 25  1  0
 20 21  2  0
 21 22  1  0
 21 58  1  0
 22 23  2  0
 22 59  1  0
 23 30  1  0
 23 24  1  0
 24 25  2  0
 24 26  1  0
 26 27  1  0
 26 60  1  0
 27 28  2  0
 27 29  1  0
 29 30  1  0
 29 61  1  0
 29 62  1  0
 31 32  1  0
 31 63  1  0
 31 64  1  0
 32 65  1  0
 32 66  1  0
 33 34  1  0
 33 67  1  0
 33 68  1  0
 34 69  1  0
 34 70  1  0
 35 36  1  0
 35 71  1  0
M  CHG  1  18   1
M  END
>  <i_m_ct_stereo_status>  (376) 
1

>  <s_m_source_file>  (376) 
/var/tmp/pbs.5102103.sched01/tmpr2ljwd0b/132iqlgd2x9.sdf

>  <i_m_source_file_index>  (376) 
14

>  <i_lp_mmshare_version>  (376) 
48012

>  <i_f3d_flags>  (376) 
0

>  <s_epik_input>  (376) 
W0NIM11jMW5jKFtjSF1zMSlTKD1PKSg9TylOKFtDSDJdW0NIXShbQ0gzXSlbQ0gzXSlbQ0gyXUMyM1tDSDJdW0NIMl1DKFtDSDJdW0NIMl0yKShbQ0gyXVtDSDJdMylbTkhdW0NIMl1jKFtjSF1bY0hdNCluYyhjNDUpW05IXUMoPU8pW0NIMl1PNQ==

>  <s_epik_cmdline>  (376) 
J2VwaWtfcHl0aG9uJywgJy1waHQnLCAnMi4wJywgJy1waCcsICc3LjAnLCAnLXRuJywgJzgnLCAnLW1hJywgJzIwMCcsICctaW1hZScsICc8aW5maWxlLm1hZT4nLCAnLW9tYWUnLCAnPG91dGZpbGUubWFlPic=

>  <r_lp_tautomer_probability>  (376) 
1

>  <r_epik_Ionization_Penalty>  (376) 
0.0135045

>  <r_epik_Ionization_Penalty_Charging>  (376) 
0.0134226

>  <r_epik_Ionization_Penalty_Neutral>  (376) 
8.18975e-05

>  <r_epik_State_Penalty>  (376) 
0.0104454

>  <r_epik_Charging_Adjusted_Penalty>  (376) 
0.023868

>  <i_epik_Tot_Q>  (376) 
1

>  <i_epik_Tot_abs_Q>  (376) 
1

>  <s_lp_Force_Field>  (376) 
OPLS3e

>  <r_lp_Energy>  (376) 
67.261

>  <b_lp_Chiralities_Consistent>  (376) 
1

>  <s_lp_Variant>  (376) 
93:0-1

>  <s_i_glide_gridfile>  (376) 
pfpi4k_grid

>  <i_i_glide_lignum>  (376) 
14

>  <i_i_glide_rotatable_bonds>  (376) 
9

>  <r_i_docking_score>  (376) 
-0.981854

>  <r_i_glide_ligand_efficiency>  (376) 
-0.0272737

>  <r_i_glide_ligand_efficiency_sa>  (376) 
-0.0900559

>  <r_i_glide_ligand_efficiency_ln>  (376) 
-0.214214

>  <r_i_glide_gscore>  (376) 
-0.981854

>  <r_i_glide_lipo>  (376) 
-0.698363

>  <r_i_glide_hbond>  (376) 
-0.00310088

>  <r_i_glide_metal>  (376) 
-0

>  <r_i_glide_rewards>  (376) 
0

>  <r_i_glide_evdw>  (376) 
-21.8335

>  <r_i_glide_ecoul>  (376) 
2.19097

>  <r_i_glide_erotb>  (376) 
0.577501

>  <r_i_glide_esite>  (376) 
-0.213198

>  <r_i_glide_emodel>  (376) 
-11.3058

>  <r_i_glide_energy>  (376) 
-19.6425

>  <r_i_glide_einternal>  (376) 
10.2738

>  <r_i_glide_intrahb_reward>  (376) 
-0

>  <i_i_glide_confnum>  (376) 
5

>  <i_i_glide_posenum>  (376) 
36

>  <r_i_glide_eff_state_penalty>  (376) 
0

>  <ligand_id>  (376) 
93

>  <original_smiles>  (376) 
Cc1nc(S(=O)(=O)N(CC(C)C)CC23CCC(NCc4ccc5c(n4)NC(=O)CO5)(CC2)CC3)cs1

>  <smiles>  (376) 
[H]c1sc(C([H])([H])[H])nc1S(=O)(=O)N(C([H])([H])C([H])(C([H])([H])[H])C([H])([H])[H])C([H])([H])C12C([H])([H])C([H])([H])C([N+]([H])([H])C([H])([H])c3nc4c(c([H])c3[H])OC([H])([H])C(=O)N4[H])(C([H])([H])C1([H])[H])C([H])([H])C2([H])[H]

$$$$
93:1:0
     RDKit          3D

 71 75  0  0  1  0  0  0  0  0999 V2000
   -0.6380    1.5528   11.3009 C   0  0  0  0  0  0  0  0  0  0  0  0
   -0.3791    1.8436    9.8778 C   0  0  0  0  0  0  0  0  0  0  0  0
   -0.5987    0.9465    8.9166 N   0  0  0  0  0  0  0  0  0  0  0  0
   -0.2800    1.4399    7.6522 C   0  0  0  0  0  0  0  0  0  0  0  0
   -0.4487    0.3720    6.2837 S   0  0  0  0  0  0  0  0  0  0  0  0
    0.3014   -0.8249    6.6659 O   0  0  0  0  0  0  0  0  0  0  0  0
   -1.8982    0.2778    6.0480 O   0  0  0  0  0  0  0  0  0  0  0  0
    0.3444    1.2295    4.9562 N   0  0  0  0  0  0  0  0  0  0  0  0
   -0.4281    2.3428    4.3317 C   0  0  0  0  0  0  0  0  0  0  0  0
   -1.5667    1.8785    3.3877 C   0  0  0  0  0  0  0  0  0  0  0  0
   -1.0385    1.2081    2.1213 C   0  0  0  0  0  0  0  0  0  0  0  0
   -2.5183    3.0296    3.0284 C   0  0  0  0  0  0  0  0  0  0  0  0
    1.8325    1.4595    4.9942 C   0  0  0  0  0  0  0  0  0  0  0  0
    2.7255    0.3551    4.3407 C   0  0  2  0  0  0  0  0  0  0  0  0
    2.4290   -1.0519    4.8860 C   0  0  0  0  0  0  0  0  0  0  0  0
    3.3334   -2.1334    4.2985 C   0  0  0  0  0  0  0  0  0  0  0  0
    4.2447   -1.5092    3.2185 C   0  0  2  0  0  0  0  0  0  0  0  0
    5.0347   -2.5969    2.6390 N   0  0  0  0  0  0  0  0  0  0  0  0
    6.0364   -2.2157    1.6414 C   0  0  0  0  0  0  0  0  0  0  0  0
    5.6034   -2.4217    0.2069 C   0  0  0  0  0  0  0  0  0  0  0  0
    5.5076   -3.7204   -0.3297 C   0  0  0  0  0  0  0  0  0  0  0  0
    5.0946   -3.8561   -1.6622 C   0  0  0  0  0  0  0  0  0  0  0  0
    4.7820   -2.7034   -2.3946 C   0  0  0  0  0  0  0  0  0  0  0  0
    4.9147   -1.4348   -1.7709 C   0  0  0  0  0  0  0  0  0  0  0  0
    5.3569   -1.3087   -0.5063 N   0  0  0  0  0  0  0  0  0  0  0  0
    4.5794   -0.2952   -2.5347 N   0  0  0  0  0  0  0  0  0  0  0  0
    3.9447   -0.3769   -3.7052 C   0  0  0  0  0  0  0  0  0  0  0  0
    3.7851    0.5931   -4.4549 O   0  0  0  0  0  0  0  0  0  0  0  0
    3.4727   -1.7696   -4.1335 C   0  0  0  0  0  0  0  0  0  0  0  0
    4.3686   -2.7982   -3.7037 O   0  0  0  0  0  0  0  0  0  0  0  0
    5.1148   -0.4354    3.9288 C   0  0  0  0  0  0  0  0  0  0  0  0
    4.2307    0.6258    4.6241 C   0  0  0  0  0  0  0  0  0  0  0  0
    3.3427   -0.8182    2.1698 C   0  0  0  0  0  0  0  0  0  0  0  0
    2.5431    0.3295    2.8073 C   0  0  0  0  0  0  0  0  0  0  0  0
    0.1984    2.7265    7.6651 C   0  0  0  0  0  0  0  0  0  0  0  0
    0.2448    3.3793    9.2800 S   0  0  0  0  0  0  0  0  0  0  0  0
   -1.0228    0.5443   11.4137 H   0  0  0  0  0  0  0  0  0  0  0  0
   -1.3721    2.2552   11.6835 H   0  0  0  0  0  0  0  0  0  0  0  0
    0.2840    1.6373   11.8682 H   0  0  0  0  0  0  0  0  0  0  0  0
   -0.8588    2.9322    5.1366 H   0  0  0  0  0  0  0  0  0  0  0  0
    0.2070    3.0311    3.7727 H   0  0  0  0  0  0  0  0  0  0  0  0
   -2.1889    1.1460    3.8870 H   0  0  0  0  0  0  0  0  0  0  0  0
   -0.3916    1.8788    1.5484 H   0  0  0  0  0  0  0  0  0  0  0  0
   -1.8595    0.8893    1.4802 H   0  0  0  0  0  0  0  0  0  0  0  0
   -0.5009    0.3073    2.3929 H   0  0  0  0  0  0  0  0  0  0  0  0
   -1.9992    3.8152    2.4740 H   0  0  0  0  0  0  0  0  0  0  0  0
   -2.9689    3.4599    3.9257 H   0  0  0  0  0  0  0  0  0  0  0  0
   -3.3284    2.6456    2.4034 H   0  0  0  0  0  0  0  0  0  0  0  0
    2.0916    2.4017    4.5089 H   0  0  0  0  0  0  0  0  0  0  0  0
    2.1255    1.6091    6.0287 H   0  0  0  0  0  0  0  0  0  0  0  0
    2.5520   -1.0574    5.9704 H   0  0  0  0  0  0  0  0  0  0  0  0
    1.4036   -1.3224    4.6322 H   0  0  0  0  0  0  0  0  0  0  0  0
    3.9225   -2.5809    5.1014 H   0  0  0  0  0  0  0  0  0  0  0  0
    2.7087   -2.9316    3.8948 H   0  0  0  0  0  0  0  0  0  0  0  0
    5.4486   -3.1547    3.3713 H   0  0  0  0  0  0  0  0  0  0  0  0
    6.3843   -1.1912    1.7531 H   0  0  0  0  0  0  0  0  0  0  0  0
    6.9066   -2.8478    1.8041 H   0  0  0  0  0  0  0  0  0  0  0  0
    5.7335   -4.5790    0.2781 H   0  0  0  0  0  0  0  0  0  0  0  0
    5.0096   -4.8349   -2.1154 H   0  0  0  0  0  0  0  0  0  0  0  0
    4.8454    0.6083   -2.1490 H   0  0  0  0  0  0  0  0  0  0  0  0
    2.4686   -1.9614   -3.7501 H   0  0  0  0  0  0  0  0  0  0  0  0
    3.4252   -1.7657   -5.2135 H   0  0  0  0  0  0  0  0  0  0  0  0
    5.7710   -0.9013    4.6627 H   0  0  0  0  0  0  0  0  0  0  0  0
    5.7417    0.1099    3.2281 H   0  0  0  0  0  0  0  0  0  0  0  0
    4.4970    1.6199    4.2584 H   0  0  0  0  0  0  0  0  0  0  0  0
    4.4188    0.6273    5.7014 H   0  0  0  0  0  0  0  0  0  0  0  0
    3.9189   -0.3878    1.3587 H   0  0  0  0  0  0  0  0  0  0  0  0
    2.6489   -1.5380    1.7300 H   0  0  0  0  0  0  0  0  0  0  0  0
    1.5038    0.1717    2.5667 H   0  0  0  0  0  0  0  0  0  0  0  0
    2.8410    1.2890    2.3750 H   0  0  0  0  0  0  0  0  0  0  0  0
    0.5521    3.3154    6.8279 H   0  0  0  0  0  0  0  0  0  0  0  0
  1  2  1  0
  1 37  1  0
  1 38  1  0
  1 39  1  0
  2 36  1  0
  2  3  2  0
  3  4  1  0
  4  5  1  0
  4 35  2  0
  5  6  2  0
  5  7  2  0
  5  8  1  0
  8  9  1  0
  8 13  1  0
  9 10  1  0
  9 40  1  0
  9 41  1  0
 10 11  1  0
 10 12  1  0
 10 42  1  0
 11 43  1  0
 11 44  1  0
 11 45  1  0
 12 46  1  0
 12 47  1  0
 12 48  1  0
 14 13  1  1
 13 49  1  0
 13 50  1  0
 14 32  1  0
 14 34  1  0
 14 15  1  0
 15 16  1  0
 15 51  1  0
 15 52  1  0
 16 17  1  0
 16 53  1  0
 16 54  1  0
 17 18  1  6
 17 31  1  0
 17 33  1  0
 18 19  1  0
 18 55  1  0
 19 20  1  0
 19 56  1  0
 19 57  1  0
 20 25  1  0
 20 21  2  0
 21 22  1  0
 21 58  1  0
 22 23  2  0
 22 59  1  0
 23 30  1  0
 23 24  1  0
 24 25  2  0
 24 26  1  0
 26 27  1  0
 26 60  1  0
 27 28  2  0
 27 29  1  0
 29 30  1  0
 29 61  1  0
 29 62  1  0
 31 32  1  0
 31 63  1  0
 31 64  1  0
 32 65  1  0
 32 66  1  0
 33 34  1  0
 33 67  1  0
 33 68  1  0
 34 69  1  0
 34 70  1  0
 35 36  1  0
 35 71  1  0
M  END
>  <i_m_ct_stereo_status>  (377) 
1

>  <s_m_source_file>  (377) 
/var/tmp/pbs.5102103.sched01/tmpr2ljwd0b/132iqlgd2x9.sdf

>  <i_m_source_file_index>  (377) 
15

>  <i_lp_mmshare_version>  (377) 
48012

>  <i_f3d_flags>  (377) 
0

>  <s_epik_input>  (377) 
W0NIM11jMW5jKFtjSF1zMSlTKD1PKSg9TylOKFtDSDJdW0NIXShbQ0gzXSlbQ0gzXSlbQ0gyXUMyM1tDSDJdW0NIMl1DKFtDSDJdW0NIMl0yKShbQ0gyXVtDSDJdMylbTkhdW0NIMl1jKFtjSF1bY0hdNCluYyhjNDUpW05IXUMoPU8pW0NIMl1PNQ==

>  <s_epik_cmdline>  (377) 
J2VwaWtfcHl0aG9uJywgJy1waHQnLCAnMi4wJywgJy1waCcsICc3LjAnLCAnLXRuJywgJzgnLCAnLW1hJywgJzIwMCcsICctaW1hZScsICc8aW5maWxlLm1hZT4nLCAnLW9tYWUnLCAnPG91dGZpbGUubWFlPic=

>  <r_lp_tautomer_probability>  (377) 
1

>  <r_epik_Ionization_Penalty>  (377) 
2.25073

>  <r_epik_Ionization_Penalty_Charging>  (377) 
0

>  <r_epik_Ionization_Penalty_Neutral>  (377) 
2.25073

>  <r_epik_State_Penalty>  (377) 
2.39777

>  <r_epik_Charging_Adjusted_Penalty>  (377) 
2.39777

>  <i_epik_Tot_Q>  (377) 
0

>  <i_epik_Tot_abs_Q>  (377) 
0

>  <s_lp_Force_Field>  (377) 
OPLS3e

>  <r_lp_Energy>  (377) 
68.9528

>  <b_lp_Chiralities_Consistent>  (377) 
1

>  <s_lp_Variant>  (377) 
93:0-2

>  <s_i_glide_gridfile>  (377) 
pfpi4k_grid

>  <i_i_glide_lignum>  (377) 
15

>  <i_i_glide_rotatable_bonds>  (377) 
9

>  <r_i_docking_score>  (377) 
-3.45669

>  <r_i_glide_ligand_efficiency>  (377) 
-0.0960193

>  <r_i_glide_ligand_efficiency_sa>  (377) 
-0.317049

>  <r_i_glide_ligand_efficiency_ln>  (377) 
-0.754157

>  <r_i_glide_gscore>  (377) 
-3.45669

>  <r_i_glide_lipo>  (377) 
-0.427481

>  <r_i_glide_hbond>  (377) 
-0.32

>  <r_i_glide_metal>  (377) 
-0

>  <r_i_glide_rewards>  (377) 
-0.36427

>  <r_i_glide_evdw>  (377) 
-37.8078

>  <r_i_glide_ecoul>  (377) 
-5.83896

>  <r_i_glide_erotb>  (377) 
0.579512

>  <r_i_glide_esite>  (377) 
-0.15822

>  <r_i_glide_emodel>  (377) 
-50.0281

>  <r_i_glide_energy>  (377) 
-43.6468

>  <r_i_glide_einternal>  (377) 
4.38188

>  <r_i_glide_intrahb_reward>  (377) 
-0

>  <i_i_glide_confnum>  (377) 
3

>  <i_i_glide_posenum>  (377) 
30

>  <r_i_glide_eff_state_penalty>  (377) 
0

>  <ligand_id>  (377) 
93

>  <original_smiles>  (377) 
Cc1nc(S(=O)(=O)N(CC(C)C)CC23CCC(NCc4ccc5c(n4)NC(=O)CO5)(CC2)CC3)cs1

>  <smiles>  (377) 
[H]c1sc(C([H])([H])[H])nc1S(=O)(=O)N(C([H])([H])C([H])(C([H])([H])[H])C([H])([H])[H])C([H])([H])C12C([H])([H])C([H])([H])C(N([H])C([H])([H])c3nc4c(c([H])c3[H])OC([H])([H])C(=O)N4[H])(C([H])([H])C1([H])[H])C([H])([H])C2([H])[H]

$$$$
93:1:1
     RDKit          3D

 71 75  0  0  1  0  0  0  0  0999 V2000
    4.2751   -6.6451    2.6159 C   0  0  0  0  0  0  0  0  0  0  0  0
    3.8109   -5.6155    1.6417 C   0  0  0  0  0  0  0  0  0  0  0  0
    4.3884   -4.4293    1.5424 N   0  0  0  0  0  0  0  0  0  0  0  0
    3.7618   -3.5877    0.6250 C   0  0  0  0  0  0  0  0  0  0  0  0
    4.3002   -1.9027    0.4765 S   0  0  0  0  0  0  0  0  0  0  0  0
    5.7572   -1.9117    0.6623 O   0  0  0  0  0  0  0  0  0  0  0  0
    3.7268   -1.3498   -0.7646 O   0  0  0  0  0  0  0  0  0  0  0  0
    3.5503   -1.1393    1.8755 N   0  0  0  0  0  0  0  0  0  0  0  0
    3.9559   -1.6846    3.2166 C   0  0  0  0  0  0  0  0  0  0  0  0
    4.8955   -0.7679    4.0274 C   0  0  0  0  0  0  0  0  0  0  0  0
    6.1265   -0.3763    3.2079 C   0  0  0  0  0  0  0  0  0  0  0  0
    5.3117   -1.4563    5.3356 C   0  0  0  0  0  0  0  0  0  0  0  0
    3.1523    0.3091    1.7673 C   0  0  0  0  0  0  0  0  0  0  0  0
    1.9277    0.7818    2.6085 C   0  0  2  0  0  0  0  0  0  0  0  0
    2.2660    2.1208    3.3025 C   0  0  0  0  0  0  0  0  0  0  0  0
    1.1182    2.5655    4.2203 C   0  0  0  0  0  0  0  0  0  0  0  0
   -0.1202    1.6294    4.0746 C   0  0  2  0  0  0  0  0  0  0  0  0
   -1.2425    2.0095    4.9269 N   0  0  0  0  0  0  0  0  0  0  0  0
   -1.6020    3.4308    4.8617 C   0  0  0  0  0  0  0  0  0  0  0  0
   -2.4923    3.8026    3.6675 C   0  0  0  0  0  0  0  0  0  0  0  0
   -3.6048    2.9979    3.3541 C   0  0  0  0  0  0  0  0  0  0  0  0
   -4.4705    3.4065    2.3206 C   0  0  0  0  0  0  0  0  0  0  0  0
   -4.2234    4.6531    1.7177 C   0  0  0  0  0  0  0  0  0  0  0  0
   -3.0549    5.3767    2.0835 C   0  0  0  0  0  0  0  0  0  0  0  0
   -2.2019    4.9520    3.0458 N   0  0  0  0  0  0  0  0  0  0  0  0
   -2.7779    6.5713    1.4153 N   0  0  0  0  0  0  0  0  0  0  0  0
   -3.6529    7.1429    0.5799 C   0  0  0  0  0  0  0  0  0  0  0  0
   -3.4025    8.1538   -0.0594 O   0  0  0  0  0  0  0  0  0  0  0  0
   -5.0423    6.4968    0.4803 C   0  0  0  0  0  0  0  0  0  0  0  0
   -5.0181    5.0915    0.6922 O   0  0  0  0  0  0  0  0  0  0  0  0
    0.2995    0.2322    4.5384 C   0  0  0  0  0  0  0  0  0  0  0  0
    1.5058   -0.1864    3.7265 C   0  0  0  0  0  0  0  0  0  0  0  0
   -0.5081    1.5213    2.5781 C   0  0  0  0  0  0  0  0  0  0  0  0
    0.6717    0.9770    1.7354 C   0  0  0  0  0  0  0  0  0  0  0  0
    2.7337   -4.1847   -0.0548 C   0  0  0  0  0  0  0  0  0  0  0  0
    2.4744   -5.8166    0.5147 S   0  0  0  0  0  0  0  0  0  0  0  0
    5.1084   -6.2522    3.2114 H   0  0  0  0  0  0  0  0  0  0  0  0
    4.6189   -7.5299    2.0781 H   0  0  0  0  0  0  0  0  0  0  0  0
    3.4637   -6.9157    3.2954 H   0  0  0  0  0  0  0  0  0  0  0  0
    3.1081   -1.9981    3.8084 H   0  0  0  0  0  0  0  0  0  0  0  0
    4.3979   -2.6674    3.1234 H   0  0  0  0  0  0  0  0  0  0  0  0
    4.4014    0.1624    4.3056 H   0  0  0  0  0  0  0  0  0  0  0  0
    6.6279   -1.2771    2.8790 H   0  0  0  0  0  0  0  0  0  0  0  0
    6.8020    0.2682    3.7716 H   0  0  0  0  0  0  0  0  0  0  0  0
    5.8641    0.1463    2.2932 H   0  0  0  0  0  0  0  0  0  0  0  0
    5.8128   -2.4006    5.1279 H   0  0  0  0  0  0  0  0  0  0  0  0
    4.4576   -1.6802    5.9748 H   0  0  0  0  0  0  0  0  0  0  0  0
    5.9935   -0.8284    5.9077 H   0  0  0  0  0  0  0  0  0  0  0  0
    3.9939    0.9367    2.0296 H   0  0  0  0  0  0  0  0  0  0  0  0
    2.9862    0.5592    0.7180 H   0  0  0  0  0  0  0  0  0  0  0  0
    3.1787    2.0528    3.8959 H   0  0  0  0  0  0  0  0  0  0  0  0
    2.4552    2.8977    2.5592 H   0  0  0  0  0  0  0  0  0  0  0  0
    1.4425    2.5959    5.2641 H   0  0  0  0  0  0  0  0  0  0  0  0
    0.9205    3.5850    3.9029 H   0  0  0  0  0  0  0  0  0  0  0  0
   -1.1159    1.6944    5.8769 H   0  0  0  0  0  0  0  0  0  0  0  0
   -2.0632    3.6999    5.8167 H   0  0  0  0  0  0  0  0  0  0  0  0
   -0.7548    4.0996    4.8320 H   0  0  0  0  0  0  0  0  0  0  0  0
   -3.7828    2.1240    3.9459 H   0  0  0  0  0  0  0  0  0  0  0  0
   -5.3236    2.8143    2.0496 H   0  0  0  0  0  0  0  0  0  0  0  0
   -1.8655    6.9889    1.5519 H   0  0  0  0  0  0  0  0  0  0  0  0
   -5.6744    6.9137    1.2620 H   0  0  0  0  0  0  0  0  0  0  0  0
   -5.4975    6.7226   -0.4894 H   0  0  0  0  0  0  0  0  0  0  0  0
    0.5895    0.2103    5.5919 H   0  0  0  0  0  0  0  0  0  0  0  0
   -0.4762   -0.5239    4.4075 H   0  0  0  0  0  0  0  0  0  0  0  0
    1.2908   -1.1581    3.2896 H   0  0  0  0  0  0  0  0  0  0  0  0
    2.2942   -0.2232    4.4670 H   0  0  0  0  0  0  0  0  0  0  0  0
   -1.3733    0.8700    2.4513 H   0  0  0  0  0  0  0  0  0  0  0  0
   -0.7824    2.5009    2.1925 H   0  0  0  0  0  0  0  0  0  0  0  0
    0.8692    1.6577    0.9115 H   0  0  0  0  0  0  0  0  0  0  0  0
    0.4024    0.0251    1.2806 H   0  0  0  0  0  0  0  0  0  0  0  0
    2.1228   -3.7632   -0.8391 H   0  0  0  0  0  0  0  0  0  0  0  0
  1  2  1  0
  1 37  1  0
  1 38  1  0
  1 39  1  0
  2 36  1  0
  2  3  2  0
  3  4  1  0
  4  5  1  0
  4 35  2  0
  5  6  2  0
  5  7  2  0
  5  8  1  0
  8  9  1  0
  8 13  1  0
  9 10  1  0
  9 40  1  0
  9 41  1  0
 10 11  1  0
 10 12  1  0
 10 42  1  0
 11 43  1  0
 11 44  1  0
 11 45  1  0
 12 46  1  0
 12 47  1  0
 12 48  1  0
 14 13  1  6
 13 49  1  0
 13 50  1  0
 14 32  1  0
 14 34  1  0
 14 15  1  0
 15 16  1  0
 15 51  1  0
 15 52  1  0
 16 17  1  0
 16 53  1  0
 16 54  1  0
 17 18  1  1
 17 31  1  0
 17 33  1  0
 18 19  1  0
 18 55  1  0
 19 20  1  0
 19 56  1  0
 19 57  1  0
 20 25  1  0
 20 21  2  0
 21 22  1  0
 21 58  1  0
 22 23  2  0
 22 59  1  0
 23 30  1  0
 23 24  1  0
 24 25  2  0
 24 26  1  0
 26 27  1  0
 26 60  1  0
 27 28  2  0
 27 29  1  0
 29 30  1  0
 29 61  1  0
 29 62  1  0
 31 32  1  0
 31 63  1  0
 31 64  1  0
 32 65  1  0
 32 66  1  0
 33 34  1  0
 33 67  1  0
 33 68  1  0
 34 69  1  0
 34 70  1  0
 35 36  1  0
 35 71  1  0
M  END
>  <i_m_ct_stereo_status>  (378) 
1

>  <s_m_source_file>  (378) 
/var/tmp/pbs.5102103.sched01/tmpr2ljwd0b/132iqlgd2x9.sdf

>  <i_m_source_file_index>  (378) 
15

>  <i_lp_mmshare_version>  (378) 
48012

>  <i_f3d_flags>  (378) 
0

>  <s_epik_input>  (378) 
W0NIM11jMW5jKFtjSF1zMSlTKD1PKSg9TylOKFtDSDJdW0NIXShbQ0gzXSlbQ0gzXSlbQ0gyXUMyM1tDSDJdW0NIMl1DKFtDSDJdW0NIMl0yKShbQ0gyXVtDSDJdMylbTkhdW0NIMl1jKFtjSF1bY0hdNCluYyhjNDUpW05IXUMoPU8pW0NIMl1PNQ==

>  <s_epik_cmdline>  (378) 
J2VwaWtfcHl0aG9uJywgJy1waHQnLCAnMi4wJywgJy1waCcsICc3LjAnLCAnLXRuJywgJzgnLCAnLW1hJywgJzIwMCcsICctaW1hZScsICc8aW5maWxlLm1hZT4nLCAnLW9tYWUnLCAnPG91dGZpbGUubWFlPic=

>  <r_lp_tautomer_probability>  (378) 
1

>  <r_epik_Ionization_Penalty>  (378) 
2.25073

>  <r_epik_Ionization_Penalty_Charging>  (378) 
0

>  <r_epik_Ionization_Penalty_Neutral>  (378) 
2.25073

>  <r_epik_State_Penalty>  (378) 
2.39777

>  <r_epik_Charging_Adjusted_Penalty>  (378) 
2.39777

>  <i_epik_Tot_Q>  (378) 
0

>  <i_epik_Tot_abs_Q>  (378) 
0

>  <s_lp_Force_Field>  (378) 
OPLS3e

>  <r_lp_Energy>  (378) 
68.9528

>  <b_lp_Chiralities_Consistent>  (378) 
1

>  <s_lp_Variant>  (378) 
93:0-2

>  <s_i_glide_gridfile>  (378) 
pfpi4k_grid

>  <i_i_glide_lignum>  (378) 
15

>  <i_i_glide_rotatable_bonds>  (378) 
9

>  <r_i_docking_score>  (378) 
-1.87649

>  <r_i_glide_ligand_efficiency>  (378) 
-0.0521247

>  <r_i_glide_ligand_efficiency_sa>  (378) 
-0.172112

>  <r_i_glide_ligand_efficiency_ln>  (378) 
-0.409399

>  <r_i_glide_gscore>  (378) 
-1.87649

>  <r_i_glide_lipo>  (378) 
-0.88355

>  <r_i_glide_hbond>  (378) 
-0.16

>  <r_i_glide_metal>  (378) 
-0

>  <r_i_glide_rewards>  (378) 
-0.061822

>  <r_i_glide_evdw>  (378) 
-14.7975

>  <r_i_glide_ecoul>  (378) 
-2.84335

>  <r_i_glide_erotb>  (378) 
0.579512

>  <r_i_glide_esite>  (378) 
-0.184254

>  <r_i_glide_emodel>  (378) 
-13.4089

>  <r_i_glide_energy>  (378) 
-17.6408

>  <r_i_glide_einternal>  (378) 
13.8822

>  <r_i_glide_intrahb_reward>  (378) 
-0

>  <i_i_glide_confnum>  (378) 
8

>  <i_i_glide_posenum>  (378) 
14

>  <r_i_glide_eff_state_penalty>  (378) 
0

>  <ligand_id>  (378) 
93

>  <original_smiles>  (378) 
Cc1nc(S(=O)(=O)N(CC(C)C)CC23CCC(NCc4ccc5c(n4)NC(=O)CO5)(CC2)CC3)cs1

>  <smiles>  (378) 
[H]c1sc(C([H])([H])[H])nc1S(=O)(=O)N(C([H])([H])C([H])(C([H])([H])[H])C([H])([H])[H])C([H])([H])C12C([H])([H])C([H])([H])C(N([H])C([H])([H])c3nc4c(c([H])c3[H])OC([H])([H])C(=O)N4[H])(C([H])([H])C1([H])[H])C([H])([H])C2([H])[H]

$$$$
93:1:2
     RDKit          3D

 71 75  0  0  1  0  0  0  0  0999 V2000
    0.9396    8.0067    6.1468 C   0  0  0  0  0  0  0  0  0  0  0  0
    1.5539    6.9120    5.3518 C   0  0  0  0  0  0  0  0  0  0  0  0
    1.6591    5.6912    5.8643 N   0  0  0  0  0  0  0  0  0  0  0  0
    2.2269    4.8307    4.9412 C   0  0  0  0  0  0  0  0  0  0  0  0
    2.4441    3.1478    5.2990 S   0  0  0  0  0  0  0  0  0  0  0  0
    3.7239    2.8427    4.7527 O   0  0  0  0  0  0  0  0  0  0  0  0
    2.2077    3.0405    6.7913 O   0  0  0  0  0  0  0  0  0  0  0  0
    1.0778    2.3628    4.5014 N   0  0  0  0  0  0  0  0  0  0  0  0
   -0.3042    2.6458    5.0044 C   0  0  0  0  0  0  0  0  0  0  0  0
   -1.2138    3.4521    4.0098 C   0  0  0  0  0  0  0  0  0  0  0  0
   -0.7015    4.8606    3.7112 C   0  0  0  0  0  0  0  0  0  0  0  0
   -2.6499    3.5488    4.4672 C   0  0  0  0  0  0  0  0  0  0  0  0
    1.1488    1.8402    3.1062 C   0  0  0  0  0  0  0  0  0  0  0  0
    1.9779    0.5489    2.8971 C   0  0  2  0  0  0  0  0  0  0  0  0
    1.4447   -0.1564    1.6303 C   0  0  0  0  0  0  0  0  0  0  0  0
    2.2066   -1.4638    1.3697 C   0  0  0  0  0  0  0  0  0  0  0  0
    3.3612   -1.6552    2.3752 C   0  0  2  0  0  0  0  0  0  0  0  0
    4.1227   -2.8965    2.1367 N   0  0  0  0  0  0  0  0  0  0  0  0
    5.0675   -2.9010    1.0127 C   0  0  0  0  0  0  0  0  0  0  0  0
    4.4215   -2.7469   -0.3498 C   0  0  0  0  0  0  0  0  0  0  0  0
    3.3996   -3.6191   -0.7586 C   0  0  0  0  0  0  0  0  0  0  0  0
    2.7556   -3.3851   -1.9813 C   0  0  0  0  0  0  0  0  0  0  0  0
    3.1594   -2.2807   -2.7268 C   0  0  0  0  0  0  0  0  0  0  0  0
    4.2074   -1.4673   -2.2655 C   0  0  0  0  0  0  0  0  0  0  0  0
    4.8626   -1.7110   -1.0987 N   0  0  0  0  0  0  0  0  0  0  0  0
    4.5603   -0.3670   -3.0771 N   0  0  0  0  0  0  0  0  0  0  0  0
    3.8757    0.0275   -4.1761 C   0  0  0  0  0  0  0  0  0  0  0  0
    4.2129    0.9244   -4.9294 O   0  0  0  0  0  0  0  0  0  0  0  0
    2.5809   -0.6714   -4.4177 C   0  0  0  0  0  0  0  0  0  0  0  0
    2.5571   -2.0544   -3.9388 O   0  0  0  0  0  0  0  0  0  0  0  0
    2.7093   -1.7131    3.7917 C   0  0  0  0  0  0  0  0  0  0  0  0
    1.8297   -0.4661    4.0506 C   0  0  0  0  0  0  0  0  0  0  0  0
    4.2688   -0.3971    2.2954 C   0  0  0  0  0  0  0  0  0  0  0  0
    3.4529    0.8406    2.6382 C   0  0  0  0  0  0  0  0  0  0  0  0
    2.5414    5.3953    3.7223 C   0  0  0  0  0  0  0  0  0  0  0  0
    2.2319    7.0909    3.7052 S   0  0  0  0  0  0  0  0  0  0  0  0
    0.6464    7.6351    7.1399 H   0  0  0  0  0  0  0  0  0  0  0  0
    0.0552    8.4148    5.6448 H   0  0  0  0  0  0  0  0  0  0  0  0
    1.6892    8.7896    6.2700 H   0  0  0  0  0  0  0  0  0  0  0  0
   -0.8052    1.7038    5.2623 H   0  0  0  0  0  0  0  0  0  0  0  0
   -0.2349    3.1955    5.9496 H   0  0  0  0  0  0  0  0  0  0  0  0
   -1.2779    2.9699    3.0382 H   0  0  0  0  0  0  0  0  0  0  0  0
   -0.6438    5.4507    4.6377 H   0  0  0  0  0  0  0  0  0  0  0  0
   -1.3041    5.4028    2.9709 H   0  0  0  0  0  0  0  0  0  0  0  0
    0.2662    4.7305    3.2354 H   0  0  0  0  0  0  0  0  0  0  0  0
   -2.7365    4.1137    5.3917 H   0  0  0  0  0  0  0  0  0  0  0  0
   -3.0912    2.5677    4.5869 H   0  0  0  0  0  0  0  0  0  0  0  0
   -3.1819    4.0503    3.6670 H   0  0  0  0  0  0  0  0  0  0  0  0
    0.1381    1.5566    2.7951 H   0  0  0  0  0  0  0  0  0  0  0  0
    1.4520    2.6582    2.4541 H   0  0  0  0  0  0  0  0  0  0  0  0
    0.3678   -0.3699    1.6628 H   0  0  0  0  0  0  0  0  0  0  0  0
    1.5885    0.5192    0.7828 H   0  0  0  0  0  0  0  0  0  0  0  0
    1.5374   -2.3184    1.4219 H   0  0  0  0  0  0  0  0  0  0  0  0
    2.5742   -1.3575    0.3621 H   0  0  0  0  0  0  0  0  0  0  0  0
    4.6311   -3.1236    2.9797 H   0  0  0  0  0  0  0  0  0  0  0  0
    5.8532   -2.1528    1.1450 H   0  0  0  0  0  0  0  0  0  0  0  0
    5.5719   -3.8679    1.0194 H   0  0  0  0  0  0  0  0  0  0  0  0
    3.0528   -4.4023   -0.1170 H   0  0  0  0  0  0  0  0  0  0  0  0
    1.9354   -3.9802   -2.3281 H   0  0  0  0  0  0  0  0  0  0  0  0
    5.4063    0.1087   -2.8324 H   0  0  0  0  0  0  0  0  0  0  0  0
    1.9552    0.1018   -3.9404 H   0  0  0  0  0  0  0  0  0  0  0  0
    2.3737   -0.5658   -5.4815 H   0  0  0  0  0  0  0  0  0  0  0  0
    2.0957   -2.6067    3.8793 H   0  0  0  0  0  0  0  0  0  0  0  0
    3.4730   -1.7762    4.5699 H   0  0  0  0  0  0  0  0  0  0  0  0
    2.1348   -0.0090    4.9887 H   0  0  0  0  0  0  0  0  0  0  0  0
    0.7803   -0.7536    4.1692 H   0  0  0  0  0  0  0  0  0  0  0  0
    5.0846   -0.4875    3.0194 H   0  0  0  0  0  0  0  0  0  0  0  0
    4.7361   -0.2648    1.3099 H   0  0  0  0  0  0  0  0  0  0  0  0
    3.5276    1.5970    1.8687 H   0  0  0  0  0  0  0  0  0  0  0  0
    3.9305    1.1068    3.5381 H   0  0  0  0  0  0  0  0  0  0  0  0
    2.9344    4.9322    2.8372 H   0  0  0  0  0  0  0  0  0  0  0  0
  1  2  1  0
  1 37  1  0
  1 38  1  0
  1 39  1  0
  2 36  1  0
  2  3  2  0
  3  4  1  0
  4  5  1  0
  4 35  2  0
  5  6  2  0
  5  7  2  0
  5  8  1  0
  8  9  1  0
  8 13  1  0
  9 10  1  0
  9 40  1  0
  9 41  1  0
 10 11  1  0
 10 12  1  0
 10 42  1  0
 11 43  1  0
 11 44  1  0
 11 45  1  0
 12 46  1  0
 12 47  1  0
 12 48  1  0
 14 13  1  1
 13 49  1  0
 13 50  1  0
 14 32  1  0
 14 34  1  0
 14 15  1  0
 15 16  1  0
 15 51  1  0
 15 52  1  0
 16 17  1  0
 16 53  1  0
 16 54  1  0
 17 18  1  6
 17 31  1  0
 17 33  1  0
 18 19  1  0
 18 55  1  0
 19 20  1  0
 19 56  1  0
 19 57  1  0
 20 25  1  0
 20 21  2  0
 21 22  1  0
 21 58  1  0
 22 23  2  0
 22 59  1  0
 23 30  1  0
 23 24  1  0
 24 25  2  0
 24 26  1  0
 26 27  1  0
 26 60  1  0
 27 28  2  0
 27 29  1  0
 29 30  1  0
 29 61  1  0
 29 62  1  0
 31 32  1  0
 31 63  1  0
 31 64  1  0
 32 65  1  0
 32 66  1  0
 33 34  1  0
 33 67  1  0
 33 68  1  0
 34 69  1  0
 34 70  1  0
 35 36  1  0
 35 71  1  0
M  END
>  <i_m_ct_stereo_status>  (379) 
1

>  <s_m_source_file>  (379) 
/var/tmp/pbs.5102103.sched01/tmpr2ljwd0b/132iqlgd2x9.sdf

>  <i_m_source_file_index>  (379) 
15

>  <i_lp_mmshare_version>  (379) 
48012

>  <i_f3d_flags>  (379) 
0

>  <s_epik_input>  (379) 
W0NIM11jMW5jKFtjSF1zMSlTKD1PKSg9TylOKFtDSDJdW0NIXShbQ0gzXSlbQ0gzXSlbQ0gyXUMyM1tDSDJdW0NIMl1DKFtDSDJdW0NIMl0yKShbQ0gyXVtDSDJdMylbTkhdW0NIMl1jKFtjSF1bY0hdNCluYyhjNDUpW05IXUMoPU8pW0NIMl1PNQ==

>  <s_epik_cmdline>  (379) 
J2VwaWtfcHl0aG9uJywgJy1waHQnLCAnMi4wJywgJy1waCcsICc3LjAnLCAnLXRuJywgJzgnLCAnLW1hJywgJzIwMCcsICctaW1hZScsICc8aW5maWxlLm1hZT4nLCAnLW9tYWUnLCAnPG91dGZpbGUubWFlPic=

>  <r_lp_tautomer_probability>  (379) 
1

>  <r_epik_Ionization_Penalty>  (379) 
2.25073

>  <r_epik_Ionization_Penalty_Charging>  (379) 
0

>  <r_epik_Ionization_Penalty_Neutral>  (379) 
2.25073

>  <r_epik_State_Penalty>  (379) 
2.39777

>  <r_epik_Charging_Adjusted_Penalty>  (379) 
2.39777

>  <i_epik_Tot_Q>  (379) 
0

>  <i_epik_Tot_abs_Q>  (379) 
0

>  <s_lp_Force_Field>  (379) 
OPLS3e

>  <r_lp_Energy>  (379) 
68.9528

>  <b_lp_Chiralities_Consistent>  (379) 
1

>  <s_lp_Variant>  (379) 
93:0-2

>  <s_i_glide_gridfile>  (379) 
pfpi4k_grid

>  <i_i_glide_lignum>  (379) 
15

>  <i_i_glide_rotatable_bonds>  (379) 
9

>  <r_i_docking_score>  (379) 
-1.51573

>  <r_i_glide_ligand_efficiency>  (379) 
-0.0421036

>  <r_i_glide_ligand_efficiency_sa>  (379) 
-0.139023

>  <r_i_glide_ligand_efficiency_ln>  (379) 
-0.330691

>  <r_i_glide_gscore>  (379) 
-1.51573

>  <r_i_glide_lipo>  (379) 
-0.327043

>  <r_i_glide_hbond>  (379) 
0

>  <r_i_glide_metal>  (379) 
-0

>  <r_i_glide_rewards>  (379) 
-0.244732

>  <r_i_glide_evdw>  (379) 
-22.8984

>  <r_i_glide_ecoul>  (379) 
-2.3592

>  <r_i_glide_erotb>  (379) 
0.579512

>  <r_i_glide_esite>  (379) 
-0.0246634

>  <r_i_glide_emodel>  (379) 
-21.9785

>  <r_i_glide_energy>  (379) 
-25.2576

>  <r_i_glide_einternal>  (379) 
7.42454

>  <r_i_glide_intrahb_reward>  (379) 
-0

>  <i_i_glide_confnum>  (379) 
5

>  <i_i_glide_posenum>  (379) 
22

>  <r_i_glide_eff_state_penalty>  (379) 
0

>  <ligand_id>  (379) 
93

>  <original_smiles>  (379) 
Cc1nc(S(=O)(=O)N(CC(C)C)CC23CCC(NCc4ccc5c(n4)NC(=O)CO5)(CC2)CC3)cs1

>  <smiles>  (379) 
[H]c1sc(C([H])([H])[H])nc1S(=O)(=O)N(C([H])([H])C([H])(C([H])([H])[H])C([H])([H])[H])C([H])([H])C12C([H])([H])C([H])([H])C(N([H])C([H])([H])c3nc4c(c([H])c3[H])OC([H])([H])C(=O)N4[H])(C([H])([H])C1([H])[H])C([H])([H])C2([H])[H]

$$$$
94:0:0
     RDKit          3D

 52 57  0  0  1  0  0  0  0  0999 V2000
    1.2596   -3.9896    3.3827 C   0  0  0  0  0  0  0  0  0  0  0  0
    2.5843   -4.1249    3.3364 C   0  0  0  0  0  0  0  0  0  0  0  0
    3.5904   -3.0841    3.5848 C   0  0  2  0  0  0  0  0  0  0  0  0
    3.4580   -1.5947    3.1979 C   0  0  2  0  0  0  0  0  0  0  0  0
    4.0283   -0.4636    2.3826 C   0  0  0  0  0  0  0  0  0  0  0  0
    3.9262   -0.9343    0.9162 C   0  0  1  0  0  0  0  0  0  0  0  0
    5.0598   -0.4965    0.1842 O   0  0  0  0  0  0  0  0  0  0  0  0
    5.8372   -1.6690   -0.2247 N   0  0  0  0  0  0  0  0  0  0  0  0
    7.0618   -1.5677    0.5270 C   0  0  0  0  0  0  0  0  0  0  0  0
    7.9365   -2.7954    0.2402 C   0  0  0  0  0  0  0  0  0  0  0  0
    7.2104   -4.0780    0.5656 C   0  0  0  0  0  0  0  0  0  0  0  0
    7.9167   -5.2248    0.9991 C   0  0  0  0  0  0  0  0  0  0  0  0
    7.2231   -6.4216    1.2886 C   0  0  0  0  0  0  0  0  0  0  0  0
    5.8135   -6.4767    1.1345 C   0  0  0  0  0  0  0  0  0  0  0  0
    5.1059   -5.3324    0.6976 C   0  0  0  0  0  0  0  0  0  0  0  0
    5.8014   -4.1239    0.4469 C   0  0  0  0  0  0  0  0  0  0  0  0
    5.0365   -2.8916   -0.0327 C   0  0  2  0  0  0  0  0  0  0  0  0
    4.4196   -3.2055   -1.4002 N   0  0  0  0  0  0  0  0  0  0  0  0
    3.3735   -2.2580   -1.9181 C   0  0  0  0  0  0  0  0  0  0  0  0
    2.8394   -2.6945   -3.2684 C   0  0  0  0  0  0  0  0  0  0  0  0
    3.9065   -2.8206   -4.1816 O   0  0  0  0  0  0  0  0  0  0  0  0
    4.8030   -3.8347   -3.7869 C   0  0  0  0  0  0  0  0  0  0  0  0
    5.4470   -3.4599   -2.4722 C   0  0  0  0  0  0  0  0  0  0  0  0
    3.9871   -2.4436    0.9943 C   0  0  1  0  0  0  0  0  0  0  0  0
    4.3329   -2.6361    2.4383 C   0  0  2  0  0  0  0  0  0  0  0  0
    0.7833   -3.0484    3.6340 H   0  0  0  0  0  0  0  0  0  0  0  0
    0.6144   -4.8399    3.1660 H   0  0  0  0  0  0  0  0  0  0  0  0
    2.9877   -5.1008    3.0742 H   0  0  0  0  0  0  0  0  0  0  0  0
    4.1652   -3.3168    4.4802 H   0  0  0  0  0  0  0  0  0  0  0  0
    2.3787   -1.4997    3.0426 H   0  0  0  0  0  0  0  0  0  0  0  0
    3.4871    0.4680    2.5330 H   0  0  0  0  0  0  0  0  0  0  0  0
    5.0693   -0.2835    2.6533 H   0  0  0  0  0  0  0  0  0  0  0  0
    2.9897   -0.6044    0.4608 H   0  0  0  0  0  0  0  0  0  0  0  0
    7.5782   -0.6678    0.2180 H   0  0  0  0  0  0  0  0  0  0  0  0
    6.8550   -1.4747    1.5867 H   0  0  0  0  0  0  0  0  0  0  0  0
    8.2270   -2.8262   -0.8088 H   0  0  0  0  0  0  0  0  0  0  0  0
    8.8526   -2.7389    0.8221 H   0  0  0  0  0  0  0  0  0  0  0  0
    8.9923   -5.1975    1.1021 H   0  0  0  0  0  0  0  0  0  0  0  0
    7.7674   -7.3003    1.6140 H   0  0  0  0  0  0  0  0  0  0  0  0
    5.2891   -7.4049    1.3230 H   0  0  0  0  0  0  0  0  0  0  0  0
    4.0342   -5.4038    0.5686 H   0  0  0  0  0  0  0  0  0  0  0  0
    2.5471   -2.2159   -1.2287 H   0  0  0  0  0  0  0  0  0  0  0  0
    3.8044   -1.2612   -2.0229 H   0  0  0  0  0  0  0  0  0  0  0  0
    2.2561   -3.6100   -3.1958 H   0  0  0  0  0  0  0  0  0  0  0  0
    2.1833   -1.9058   -3.6282 H   0  0  0  0  0  0  0  0  0  0  0  0
    4.3359   -4.8077   -3.7780 H   0  0  0  0  0  0  0  0  0  0  0  0
    5.5991   -3.8932   -4.5221 H   0  0  0  0  0  0  0  0  0  0  0  0
    6.0628   -2.5735   -2.6474 H   0  0  0  0  0  0  0  0  0  0  0  0
    6.1256   -4.2547   -2.1719 H   0  0  0  0  0  0  0  0  0  0  0  0
    3.0084   -2.9145    0.8460 H   0  0  0  0  0  0  0  0  0  0  0  0
    5.4063   -2.5925    2.6481 H   0  0  0  0  0  0  0  0  0  0  0  0
    3.9376   -4.0936   -1.2779 H   0  0  0  0  0  0  0  0  0  0  0  0
  1  2  2  0
  1 26  1  0
  1 27  1  0
  2  3  1  0
  2 28  1  0
  3 25  1  0
  3  4  1  0
  3 29  1  1
  4 25  1  0
  4  5  1  0
  4 30  1  6
  5  6  1  0
  5 31  1  0
  5 32  1  0
  6 24  1  0
  6  7  1  0
  6 33  1  6
  7  8  1  0
  8 17  1  0
  8  9  1  0
  9 10  1  0
  9 34  1  0
  9 35  1  0
 10 11  1  0
 10 36  1  0
 10 37  1  0
 11 16  2  0
 11 12  1  0
 12 13  2  0
 12 38  1  0
 13 14  1  0
 13 39  1  0
 14 15  2  0
 14 40  1  0
 15 16  1  0
 15 41  1  0
 16 17  1  0
 17 18  1  6
 17 24  1  0
 18 23  1  0
 18 19  1  0
 18 52  1  0
 19 20  1  0
 19 42  1  0
 19 43  1  0
 20 21  1  0
 20 44  1  0
 20 45  1  0
 21 22  1  0
 22 23  1  0
 22 46  1  0
 22 47  1  0
 23 48  1  0
 23 49  1  0
 24 25  1  0
 24 50  1  6
 25 51  1  6
M  CHG  1  18   1
M  END
>  <i_m_ct_stereo_status>  (380) 
1

>  <s_m_source_file>  (380) 
/var/tmp/pbs.5102103.sched01/tmpr2ljwd0b/132iqlgd2x9.sdf

>  <i_m_source_file_index>  (380) 
16

>  <i_lp_mmshare_version>  (380) 
48012

>  <i_f3d_flags>  (380) 
0

>  <s_epik_input>  (380) 
W0NIMl09W0NIXVtDQEBIXTFbQ0BASF0oW0NIMl0yKVtDQEBIXTFbQ0BIXTNbQ0BASF0yT04oW0NAXTM0TjVbQ0gyXVtDSDJdT1tDSDJdW0NIMl01KVtDSDJdW0NIMl1jNmM0W2NIXVtjSF1bY0hdW2NIXTY=

>  <s_epik_cmdline>  (380) 
J2VwaWtfcHl0aG9uJywgJy1waHQnLCAnMi4wJywgJy1waCcsICc3LjAnLCAnLXRuJywgJzgnLCAnLW1hJywgJzIwMCcsICctaW1hZScsICc8aW5maWxlLm1hZT4nLCAnLW9tYWUnLCAnPG91dGZpbGUubWFlPic=

>  <r_epik_Ionization_Penalty>  (380) 
0.161516

>  <r_epik_Ionization_Penalty_Charging>  (380) 
0.161515

>  <r_epik_Ionization_Penalty_Neutral>  (380) 
4.20403e-07

>  <r_epik_State_Penalty>  (380) 
0.150833

>  <r_epik_Charging_Adjusted_Penalty>  (380) 
0.312348

>  <i_epik_Tot_Q>  (380) 
1

>  <i_epik_Tot_abs_Q>  (380) 
1

>  <s_epik_Chemistry_Notes>  (380) 
This compound has a N-S or N-O group and may undergo hydrolysis at high or low pH.

>  <s_lp_Force_Field>  (380) 
OPLS3e

>  <r_lp_Energy>  (380) 
71.0355

>  <b_lp_Chiralities_Consistent>  (380) 
1

>  <s_lp_Variant>  (380) 
94:0-1

>  <s_i_glide_gridfile>  (380) 
pfpi4k_grid

>  <i_i_glide_lignum>  (380) 
16

>  <i_i_glide_rotatable_bonds>  (380) 
2

>  <r_i_docking_score>  (380) 
-4.59995

>  <r_i_glide_ligand_efficiency>  (380) 
-0.183998

>  <r_i_glide_ligand_efficiency_sa>  (380) 
-0.538013

>  <r_i_glide_ligand_efficiency_ln>  (380) 
-1.09033

>  <r_i_glide_gscore>  (380) 
-4.59995

>  <r_i_glide_lipo>  (380) 
-1.17694

>  <r_i_glide_hbond>  (380) 
-0.285677

>  <r_i_glide_metal>  (380) 
-0

>  <r_i_glide_rewards>  (380) 
-1.12056

>  <r_i_glide_evdw>  (380) 
-29.6137

>  <r_i_glide_ecoul>  (380) 
-5.6011

>  <r_i_glide_erotb>  (380) 
0.328479

>  <r_i_glide_esite>  (380) 
-0.0244089

>  <r_i_glide_emodel>  (380) 
-45.0308

>  <r_i_glide_energy>  (380) 
-35.2148

>  <r_i_glide_einternal>  (380) 
0.404764

>  <r_i_glide_intrahb_reward>  (380) 
-0

>  <i_i_glide_confnum>  (380) 
3

>  <i_i_glide_posenum>  (380) 
16

>  <r_i_glide_eff_state_penalty>  (380) 
0

>  <ligand_id>  (380) 
94

>  <original_smiles>  (380) 
C=CC1C2CC3ON4CCc5ccccc5C4(N4CCOCC4)C3C12

>  <smiles>  (380) 
[H]C([H])=C([H])C1([H])C2([H])C([H])([H])C3([H])ON4C([H])([H])C([H])([H])c5c([H])c([H])c([H])c([H])c5C4([N+]4([H])C([H])([H])C([H])([H])OC([H])([H])C4([H])[H])C3([H])C12[H]

$$$$
94:0:1
     RDKit          3D

 52 57  0  0  1  0  0  0  0  0999 V2000
    0.8546   -0.6387    3.1620 C   0  0  0  0  0  0  0  0  0  0  0  0
    1.6129   -1.7425    3.2146 C   0  0  0  0  0  0  0  0  0  0  0  0
    3.0382   -1.8246    3.6163 C   0  0  2  0  0  0  0  0  0  0  0  0
    4.0849   -0.7407    3.3060 C   0  0  2  0  0  0  0  0  0  0  0  0
    5.4157   -0.4859    2.6114 C   0  0  0  0  0  0  0  0  0  0  0  0
    5.1405   -0.7438    1.1108 C   0  0  1  0  0  0  0  0  0  0  0  0
    6.2709   -1.3202    0.4651 O   0  0  0  0  0  0  0  0  0  0  0  0
    5.9608   -2.6976    0.0922 N   0  0  0  0  0  0  0  0  0  0  0  0
    6.7583   -3.5289    0.9771 C   0  0  0  0  0  0  0  0  0  0  0  0
    6.4309   -5.0068    0.7396 C   0  0  0  0  0  0  0  0  0  0  0  0
    4.9560   -5.2904    0.9150 C   0  0  0  0  0  0  0  0  0  0  0  0
    4.5169   -6.5639    1.3409 C   0  0  0  0  0  0  0  0  0  0  0  0
    3.1408   -6.8236    1.4843 C   0  0  0  0  0  0  0  0  0  0  0  0
    2.2048   -5.8177    1.1953 C   0  0  0  0  0  0  0  0  0  0  0  0
    2.6418   -4.5483    0.7645 C   0  0  0  0  0  0  0  0  0  0  0  0
    4.0244   -4.2717    0.6244 C   0  0  0  0  0  0  0  0  0  0  0  0
    4.4938   -2.8787    0.1460 C   0  0  2  0  0  0  0  0  0  0  0  0
    3.9959   -2.6947   -1.2658 N   0  0  0  0  0  0  0  0  0  0  0  0
    4.0170   -1.3035   -1.7895 C   0  0  0  0  0  0  0  0  0  0  0  0
    3.4672   -1.2235   -3.2135 C   0  0  0  0  0  0  0  0  0  0  0  0
    4.1995   -2.0978   -4.0543 O   0  0  0  0  0  0  0  0  0  0  0  0
    4.0685   -3.4526   -3.6457 C   0  0  0  0  0  0  0  0  0  0  0  0
    4.6462   -3.6162   -2.2422 C   0  0  0  0  0  0  0  0  0  0  0  0
    4.0350   -1.7742    1.1151 C   0  0  1  0  0  0  0  0  0  0  0  0
    3.9966   -2.1269    2.5895 C   0  0  2  0  0  0  0  0  0  0  0  0
    1.2472    0.3332    3.4315 H   0  0  0  0  0  0  0  0  0  0  0  0
   -0.1795   -0.6951    2.8434 H   0  0  0  0  0  0  0  0  0  0  0  0
    1.1785   -2.6936    2.9334 H   0  0  0  0  0  0  0  0  0  0  0  0
    3.1540   -2.3588    4.5575 H   0  0  0  0  0  0  0  0  0  0  0  0
    3.4890    0.1372    3.0451 H   0  0  0  0  0  0  0  0  0  0  0  0
    5.7576    0.5360    2.7834 H   0  0  0  0  0  0  0  0  0  0  0  0
    6.2016   -1.1535    2.9775 H   0  0  0  0  0  0  0  0  0  0  0  0
    4.8192    0.1624    0.5906 H   0  0  0  0  0  0  0  0  0  0  0  0
    7.8071   -3.3376    0.7540 H   0  0  0  0  0  0  0  0  0  0  0  0
    6.6013   -3.2629    2.0178 H   0  0  0  0  0  0  0  0  0  0  0  0
    6.6841   -5.2696   -0.2816 H   0  0  0  0  0  0  0  0  0  0  0  0
    7.0195   -5.6334    1.4034 H   0  0  0  0  0  0  0  0  0  0  0  0
    5.2353   -7.3445    1.5465 H   0  0  0  0  0  0  0  0  0  0  0  0
    2.8053   -7.7948    1.8248 H   0  0  0  0  0  0  0  0  0  0  0  0
    1.1507   -6.0326    1.3035 H   0  0  0  0  0  0  0  0  0  0  0  0
    1.9218   -3.7774    0.5415 H   0  0  0  0  0  0  0  0  0  0  0  0
    3.3976   -0.6591   -1.1739 H   0  0  0  0  0  0  0  0  0  0  0  0
    5.0383   -0.9125   -1.7808 H   0  0  0  0  0  0  0  0  0  0  0  0
    2.4029   -1.4555   -3.2415 H   0  0  0  0  0  0  0  0  0  0  0  0
    3.5919   -0.1991   -3.5701 H   0  0  0  0  0  0  0  0  0  0  0  0
    3.0298   -3.7884   -3.7085 H   0  0  0  0  0  0  0  0  0  0  0  0
    4.6552   -4.0687   -4.3301 H   0  0  0  0  0  0  0  0  0  0  0  0
    5.7220   -3.4291   -2.3159 H   0  0  0  0  0  0  0  0  0  0  0  0
    4.5436   -4.6540   -1.9308 H   0  0  0  0  0  0  0  0  0  0  0  0
    3.0537   -1.3660    0.8517 H   0  0  0  0  0  0  0  0  0  0  0  0
    4.7044   -2.9030    2.8862 H   0  0  0  0  0  0  0  0  0  0  0  0
    3.0188   -2.9461   -1.2293 H   0  0  0  0  0  0  0  0  0  0  0  0
  1  2  2  0
  1 26  1  0
  1 27  1  0
  2  3  1  0
  2 28  1  0
  3 25  1  0
  3  4  1  0
  3 29  1  1
  4 25  1  0
  4  5  1  0
  4 30  1  6
  5  6  1  0
  5 31  1  0
  5 32  1  0
  6 24  1  0
  6  7  1  0
  6 33  1  6
  7  8  1  0
  8 17  1  0
  8  9  1  0
  9 10  1  0
  9 34  1  0
  9 35  1  0
 10 11  1  0
 10 36  1  0
 10 37  1  0
 11 16  2  0
 11 12  1  0
 12 13  2  0
 12 38  1  0
 13 14  1  0
 13 39  1  0
 14 15  2  0
 14 40  1  0
 15 16  1  0
 15 41  1  0
 16 17  1  0
 17 18  1  6
 17 24  1  0
 18 23  1  0
 18 19  1  0
 18 52  1  0
 19 20  1  0
 19 42  1  0
 19 43  1  0
 20 21  1  0
 20 44  1  0
 20 45  1  0
 21 22  1  0
 22 23  1  0
 22 46  1  0
 22 47  1  0
 23 48  1  0
 23 49  1  0
 24 25  1  0
 24 50  1  6
 25 51  1  1
M  CHG  1  18   1
M  END
>  <i_m_ct_stereo_status>  (381) 
1

>  <s_m_source_file>  (381) 
/var/tmp/pbs.5102103.sched01/tmpr2ljwd0b/132iqlgd2x9.sdf

>  <i_m_source_file_index>  (381) 
16

>  <i_lp_mmshare_version>  (381) 
48012

>  <i_f3d_flags>  (381) 
0

>  <s_epik_input>  (381) 
W0NIMl09W0NIXVtDQEBIXTFbQ0BASF0oW0NIMl0yKVtDQEBIXTFbQ0BIXTNbQ0BASF0yT04oW0NAXTM0TjVbQ0gyXVtDSDJdT1tDSDJdW0NIMl01KVtDSDJdW0NIMl1jNmM0W2NIXVtjSF1bY0hdW2NIXTY=

>  <s_epik_cmdline>  (381) 
J2VwaWtfcHl0aG9uJywgJy1waHQnLCAnMi4wJywgJy1waCcsICc3LjAnLCAnLXRuJywgJzgnLCAnLW1hJywgJzIwMCcsICctaW1hZScsICc8aW5maWxlLm1hZT4nLCAnLW9tYWUnLCAnPG91dGZpbGUubWFlPic=

>  <r_epik_Ionization_Penalty>  (381) 
0.161516

>  <r_epik_Ionization_Penalty_Charging>  (381) 
0.161515

>  <r_epik_Ionization_Penalty_Neutral>  (381) 
4.20403e-07

>  <r_epik_State_Penalty>  (381) 
0.150833

>  <r_epik_Charging_Adjusted_Penalty>  (381) 
0.312348

>  <i_epik_Tot_Q>  (381) 
1

>  <i_epik_Tot_abs_Q>  (381) 
1

>  <s_epik_Chemistry_Notes>  (381) 
This compound has a N-S or N-O group and may undergo hydrolysis at high or low pH.

>  <s_lp_Force_Field>  (381) 
OPLS3e

>  <r_lp_Energy>  (381) 
71.0355

>  <b_lp_Chiralities_Consistent>  (381) 
1

>  <s_lp_Variant>  (381) 
94:0-1

>  <s_i_glide_gridfile>  (381) 
pfpi4k_grid

>  <i_i_glide_lignum>  (381) 
16

>  <i_i_glide_rotatable_bonds>  (381) 
2

>  <r_i_docking_score>  (381) 
-4.23412

>  <r_i_glide_ligand_efficiency>  (381) 
-0.169365

>  <r_i_glide_ligand_efficiency_sa>  (381) 
-0.495226

>  <r_i_glide_ligand_efficiency_ln>  (381) 
-1.00361

>  <r_i_glide_gscore>  (381) 
-4.23412

>  <r_i_glide_lipo>  (381) 
-0.910387

>  <r_i_glide_hbond>  (381) 
-0.259134

>  <r_i_glide_metal>  (381) 
-0

>  <r_i_glide_rewards>  (381) 
-1.15168

>  <r_i_glide_evdw>  (381) 
-29.5588

>  <r_i_glide_ecoul>  (381) 
-4.95387

>  <r_i_glide_erotb>  (381) 
0.328479

>  <r_i_glide_esite>  (381) 
-0.020379

>  <r_i_glide_emodel>  (381) 
-43.5473

>  <r_i_glide_energy>  (381) 
-34.5127

>  <r_i_glide_einternal>  (381) 
0.729683

>  <r_i_glide_intrahb_reward>  (381) 
-0

>  <i_i_glide_confnum>  (381) 
3

>  <i_i_glide_posenum>  (381) 
24

>  <r_i_glide_eff_state_penalty>  (381) 
0

>  <ligand_id>  (381) 
94

>  <original_smiles>  (381) 
C=CC1C2CC3ON4CCc5ccccc5C4(N4CCOCC4)C3C12

>  <smiles>  (381) 
[H]C([H])=C([H])C1([H])C2([H])C([H])([H])C3([H])ON4C([H])([H])C([H])([H])c5c([H])c([H])c([H])c([H])c5C4([N+]4([H])C([H])([H])C([H])([H])OC([H])([H])C4([H])[H])C3([H])C12[H]

$$$$
94:0:2
     RDKit          3D

 52 57  0  0  1  0  0  0  0  0999 V2000
    0.6327   -2.6491    4.0973 C   0  0  0  0  0  0  0  0  0  0  0  0
    1.6308   -2.1350    3.3693 C   0  0  0  0  0  0  0  0  0  0  0  0
    3.0670   -2.1189    3.7531 C   0  0  2  0  0  0  0  0  0  0  0  0
    3.9973   -0.9214    3.4745 C   0  0  2  0  0  0  0  0  0  0  0  0
    5.2945   -0.5101    2.7858 C   0  0  0  0  0  0  0  0  0  0  0  0
    5.0420   -0.7401    1.2799 C   0  0  1  0  0  0  0  0  0  0  0  0
    6.2137   -1.1859    0.5979 O   0  0  0  0  0  0  0  0  0  0  0  0
    6.0270   -2.5697    0.1731 N   0  0  0  0  0  0  0  0  0  0  0  0
    6.9036   -3.3536    1.0240 C   0  0  0  0  0  0  0  0  0  0  0  0
    6.7225   -4.8451    0.7402 C   0  0  0  0  0  0  0  0  0  0  0  0
    5.2829   -5.2752    0.9169 C   0  0  0  0  0  0  0  0  0  0  0  0
    4.9654   -6.5970    1.3007 C   0  0  0  0  0  0  0  0  0  0  0  0
    3.6213   -6.9899    1.4453 C   0  0  0  0  0  0  0  0  0  0  0  0
    2.5906   -6.0675    1.2046 C   0  0  0  0  0  0  0  0  0  0  0  0
    2.9045   -4.7477    0.8188 C   0  0  0  0  0  0  0  0  0  0  0  0
    4.2542   -4.3379    0.6785 C   0  0  0  0  0  0  0  0  0  0  0  0
    4.5855   -2.8962    0.2375 C   0  0  2  0  0  0  0  0  0  0  0  0
    4.0497   -2.7118   -1.1596 N   0  0  0  0  0  0  0  0  0  0  0  0
    4.0208   -1.3137   -1.6663 C   0  0  0  0  0  0  0  0  0  0  0  0
    3.4541   -1.2383   -3.0841 C   0  0  0  0  0  0  0  0  0  0  0  0
    4.2040   -2.0833   -3.9401 O   0  0  0  0  0  0  0  0  0  0  0  0
    4.1167   -3.4459   -3.5473 C   0  0  0  0  0  0  0  0  0  0  0  0
    4.7096   -3.6120   -2.1528 C   0  0  0  0  0  0  0  0  0  0  0  0
    4.0370   -1.8717    1.2448 C   0  0  1  0  0  0  0  0  0  0  0  0
    4.0369   -2.2831    2.7055 C   0  0  2  0  0  0  0  0  0  0  0  0
    0.7988   -3.0891    5.0730 H   0  0  0  0  0  0  0  0  0  0  0  0
   -0.3731   -2.6322    3.7013 H   0  0  0  0  0  0  0  0  0  0  0  0
    1.3816   -1.6965    2.4102 H   0  0  0  0  0  0  0  0  0  0  0  0
    3.2505   -2.6540    4.6828 H   0  0  0  0  0  0  0  0  0  0  0  0
    3.3003   -0.1066    3.2606 H   0  0  0  0  0  0  0  0  0  0  0  0
    5.5277    0.5367    2.9861 H   0  0  0  0  0  0  0  0  0  0  0  0
    6.1525   -1.0962    3.1269 H   0  0  0  0  0  0  0  0  0  0  0  0
    4.6328    0.1513    0.7968 H   0  0  0  0  0  0  0  0  0  0  0  0
    7.9279   -3.0534    0.8084 H   0  0  0  0  0  0  0  0  0  0  0  0
    6.7195   -3.1376    2.0713 H   0  0  0  0  0  0  0  0  0  0  0  0
    7.0047   -5.0443   -0.2860 H   0  0  0  0  0  0  0  0  0  0  0  0
    7.3742   -5.4305    1.3826 H   0  0  0  0  0  0  0  0  0  0  0  0
    5.7572   -7.3124    1.4685 H   0  0  0  0  0  0  0  0  0  0  0  0
    3.3849   -8.0050    1.7442 H   0  0  0  0  0  0  0  0  0  0  0  0
    1.5619   -6.3816    1.3023 H   0  0  0  0  0  0  0  0  0  0  0  0
    2.1084   -4.0460    0.6293 H   0  0  0  0  0  0  0  0  0  0  0  0
    3.4037   -0.6690   -1.0389 H   0  0  0  0  0  0  0  0  0  0  0  0
    5.0292   -0.8938   -1.6752 H   0  0  0  0  0  0  0  0  0  0  0  0
    2.3974   -1.5003   -3.1027 H   0  0  0  0  0  0  0  0  0  0  0  0
    3.5466   -0.2112   -3.4348 H   0  0  0  0  0  0  0  0  0  0  0  0
    3.0874   -3.8087   -3.5999 H   0  0  0  0  0  0  0  0  0  0  0  0
    4.7057   -4.0426   -4.2455 H   0  0  0  0  0  0  0  0  0  0  0  0
    5.7797   -3.4040   -2.2226 H   0  0  0  0  0  0  0  0  0  0  0  0
    4.6163   -4.6602   -1.8701 H   0  0  0  0  0  0  0  0  0  0  0  0
    3.0350   -1.5307    0.9740 H   0  0  0  0  0  0  0  0  0  0  0  0
    4.8224   -2.9919    2.9733 H   0  0  0  0  0  0  0  0  0  0  0  0
    3.0836   -3.0008   -1.1114 H   0  0  0  0  0  0  0  0  0  0  0  0
  1  2  2  0
  1 26  1  0
  1 27  1  0
  2  3  1  0
  2 28  1  0
  3 25  1  0
  3  4  1  0
  3 29  1  1
  4 25  1  0
  4  5  1  0
  4 30  1  6
  5  6  1  0
  5 31  1  0
  5 32  1  0
  6 24  1  0
  6  7  1  0
  6 33  1  6
  7  8  1  0
  8 17  1  0
  8  9  1  0
  9 10  1  0
  9 34  1  0
  9 35  1  0
 10 11  1  0
 10 36  1  0
 10 37  1  0
 11 16  2  0
 11 12  1  0
 12 13  2  0
 12 38  1  0
 13 14  1  0
 13 39  1  0
 14 15  2  0
 14 40  1  0
 15 16  1  0
 15 41  1  0
 16 17  1  0
 17 18  1  6
 17 24  1  0
 18 23  1  0
 18 19  1  0
 18 52  1  0
 19 20  1  0
 19 42  1  0
 19 43  1  0
 20 21  1  0
 20 44  1  0
 20 45  1  0
 21 22  1  0
 22 23  1  0
 22 46  1  0
 22 47  1  0
 23 48  1  0
 23 49  1  0
 24 25  1  0
 24 50  1  6
 25 51  1  1
M  CHG  1  18   1
M  END
>  <i_m_ct_stereo_status>  (382) 
1

>  <s_m_source_file>  (382) 
/var/tmp/pbs.5102103.sched01/tmpr2ljwd0b/132iqlgd2x9.sdf

>  <i_m_source_file_index>  (382) 
16

>  <i_lp_mmshare_version>  (382) 
48012

>  <i_f3d_flags>  (382) 
0

>  <s_epik_input>  (382) 
W0NIMl09W0NIXVtDQEBIXTFbQ0BASF0oW0NIMl0yKVtDQEBIXTFbQ0BIXTNbQ0BASF0yT04oW0NAXTM0TjVbQ0gyXVtDSDJdT1tDSDJdW0NIMl01KVtDSDJdW0NIMl1jNmM0W2NIXVtjSF1bY0hdW2NIXTY=

>  <s_epik_cmdline>  (382) 
J2VwaWtfcHl0aG9uJywgJy1waHQnLCAnMi4wJywgJy1waCcsICc3LjAnLCAnLXRuJywgJzgnLCAnLW1hJywgJzIwMCcsICctaW1hZScsICc8aW5maWxlLm1hZT4nLCAnLW9tYWUnLCAnPG91dGZpbGUubWFlPic=

>  <r_epik_Ionization_Penalty>  (382) 
0.161516

>  <r_epik_Ionization_Penalty_Charging>  (382) 
0.161515

>  <r_epik_Ionization_Penalty_Neutral>  (382) 
4.20403e-07

>  <r_epik_State_Penalty>  (382) 
0.150833

>  <r_epik_Charging_Adjusted_Penalty>  (382) 
0.312348

>  <i_epik_Tot_Q>  (382) 
1

>  <i_epik_Tot_abs_Q>  (382) 
1

>  <s_epik_Chemistry_Notes>  (382) 
This compound has a N-S or N-O group and may undergo hydrolysis at high or low pH.

>  <s_lp_Force_Field>  (382) 
OPLS3e

>  <r_lp_Energy>  (382) 
71.0355

>  <b_lp_Chiralities_Consistent>  (382) 
1

>  <s_lp_Variant>  (382) 
94:0-1

>  <s_i_glide_gridfile>  (382) 
pfpi4k_grid

>  <i_i_glide_lignum>  (382) 
16

>  <i_i_glide_rotatable_bonds>  (382) 
2

>  <r_i_docking_score>  (382) 
-4.21385

>  <r_i_glide_ligand_efficiency>  (382) 
-0.168554

>  <r_i_glide_ligand_efficiency_sa>  (382) 
-0.492855

>  <r_i_glide_ligand_efficiency_ln>  (382) 
-0.998808

>  <r_i_glide_gscore>  (382) 
-4.21385

>  <r_i_glide_lipo>  (382) 
-0.940478

>  <r_i_glide_hbond>  (382) 
-0.167088

>  <r_i_glide_metal>  (382) 
-0

>  <r_i_glide_rewards>  (382) 
-1.16142

>  <r_i_glide_evdw>  (382) 
-29.8917

>  <r_i_glide_ecoul>  (382) 
-5.07388

>  <r_i_glide_erotb>  (382) 
0.328479

>  <r_i_glide_esite>  (382) 
-0.0176747

>  <r_i_glide_emodel>  (382) 
-44.1975

>  <r_i_glide_energy>  (382) 
-34.9656

>  <r_i_glide_einternal>  (382) 
0.148508

>  <r_i_glide_intrahb_reward>  (382) 
-0

>  <i_i_glide_confnum>  (382) 
5

>  <i_i_glide_posenum>  (382) 
9

>  <r_i_glide_eff_state_penalty>  (382) 
0

>  <ligand_id>  (382) 
94

>  <original_smiles>  (382) 
C=CC1C2CC3ON4CCc5ccccc5C4(N4CCOCC4)C3C12

>  <smiles>  (382) 
[H]C([H])=C([H])C1([H])C2([H])C([H])([H])C3([H])ON4C([H])([H])C([H])([H])c5c([H])c([H])c([H])c([H])c5C4([N+]4([H])C([H])([H])C([H])([H])OC([H])([H])C4([H])[H])C3([H])C12[H]

$$$$
94:1:0
     RDKit          3D

 51 56  0  0  1  0  0  0  0  0999 V2000
    1.2322   -3.8829    4.1341 C   0  0  0  0  0  0  0  0  0  0  0  0
    1.8909   -3.0505    3.3151 C   0  0  0  0  0  0  0  0  0  0  0  0
    3.3032   -2.6255    3.4751 C   0  0  2  0  0  0  0  0  0  0  0  0
    3.7123   -1.2177    3.0885 C   0  0  2  0  0  0  0  0  0  0  0  0
    4.7503   -0.3887    2.3671 C   0  0  0  0  0  0  0  0  0  0  0  0
    4.5088   -0.6997    0.8789 C   0  0  1  0  0  0  0  0  0  0  0  0
    5.6925   -0.6463    0.0920 O   0  0  0  0  0  0  0  0  0  0  0  0
    6.0629   -1.9889   -0.3160 N   0  0  0  0  0  0  0  0  0  0  0  0
    7.1833   -2.3089    0.5505 C   0  0  0  0  0  0  0  0  0  0  0  0
    7.6391   -3.7470    0.3283 C   0  0  0  0  0  0  0  0  0  0  0  0
    6.4968   -4.7187    0.5247 C   0  0  0  0  0  0  0  0  0  0  0  0
    6.7555   -6.0389    0.9455 C   0  0  0  0  0  0  0  0  0  0  0  0
    5.7003   -6.9615    1.0625 C   0  0  0  0  0  0  0  0  0  0  0  0
    4.3894   -6.5788    0.7278 C   0  0  0  0  0  0  0  0  0  0  0  0
    4.1256   -5.2538    0.3262 C   0  0  0  0  0  0  0  0  0  0  0  0
    5.1707   -4.3029    0.2422 C   0  0  0  0  0  0  0  0  0  0  0  0
    4.8612   -2.8476   -0.1906 C   0  0  2  0  0  0  0  0  0  0  0  0
    4.2008   -2.8849   -1.5289 N   0  0  0  0  0  0  0  0  0  0  0  0
    5.0195   -3.5144   -2.5677 C   0  0  0  0  0  0  0  0  0  0  0  0
    4.3051   -3.5791   -3.9196 C   0  0  0  0  0  0  0  0  0  0  0  0
    3.8983   -2.2776   -4.3204 O   0  0  0  0  0  0  0  0  0  0  0  0
    3.0155   -1.6924   -3.3774 C   0  0  0  0  0  0  0  0  0  0  0  0
    3.7162   -1.5909   -2.0263 C   0  0  0  0  0  0  0  0  0  0  0  0
    3.9980   -2.1252    0.8683 C   0  0  1  0  0  0  0  0  0  0  0  0
    4.1780   -2.5133    2.3264 C   0  0  2  0  0  0  0  0  0  0  0  0
    1.7038   -4.3199    5.0035 H   0  0  0  0  0  0  0  0  0  0  0  0
    0.2025   -4.1292    3.9326 H   0  0  0  0  0  0  0  0  0  0  0  0
    1.3648   -2.6383    2.4628 H   0  0  0  0  0  0  0  0  0  0  0  0
    3.7474   -3.0333    4.3809 H   0  0  0  0  0  0  0  0  0  0  0  0
    2.7705   -0.6995    2.8879 H   0  0  0  0  0  0  0  0  0  0  0  0
    4.5721    0.6612    2.5727 H   0  0  0  0  0  0  0  0  0  0  0  0
    5.7698   -0.6257    2.6801 H   0  0  0  0  0  0  0  0  0  0  0  0
    3.7575   -0.0254    0.4638 H   0  0  0  0  0  0  0  0  0  0  0  0
    8.0012   -1.6194    0.3361 H   0  0  0  0  0  0  0  0  0  0  0  0
    6.9130   -2.1679    1.5929 H   0  0  0  0  0  0  0  0  0  0  0  0
    8.0242   -3.8559   -0.6854 H   0  0  0  0  0  0  0  0  0  0  0  0
    8.4496   -3.9847    1.0161 H   0  0  0  0  0  0  0  0  0  0  0  0
    7.7718   -6.3540    1.1423 H   0  0  0  0  0  0  0  0  0  0  0  0
    5.9082   -7.9818    1.3601 H   0  0  0  0  0  0  0  0  0  0  0  0
    3.5951   -7.3078    0.7616 H   0  0  0  0  0  0  0  0  0  0  0  0
    3.1202   -4.9742    0.0488 H   0  0  0  0  0  0  0  0  0  0  0  0
    5.9520   -2.9661   -2.6973 H   0  0  0  0  0  0  0  0  0  0  0  0
    5.2862   -4.5342   -2.2943 H   0  0  0  0  0  0  0  0  0  0  0  0
    4.9885   -3.9743   -4.6709 H   0  0  0  0  0  0  0  0  0  0  0  0
    3.4434   -4.2456   -3.8992 H   0  0  0  0  0  0  0  0  0  0  0  0
    2.7361   -0.6948   -3.7131 H   0  0  0  0  0  0  0  0  0  0  0  0
    2.0949   -2.2741   -3.3030 H   0  0  0  0  0  0  0  0  0  0  0  0
    3.0029   -1.1552   -1.3316 H   0  0  0  0  0  0  0  0  0  0  0  0
    4.5380   -0.8836   -2.1262 H   0  0  0  0  0  0  0  0  0  0  0  0
    2.9295   -2.1958    0.6374 H   0  0  0  0  0  0  0  0  0  0  0  0
    5.1718   -2.8996    2.5451 H   0  0  0  0  0  0  0  0  0  0  0  0
  1  2  2  0
  1 26  1  0
  1 27  1  0
  2  3  1  0
  2 28  1  0
  3 25  1  0
  3  4  1  0
  3 29  1  1
  4 25  1  0
  4  5  1  0
  4 30  1  6
  5  6  1  0
  5 31  1  0
  5 32  1  0
  6 24  1  0
  6  7  1  0
  6 33  1  6
  7  8  1  0
  8 17  1  0
  8  9  1  0
  9 10  1  0
  9 34  1  0
  9 35  1  0
 10 11  1  0
 10 36  1  0
 10 37  1  0
 11 16  2  0
 11 12  1  0
 12 13  2  0
 12 38  1  0
 13 14  1  0
 13 39  1  0
 14 15  2  0
 14 40  1  0
 15 16  1  0
 15 41  1  0
 16 17  1  0
 17 18  1  6
 17 24  1  0
 18 23  1  0
 18 19  1  0
 19 20  1  0
 19 42  1  0
 19 43  1  0
 20 21  1  0
 20 44  1  0
 20 45  1  0
 21 22  1  0
 22 23  1  0
 22 46  1  0
 22 47  1  0
 23 48  1  0
 23 49  1  0
 24 25  1  0
 24 50  1  6
 25 51  1  6
M  END
>  <i_m_ct_stereo_status>  (383) 
1

>  <s_m_source_file>  (383) 
/var/tmp/pbs.5102103.sched01/tmpr2ljwd0b/132iqlgd2x9.sdf

>  <i_m_source_file_index>  (383) 
17

>  <i_lp_mmshare_version>  (383) 
48012

>  <i_f3d_flags>  (383) 
0

>  <s_epik_input>  (383) 
W0NIMl09W0NIXVtDQEBIXTFbQ0BASF0oW0NIMl0yKVtDQEBIXTFbQ0BIXTNbQ0BASF0yT04oW0NAXTM0TjVbQ0gyXVtDSDJdT1tDSDJdW0NIMl01KVtDSDJdW0NIMl1jNmM0W2NIXVtjSF1bY0hdW2NIXTY=

>  <s_epik_cmdline>  (383) 
J2VwaWtfcHl0aG9uJywgJy1waHQnLCAnMi4wJywgJy1waCcsICc3LjAnLCAnLXRuJywgJzgnLCAnLW1hJywgJzIwMCcsICctaW1hZScsICc8aW5maWxlLm1hZT4nLCAnLW9tYWUnLCAnPG91dGZpbGUubWFlPic=

>  <r_epik_Ionization_Penalty>  (383) 
0.849794

>  <r_epik_Ionization_Penalty_Charging>  (383) 
0

>  <r_epik_Ionization_Penalty_Neutral>  (383) 
0.849794

>  <r_epik_State_Penalty>  (383) 
0.884429

>  <r_epik_Charging_Adjusted_Penalty>  (383) 
0.884429

>  <i_epik_Tot_Q>  (383) 
0

>  <i_epik_Tot_abs_Q>  (383) 
0

>  <s_epik_Chemistry_Notes>  (383) 
This compound has a N-S or N-O group and may undergo hydrolysis at high or low pH.

>  <s_lp_Force_Field>  (383) 
OPLS3e

>  <r_lp_Energy>  (383) 
75.3374

>  <b_lp_Chiralities_Consistent>  (383) 
1

>  <s_lp_Variant>  (383) 
94:0-2

>  <s_i_glide_gridfile>  (383) 
pfpi4k_grid

>  <i_i_glide_lignum>  (383) 
17

>  <i_i_glide_rotatable_bonds>  (383) 
2

>  <r_i_docking_score>  (383) 
-4.52183

>  <r_i_glide_ligand_efficiency>  (383) 
-0.180873

>  <r_i_glide_ligand_efficiency_sa>  (383) 
-0.528876

>  <r_i_glide_ligand_efficiency_ln>  (383) 
-1.07181

>  <r_i_glide_gscore>  (383) 
-4.52183

>  <r_i_glide_lipo>  (383) 
-1.26459

>  <r_i_glide_hbond>  (383) 
-0.32

>  <r_i_glide_metal>  (383) 
-0

>  <r_i_glide_rewards>  (383) 
-1.11428

>  <r_i_glide_evdw>  (383) 
-31.689

>  <r_i_glide_ecoul>  (383) 
-3.64621

>  <r_i_glide_erotb>  (383) 
0.330215

>  <r_i_glide_esite>  (383) 
-0.0217965

>  <r_i_glide_emodel>  (383) 
-45.0089

>  <r_i_glide_energy>  (383) 
-35.3352

>  <r_i_glide_einternal>  (383) 
0.00899198

>  <r_i_glide_intrahb_reward>  (383) 
-0

>  <i_i_glide_confnum>  (383) 
1

>  <i_i_glide_posenum>  (383) 
12

>  <r_i_glide_eff_state_penalty>  (383) 
0

>  <ligand_id>  (383) 
94

>  <original_smiles>  (383) 
C=CC1C2CC3ON4CCc5ccccc5C4(N4CCOCC4)C3C12

>  <smiles>  (383) 
[H]C([H])=C([H])C1([H])C2([H])C([H])([H])C3([H])ON4C([H])([H])C([H])([H])c5c([H])c([H])c([H])c([H])c5C4(N4C([H])([H])C([H])([H])OC([H])([H])C4([H])[H])C3([H])C12[H]

$$$$
94:1:1
     RDKit          3D

 51 56  0  0  1  0  0  0  0  0999 V2000
    0.0440   -1.9021    4.6928 C   0  0  0  0  0  0  0  0  0  0  0  0
    0.5971   -3.1024    4.4442 C   0  0  0  0  0  0  0  0  0  0  0  0
    1.9081   -3.5903    4.9374 C   0  0  2  0  0  0  0  0  0  0  0  0
    3.1103   -2.6592    5.0556 C   0  0  2  0  0  0  0  0  0  0  0  0
    4.5822   -2.4939    4.7627 C   0  0  0  0  0  0  0  0  0  0  0  0
    4.6211   -2.3631    3.2299 C   0  0  1  0  0  0  0  0  0  0  0  0
    5.8126   -2.8733    2.6574 O   0  0  0  0  0  0  0  0  0  0  0  0
    5.5248   -4.1157    1.9605 N   0  0  0  0  0  0  0  0  0  0  0  0
    6.0049   -5.1657    2.8505 C   0  0  0  0  0  0  0  0  0  0  0  0
    5.6846   -6.5406    2.2633 C   0  0  0  0  0  0  0  0  0  0  0  0
    4.2078   -6.6815    1.9742 C   0  0  0  0  0  0  0  0  0  0  0  0
    3.5999   -7.9534    2.0060 C   0  0  0  0  0  0  0  0  0  0  0  0
    2.2342   -8.0880    1.6837 C   0  0  0  0  0  0  0  0  0  0  0  0
    1.4888   -6.9580    1.2926 C   0  0  0  0  0  0  0  0  0  0  0  0
    2.1017   -5.6898    1.2740 C   0  0  0  0  0  0  0  0  0  0  0  0
    3.4541   -5.5297    1.6401 C   0  0  0  0  0  0  0  0  0  0  0  0
    4.0855   -4.1155    1.6327 C   0  0  2  0  0  0  0  0  0  0  0  0
    3.9386   -3.5320    0.2669 N   0  0  0  0  0  0  0  0  0  0  0  0
    4.6482   -4.2939   -0.7688 C   0  0  0  0  0  0  0  0  0  0  0  0
    4.4729   -3.7005   -2.1770 C   0  0  0  0  0  0  0  0  0  0  0  0
    4.8664   -2.3343   -2.1938 O   0  0  0  0  0  0  0  0  0  0  0  0
    4.1079   -1.5613   -1.2752 C   0  0  0  0  0  0  0  0  0  0  0  0
    4.3100   -2.1135    0.1378 C   0  0  0  0  0  0  0  0  0  0  0  0
    3.4666   -3.2057    2.7257 C   0  0  1  0  0  0  0  0  0  0  0  0
    2.9977   -3.8417    4.0150 C   0  0  2  0  0  0  0  0  0  0  0  0
    0.5504   -1.1677    5.3053 H   0  0  0  0  0  0  0  0  0  0  0  0
   -0.9198   -1.6392    4.2815 H   0  0  0  0  0  0  0  0  0  0  0  0
    0.0573   -3.8065    3.8280 H   0  0  0  0  0  0  0  0  0  0  0  0
    1.7728   -4.3392    5.7121 H   0  0  0  0  0  0  0  0  0  0  0  0
    2.7125   -1.6630    4.8712 H   0  0  0  0  0  0  0  0  0  0  0  0
    4.9748   -1.5912    5.2336 H   0  0  0  0  0  0  0  0  0  0  0  0
    5.1689   -3.3388    5.1322 H   0  0  0  0  0  0  0  0  0  0  0  0
    4.4989   -1.3216    2.9299 H   0  0  0  0  0  0  0  0  0  0  0  0
    7.0864   -5.0611    2.9575 H   0  0  0  0  0  0  0  0  0  0  0  0
    5.5720   -5.0718    3.8429 H   0  0  0  0  0  0  0  0  0  0  0  0
    6.2428   -6.6832    1.3371 H   0  0  0  0  0  0  0  0  0  0  0  0
    6.0025   -7.3183    2.9567 H   0  0  0  0  0  0  0  0  0  0  0  0
    4.1807   -8.8284    2.2562 H   0  0  0  0  0  0  0  0  0  0  0  0
    1.7686   -9.0646    1.6973 H   0  0  0  0  0  0  0  0  0  0  0  0
    0.4558   -7.0773    1.0008 H   0  0  0  0  0  0  0  0  0  0  0  0
    1.5559   -4.8213    0.9557 H   0  0  0  0  0  0  0  0  0  0  0  0
    5.7174   -4.3237   -0.5561 H   0  0  0  0  0  0  0  0  0  0  0  0
    4.3103   -5.3316   -0.7840 H   0  0  0  0  0  0  0  0  0  0  0  0
    5.0791   -4.2583   -2.8901 H   0  0  0  0  0  0  0  0  0  0  0  0
    3.4357   -3.7930   -2.4981 H   0  0  0  0  0  0  0  0  0  0  0  0
    4.4549   -0.5302   -1.3035 H   0  0  0  0  0  0  0  0  0  0  0  0
    3.0500   -1.5592   -1.5406 H   0  0  0  0  0  0  0  0  0  0  0  0
    3.7066   -1.4906    0.7948 H   0  0  0  0  0  0  0  0  0  0  0  0
    5.3555   -1.9702    0.4092 H   0  0  0  0  0  0  0  0  0  0  0  0
    2.6361   -2.6090    2.3402 H   0  0  0  0  0  0  0  0  0  0  0  0
    3.5149   -4.7686    4.2473 H   0  0  0  0  0  0  0  0  0  0  0  0
  1  2  2  0
  1 26  1  0
  1 27  1  0
  2  3  1  0
  2 28  1  0
  3 25  1  0
  3  4  1  0
  3 29  1  1
  4 25  1  0
  4  5  1  0
  4 30  1  6
  5  6  1  0
  5 31  1  0
  5 32  1  0
  6 24  1  0
  6  7  1  0
  6 33  1  1
  7  8  1  0
  8 17  1  0
  8  9  1  0
  9 10  1  0
  9 34  1  0
  9 35  1  0
 10 11  1  0
 10 36  1  0
 10 37  1  0
 11 16  2  0
 11 12  1  0
 12 13  2  0
 12 38  1  0
 13 14  1  0
 13 39  1  0
 14 15  2  0
 14 40  1  0
 15 16  1  0
 15 41  1  0
 16 17  1  0
 17 18  1  6
 17 24  1  0
 18 23  1  0
 18 19  1  0
 19 20  1  0
 19 42  1  0
 19 43  1  0
 20 21  1  0
 20 44  1  0
 20 45  1  0
 21 22  1  0
 22 23  1  0
 22 46  1  0
 22 47  1  0
 23 48  1  0
 23 49  1  0
 24 25  1  0
 24 50  1  6
 25 51  1  1
M  END
>  <i_m_ct_stereo_status>  (384) 
1

>  <s_m_source_file>  (384) 
/var/tmp/pbs.5102103.sched01/tmpr2ljwd0b/132iqlgd2x9.sdf

>  <i_m_source_file_index>  (384) 
17

>  <i_lp_mmshare_version>  (384) 
48012

>  <i_f3d_flags>  (384) 
0

>  <s_epik_input>  (384) 
W0NIMl09W0NIXVtDQEBIXTFbQ0BASF0oW0NIMl0yKVtDQEBIXTFbQ0BIXTNbQ0BASF0yT04oW0NAXTM0TjVbQ0gyXVtDSDJdT1tDSDJdW0NIMl01KVtDSDJdW0NIMl1jNmM0W2NIXVtjSF1bY0hdW2NIXTY=

>  <s_epik_cmdline>  (384) 
J2VwaWtfcHl0aG9uJywgJy1waHQnLCAnMi4wJywgJy1waCcsICc3LjAnLCAnLXRuJywgJzgnLCAnLW1hJywgJzIwMCcsICctaW1hZScsICc8aW5maWxlLm1hZT4nLCAnLW9tYWUnLCAnPG91dGZpbGUubWFlPic=

>  <r_epik_Ionization_Penalty>  (384) 
0.849794

>  <r_epik_Ionization_Penalty_Charging>  (384) 
0

>  <r_epik_Ionization_Penalty_Neutral>  (384) 
0.849794

>  <r_epik_State_Penalty>  (384) 
0.884429

>  <r_epik_Charging_Adjusted_Penalty>  (384) 
0.884429

>  <i_epik_Tot_Q>  (384) 
0

>  <i_epik_Tot_abs_Q>  (384) 
0

>  <s_epik_Chemistry_Notes>  (384) 
This compound has a N-S or N-O group and may undergo hydrolysis at high or low pH.

>  <s_lp_Force_Field>  (384) 
OPLS3e

>  <r_lp_Energy>  (384) 
75.3374

>  <b_lp_Chiralities_Consistent>  (384) 
1

>  <s_lp_Variant>  (384) 
94:0-2

>  <s_i_glide_gridfile>  (384) 
pfpi4k_grid

>  <i_i_glide_lignum>  (384) 
17

>  <i_i_glide_rotatable_bonds>  (384) 
2

>  <r_i_docking_score>  (384) 
-2.33294

>  <r_i_glide_ligand_efficiency>  (384) 
-0.0933175

>  <r_i_glide_ligand_efficiency_sa>  (384) 
-0.272862

>  <r_i_glide_ligand_efficiency_ln>  (384) 
-0.552976

>  <r_i_glide_gscore>  (384) 
-2.33294

>  <r_i_glide_lipo>  (384) 
-0.164616

>  <r_i_glide_hbond>  (384) 
0

>  <r_i_glide_metal>  (384) 
-0

>  <r_i_glide_rewards>  (384) 
-1.16796

>  <r_i_glide_evdw>  (384) 
-20.6108

>  <r_i_glide_ecoul>  (384) 
-2.0002

>  <r_i_glide_erotb>  (384) 
0.330215

>  <r_i_glide_esite>  (384) 
0

>  <r_i_glide_emodel>  (384) 
-26.7111

>  <r_i_glide_energy>  (384) 
-22.611

>  <r_i_glide_einternal>  (384) 
1.19137

>  <r_i_glide_intrahb_reward>  (384) 
-0

>  <i_i_glide_confnum>  (384) 
2

>  <i_i_glide_posenum>  (384) 
6

>  <r_i_glide_eff_state_penalty>  (384) 
0

>  <ligand_id>  (384) 
94

>  <original_smiles>  (384) 
C=CC1C2CC3ON4CCc5ccccc5C4(N4CCOCC4)C3C12

>  <smiles>  (384) 
[H]C([H])=C([H])C1([H])C2([H])C([H])([H])C3([H])ON4C([H])([H])C([H])([H])c5c([H])c([H])c([H])c([H])c5C4(N4C([H])([H])C([H])([H])OC([H])([H])C4([H])[H])C3([H])C12[H]

$$$$
94:1:2
     RDKit          3D

 51 56  0  0  1  0  0  0  0  0999 V2000
    0.2124   -6.7623    9.6371 C   0  0  0  0  0  0  0  0  0  0  0  0
    0.0154   -7.3271    8.4341 C   0  0  0  0  0  0  0  0  0  0  0  0
    0.5583   -8.6396    7.9957 C   0  0  2  0  0  0  0  0  0  0  0  0
    2.0281   -8.9877    8.1910 C   0  0  2  0  0  0  0  0  0  0  0  0
    3.2613   -9.5751    7.5320 C   0  0  0  0  0  0  0  0  0  0  0  0
    3.6633   -8.5061    6.4984 C   0  0  1  0  0  0  0  0  0  0  0  0
    4.2891   -9.0426    5.3423 O   0  0  0  0  0  0  0  0  0  0  0  0
    3.3747   -8.9310    4.2143 N   0  0  0  0  0  0  0  0  0  0  0  0
    2.8616  -10.2824    4.0396 C   0  0  0  0  0  0  0  0  0  0  0  0
    1.8131  -10.3029    2.9296 C   0  0  0  0  0  0  0  0  0  0  0  0
    0.7047   -9.3086    3.1967 C   0  0  0  0  0  0  0  0  0  0  0  0
   -0.5845   -9.5355    2.6758 C   0  0  0  0  0  0  0  0  0  0  0  0
   -1.6025   -8.5897    2.8679 C   0  0  0  0  0  0  0  0  0  0  0  0
   -1.3350   -7.4018    3.5683 C   0  0  0  0  0  0  0  0  0  0  0  0
   -0.0480   -7.1707    4.0976 C   0  0  0  0  0  0  0  0  0  0  0  0
    0.9771   -8.1350    3.9402 C   0  0  0  0  0  0  0  0  0  0  0  0
    2.3840   -7.8766    4.5321 C   0  0  2  0  0  0  0  0  0  0  0  0
    2.8913   -6.5874    3.9629 N   0  0  0  0  0  0  0  0  0  0  0  0
    2.9910   -6.5968    2.4954 C   0  0  0  0  0  0  0  0  0  0  0  0
    3.4850   -5.2600    1.9243 C   0  0  0  0  0  0  0  0  0  0  0  0
    4.7292   -4.9050    2.5148 O   0  0  0  0  0  0  0  0  0  0  0  0
    4.6370   -4.7932    3.9273 C   0  0  0  0  0  0  0  0  0  0  0  0
    4.1716   -6.1247    4.5172 C   0  0  0  0  0  0  0  0  0  0  0  0
    2.3556   -7.8622    6.0779 C   0  0  1  0  0  0  0  0  0  0  0  0
    1.3515   -8.7496    6.7891 C   0  0  2  0  0  0  0  0  0  0  0  0
    0.8021   -7.2535   10.3991 H   0  0  0  0  0  0  0  0  0  0  0  0
   -0.2119   -5.7933    9.8711 H   0  0  0  0  0  0  0  0  0  0  0  0
   -0.5819   -6.7960    7.7042 H   0  0  0  0  0  0  0  0  0  0  0  0
   -0.1733   -9.4328    8.1405 H   0  0  0  0  0  0  0  0  0  0  0  0
    2.4249   -8.1829    8.8145 H   0  0  0  0  0  0  0  0  0  0  0  0
    4.0607   -9.7232    8.2572 H   0  0  0  0  0  0  0  0  0  0  0  0
    3.0526  -10.5435    7.0733 H   0  0  0  0  0  0  0  0  0  0  0  0
    4.3187   -7.7623    6.9552 H   0  0  0  0  0  0  0  0  0  0  0  0
    3.6922  -10.9381    3.7751 H   0  0  0  0  0  0  0  0  0  0  0  0
    2.4321  -10.6669    4.9607 H   0  0  0  0  0  0  0  0  0  0  0  0
    2.2794  -10.0569    1.9759 H   0  0  0  0  0  0  0  0  0  0  0  0
    1.3999  -11.3067    2.8427 H   0  0  0  0  0  0  0  0  0  0  0  0
   -0.7834  -10.4353    2.1103 H   0  0  0  0  0  0  0  0  0  0  0  0
   -2.5863   -8.7845    2.4672 H   0  0  0  0  0  0  0  0  0  0  0  0
   -2.1142   -6.6676    3.6967 H   0  0  0  0  0  0  0  0  0  0  0  0
    0.1613   -6.2459    4.6148 H   0  0  0  0  0  0  0  0  0  0  0  0
    3.6734   -7.3828    2.1720 H   0  0  0  0  0  0  0  0  0  0  0  0
    2.0254   -6.8168    2.0364 H   0  0  0  0  0  0  0  0  0  0  0  0
    3.6194   -5.3463    0.8458 H   0  0  0  0  0  0  0  0  0  0  0  0
    2.7550   -4.4675    2.0977 H   0  0  0  0  0  0  0  0  0  0  0  0
    5.6198   -4.5500    4.3316 H   0  0  0  0  0  0  0  0  0  0  0  0
    3.9604   -3.9849    4.2071 H   0  0  0  0  0  0  0  0  0  0  0  0
    4.0988   -5.9814    5.5948 H   0  0  0  0  0  0  0  0  0  0  0  0
    4.9521   -6.8630    4.3354 H   0  0  0  0  0  0  0  0  0  0  0  0
    2.2285   -6.8488    6.4702 H   0  0  0  0  0  0  0  0  0  0  0  0
    1.0691   -9.6254    6.2073 H   0  0  0  0  0  0  0  0  0  0  0  0
  1  2  2  0
  1 26  1  0
  1 27  1  0
  2  3  1  0
  2 28  1  0
  3 25  1  0
  3  4  1  0
  3 29  1  6
  4 25  1  0
  4  5  1  0
  4 30  1  1
  5  6  1  0
  5 31  1  0
  5 32  1  0
  6 24  1  0
  6  7  1  0
  6 33  1  1
  7  8  1  0
  8 17  1  0
  8  9  1  0
  9 10  1  0
  9 34  1  0
  9 35  1  0
 10 11  1  0
 10 36  1  0
 10 37  1  0
 11 16  2  0
 11 12  1  0
 12 13  2  0
 12 38  1  0
 13 14  1  0
 13 39  1  0
 14 15  2  0
 14 40  1  0
 15 16  1  0
 15 41  1  0
 16 17  1  0
 17 18  1  6
 17 24  1  0
 18 23  1  0
 18 19  1  0
 19 20  1  0
 19 42  1  0
 19 43  1  0
 20 21  1  0
 20 44  1  0
 20 45  1  0
 21 22  1  0
 22 23  1  0
 22 46  1  0
 22 47  1  0
 23 48  1  0
 23 49  1  0
 24 25  1  0
 24 50  1  6
 25 51  1  6
M  END
>  <i_m_ct_stereo_status>  (385) 
1

>  <s_m_source_file>  (385) 
/var/tmp/pbs.5102103.sched01/tmpr2ljwd0b/132iqlgd2x9.sdf

>  <i_m_source_file_index>  (385) 
17

>  <i_lp_mmshare_version>  (385) 
48012

>  <i_f3d_flags>  (385) 
0

>  <s_epik_input>  (385) 
W0NIMl09W0NIXVtDQEBIXTFbQ0BASF0oW0NIMl0yKVtDQEBIXTFbQ0BIXTNbQ0BASF0yT04oW0NAXTM0TjVbQ0gyXVtDSDJdT1tDSDJdW0NIMl01KVtDSDJdW0NIMl1jNmM0W2NIXVtjSF1bY0hdW2NIXTY=

>  <s_epik_cmdline>  (385) 
J2VwaWtfcHl0aG9uJywgJy1waHQnLCAnMi4wJywgJy1waCcsICc3LjAnLCAnLXRuJywgJzgnLCAnLW1hJywgJzIwMCcsICctaW1hZScsICc8aW5maWxlLm1hZT4nLCAnLW9tYWUnLCAnPG91dGZpbGUubWFlPic=

>  <r_epik_Ionization_Penalty>  (385) 
0.849794

>  <r_epik_Ionization_Penalty_Charging>  (385) 
0

>  <r_epik_Ionization_Penalty_Neutral>  (385) 
0.849794

>  <r_epik_State_Penalty>  (385) 
0.884429

>  <r_epik_Charging_Adjusted_Penalty>  (385) 
0.884429

>  <i_epik_Tot_Q>  (385) 
0

>  <i_epik_Tot_abs_Q>  (385) 
0

>  <s_epik_Chemistry_Notes>  (385) 
This compound has a N-S or N-O group and may undergo hydrolysis at high or low pH.

>  <s_lp_Force_Field>  (385) 
OPLS3e

>  <r_lp_Energy>  (385) 
75.3374

>  <b_lp_Chiralities_Consistent>  (385) 
1

>  <s_lp_Variant>  (385) 
94:0-2

>  <s_i_glide_gridfile>  (385) 
pfpi4k_grid

>  <i_i_glide_lignum>  (385) 
17

>  <i_i_glide_rotatable_bonds>  (385) 
2

>  <r_i_docking_score>  (385) 
-2.10123

>  <r_i_glide_ligand_efficiency>  (385) 
-0.0840491

>  <r_i_glide_ligand_efficiency_sa>  (385) 
-0.245761

>  <r_i_glide_ligand_efficiency_ln>  (385) 
-0.498054

>  <r_i_glide_gscore>  (385) 
-2.10123

>  <r_i_glide_lipo>  (385) 
-0.126096

>  <r_i_glide_hbond>  (385) 
0

>  <r_i_glide_metal>  (385) 
-0

>  <r_i_glide_rewards>  (385) 
-1.10152

>  <r_i_glide_evdw>  (385) 
-22.0089

>  <r_i_glide_ecoul>  (385) 
-0.649434

>  <r_i_glide_erotb>  (385) 
0.330215

>  <r_i_glide_esite>  (385) 
-0.00596544

>  <r_i_glide_emodel>  (385) 
-26.4891

>  <r_i_glide_energy>  (385) 
-22.6583

>  <r_i_glide_einternal>  (385) 
1.02646

>  <r_i_glide_intrahb_reward>  (385) 
-0

>  <i_i_glide_confnum>  (385) 
2

>  <i_i_glide_posenum>  (385) 
3

>  <r_i_glide_eff_state_penalty>  (385) 
0

>  <ligand_id>  (385) 
94

>  <original_smiles>  (385) 
C=CC1C2CC3ON4CCc5ccccc5C4(N4CCOCC4)C3C12

>  <smiles>  (385) 
[H]C([H])=C([H])C1([H])C2([H])C([H])([H])C3([H])ON4C([H])([H])C([H])([H])c5c([H])c([H])c([H])c([H])c5C4(N4C([H])([H])C([H])([H])OC([H])([H])C4([H])[H])C3([H])C12[H]

$$$$
95:0:0
     RDKit          3D

 66 72  0  0  1  0  0  0  0  0999 V2000
    4.7649   -4.1358    1.3024 O   0  0  0  0  0  0  0  0  0  0  0  0
    5.7975   -4.5786    0.8063 C   0  0  0  0  0  0  0  0  0  0  0  0
    6.6314   -3.6514   -0.0965 C   0  0  0  0  0  0  0  0  0  0  0  0
    5.7490   -3.0252   -1.1792 C   0  0  0  0  0  0  0  0  0  0  0  0
    5.0073   -3.8242   -2.0786 C   0  0  0  0  0  0  0  0  0  0  0  0
    4.2161   -3.1995   -3.0625 C   0  0  0  0  0  0  0  0  0  0  0  0
    4.1844   -1.7950   -3.1012 C   0  0  0  0  0  0  0  0  0  0  0  0
    4.9374   -1.0863   -2.1508 C   0  0  0  0  0  0  0  0  0  0  0  0
    5.7236   -1.6733   -1.2224 N   0  0  0  0  0  0  0  0  0  0  0  0
    6.2285   -5.8501    0.9622 N   0  0  0  0  0  0  0  0  0  0  0  0
    5.5431   -7.0178    1.5538 C   0  0  2  0  0  0  0  0  0  0  0  0
    4.4612   -7.5659    0.5755 C   0  0  0  0  0  0  0  0  0  0  0  0
    3.3059   -8.4218    1.1809 C   0  0  0  0  0  0  0  0  0  0  0  0
    3.6691   -9.0013    2.5544 C   0  0  2  0  0  0  0  0  0  0  0  0
    4.7847   -9.8481    2.2993 O   0  0  0  0  0  0  0  0  0  0  0  0
    2.6219   -9.8810    3.3013 C   0  0  1  0  0  0  0  0  0  0  0  0
    3.1579  -10.3977    4.6762 C   0  0  0  0  0  0  0  0  0  0  0  0
    4.2485   -9.5663    5.3770 C   0  0  0  0  0  0  0  0  0  0  0  0
    5.0280   -9.9411    6.4840 C   0  0  0  0  0  0  0  0  0  0  0  0
    6.1704   -9.1725    6.8211 C   0  0  0  0  0  0  0  0  0  0  0  0
    6.5707   -8.0693    6.0179 C   0  0  0  0  0  0  0  0  0  0  0  0
    7.7142   -7.3850    6.3165 O   0  0  0  0  0  0  0  0  0  0  0  0
    5.8096   -7.6790    4.9138 C   0  0  0  0  0  0  0  0  0  0  0  0
    4.6520   -8.4043    4.6912 C   0  0  0  0  0  0  0  0  0  0  0  0
    3.9904   -7.8263    3.5007 C   0  0  2  0  0  0  0  0  0  0  0  0
    2.6801   -7.0587    3.8719 C   0  0  0  0  0  0  0  0  0  0  0  0
    1.5490   -7.9354    4.4053 C   0  0  0  0  0  0  0  0  0  0  0  0
    1.3572   -9.1200    3.5221 N   0  0  2  0  0  0  0  0  0  0  0  0
    0.1882   -9.9603    3.8919 C   0  0  0  0  0  0  0  0  0  0  0  0
   -1.0846   -9.2807    3.4561 C   0  0  0  0  0  0  0  0  0  0  0  0
   -1.8079   -9.7905    2.2290 C   0  0  0  0  0  0  0  0  0  0  0  0
   -1.2073   -8.4173    2.2080 C   0  0  0  0  0  0  0  0  0  0  0  0
    5.0131   -6.7621    2.9947 C   0  0  1  0  0  0  0  0  0  0  0  0
    6.0615   -6.7147    3.9750 O   0  0  0  0  0  0  0  0  0  0  0  0
    7.1344   -2.8721    0.5008 H   0  0  0  0  0  0  0  0  0  0  0  0
    7.4207   -4.2142   -0.5944 H   0  0  0  0  0  0  0  0  0  0  0  0
    5.0173   -4.9023   -2.0302 H   0  0  0  0  0  0  0  0  0  0  0  0
    3.6454   -3.7792   -3.7768 H   0  0  0  0  0  0  0  0  0  0  0  0
    3.5888   -1.2595   -3.8261 H   0  0  0  0  0  0  0  0  0  0  0  0
    4.9447   -0.0107   -2.1635 H   0  0  0  0  0  0  0  0  0  0  0  0
    7.1470   -6.0501    0.6025 H   0  0  0  0  0  0  0  0  0  0  0  0
    6.3136   -7.8031    1.6409 H   0  0  0  0  0  0  0  0  0  0  0  0
    4.0594   -6.7604   -0.0448 H   0  0  0  0  0  0  0  0  0  0  0  0
    4.9738   -8.1967   -0.1376 H   0  0  0  0  0  0  0  0  0  0  0  0
    2.4114   -7.7978    1.2355 H   0  0  0  0  0  0  0  0  0  0  0  0
    3.0731   -9.2523    0.5136 H   0  0  0  0  0  0  0  0  0  0  0  0
    4.5238  -10.5525    1.7155 H   0  0  0  0  0  0  0  0  0  0  0  0
    2.3562  -10.7254    2.6744 H   0  0  0  0  0  0  0  0  0  0  0  0
    2.3482  -10.6000    5.3738 H   0  0  0  0  0  0  0  0  0  0  0  0
    3.6139  -11.3550    4.4574 H   0  0  0  0  0  0  0  0  0  0  0  0
    4.7925  -10.8542    7.0403 H   0  0  0  0  0  0  0  0  0  0  0  0
    6.7804   -9.4559    7.6538 H   0  0  0  0  0  0  0  0  0  0  0  0
    7.8813   -6.6970    5.6868 H   0  0  0  0  0  0  0  0  0  0  0  0
    2.8783   -6.2790    4.6020 H   0  0  0  0  0  0  0  0  0  0  0  0
    2.3202   -6.5195    2.9930 H   0  0  0  0  0  0  0  0  0  0  0  0
    1.7634   -8.2398    5.4261 H   0  0  0  0  0  0  0  0  0  0  0  0
    0.6239   -7.3711    4.4355 H   0  0  0  0  0  0  0  0  0  0  0  0
    0.2417  -10.9395    3.4317 H   0  0  0  0  0  0  0  0  0  0  0  0
    0.1441  -10.1382    4.9669 H   0  0  0  0  0  0  0  0  0  0  0  0
   -1.7323   -9.0496    4.2941 H   0  0  0  0  0  0  0  0  0  0  0  0
   -1.3225  -10.5873    1.6793 H   0  0  0  0  0  0  0  0  0  0  0  0
   -2.8971   -9.8247    2.2343 H   0  0  0  0  0  0  0  0  0  0  0  0
   -1.8909   -7.5677    2.2979 H   0  0  0  0  0  0  0  0  0  0  0  0
   -0.3270   -8.2623    1.5865 H   0  0  0  0  0  0  0  0  0  0  0  0
    4.5225   -5.7927    3.0650 H   0  0  0  0  0  0  0  0  0  0  0  0
    1.1063   -8.7701    2.6048 H   0  0  0  0  0  0  0  0  0  0  0  0
  1  2  2  0
  2  3  1  0
  2 10  1  0
  3  4  1  0
  3 35  1  0
  3 36  1  0
  4  9  1  0
  4  5  2  0
  5  6  1  0
  5 37  1  0
  6  7  2  0
  6 38  1  0
  7  8  1  0
  7 39  1  0
  8  9  2  0
  8 40  1  0
 10 11  1  0
 10 41  1  0
 11 33  1  0
 11 12  1  0
 11 42  1  1
 12 13  1  0
 12 43  1  0
 12 44  1  0
 13 14  1  0
 13 45  1  0
 13 46  1  0
 14 25  1  0
 14 15  1  6
 14 16  1  0
 15 47  1  0
 16 28  1  0
 16 17  1  0
 16 48  1  6
 17 18  1  0
 17 49  1  0
 17 50  1  0
 18 24  2  0
 18 19  1  0
 19 20  2  0
 19 51  1  0
 20 21  1  0
 20 52  1  0
 21 22  1  0
 21 23  2  0
 22 53  1  0
 23 34  1  0
 23 24  1  0
 24 25  1  0
 25 26  1  1
 25 33  1  0
 26 27  1  0
 26 54  1  0
 26 55  1  0
 27 28  1  0
 27 56  1  0
 27 57  1  0
 28 29  1  0
 28 66  1  6
 29 30  1  0
 29 58  1  0
 29 59  1  0
 30 32  1  0
 30 31  1  0
 30 60  1  0
 31 32  1  0
 31 61  1  0
 31 62  1  0
 32 63  1  0
 32 64  1  0
 33 34  1  0
 33 65  1  6
M  CHG  1  28   1
M  END
>  <i_m_ct_stereo_status>  (386) 
1

>  <s_m_source_file>  (386) 
/var/tmp/pbs.5102103.sched01/tmpr2ljwd0b/132iqlgd2x9.sdf

>  <i_m_source_file_index>  (386) 
18

>  <i_lp_mmshare_version>  (386) 
48012

>  <i_f3d_flags>  (386) 
0

>  <s_epik_input>  (386) 
bjFbY0hdW2NIXVtjSF1bY0hdYzFbQ0gyXUMoPU8pW05IXVtDQEhdKFtDSDJdW0NIMl0yKVtDQEBIXTNPYyhjKFtPSF0pW2NIXVtjSF00KWM1YzRbQ0gyXVtDQEhdKFtDQEBdMihbQ0BdMzU2KVtPSF0pTihbQ0gyXVtDSDJdNilbQ0gyXVtDSF03W0NIMl1bQ0gyXTc=

>  <s_epik_cmdline>  (386) 
J2VwaWtfcHl0aG9uJywgJy1waHQnLCAnMi4wJywgJy1waCcsICc3LjAnLCAnLXRuJywgJzgnLCAnLW1hJywgJzIwMCcsICctaW1hZScsICc8aW5maWxlLm1hZT4nLCAnLW9tYWUnLCAnPG91dGZpbGUubWFlPic=

>  <r_lp_tautomer_probability>  (386) 
1

>  <r_epik_Ionization_Penalty>  (386) 
0.0447933

>  <r_epik_Ionization_Penalty_Charging>  (386) 
0.0302699

>  <r_epik_Ionization_Penalty_Neutral>  (386) 
0.0145233

>  <r_epik_State_Penalty>  (386) 
0.033795

>  <r_epik_Charging_Adjusted_Penalty>  (386) 
0.064065

>  <i_epik_Tot_Q>  (386) 
1

>  <i_epik_Tot_abs_Q>  (386) 
1

>  <s_lp_Force_Field>  (386) 
OPLS3e

>  <r_lp_Energy>  (386) 
84.202

>  <b_lp_Chiralities_Consistent>  (386) 
1

>  <s_lp_Variant>  (386) 
95:0-1

>  <s_i_glide_gridfile>  (386) 
pfpi4k_grid

>  <i_i_glide_lignum>  (386) 
18

>  <i_i_glide_rotatable_bonds>  (386) 
8

>  <r_i_docking_score>  (386) 
-3.02767

>  <r_i_glide_ligand_efficiency>  (386) 
-0.0890492

>  <r_i_glide_ligand_efficiency_sa>  (386) 
-0.288485

>  <r_i_glide_ligand_efficiency_ln>  (386) 
-0.668898

>  <r_i_glide_gscore>  (386) 
-3.02767

>  <r_i_glide_lipo>  (386) 
-0.629094

>  <r_i_glide_hbond>  (386) 
-0.141439

>  <r_i_glide_metal>  (386) 
-0

>  <r_i_glide_rewards>  (386) 
-0.367641

>  <r_i_glide_evdw>  (386) 
-29.5736

>  <r_i_glide_ecoul>  (386) 
-5.78689

>  <r_i_glide_erotb>  (386) 
0.470758

>  <r_i_glide_esite>  (386) 
-0.013542

>  <r_i_glide_emodel>  (386) 
-39.2408

>  <r_i_glide_energy>  (386) 
-35.3605

>  <r_i_glide_einternal>  (386) 
8.53818

>  <r_i_glide_intrahb_reward>  (386) 
-0

>  <i_i_glide_confnum>  (386) 
3

>  <i_i_glide_posenum>  (386) 
30

>  <r_i_glide_eff_state_penalty>  (386) 
0

>  <ligand_id>  (386) 
95

>  <original_smiles>  (386) 
O=C(Cc1ccccn1)NC1CCC2(O)C3Cc4ccc(O)c5c4C2(CCN3CC2CC2)C1O5

>  <smiles>  (386) 
[H]Oc1c([H])c([H])c2c3c1OC1([H])C([H])(N([H])C(=O)C([H])([H])c4nc([H])c([H])c([H])c4[H])C([H])([H])C([H])([H])C4(O[H])C31C([H])([H])C([H])([H])[N+]([H])(C([H])([H])C1([H])C([H])([H])C1([H])[H])C4([H])C2([H])[H]

$$$$
95:0:1
     RDKit          3D

 66 72  0  0  1  0  0  0  0  0999 V2000
    5.5996   -4.9341    2.2756 O   0  0  0  0  0  0  0  0  0  0  0  0
    6.5988   -5.4083    1.7454 C   0  0  0  0  0  0  0  0  0  0  0  0
    7.5415   -4.4770    0.9533 C   0  0  0  0  0  0  0  0  0  0  0  0
    6.7562   -3.3684    0.2517 C   0  0  0  0  0  0  0  0  0  0  0  0
    5.9089   -3.6623   -0.8452 C   0  0  0  0  0  0  0  0  0  0  0  0
    5.2102   -2.6150   -1.4691 C   0  0  0  0  0  0  0  0  0  0  0  0
    5.3724   -1.3116   -0.9789 C   0  0  0  0  0  0  0  0  0  0  0  0
    6.2137   -1.1219    0.1433 C   0  0  0  0  0  0  0  0  0  0  0  0
    6.8982   -2.1155    0.7327 N   0  0  0  0  0  0  0  0  0  0  0  0
    6.9109   -6.7217    1.7623 N   0  0  0  0  0  0  0  0  0  0  0  0
    6.0642   -7.8788    2.1155 C   0  0  2  0  0  0  0  0  0  0  0  0
    5.1752   -8.3036    0.8979 C   0  0  0  0  0  0  0  0  0  0  0  0
    3.8722   -9.1072    1.1893 C   0  0  0  0  0  0  0  0  0  0  0  0
    3.9450   -9.8166    2.5550 C   0  0  2  0  0  0  0  0  0  0  0  0
    5.0503  -10.7028    2.4170 O   0  0  0  0  0  0  0  0  0  0  0  0
    2.7192  -10.6740    3.0106 C   0  0  1  0  0  0  0  0  0  0  0  0
    2.9487  -11.3368    4.4115 C   0  0  0  0  0  0  0  0  0  0  0  0
    3.9174  -10.6288    5.3783 C   0  0  0  0  0  0  0  0  0  0  0  0
    4.4346  -11.1172    6.5932 C   0  0  0  0  0  0  0  0  0  0  0  0
    5.5302  -10.4448    7.2089 C   0  0  0  0  0  0  0  0  0  0  0  0
    6.1392   -9.3379    6.6134 C   0  0  0  0  0  0  0  0  0  0  0  0
    7.2323   -8.7330    7.1584 O   0  0  0  0  0  0  0  0  0  0  0  0
    5.6318   -8.8035    5.3838 C   0  0  0  0  0  0  0  0  0  0  0  0
    4.5219   -9.4560    4.8906 C   0  0  0  0  0  0  0  0  0  0  0  0
    4.1374   -8.7438    3.6479 C   0  0  2  0  0  0  0  0  0  0  0  0
    2.8270   -7.9212    3.8380 C   0  0  0  0  0  0  0  0  0  0  0  0
    1.5731   -8.7477    4.0937 C   0  0  0  0  0  0  0  0  0  0  0  0
    1.4778   -9.8344    3.0623 N   0  0  2  0  0  0  0  0  0  0  0  0
    0.2001  -10.5899    3.1213 C   0  0  0  0  0  0  0  0  0  0  0  0
   -0.9784   -9.8043    2.5827 C   0  0  0  0  0  0  0  0  0  0  0  0
   -0.8812   -8.3572    2.0945 C   0  0  0  0  0  0  0  0  0  0  0  0
   -1.5893   -8.6569    3.3804 C   0  0  0  0  0  0  0  0  0  0  0  0
    5.2889   -7.7084    3.4496 C   0  0  1  0  0  0  0  0  0  0  0  0
    6.1238   -7.8078    4.6232 O   0  0  0  0  0  0  0  0  0  0  0  0
    8.3168   -4.0511    1.6110 H   0  0  0  0  0  0  0  0  0  0  0  0
    8.0644   -5.0564    0.1923 H   0  0  0  0  0  0  0  0  0  0  0  0
    5.7880   -4.6641   -1.2070 H   0  0  0  0  0  0  0  0  0  0  0  0
    4.5820   -2.7985   -2.3348 H   0  0  0  0  0  0  0  0  0  0  0  0
    4.8630   -0.4708   -1.4205 H   0  0  0  0  0  0  0  0  0  0  0  0
    6.3569   -0.1355    0.5452 H   0  0  0  0  0  0  0  0  0  0  0  0
    7.8395   -6.9644    1.4543 H   0  0  0  0  0  0  0  0  0  0  0  0
    6.7617   -8.7122    2.2750 H   0  0  0  0  0  0  0  0  0  0  0  0
    4.9377   -7.4397    0.2736 H   0  0  0  0  0  0  0  0  0  0  0  0
    5.7821   -8.9695    0.2918 H   0  0  0  0  0  0  0  0  0  0  0  0
    3.0133   -8.4340    1.1192 H   0  0  0  0  0  0  0  0  0  0  0  0
    3.7266   -9.8438    0.3924 H   0  0  0  0  0  0  0  0  0  0  0  0
    4.8109  -11.3392    1.7549 H   0  0  0  0  0  0  0  0  0  0  0  0
    2.5948  -11.4742    2.2967 H   0  0  0  0  0  0  0  0  0  0  0  0
    2.0128  -11.5188    4.9398 H   0  0  0  0  0  0  0  0  0  0  0  0
    3.3869  -12.3142    4.2359 H   0  0  0  0  0  0  0  0  0  0  0  0
    4.0353  -12.0366    7.0132 H   0  0  0  0  0  0  0  0  0  0  0  0
    5.9389  -10.8385    8.1249 H   0  0  0  0  0  0  0  0  0  0  0  0
    7.5424   -8.0165    6.6321 H   0  0  0  0  0  0  0  0  0  0  0  0
    2.9497   -7.1999    4.6421 H   0  0  0  0  0  0  0  0  0  0  0  0
    2.6704   -7.3225    2.9381 H   0  0  0  0  0  0  0  0  0  0  0  0
    1.6332   -9.1732    5.1017 H   0  0  0  0  0  0  0  0  0  0  0  0
    0.7553   -8.0637    4.0599 H   0  0  0  0  0  0  0  0  0  0  0  0
    0.2887  -11.4830    2.5174 H   0  0  0  0  0  0  0  0  0  0  0  0
   -0.0102  -10.9420    4.1281 H   0  0  0  0  0  0  0  0  0  0  0  0
   -1.6806  -10.4119    2.0316 H   0  0  0  0  0  0  0  0  0  0  0  0
    0.1056   -7.9017    2.0788 H   0  0  0  0  0  0  0  0  0  0  0  0
   -1.5013   -8.1554    1.2307 H   0  0  0  0  0  0  0  0  0  0  0  0
   -2.6763   -8.5461    3.3569 H   0  0  0  0  0  0  0  0  0  0  0  0
   -1.1192   -8.4863    4.3391 H   0  0  0  0  0  0  0  0  0  0  0  0
    4.8344   -6.7260    3.4898 H   0  0  0  0  0  0  0  0  0  0  0  0
    1.4545   -9.3933    2.1398 H   0  0  0  0  0  0  0  0  0  0  0  0
  1  2  2  0
  2  3  1  0
  2 10  1  0
  3  4  1  0
  3 35  1  0
  3 36  1  0
  4  9  1  0
  4  5  2  0
  5  6  1  0
  5 37  1  0
  6  7  2  0
  6 38  1  0
  7  8  1  0
  7 39  1  0
  8  9  2  0
  8 40  1  0
 10 11  1  0
 10 41  1  0
 11 33  1  0
 11 12  1  0
 11 42  1  1
 12 13  1  0
 12 43  1  0
 12 44  1  0
 13 14  1  0
 13 45  1  0
 13 46  1  0
 14 25  1  0
 14 15  1  6
 14 16  1  0
 15 47  1  0
 16 28  1  0
 16 17  1  0
 16 48  1  6
 17 18  1  0
 17 49  1  0
 17 50  1  0
 18 24  2  0
 18 19  1  0
 19 20  2  0
 19 51  1  0
 20 21  1  0
 20 52  1  0
 21 22  1  0
 21 23  2  0
 22 53  1  0
 23 34  1  0
 23 24  1  0
 24 25  1  0
 25 26  1  1
 25 33  1  0
 26 27  1  0
 26 54  1  0
 26 55  1  0
 27 28  1  0
 27 56  1  0
 27 57  1  0
 28 29  1  0
 28 66  1  6
 29 30  1  0
 29 58  1  0
 29 59  1  0
 30 32  1  0
 30 31  1  0
 30 60  1  0
 31 32  1  0
 31 61  1  0
 31 62  1  0
 32 63  1  0
 32 64  1  0
 33 34  1  0
 33 65  1  6
M  CHG  1  28   1
M  END
>  <i_m_ct_stereo_status>  (387) 
1

>  <s_m_source_file>  (387) 
/var/tmp/pbs.5102103.sched01/tmpr2ljwd0b/132iqlgd2x9.sdf

>  <i_m_source_file_index>  (387) 
18

>  <i_lp_mmshare_version>  (387) 
48012

>  <i_f3d_flags>  (387) 
0

>  <s_epik_input>  (387) 
bjFbY0hdW2NIXVtjSF1bY0hdYzFbQ0gyXUMoPU8pW05IXVtDQEhdKFtDSDJdW0NIMl0yKVtDQEBIXTNPYyhjKFtPSF0pW2NIXVtjSF00KWM1YzRbQ0gyXVtDQEhdKFtDQEBdMihbQ0BdMzU2KVtPSF0pTihbQ0gyXVtDSDJdNilbQ0gyXVtDSF03W0NIMl1bQ0gyXTc=

>  <s_epik_cmdline>  (387) 
J2VwaWtfcHl0aG9uJywgJy1waHQnLCAnMi4wJywgJy1waCcsICc3LjAnLCAnLXRuJywgJzgnLCAnLW1hJywgJzIwMCcsICctaW1hZScsICc8aW5maWxlLm1hZT4nLCAnLW9tYWUnLCAnPG91dGZpbGUubWFlPic=

>  <r_lp_tautomer_probability>  (387) 
1

>  <r_epik_Ionization_Penalty>  (387) 
0.0447933

>  <r_epik_Ionization_Penalty_Charging>  (387) 
0.0302699

>  <r_epik_Ionization_Penalty_Neutral>  (387) 
0.0145233

>  <r_epik_State_Penalty>  (387) 
0.033795

>  <r_epik_Charging_Adjusted_Penalty>  (387) 
0.064065

>  <i_epik_Tot_Q>  (387) 
1

>  <i_epik_Tot_abs_Q>  (387) 
1

>  <s_lp_Force_Field>  (387) 
OPLS3e

>  <r_lp_Energy>  (387) 
84.202

>  <b_lp_Chiralities_Consistent>  (387) 
1

>  <s_lp_Variant>  (387) 
95:0-1

>  <s_i_glide_gridfile>  (387) 
pfpi4k_grid

>  <i_i_glide_lignum>  (387) 
18

>  <i_i_glide_rotatable_bonds>  (387) 
8

>  <r_i_docking_score>  (387) 
-2.99516

>  <r_i_glide_ligand_efficiency>  (387) 
-0.0880931

>  <r_i_glide_ligand_efficiency_sa>  (387) 
-0.285387

>  <r_i_glide_ligand_efficiency_ln>  (387) 
-0.661716

>  <r_i_glide_gscore>  (387) 
-2.99516

>  <r_i_glide_lipo>  (387) 
-0.458178

>  <r_i_glide_hbond>  (387) 
-0.16

>  <r_i_glide_metal>  (387) 
-0

>  <r_i_glide_rewards>  (387) 
-0.350091

>  <r_i_glide_evdw>  (387) 
-27.2587

>  <r_i_glide_ecoul>  (387) 
-7.56479

>  <r_i_glide_erotb>  (387) 
0.470758

>  <r_i_glide_esite>  (387) 
0

>  <r_i_glide_emodel>  (387) 
-34.6976

>  <r_i_glide_energy>  (387) 
-34.8235

>  <r_i_glide_einternal>  (387) 
14.4427

>  <r_i_glide_intrahb_reward>  (387) 
-0

>  <i_i_glide_confnum>  (387) 
3

>  <i_i_glide_posenum>  (387) 
26

>  <r_i_glide_eff_state_penalty>  (387) 
0

>  <ligand_id>  (387) 
95

>  <original_smiles>  (387) 
O=C(Cc1ccccn1)NC1CCC2(O)C3Cc4ccc(O)c5c4C2(CCN3CC2CC2)C1O5

>  <smiles>  (387) 
[H]Oc1c([H])c([H])c2c3c1OC1([H])C([H])(N([H])C(=O)C([H])([H])c4nc([H])c([H])c([H])c4[H])C([H])([H])C([H])([H])C4(O[H])C31C([H])([H])C([H])([H])[N+]([H])(C([H])([H])C1([H])C([H])([H])C1([H])[H])C4([H])C2([H])[H]

$$$$
95:0:2
     RDKit          3D

 66 72  0  0  1  0  0  0  0  0999 V2000
    1.1986   -6.3367    2.1145 O   0  0  0  0  0  0  0  0  0  0  0  0
    2.1566   -7.0773    1.8791 C   0  0  0  0  0  0  0  0  0  0  0  0
    1.9088   -8.5853    1.7374 C   0  0  0  0  0  0  0  0  0  0  0  0
    2.2880   -9.3516    2.9933 C   0  0  0  0  0  0  0  0  0  0  0  0
    3.6412   -9.5339    3.3394 C   0  0  0  0  0  0  0  0  0  0  0  0
    3.9446  -10.2674    4.5056 C   0  0  0  0  0  0  0  0  0  0  0  0
    2.8803  -10.7907    5.2636 C   0  0  0  0  0  0  0  0  0  0  0  0
    1.5622  -10.5646    4.8283 C   0  0  0  0  0  0  0  0  0  0  0  0
    1.2663   -9.8424    3.7244 N   0  0  0  0  0  0  0  0  0  0  0  0
    3.4275   -6.6396    1.7107 N   0  0  0  0  0  0  0  0  0  0  0  0
    3.9678   -5.2713    1.7547 C   0  0  2  0  0  0  0  0  0  0  0  0
    4.1335   -4.7772    3.2269 C   0  0  0  0  0  0  0  0  0  0  0  0
    4.1704   -3.2337    3.4677 C   0  0  0  0  0  0  0  0  0  0  0  0
    4.5440   -2.4479    2.2025 C   0  0  2  0  0  0  0  0  0  0  0  0
    5.8566   -2.8711    1.8448 O   0  0  0  0  0  0  0  0  0  0  0  0
    4.5829   -0.8715    2.2577 C   0  0  1  0  0  0  0  0  0  0  0  0
    4.9893   -0.2713    0.8647 C   0  0  0  0  0  0  0  0  0  0  0  0
    4.6426   -1.0625   -0.3957 C   0  0  0  0  0  0  0  0  0  0  0  0
    5.0222   -0.8042   -1.7313 C   0  0  0  0  0  0  0  0  0  0  0  0
    4.8309   -1.7826   -2.7244 C   0  0  0  0  0  0  0  0  0  0  0  0
    4.2985   -3.0516   -2.4001 C   0  0  0  0  0  0  0  0  0  0  0  0
    4.2255   -3.9507   -3.4108 O   0  0  0  0  0  0  0  0  0  0  0  0
    3.8902   -3.3325   -1.0923 C   0  0  0  0  0  0  0  0  0  0  0  0
    4.0232   -2.3263   -0.1867 C   0  0  0  0  0  0  0  0  0  0  0  0
    3.5167   -2.7973    1.1262 C   0  0  2  0  0  0  0  0  0  0  0  0
    2.1617   -2.1485    1.4452 C   0  0  0  0  0  0  0  0  0  0  0  0
    2.2016   -0.6438    1.6856 C   0  0  0  0  0  0  0  0  0  0  0  0
    3.2683   -0.3187    2.6732 N   0  0  2  0  0  0  0  0  0  0  0  0
    3.2844    1.0918    3.1299 C   0  0  0  0  0  0  0  0  0  0  0  0
    2.1048    1.4835    4.0085 C   0  0  0  0  0  0  0  0  0  0  0  0
    1.0265    0.5140    4.4875 C   0  0  0  0  0  0  0  0  0  0  0  0
    0.6864    1.6056    3.4995 C   0  0  0  0  0  0  0  0  0  0  0  0
    3.1838   -4.2990    0.8450 C   0  0  1  0  0  0  0  0  0  0  0  0
    3.4328   -4.5133   -0.5531 O   0  0  0  0  0  0  0  0  0  0  0  0
    0.8516   -8.7373    1.5237 H   0  0  0  0  0  0  0  0  0  0  0  0
    2.4569   -9.0047    0.8965 H   0  0  0  0  0  0  0  0  0  0  0  0
    4.4325   -9.1522    2.7204 H   0  0  0  0  0  0  0  0  0  0  0  0
    4.9648  -10.4383    4.7995 H   0  0  0  0  0  0  0  0  0  0  0  0
    3.0461  -11.3627    6.1610 H   0  0  0  0  0  0  0  0  0  0  0  0
    0.7252  -10.9565    5.3802 H   0  0  0  0  0  0  0  0  0  0  0  0
    4.1114   -7.3436    1.4656 H   0  0  0  0  0  0  0  0  0  0  0  0
    4.9721   -5.3256    1.3271 H   0  0  0  0  0  0  0  0  0  0  0  0
    3.3887   -5.2321    3.8737 H   0  0  0  0  0  0  0  0  0  0  0  0
    5.0787   -5.1815    3.5792 H   0  0  0  0  0  0  0  0  0  0  0  0
    3.1955   -2.9271    3.8557 H   0  0  0  0  0  0  0  0  0  0  0  0
    4.8903   -3.0046    4.2475 H   0  0  0  0  0  0  0  0  0  0  0  0
    5.9787   -2.5734    0.9630 H   0  0  0  0  0  0  0  0  0  0  0  0
    5.3422   -0.5921    2.9979 H   0  0  0  0  0  0  0  0  0  0  0  0
    4.5802    0.7427    0.7546 H   0  0  0  0  0  0  0  0  0  0  0  0
    6.0759   -0.1586    0.8630 H   0  0  0  0  0  0  0  0  0  0  0  0
    5.5319    0.1105   -1.9912 H   0  0  0  0  0  0  0  0  0  0  0  0
    5.1290   -1.6311   -3.7286 H   0  0  0  0  0  0  0  0  0  0  0  0
    3.8314   -4.7705   -3.0986 H   0  0  0  0  0  0  0  0  0  0  0  0
    1.4989   -2.3884    0.6451 H   0  0  0  0  0  0  0  0  0  0  0  0
    1.7276   -2.6131    2.3283 H   0  0  0  0  0  0  0  0  0  0  0  0
    2.3451   -0.0880    0.7366 H   0  0  0  0  0  0  0  0  0  0  0  0
    1.1743   -0.4156    2.0245 H   0  0  0  0  0  0  0  0  0  0  0  0
    4.1965    1.2776    3.7044 H   0  0  0  0  0  0  0  0  0  0  0  0
    3.3506    1.7904    2.2829 H   0  0  0  0  0  0  0  0  0  0  0  0
    2.3995    2.2986    4.6680 H   0  0  0  0  0  0  0  0  0  0  0  0
    1.1786   -0.5308    4.2007 H   0  0  0  0  0  0  0  0  0  0  0  0
    0.6902    0.6636    5.5193 H   0  0  0  0  0  0  0  0  0  0  0  0
    0.0544    2.3845    3.9144 H   0  0  0  0  0  0  0  0  0  0  0  0
    0.6289    1.4418    2.4076 H   0  0  0  0  0  0  0  0  0  0  0  0
    2.1117   -4.4291    0.9530 H   0  0  0  0  0  0  0  0  0  0  0  0
    3.0527   -0.8472    3.5343 H   0  0  0  0  0  0  0  0  0  0  0  0
  1  2  2  0
  2  3  1  0
  2 10  1  0
  3  4  1  0
  3 35  1  0
  3 36  1  0
  4  9  1  0
  4  5  2  0
  5  6  1  0
  5 37  1  0
  6  7  2  0
  6 38  1  0
  7  8  1  0
  7 39  1  0
  8  9  2  0
  8 40  1  0
 10 11  1  0
 10 41  1  0
 11 33  1  0
 11 12  1  0
 11 42  1  6
 12 13  1  0
 12 43  1  0
 12 44  1  0
 13 14  1  0
 13 45  1  0
 13 46  1  0
 14 25  1  0
 14 15  1  6
 14 16  1  0
 15 47  1  0
 16 28  1  0
 16 17  1  0
 16 48  1  1
 17 18  1  0
 17 49  1  0
 17 50  1  0
 18 24  2  0
 18 19  1  0
 19 20  2  0
 19 51  1  0
 20 21  1  0
 20 52  1  0
 21 22  1  0
 21 23  2  0
 22 53  1  0
 23 34  1  0
 23 24  1  0
 24 25  1  0
 25 26  1  1
 25 33  1  0
 26 27  1  0
 26 54  1  0
 26 55  1  0
 27 28  1  0
 27 56  1  0
 27 57  1  0
 28 29  1  0
 28 66  1  1
 29 30  1  0
 29 58  1  0
 29 59  1  0
 30 32  1  0
 30 31  1  0
 30 60  1  0
 31 32  1  0
 31 61  1  0
 31 62  1  0
 32 63  1  0
 32 64  1  0
 33 34  1  0
 33 65  1  6
M  CHG  1  28   1
M  END
>  <i_m_ct_stereo_status>  (388) 
1

>  <s_m_source_file>  (388) 
/var/tmp/pbs.5102103.sched01/tmpr2ljwd0b/132iqlgd2x9.sdf

>  <i_m_source_file_index>  (388) 
18

>  <i_lp_mmshare_version>  (388) 
48012

>  <i_f3d_flags>  (388) 
0

>  <s_epik_input>  (388) 
bjFbY0hdW2NIXVtjSF1bY0hdYzFbQ0gyXUMoPU8pW05IXVtDQEhdKFtDSDJdW0NIMl0yKVtDQEBIXTNPYyhjKFtPSF0pW2NIXVtjSF00KWM1YzRbQ0gyXVtDQEhdKFtDQEBdMihbQ0BdMzU2KVtPSF0pTihbQ0gyXVtDSDJdNilbQ0gyXVtDSF03W0NIMl1bQ0gyXTc=

>  <s_epik_cmdline>  (388) 
J2VwaWtfcHl0aG9uJywgJy1waHQnLCAnMi4wJywgJy1waCcsICc3LjAnLCAnLXRuJywgJzgnLCAnLW1hJywgJzIwMCcsICctaW1hZScsICc8aW5maWxlLm1hZT4nLCAnLW9tYWUnLCAnPG91dGZpbGUubWFlPic=

>  <r_lp_tautomer_probability>  (388) 
1

>  <r_epik_Ionization_Penalty>  (388) 
0.0447933

>  <r_epik_Ionization_Penalty_Charging>  (388) 
0.0302699

>  <r_epik_Ionization_Penalty_Neutral>  (388) 
0.0145233

>  <r_epik_State_Penalty>  (388) 
0.033795

>  <r_epik_Charging_Adjusted_Penalty>  (388) 
0.064065

>  <i_epik_Tot_Q>  (388) 
1

>  <i_epik_Tot_abs_Q>  (388) 
1

>  <s_lp_Force_Field>  (388) 
OPLS3e

>  <r_lp_Energy>  (388) 
84.202

>  <b_lp_Chiralities_Consistent>  (388) 
1

>  <s_lp_Variant>  (388) 
95:0-1

>  <s_i_glide_gridfile>  (388) 
pfpi4k_grid

>  <i_i_glide_lignum>  (388) 
18

>  <i_i_glide_rotatable_bonds>  (388) 
8

>  <r_i_docking_score>  (388) 
-2.84294

>  <r_i_glide_ligand_efficiency>  (388) 
-0.0836159

>  <r_i_glide_ligand_efficiency_sa>  (388) 
-0.270883

>  <r_i_glide_ligand_efficiency_ln>  (388) 
-0.628085

>  <r_i_glide_gscore>  (388) 
-2.84294

>  <r_i_glide_lipo>  (388) 
-0.294187

>  <r_i_glide_hbond>  (388) 
0

>  <r_i_glide_metal>  (388) 
-0

>  <r_i_glide_rewards>  (388) 
-0.255268

>  <r_i_glide_evdw>  (388) 
-25.1291

>  <r_i_glide_ecoul>  (388) 
-9.94733

>  <r_i_glide_erotb>  (388) 
0.470758

>  <r_i_glide_esite>  (388) 
-0.0156924

>  <r_i_glide_emodel>  (388) 
-36.19

>  <r_i_glide_energy>  (388) 
-35.0764

>  <r_i_glide_einternal>  (388) 
10.4724

>  <r_i_glide_intrahb_reward>  (388) 
-0

>  <i_i_glide_confnum>  (388) 
3

>  <i_i_glide_posenum>  (388) 
2

>  <r_i_glide_eff_state_penalty>  (388) 
0

>  <ligand_id>  (388) 
95

>  <original_smiles>  (388) 
O=C(Cc1ccccn1)NC1CCC2(O)C3Cc4ccc(O)c5c4C2(CCN3CC2CC2)C1O5

>  <smiles>  (388) 
[H]Oc1c([H])c([H])c2c3c1OC1([H])C([H])(N([H])C(=O)C([H])([H])c4nc([H])c([H])c([H])c4[H])C([H])([H])C([H])([H])C4(O[H])C31C([H])([H])C([H])([H])[N+]([H])(C([H])([H])C1([H])C([H])([H])C1([H])[H])C4([H])C2([H])[H]

$$$$
95:1:0
     RDKit          3D

 65 71  0  0  1  0  0  0  0  0999 V2000
    3.8600   -4.0925    1.1965 O   0  0  0  0  0  0  0  0  0  0  0  0
    4.2431   -3.0595    0.6433 C   0  0  0  0  0  0  0  0  0  0  0  0
    5.0297   -3.1414   -0.6713 C   0  0  0  0  0  0  0  0  0  0  0  0
    4.3301   -2.4008   -1.8009 C   0  0  0  0  0  0  0  0  0  0  0  0
    3.2398   -2.9926   -2.4793 C   0  0  0  0  0  0  0  0  0  0  0  0
    2.6267   -2.2857   -3.5302 C   0  0  0  0  0  0  0  0  0  0  0  0
    3.1333   -1.0140   -3.8607 C   0  0  0  0  0  0  0  0  0  0  0  0
    4.2050   -0.5021   -3.1027 C   0  0  0  0  0  0  0  0  0  0  0  0
    4.8111   -1.1793   -2.1106 N   0  0  0  0  0  0  0  0  0  0  0  0
    4.0257   -1.8388    1.1521 N   0  0  0  0  0  0  0  0  0  0  0  0
    3.3410   -1.5259    2.4093 C   0  0  2  0  0  0  0  0  0  0  0  0
    1.8032   -1.8253    2.2948 C   0  0  0  0  0  0  0  0  0  0  0  0
    0.8666   -1.0286    3.2564 C   0  0  0  0  0  0  0  0  0  0  0  0
    1.6319   -0.4553    4.4672 C   0  0  2  0  0  0  0  0  0  0  0  0
    2.1321   -1.6292    5.1050 O   0  0  0  0  0  0  0  0  0  0  0  0
    0.9019    0.3367    5.6104 C   0  0  1  0  0  0  0  0  0  0  0  0
    1.8850    0.6672    6.7608 C   0  0  0  0  0  0  0  0  0  0  0  0
    3.3658    0.8714    6.4206 C   0  0  0  0  0  0  0  0  0  0  0  0
    4.4539    1.0351    7.2971 C   0  0  0  0  0  0  0  0  0  0  0  0
    5.7876    0.9789    6.7960 C   0  0  0  0  0  0  0  0  0  0  0  0
    6.0404    0.6919    5.4320 C   0  0  0  0  0  0  0  0  0  0  0  0
    7.3179    0.6092    4.9647 O   0  0  0  0  0  0  0  0  0  0  0  0
    4.9643    0.5066    4.5155 C   0  0  0  0  0  0  0  0  0  0  0  0
    3.7028    0.6791    5.0631 C   0  0  0  0  0  0  0  0  0  0  0  0
    2.7306    0.4794    3.9456 C   0  0  2  0  0  0  0  0  0  0  0  0
    2.0968    1.8295    3.4779 C   0  0  0  0  0  0  0  0  0  0  0  0
    1.2559    2.4930    4.5773 C   0  0  0  0  0  0  0  0  0  0  0  0
    0.2690    1.5945    5.2023 N   0  0  0  0  0  0  0  0  0  0  0  0
   -1.0176    1.4654    4.5328 C   0  0  0  0  0  0  0  0  0  0  0  0
   -1.8099    2.7443    4.4326 C   0  0  0  0  0  0  0  0  0  0  0  0
   -2.8074    2.9366    3.3077 C   0  0  0  0  0  0  0  0  0  0  0  0
   -1.5432    3.7438    3.3262 C   0  0  0  0  0  0  0  0  0  0  0  0
    3.6299   -0.0547    2.7754 C   0  0  1  0  0  0  0  0  0  0  0  0
    4.9965    0.1435    3.2135 O   0  0  0  0  0  0  0  0  0  0  0  0
    6.0438   -2.7650   -0.5287 H   0  0  0  0  0  0  0  0  0  0  0  0
    5.1346   -4.1885   -0.9594 H   0  0  0  0  0  0  0  0  0  0  0  0
    2.8557   -3.9486   -2.1855 H   0  0  0  0  0  0  0  0  0  0  0  0
    1.7813   -2.6919   -4.0606 H   0  0  0  0  0  0  0  0  0  0  0  0
    2.6764   -0.4169   -4.6297 H   0  0  0  0  0  0  0  0  0  0  0  0
    4.5279    0.5067   -3.2894 H   0  0  0  0  0  0  0  0  0  0  0  0
    4.4306   -1.0530    0.6597 H   0  0  0  0  0  0  0  0  0  0  0  0
    3.7590   -2.1666    3.1829 H   0  0  0  0  0  0  0  0  0  0  0  0
    1.4598   -1.6620    1.2828 H   0  0  0  0  0  0  0  0  0  0  0  0
    1.6596   -2.8956    2.4779 H   0  0  0  0  0  0  0  0  0  0  0  0
    0.4263   -0.2327    2.6595 H   0  0  0  0  0  0  0  0  0  0  0  0
    0.0389   -1.6606    3.5751 H   0  0  0  0  0  0  0  0  0  0  0  0
    1.4121   -2.1594    5.3740 H   0  0  0  0  0  0  0  0  0  0  0  0
    0.1217   -0.2990    6.0337 H   0  0  0  0  0  0  0  0  0  0  0  0
    1.5372    1.5371    7.3302 H   0  0  0  0  0  0  0  0  0  0  0  0
    1.8742   -0.1687    7.4637 H   0  0  0  0  0  0  0  0  0  0  0  0
    4.2847    1.1695    8.3519 H   0  0  0  0  0  0  0  0  0  0  0  0
    6.6145    1.1131    7.4650 H   0  0  0  0  0  0  0  0  0  0  0  0
    7.3509    0.4506    4.0404 H   0  0  0  0  0  0  0  0  0  0  0  0
    2.8660    2.5223    3.1376 H   0  0  0  0  0  0  0  0  0  0  0  0
    1.4664    1.6632    2.6011 H   0  0  0  0  0  0  0  0  0  0  0  0
    1.9443    2.8676    5.3348 H   0  0  0  0  0  0  0  0  0  0  0  0
    0.7883    3.3937    4.1812 H   0  0  0  0  0  0  0  0  0  0  0  0
   -0.9049    1.0579    3.5271 H   0  0  0  0  0  0  0  0  0  0  0  0
   -1.6476    0.7571    5.0768 H   0  0  0  0  0  0  0  0  0  0  0  0
   -2.0964    3.1724    5.4039 H   0  0  0  0  0  0  0  0  0  0  0  0
   -2.8634    2.1552    2.5502 H   0  0  0  0  0  0  0  0  0  0  0  0
   -3.7389    3.4478    3.5123 H   0  0  0  0  0  0  0  0  0  0  0  0
   -1.5725    4.7919    3.6029 H   0  0  0  0  0  0  0  0  0  0  0  0
   -0.7747    3.4686    2.6004 H   0  0  0  0  0  0  0  0  0  0  0  0
    3.4777    0.5557    1.8857 H   0  0  0  0  0  0  0  0  0  0  0  0
  1  2  2  0
  2  3  1  0
  2 10  1  0
  3  4  1  0
  3 35  1  0
  3 36  1  0
  4  9  1  0
  4  5  2  0
  5  6  1  0
  5 37  1  0
  6  7  2  0
  6 38  1  0
  7  8  1  0
  7 39  1  0
  8  9  2  0
  8 40  1  0
 10 11  1  0
 10 41  1  0
 11 33  1  0
 11 12  1  0
 11 42  1  1
 12 13  1  0
 12 43  1  0
 12 44  1  0
 13 14  1  0
 13 45  1  0
 13 46  1  0
 14 25  1  0
 14 15  1  1
 14 16  1  0
 15 47  1  0
 16 28  1  0
 16 17  1  0
 16 48  1  1
 17 18  1  0
 17 49  1  0
 17 50  1  0
 18 24  2  0
 18 19  1  0
 19 20  2  0
 19 51  1  0
 20 21  1  0
 20 52  1  0
 21 22  1  0
 21 23  2  0
 22 53  1  0
 23 34  1  0
 23 24  1  0
 24 25  1  0
 25 26  1  6
 25 33  1  0
 26 27  1  0
 26 54  1  0
 26 55  1  0
 27 28  1  0
 27 56  1  0
 27 57  1  0
 28 29  1  0
 29 30  1  0
 29 58  1  0
 29 59  1  0
 30 32  1  0
 30 31  1  0
 30 60  1  0
 31 32  1  0
 31 61  1  0
 31 62  1  0
 32 63  1  0
 32 64  1  0
 33 34  1  0
 33 65  1  6
M  END
>  <i_m_ct_stereo_status>  (389) 
1

>  <s_m_source_file>  (389) 
/var/tmp/pbs.5102103.sched01/tmpr2ljwd0b/132iqlgd2x9.sdf

>  <i_m_source_file_index>  (389) 
19

>  <i_lp_mmshare_version>  (389) 
48012

>  <i_f3d_flags>  (389) 
0

>  <s_epik_input>  (389) 
bjFbY0hdW2NIXVtjSF1bY0hdYzFbQ0gyXUMoPU8pW05IXVtDQEhdKFtDSDJdW0NIMl0yKVtDQEBIXTNPYyhjKFtPSF0pW2NIXVtjSF00KWM1YzRbQ0gyXVtDQEhdKFtDQEBdMihbQ0BdMzU2KVtPSF0pTihbQ0gyXVtDSDJdNilbQ0gyXVtDSF03W0NIMl1bQ0gyXTc=

>  <s_epik_cmdline>  (389) 
J2VwaWtfcHl0aG9uJywgJy1waHQnLCAnMi4wJywgJy1waCcsICc3LjAnLCAnLXRuJywgJzgnLCAnLW1hJywgJzIwMCcsICctaW1hZScsICc8aW5maWxlLm1hZT4nLCAnLW9tYWUnLCAnPG91dGZpbGUubWFlPic=

>  <r_lp_tautomer_probability>  (389) 
1

>  <r_epik_Ionization_Penalty>  (389) 
1.78077

>  <r_epik_Ionization_Penalty_Charging>  (389) 
0

>  <r_epik_Ionization_Penalty_Neutral>  (389) 
1.78077

>  <r_epik_State_Penalty>  (389) 
1.89794

>  <r_epik_Charging_Adjusted_Penalty>  (389) 
1.89794

>  <i_epik_Tot_Q>  (389) 
0

>  <i_epik_Tot_abs_Q>  (389) 
0

>  <s_lp_Force_Field>  (389) 
OPLS3e

>  <r_lp_Energy>  (389) 
97.8421

>  <b_lp_Chiralities_Consistent>  (389) 
1

>  <s_lp_Variant>  (389) 
95:0-2

>  <s_i_glide_gridfile>  (389) 
pfpi4k_grid

>  <i_i_glide_lignum>  (389) 
19

>  <i_i_glide_rotatable_bonds>  (389) 
8

>  <r_i_docking_score>  (389) 
-2.86739

>  <r_i_glide_ligand_efficiency>  (389) 
-0.0843351

>  <r_i_glide_ligand_efficiency_sa>  (389) 
-0.273213

>  <r_i_glide_ligand_efficiency_ln>  (389) 
-0.633487

>  <r_i_glide_gscore>  (389) 
-2.86739

>  <r_i_glide_lipo>  (389) 
-0.902035

>  <r_i_glide_hbond>  (389) 
-0.0348395

>  <r_i_glide_metal>  (389) 
-0

>  <r_i_glide_rewards>  (389) 
-0.274634

>  <r_i_glide_evdw>  (389) 
-31.0487

>  <r_i_glide_ecoul>  (389) 
-3.77788

>  <r_i_glide_erotb>  (389) 
0.472633

>  <r_i_glide_esite>  (389) 
-0.00940049

>  <r_i_glide_emodel>  (389) 
-41.128

>  <r_i_glide_energy>  (389) 
-34.8266

>  <r_i_glide_einternal>  (389) 
1.20951

>  <r_i_glide_intrahb_reward>  (389) 
-0

>  <i_i_glide_confnum>  (389) 
4

>  <i_i_glide_posenum>  (389) 
2

>  <r_i_glide_eff_state_penalty>  (389) 
0

>  <ligand_id>  (389) 
95

>  <original_smiles>  (389) 
O=C(Cc1ccccn1)NC1CCC2(O)C3Cc4ccc(O)c5c4C2(CCN3CC2CC2)C1O5

>  <smiles>  (389) 
[H]Oc1c([H])c([H])c2c3c1OC1([H])C([H])(N([H])C(=O)C([H])([H])c4nc([H])c([H])c([H])c4[H])C([H])([H])C([H])([H])C4(O[H])C([H])(N(C([H])([H])C5([H])C([H])([H])C5([H])[H])C([H])([H])C([H])([H])C314)C2([H])[H]

$$$$
95:1:1
     RDKit          3D

 65 71  0  0  1  0  0  0  0  0999 V2000
    5.6022   -3.6712    1.5550 O   0  0  0  0  0  0  0  0  0  0  0  0
    5.4659   -2.7192    0.7848 C   0  0  0  0  0  0  0  0  0  0  0  0
    6.2245   -2.7112   -0.5531 C   0  0  0  0  0  0  0  0  0  0  0  0
    5.3166   -2.4128   -1.7385 C   0  0  0  0  0  0  0  0  0  0  0  0
    4.8147   -1.1010   -1.9454 C   0  0  0  0  0  0  0  0  0  0  0  0
    3.9375   -0.8795   -3.0229 C   0  0  0  0  0  0  0  0  0  0  0  0
    3.6376   -1.9551   -3.8819 C   0  0  0  0  0  0  0  0  0  0  0  0
    4.2089   -3.2192   -3.5977 C   0  0  0  0  0  0  0  0  0  0  0  0
    5.0384   -3.4324   -2.5642 N   0  0  0  0  0  0  0  0  0  0  0  0
    4.6925   -1.6581    1.0715 N   0  0  0  0  0  0  0  0  0  0  0  0
    3.8590   -1.4836    2.2575 C   0  0  2  0  0  0  0  0  0  0  0  0
    2.3711   -1.8423    1.9220 C   0  0  0  0  0  0  0  0  0  0  0  0
    1.2884   -1.2044    2.8558 C   0  0  0  0  0  0  0  0  0  0  0  0
    1.8914   -0.7201    4.1942 C   0  0  2  0  0  0  0  0  0  0  0  0
    2.4027   -1.9230    4.7668 O   0  0  0  0  0  0  0  0  0  0  0  0
    1.0069   -0.0933    5.3311 C   0  0  1  0  0  0  0  0  0  0  0  0
    1.8505    0.1717    6.6027 C   0  0  0  0  0  0  0  0  0  0  0  0
    3.3390    0.4945    6.4390 C   0  0  0  0  0  0  0  0  0  0  0  0
    4.3248    0.6261    7.4355 C   0  0  0  0  0  0  0  0  0  0  0  0
    5.7022    0.6974    7.0689 C   0  0  0  0  0  0  0  0  0  0  0  0
    6.1017    0.5635    5.7148 C   0  0  0  0  0  0  0  0  0  0  0  0
    7.4187    0.5903    5.3729 O   0  0  0  0  0  0  0  0  0  0  0  0
    5.1350    0.4050    4.6813 C   0  0  0  0  0  0  0  0  0  0  0  0
    3.8173    0.4610    5.1105 C   0  0  0  0  0  0  0  0  0  0  0  0
    2.9723    0.3222    3.8856 C   0  0  2  0  0  0  0  0  0  0  0  0
    2.3011    1.6780    3.4914 C   0  0  0  0  0  0  0  0  0  0  0  0
    1.3159    2.1757    4.5599 C   0  0  0  0  0  0  0  0  0  0  0  0
    0.3344    1.1623    4.9874 N   0  0  0  0  0  0  0  0  0  0  0  0
   -0.8682    1.0356    4.1787 C   0  0  0  0  0  0  0  0  0  0  0  0
   -1.7637    2.2479    4.1978 C   0  0  0  0  0  0  0  0  0  0  0  0
   -2.6676    2.5566    3.0221 C   0  0  0  0  0  0  0  0  0  0  0  0
   -1.4988    3.4476    3.3116 C   0  0  0  0  0  0  0  0  0  0  0  0
    4.0116   -0.0451    2.7681 C   0  0  1  0  0  0  0  0  0  0  0  0
    5.3156    0.1416    3.3694 O   0  0  0  0  0  0  0  0  0  0  0  0
    7.0366   -1.9876   -0.5224 H   0  0  0  0  0  0  0  0  0  0  0  0
    6.6948   -3.6865   -0.6883 H   0  0  0  0  0  0  0  0  0  0  0  0
    5.0533   -0.2901   -1.2803 H   0  0  0  0  0  0  0  0  0  0  0  0
    3.5155    0.0961   -3.1862 H   0  0  0  0  0  0  0  0  0  0  0  0
    2.9685   -1.8190   -4.7136 H   0  0  0  0  0  0  0  0  0  0  0  0
    3.9984   -4.0626   -4.2367 H   0  0  0  0  0  0  0  0  0  0  0  0
    4.6850   -0.8879    0.4173 H   0  0  0  0  0  0  0  0  0  0  0  0
    4.2020   -2.1522    3.0399 H   0  0  0  0  0  0  0  0  0  0  0  0
    2.1442   -1.6002    0.8839 H   0  0  0  0  0  0  0  0  0  0  0  0
    2.2803   -2.9304    1.9794 H   0  0  0  0  0  0  0  0  0  0  0  0
    0.8476   -0.3755    2.3035 H   0  0  0  0  0  0  0  0  0  0  0  0
    0.4816   -1.9151    3.0247 H   0  0  0  0  0  0  0  0  0  0  0  0
    1.7010   -2.5242    4.8921 H   0  0  0  0  0  0  0  0  0  0  0  0
    0.2343   -0.8131    5.6108 H   0  0  0  0  0  0  0  0  0  0  0  0
    1.3932    0.9575    7.2165 H   0  0  0  0  0  0  0  0  0  0  0  0
    1.8282   -0.7323    7.2165 H   0  0  0  0  0  0  0  0  0  0  0  0
    4.0487    0.6370    8.4756 H   0  0  0  0  0  0  0  0  0  0  0  0
    6.4511    0.8026    7.8267 H   0  0  0  0  0  0  0  0  0  0  0  0
    7.5435    0.4913    4.4510 H   0  0  0  0  0  0  0  0  0  0  0  0
    3.0515    2.4441    3.3007 H   0  0  0  0  0  0  0  0  0  0  0  0
    1.7695    1.5689    2.5432 H   0  0  0  0  0  0  0  0  0  0  0  0
    1.9034    2.5060    5.4168 H   0  0  0  0  0  0  0  0  0  0  0  0
    0.8305    3.0849    4.2076 H   0  0  0  0  0  0  0  0  0  0  0  0
   -0.6250    0.8037    3.1392 H   0  0  0  0  0  0  0  0  0  0  0  0
   -1.4767    0.2024    4.5410 H   0  0  0  0  0  0  0  0  0  0  0  0
   -2.1894    2.4714    5.1874 H   0  0  0  0  0  0  0  0  0  0  0  0
   -2.5783    1.9259    2.1365 H   0  0  0  0  0  0  0  0  0  0  0  0
   -3.6578    2.9561    3.2151 H   0  0  0  0  0  0  0  0  0  0  0  0
   -1.6674    4.4225    3.7553 H   0  0  0  0  0  0  0  0  0  0  0  0
   -0.6536    3.3749    2.6227 H   0  0  0  0  0  0  0  0  0  0  0  0
    3.9054    0.6422    1.9281 H   0  0  0  0  0  0  0  0  0  0  0  0
  1  2  2  0
  2  3  1  0
  2 10  1  0
  3  4  1  0
  3 35  1  0
  3 36  1  0
  4  9  1  0
  4  5  2  0
  5  6  1  0
  5 37  1  0
  6  7  2  0
  6 38  1  0
  7  8  1  0
  7 39  1  0
  8  9  2  0
  8 40  1  0
 10 11  1  0
 10 41  1  0
 11 33  1  0
 11 12  1  0
 11 42  1  1
 12 13  1  0
 12 43  1  0
 12 44  1  0
 13 14  1  0
 13 45  1  0
 13 46  1  0
 14 25  1  0
 14 15  1  1
 14 16  1  0
 15 47  1  0
 16 28  1  0
 16 17  1  0
 16 48  1  1
 17 18  1  0
 17 49  1  0
 17 50  1  0
 18 24  2  0
 18 19  1  0
 19 20  2  0
 19 51  1  0
 20 21  1  0
 20 52  1  0
 21 22  1  0
 21 23  2  0
 22 53  1  0
 23 34  1  0
 23 24  1  0
 24 25  1  0
 25 26  1  6
 25 33  1  0
 26 27  1  0
 26 54  1  0
 26 55  1  0
 27 28  1  0
 27 56  1  0
 27 57  1  0
 28 29  1  0
 29 30  1  0
 29 58  1  0
 29 59  1  0
 30 32  1  0
 30 31  1  0
 30 60  1  0
 31 32  1  0
 31 61  1  0
 31 62  1  0
 32 63  1  0
 32 64  1  0
 33 34  1  0
 33 65  1  6
M  END
>  <i_m_ct_stereo_status>  (390) 
1

>  <s_m_source_file>  (390) 
/var/tmp/pbs.5102103.sched01/tmpr2ljwd0b/132iqlgd2x9.sdf

>  <i_m_source_file_index>  (390) 
19

>  <i_lp_mmshare_version>  (390) 
48012

>  <i_f3d_flags>  (390) 
0

>  <s_epik_input>  (390) 
bjFbY0hdW2NIXVtjSF1bY0hdYzFbQ0gyXUMoPU8pW05IXVtDQEhdKFtDSDJdW0NIMl0yKVtDQEBIXTNPYyhjKFtPSF0pW2NIXVtjSF00KWM1YzRbQ0gyXVtDQEhdKFtDQEBdMihbQ0BdMzU2KVtPSF0pTihbQ0gyXVtDSDJdNilbQ0gyXVtDSF03W0NIMl1bQ0gyXTc=

>  <s_epik_cmdline>  (390) 
J2VwaWtfcHl0aG9uJywgJy1waHQnLCAnMi4wJywgJy1waCcsICc3LjAnLCAnLXRuJywgJzgnLCAnLW1hJywgJzIwMCcsICctaW1hZScsICc8aW5maWxlLm1hZT4nLCAnLW9tYWUnLCAnPG91dGZpbGUubWFlPic=

>  <r_lp_tautomer_probability>  (390) 
1

>  <r_epik_Ionization_Penalty>  (390) 
1.78077

>  <r_epik_Ionization_Penalty_Charging>  (390) 
0

>  <r_epik_Ionization_Penalty_Neutral>  (390) 
1.78077

>  <r_epik_State_Penalty>  (390) 
1.89794

>  <r_epik_Charging_Adjusted_Penalty>  (390) 
1.89794

>  <i_epik_Tot_Q>  (390) 
0

>  <i_epik_Tot_abs_Q>  (390) 
0

>  <s_lp_Force_Field>  (390) 
OPLS3e

>  <r_lp_Energy>  (390) 
97.8421

>  <b_lp_Chiralities_Consistent>  (390) 
1

>  <s_lp_Variant>  (390) 
95:0-2

>  <s_i_glide_gridfile>  (390) 
pfpi4k_grid

>  <i_i_glide_lignum>  (390) 
19

>  <i_i_glide_rotatable_bonds>  (390) 
8

>  <r_i_docking_score>  (390) 
-2.60498

>  <r_i_glide_ligand_efficiency>  (390) 
-0.076617

>  <r_i_glide_ligand_efficiency_sa>  (390) 
-0.248209

>  <r_i_glide_ligand_efficiency_ln>  (390) 
-0.575513

>  <r_i_glide_gscore>  (390) 
-2.60498

>  <r_i_glide_lipo>  (390) 
-0.64181

>  <r_i_glide_hbond>  (390) 
-0.0464977

>  <r_i_glide_metal>  (390) 
-0

>  <r_i_glide_rewards>  (390) 
-0.330501

>  <r_i_glide_evdw>  (390) 
-34.0028

>  <r_i_glide_ecoul>  (390) 
-2.39109

>  <r_i_glide_erotb>  (390) 
0.472633

>  <r_i_glide_esite>  (390) 
0

>  <r_i_glide_emodel>  (390) 
-41.391

>  <r_i_glide_energy>  (390) 
-36.3939

>  <r_i_glide_einternal>  (390) 
2.04495

>  <r_i_glide_intrahb_reward>  (390) 
-0

>  <i_i_glide_confnum>  (390) 
4

>  <i_i_glide_posenum>  (390) 
27

>  <r_i_glide_eff_state_penalty>  (390) 
0

>  <ligand_id>  (390) 
95

>  <original_smiles>  (390) 
O=C(Cc1ccccn1)NC1CCC2(O)C3Cc4ccc(O)c5c4C2(CCN3CC2CC2)C1O5

>  <smiles>  (390) 
[H]Oc1c([H])c([H])c2c3c1OC1([H])C([H])(N([H])C(=O)C([H])([H])c4nc([H])c([H])c([H])c4[H])C([H])([H])C([H])([H])C4(O[H])C([H])(N(C([H])([H])C5([H])C([H])([H])C5([H])[H])C([H])([H])C([H])([H])C314)C2([H])[H]

$$$$
95:1:2
     RDKit          3D

 65 71  0  0  1  0  0  0  0  0999 V2000
   -1.7123   -3.9512    6.8872 O   0  0  0  0  0  0  0  0  0  0  0  0
   -0.5418   -4.0981    6.5307 C   0  0  0  0  0  0  0  0  0  0  0  0
    0.0826   -5.5013    6.5067 C   0  0  0  0  0  0  0  0  0  0  0  0
    0.0532   -6.1088    5.1122 C   0  0  0  0  0  0  0  0  0  0  0  0
    1.0811   -5.8258    4.1899 C   0  0  0  0  0  0  0  0  0  0  0  0
    1.0244   -6.4152    2.9151 C   0  0  0  0  0  0  0  0  0  0  0  0
   -0.0555   -7.2628    2.6073 C   0  0  0  0  0  0  0  0  0  0  0  0
   -1.0245   -7.5009    3.6020 C   0  0  0  0  0  0  0  0  0  0  0  0
   -0.9875   -6.9205    4.8198 N   0  0  0  0  0  0  0  0  0  0  0  0
    0.2361   -3.0694    6.1581 N   0  0  0  0  0  0  0  0  0  0  0  0
   -0.1600   -1.6616    6.1496 C   0  0  2  0  0  0  0  0  0  0  0  0
   -0.2906   -1.1193    4.6910 C   0  0  0  0  0  0  0  0  0  0  0  0
   -0.1749    0.4305    4.5321 C   0  0  0  0  0  0  0  0  0  0  0  0
   -0.4400    1.1814    5.8578 C   0  0  2  0  0  0  0  0  0  0  0  0
   -1.7815    0.8070    6.1790 O   0  0  0  0  0  0  0  0  0  0  0  0
   -0.4191    2.7537    5.9361 C   0  0  1  0  0  0  0  0  0  0  0  0
   -0.8607    3.2400    7.3516 C   0  0  0  0  0  0  0  0  0  0  0  0
   -0.5288    2.3328    8.5506 C   0  0  0  0  0  0  0  0  0  0  0  0
   -0.9313    2.4934    9.8903 C   0  0  0  0  0  0  0  0  0  0  0  0
   -0.7198    1.4388   10.8180 C   0  0  0  0  0  0  0  0  0  0  0  0
   -0.1830    0.1962   10.4035 C   0  0  0  0  0  0  0  0  0  0  0  0
   -0.1605   -0.8507   11.2772 O   0  0  0  0  0  0  0  0  0  0  0  0
    0.2276    0.0112    9.0658 C   0  0  0  0  0  0  0  0  0  0  0  0
    0.0928    1.1087    8.2386 C   0  0  0  0  0  0  0  0  0  0  0  0
    0.5979    0.7069    6.8947 C   0  0  2  0  0  0  0  0  0  0  0  0
    1.9854    1.3457    6.5864 C   0  0  0  0  0  0  0  0  0  0  0  0
    1.9414    2.8730    6.5027 C   0  0  0  0  0  0  0  0  0  0  0  0
    0.8727    3.3870    5.6350 N   0  0  0  0  0  0  0  0  0  0  0  0
    1.1824    3.5182    4.2124 C   0  0  0  0  0  0  0  0  0  0  0  0
    2.3014    4.4969    3.8933 C   0  0  0  0  0  0  0  0  0  0  0  0
    2.0051    5.7768    3.1470 C   0  0  0  0  0  0  0  0  0  0  0  0
    2.7469    4.6606    2.4616 C   0  0  0  0  0  0  0  0  0  0  0  0
    0.8089   -0.8358    7.0308 C   0  0  1  0  0  0  0  0  0  0  0  0
    0.6600   -1.1275    8.4377 O   0  0  0  0  0  0  0  0  0  0  0  0
    1.1114   -5.4636    6.8688 H   0  0  0  0  0  0  0  0  0  0  0  0
   -0.4530   -6.1443    7.2066 H   0  0  0  0  0  0  0  0  0  0  0  0
    1.9055   -5.1838    4.4654 H   0  0  0  0  0  0  0  0  0  0  0  0
    1.8024   -6.2264    2.1904 H   0  0  0  0  0  0  0  0  0  0  0  0
   -0.1316   -7.7471    1.6431 H   0  0  0  0  0  0  0  0  0  0  0  0
   -1.8585   -8.1575    3.4117 H   0  0  0  0  0  0  0  0  0  0  0  0
    1.2048   -3.2610    5.9588 H   0  0  0  0  0  0  0  0  0  0  0  0
   -1.1463   -1.5658    6.6007 H   0  0  0  0  0  0  0  0  0  0  0  0
    0.4429   -1.5967    4.0357 H   0  0  0  0  0  0  0  0  0  0  0  0
   -1.2633   -1.4352    4.3101 H   0  0  0  0  0  0  0  0  0  0  0  0
    0.8317    0.6296    4.1735 H   0  0  0  0  0  0  0  0  0  0  0  0
   -0.8405    0.7783    3.7403 H   0  0  0  0  0  0  0  0  0  0  0  0
   -2.3455    1.1466    5.4977 H   0  0  0  0  0  0  0  0  0  0  0  0
   -1.1483    3.1501    5.2315 H   0  0  0  0  0  0  0  0  0  0  0  0
   -0.4599    4.2377    7.5501 H   0  0  0  0  0  0  0  0  0  0  0  0
   -1.9415    3.3446    7.3478 H   0  0  0  0  0  0  0  0  0  0  0  0
   -1.4434    3.3891   10.2079 H   0  0  0  0  0  0  0  0  0  0  0  0
   -1.0459    1.5676   11.8392 H   0  0  0  0  0  0  0  0  0  0  0  0
   -0.6829   -0.6795   12.0540 H   0  0  0  0  0  0  0  0  0  0  0  0
    2.7220    1.0535    7.3361 H   0  0  0  0  0  0  0  0  0  0  0  0
    2.3769    0.9661    5.6421 H   0  0  0  0  0  0  0  0  0  0  0  0
    1.7998    3.2594    7.5137 H   0  0  0  0  0  0  0  0  0  0  0  0
    2.9209    3.2335    6.1955 H   0  0  0  0  0  0  0  0  0  0  0  0
    1.4408    2.5595    3.7752 H   0  0  0  0  0  0  0  0  0  0  0  0
    0.2906    3.8632    3.6816 H   0  0  0  0  0  0  0  0  0  0  0  0
    3.1242    4.5422    4.6097 H   0  0  0  0  0  0  0  0  0  0  0  0
    0.9687    5.9574    2.8577 H   0  0  0  0  0  0  0  0  0  0  0  0
    2.5692    6.6544    3.4581 H   0  0  0  0  0  0  0  0  0  0  0  0
    3.8128    4.7922    2.2904 H   0  0  0  0  0  0  0  0  0  0  0  0
    2.2149    4.0915    1.6985 H   0  0  0  0  0  0  0  0  0  0  0  0
    1.8300   -1.0982    6.7461 H   0  0  0  0  0  0  0  0  0  0  0  0
  1  2  2  0
  2  3  1  0
  2 10  1  0
  3  4  1  0
  3 35  1  0
  3 36  1  0
  4  9  1  0
  4  5  2  0
  5  6  1  0
  5 37  1  0
  6  7  2  0
  6 38  1  0
  7  8  1  0
  7 39  1  0
  8  9  2  0
  8 40  1  0
 10 11  1  0
 10 41  1  0
 11 33  1  0
 11 12  1  0
 11 42  1  1
 12 13  1  0
 12 43  1  0
 12 44  1  0
 13 14  1  0
 13 45  1  0
 13 46  1  0
 14 25  1  0
 14 15  1  1
 14 16  1  0
 15 47  1  0
 16 28  1  0
 16 17  1  0
 16 48  1  6
 17 18  1  0
 17 49  1  0
 17 50  1  0
 18 24  2  0
 18 19  1  0
 19 20  2  0
 19 51  1  0
 20 21  1  0
 20 52  1  0
 21 22  1  0
 21 23  2  0
 22 53  1  0
 23 34  1  0
 23 24  1  0
 24 25  1  0
 25 26  1  6
 25 33  1  0
 26 27  1  0
 26 54  1  0
 26 55  1  0
 27 28  1  0
 27 56  1  0
 27 57  1  0
 28 29  1  0
 29 30  1  0
 29 58  1  0
 29 59  1  0
 30 32  1  0
 30 31  1  0
 30 60  1  0
 31 32  1  0
 31 61  1  0
 31 62  1  0
 32 63  1  0
 32 64  1  0
 33 34  1  0
 33 65  1  6
M  END
>  <i_m_ct_stereo_status>  (391) 
1

>  <s_m_source_file>  (391) 
/var/tmp/pbs.5102103.sched01/tmpr2ljwd0b/132iqlgd2x9.sdf

>  <i_m_source_file_index>  (391) 
19

>  <i_lp_mmshare_version>  (391) 
48012

>  <i_f3d_flags>  (391) 
0

>  <s_epik_input>  (391) 
bjFbY0hdW2NIXVtjSF1bY0hdYzFbQ0gyXUMoPU8pW05IXVtDQEhdKFtDSDJdW0NIMl0yKVtDQEBIXTNPYyhjKFtPSF0pW2NIXVtjSF00KWM1YzRbQ0gyXVtDQEhdKFtDQEBdMihbQ0BdMzU2KVtPSF0pTihbQ0gyXVtDSDJdNilbQ0gyXVtDSF03W0NIMl1bQ0gyXTc=

>  <s_epik_cmdline>  (391) 
J2VwaWtfcHl0aG9uJywgJy1waHQnLCAnMi4wJywgJy1waCcsICc3LjAnLCAnLXRuJywgJzgnLCAnLW1hJywgJzIwMCcsICctaW1hZScsICc8aW5maWxlLm1hZT4nLCAnLW9tYWUnLCAnPG91dGZpbGUubWFlPic=

>  <r_lp_tautomer_probability>  (391) 
1

>  <r_epik_Ionization_Penalty>  (391) 
1.78077

>  <r_epik_Ionization_Penalty_Charging>  (391) 
0

>  <r_epik_Ionization_Penalty_Neutral>  (391) 
1.78077

>  <r_epik_State_Penalty>  (391) 
1.89794

>  <r_epik_Charging_Adjusted_Penalty>  (391) 
1.89794

>  <i_epik_Tot_Q>  (391) 
0

>  <i_epik_Tot_abs_Q>  (391) 
0

>  <s_lp_Force_Field>  (391) 
OPLS3e

>  <r_lp_Energy>  (391) 
97.8421

>  <b_lp_Chiralities_Consistent>  (391) 
1

>  <s_lp_Variant>  (391) 
95:0-2

>  <s_i_glide_gridfile>  (391) 
pfpi4k_grid

>  <i_i_glide_lignum>  (391) 
19

>  <i_i_glide_rotatable_bonds>  (391) 
8

>  <r_i_docking_score>  (391) 
-2.46694

>  <r_i_glide_ligand_efficiency>  (391) 
-0.0725571

>  <r_i_glide_ligand_efficiency_sa>  (391) 
-0.235057

>  <r_i_glide_ligand_efficiency_ln>  (391) 
-0.545017

>  <r_i_glide_gscore>  (391) 
-2.46694

>  <r_i_glide_lipo>  (391) 
-0.00114856

>  <r_i_glide_hbond>  (391) 
-0.0460696

>  <r_i_glide_metal>  (391) 
-0

>  <r_i_glide_rewards>  (391) 
-0.26214

>  <r_i_glide_evdw>  (391) 
-26.9701

>  <r_i_glide_ecoul>  (391) 
-8.35561

>  <r_i_glide_erotb>  (391) 
0.472633

>  <r_i_glide_esite>  (391) 
-0.0283678

>  <r_i_glide_emodel>  (391) 
-40.6427

>  <r_i_glide_energy>  (391) 
-35.3257

>  <r_i_glide_einternal>  (391) 
1.38209

>  <r_i_glide_intrahb_reward>  (391) 
-0

>  <i_i_glide_confnum>  (391) 
4

>  <i_i_glide_posenum>  (391) 
14

>  <r_i_glide_eff_state_penalty>  (391) 
0

>  <ligand_id>  (391) 
95

>  <original_smiles>  (391) 
O=C(Cc1ccccn1)NC1CCC2(O)C3Cc4ccc(O)c5c4C2(CCN3CC2CC2)C1O5

>  <smiles>  (391) 
[H]Oc1c([H])c([H])c2c3c1OC1([H])C([H])(N([H])C(=O)C([H])([H])c4nc([H])c([H])c([H])c4[H])C([H])([H])C([H])([H])C4(O[H])C([H])(N(C([H])([H])C5([H])C([H])([H])C5([H])[H])C([H])([H])C([H])([H])C314)C2([H])[H]

$$$$
95:2:0
     RDKit          3D

 65 71  0  0  1  0  0  0  0  0999 V2000
   -1.0928    3.7514    4.1918 O   0  0  0  0  0  0  0  0  0  0  0  0
   -1.7942    2.9041    3.6351 C   0  0  0  0  0  0  0  0  0  0  0  0
   -3.2998    3.1615    3.4047 C   0  0  0  0  0  0  0  0  0  0  0  0
   -3.6113    4.3275    2.4760 C   0  0  0  0  0  0  0  0  0  0  0  0
   -4.7893    4.3698    1.6923 C   0  0  0  0  0  0  0  0  0  0  0  0
   -5.0449    5.5035    0.8843 C   0  0  0  0  0  0  0  0  0  0  0  0
   -4.1082    6.5606    0.8727 C   0  0  0  0  0  0  0  0  0  0  0  0
   -2.9597    6.4219    1.6760 C   0  0  0  0  0  0  0  0  0  0  0  0
   -2.7430    5.3543    2.4807 N   0  0  0  0  0  0  0  0  0  0  0  0
   -1.3055    1.7258    3.2348 N   0  0  0  0  0  0  0  0  0  0  0  0
    0.1076    1.3524    3.3505 C   0  0  2  0  0  0  0  0  0  0  0  0
    0.8708    1.6813    2.0315 C   0  0  0  0  0  0  0  0  0  0  0  0
    2.2542    0.9945    1.8325 C   0  0  0  0  0  0  0  0  0  0  0  0
    2.7295    0.2200    3.0721 C   0  0  2  0  0  0  0  0  0  0  0  0
    3.0188    1.2494    4.0045 O   0  0  0  0  0  0  0  0  0  0  0  0
    4.0350   -0.6274    2.9814 C   0  0  1  0  0  0  0  0  0  0  0  0
    4.4012   -1.2807    4.3596 C   0  0  0  0  0  0  0  0  0  0  0  0
    3.2540   -1.5854    5.3360 C   0  0  0  0  0  0  0  0  0  0  0  0
    3.3655   -1.9847    6.6850 C   0  0  0  0  0  0  0  0  0  0  0  0
    2.1962   -1.9522    7.5009 C   0  0  0  0  0  0  0  0  0  0  0  0
    0.9435   -1.4690    7.0226 C   0  0  0  0  0  0  0  0  0  0  0  0
   -0.1413   -1.3860    7.8584 O   0  0  0  0  0  0  0  0  0  0  0  0
    0.8330   -1.0439    5.6810 C   0  0  0  0  0  0  0  0  0  0  0  0
    1.9738   -1.2033    4.9058 C   0  0  0  0  0  0  0  0  0  0  0  0
    1.6268   -0.7480    3.5265 C   0  0  2  0  0  0  0  0  0  0  0  0
    1.5204   -1.9282    2.5220 C   0  0  0  0  0  0  0  0  0  0  0  0
    2.8401   -2.6493    2.2541 C   0  0  0  0  0  0  0  0  0  0  0  0
    3.9104   -1.6784    1.9308 N   0  0  2  0  0  0  0  0  0  0  0  0
    5.1978   -2.3290    1.5588 C   0  0  0  0  0  0  0  0  0  0  0  0
    5.1912   -2.8769    0.1459 C   0  0  0  0  0  0  0  0  0  0  0  0
    5.0955   -4.3587   -0.1187 C   0  0  0  0  0  0  0  0  0  0  0  0
    6.3949   -3.6339   -0.3727 C   0  0  0  0  0  0  0  0  0  0  0  0
    0.2041   -0.1411    3.6980 C   0  0  1  0  0  0  0  0  0  0  0  0
   -0.2128   -0.4431    5.0363 O   0  0  0  0  0  0  0  0  0  0  0  0
   -3.7873    2.2814    3.0011 H   0  0  0  0  0  0  0  0  0  0  0  0
   -3.7756    3.3429    4.3676 H   0  0  0  0  0  0  0  0  0  0  0  0
   -5.4983    3.5518    1.7203 H   0  0  0  0  0  0  0  0  0  0  0  0
   -5.9251    5.5524    0.2612 H   0  0  0  0  0  0  0  0  0  0  0  0
   -4.2325    7.4353    0.2355 H   0  0  0  0  0  0  0  0  0  0  0  0
   -2.1942    7.1947    1.6964 H   0  0  0  0  0  0  0  0  0  0  0  0
   -1.9825    1.0372    2.9325 H   0  0  0  0  0  0  0  0  0  0  0  0
    0.5435    1.9289    4.1746 H   0  0  0  0  0  0  0  0  0  0  0  0
    0.2523    1.4690    1.1562 H   0  0  0  0  0  0  0  0  0  0  0  0
    1.0168    2.7557    2.0121 H   0  0  0  0  0  0  0  0  0  0  0  0
    2.1869    0.3238    0.9774 H   0  0  0  0  0  0  0  0  0  0  0  0
    3.0009    1.7451    1.5767 H   0  0  0  0  0  0  0  0  0  0  0  0
    2.2667    1.8180    4.0797 H   0  0  0  0  0  0  0  0  0  0  0  0
    4.8542    0.0248    2.6821 H   0  0  0  0  0  0  0  0  0  0  0  0
    4.9954   -2.1832    4.2422 H   0  0  0  0  0  0  0  0  0  0  0  0
    5.0583   -0.5913    4.8846 H   0  0  0  0  0  0  0  0  0  0  0  0
    4.3369   -2.2555    7.1000 H   0  0  0  0  0  0  0  0  0  0  0  0
    2.2907   -2.2489    8.5313 H   0  0  0  0  0  0  0  0  0  0  0  0
    0.7829   -2.6494    2.8607 H   0  0  0  0  0  0  0  0  0  0  0  0
    1.1418   -1.5692    1.5680 H   0  0  0  0  0  0  0  0  0  0  0  0
    3.1088   -3.2620    3.1094 H   0  0  0  0  0  0  0  0  0  0  0  0
    2.7227   -3.3533    1.4364 H   0  0  0  0  0  0  0  0  0  0  0  0
    6.0200   -1.6187    1.6348 H   0  0  0  0  0  0  0  0  0  0  0  0
    5.4438   -3.1352    2.2452 H   0  0  0  0  0  0  0  0  0  0  0  0
    4.7419   -2.2152   -0.5850 H   0  0  0  0  0  0  0  0  0  0  0  0
    5.0423   -5.0206    0.7420 H   0  0  0  0  0  0  0  0  0  0  0  0
    4.5221   -4.6779   -0.9860 H   0  0  0  0  0  0  0  0  0  0  0  0
    6.6817   -3.5084   -1.4145 H   0  0  0  0  0  0  0  0  0  0  0  0
    7.2219   -3.8374    0.3044 H   0  0  0  0  0  0  0  0  0  0  0  0
   -0.5219   -0.6524    3.0741 H   0  0  0  0  0  0  0  0  0  0  0  0
    3.6071   -1.1954    1.0998 H   0  0  0  0  0  0  0  0  0  0  0  0
  1  2  2  0
  2  3  1  0
  2 10  1  0
  3  4  1  0
  3 35  1  0
  3 36  1  0
  4  9  1  0
  4  5  2  0
  5  6  1  0
  5 37  1  0
  6  7  2  0
  6 38  1  0
  7  8  1  0
  7 39  1  0
  8  9  2  0
  8 40  1  0
 10 11  1  0
 10 41  1  0
 11 33  1  0
 11 12  1  0
 11 42  1  1
 12 13  1  0
 12 43  1  0
 12 44  1  0
 13 14  1  0
 13 45  1  0
 13 46  1  0
 14 25  1  0
 14 15  1  1
 14 16  1  0
 15 47  1  0
 16 28  1  0
 16 17  1  0
 16 48  1  6
 17 18  1  0
 17 49  1  0
 17 50  1  0
 18 24  2  0
 18 19  1  0
 19 20  2  0
 19 51  1  0
 20 21  1  0
 20 52  1  0
 21 22  1  0
 21 23  2  0
 23 34  1  0
 23 24  1  0
 24 25  1  0
 25 26  1  6
 25 33  1  0
 26 27  1  0
 26 53  1  0
 26 54  1  0
 27 28  1  0
 27 55  1  0
 27 56  1  0
 28 29  1  0
 28 65  1  6
 29 30  1  0
 29 57  1  0
 29 58  1  0
 30 32  1  0
 30 31  1  0
 30 59  1  0
 31 32  1  0
 31 60  1  0
 31 61  1  0
 32 62  1  0
 32 63  1  0
 33 34  1  0
 33 64  1  6
M  CHG  2  22  -1  28   1
M  END
>  <i_m_ct_stereo_status>  (392) 
1

>  <s_m_source_file>  (392) 
/var/tmp/pbs.5102103.sched01/tmpr2ljwd0b/132iqlgd2x9.sdf

>  <i_m_source_file_index>  (392) 
20

>  <i_lp_mmshare_version>  (392) 
48012

>  <i_f3d_flags>  (392) 
0

>  <s_epik_input>  (392) 
bjFbY0hdW2NIXVtjSF1bY0hdYzFbQ0gyXUMoPU8pW05IXVtDQEhdKFtDSDJdW0NIMl0yKVtDQEBIXTNPYyhjKFtPSF0pW2NIXVtjSF00KWM1YzRbQ0gyXVtDQEhdKFtDQEBdMihbQ0BdMzU2KVtPSF0pTihbQ0gyXVtDSDJdNilbQ0gyXVtDSF03W0NIMl1bQ0gyXTc=

>  <s_epik_cmdline>  (392) 
J2VwaWtfcHl0aG9uJywgJy1waHQnLCAnMi4wJywgJy1waCcsICc3LjAnLCAnLXRuJywgJzgnLCAnLW1hJywgJzIwMCcsICctaW1hZScsICc8aW5maWxlLm1hZT4nLCAnLW9tYWUnLCAnPG91dGZpbGUubWFlPic=

>  <r_epik_Ionization_Penalty>  (392) 
2.34933

>  <r_epik_Ionization_Penalty_Charging>  (392) 
2.34676

>  <r_epik_Ionization_Penalty_Neutral>  (392) 
0.00257628

>  <r_epik_State_Penalty>  (392) 
2.49554

>  <r_epik_Charging_Adjusted_Penalty>  (392) 
4.84229

>  <i_epik_Tot_Q>  (392) 
0

>  <i_epik_Tot_abs_Q>  (392) 
2

>  <s_lp_Force_Field>  (392) 
OPLS3e

>  <r_lp_Energy>  (392) 
85.4523

>  <b_lp_Chiralities_Consistent>  (392) 
1

>  <s_lp_Variant>  (392) 
95:0-3

>  <s_i_glide_gridfile>  (392) 
pfpi4k_grid

>  <i_i_glide_lignum>  (392) 
20

>  <i_i_glide_rotatable_bonds>  (392) 
7

>  <r_i_docking_score>  (392) 
-4.19808

>  <r_i_glide_ligand_efficiency>  (392) 
-0.123473

>  <r_i_glide_ligand_efficiency_sa>  (392) 
-0.400005

>  <r_i_glide_ligand_efficiency_ln>  (392) 
-0.927474

>  <r_i_glide_gscore>  (392) 
-4.19808

>  <r_i_glide_lipo>  (392) 
-0.812863

>  <r_i_glide_hbond>  (392) 
-0.444162

>  <r_i_glide_metal>  (392) 
-0

>  <r_i_glide_rewards>  (392) 
-0.56214

>  <r_i_glide_evdw>  (392) 
-18.2172

>  <r_i_glide_ecoul>  (392) 
-12.4171

>  <r_i_glide_erotb>  (392) 
0.472633

>  <r_i_glide_esite>  (392) 
-0.0781215

>  <r_i_glide_emodel>  (392) 
-43.1051

>  <r_i_glide_energy>  (392) 
-30.6343

>  <r_i_glide_einternal>  (392) 
3.02173

>  <r_i_glide_intrahb_reward>  (392) 
-0

>  <i_i_glide_confnum>  (392) 
1

>  <i_i_glide_posenum>  (392) 
32

>  <r_i_glide_eff_state_penalty>  (392) 
0

>  <ligand_id>  (392) 
95

>  <original_smiles>  (392) 
O=C(Cc1ccccn1)NC1CCC2(O)C3Cc4ccc(O)c5c4C2(CCN3CC2CC2)C1O5

>  <smiles>  (392) 
[H]OC12C([H])([H])C([H])([H])C([H])(N([H])C(=O)C([H])([H])c3nc([H])c([H])c([H])c3[H])C3([H])Oc4c([O-])c([H])c([H])c5c4C31C([H])([H])C([H])([H])[N+]([H])(C([H])([H])C1([H])C([H])([H])C1([H])[H])C2([H])C5([H])[H]

$$$$
95:2:1
     RDKit          3D

 65 71  0  0  1  0  0  0  0  0999 V2000
    5.3007   -4.0687    1.2422 O   0  0  0  0  0  0  0  0  0  0  0  0
    5.5320   -3.0197    0.6387 C   0  0  0  0  0  0  0  0  0  0  0  0
    6.2852   -3.0504   -0.7044 C   0  0  0  0  0  0  0  0  0  0  0  0
    5.3809   -2.6249   -1.8576 C   0  0  0  0  0  0  0  0  0  0  0  0
    4.8541   -3.5661   -2.7664 C   0  0  0  0  0  0  0  0  0  0  0  0
    3.9778   -3.1262   -3.7740 C   0  0  0  0  0  0  0  0  0  0  0  0
    3.6672   -1.7569   -3.8472 C   0  0  0  0  0  0  0  0  0  0  0  0
    4.2378   -0.8933   -2.8944 C   0  0  0  0  0  0  0  0  0  0  0  0
    5.0971   -1.3056   -1.9382 N   0  0  0  0  0  0  0  0  0  0  0  0
    5.1146   -1.8187    1.0732 N   0  0  0  0  0  0  0  0  0  0  0  0
    4.0984   -1.5868    2.0979 C   0  0  2  0  0  0  0  0  0  0  0  0
    2.6810   -1.9098    1.5110 C   0  0  0  0  0  0  0  0  0  0  0  0
    1.4473   -1.3405    2.2941 C   0  0  0  0  0  0  0  0  0  0  0  0
    1.8428   -0.6740    3.6236 C   0  0  2  0  0  0  0  0  0  0  0  0
    2.2885   -1.7498    4.4452 O   0  0  0  0  0  0  0  0  0  0  0  0
    0.7377    0.0707    4.4471 C   0  0  1  0  0  0  0  0  0  0  0  0
    1.3241    0.6093    5.8031 C   0  0  0  0  0  0  0  0  0  0  0  0
    2.8212    0.9606    5.8647 C   0  0  0  0  0  0  0  0  0  0  0  0
    3.5884    1.2784    7.0040 C   0  0  0  0  0  0  0  0  0  0  0  0
    5.0006    1.3021    6.8998 C   0  0  0  0  0  0  0  0  0  0  0  0
    5.6594    0.9399    5.6978 C   0  0  0  0  0  0  0  0  0  0  0  0
    7.0231    0.9344    5.6437 O   0  0  0  0  0  0  0  0  0  0  0  0
    4.9069    0.6026    4.5465 C   0  0  0  0  0  0  0  0  0  0  0  0
    3.5441    0.7157    4.6857 C   0  0  0  0  0  0  0  0  0  0  0  0
    2.9451    0.3665    3.3598 C   0  0  2  0  0  0  0  0  0  0  0  0
    2.3319    1.6123    2.6363 C   0  0  0  0  0  0  0  0  0  0  0  0
    1.1102    2.2256    3.3377 C   0  0  0  0  0  0  0  0  0  0  0  0
    0.1181    1.1719    3.6527 N   0  0  2  0  0  0  0  0  0  0  0  0
   -1.1291    1.7062    4.2639 C   0  0  0  0  0  0  0  0  0  0  0  0
   -1.9611    2.4713    3.2562 C   0  0  0  0  0  0  0  0  0  0  0  0
   -2.1523    3.9788    3.3902 C   0  0  0  0  0  0  0  0  0  0  0  0
   -3.2944    3.0535    3.6862 C   0  0  0  0  0  0  0  0  0  0  0  0
    4.1763   -0.1137    2.5226 C   0  0  1  0  0  0  0  0  0  0  0  0
    5.3398    0.1319    3.3349 O   0  0  0  0  0  0  0  0  0  0  0  0
    7.1930   -2.4394   -0.6857 H   0  0  0  0  0  0  0  0  0  0  0  0
    6.6096   -4.0758   -0.8640 H   0  0  0  0  0  0  0  0  0  0  0  0
    5.0775   -4.6192   -2.6785 H   0  0  0  0  0  0  0  0  0  0  0  0
    3.5543   -3.8310   -4.4729 H   0  0  0  0  0  0  0  0  0  0  0  0
    3.0000   -1.3725   -4.6039 H   0  0  0  0  0  0  0  0  0  0  0  0
    4.0252    0.1632   -2.9075 H   0  0  0  0  0  0  0  0  0  0  0  0
    5.4021   -1.0082    0.5395 H   0  0  0  0  0  0  0  0  0  0  0  0
    4.3126   -2.2319    2.9561 H   0  0  0  0  0  0  0  0  0  0  0  0
    2.6396   -1.5556    0.4779 H   0  0  0  0  0  0  0  0  0  0  0  0
    2.5678   -2.9916    1.4258 H   0  0  0  0  0  0  0  0  0  0  0  0
    0.9163   -0.6267    1.6547 H   0  0  0  0  0  0  0  0  0  0  0  0
    0.7392   -2.1491    2.4935 H   0  0  0  0  0  0  0  0  0  0  0  0
    1.6098   -2.4019    4.4911 H   0  0  0  0  0  0  0  0  0  0  0  0
   -0.0601   -0.6485    4.6718 H   0  0  0  0  0  0  0  0  0  0  0  0
    0.7370    1.4482    6.1841 H   0  0  0  0  0  0  0  0  0  0  0  0
    1.1910   -0.1989    6.5218 H   0  0  0  0  0  0  0  0  0  0  0  0
    3.1039    1.4455    7.9537 H   0  0  0  0  0  0  0  0  0  0  0  0
    5.5863    1.5521    7.7645 H   0  0  0  0  0  0  0  0  0  0  0  0
    3.0730    2.4042    2.5159 H   0  0  0  0  0  0  0  0  0  0  0  0
    2.0397    1.3254    1.6194 H   0  0  0  0  0  0  0  0  0  0  0  0
    1.4398    2.7569    4.2333 H   0  0  0  0  0  0  0  0  0  0  0  0
    0.6519    2.9602    2.6752 H   0  0  0  0  0  0  0  0  0  0  0  0
   -1.7485    0.8929    4.6324 H   0  0  0  0  0  0  0  0  0  0  0  0
   -0.9175    2.3641    5.1092 H   0  0  0  0  0  0  0  0  0  0  0  0
   -1.9694    2.0487    2.2446 H   0  0  0  0  0  0  0  0  0  0  0  0
   -1.6640    4.4830    4.2263 H   0  0  0  0  0  0  0  0  0  0  0  0
   -2.1851    4.5419    2.4574 H   0  0  0  0  0  0  0  0  0  0  0  0
   -4.1023    3.0292    2.9570 H   0  0  0  0  0  0  0  0  0  0  0  0
   -3.5960    2.9416    4.7266 H   0  0  0  0  0  0  0  0  0  0  0  0
    4.2494    0.4999    1.6193 H   0  0  0  0  0  0  0  0  0  0  0  0
   -0.1510    0.7632    2.7609 H   0  0  0  0  0  0  0  0  0  0  0  0
  1  2  2  0
  2  3  1  0
  2 10  1  0
  3  4  1  0
  3 35  1  0
  3 36  1  0
  4  9  1  0
  4  5  2  0
  5  6  1  0
  5 37  1  0
  6  7  2  0
  6 38  1  0
  7  8  1  0
  7 39  1  0
  8  9  2  0
  8 40  1  0
 10 11  1  0
 10 41  1  0
 11 33  1  0
 11 12  1  0
 11 42  1  1
 12 13  1  0
 12 43  1  0
 12 44  1  0
 13 14  1  0
 13 45  1  0
 13 46  1  0
 14 25  1  0
 14 15  1  1
 14 16  1  0
 15 47  1  0
 16 28  1  0
 16 17  1  0
 16 48  1  1
 17 18  1  0
 17 49  1  0
 17 50  1  0
 18 24  2  0
 18 19  1  0
 19 20  2  0
 19 51  1  0
 20 21  1  0
 20 52  1  0
 21 22  1  0
 21 23  2  0
 23 34  1  0
 23 24  1  0
 24 25  1  0
 25 26  1  6
 25 33  1  0
 26 27  1  0
 26 53  1  0
 26 54  1  0
 27 28  1  0
 27 55  1  0
 27 56  1  0
 28 29  1  0
 28 65  1  6
 29 30  1  0
 29 57  1  0
 29 58  1  0
 30 32  1  0
 30 31  1  0
 30 59  1  0
 31 32  1  0
 31 60  1  0
 31 61  1  0
 32 62  1  0
 32 63  1  0
 33 34  1  0
 33 64  1  6
M  CHG  2  22  -1  28   1
M  END
>  <i_m_ct_stereo_status>  (393) 
1

>  <s_m_source_file>  (393) 
/var/tmp/pbs.5102103.sched01/tmpr2ljwd0b/132iqlgd2x9.sdf

>  <i_m_source_file_index>  (393) 
20

>  <i_lp_mmshare_version>  (393) 
48012

>  <i_f3d_flags>  (393) 
0

>  <s_epik_input>  (393) 
bjFbY0hdW2NIXVtjSF1bY0hdYzFbQ0gyXUMoPU8pW05IXVtDQEhdKFtDSDJdW0NIMl0yKVtDQEBIXTNPYyhjKFtPSF0pW2NIXVtjSF00KWM1YzRbQ0gyXVtDQEhdKFtDQEBdMihbQ0BdMzU2KVtPSF0pTihbQ0gyXVtDSDJdNilbQ0gyXVtDSF03W0NIMl1bQ0gyXTc=

>  <s_epik_cmdline>  (393) 
J2VwaWtfcHl0aG9uJywgJy1waHQnLCAnMi4wJywgJy1waCcsICc3LjAnLCAnLXRuJywgJzgnLCAnLW1hJywgJzIwMCcsICctaW1hZScsICc8aW5maWxlLm1hZT4nLCAnLW9tYWUnLCAnPG91dGZpbGUubWFlPic=

>  <r_epik_Ionization_Penalty>  (393) 
2.34933

>  <r_epik_Ionization_Penalty_Charging>  (393) 
2.34676

>  <r_epik_Ionization_Penalty_Neutral>  (393) 
0.00257628

>  <r_epik_State_Penalty>  (393) 
2.49554

>  <r_epik_Charging_Adjusted_Penalty>  (393) 
4.84229

>  <i_epik_Tot_Q>  (393) 
0

>  <i_epik_Tot_abs_Q>  (393) 
2

>  <s_lp_Force_Field>  (393) 
OPLS3e

>  <r_lp_Energy>  (393) 
85.4523

>  <b_lp_Chiralities_Consistent>  (393) 
1

>  <s_lp_Variant>  (393) 
95:0-3

>  <s_i_glide_gridfile>  (393) 
pfpi4k_grid

>  <i_i_glide_lignum>  (393) 
20

>  <i_i_glide_rotatable_bonds>  (393) 
7

>  <r_i_docking_score>  (393) 
-3.00258

>  <r_i_glide_ligand_efficiency>  (393) 
-0.0883112

>  <r_i_glide_ligand_efficiency_sa>  (393) 
-0.286094

>  <r_i_glide_ligand_efficiency_ln>  (393) 
-0.663354

>  <r_i_glide_gscore>  (393) 
-3.00258

>  <r_i_glide_lipo>  (393) 
-0.669444

>  <r_i_glide_hbond>  (393) 
-0.0551194

>  <r_i_glide_metal>  (393) 
-0

>  <r_i_glide_rewards>  (393) 
-0.331529

>  <r_i_glide_evdw>  (393) 
-34.4274

>  <r_i_glide_ecoul>  (393) 
-4.48955

>  <r_i_glide_erotb>  (393) 
0.472633

>  <r_i_glide_esite>  (393) 
-0.0243181

>  <r_i_glide_emodel>  (393) 
-46.8808

>  <r_i_glide_energy>  (393) 
-38.917

>  <r_i_glide_einternal>  (393) 
4.04092

>  <r_i_glide_intrahb_reward>  (393) 
-0

>  <i_i_glide_confnum>  (393) 
1

>  <i_i_glide_posenum>  (393) 
3

>  <r_i_glide_eff_state_penalty>  (393) 
0

>  <ligand_id>  (393) 
95

>  <original_smiles>  (393) 
O=C(Cc1ccccn1)NC1CCC2(O)C3Cc4ccc(O)c5c4C2(CCN3CC2CC2)C1O5

>  <smiles>  (393) 
[H]OC12C([H])([H])C([H])([H])C([H])(N([H])C(=O)C([H])([H])c3nc([H])c([H])c([H])c3[H])C3([H])Oc4c([O-])c([H])c([H])c5c4C31C([H])([H])C([H])([H])[N+]([H])(C([H])([H])C1([H])C([H])([H])C1([H])[H])C2([H])C5([H])[H]

$$$$
95:2:2
     RDKit          3D

 65 71  0  0  1  0  0  0  0  0999 V2000
    5.3435   -4.1141    1.4443 O   0  0  0  0  0  0  0  0  0  0  0  0
    5.5424   -3.0996    0.7736 C   0  0  0  0  0  0  0  0  0  0  0  0
    6.3012   -3.2017   -0.5639 C   0  0  0  0  0  0  0  0  0  0  0  0
    5.4197   -2.7820   -1.7406 C   0  0  0  0  0  0  0  0  0  0  0  0
    5.0434   -1.4347   -1.9278 C   0  0  0  0  0  0  0  0  0  0  0  0
    4.2035   -1.1042   -3.0092 C   0  0  0  0  0  0  0  0  0  0  0  0
    3.7931   -2.1263   -3.8812 C   0  0  0  0  0  0  0  0  0  0  0  0
    4.2314   -3.4389   -3.6240 C   0  0  0  0  0  0  0  0  0  0  0  0
    5.0342   -3.7613   -2.5858 N   0  0  0  0  0  0  0  0  0  0  0  0
    5.0945   -1.8878    1.1406 N   0  0  0  0  0  0  0  0  0  0  0  0
    4.0578   -1.6143    2.1337 C   0  0  2  0  0  0  0  0  0  0  0  0
    2.6479   -1.9498    1.5394 C   0  0  0  0  0  0  0  0  0  0  0  0
    1.4112   -1.3572    2.2975 C   0  0  0  0  0  0  0  0  0  0  0  0
    1.7820   -0.6567    3.6111 C   0  0  2  0  0  0  0  0  0  0  0  0
    2.1753   -1.7190    4.4648 O   0  0  0  0  0  0  0  0  0  0  0  0
    0.6758    0.1090    4.4063 C   0  0  1  0  0  0  0  0  0  0  0  0
    1.2377    0.6754    5.7579 C   0  0  0  0  0  0  0  0  0  0  0  0
    2.7321    1.0186    5.8244 C   0  0  0  0  0  0  0  0  0  0  0  0
    3.4928    1.3664    6.9662 C   0  0  0  0  0  0  0  0  0  0  0  0
    4.9075    1.3873    6.8774 C   0  0  0  0  0  0  0  0  0  0  0  0
    5.5804    0.9954    5.7029 C   0  0  0  0  0  0  0  0  0  0  0  0
    6.9420    0.9601    5.6721 O   0  0  0  0  0  0  0  0  0  0  0  0
    4.8425    0.6402    4.5434 C   0  0  0  0  0  0  0  0  0  0  0  0
    3.4761    0.7508    4.6634 C   0  0  0  0  0  0  0  0  0  0  0  0
    2.8961    0.3731    3.3374 C   0  0  2  0  0  0  0  0  0  0  0  0
    2.2981    1.6042    2.5724 C   0  0  0  0  0  0  0  0  0  0  0  0
    1.0731    2.2389    3.2443 C   0  0  0  0  0  0  0  0  0  0  0  0
    0.0707    1.1946    3.5756 N   0  0  2  0  0  0  0  0  0  0  0  0
   -1.1865    1.7466    4.1540 C   0  0  0  0  0  0  0  0  0  0  0  0
   -1.9858    2.5227    3.1266 C   0  0  0  0  0  0  0  0  0  0  0  0
   -2.1911    4.0232    3.2835 C   0  0  0  0  0  0  0  0  0  0  0  0
   -3.3413    3.0877    3.5086 C   0  0  0  0  0  0  0  0  0  0  0  0
    4.1422   -0.1305    2.5316 C   0  0  1  0  0  0  0  0  0  0  0  0
    5.2948    0.1352    3.3501 O   0  0  0  0  0  0  0  0  0  0  0  0
    7.2102   -2.5952   -0.5616 H   0  0  0  0  0  0  0  0  0  0  0  0
    6.6241   -4.2351   -0.6871 H   0  0  0  0  0  0  0  0  0  0  0  0
    5.3592   -0.6600   -1.2460 H   0  0  0  0  0  0  0  0  0  0  0  0
    3.8798   -0.0842   -3.1536 H   0  0  0  0  0  0  0  0  0  0  0  0
    3.1355   -1.9087   -4.7136 H   0  0  0  0  0  0  0  0  0  0  0  0
    3.9429   -4.2520   -4.2734 H   0  0  0  0  0  0  0  0  0  0  0  0
    5.4236   -1.0868    0.6220 H   0  0  0  0  0  0  0  0  0  0  0  0
    4.2453   -2.2387    3.0105 H   0  0  0  0  0  0  0  0  0  0  0  0
    2.6065   -1.6305    0.4940 H   0  0  0  0  0  0  0  0  0  0  0  0
    2.5360   -3.0355    1.4881 H   0  0  0  0  0  0  0  0  0  0  0  0
    0.8918   -0.6596    1.6389 H   0  0  0  0  0  0  0  0  0  0  0  0
    0.6978   -2.1533    2.5076 H   0  0  0  0  0  0  0  0  0  0  0  0
    2.6878   -1.3414    5.1668 H   0  0  0  0  0  0  0  0  0  0  0  0
   -0.1236   -0.6023    4.6317 H   0  0  0  0  0  0  0  0  0  0  0  0
    0.6655    1.5341    6.1107 H   0  0  0  0  0  0  0  0  0  0  0  0
    1.0882   -0.0990    6.5060 H   0  0  0  0  0  0  0  0  0  0  0  0
    2.9964    1.5628    7.9015 H   0  0  0  0  0  0  0  0  0  0  0  0
    5.4808    1.6593    7.7546 H   0  0  0  0  0  0  0  0  0  0  0  0
    3.0468    2.3852    2.4395 H   0  0  0  0  0  0  0  0  0  0  0  0
    2.0139    1.2903    1.5626 H   0  0  0  0  0  0  0  0  0  0  0  0
    1.3863    2.7890    4.1303 H   0  0  0  0  0  0  0  0  0  0  0  0
    0.6277    2.9545    2.5570 H   0  0  0  0  0  0  0  0  0  0  0  0
   -1.8178    0.9387    4.5087 H   0  0  0  0  0  0  0  0  0  0  0  0
   -0.9848    2.4001    5.0000 H   0  0  0  0  0  0  0  0  0  0  0  0
   -1.9386    2.1274    2.1060 H   0  0  0  0  0  0  0  0  0  0  0  0
   -1.7492    4.5103    4.1527 H   0  0  0  0  0  0  0  0  0  0  0  0
   -2.1911    4.6143    2.3668 H   0  0  0  0  0  0  0  0  0  0  0  0
   -4.1197    3.0677    2.7449 H   0  0  0  0  0  0  0  0  0  0  0  0
   -3.6878    2.9435    4.5317 H   0  0  0  0  0  0  0  0  0  0  0  0
    4.2397    0.4623    1.6200 H   0  0  0  0  0  0  0  0  0  0  0  0
   -0.1868    0.7618    2.6945 H   0  0  0  0  0  0  0  0  0  0  0  0
  1  2  2  0
  2  3  1  0
  2 10  1  0
  3  4  1  0
  3 35  1  0
  3 36  1  0
  4  9  1  0
  4  5  2  0
  5  6  1  0
  5 37  1  0
  6  7  2  0
  6 38  1  0
  7  8  1  0
  7 39  1  0
  8  9  2  0
  8 40  1  0
 10 11  1  0
 10 41  1  0
 11 33  1  0
 11 12  1  0
 11 42  1  1
 12 13  1  0
 12 43  1  0
 12 44  1  0
 13 14  1  0
 13 45  1  0
 13 46  1  0
 14 25  1  0
 14 15  1  1
 14 16  1  0
 15 47  1  0
 16 28  1  0
 16 17  1  0
 16 48  1  1
 17 18  1  0
 17 49  1  0
 17 50  1  0
 18 24  2  0
 18 19  1  0
 19 20  2  0
 19 51  1  0
 20 21  1  0
 20 52  1  0
 21 22  1  0
 21 23  2  0
 23 34  1  0
 23 24  1  0
 24 25  1  0
 25 26  1  6
 25 33  1  0
 26 27  1  0
 26 53  1  0
 26 54  1  0
 27 28  1  0
 27 55  1  0
 27 56  1  0
 28 29  1  0
 28 65  1  6
 29 30  1  0
 29 57  1  0
 29 58  1  0
 30 32  1  0
 30 31  1  0
 30 59  1  0
 31 32  1  0
 31 60  1  0
 31 61  1  0
 32 62  1  0
 32 63  1  0
 33 34  1  0
 33 64  1  6
M  CHG  2  22  -1  28   1
M  END
>  <i_m_ct_stereo_status>  (394) 
1

>  <s_m_source_file>  (394) 
/var/tmp/pbs.5102103.sched01/tmpr2ljwd0b/132iqlgd2x9.sdf

>  <i_m_source_file_index>  (394) 
20

>  <i_lp_mmshare_version>  (394) 
48012

>  <i_f3d_flags>  (394) 
0

>  <s_epik_input>  (394) 
bjFbY0hdW2NIXVtjSF1bY0hdYzFbQ0gyXUMoPU8pW05IXVtDQEhdKFtDSDJdW0NIMl0yKVtDQEBIXTNPYyhjKFtPSF0pW2NIXVtjSF00KWM1YzRbQ0gyXVtDQEhdKFtDQEBdMihbQ0BdMzU2KVtPSF0pTihbQ0gyXVtDSDJdNilbQ0gyXVtDSF03W0NIMl1bQ0gyXTc=

>  <s_epik_cmdline>  (394) 
J2VwaWtfcHl0aG9uJywgJy1waHQnLCAnMi4wJywgJy1waCcsICc3LjAnLCAnLXRuJywgJzgnLCAnLW1hJywgJzIwMCcsICctaW1hZScsICc8aW5maWxlLm1hZT4nLCAnLW9tYWUnLCAnPG91dGZpbGUubWFlPic=

>  <r_epik_Ionization_Penalty>  (394) 
2.34933

>  <r_epik_Ionization_Penalty_Charging>  (394) 
2.34676

>  <r_epik_Ionization_Penalty_Neutral>  (394) 
0.00257628

>  <r_epik_State_Penalty>  (394) 
2.49554

>  <r_epik_Charging_Adjusted_Penalty>  (394) 
4.84229

>  <i_epik_Tot_Q>  (394) 
0

>  <i_epik_Tot_abs_Q>  (394) 
2

>  <s_lp_Force_Field>  (394) 
OPLS3e

>  <r_lp_Energy>  (394) 
85.4523

>  <b_lp_Chiralities_Consistent>  (394) 
1

>  <s_lp_Variant>  (394) 
95:0-3

>  <s_i_glide_gridfile>  (394) 
pfpi4k_grid

>  <i_i_glide_lignum>  (394) 
20

>  <i_i_glide_rotatable_bonds>  (394) 
7

>  <r_i_docking_score>  (394) 
-2.64449

>  <r_i_glide_ligand_efficiency>  (394) 
-0.0777792

>  <r_i_glide_ligand_efficiency_sa>  (394) 
-0.251974

>  <r_i_glide_ligand_efficiency_ln>  (394) 
-0.584243

>  <r_i_glide_gscore>  (394) 
-2.64449

>  <r_i_glide_lipo>  (394) 
-0.621308

>  <r_i_glide_hbond>  (394) 
-0.0470167

>  <r_i_glide_metal>  (394) 
-0

>  <r_i_glide_rewards>  (394) 
-0.335917

>  <r_i_glide_evdw>  (394) 
-34.6193

>  <r_i_glide_ecoul>  (394) 
-2.37258

>  <r_i_glide_erotb>  (394) 
0.472633

>  <r_i_glide_esite>  (394) 
-0.0260311

>  <r_i_glide_emodel>  (394) 
-43.4693

>  <r_i_glide_energy>  (394) 
-36.9919

>  <r_i_glide_einternal>  (394) 
4.23368

>  <r_i_glide_intrahb_reward>  (394) 
-0

>  <i_i_glide_confnum>  (394) 
1

>  <i_i_glide_posenum>  (394) 
26

>  <r_i_glide_eff_state_penalty>  (394) 
0

>  <ligand_id>  (394) 
95

>  <original_smiles>  (394) 
O=C(Cc1ccccn1)NC1CCC2(O)C3Cc4ccc(O)c5c4C2(CCN3CC2CC2)C1O5

>  <smiles>  (394) 
[H]OC12C([H])([H])C([H])([H])C([H])(N([H])C(=O)C([H])([H])c3nc([H])c([H])c([H])c3[H])C3([H])Oc4c([O-])c([H])c([H])c5c4C31C([H])([H])C([H])([H])[N+]([H])(C([H])([H])C1([H])C([H])([H])C1([H])[H])C2([H])C5([H])[H]

$$$$
96:0:0
     RDKit          3D

 48 50  0  0  1  0  0  0  0  0999 V2000
   -0.3267   -6.0085    5.5839 C   0  0  0  0  0  0  0  0  0  0  0  0
   -0.0950   -7.1912    4.6157 C   0  0  0  0  0  0  0  0  0  0  0  0
    0.1071   -8.4767    5.4483 C   0  0  0  0  0  0  0  0  0  0  0  0
   -1.7464   -7.5137    3.8928 S   0  0  0  0  0  0  0  0  0  0  0  0
    1.0785   -6.8596    3.6094 C   0  0  0  0  0  0  0  0  0  0  0  0
    0.8538   -6.5771    2.2219 C   0  0  0  0  0  0  0  0  0  0  0  0
   -0.2028   -6.6263    1.5514 O   0  0  0  0  0  0  0  0  0  0  0  0
    1.9941   -6.1180    1.1989 C   0  0  0  0  0  0  0  0  0  0  0  0
    2.9965   -5.3323    1.7627 O   0  0  0  0  0  0  0  0  0  0  0  0
    1.5019   -5.4974    0.0285 O   0  0  0  0  0  0  0  0  0  0  0  0
    2.4233   -6.8250    4.2024 C   0  0  0  0  0  0  0  0  0  0  0  0
    2.6901   -6.1101    5.1928 O   0  0  0  0  0  0  0  0  0  0  0  0
    3.4334   -7.5630    3.6145 N   0  0  0  0  0  0  0  0  0  0  0  0
    3.0710   -8.6418    2.6612 C   0  0  0  0  0  0  0  0  0  0  0  0
    4.1513   -9.2688    1.7731 C   0  0  2  0  0  0  0  0  0  0  0  0
    4.9647  -10.2522    2.6022 C   0  0  0  0  0  0  0  0  0  0  0  0
    6.1028   -9.5598    3.3658 C   0  0  1  0  0  0  0  0  0  0  0  0
    6.9987   -8.7824    2.3829 C   0  0  0  0  0  0  0  0  0  0  0  0
    6.1806   -7.6766    1.7037 C   0  0  1  0  0  0  0  0  0  0  0  0
    5.0166   -8.3122    0.9147 C   0  0  0  0  0  0  0  0  0  0  0  0
    5.6495   -6.7068    2.7673 C   0  0  0  0  0  0  0  0  0  0  0  0
    5.8474   -5.5063    2.6484 O   0  0  0  0  0  0  0  0  0  0  0  0
    4.8570   -7.3301    3.9456 C   0  0  2  0  0  0  0  0  0  0  0  0
    5.5723   -8.6127    4.4645 C   0  0  0  0  0  0  0  0  0  0  0  0
    0.5477   -5.7767    6.1844 H   0  0  0  0  0  0  0  0  0  0  0  0
   -1.1044   -6.2348    6.3082 H   0  0  0  0  0  0  0  0  0  0  0  0
   -0.5979   -5.0924    5.0647 H   0  0  0  0  0  0  0  0  0  0  0  0
    0.9615   -8.4178    6.1200 H   0  0  0  0  0  0  0  0  0  0  0  0
    0.2099   -9.3693    4.8315 H   0  0  0  0  0  0  0  0  0  0  0  0
   -0.7617   -8.6618    6.0878 H   0  0  0  0  0  0  0  0  0  0  0  0
   -1.4189   -8.7195    3.4149 H   0  0  0  0  0  0  0  0  0  0  0  0
    2.4621   -6.9418    0.6920 H   0  0  0  0  0  0  0  0  0  0  0  0
    3.8418   -5.6721    1.4570 H   0  0  0  0  0  0  0  0  0  0  0  0
    2.1653   -5.6675   -0.6341 H   0  0  0  0  0  0  0  0  0  0  0  0
    2.4329   -9.3562    3.1465 H   0  0  0  0  0  0  0  0  0  0  0  0
    2.3394   -8.3816    1.9415 H   0  0  0  0  0  0  0  0  0  0  0  0
    3.5704   -9.8551    1.0516 H   0  0  0  0  0  0  0  0  0  0  0  0
    4.3018  -10.7803    3.2914 H   0  0  0  0  0  0  0  0  0  0  0  0
    5.3749  -11.0137    1.9384 H   0  0  0  0  0  0  0  0  0  0  0  0
    6.6936  -10.3408    3.8376 H   0  0  0  0  0  0  0  0  0  0  0  0
    7.8596   -8.3616    2.9039 H   0  0  0  0  0  0  0  0  0  0  0  0
    7.4047   -9.4559    1.6280 H   0  0  0  0  0  0  0  0  0  0  0  0
    6.8178   -7.1139    1.0183 H   0  0  0  0  0  0  0  0  0  0  0  0
    5.4341   -8.8951    0.0909 H   0  0  0  0  0  0  0  0  0  0  0  0
    4.4427   -7.5449    0.4125 H   0  0  0  0  0  0  0  0  0  0  0  0
    4.9500   -6.6034    4.7619 H   0  0  0  0  0  0  0  0  0  0  0  0
    4.9106   -9.1571    5.1401 H   0  0  0  0  0  0  0  0  0  0  0  0
    6.4224   -8.3095    5.0751 H   0  0  0  0  0  0  0  0  0  0  0  0
  1  2  1  0
  1 25  1  0
  1 26  1  0
  1 27  1  0
  2  3  1  0
  2  4  1  0
  2  5  1  0
  3 28  1  0
  3 29  1  0
  3 30  1  0
  4 31  1  0
  5  6  2  0
  5 11  1  0
  6  7  1  0
  6  8  1  0
  8  9  1  0
  8 10  1  0
  8 32  1  0
  9 33  1  0
 10 34  1  0
 11 12  2  0
 11 13  1  0
 13 23  1  0
 13 14  1  0
 14 15  1  0
 14 35  1  0
 14 36  1  0
 15 20  1  0
 15 16  1  0
 15 37  1  6
 16 17  1  0
 16 38  1  0
 16 39  1  0
 17 24  1  0
 17 18  1  0
 17 40  1  1
 18 19  1  0
 18 41  1  0
 18 42  1  0
 19 20  1  0
 19 21  1  0
 19 43  1  6
 20 44  1  0
 20 45  1  0
 21 22  2  0
 21 23  1  0
 23 24  1  0
 23 46  1  1
 24 47  1  0
 24 48  1  0
M  CHG  1   7  -1
M  END
>  <i_m_ct_stereo_status>  (395) 
1

>  <s_m_source_file>  (395) 
/var/tmp/pbs.5102103.sched01/tmpr2ljwd0b/132iqlgd2x9.sdf

>  <i_m_source_file_index>  (395) 
21

>  <i_lp_mmshare_version>  (395) 
48012

>  <i_f3d_flags>  (395) 
0

>  <s_epik_input>  (395) 
W09IXVtDSF0oW09IXSlDKD1PKVtDQEBIXShDKFtDSDNdKShbQ0gzXSlbU0hdKUMoPU8pTihbQ0gyXVtDQEhdMTIpW0NAQEhdM0MoPU8pW0NASF0oW0NIMl0yKVtDSDJdW0NASF0oW0NIMl0xKVtDSDJdMw==

>  <s_epik_cmdline>  (395) 
J2VwaWtfcHl0aG9uJywgJy1waHQnLCAnMi4wJywgJy1waCcsICc3LjAnLCAnLXRuJywgJzgnLCAnLW1hJywgJzIwMCcsICctaW1hZScsICc8aW5maWxlLm1hZT4nLCAnLW9tYWUnLCAnPG91dGZpbGUubWFlPic=

>  <r_epik_Ionization_Penalty>  (395) 
0.16922

>  <r_epik_Ionization_Penalty_Charging>  (395) 
0.144122

>  <r_epik_Ionization_Penalty_Neutral>  (395) 
0.0250986

>  <r_epik_State_Penalty>  (395) 
0.149024

>  <r_epik_Charging_Adjusted_Penalty>  (395) 
0.293145

>  <i_epik_Tot_Q>  (395) 
-1

>  <i_epik_Tot_abs_Q>  (395) 
1

>  <s_epik_Chemistry_Notes>  (395) 
This compound contains an acetal/aminal-like group ( X-CH(R)-Y where X, Y are N, S, or O) that may be acid/base labile, releasing an aldehyde.

>  <s_lp_Force_Field>  (395) 
OPLS3e

>  <r_lp_Energy>  (395) 
45.7317

>  <b_lp_Chiralities_Consistent>  (395) 
1

>  <s_lp_Variant>  (395) 
96:0-1

>  <s_i_glide_gridfile>  (395) 
pfpi4k_grid

>  <i_i_glide_lignum>  (395) 
21

>  <i_i_glide_rotatable_bonds>  (395) 
7

>  <r_i_docking_score>  (395) 
-2.88663

>  <r_i_glide_ligand_efficiency>  (395) 
-0.120276

>  <r_i_glide_ligand_efficiency_sa>  (395) 
-0.346937

>  <r_i_glide_ligand_efficiency_ln>  (395) 
-0.690904

>  <r_i_glide_gscore>  (395) 
-2.88663

>  <r_i_glide_lipo>  (395) 
-0.183673

>  <r_i_glide_hbond>  (395) 
-0.315325

>  <r_i_glide_metal>  (395) 
-0

>  <r_i_glide_rewards>  (395) 
-1.00122

>  <r_i_glide_evdw>  (395) 
-20.2562

>  <r_i_glide_ecoul>  (395) 
-4.78405

>  <r_i_glide_erotb>  (395) 
0.456314

>  <r_i_glide_esite>  (395) 
-0.112311

>  <r_i_glide_emodel>  (395) 
-24.8204

>  <r_i_glide_energy>  (395) 
-25.0402

>  <r_i_glide_einternal>  (395) 
8.74874

>  <r_i_glide_intrahb_reward>  (395) 
-0

>  <i_i_glide_confnum>  (395) 
3

>  <i_i_glide_posenum>  (395) 
23

>  <r_i_glide_eff_state_penalty>  (395) 
0

>  <ligand_id>  (395) 
96

>  <original_smiles>  (395) 
CC(C)(S)C(C(=O)C(O)O)C(=O)N1CC2CC3CC(C2)C(=O)C1C3

>  <smiles>  (395) 
[H]OC([H])(O[H])C([O-])=C(C(=O)N1C([H])([H])C2([H])C([H])([H])C3([H])C(=O)C1([H])C([H])([H])C([H])(C3([H])[H])C2([H])[H])C(S[H])(C([H])([H])[H])C([H])([H])[H]

$$$$
96:1:0
     RDKit          3D

 49 51  0  0  1  0  0  0  0  0999 V2000
    1.7926    2.6716    2.6486 C   0  0  0  0  0  0  0  0  0  0  0  0
    0.8414    2.3087    3.8197 C   0  0  0  0  0  0  0  0  0  0  0  0
    1.2692    3.1259    5.0603 C   0  0  0  0  0  0  0  0  0  0  0  0
   -0.7791    2.9539    3.2871 S   0  0  0  0  0  0  0  0  0  0  0  0
    0.7000    0.7425    3.9950 C   0  0  2  0  0  0  0  0  0  0  0  0
   -0.3612    0.2875    5.0321 C   0  0  0  0  0  0  0  0  0  0  0  0
   -0.8093    1.0241    5.9173 O   0  0  0  0  0  0  0  0  0  0  0  0
   -0.9106   -1.1299    4.9126 C   0  0  0  0  0  0  0  0  0  0  0  0
   -2.3054   -1.0723    5.0972 O   0  0  0  0  0  0  0  0  0  0  0  0
   -0.3071   -1.9339    5.8990 O   0  0  0  0  0  0  0  0  0  0  0  0
    2.0430    0.0159    4.3298 C   0  0  0  0  0  0  0  0  0  0  0  0
    2.5762    0.3136    5.4000 O   0  0  0  0  0  0  0  0  0  0  0  0
    2.6144   -0.8923    3.4776 N   0  0  0  0  0  0  0  0  0  0  0  0
    1.9488   -1.2515    2.2051 C   0  0  0  0  0  0  0  0  0  0  0  0
    2.5659   -2.3464    1.3017 C   0  0  2  0  0  0  0  0  0  0  0  0
    2.6180   -3.7390    1.9649 C   0  0  0  0  0  0  0  0  0  0  0  0
    3.8565   -3.9155    2.8553 C   0  0  1  0  0  0  0  0  0  0  0  0
    5.1315   -3.6264    2.0355 C   0  0  0  0  0  0  0  0  0  0  0  0
    5.1002   -2.1722    1.5497 C   0  0  1  0  0  0  0  0  0  0  0  0
    3.8980   -1.9590    0.6244 C   0  0  0  0  0  0  0  0  0  0  0  0
    5.0164   -1.2160    2.7425 C   0  0  0  0  0  0  0  0  0  0  0  0
    5.7950   -0.2709    2.8229 O   0  0  0  0  0  0  0  0  0  0  0  0
    3.9341   -1.5044    3.8014 C   0  0  2  0  0  0  0  0  0  0  0  0
    3.8041   -3.0194    4.1072 C   0  0  0  0  0  0  0  0  0  0  0  0
    2.8255    2.3702    2.8307 H   0  0  0  0  0  0  0  0  0  0  0  0
    1.8149    3.7500    2.4831 H   0  0  0  0  0  0  0  0  0  0  0  0
    1.4889    2.2249    1.7002 H   0  0  0  0  0  0  0  0  0  0  0  0
    2.2863    2.8805    5.3636 H   0  0  0  0  0  0  0  0  0  0  0  0
    0.6304    2.9864    5.9257 H   0  0  0  0  0  0  0  0  0  0  0  0
    1.2623    4.1892    4.8371 H   0  0  0  0  0  0  0  0  0  0  0  0
   -0.3370    3.6403    2.2139 H   0  0  0  0  0  0  0  0  0  0  0  0
    0.2910    0.4028    3.0458 H   0  0  0  0  0  0  0  0  0  0  0  0
   -0.6835   -1.5471    3.9347 H   0  0  0  0  0  0  0  0  0  0  0  0
   -2.6655   -0.4535    4.4791 H   0  0  0  0  0  0  0  0  0  0  0  0
   -0.4677   -2.8454    5.7173 H   0  0  0  0  0  0  0  0  0  0  0  0
    0.9472   -1.6098    2.4368 H   0  0  0  0  0  0  0  0  0  0  0  0
    1.8388   -0.3513    1.5979 H   0  0  0  0  0  0  0  0  0  0  0  0
    1.8554   -2.4523    0.4804 H   0  0  0  0  0  0  0  0  0  0  0  0
    1.7125   -3.9225    2.5463 H   0  0  0  0  0  0  0  0  0  0  0  0
    2.6373   -4.5004    1.1849 H   0  0  0  0  0  0  0  0  0  0  0  0
    3.8874   -4.9599    3.1808 H   0  0  0  0  0  0  0  0  0  0  0  0
    6.0213   -3.8139    2.6389 H   0  0  0  0  0  0  0  0  0  0  0  0
    5.1938   -4.3040    1.1845 H   0  0  0  0  0  0  0  0  0  0  0  0
    6.0187   -1.9543    1.0042 H   0  0  0  0  0  0  0  0  0  0  0  0
    4.0332   -2.5656   -0.2721 H   0  0  0  0  0  0  0  0  0  0  0  0
    3.8558   -0.9246    0.2813 H   0  0  0  0  0  0  0  0  0  0  0  0
    4.3412   -1.0947    4.7286 H   0  0  0  0  0  0  0  0  0  0  0  0
    2.9002   -3.2166    4.6798 H   0  0  0  0  0  0  0  0  0  0  0  0
    4.6364   -3.3187    4.7489 H   0  0  0  0  0  0  0  0  0  0  0  0
  1  2  1  0
  1 25  1  0
  1 26  1  0
  1 27  1  0
  2  3  1  0
  2  4  1  0
  2  5  1  0
  3 28  1  0
  3 29  1  0
  3 30  1  0
  4 31  1  0
  5  6  1  0
  5 11  1  0
  5 32  1  6
  6  7  2  0
  6  8  1  0
  8  9  1  0
  8 10  1  0
  8 33  1  0
  9 34  1  0
 10 35  1  0
 11 12  2  0
 11 13  1  0
 13 23  1  0
 13 14  1  0
 14 15  1  0
 14 36  1  0
 14 37  1  0
 15 20  1  0
 15 16  1  0
 15 38  1  6
 16 17  1  0
 16 39  1  0
 16 40  1  0
 17 24  1  0
 17 18  1  0
 17 41  1  1
 18 19  1  0
 18 42  1  0
 18 43  1  0
 19 20  1  0
 19 21  1  0
 19 44  1  6
 20 45  1  0
 20 46  1  0
 21 22  2  0
 21 23  1  0
 23 24  1  0
 23 47  1  1
 24 48  1  0
 24 49  1  0
M  END
>  <i_m_ct_stereo_status>  (396) 
1

>  <s_m_source_file>  (396) 
/var/tmp/pbs.5102103.sched01/tmpr2ljwd0b/132iqlgd2x9.sdf

>  <i_m_source_file_index>  (396) 
22

>  <i_lp_mmshare_version>  (396) 
48012

>  <i_f3d_flags>  (396) 
0

>  <s_epik_input>  (396) 
W09IXVtDSF0oW09IXSlDKD1PKVtDQEBIXShDKFtDSDNdKShbQ0gzXSlbU0hdKUMoPU8pTihbQ0gyXVtDQEhdMTIpW0NAQEhdM0MoPU8pW0NASF0oW0NIMl0yKVtDSDJdW0NASF0oW0NIMl0xKVtDSDJdMw==

>  <s_epik_cmdline>  (396) 
J2VwaWtfcHl0aG9uJywgJy1waHQnLCAnMi4wJywgJy1waCcsICc3LjAnLCAnLXRuJywgJzgnLCAnLW1hJywgJzIwMCcsICctaW1hZScsICc8aW5maWxlLm1hZT4nLCAnLW9tYWUnLCAnPG91dGZpbGUubWFlPic=

>  <r_lp_tautomer_probability>  (396) 
1

>  <r_epik_Ionization_Penalty>  (396) 
0.916708

>  <r_epik_Ionization_Penalty_Charging>  (396) 
0

>  <r_epik_Ionization_Penalty_Neutral>  (396) 
0.916708

>  <r_epik_State_Penalty>  (396) 
0.964335

>  <r_epik_Charging_Adjusted_Penalty>  (396) 
0.964335

>  <i_epik_Tot_Q>  (396) 
0

>  <i_epik_Tot_abs_Q>  (396) 
0

>  <s_epik_Chemistry_Notes>  (396) 
This compound contains an acetal/aminal-like group ( X-CH(R)-Y where X, Y are N, S, or O) that may be acid/base labile, releasing an aldehyde.

>  <s_lp_Force_Field>  (396) 
OPLS3e

>  <r_lp_Energy>  (396) 
38.5906

>  <b_lp_Chiralities_Consistent>  (396) 
1

>  <s_lp_Variant>  (396) 
96:0-2

>  <s_i_glide_gridfile>  (396) 
pfpi4k_grid

>  <i_i_glide_lignum>  (396) 
22

>  <i_i_glide_rotatable_bonds>  (396) 
8

>  <r_i_docking_score>  (396) 
-3.44913

>  <r_i_glide_ligand_efficiency>  (396) 
-0.143714

>  <r_i_glide_ligand_efficiency_sa>  (396) 
-0.414542

>  <r_i_glide_ligand_efficiency_ln>  (396) 
-0.825535

>  <r_i_glide_gscore>  (396) 
-3.44913

>  <r_i_glide_lipo>  (396) 
-0.0933122

>  <r_i_glide_hbond>  (396) 
-0.264152

>  <r_i_glide_metal>  (396) 
-0

>  <r_i_glide_rewards>  (396) 
-1.11664

>  <r_i_glide_evdw>  (396) 
-19.8629

>  <r_i_glide_ecoul>  (396) 
-9.73544

>  <r_i_glide_erotb>  (396) 
0.60535

>  <r_i_glide_esite>  (396) 
-0.126912

>  <r_i_glide_emodel>  (396) 
-33.489

>  <r_i_glide_energy>  (396) 
-29.5983

>  <r_i_glide_einternal>  (396) 
6.12699

>  <r_i_glide_intrahb_reward>  (396) 
-0

>  <i_i_glide_confnum>  (396) 
5

>  <i_i_glide_posenum>  (396) 
7

>  <r_i_glide_eff_state_penalty>  (396) 
0

>  <ligand_id>  (396) 
96

>  <original_smiles>  (396) 
CC(C)(S)C(C(=O)C(O)O)C(=O)N1CC2CC3CC(C2)C(=O)C1C3

>  <smiles>  (396) 
[H]OC([H])(O[H])C(=O)C([H])(C(=O)N1C([H])([H])C2([H])C([H])([H])C3([H])C(=O)C1([H])C([H])([H])C([H])(C3([H])[H])C2([H])[H])C(S[H])(C([H])([H])[H])C([H])([H])[H]

$$$$
96:1:1
     RDKit          3D

 49 51  0  0  1  0  0  0  0  0999 V2000
   -0.0785    2.1881    7.3056 C   0  0  0  0  0  0  0  0  0  0  0  0
   -0.0283    1.0580    6.2397 C   0  0  0  0  0  0  0  0  0  0  0  0
    0.7058   -0.1217    6.9198 C   0  0  0  0  0  0  0  0  0  0  0  0
   -1.7743    0.6287    6.0938 S   0  0  0  0  0  0  0  0  0  0  0  0
    0.5046    1.4254    4.7696 C   0  0  2  0  0  0  0  0  0  0  0  0
    0.4252    0.2479    3.7543 C   0  0  0  0  0  0  0  0  0  0  0  0
    0.0832   -0.8885    4.1082 O   0  0  0  0  0  0  0  0  0  0  0  0
    0.6391    0.5025    2.2433 C   0  0  0  0  0  0  0  0  0  0  0  0
   -0.6061    0.8840    1.6941 O   0  0  0  0  0  0  0  0  0  0  0  0
    1.1307   -0.6877    1.6905 O   0  0  0  0  0  0  0  0  0  0  0  0
    1.9400    2.0637    4.7337 C   0  0  0  0  0  0  0  0  0  0  0  0
    2.9027    1.3069    4.6566 O   0  0  0  0  0  0  0  0  0  0  0  0
    2.1052    3.4243    4.7144 N   0  0  0  0  0  0  0  0  0  0  0  0
    3.3622    4.0047    4.1603 C   0  0  0  0  0  0  0  0  0  0  0  0
    3.5763    5.5491    4.3061 C   0  0  2  0  0  0  0  0  0  0  0  0
    3.7483    6.0214    5.7653 C   0  0  0  0  0  0  0  0  0  0  0  0
    2.4074    6.2648    6.4739 C   0  0  1  0  0  0  0  0  0  0  0  0
    1.5355    7.2447    5.6702 C   0  0  0  0  0  0  0  0  0  0  0  0
    1.2543    6.6610    4.2656 C   0  0  1  0  0  0  0  0  0  0  0  0
    2.5722    6.4229    3.5178 C   0  0  0  0  0  0  0  0  0  0  0  0
    0.5199    5.3412    4.3864 C   0  0  0  0  0  0  0  0  0  0  0  0
   -0.5647    5.1969    3.8168 O   0  0  0  0  0  0  0  0  0  0  0  0
    1.1272    4.3253    5.3294 C   0  0  2  0  0  0  0  0  0  0  0  0
    1.6439    4.9471    6.6605 C   0  0  0  0  0  0  0  0  0  0  0  0
    0.9317    2.5620    7.4394 H   0  0  0  0  0  0  0  0  0  0  0  0
   -0.3964    1.8642    8.2957 H   0  0  0  0  0  0  0  0  0  0  0  0
   -0.7494    3.0105    7.0369 H   0  0  0  0  0  0  0  0  0  0  0  0
    1.7589    0.1383    7.0893 H   0  0  0  0  0  0  0  0  0  0  0  0
    0.6889   -1.0572    6.3630 H   0  0  0  0  0  0  0  0  0  0  0  0
    0.2457   -0.3400    7.8896 H   0  0  0  0  0  0  0  0  0  0  0  0
   -1.6330   -0.2187    5.0741 H   0  0  0  0  0  0  0  0  0  0  0  0
   -0.1783    2.1435    4.3215 H   0  0  0  0  0  0  0  0  0  0  0  0
    1.3807    1.3000    2.1065 H   0  0  0  0  0  0  0  0  0  0  0  0
   -0.5570    0.9180    0.7286 H   0  0  0  0  0  0  0  0  0  0  0  0
    1.0295   -0.6506    0.7198 H   0  0  0  0  0  0  0  0  0  0  0  0
    4.2244    3.4960    4.6152 H   0  0  0  0  0  0  0  0  0  0  0  0
    3.3978    3.7474    3.0917 H   0  0  0  0  0  0  0  0  0  0  0  0
    4.5263    5.7608    3.8263 H   0  0  0  0  0  0  0  0  0  0  0  0
    4.3553    5.3065    6.3238 H   0  0  0  0  0  0  0  0  0  0  0  0
    4.3109    6.9533    5.7663 H   0  0  0  0  0  0  0  0  0  0  0  0
    2.6179    6.6952    7.4600 H   0  0  0  0  0  0  0  0  0  0  0  0
    0.6049    7.4409    6.2108 H   0  0  0  0  0  0  0  0  0  0  0  0
    2.0449    8.2017    5.5712 H   0  0  0  0  0  0  0  0  0  0  0  0
    0.5956    7.3457    3.7107 H   0  0  0  0  0  0  0  0  0  0  0  0
    3.0053    7.4026    3.3243 H   0  0  0  0  0  0  0  0  0  0  0  0
    2.3551    5.9708    2.5475 H   0  0  0  0  0  0  0  0  0  0  0  0
    0.2430    3.7925    5.5315 H   0  0  0  0  0  0  0  0  0  0  0  0
    2.2876    4.2728    7.2223 H   0  0  0  0  0  0  0  0  0  0  0  0
    0.7993    5.1453    7.3127 H   0  0  0  0  0  0  0  0  0  0  0  0
  1  2  1  0
  1 25  1  0
  1 26  1  0
  1 27  1  0
  2  3  1  0
  2  4  1  0
  2  5  1  0
  3 28  1  0
  3 29  1  0
  3 30  1  0
  4 31  1  0
  5  6  1  0
  5 11  1  0
  5 32  1  6
  6  7  2  0
  6  8  1  0
  8  9  1  0
  8 10  1  0
  8 33  1  0
  9 34  1  0
 10 35  1  0
 11 12  2  0
 11 13  1  0
 13 23  1  0
 13 14  1  0
 14 15  1  0
 14 36  1  0
 14 37  1  0
 15 20  1  0
 15 16  1  0
 15 38  1  6
 16 17  1  0
 16 39  1  0
 16 40  1  0
 17 24  1  0
 17 18  1  0
 17 41  1  1
 18 19  1  0
 18 42  1  0
 18 43  1  0
 19 20  1  0
 19 21  1  0
 19 44  1  6
 20 45  1  0
 20 46  1  0
 21 22  2  0
 21 23  1  0
 23 24  1  0
 23 47  1  1
 24 48  1  0
 24 49  1  0
M  END
>  <i_m_ct_stereo_status>  (397) 
1

>  <s_m_source_file>  (397) 
/var/tmp/pbs.5102103.sched01/tmpr2ljwd0b/132iqlgd2x9.sdf

>  <i_m_source_file_index>  (397) 
22

>  <i_lp_mmshare_version>  (397) 
48012

>  <i_f3d_flags>  (397) 
0

>  <s_epik_input>  (397) 
W09IXVtDSF0oW09IXSlDKD1PKVtDQEBIXShDKFtDSDNdKShbQ0gzXSlbU0hdKUMoPU8pTihbQ0gyXVtDQEhdMTIpW0NAQEhdM0MoPU8pW0NASF0oW0NIMl0yKVtDSDJdW0NASF0oW0NIMl0xKVtDSDJdMw==

>  <s_epik_cmdline>  (397) 
J2VwaWtfcHl0aG9uJywgJy1waHQnLCAnMi4wJywgJy1waCcsICc3LjAnLCAnLXRuJywgJzgnLCAnLW1hJywgJzIwMCcsICctaW1hZScsICc8aW5maWxlLm1hZT4nLCAnLW9tYWUnLCAnPG91dGZpbGUubWFlPic=

>  <r_lp_tautomer_probability>  (397) 
1

>  <r_epik_Ionization_Penalty>  (397) 
0.916708

>  <r_epik_Ionization_Penalty_Charging>  (397) 
0

>  <r_epik_Ionization_Penalty_Neutral>  (397) 
0.916708

>  <r_epik_State_Penalty>  (397) 
0.964335

>  <r_epik_Charging_Adjusted_Penalty>  (397) 
0.964335

>  <i_epik_Tot_Q>  (397) 
0

>  <i_epik_Tot_abs_Q>  (397) 
0

>  <s_epik_Chemistry_Notes>  (397) 
This compound contains an acetal/aminal-like group ( X-CH(R)-Y where X, Y are N, S, or O) that may be acid/base labile, releasing an aldehyde.

>  <s_lp_Force_Field>  (397) 
OPLS3e

>  <r_lp_Energy>  (397) 
38.5906

>  <b_lp_Chiralities_Consistent>  (397) 
1

>  <s_lp_Variant>  (397) 
96:0-2

>  <s_i_glide_gridfile>  (397) 
pfpi4k_grid

>  <i_i_glide_lignum>  (397) 
22

>  <i_i_glide_rotatable_bonds>  (397) 
8

>  <r_i_docking_score>  (397) 
-3.32223

>  <r_i_glide_ligand_efficiency>  (397) 
-0.138426

>  <r_i_glide_ligand_efficiency_sa>  (397) 
-0.39929

>  <r_i_glide_ligand_efficiency_ln>  (397) 
-0.795161

>  <r_i_glide_gscore>  (397) 
-3.32223

>  <r_i_glide_lipo>  (397) 
0

>  <r_i_glide_hbond>  (397) 
-0.0627559

>  <r_i_glide_metal>  (397) 
-0

>  <r_i_glide_rewards>  (397) 
-1.48557

>  <r_i_glide_evdw>  (397) 
-13.8683

>  <r_i_glide_ecoul>  (397) 
-9.9022

>  <r_i_glide_erotb>  (397) 
0.60535

>  <r_i_glide_esite>  (397) 
-0.200508

>  <r_i_glide_emodel>  (397) 
-29.2867

>  <r_i_glide_energy>  (397) 
-23.7705

>  <r_i_glide_einternal>  (397) 
8.43767

>  <r_i_glide_intrahb_reward>  (397) 
-0.5

>  <i_i_glide_confnum>  (397) 
5

>  <i_i_glide_posenum>  (397) 
10

>  <r_i_glide_eff_state_penalty>  (397) 
0

>  <ligand_id>  (397) 
96

>  <original_smiles>  (397) 
CC(C)(S)C(C(=O)C(O)O)C(=O)N1CC2CC3CC(C2)C(=O)C1C3

>  <smiles>  (397) 
[H]OC([H])(O[H])C(=O)C([H])(C(=O)N1C([H])([H])C2([H])C([H])([H])C3([H])C(=O)C1([H])C([H])([H])C([H])(C3([H])[H])C2([H])[H])C(S[H])(C([H])([H])[H])C([H])([H])[H]

$$$$
96:1:2
     RDKit          3D

 49 51  0  0  1  0  0  0  0  0999 V2000
    0.3320    0.5185    4.8637 C   0  0  0  0  0  0  0  0  0  0  0  0
    0.9690    1.7029    4.0945 C   0  0  0  0  0  0  0  0  0  0  0  0
    2.4311    1.3195    3.7278 C   0  0  0  0  0  0  0  0  0  0  0  0
    0.0254    1.7407    2.5391 S   0  0  0  0  0  0  0  0  0  0  0  0
    0.7074    3.0915    4.8107 C   0  0  2  0  0  0  0  0  0  0  0  0
    1.4049    4.2932    4.1449 C   0  0  0  0  0  0  0  0  0  0  0  0
    2.5902    4.2471    3.8568 O   0  0  0  0  0  0  0  0  0  0  0  0
    0.5689    5.5914    3.9594 C   0  0  0  0  0  0  0  0  0  0  0  0
   -0.6425    5.3330    3.2997 O   0  0  0  0  0  0  0  0  0  0  0  0
    1.3457    6.5505    3.2880 O   0  0  0  0  0  0  0  0  0  0  0  0
    1.1270    3.1178    6.3148 C   0  0  0  0  0  0  0  0  0  0  0  0
    2.3039    2.9135    6.5685 O   0  0  0  0  0  0  0  0  0  0  0  0
    0.1943    3.2992    7.3177 N   0  0  0  0  0  0  0  0  0  0  0  0
   -1.2158    3.5996    6.9853 C   0  0  0  0  0  0  0  0  0  0  0  0
   -2.2237    3.8929    8.1219 C   0  0  2  0  0  0  0  0  0  0  0  0
   -1.8874    5.1514    8.9389 C   0  0  0  0  0  0  0  0  0  0  0  0
   -0.8692    4.8635   10.0487 C   0  0  1  0  0  0  0  0  0  0  0  0
   -1.3774    3.7288   10.9514 C   0  0  0  0  0  0  0  0  0  0  0  0
   -1.5356    2.4521   10.1161 C   0  0  1  0  0  0  0  0  0  0  0  0
   -2.5751    2.6795    9.0134 C   0  0  0  0  0  0  0  0  0  0  0  0
   -0.2057    2.0605    9.4963 C   0  0  0  0  0  0  0  0  0  0  0  0
    0.1761    0.8913    9.5992 O   0  0  0  0  0  0  0  0  0  0  0  0
    0.5915    3.1577    8.7464 C   0  0  2  0  0  0  0  0  0  0  0  0
    0.5237    4.5196    9.4858 C   0  0  0  0  0  0  0  0  0  0  0  0
    0.8029    0.3495    5.8353 H   0  0  0  0  0  0  0  0  0  0  0  0
    0.4502   -0.4133    4.3046 H   0  0  0  0  0  0  0  0  0  0  0  0
   -0.7392    0.6468    5.0412 H   0  0  0  0  0  0  0  0  0  0  0  0
    3.0356    1.2265    4.6359 H   0  0  0  0  0  0  0  0  0  0  0  0
    2.9099    2.0273    3.0599 H   0  0  0  0  0  0  0  0  0  0  0  0
    2.4499    0.3351    3.2342 H   0  0  0  0  0  0  0  0  0  0  0  0
    0.5983    2.8296    2.0096 H   0  0  0  0  0  0  0  0  0  0  0  0
   -0.3636    3.2384    4.7049 H   0  0  0  0  0  0  0  0  0  0  0  0
    0.3369    5.9930    4.9558 H   0  0  0  0  0  0  0  0  0  0  0  0
   -0.4105    5.0099    2.4142 H   0  0  0  0  0  0  0  0  0  0  0  0
    0.8181    7.2761    2.9683 H   0  0  0  0  0  0  0  0  0  0  0  0
   -1.2272    4.4813    6.3404 H   0  0  0  0  0  0  0  0  0  0  0  0
   -1.6261    2.7704    6.4071 H   0  0  0  0  0  0  0  0  0  0  0  0
   -3.1479    4.1230    7.6026 H   0  0  0  0  0  0  0  0  0  0  0  0
   -1.5197    5.9463    8.2903 H   0  0  0  0  0  0  0  0  0  0  0  0
   -2.7999    5.5328    9.3952 H   0  0  0  0  0  0  0  0  0  0  0  0
   -0.7760    5.7634   10.6528 H   0  0  0  0  0  0  0  0  0  0  0  0
   -0.6944    3.5559   11.7845 H   0  0  0  0  0  0  0  0  0  0  0  0
   -2.3363    3.9931   11.3991 H   0  0  0  0  0  0  0  0  0  0  0  0
   -1.8557    1.6561   10.7832 H   0  0  0  0  0  0  0  0  0  0  0  0
   -3.5474    2.8422    9.4846 H   0  0  0  0  0  0  0  0  0  0  0  0
   -2.6766    1.7823    8.4024 H   0  0  0  0  0  0  0  0  0  0  0  0
    1.6370    2.8659    8.8442 H   0  0  0  0  0  0  0  0  0  0  0  0
    0.8859    5.3222    8.8387 H   0  0  0  0  0  0  0  0  0  0  0  0
    1.2115    4.4887   10.3318 H   0  0  0  0  0  0  0  0  0  0  0  0
  1  2  1  0
  1 25  1  0
  1 26  1  0
  1 27  1  0
  2  3  1  0
  2  4  1  0
  2  5  1  0
  3 28  1  0
  3 29  1  0
  3 30  1  0
  4 31  1  0
  5  6  1  0
  5 11  1  0
  5 32  1  1
  6  7  2  0
  6  8  1  0
  8  9  1  0
  8 10  1  0
  8 33  1  0
  9 34  1  0
 10 35  1  0
 11 12  2  0
 11 13  1  0
 13 23  1  0
 13 14  1  0
 14 15  1  0
 14 36  1  0
 14 37  1  0
 15 20  1  0
 15 16  1  0
 15 38  1  6
 16 17  1  0
 16 39  1  0
 16 40  1  0
 17 24  1  0
 17 18  1  0
 17 41  1  1
 18 19  1  0
 18 42  1  0
 18 43  1  0
 19 20  1  0
 19 21  1  0
 19 44  1  1
 20 45  1  0
 20 46  1  0
 21 22  2  0
 21 23  1  0
 23 24  1  0
 23 47  1  6
 24 48  1  0
 24 49  1  0
M  END
>  <i_m_ct_stereo_status>  (398) 
1

>  <s_m_source_file>  (398) 
/var/tmp/pbs.5102103.sched01/tmpr2ljwd0b/132iqlgd2x9.sdf

>  <i_m_source_file_index>  (398) 
22

>  <i_lp_mmshare_version>  (398) 
48012

>  <i_f3d_flags>  (398) 
0

>  <s_epik_input>  (398) 
W09IXVtDSF0oW09IXSlDKD1PKVtDQEBIXShDKFtDSDNdKShbQ0gzXSlbU0hdKUMoPU8pTihbQ0gyXVtDQEhdMTIpW0NAQEhdM0MoPU8pW0NASF0oW0NIMl0yKVtDSDJdW0NASF0oW0NIMl0xKVtDSDJdMw==

>  <s_epik_cmdline>  (398) 
J2VwaWtfcHl0aG9uJywgJy1waHQnLCAnMi4wJywgJy1waCcsICc3LjAnLCAnLXRuJywgJzgnLCAnLW1hJywgJzIwMCcsICctaW1hZScsICc8aW5maWxlLm1hZT4nLCAnLW9tYWUnLCAnPG91dGZpbGUubWFlPic=

>  <r_lp_tautomer_probability>  (398) 
1

>  <r_epik_Ionization_Penalty>  (398) 
0.916708

>  <r_epik_Ionization_Penalty_Charging>  (398) 
0

>  <r_epik_Ionization_Penalty_Neutral>  (398) 
0.916708

>  <r_epik_State_Penalty>  (398) 
0.964335

>  <r_epik_Charging_Adjusted_Penalty>  (398) 
0.964335

>  <i_epik_Tot_Q>  (398) 
0

>  <i_epik_Tot_abs_Q>  (398) 
0

>  <s_epik_Chemistry_Notes>  (398) 
This compound contains an acetal/aminal-like group ( X-CH(R)-Y where X, Y are N, S, or O) that may be acid/base labile, releasing an aldehyde.

>  <s_lp_Force_Field>  (398) 
OPLS3e

>  <r_lp_Energy>  (398) 
38.5906

>  <b_lp_Chiralities_Consistent>  (398) 
1

>  <s_lp_Variant>  (398) 
96:0-2

>  <s_i_glide_gridfile>  (398) 
pfpi4k_grid

>  <i_i_glide_lignum>  (398) 
22

>  <i_i_glide_rotatable_bonds>  (398) 
8

>  <r_i_docking_score>  (398) 
-2.97091

>  <r_i_glide_ligand_efficiency>  (398) 
-0.123788

>  <r_i_glide_ligand_efficiency_sa>  (398) 
-0.357066

>  <r_i_glide_ligand_efficiency_ln>  (398) 
-0.711075

>  <r_i_glide_gscore>  (398) 
-2.97091

>  <r_i_glide_lipo>  (398) 
-0.0550076

>  <r_i_glide_hbond>  (398) 
-0.11038

>  <r_i_glide_metal>  (398) 
-0

>  <r_i_glide_rewards>  (398) 
-0.985567

>  <r_i_glide_evdw>  (398) 
-16.4983

>  <r_i_glide_ecoul>  (398) 
-9.39688

>  <r_i_glide_erotb>  (398) 
0.60535

>  <r_i_glide_esite>  (398) 
-0.190856

>  <r_i_glide_emodel>  (398) 
-29.4292

>  <r_i_glide_energy>  (398) 
-25.8952

>  <r_i_glide_einternal>  (398) 
5.07092

>  <r_i_glide_intrahb_reward>  (398) 
-0

>  <i_i_glide_confnum>  (398) 
5

>  <i_i_glide_posenum>  (398) 
12

>  <r_i_glide_eff_state_penalty>  (398) 
0

>  <ligand_id>  (398) 
96

>  <original_smiles>  (398) 
CC(C)(S)C(C(=O)C(O)O)C(=O)N1CC2CC3CC(C2)C(=O)C1C3

>  <smiles>  (398) 
[H]OC([H])(O[H])C(=O)C([H])(C(=O)N1C([H])([H])C2([H])C([H])([H])C3([H])C(=O)C1([H])C([H])([H])C([H])(C3([H])[H])C2([H])[H])C(S[H])(C([H])([H])[H])C([H])([H])[H]

$$$$
97:0:0
     RDKit          3D

 76 82  0  0  1  0  0  0  0  0999 V2000
    4.9287   -0.2822    3.8145 C   0  0  0  0  0  0  0  0  0  0  0  0
    3.9506   -1.1838    3.0605 C   0  0  1  0  0  0  0  0  0  0  0  0
    3.1135   -2.0466    4.0254 C   0  0  0  0  0  0  0  0  0  0  0  0
    2.0699   -1.2721    4.8223 C   0  0  0  0  0  0  0  0  0  0  0  0
    1.1111   -0.4557    3.9296 C   0  0  2  0  0  0  0  0  0  0  0  0
    1.8961    0.4098    2.9044 C   0  0  2  0  0  0  0  0  0  0  0  0
    0.9267    1.1002    1.9368 C   0  0  0  0  0  0  0  0  0  0  0  0
   -0.2238    1.7502    2.6631 C   0  0  0  0  0  0  0  0  0  0  0  0
   -0.6228    1.4339    3.9080 C   0  0  0  0  0  0  0  0  0  0  0  0
   -1.7000    2.2594    4.6012 C   0  0  0  0  0  0  0  0  0  0  0  0
   -1.0849    2.8965    5.8427 C   0  0  0  0  0  0  0  0  0  0  0  0
   -1.2549    4.0882    6.1038 O   0  0  0  0  0  0  0  0  0  0  0  0
   -0.3060    1.9749    6.7762 C   0  0  0  0  0  0  0  0  0  0  0  0
    0.6640    1.0519    6.0033 C   0  0  0  0  0  0  0  0  0  0  0  0
    0.0388    0.3427    4.7611 C   0  0  2  0  0  0  0  0  0  0  0  0
   -1.0377   -0.6697    5.2365 C   0  0  0  0  0  0  0  0  0  0  0  0
    2.9850   -0.4032    2.2027 C   0  0  0  0  0  0  0  0  0  0  0  0
    3.1689   -0.6469    0.8970 C   0  0  0  0  0  0  0  0  0  0  0  0
    4.2196   -1.6078    0.7312 C   0  0  0  0  0  0  0  0  0  0  0  0
    4.6587   -2.0730   -0.4358 O   0  0  0  0  0  0  0  0  0  0  0  0
    4.6769   -1.9583    1.9486 C   0  0  0  0  0  0  0  0  0  0  0  0
    5.7060   -2.8284    2.2568 N   0  0  0  0  0  0  0  0  0  0  0  0
    6.2893   -3.9071    1.4532 C   0  0  0  0  0  0  0  0  0  0  0  0
    5.6200   -5.2967    1.6755 C   0  0  2  0  0  0  0  0  0  0  0  0
    4.2225   -5.2351    1.3420 O   0  0  0  0  0  0  0  0  0  0  0  0
    3.4219   -5.3241    2.4812 C   0  0  1  0  0  0  0  0  0  0  0  0
    2.7182   -6.6460    2.4534 N   0  0  0  0  0  0  0  0  0  0  0  0
    3.0446   -7.7976    1.7653 C   0  0  0  0  0  0  0  0  0  0  0  0
    2.2797   -8.8218    2.0065 N   0  0  0  0  0  0  0  0  0  0  0  0
    1.3060   -8.3218    2.8688 C   0  0  0  0  0  0  0  0  0  0  0  0
    0.1631   -8.8544    3.4983 C   0  0  0  0  0  0  0  0  0  0  0  0
   -0.1883  -10.1194    3.2969 N   0  0  0  0  0  0  0  0  0  0  0  0
   -0.5806   -8.0847    4.3062 N   0  0  0  0  0  0  0  0  0  0  0  0
   -0.2164   -6.8034    4.5100 C   0  0  0  0  0  0  0  0  0  0  0  0
    0.8132   -6.1488    3.9677 N   0  0  0  0  0  0  0  0  0  0  0  0
    1.5683   -6.9359    3.1559 C   0  0  0  0  0  0  0  0  0  0  0  0
    4.3934   -5.2701    3.6998 C   0  0  1  0  0  0  0  0  0  0  0  0
    3.9819   -5.9282    4.8739 O   0  0  0  0  0  0  0  0  0  0  0  0
    5.6927   -5.8022    3.1241 C   0  0  1  0  0  0  0  0  0  0  0  0
    5.7417   -7.2147    3.1337 O   0  0  0  0  0  0  0  0  0  0  0  0
   -0.9767  -10.4888    3.8287 H   0  0  0  0  0  0  0  0  0  0  0  0
    5.4795    0.3415    3.1135 H   0  0  0  0  0  0  0  0  0  0  0  0
    5.6458   -0.8701    4.3889 H   0  0  0  0  0  0  0  0  0  0  0  0
    4.3994    0.3771    4.5056 H   0  0  0  0  0  0  0  0  0  0  0  0
    2.5413   -2.7679    3.4546 H   0  0  0  0  0  0  0  0  0  0  0  0
    3.7332   -2.5391    4.7735 H   0  0  0  0  0  0  0  0  0  0  0  0
    1.5098   -2.0076    5.3979 H   0  0  0  0  0  0  0  0  0  0  0  0
    2.6114   -0.6484    5.5260 H   0  0  0  0  0  0  0  0  0  0  0  0
    0.5552   -1.1773    3.3225 H   0  0  0  0  0  0  0  0  0  0  0  0
    2.4345    1.1819    3.4514 H   0  0  0  0  0  0  0  0  0  0  0  0
    1.4576    1.8721    1.3794 H   0  0  0  0  0  0  0  0  0  0  0  0
    0.5033    0.3974    1.2206 H   0  0  0  0  0  0  0  0  0  0  0  0
   -0.7113    2.5431    2.1191 H   0  0  0  0  0  0  0  0  0  0  0  0
   -2.0826    3.0323    3.9396 H   0  0  0  0  0  0  0  0  0  0  0  0
   -2.5380    1.6360    4.9000 H   0  0  0  0  0  0  0  0  0  0  0  0
    0.2381    2.5673    7.5127 H   0  0  0  0  0  0  0  0  0  0  0  0
   -1.0255    1.3830    7.3403 H   0  0  0  0  0  0  0  0  0  0  0  0
    1.5103    1.6588    5.6755 H   0  0  0  0  0  0  0  0  0  0  0  0
    1.0646    0.3264    6.7126 H   0  0  0  0  0  0  0  0  0  0  0  0
   -0.6074   -1.4645    5.8434 H   0  0  0  0  0  0  0  0  0  0  0  0
   -1.5317   -1.1385    4.3856 H   0  0  0  0  0  0  0  0  0  0  0  0
   -1.8159   -0.2038    5.8362 H   0  0  0  0  0  0  0  0  0  0  0  0
    2.5951   -0.2487    0.0827 H   0  0  0  0  0  0  0  0  0  0  0  0
    4.0905   -1.7249   -1.1021 H   0  0  0  0  0  0  0  0  0  0  0  0
    6.3102   -3.6562    0.3911 H   0  0  0  0  0  0  0  0  0  0  0  0
    7.3497   -3.9874    1.7209 H   0  0  0  0  0  0  0  0  0  0  0  0
    6.1060   -5.9965    0.9999 H   0  0  0  0  0  0  0  0  0  0  0  0
    2.5876   -4.6200    2.4328 H   0  0  0  0  0  0  0  0  0  0  0  0
    3.9031   -7.8809    1.0985 H   0  0  0  0  0  0  0  0  0  0  0  0
    0.3689  -10.6929    2.6895 H   0  0  0  0  0  0  0  0  0  0  0  0
   -0.8426   -6.2643    5.2011 H   0  0  0  0  0  0  0  0  0  0  0  0
    4.6020   -4.2384    3.9639 H   0  0  0  0  0  0  0  0  0  0  0  0
    3.8183   -6.8322    4.6861 H   0  0  0  0  0  0  0  0  0  0  0  0
    6.5642   -5.4313    3.6659 H   0  0  0  0  0  0  0  0  0  0  0  0
    4.9374   -7.5271    2.7621 H   0  0  0  0  0  0  0  0  0  0  0  0
    5.9652   -2.8231    3.2336 H   0  0  0  0  0  0  0  0  0  0  0  0
  2  1  1  1
  1 42  1  0
  1 43  1  0
  1 44  1  0
  2 17  1  0
  2 21  1  0
  2  3  1  0
  3  4  1  0
  3 45  1  0
  3 46  1  0
  4  5  1  0
  4 47  1  0
  4 48  1  0
  5 15  1  0
  5  6  1  0
  5 49  1  6
  6  7  1  0
  6 17  1  0
  6 50  1  1
  7  8  1  0
  7 51  1  0
  7 52  1  0
  8  9  2  0
  8 53  1  0
  9 15  1  0
  9 10  1  0
 10 11  1  0
 10 54  1  0
 10 55  1  0
 11 12  2  0
 11 13  1  0
 13 14  1  0
 13 56  1  0
 13 57  1  0
 14 15  1  0
 14 58  1  0
 14 59  1  0
 15 16  1  1
 16 60  1  0
 16 61  1  0
 16 62  1  0
 17 18  2  0
 18 19  1  0
 18 63  1  0
 19 20  1  0
 19 21  2  0
 20 64  1  0
 21 22  1  0
 22 23  1  0
 22 76  1  0
 23 24  1  0
 23 65  1  0
 23 66  1  0
 24 39  1  0
 24 25  1  0
 24 67  1  6
 25 26  1  0
 26 37  1  0
 26 68  1  1
 26 27  1  0
 27 28  1  0
 27 36  1  0
 28 29  2  0
 28 69  1  0
 29 30  1  0
 30 31  1  0
 30 36  2  0
 31 33  2  0
 31 32  1  0
 32 70  1  0
 32 41  1  0
 33 34  1  0
 34 71  1  0
 34 35  2  0
 35 36  1  0
 37 38  1  0
 37 39  1  0
 37 72  1  1
 38 73  1  0
 39 40  1  0
 39 74  1  1
 40 75  1  0
M  END
>  <i_m_ct_stereo_status>  (399) 
1

>  <s_m_source_file>  (399) 
/var/tmp/pbs.5102103.sched01/tmpeh5ntauu/15412114_vq.sdf

>  <i_m_source_file_index>  (399) 
2

>  <i_lp_mmshare_version>  (399) 
48012

>  <i_f3d_flags>  (399) 
0

>  <s_epik_input>  (399) 
W0NIMl0xW0NIMl1DKD1PKVtDSDJdQyg9W0NIXVtDSDJdMilbQ0BAXTEoW0NIM10pW0NASF0oW0NIMl1bQ0gyXTMpW0NASF0yQyhbQ0BAXTM0W0NIM10pPVtDSF1bQ0BASF0oW09IXSlDXDQ9Ti9bQ0gyXVtDQEBIXTVPW0NASF0oW0NAQEhdKFtPSF0pW0NASF01W09IXSluKFtjSF1uNiljKGM2NyluW2NIXVtuSF1jXDc9Ti9bSF0=

>  <s_epik_cmdline>  (399) 
J2VwaWtfcHl0aG9uJywgJy1waHQnLCAnMi4wJywgJy1waCcsICc3LjAnLCAnLXRuJywgJzgnLCAnLW1hJywgJzIwMCcsICctaW1hZScsICc8aW5maWxlLm1hZT4nLCAnLW9tYWUnLCAnPG91dGZpbGUubWFlPic=

>  <r_lp_tautomer_probability>  (399) 
1

>  <r_epik_Ionization_Penalty>  (399) 
0.000423099

>  <r_epik_Ionization_Penalty_Charging>  (399) 
0

>  <r_epik_Ionization_Penalty_Neutral>  (399) 
0.000423099

>  <r_epik_State_Penalty>  (399) 
-0

>  <r_epik_Charging_Adjusted_Penalty>  (399) 
0

>  <i_epik_Tot_Q>  (399) 
0

>  <i_epik_Tot_abs_Q>  (399) 
0

>  <s_epik_Chemistry_Notes>  (399) 
This compound contains an acetal/aminal-like group ( X-CH(R)-Y where X, Y are N, S, or O) that may be acid/base labile, releasing an aldehyde.

>  <s_lp_Force_Field>  (399) 
OPLS3e

>  <r_lp_Energy>  (399) 
43.4862

>  <b_lp_Chiralities_Consistent>  (399) 
1

>  <s_lp_Variant>  (399) 
97:0-1

>  <s_i_glide_gridfile>  (399) 
pfpi4k_grid

>  <i_i_glide_lignum>  (399) 
2

>  <i_i_glide_rotatable_bonds>  (399) 
7

>  <r_i_docking_score>  (399) 
-2.21948

>  <r_i_glide_ligand_efficiency>  (399) 
-0.055487

>  <r_i_glide_ligand_efficiency_sa>  (399) 
-0.189763

>  <r_i_glide_ligand_efficiency_ln>  (399) 
-0.473349

>  <r_i_glide_gscore>  (399) 
-2.21948

>  <r_i_glide_lipo>  (399) 
-0.277259

>  <r_i_glide_hbond>  (399) 
-0.16

>  <r_i_glide_metal>  (399) 
-0

>  <r_i_glide_rewards>  (399) 
0

>  <r_i_glide_evdw>  (399) 
-32.9689

>  <r_i_glide_ecoul>  (399) 
-2.06871

>  <r_i_glide_erotb>  (399) 
0.275388

>  <r_i_glide_esite>  (399) 
-0.0988578

>  <r_i_glide_emodel>  (399) 
-36.6965

>  <r_i_glide_energy>  (399) 
-35.0376

>  <r_i_glide_einternal>  (399) 
4.96631

>  <r_i_glide_intrahb_reward>  (399) 
-0

>  <i_i_glide_confnum>  (399) 
5

>  <i_i_glide_posenum>  (399) 
20

>  <r_i_glide_eff_state_penalty>  (399) 
0

>  <ligand_id>  (399) 
97

>  <original_smiles>  (399) 
CC12CCC3C(CC=C4CC(=O)CCC43C)C1=CC(O)C2=NCC1OC(n2cnc3c(=N)[nH]cnc32)C(O)C1O

>  <smiles>  (399) 
[H]OC1=C(N([H])C([H])([H])C2([H])OC([H])(n3c([H])nc4c(N([H])[H])nc([H])nc43)C([H])(O[H])C2([H])O[H])C2(C([H])([H])[H])C(=C1[H])C1([H])C([H])([H])C([H])=C3C([H])([H])C(=O)C([H])([H])C([H])([H])C3(C([H])([H])[H])C1([H])C([H])([H])C2([H])[H]

$$$$
97:0:1
     RDKit          3D

 76 82  0  0  1  0  0  0  0  0999 V2000
    5.0420   -0.4767    3.7897 C   0  0  0  0  0  0  0  0  0  0  0  0
    4.0805   -1.3286    2.9553 C   0  0  1  0  0  0  0  0  0  0  0  0
    3.1710   -2.2170    3.8322 C   0  0  0  0  0  0  0  0  0  0  0  0
    2.1396   -1.4625    4.6645 C   0  0  0  0  0  0  0  0  0  0  0  0
    1.2174   -0.6026    3.7644 C   0  0  2  0  0  0  0  0  0  0  0  0
    2.0470    0.2949    2.7986 C   0  0  2  0  0  0  0  0  0  0  0  0
    1.1273    1.0493    1.8283 C   0  0  0  0  0  0  0  0  0  0  0  0
   -0.0369    1.6859    2.5464 C   0  0  0  0  0  0  0  0  0  0  0  0
   -0.4948    1.3134    3.7546 C   0  0  0  0  0  0  0  0  0  0  0  0
   -1.5850    2.1154    4.4454 C   0  0  0  0  0  0  0  0  0  0  0  0
   -1.0162    2.6927    5.7376 C   0  0  0  0  0  0  0  0  0  0  0  0
   -1.1822    3.8685    6.0487 O   0  0  0  0  0  0  0  0  0  0  0  0
   -0.2848    1.7134    6.6554 C   0  0  0  0  0  0  0  0  0  0  0  0
    0.7003    0.8153    5.8771 C   0  0  0  0  0  0  0  0  0  0  0  0
    0.1179    0.1687    4.5822 C   0  0  2  0  0  0  0  0  0  0  0  0
   -0.9901   -0.8476    4.9656 C   0  0  0  0  0  0  0  0  0  0  0  0
    3.1589   -0.4867    2.0982 C   0  0  0  0  0  0  0  0  0  0  0  0
    3.3866   -0.6782    0.7955 C   0  0  0  0  0  0  0  0  0  0  0  0
    4.4187   -1.6631    0.6257 C   0  0  0  0  0  0  0  0  0  0  0  0
    4.8949   -2.0747   -0.5495 O   0  0  0  0  0  0  0  0  0  0  0  0
    4.8218   -2.0815    1.8449 C   0  0  0  0  0  0  0  0  0  0  0  0
    5.8113   -2.9952    2.1608 N   0  0  0  0  0  0  0  0  0  0  0  0
    6.3806   -4.0779    1.3522 C   0  0  0  0  0  0  0  0  0  0  0  0
    5.6055   -5.4177    1.4585 C   0  0  2  0  0  0  0  0  0  0  0  0
    4.1939   -5.2251    1.2600 O   0  0  0  0  0  0  0  0  0  0  0  0
    3.4611   -5.3612    2.4553 C   0  0  1  0  0  0  0  0  0  0  0  0
    2.6631   -6.6154    2.3571 N   0  0  0  0  0  0  0  0  0  0  0  0
    2.8537   -7.7237    1.5590 C   0  0  0  0  0  0  0  0  0  0  0  0
    1.9667   -8.6679    1.7298 N   0  0  0  0  0  0  0  0  0  0  0  0
    1.0867   -8.1433    2.6543 C   0  0  0  0  0  0  0  0  0  0  0  0
   -0.1103   -8.6055    3.2441 C   0  0  0  0  0  0  0  0  0  0  0  0
   -0.6164   -9.8041    2.9234 N   0  0  0  0  0  0  0  0  0  0  0  0
   -0.7583   -7.8307    4.1421 N   0  0  0  0  0  0  0  0  0  0  0  0
   -0.2552   -6.6292    4.4510 C   0  0  0  0  0  0  0  0  0  0  0  0
    0.8427   -6.0421    3.9467 N   0  0  0  0  0  0  0  0  0  0  0  0
    1.4973   -6.8521    3.0590 C   0  0  0  0  0  0  0  0  0  0  0  0
    4.5375   -5.5054    3.5791 C   0  0  1  0  0  0  0  0  0  0  0  0
    4.1662   -6.2720    4.6979 O   0  0  0  0  0  0  0  0  0  0  0  0
    5.7390   -6.0812    2.8387 C   0  0  1  0  0  0  0  0  0  0  0  0
    5.6495   -7.4837    2.6903 O   0  0  0  0  0  0  0  0  0  0  0  0
   -1.3826  -10.1708    3.4658 H   0  0  0  0  0  0  0  0  0  0  0  0
    5.6276    0.1703    3.1375 H   0  0  0  0  0  0  0  0  0  0  0  0
    5.7220   -1.1073    4.3658 H   0  0  0  0  0  0  0  0  0  0  0  0
    4.4889    0.1515    4.4887 H   0  0  0  0  0  0  0  0  0  0  0  0
    2.5559   -2.7796    3.1750 H   0  0  0  0  0  0  0  0  0  0  0  0
    3.7512   -2.8412    4.5205 H   0  0  0  0  0  0  0  0  0  0  0  0
    1.5480   -2.2267    5.1693 H   0  0  0  0  0  0  0  0  0  0  0  0
    2.6539   -0.8839    5.4319 H   0  0  0  0  0  0  0  0  0  0  0  0
    0.6809   -1.2921    3.1020 H   0  0  0  0  0  0  0  0  0  0  0  0
    2.5724    1.0289    3.4010 H   0  0  0  0  0  0  0  0  0  0  0  0
    1.6945    1.8318    1.3292 H   0  0  0  0  0  0  0  0  0  0  0  0
    0.7249    0.3979    1.0562 H   0  0  0  0  0  0  0  0  0  0  0  0
   -0.5003    2.5151    2.0364 H   0  0  0  0  0  0  0  0  0  0  0  0
   -1.9347    2.9281    3.8063 H   0  0  0  0  0  0  0  0  0  0  0  0
   -2.4442    1.4897    4.6786 H   0  0  0  0  0  0  0  0  0  0  0  0
    0.2360    2.2640    7.4403 H   0  0  0  0  0  0  0  0  0  0  0  0
   -1.0357    1.1086    7.1598 H   0  0  0  0  0  0  0  0  0  0  0  0
    1.5668    1.4222    5.6096 H   0  0  0  0  0  0  0  0  0  0  0  0
    1.0629    0.0518    6.5685 H   0  0  0  0  0  0  0  0  0  0  0  0
   -0.5982   -1.6785    5.5521 H   0  0  0  0  0  0  0  0  0  0  0  0
   -1.4556   -1.2705    4.0788 H   0  0  0  0  0  0  0  0  0  0  0  0
   -1.7874   -0.4016    5.5566 H   0  0  0  0  0  0  0  0  0  0  0  0
    2.8154   -0.2688   -0.0209 H   0  0  0  0  0  0  0  0  0  0  0  0
    5.5101   -2.7695   -0.3680 H   0  0  0  0  0  0  0  0  0  0  0  0
    6.4869   -3.7614    0.3152 H   0  0  0  0  0  0  0  0  0  0  0  0
    7.4077   -4.2386    1.6886 H   0  0  0  0  0  0  0  0  0  0  0  0
    5.9784   -6.0709    0.6619 H   0  0  0  0  0  0  0  0  0  0  0  0
    2.6861   -4.6242    2.5491 H   0  0  0  0  0  0  0  0  0  0  0  0
    3.6587   -7.8140    0.8435 H   0  0  0  0  0  0  0  0  0  0  0  0
   -0.0973  -10.3678    2.2729 H   0  0  0  0  0  0  0  0  0  0  0  0
   -0.8129   -6.0794    5.1932 H   0  0  0  0  0  0  0  0  0  0  0  0
    4.8436   -4.5283    3.9374 H   0  0  0  0  0  0  0  0  0  0  0  0
    3.9232   -7.1351    4.3985 H   0  0  0  0  0  0  0  0  0  0  0  0
    6.6916   -5.8612    3.3313 H   0  0  0  0  0  0  0  0  0  0  0  0
    4.7904   -7.6615    2.3388 H   0  0  0  0  0  0  0  0  0  0  0  0
    6.0750   -3.0023    3.1394 H   0  0  0  0  0  0  0  0  0  0  0  0
  2  1  1  1
  1 42  1  0
  1 43  1  0
  1 44  1  0
  2 17  1  0
  2 21  1  0
  2  3  1  0
  3  4  1  0
  3 45  1  0
  3 46  1  0
  4  5  1  0
  4 47  1  0
  4 48  1  0
  5 15  1  0
  5  6  1  0
  5 49  1  6
  6  7  1  0
  6 17  1  0
  6 50  1  1
  7  8  1  0
  7 51  1  0
  7 52  1  0
  8  9  2  0
  8 53  1  0
  9 15  1  0
  9 10  1  0
 10 11  1  0
 10 54  1  0
 10 55  1  0
 11 12  2  0
 11 13  1  0
 13 14  1  0
 13 56  1  0
 13 57  1  0
 14 15  1  0
 14 58  1  0
 14 59  1  0
 15 16  1  1
 16 60  1  0
 16 61  1  0
 16 62  1  0
 17 18  2  0
 18 19  1  0
 18 63  1  0
 19 20  1  0
 19 21  2  0
 20 64  1  0
 21 22  1  0
 22 23  1  0
 22 76  1  0
 23 24  1  0
 23 65  1  0
 23 66  1  0
 24 39  1  0
 24 25  1  0
 24 67  1  6
 25 26  1  0
 26 37  1  0
 26 68  1  1
 26 27  1  0
 27 28  1  0
 27 36  1  0
 28 29  2  0
 28 69  1  0
 29 30  1  0
 30 31  1  0
 30 36  2  0
 31 33  2  0
 31 32  1  0
 32 70  1  0
 32 41  1  0
 33 34  1  0
 34 71  1  0
 34 35  2  0
 35 36  1  0
 37 38  1  0
 37 39  1  0
 37 72  1  1
 38 73  1  0
 39 40  1  0
 39 74  1  1
 40 75  1  0
M  END
>  <i_m_ct_stereo_status>  (400) 
1

>  <s_m_source_file>  (400) 
/var/tmp/pbs.5102103.sched01/tmpeh5ntauu/15412114_vq.sdf

>  <i_m_source_file_index>  (400) 
2

>  <i_lp_mmshare_version>  (400) 
48012

>  <i_f3d_flags>  (400) 
0

>  <s_epik_input>  (400) 
W0NIMl0xW0NIMl1DKD1PKVtDSDJdQyg9W0NIXVtDSDJdMilbQ0BAXTEoW0NIM10pW0NASF0oW0NIMl1bQ0gyXTMpW0NASF0yQyhbQ0BAXTM0W0NIM10pPVtDSF1bQ0BASF0oW09IXSlDXDQ9Ti9bQ0gyXVtDQEBIXTVPW0NASF0oW0NAQEhdKFtPSF0pW0NASF01W09IXSluKFtjSF1uNiljKGM2NyluW2NIXVtuSF1jXDc9Ti9bSF0=

>  <s_epik_cmdline>  (400) 
J2VwaWtfcHl0aG9uJywgJy1waHQnLCAnMi4wJywgJy1waCcsICc3LjAnLCAnLXRuJywgJzgnLCAnLW1hJywgJzIwMCcsICctaW1hZScsICc8aW5maWxlLm1hZT4nLCAnLW9tYWUnLCAnPG91dGZpbGUubWFlPic=

>  <r_lp_tautomer_probability>  (400) 
1

>  <r_epik_Ionization_Penalty>  (400) 
0.000423099

>  <r_epik_Ionization_Penalty_Charging>  (400) 
0

>  <r_epik_Ionization_Penalty_Neutral>  (400) 
0.000423099

>  <r_epik_State_Penalty>  (400) 
-0

>  <r_epik_Charging_Adjusted_Penalty>  (400) 
0

>  <i_epik_Tot_Q>  (400) 
0

>  <i_epik_Tot_abs_Q>  (400) 
0

>  <s_epik_Chemistry_Notes>  (400) 
This compound contains an acetal/aminal-like group ( X-CH(R)-Y where X, Y are N, S, or O) that may be acid/base labile, releasing an aldehyde.

>  <s_lp_Force_Field>  (400) 
OPLS3e

>  <r_lp_Energy>  (400) 
43.4862

>  <b_lp_Chiralities_Consistent>  (400) 
1

>  <s_lp_Variant>  (400) 
97:0-1

>  <s_i_glide_gridfile>  (400) 
pfpi4k_grid

>  <i_i_glide_lignum>  (400) 
2

>  <i_i_glide_rotatable_bonds>  (400) 
7

>  <r_i_docking_score>  (400) 
-2.15281

>  <r_i_glide_ligand_efficiency>  (400) 
-0.0538202

>  <r_i_glide_ligand_efficiency_sa>  (400) 
-0.184062

>  <r_i_glide_ligand_efficiency_ln>  (400) 
-0.459131

>  <r_i_glide_gscore>  (400) 
-2.15281

>  <r_i_glide_lipo>  (400) 
-0.313185

>  <r_i_glide_hbond>  (400) 
-0.16

>  <r_i_glide_metal>  (400) 
-0

>  <r_i_glide_rewards>  (400) 
0

>  <r_i_glide_evdw>  (400) 
-33.9459

>  <r_i_glide_ecoul>  (400) 
-1.16678

>  <r_i_glide_erotb>  (400) 
0.275388

>  <r_i_glide_esite>  (400) 
-0.0826984

>  <r_i_glide_emodel>  (400) 
-34.9056

>  <r_i_glide_energy>  (400) 
-35.1127

>  <r_i_glide_einternal>  (400) 
5.39811

>  <r_i_glide_intrahb_reward>  (400) 
-0

>  <i_i_glide_confnum>  (400) 
5

>  <i_i_glide_posenum>  (400) 
26

>  <r_i_glide_eff_state_penalty>  (400) 
0

>  <ligand_id>  (400) 
97

>  <original_smiles>  (400) 
CC12CCC3C(CC=C4CC(=O)CCC43C)C1=CC(O)C2=NCC1OC(n2cnc3c(=N)[nH]cnc32)C(O)C1O

>  <smiles>  (400) 
[H]OC1=C(N([H])C([H])([H])C2([H])OC([H])(n3c([H])nc4c(N([H])[H])nc([H])nc43)C([H])(O[H])C2([H])O[H])C2(C([H])([H])[H])C(=C1[H])C1([H])C([H])([H])C([H])=C3C([H])([H])C(=O)C([H])([H])C([H])([H])C3(C([H])([H])[H])C1([H])C([H])([H])C2([H])[H]

$$$$
97:0:2
     RDKit          3D

 76 82  0  0  1  0  0  0  0  0999 V2000
    4.5738   -0.9161    5.1400 C   0  0  0  0  0  0  0  0  0  0  0  0
    3.7593   -1.7434    4.1473 C   0  0  1  0  0  0  0  0  0  0  0  0
    2.5820   -2.4560    4.8380 C   0  0  0  0  0  0  0  0  0  0  0  0
    1.4627   -1.5219    5.2817 C   0  0  0  0  0  0  0  0  0  0  0  0
    0.9156   -0.6562    4.1096 C   0  0  2  0  0  0  0  0  0  0  0  0
    2.0649    0.0529    3.3342 C   0  0  2  0  0  0  0  0  0  0  0  0
    1.5263    0.7972    2.1045 C   0  0  0  0  0  0  0  0  0  0  0  0
    0.3072    1.6184    2.4446 C   0  0  0  0  0  0  0  0  0  0  0  0
   -0.4857    1.4173    3.5120 C   0  0  0  0  0  0  0  0  0  0  0  0
   -1.6097    2.3927    3.8214 C   0  0  0  0  0  0  0  0  0  0  0  0
   -1.3074    3.0296    5.1704 C   0  0  0  0  0  0  0  0  0  0  0  0
   -1.3601    4.2461    5.3342 O   0  0  0  0  0  0  0  0  0  0  0  0
   -0.9816    2.0837    6.3227 C   0  0  0  0  0  0  0  0  0  0  0  0
    0.0544    1.0163    5.9053 C   0  0  0  0  0  0  0  0  0  0  0  0
   -0.2505    0.3082    4.5507 C   0  0  2  0  0  0  0  0  0  0  0  0
   -1.5393   -0.5393    4.7013 C   0  0  0  0  0  0  0  0  0  0  0  0
    3.2021   -0.9131    3.0071 C   0  0  0  0  0  0  0  0  0  0  0  0
    3.7319   -1.2460    1.8158 C   0  0  0  0  0  0  0  0  0  0  0  0
    4.6515   -2.3326    2.0270 C   0  0  0  0  0  0  0  0  0  0  0  0
    5.3664   -2.9320    1.0732 O   0  0  0  0  0  0  0  0  0  0  0  0
    4.6643   -2.6592    3.3295 C   0  0  0  0  0  0  0  0  0  0  0  0
    5.3967   -3.6482    3.9802 N   0  0  0  0  0  0  0  0  0  0  0  0
    6.1207   -4.7771    3.3879 C   0  0  0  0  0  0  0  0  0  0  0  0
    5.2398   -6.0184    3.0918 C   0  0  2  0  0  0  0  0  0  0  0  0
    4.0248   -5.6148    2.4585 O   0  0  0  0  0  0  0  0  0  0  0  0
    2.9356   -5.7282    3.3289 C   0  0  1  0  0  0  0  0  0  0  0  0
    2.0891   -6.8385    2.8322 N   0  0  0  0  0  0  0  0  0  0  0  0
    2.4128   -7.8235    1.9265 C   0  0  0  0  0  0  0  0  0  0  0  0
    1.4633   -8.6826    1.6910 N   0  0  0  0  0  0  0  0  0  0  0  0
    0.4005   -8.2471    2.4828 C   0  0  0  0  0  0  0  0  0  0  0  0
   -0.9211   -8.6909    2.7084 C   0  0  0  0  0  0  0  0  0  0  0  0
   -1.4066   -9.7310    2.0863 N   0  0  0  0  0  0  0  0  0  0  0  0
   -1.7073   -8.0234    3.5843 N   0  0  0  0  0  0  0  0  0  0  0  0
   -1.2175   -6.9574    4.2184 C   0  0  0  0  0  0  0  0  0  0  0  0
   -0.0228   -6.3719    4.0684 N   0  0  0  0  0  0  0  0  0  0  0  0
    0.7779   -7.0760    3.2011 C   0  0  0  0  0  0  0  0  0  0  0  0
    3.5220   -6.0577    4.7297 C   0  0  1  0  0  0  0  0  0  0  0  0
    2.7388   -6.8558    5.5782 O   0  0  0  0  0  0  0  0  0  0  0  0
    4.8173   -6.7619    4.3684 C   0  0  1  0  0  0  0  0  0  0  0  0
    4.6324   -8.1468    4.0755 O   0  0  0  0  0  0  0  0  0  0  0  0
   -2.3066  -10.0865    2.3183 H   0  0  0  0  0  0  0  0  0  0  0  0
    5.3824   -0.3956    4.6269 H   0  0  0  0  0  0  0  0  0  0  0  0
    5.0082   -1.5458    5.9188 H   0  0  0  0  0  0  0  0  0  0  0  0
    3.9507   -0.1648    5.6273 H   0  0  0  0  0  0  0  0  0  0  0  0
    2.0676   -3.0604    4.1036 H   0  0  0  0  0  0  0  0  0  0  0  0
    2.9145   -3.0929    5.6619 H   0  0  0  0  0  0  0  0  0  0  0  0
    0.6616   -2.1552    5.6635 H   0  0  0  0  0  0  0  0  0  0  0  0
    1.8335   -0.9219    6.1028 H   0  0  0  0  0  0  0  0  0  0  0  0
    0.4801   -1.3415    3.3762 H   0  0  0  0  0  0  0  0  0  0  0  0
    2.5092    0.7881    4.0021 H   0  0  0  0  0  0  0  0  0  0  0  0
    2.2967    1.4676    1.7228 H   0  0  0  0  0  0  0  0  0  0  0  0
    1.2576    0.1150    1.2970 H   0  0  0  0  0  0  0  0  0  0  0  0
    0.0985    2.4319    1.7685 H   0  0  0  0  0  0  0  0  0  0  0  0
   -1.6751    3.1702    3.0592 H   0  0  0  0  0  0  0  0  0  0  0  0
   -2.5750    1.8909    3.8639 H   0  0  0  0  0  0  0  0  0  0  0  0
   -0.6159    2.6565    7.1768 H   0  0  0  0  0  0  0  0  0  0  0  0
   -1.9095    1.6160    6.6500 H   0  0  0  0  0  0  0  0  0  0  0  0
    1.0273    1.5069    5.8362 H   0  0  0  0  0  0  0  0  0  0  0  0
    0.1301    0.2935    6.7198 H   0  0  0  0  0  0  0  0  0  0  0  0
   -1.4198   -1.3479    5.4214 H   0  0  0  0  0  0  0  0  0  0  0  0
   -1.8160   -0.9868    3.7508 H   0  0  0  0  0  0  0  0  0  0  0  0
   -2.4001    0.0441    5.0224 H   0  0  0  0  0  0  0  0  0  0  0  0
    3.4633   -0.8404    0.8493 H   0  0  0  0  0  0  0  0  0  0  0  0
    5.1149   -2.5474    0.2531 H   0  0  0  0  0  0  0  0  0  0  0  0
    6.6467   -4.4557    2.4857 H   0  0  0  0  0  0  0  0  0  0  0  0
    6.9131   -5.0653    4.0886 H   0  0  0  0  0  0  0  0  0  0  0  0
    5.8129   -6.6608    2.4176 H   0  0  0  0  0  0  0  0  0  0  0  0
    2.2371   -4.9065    3.2108 H   0  0  0  0  0  0  0  0  0  0  0  0
    3.3864   -7.9051    1.4547 H   0  0  0  0  0  0  0  0  0  0  0  0
   -0.7917  -10.2051    1.4223 H   0  0  0  0  0  0  0  0  0  0  0  0
   -1.8915   -6.4976    4.9219 H   0  0  0  0  0  0  0  0  0  0  0  0
    3.7387   -5.1303    5.2502 H   0  0  0  0  0  0  0  0  0  0  0  0
    2.5492   -7.6464    5.0973 H   0  0  0  0  0  0  0  0  0  0  0  0
    5.5641   -6.6975    5.1623 H   0  0  0  0  0  0  0  0  0  0  0  0
    5.4287   -8.5121    3.7218 H   0  0  0  0  0  0  0  0  0  0  0  0
    5.3554   -3.6263    4.9908 H   0  0  0  0  0  0  0  0  0  0  0  0
  2  1  1  1
  1 42  1  0
  1 43  1  0
  1 44  1  0
  2 17  1  0
  2 21  1  0
  2  3  1  0
  3  4  1  0
  3 45  1  0
  3 46  1  0
  4  5  1  0
  4 47  1  0
  4 48  1  0
  5 15  1  0
  5  6  1  0
  5 49  1  6
  6  7  1  0
  6 17  1  0
  6 50  1  1
  7  8  1  0
  7 51  1  0
  7 52  1  0
  8  9  2  0
  8 53  1  0
  9 15  1  0
  9 10  1  0
 10 11  1  0
 10 54  1  0
 10 55  1  0
 11 12  2  0
 11 13  1  0
 13 14  1  0
 13 56  1  0
 13 57  1  0
 14 15  1  0
 14 58  1  0
 14 59  1  0
 15 16  1  1
 16 60  1  0
 16 61  1  0
 16 62  1  0
 17 18  2  0
 18 19  1  0
 18 63  1  0
 19 20  1  0
 19 21  2  0
 20 64  1  0
 21 22  1  0
 22 23  1  0
 22 76  1  0
 23 24  1  0
 23 65  1  0
 23 66  1  0
 24 39  1  0
 24 25  1  0
 24 67  1  6
 25 26  1  0
 26 37  1  0
 26 68  1  1
 26 27  1  0
 27 28  1  0
 27 36  1  0
 28 29  2  0
 28 69  1  0
 29 30  1  0
 30 31  1  0
 30 36  2  0
 31 33  2  0
 31 32  1  0
 32 70  1  0
 32 41  1  0
 33 34  1  0
 34 71  1  0
 34 35  2  0
 35 36  1  0
 37 38  1  0
 37 39  1  0
 37 72  1  1
 38 73  1  0
 39 40  1  0
 39 74  1  1
 40 75  1  0
M  END
>  <i_m_ct_stereo_status>  (401) 
1

>  <s_m_source_file>  (401) 
/var/tmp/pbs.5102103.sched01/tmpeh5ntauu/15412114_vq.sdf

>  <i_m_source_file_index>  (401) 
2

>  <i_lp_mmshare_version>  (401) 
48012

>  <i_f3d_flags>  (401) 
0

>  <s_epik_input>  (401) 
W0NIMl0xW0NIMl1DKD1PKVtDSDJdQyg9W0NIXVtDSDJdMilbQ0BAXTEoW0NIM10pW0NASF0oW0NIMl1bQ0gyXTMpW0NASF0yQyhbQ0BAXTM0W0NIM10pPVtDSF1bQ0BASF0oW09IXSlDXDQ9Ti9bQ0gyXVtDQEBIXTVPW0NASF0oW0NAQEhdKFtPSF0pW0NASF01W09IXSluKFtjSF1uNiljKGM2NyluW2NIXVtuSF1jXDc9Ti9bSF0=

>  <s_epik_cmdline>  (401) 
J2VwaWtfcHl0aG9uJywgJy1waHQnLCAnMi4wJywgJy1waCcsICc3LjAnLCAnLXRuJywgJzgnLCAnLW1hJywgJzIwMCcsICctaW1hZScsICc8aW5maWxlLm1hZT4nLCAnLW9tYWUnLCAnPG91dGZpbGUubWFlPic=

>  <r_lp_tautomer_probability>  (401) 
1

>  <r_epik_Ionization_Penalty>  (401) 
0.000423099

>  <r_epik_Ionization_Penalty_Charging>  (401) 
0

>  <r_epik_Ionization_Penalty_Neutral>  (401) 
0.000423099

>  <r_epik_State_Penalty>  (401) 
-0

>  <r_epik_Charging_Adjusted_Penalty>  (401) 
0

>  <i_epik_Tot_Q>  (401) 
0

>  <i_epik_Tot_abs_Q>  (401) 
0

>  <s_epik_Chemistry_Notes>  (401) 
This compound contains an acetal/aminal-like group ( X-CH(R)-Y where X, Y are N, S, or O) that may be acid/base labile, releasing an aldehyde.

>  <s_lp_Force_Field>  (401) 
OPLS3e

>  <r_lp_Energy>  (401) 
43.4862

>  <b_lp_Chiralities_Consistent>  (401) 
1

>  <s_lp_Variant>  (401) 
97:0-1

>  <s_i_glide_gridfile>  (401) 
pfpi4k_grid

>  <i_i_glide_lignum>  (401) 
2

>  <i_i_glide_rotatable_bonds>  (401) 
7

>  <r_i_docking_score>  (401) 
-2.03881

>  <r_i_glide_ligand_efficiency>  (401) 
-0.0509702

>  <r_i_glide_ligand_efficiency_sa>  (401) 
-0.174316

>  <r_i_glide_ligand_efficiency_ln>  (401) 
-0.434818

>  <r_i_glide_gscore>  (401) 
-2.03881

>  <r_i_glide_lipo>  (401) 
-0.0868811

>  <r_i_glide_hbond>  (401) 
-0.237635

>  <r_i_glide_metal>  (401) 
-0

>  <r_i_glide_rewards>  (401) 
0

>  <r_i_glide_evdw>  (401) 
-29.6576

>  <r_i_glide_ecoul>  (401) 
-2.60523

>  <r_i_glide_erotb>  (401) 
0.275388

>  <r_i_glide_esite>  (401) 
-0.116019

>  <r_i_glide_emodel>  (401) 
-33.1512

>  <r_i_glide_energy>  (401) 
-32.2628

>  <r_i_glide_einternal>  (401) 
5.46127

>  <r_i_glide_intrahb_reward>  (401) 
-0

>  <i_i_glide_confnum>  (401) 
5

>  <i_i_glide_posenum>  (401) 
40

>  <r_i_glide_eff_state_penalty>  (401) 
0

>  <ligand_id>  (401) 
97

>  <original_smiles>  (401) 
CC12CCC3C(CC=C4CC(=O)CCC43C)C1=CC(O)C2=NCC1OC(n2cnc3c(=N)[nH]cnc32)C(O)C1O

>  <smiles>  (401) 
[H]OC1=C(N([H])C([H])([H])C2([H])OC([H])(n3c([H])nc4c(N([H])[H])nc([H])nc43)C([H])(O[H])C2([H])O[H])C2(C([H])([H])[H])C(=C1[H])C1([H])C([H])([H])C([H])=C3C([H])([H])C(=O)C([H])([H])C([H])([H])C3(C([H])([H])[H])C1([H])C([H])([H])C2([H])[H]

$$$$
98:0:0
     RDKit          3D

 24 26  0  0  1  0  0  0  0  0999 V2000
    0.4044   -3.7209    5.8388 O   0  0  0  0  0  0  0  0  0  0  0  0
   -0.3553   -2.7273    5.7954 C   0  0  0  0  0  0  0  0  0  0  0  0
   -1.3989   -2.5790    6.4674 O   0  0  0  0  0  0  0  0  0  0  0  0
    0.0393   -1.6040    4.7507 C   0  0  0  0  0  0  0  0  0  0  0  0
    1.1267   -1.8047    3.9545 C   0  0  0  0  0  0  0  0  0  0  0  0
    1.5958   -0.9418    2.9679 N   0  0  0  0  0  0  0  0  0  0  0  0
    2.5884   -1.3543    1.9876 C   0  0  0  0  0  0  0  0  0  0  0  0
    3.9117   -1.9055    2.4738 C   0  0  0  0  0  0  0  0  0  0  0  0
    3.8633   -0.5742    1.7615 C   0  0  0  0  0  0  0  0  0  0  0  0
    0.9406    0.2745    2.7374 C   0  0  0  0  0  0  0  0  0  0  0  0
    1.2514    1.2334    1.8791 N   0  0  0  0  0  0  0  0  0  0  0  0
    0.2652    2.1441    2.0816 N   0  0  0  0  0  0  0  0  0  0  0  0
   -0.6407    1.7907    3.0694 C   0  0  0  0  0  0  0  0  0  0  0  0
   -0.2054    0.5814    3.5098 C   0  0  0  0  0  0  0  0  0  0  0  0
   -0.7440   -0.3339    4.5523 C   0  0  0  0  0  0  0  0  0  0  0  0
   -1.7655   -0.0583    5.1866 O   0  0  0  0  0  0  0  0  0  0  0  0
    0.2165    3.0289    1.5457 H   0  0  0  0  0  0  0  0  0  0  0  0
    1.7406   -2.6926    4.0500 H   0  0  0  0  0  0  0  0  0  0  0  0
    2.1103   -1.8559    1.1521 H   0  0  0  0  0  0  0  0  0  0  0  0
    4.1122   -1.8909    3.5430 H   0  0  0  0  0  0  0  0  0  0  0  0
    4.3461   -2.7423    1.9323 H   0  0  0  0  0  0  0  0  0  0  0  0
    4.2278   -0.5328    0.7363 H   0  0  0  0  0  0  0  0  0  0  0  0
    3.9928    0.3348    2.3469 H   0  0  0  0  0  0  0  0  0  0  0  0
   -1.4763    2.4074    3.3550 H   0  0  0  0  0  0  0  0  0  0  0  0
  1  2  2  0
  2  3  1  0
  2  4  1  0
  4 15  1  0
  4  5  2  0
  5  6  1  0
  5 18  1  0
  6  7  1  0
  6 10  1  0
  7  9  1  0
  7  8  1  0
  7 19  1  0
  8  9  1  0
  8 20  1  0
  8 21  1  0
  9 22  1  0
  9 23  1  0
 10 14  1  0
 10 11  2  0
 11 12  1  0
 12 17  1  0
 12 13  1  0
 13 14  2  0
 13 24  1  0
 14 15  1  0
 15 16  2  0
M  CHG  1   3  -1
M  END
>  <i_m_ct_stereo_status>  (402) 
1

>  <s_m_source_file>  (402) 
/var/tmp/pbs.5102103.sched01/tmpeh5ntauu/15412114_vq.sdf

>  <i_m_source_file_index>  (402) 
3

>  <i_lp_mmshare_version>  (402) 
48012

>  <i_f3d_flags>  (402) 
0

>  <s_epik_input>  (402) 
bjFbbkhdW2NIXWMoYzEyKWMoPU8pYyhDKD1PKVtPSF0pW2NIXW4yW0NIXTNbQ0gyXVtDSDJdMw==

>  <s_epik_cmdline>  (402) 
J2VwaWtfcHl0aG9uJywgJy1waHQnLCAnMi4wJywgJy1waCcsICc3LjAnLCAnLXRuJywgJzgnLCAnLW1hJywgJzIwMCcsICctaW1hZScsICc8aW5maWxlLm1hZT4nLCAnLW9tYWUnLCAnPG91dGZpbGUubWFlPic=

>  <r_epik_Ionization_Penalty>  (402) 
0.000466264

>  <r_epik_Ionization_Penalty_Charging>  (402) 
0.000466054

>  <r_epik_Ionization_Penalty_Neutral>  (402) 
2.10293e-07

>  <r_epik_State_Penalty>  (402) 
1.28314e-05

>  <r_epik_Charging_Adjusted_Penalty>  (402) 
0.000478886

>  <i_epik_Tot_Q>  (402) 
-1

>  <i_epik_Tot_abs_Q>  (402) 
1

>  <s_lp_Force_Field>  (402) 
OPLS3e

>  <r_lp_Energy>  (402) 
15.0501

>  <b_lp_Chiralities_Consistent>  (402) 
1

>  <s_lp_Variant>  (402) 
98:0-1

>  <s_i_glide_gridfile>  (402) 
pfpi4k_grid

>  <i_i_glide_lignum>  (402) 
3

>  <i_i_glide_rotatable_bonds>  (402) 
2

>  <r_i_docking_score>  (402) 
-3.71766

>  <r_i_glide_ligand_efficiency>  (402) 
-0.232354

>  <r_i_glide_ligand_efficiency_sa>  (402) 
-0.585494

>  <r_i_glide_ligand_efficiency_ln>  (402) 
-0.985439

>  <r_i_glide_gscore>  (402) 
-3.71766

>  <r_i_glide_lipo>  (402) 
-0.0366687

>  <r_i_glide_hbond>  (402) 
-0.155736

>  <r_i_glide_metal>  (402) 
-0

>  <r_i_glide_rewards>  (402) 
-1.92144

>  <r_i_glide_evdw>  (402) 
-15.15

>  <r_i_glide_ecoul>  (402) 
-6.90271

>  <r_i_glide_erotb>  (402) 
0.352898

>  <r_i_glide_esite>  (402) 
-0.163805

>  <r_i_glide_emodel>  (402) 
-30.6664

>  <r_i_glide_energy>  (402) 
-22.0527

>  <r_i_glide_einternal>  (402) 
0.0243459

>  <r_i_glide_intrahb_reward>  (402) 
-0

>  <i_i_glide_confnum>  (402) 
2

>  <i_i_glide_posenum>  (402) 
26

>  <r_i_glide_eff_state_penalty>  (402) 
0

>  <ligand_id>  (402) 
98

>  <original_smiles>  (402) 
O=C(O)c1cn(C2CC2)c2n[nH]cc2c1=O

>  <smiles>  (402) 
[H]c1c2c(=O)c(C(=O)[O-])c([H])n(C3([H])C([H])([H])C3([H])[H])c2nn1[H]

$$$$
98:0:1
     RDKit          3D

 24 26  0  0  1  0  0  0  0  0999 V2000
    0.3455   -3.7582    5.7705 O   0  0  0  0  0  0  0  0  0  0  0  0
   -0.3970   -2.7456    5.7633 C   0  0  0  0  0  0  0  0  0  0  0  0
   -1.4190   -2.5937    6.4642 O   0  0  0  0  0  0  0  0  0  0  0  0
    0.0043   -1.5970    4.7414 C   0  0  0  0  0  0  0  0  0  0  0  0
    1.1248   -1.7599    4.0085 C   0  0  0  0  0  0  0  0  0  0  0  0
    1.6246   -0.9229    3.0154 N   0  0  0  0  0  0  0  0  0  0  0  0
    2.6514   -1.3538    2.0715 C   0  0  0  0  0  0  0  0  0  0  0  0
    2.7035   -2.8135    1.6636 C   0  0  0  0  0  0  0  0  0  0  0  0
    3.8029   -2.2264    2.5374 C   0  0  0  0  0  0  0  0  0  0  0  0
    0.9588    0.2890    2.7437 C   0  0  0  0  0  0  0  0  0  0  0  0
    1.2894    1.2551    1.9035 N   0  0  0  0  0  0  0  0  0  0  0  0
    0.2646    2.1426    2.0692 N   0  0  0  0  0  0  0  0  0  0  0  0
   -0.6750    1.7660    3.0109 C   0  0  0  0  0  0  0  0  0  0  0  0
   -0.2267    0.5696    3.4668 C   0  0  0  0  0  0  0  0  0  0  0  0
   -0.7928   -0.3483    4.4977 C   0  0  0  0  0  0  0  0  0  0  0  0
   -1.8389   -0.0967    5.0983 O   0  0  0  0  0  0  0  0  0  0  0  0
    0.2228    3.0319    1.5363 H   0  0  0  0  0  0  0  0  0  0  0  0
    1.7210   -2.6366    4.1844 H   0  0  0  0  0  0  0  0  0  0  0  0
    2.8559   -0.6149    1.2975 H   0  0  0  0  0  0  0  0  0  0  0  0
    1.9841   -3.4980    2.1087 H   0  0  0  0  0  0  0  0  0  0  0  0
    2.9575   -3.0550    0.6356 H   0  0  0  0  0  0  0  0  0  0  0  0
    4.7767   -2.0964    2.0710 H   0  0  0  0  0  0  0  0  0  0  0  0
    3.8453   -2.4892    3.5938 H   0  0  0  0  0  0  0  0  0  0  0  0
   -1.5376    2.3522    3.2713 H   0  0  0  0  0  0  0  0  0  0  0  0
  1  2  2  0
  2  3  1  0
  2  4  1  0
  4 15  1  0
  4  5  2  0
  5  6  1  0
  5 18  1  0
  6  7  1  0
  6 10  1  0
  7  9  1  0
  7  8  1  0
  7 19  1  0
  8  9  1  0
  8 20  1  0
  8 21  1  0
  9 22  1  0
  9 23  1  0
 10 14  1  0
 10 11  2  0
 11 12  1  0
 12 17  1  0
 12 13  1  0
 13 14  2  0
 13 24  1  0
 14 15  1  0
 15 16  2  0
M  CHG  1   3  -1
M  END
>  <i_m_ct_stereo_status>  (403) 
1

>  <s_m_source_file>  (403) 
/var/tmp/pbs.5102103.sched01/tmpeh5ntauu/15412114_vq.sdf

>  <i_m_source_file_index>  (403) 
3

>  <i_lp_mmshare_version>  (403) 
48012

>  <i_f3d_flags>  (403) 
0

>  <s_epik_input>  (403) 
bjFbbkhdW2NIXWMoYzEyKWMoPU8pYyhDKD1PKVtPSF0pW2NIXW4yW0NIXTNbQ0gyXVtDSDJdMw==

>  <s_epik_cmdline>  (403) 
J2VwaWtfcHl0aG9uJywgJy1waHQnLCAnMi4wJywgJy1waCcsICc3LjAnLCAnLXRuJywgJzgnLCAnLW1hJywgJzIwMCcsICctaW1hZScsICc8aW5maWxlLm1hZT4nLCAnLW9tYWUnLCAnPG91dGZpbGUubWFlPic=

>  <r_epik_Ionization_Penalty>  (403) 
0.000466264

>  <r_epik_Ionization_Penalty_Charging>  (403) 
0.000466054

>  <r_epik_Ionization_Penalty_Neutral>  (403) 
2.10293e-07

>  <r_epik_State_Penalty>  (403) 
1.28314e-05

>  <r_epik_Charging_Adjusted_Penalty>  (403) 
0.000478886

>  <i_epik_Tot_Q>  (403) 
-1

>  <i_epik_Tot_abs_Q>  (403) 
1

>  <s_lp_Force_Field>  (403) 
OPLS3e

>  <r_lp_Energy>  (403) 
15.0501

>  <b_lp_Chiralities_Consistent>  (403) 
1

>  <s_lp_Variant>  (403) 
98:0-1

>  <s_i_glide_gridfile>  (403) 
pfpi4k_grid

>  <i_i_glide_lignum>  (403) 
3

>  <i_i_glide_rotatable_bonds>  (403) 
2

>  <r_i_docking_score>  (403) 
-3.62793

>  <r_i_glide_ligand_efficiency>  (403) 
-0.226746

>  <r_i_glide_ligand_efficiency_sa>  (403) 
-0.571364

>  <r_i_glide_ligand_efficiency_ln>  (403) 
-0.961657

>  <r_i_glide_gscore>  (403) 
-3.62793

>  <r_i_glide_lipo>  (403) 
-0.00472503

>  <r_i_glide_hbond>  (403) 
-0.152945

>  <r_i_glide_metal>  (403) 
-0

>  <r_i_glide_rewards>  (403) 
-1.92144

>  <r_i_glide_evdw>  (403) 
-14.3451

>  <r_i_glide_ecoul>  (403) 
-6.82451

>  <r_i_glide_erotb>  (403) 
0.352898

>  <r_i_glide_esite>  (403) 
-0.160791

>  <r_i_glide_emodel>  (403) 
-26.6997

>  <r_i_glide_energy>  (403) 
-21.1696

>  <r_i_glide_einternal>  (403) 
4.60228

>  <r_i_glide_intrahb_reward>  (403) 
-0

>  <i_i_glide_confnum>  (403) 
5

>  <i_i_glide_posenum>  (403) 
11

>  <r_i_glide_eff_state_penalty>  (403) 
0

>  <ligand_id>  (403) 
98

>  <original_smiles>  (403) 
O=C(O)c1cn(C2CC2)c2n[nH]cc2c1=O

>  <smiles>  (403) 
[H]c1c2c(=O)c(C(=O)[O-])c([H])n(C3([H])C([H])([H])C3([H])[H])c2nn1[H]

$$$$
98:0:2
     RDKit          3D

 24 26  0  0  1  0  0  0  0  0999 V2000
    8.1945   -3.7846    0.7621 O   0  0  0  0  0  0  0  0  0  0  0  0
    7.5612   -2.9501    0.0720 C   0  0  0  0  0  0  0  0  0  0  0  0
    8.0042   -1.8609   -0.3438 O   0  0  0  0  0  0  0  0  0  0  0  0
    6.0535   -3.2623   -0.1977 C   0  0  0  0  0  0  0  0  0  0  0  0
    5.3616   -3.9839    0.7134 C   0  0  0  0  0  0  0  0  0  0  0  0
    4.0117   -4.2999    0.6388 N   0  0  0  0  0  0  0  0  0  0  0  0
    3.2849   -4.8575    1.7658 C   0  0  0  0  0  0  0  0  0  0  0  0
    3.8140   -6.1151    2.4159 C   0  0  0  0  0  0  0  0  0  0  0  0
    2.5131   -6.1538    1.6523 C   0  0  0  0  0  0  0  0  0  0  0  0
    3.2536   -3.8587   -0.4518 C   0  0  0  0  0  0  0  0  0  0  0  0
    1.9733   -4.0967   -0.7195 N   0  0  0  0  0  0  0  0  0  0  0  0
    1.7940   -3.4597   -1.9088 N   0  0  0  0  0  0  0  0  0  0  0  0
    2.9267   -2.8141   -2.3860 C   0  0  0  0  0  0  0  0  0  0  0  0
    3.8829   -3.0856   -1.4475 C   0  0  0  0  0  0  0  0  0  0  0  0
    5.3055   -2.7062   -1.3754 C   0  0  0  0  0  0  0  0  0  0  0  0
    5.8081   -1.9850   -2.2330 O   0  0  0  0  0  0  0  0  0  0  0  0
    0.9030   -3.4658   -2.3885 H   0  0  0  0  0  0  0  0  0  0  0  0
    5.8510   -4.3732    1.5907 H   0  0  0  0  0  0  0  0  0  0  0  0
    2.9227   -4.0643    2.4140 H   0  0  0  0  0  0  0  0  0  0  0  0
    4.6730   -6.6093    1.9655 H   0  0  0  0  0  0  0  0  0  0  0  0
    3.7566   -6.1837    3.5010 H   0  0  0  0  0  0  0  0  0  0  0  0
    1.5924   -6.2228    2.2318 H   0  0  0  0  0  0  0  0  0  0  0  0
    2.4980   -6.6471    0.6812 H   0  0  0  0  0  0  0  0  0  0  0  0
    2.9458   -2.2510   -3.3030 H   0  0  0  0  0  0  0  0  0  0  0  0
  1  2  2  0
  2  3  1  0
  2  4  1  0
  4 15  1  0
  4  5  2  0
  5  6  1  0
  5 18  1  0
  6  7  1  0
  6 10  1  0
  7  9  1  0
  7  8  1  0
  7 19  1  0
  8  9  1  0
  8 20  1  0
  8 21  1  0
  9 22  1  0
  9 23  1  0
 10 14  1  0
 10 11  2  0
 11 12  1  0
 12 17  1  0
 12 13  1  0
 13 14  2  0
 13 24  1  0
 14 15  1  0
 15 16  2  0
M  CHG  1   3  -1
M  END
>  <i_m_ct_stereo_status>  (404) 
1

>  <s_m_source_file>  (404) 
/var/tmp/pbs.5102103.sched01/tmpeh5ntauu/15412114_vq.sdf

>  <i_m_source_file_index>  (404) 
3

>  <i_lp_mmshare_version>  (404) 
48012

>  <i_f3d_flags>  (404) 
0

>  <s_epik_input>  (404) 
bjFbbkhdW2NIXWMoYzEyKWMoPU8pYyhDKD1PKVtPSF0pW2NIXW4yW0NIXTNbQ0gyXVtDSDJdMw==

>  <s_epik_cmdline>  (404) 
J2VwaWtfcHl0aG9uJywgJy1waHQnLCAnMi4wJywgJy1waCcsICc3LjAnLCAnLXRuJywgJzgnLCAnLW1hJywgJzIwMCcsICctaW1hZScsICc8aW5maWxlLm1hZT4nLCAnLW9tYWUnLCAnPG91dGZpbGUubWFlPic=

>  <r_epik_Ionization_Penalty>  (404) 
0.000466264

>  <r_epik_Ionization_Penalty_Charging>  (404) 
0.000466054

>  <r_epik_Ionization_Penalty_Neutral>  (404) 
2.10293e-07

>  <r_epik_State_Penalty>  (404) 
1.28314e-05

>  <r_epik_Charging_Adjusted_Penalty>  (404) 
0.000478886

>  <i_epik_Tot_Q>  (404) 
-1

>  <i_epik_Tot_abs_Q>  (404) 
1

>  <s_lp_Force_Field>  (404) 
OPLS3e

>  <r_lp_Energy>  (404) 
15.0501

>  <b_lp_Chiralities_Consistent>  (404) 
1

>  <s_lp_Variant>  (404) 
98:0-1

>  <s_i_glide_gridfile>  (404) 
pfpi4k_grid

>  <i_i_glide_lignum>  (404) 
3

>  <i_i_glide_rotatable_bonds>  (404) 
2

>  <r_i_docking_score>  (404) 
-3.57423

>  <r_i_glide_ligand_efficiency>  (404) 
-0.223389

>  <r_i_glide_ligand_efficiency_sa>  (404) 
-0.562906

>  <r_i_glide_ligand_efficiency_ln>  (404) 
-0.947421

>  <r_i_glide_gscore>  (404) 
-3.57423

>  <r_i_glide_lipo>  (404) 
-0.126896

>  <r_i_glide_hbond>  (404) 
-0.299833

>  <r_i_glide_metal>  (404) 
-0

>  <r_i_glide_rewards>  (404) 
-2.14211

>  <r_i_glide_evdw>  (404) 
-16.0345

>  <r_i_glide_ecoul>  (404) 
-3.63247

>  <r_i_glide_erotb>  (404) 
0.352898

>  <r_i_glide_esite>  (404) 
-0.0116962

>  <r_i_glide_emodel>  (404) 
-27.6342

>  <r_i_glide_energy>  (404) 
-19.667

>  <r_i_glide_einternal>  (404) 
0.628273

>  <r_i_glide_intrahb_reward>  (404) 
-0

>  <i_i_glide_confnum>  (404) 
4

>  <i_i_glide_posenum>  (404) 
14

>  <r_i_glide_eff_state_penalty>  (404) 
0

>  <ligand_id>  (404) 
98

>  <original_smiles>  (404) 
O=C(O)c1cn(C2CC2)c2n[nH]cc2c1=O

>  <smiles>  (404) 
[H]c1c2c(=O)c(C(=O)[O-])c([H])n(C3([H])C([H])([H])C3([H])[H])c2nn1[H]

$$$$
99:0:0
     RDKit          3D

 36 37  0  0  1  0  0  0  0  0999 V2000
    0.3849   -9.1039    6.1294 C   0  0  0  0  0  0  0  0  0  0  0  0
    0.2126   -9.6601    4.7652 N   0  0  2  0  0  0  0  0  0  0  0  0
    1.4959   -9.8627    4.0423 C   0  0  0  0  0  0  0  0  0  0  0  0
    1.1504   -9.7982    2.5500 C   0  0  2  0  0  0  0  0  0  0  0  0
    2.2359   -9.1376    1.6858 C   0  0  0  0  0  0  0  0  0  0  0  0
    1.8714   -7.7212    1.6776 N   0  0  0  0  0  0  0  0  0  0  0  0
    2.7699   -6.7451    1.0798 C   0  0  0  0  0  0  0  0  0  0  0  0
    3.4143   -5.7712    2.0883 C   0  0  0  0  0  0  0  0  0  0  0  0
    2.8189   -5.5130    3.1326 O   0  0  0  0  0  0  0  0  0  0  0  0
    4.6096   -5.1942    1.7898 N   0  0  0  0  0  0  0  0  0  0  0  0
    5.2529   -4.2589    2.7229 C   0  0  0  0  0  0  0  0  0  0  0  0
    5.4051   -5.4204    0.5750 C   0  0  0  0  0  0  0  0  0  0  0  0
    0.6221   -7.5079    2.1277 C   0  0  0  0  0  0  0  0  0  0  0  0
    0.0351   -6.4257    2.1992 O   0  0  0  0  0  0  0  0  0  0  0  0
   -0.0326   -8.8278    2.4992 C   0  0  2  0  0  0  0  0  0  0  0  0
   -0.6862   -8.8763    3.8846 C   0  0  0  0  0  0  0  0  0  0  0  0
    0.8225   -8.1022    6.0949 H   0  0  0  0  0  0  0  0  0  0  0  0
    1.0396   -9.7473    6.7270 H   0  0  0  0  0  0  0  0  0  0  0  0
   -0.5877   -9.0504    6.6193 H   0  0  0  0  0  0  0  0  0  0  0  0
    2.1932   -9.0552    4.2990 H   0  0  0  0  0  0  0  0  0  0  0  0
    1.9749  -10.8105    4.3139 H   0  0  0  0  0  0  0  0  0  0  0  0
    0.8456  -10.7727    2.1829 H   0  0  0  0  0  0  0  0  0  0  0  0
    3.2464   -9.3099    2.0656 H   0  0  0  0  0  0  0  0  0  0  0  0
    2.2120   -9.5176    0.6620 H   0  0  0  0  0  0  0  0  0  0  0  0
    3.5150   -7.3353    0.5542 H   0  0  0  0  0  0  0  0  0  0  0  0
    2.2270   -6.1536    0.3387 H   0  0  0  0  0  0  0  0  0  0  0  0
    4.6875   -4.0521    3.6340 H   0  0  0  0  0  0  0  0  0  0  0  0
    5.4241   -3.2977    2.2354 H   0  0  0  0  0  0  0  0  0  0  0  0
    6.2169   -4.6575    3.0388 H   0  0  0  0  0  0  0  0  0  0  0  0
    4.9583   -6.0534   -0.1937 H   0  0  0  0  0  0  0  0  0  0  0  0
    6.3606   -5.8702    0.8564 H   0  0  0  0  0  0  0  0  0  0  0  0
    5.6152   -4.4607    0.0959 H   0  0  0  0  0  0  0  0  0  0  0  0
   -0.7433   -9.0779    1.7110 H   0  0  0  0  0  0  0  0  0  0  0  0
   -1.6429   -9.3903    3.7939 H   0  0  0  0  0  0  0  0  0  0  0  0
   -0.8858   -7.8850    4.2963 H   0  0  0  0  0  0  0  0  0  0  0  0
   -0.2646  -10.5596    4.8766 H   0  0  0  0  0  0  0  0  0  0  0  0
  1  2  1  0
  1 17  1  0
  1 18  1  0
  1 19  1  0
  2 16  1  0
  2  3  1  0
  2 36  1  1
  3  4  1  0
  3 20  1  0
  3 21  1  0
  4 15  1  0
  4  5  1  0
  4 22  1  6
  5  6  1  0
  5 23  1  0
  5 24  1  0
  6  7  1  0
  6 13  1  0
  7  8  1  0
  7 25  1  0
  7 26  1  0
  8  9  2  0
  8 10  1  0
 10 11  1  0
 10 12  1  0
 11 27  1  0
 11 28  1  0
 11 29  1  0
 12 30  1  0
 12 31  1  0
 12 32  1  0
 13 14  2  0
 13 15  1  0
 15 16  1  0
 15 33  1  6
 16 34  1  0
 16 35  1  0
M  CHG  1   2   1
M  END
>  <i_m_ct_stereo_status>  (405) 
1

>  <s_m_source_file>  (405) 
/var/tmp/pbs.5102103.sched01/tmpeh5ntauu/15412114_vq.sdf

>  <i_m_source_file_index>  (405) 
4

>  <i_lp_mmshare_version>  (405) 
48012

>  <i_f3d_flags>  (405) 
0

>  <s_epik_input>  (405) 
W0NIM11OKFtDSDJdMSlbQ0gyXVtDQEhdKFtDQEhdMTIpQyg9TylOKFtDSDJdMilbQ0gyXUMoPU8pTihbQ0gzXSlbQ0gzXQ==

>  <s_epik_cmdline>  (405) 
J2VwaWtfcHl0aG9uJywgJy1waHQnLCAnMi4wJywgJy1waCcsICc3LjAnLCAnLXRuJywgJzgnLCAnLW1hJywgJzIwMCcsICctaW1hZScsICc8aW5maWxlLm1hZT4nLCAnLW9tYWUnLCAnPG91dGZpbGUubWFlPic=

>  <r_epik_Ionization_Penalty>  (405) 
0.0262335

>  <r_epik_Ionization_Penalty_Charging>  (405) 
0.0262335

>  <r_epik_Ionization_Penalty_Neutral>  (405) 
1.3318e-09

>  <r_epik_State_Penalty>  (405) 
0.0214028

>  <r_epik_Charging_Adjusted_Penalty>  (405) 
0.0476363

>  <i_epik_Tot_Q>  (405) 
1

>  <i_epik_Tot_abs_Q>  (405) 
1

>  <s_lp_Force_Field>  (405) 
OPLS3e

>  <r_lp_Energy>  (405) 
7.65434

>  <b_lp_Chiralities_Consistent>  (405) 
1

>  <s_lp_Variant>  (405) 
99:0-1

>  <s_i_glide_gridfile>  (405) 
pfpi4k_grid

>  <i_i_glide_lignum>  (405) 
4

>  <i_i_glide_rotatable_bonds>  (405) 
3

>  <r_i_docking_score>  (405) 
-3.84716

>  <r_i_glide_ligand_efficiency>  (405) 
-0.240447

>  <r_i_glide_ligand_efficiency_sa>  (405) 
-0.605889

>  <r_i_glide_ligand_efficiency_ln>  (405) 
-1.01977

>  <r_i_glide_gscore>  (405) 
-3.84716

>  <r_i_glide_lipo>  (405) 
-0.299266

>  <r_i_glide_hbond>  (405) 
-0.334934

>  <r_i_glide_metal>  (405) 
-0

>  <r_i_glide_rewards>  (405) 
-1.87787

>  <r_i_glide_evdw>  (405) 
-15.8182

>  <r_i_glide_ecoul>  (405) 
-7.04933

>  <r_i_glide_erotb>  (405) 
0.663605

>  <r_i_glide_esite>  (405) 
-0.150379

>  <r_i_glide_emodel>  (405) 
-31.6366

>  <r_i_glide_energy>  (405) 
-22.8675

>  <r_i_glide_einternal>  (405) 
0.306967

>  <r_i_glide_intrahb_reward>  (405) 
-0

>  <i_i_glide_confnum>  (405) 
5

>  <i_i_glide_posenum>  (405) 
27

>  <r_i_glide_eff_state_penalty>  (405) 
0

>  <ligand_id>  (405) 
99

>  <original_smiles>  (405) 
CN1CC2CN(CC(=O)N(C)C)C(=O)C2C1

>  <smiles>  (405) 
[H]C([H])([H])N(C(=O)C([H])([H])N1C(=O)C2([H])C([H])(C1([H])[H])C([H])([H])[N+]([H])(C([H])([H])[H])C2([H])[H])C([H])([H])[H]

$$$$
99:0:1
     RDKit          3D

 36 37  0  0  1  0  0  0  0  0999 V2000
    1.4146   -9.2958    7.1985 C   0  0  0  0  0  0  0  0  0  0  0  0
    1.5297  -10.2427    6.0658 N   0  0  2  0  0  0  0  0  0  0  0  0
    2.6501   -9.9506    5.1448 C   0  0  0  0  0  0  0  0  0  0  0  0
    2.2407  -10.5313    3.7814 C   0  0  2  0  0  0  0  0  0  0  0  0
    2.6954   -9.6924    2.5859 C   0  0  0  0  0  0  0  0  0  0  0  0
    1.6017   -8.7506    2.3613 N   0  0  0  0  0  0  0  0  0  0  0  0
    1.7673   -7.6819    1.3830 C   0  0  0  0  0  0  0  0  0  0  0  0
    1.6143   -6.2490    1.9453 C   0  0  0  0  0  0  0  0  0  0  0  0
    0.6427   -6.0022    2.6648 O   0  0  0  0  0  0  0  0  0  0  0  0
    2.4846   -5.2599    1.6083 N   0  0  0  0  0  0  0  0  0  0  0  0
    2.3370   -3.9061    2.1737 C   0  0  0  0  0  0  0  0  0  0  0  0
    3.6193   -5.3632    0.6801 C   0  0  0  0  0  0  0  0  0  0  0  0
    0.4736   -9.1167    3.0092 C   0  0  0  0  0  0  0  0  0  0  0  0
   -0.6203   -8.5530    2.9854 O   0  0  0  0  0  0  0  0  0  0  0  0
    0.7205  -10.3983    3.7736 C   0  0  2  0  0  0  0  0  0  0  0  0
    0.2900  -10.3500    5.2507 C   0  0  0  0  0  0  0  0  0  0  0  0
    1.2140   -8.2711    6.8532 H   0  0  0  0  0  0  0  0  0  0  0  0
    2.3456   -9.2983    7.7823 H   0  0  0  0  0  0  0  0  0  0  0  0
    0.5948   -9.6127    7.8560 H   0  0  0  0  0  0  0  0  0  0  0  0
    2.7811   -8.8643    5.0654 H   0  0  0  0  0  0  0  0  0  0  0  0
    3.5850  -10.3817    5.5084 H   0  0  0  0  0  0  0  0  0  0  0  0
    2.5321  -11.5794    3.7006 H   0  0  0  0  0  0  0  0  0  0  0  0
    3.6496   -9.1913    2.7592 H   0  0  0  0  0  0  0  0  0  0  0  0
    2.8065  -10.3144    1.6962 H   0  0  0  0  0  0  0  0  0  0  0  0
    2.7327   -7.8725    0.9197 H   0  0  0  0  0  0  0  0  0  0  0  0
    1.0024   -7.7976    0.6095 H   0  0  0  0  0  0  0  0  0  0  0  0
    1.4980   -3.7637    2.8621 H   0  0  0  0  0  0  0  0  0  0  0  0
    2.2077   -3.1697    1.3777 H   0  0  0  0  0  0  0  0  0  0  0  0
    3.2326   -3.6451    2.7385 H   0  0  0  0  0  0  0  0  0  0  0  0
    3.7457   -6.3194    0.1675 H   0  0  0  0  0  0  0  0  0  0  0  0
    4.5333   -5.1447    1.2436 H   0  0  0  0  0  0  0  0  0  0  0  0
    3.5079   -4.5900   -0.0908 H   0  0  0  0  0  0  0  0  0  0  0  0
    0.2167  -11.2040    3.2318 H   0  0  0  0  0  0  0  0  0  0  0  0
   -0.1697  -11.2913    5.5397 H   0  0  0  0  0  0  0  0  0  0  0  0
   -0.4079   -9.5290    5.4631 H   0  0  0  0  0  0  0  0  0  0  0  0
    1.6494  -11.1741    6.4775 H   0  0  0  0  0  0  0  0  0  0  0  0
  1  2  1  0
  1 17  1  0
  1 18  1  0
  1 19  1  0
  2 16  1  0
  2  3  1  0
  2 36  1  1
  3  4  1  0
  3 20  1  0
  3 21  1  0
  4 15  1  0
  4  5  1  0
  4 22  1  6
  5  6  1  0
  5 23  1  0
  5 24  1  0
  6  7  1  0
  6 13  1  0
  7  8  1  0
  7 25  1  0
  7 26  1  0
  8  9  2  0
  8 10  1  0
 10 11  1  0
 10 12  1  0
 11 27  1  0
 11 28  1  0
 11 29  1  0
 12 30  1  0
 12 31  1  0
 12 32  1  0
 13 14  2  0
 13 15  1  0
 15 16  1  0
 15 33  1  6
 16 34  1  0
 16 35  1  0
M  CHG  1   2   1
M  END
>  <i_m_ct_stereo_status>  (406) 
1

>  <s_m_source_file>  (406) 
/var/tmp/pbs.5102103.sched01/tmpeh5ntauu/15412114_vq.sdf

>  <i_m_source_file_index>  (406) 
4

>  <i_lp_mmshare_version>  (406) 
48012

>  <i_f3d_flags>  (406) 
0

>  <s_epik_input>  (406) 
W0NIM11OKFtDSDJdMSlbQ0gyXVtDQEhdKFtDQEhdMTIpQyg9TylOKFtDSDJdMilbQ0gyXUMoPU8pTihbQ0gzXSlbQ0gzXQ==

>  <s_epik_cmdline>  (406) 
J2VwaWtfcHl0aG9uJywgJy1waHQnLCAnMi4wJywgJy1waCcsICc3LjAnLCAnLXRuJywgJzgnLCAnLW1hJywgJzIwMCcsICctaW1hZScsICc8aW5maWxlLm1hZT4nLCAnLW9tYWUnLCAnPG91dGZpbGUubWFlPic=

>  <r_epik_Ionization_Penalty>  (406) 
0.0262335

>  <r_epik_Ionization_Penalty_Charging>  (406) 
0.0262335

>  <r_epik_Ionization_Penalty_Neutral>  (406) 
1.3318e-09

>  <r_epik_State_Penalty>  (406) 
0.0214028

>  <r_epik_Charging_Adjusted_Penalty>  (406) 
0.0476363

>  <i_epik_Tot_Q>  (406) 
1

>  <i_epik_Tot_abs_Q>  (406) 
1

>  <s_lp_Force_Field>  (406) 
OPLS3e

>  <r_lp_Energy>  (406) 
7.65434

>  <b_lp_Chiralities_Consistent>  (406) 
1

>  <s_lp_Variant>  (406) 
99:0-1

>  <s_i_glide_gridfile>  (406) 
pfpi4k_grid

>  <i_i_glide_lignum>  (406) 
4

>  <i_i_glide_rotatable_bonds>  (406) 
3

>  <r_i_docking_score>  (406) 
-3.54608

>  <r_i_glide_ligand_efficiency>  (406) 
-0.22163

>  <r_i_glide_ligand_efficiency_sa>  (406) 
-0.558473

>  <r_i_glide_ligand_efficiency_ln>  (406) 
-0.93996

>  <r_i_glide_gscore>  (406) 
-3.54608

>  <r_i_glide_lipo>  (406) 
0

>  <r_i_glide_hbond>  (406) 
-0.2437

>  <r_i_glide_metal>  (406) 
-0

>  <r_i_glide_rewards>  (406) 
-1.86617

>  <r_i_glide_evdw>  (406) 
-16.2082

>  <r_i_glide_ecoul>  (406) 
-7.32647

>  <r_i_glide_erotb>  (406) 
0.663605

>  <r_i_glide_esite>  (406) 
-0.190441

>  <r_i_glide_emodel>  (406) 
-30.8442

>  <r_i_glide_energy>  (406) 
-23.5347

>  <r_i_glide_einternal>  (406) 
1.45601

>  <r_i_glide_intrahb_reward>  (406) 
-0

>  <i_i_glide_confnum>  (406) 
2

>  <i_i_glide_posenum>  (406) 
33

>  <r_i_glide_eff_state_penalty>  (406) 
0

>  <ligand_id>  (406) 
99

>  <original_smiles>  (406) 
CN1CC2CN(CC(=O)N(C)C)C(=O)C2C1

>  <smiles>  (406) 
[H]C([H])([H])N(C(=O)C([H])([H])N1C(=O)C2([H])C([H])(C1([H])[H])C([H])([H])[N+]([H])(C([H])([H])[H])C2([H])[H])C([H])([H])[H]

$$$$
99:0:2
     RDKit          3D

 36 37  0  0  1  0  0  0  0  0999 V2000
    0.5253   -8.9037    6.1516 C   0  0  0  0  0  0  0  0  0  0  0  0
    0.5672   -9.5667    4.8277 N   0  0  2  0  0  0  0  0  0  0  0  0
    1.8896   -9.4997    4.1653 C   0  0  0  0  0  0  0  0  0  0  0  0
    1.6046   -9.6157    2.6632 C   0  0  2  0  0  0  0  0  0  0  0  0
    2.5431   -8.7871    1.7745 C   0  0  0  0  0  0  0  0  0  0  0  0
    1.8787   -7.4943    1.6617 N   0  0  0  0  0  0  0  0  0  0  0  0
    2.5288   -6.3587    1.0180 C   0  0  0  0  0  0  0  0  0  0  0  0
    2.7724   -5.1642    1.9597 C   0  0  0  0  0  0  0  0  0  0  0  0
    2.6625   -5.3329    3.1752 O   0  0  0  0  0  0  0  0  0  0  0  0
    3.1079   -3.9644    1.4218 N   0  0  0  0  0  0  0  0  0  0  0  0
    3.3585   -2.7836    2.2567 C   0  0  0  0  0  0  0  0  0  0  0  0
    3.2656   -3.6908   -0.0121 C   0  0  0  0  0  0  0  0  0  0  0  0
    0.6031   -7.5368    2.0719 C   0  0  0  0  0  0  0  0  0  0  0  0
   -0.2002   -6.6033    2.0713 O   0  0  0  0  0  0  0  0  0  0  0  0
    0.2409   -8.9437    2.5075 C   0  0  2  0  0  0  0  0  0  0  0  0
   -0.4468   -9.0672    3.8634 C   0  0  0  0  0  0  0  0  0  0  0  0
    0.7144   -7.8334    6.0616 H   0  0  0  0  0  0  0  0  0  0  0  0
    1.2759   -9.3282    6.8229 H   0  0  0  0  0  0  0  0  0  0  0  0
   -0.4547   -9.0428    6.6099 H   0  0  0  0  0  0  0  0  0  0  0  0
    2.3588   -8.5391    4.3893 H   0  0  0  0  0  0  0  0  0  0  0  0
    2.5557  -10.2877    4.5245 H   0  0  0  0  0  0  0  0  0  0  0  0
    1.5577  -10.6597    2.3605 H   0  0  0  0  0  0  0  0  0  0  0  0
    3.5489   -8.7041    2.1879 H   0  0  0  0  0  0  0  0  0  0  0  0
    2.6128   -9.2435    0.7854 H   0  0  0  0  0  0  0  0  0  0  0  0
    3.4787   -6.6627    0.5807 H   0  0  0  0  0  0  0  0  0  0  0  0
    1.8696   -6.0653    0.2016 H   0  0  0  0  0  0  0  0  0  0  0  0
    3.2452   -2.9588    3.3278 H   0  0  0  0  0  0  0  0  0  0  0  0
    2.6706   -1.9799    1.9881 H   0  0  0  0  0  0  0  0  0  0  0  0
    4.3754   -2.4226    2.0981 H   0  0  0  0  0  0  0  0  0  0  0  0
    3.0778   -4.5277   -0.6828 H   0  0  0  0  0  0  0  0  0  0  0  0
    4.2852   -3.3643   -0.2156 H   0  0  0  0  0  0  0  0  0  0  0  0
    2.5891   -2.8881   -0.3136 H   0  0  0  0  0  0  0  0  0  0  0  0
   -0.3691   -9.3842    1.7201 H   0  0  0  0  0  0  0  0  0  0  0  0
   -1.2353   -9.7990    3.7126 H   0  0  0  0  0  0  0  0  0  0  0  0
   -0.9112   -8.1399    4.1995 H   0  0  0  0  0  0  0  0  0  0  0  0
    0.3545  -10.5457    4.9833 H   0  0  0  0  0  0  0  0  0  0  0  0
  1  2  1  0
  1 17  1  0
  1 18  1  0
  1 19  1  0
  2 16  1  0
  2  3  1  0
  2 36  1  1
  3  4  1  0
  3 20  1  0
  3 21  1  0
  4 15  1  0
  4  5  1  0
  4 22  1  6
  5  6  1  0
  5 23  1  0
  5 24  1  0
  6  7  1  0
  6 13  1  0
  7  8  1  0
  7 25  1  0
  7 26  1  0
  8  9  2  0
  8 10  1  0
 10 11  1  0
 10 12  1  0
 11 27  1  0
 11 28  1  0
 11 29  1  0
 12 30  1  0
 12 31  1  0
 12 32  1  0
 13 14  2  0
 13 15  1  0
 15 16  1  0
 15 33  1  6
 16 34  1  0
 16 35  1  0
M  CHG  1   2   1
M  END
>  <i_m_ct_stereo_status>  (407) 
1

>  <s_m_source_file>  (407) 
/var/tmp/pbs.5102103.sched01/tmpeh5ntauu/15412114_vq.sdf

>  <i_m_source_file_index>  (407) 
4

>  <i_lp_mmshare_version>  (407) 
48012

>  <i_f3d_flags>  (407) 
0

>  <s_epik_input>  (407) 
W0NIM11OKFtDSDJdMSlbQ0gyXVtDQEhdKFtDQEhdMTIpQyg9TylOKFtDSDJdMilbQ0gyXUMoPU8pTihbQ0gzXSlbQ0gzXQ==

>  <s_epik_cmdline>  (407) 
J2VwaWtfcHl0aG9uJywgJy1waHQnLCAnMi4wJywgJy1waCcsICc3LjAnLCAnLXRuJywgJzgnLCAnLW1hJywgJzIwMCcsICctaW1hZScsICc8aW5maWxlLm1hZT4nLCAnLW9tYWUnLCAnPG91dGZpbGUubWFlPic=

>  <r_epik_Ionization_Penalty>  (407) 
0.0262335

>  <r_epik_Ionization_Penalty_Charging>  (407) 
0.0262335

>  <r_epik_Ionization_Penalty_Neutral>  (407) 
1.3318e-09

>  <r_epik_State_Penalty>  (407) 
0.0214028

>  <r_epik_Charging_Adjusted_Penalty>  (407) 
0.0476363

>  <i_epik_Tot_Q>  (407) 
1

>  <i_epik_Tot_abs_Q>  (407) 
1

>  <s_lp_Force_Field>  (407) 
OPLS3e

>  <r_lp_Energy>  (407) 
7.65434

>  <b_lp_Chiralities_Consistent>  (407) 
1

>  <s_lp_Variant>  (407) 
99:0-1

>  <s_i_glide_gridfile>  (407) 
pfpi4k_grid

>  <i_i_glide_lignum>  (407) 
4

>  <i_i_glide_rotatable_bonds>  (407) 
3

>  <r_i_docking_score>  (407) 
-3.41837

>  <r_i_glide_ligand_efficiency>  (407) 
-0.213648

>  <r_i_glide_ligand_efficiency_sa>  (407) 
-0.538359

>  <r_i_glide_ligand_efficiency_ln>  (407) 
-0.906107

>  <r_i_glide_gscore>  (407) 
-3.41837

>  <r_i_glide_lipo>  (407) 
-0.0683432

>  <r_i_glide_hbond>  (407) 
-0.182773

>  <r_i_glide_metal>  (407) 
-0

>  <r_i_glide_rewards>  (407) 
-1.86617

>  <r_i_glide_evdw>  (407) 
-15.2865

>  <r_i_glide_ecoul>  (407) 
-7.05301

>  <r_i_glide_erotb>  (407) 
0.663605

>  <r_i_glide_esite>  (407) 
-0.142412

>  <r_i_glide_emodel>  (407) 
-30.1579

>  <r_i_glide_energy>  (407) 
-22.3396

>  <r_i_glide_einternal>  (407) 
0.448058

>  <r_i_glide_intrahb_reward>  (407) 
-0

>  <i_i_glide_confnum>  (407) 
5

>  <i_i_glide_posenum>  (407) 
29

>  <r_i_glide_eff_state_penalty>  (407) 
0

>  <ligand_id>  (407) 
99

>  <original_smiles>  (407) 
CN1CC2CN(CC(=O)N(C)C)C(=O)C2C1

>  <smiles>  (407) 
[H]C([H])([H])N(C(=O)C([H])([H])N1C(=O)C2([H])C([H])(C1([H])[H])C([H])([H])[N+]([H])(C([H])([H])[H])C2([H])[H])C([H])([H])[H]

$$$$
99:1:0
     RDKit          3D

 35 36  0  0  1  0  0  0  0  0999 V2000
    2.2608   -3.0480   -3.7579 C   0  0  0  0  0  0  0  0  0  0  0  0
    3.6364   -2.5902   -3.6026 N   0  0  0  0  0  0  0  0  0  0  0  0
    4.4410   -3.5617   -2.8739 C   0  0  0  0  0  0  0  0  0  0  0  0
    5.6332   -2.7405   -2.3659 C   0  0  2  0  0  0  0  0  0  0  0  0
    6.2059   -3.2604   -1.0361 C   0  0  0  0  0  0  0  0  0  0  0  0
    5.4758   -2.5125   -0.0301 N   0  0  0  0  0  0  0  0  0  0  0  0
    5.5208   -2.8927    1.3801 C   0  0  0  0  0  0  0  0  0  0  0  0
    4.2766   -3.6820    1.8388 C   0  0  0  0  0  0  0  0  0  0  0  0
    3.5592   -4.2114    0.9877 O   0  0  0  0  0  0  0  0  0  0  0  0
    4.0220   -3.7959    3.1667 N   0  0  0  0  0  0  0  0  0  0  0  0
    2.8653   -4.5458    3.6746 C   0  0  0  0  0  0  0  0  0  0  0  0
    4.8306   -3.2136    4.2437 C   0  0  0  0  0  0  0  0  0  0  0  0
    4.8010   -1.4746   -0.5400 C   0  0  0  0  0  0  0  0  0  0  0  0
    4.1347   -0.6627    0.1025 O   0  0  0  0  0  0  0  0  0  0  0  0
    5.0037   -1.3900   -2.0499 C   0  0  2  0  0  0  0  0  0  0  0  0
    3.7043   -1.3306   -2.8642 C   0  0  0  0  0  0  0  0  0  0  0  0
    2.2300   -3.9858   -4.3152 H   0  0  0  0  0  0  0  0  0  0  0  0
    1.6777   -2.3088   -4.3082 H   0  0  0  0  0  0  0  0  0  0  0  0
    1.7802   -3.2115   -2.7911 H   0  0  0  0  0  0  0  0  0  0  0  0
    3.8761   -3.9754   -2.0348 H   0  0  0  0  0  0  0  0  0  0  0  0
    4.7529   -4.3895   -3.5149 H   0  0  0  0  0  0  0  0  0  0  0  0
    6.3986   -2.6666   -3.1332 H   0  0  0  0  0  0  0  0  0  0  0  0
    6.0653   -4.3370   -0.9010 H   0  0  0  0  0  0  0  0  0  0  0  0
    7.2704   -3.0289   -0.9511 H   0  0  0  0  0  0  0  0  0  0  0  0
    6.4089   -3.4925    1.5832 H   0  0  0  0  0  0  0  0  0  0  0  0
    5.6125   -1.9647    1.9428 H   0  0  0  0  0  0  0  0  0  0  0  0
    2.2445   -4.9961    2.8991 H   0  0  0  0  0  0  0  0  0  0  0  0
    2.2205   -3.8912    4.2609 H   0  0  0  0  0  0  0  0  0  0  0  0
    3.1991   -5.3545    4.3249 H   0  0  0  0  0  0  0  0  0  0  0  0
    5.7257   -2.6811    3.9288 H   0  0  0  0  0  0  0  0  0  0  0  0
    5.1625   -3.9974    4.9245 H   0  0  0  0  0  0  0  0  0  0  0  0
    4.2254   -2.5105    4.8169 H   0  0  0  0  0  0  0  0  0  0  0  0
    5.6671   -0.5567   -2.2650 H   0  0  0  0  0  0  0  0  0  0  0  0
    3.7141   -0.4974   -3.5642 H   0  0  0  0  0  0  0  0  0  0  0  0
    2.8385   -1.1908   -2.2151 H   0  0  0  0  0  0  0  0  0  0  0  0
  1  2  1  0
  1 17  1  0
  1 18  1  0
  1 19  1  0
  2 16  1  0
  2  3  1  0
  3  4  1  0
  3 20  1  0
  3 21  1  0
  4 15  1  0
  4  5  1  0
  4 22  1  6
  5  6  1  0
  5 23  1  0
  5 24  1  0
  6  7  1  0
  6 13  1  0
  7  8  1  0
  7 25  1  0
  7 26  1  0
  8  9  2  0
  8 10  1  0
 10 11  1  0
 10 12  1  0
 11 27  1  0
 11 28  1  0
 11 29  1  0
 12 30  1  0
 12 31  1  0
 12 32  1  0
 13 14  2  0
 13 15  1  0
 15 16  1  0
 15 33  1  1
 16 34  1  0
 16 35  1  0
M  END
>  <i_m_ct_stereo_status>  (408) 
1

>  <s_m_source_file>  (408) 
/var/tmp/pbs.5102103.sched01/tmpeh5ntauu/15412114_vq.sdf

>  <i_m_source_file_index>  (408) 
5

>  <i_lp_mmshare_version>  (408) 
48012

>  <i_f3d_flags>  (408) 
0

>  <s_epik_input>  (408) 
W0NIM11OKFtDSDJdMSlbQ0gyXVtDQEhdKFtDQEhdMTIpQyg9TylOKFtDSDJdMilbQ0gyXUMoPU8pTihbQ0gzXSlbQ0gzXQ==

>  <s_epik_cmdline>  (408) 
J2VwaWtfcHl0aG9uJywgJy1waHQnLCAnMi4wJywgJy1waCcsICc3LjAnLCAnLXRuJywgJzgnLCAnLW1hJywgJzIwMCcsICctaW1hZScsICc8aW5maWxlLm1hZT4nLCAnLW9tYWUnLCAnPG91dGZpbGUubWFlPic=

>  <r_epik_Ionization_Penalty>  (408) 
1.86002

>  <r_epik_Ionization_Penalty_Charging>  (408) 
0

>  <r_epik_Ionization_Penalty_Neutral>  (408) 
1.86002

>  <r_epik_State_Penalty>  (408) 
1.9782

>  <r_epik_Charging_Adjusted_Penalty>  (408) 
1.9782

>  <i_epik_Tot_Q>  (408) 
0

>  <i_epik_Tot_abs_Q>  (408) 
0

>  <s_lp_Force_Field>  (408) 
OPLS3e

>  <r_lp_Energy>  (408) 
-4.05807

>  <b_lp_Chiralities_Consistent>  (408) 
1

>  <s_lp_Variant>  (408) 
99:0-2

>  <s_i_glide_gridfile>  (408) 
pfpi4k_grid

>  <i_i_glide_lignum>  (408) 
5

>  <i_i_glide_rotatable_bonds>  (408) 
3

>  <r_i_docking_score>  (408) 
-3.00439

>  <r_i_glide_ligand_efficiency>  (408) 
-0.187774

>  <r_i_glide_ligand_efficiency_sa>  (408) 
-0.473161

>  <r_i_glide_ligand_efficiency_ln>  (408) 
-0.796373

>  <r_i_glide_gscore>  (408) 
-3.00439

>  <r_i_glide_lipo>  (408) 
-0.501127

>  <r_i_glide_hbond>  (408) 
0

>  <r_i_glide_metal>  (408) 
-0

>  <r_i_glide_rewards>  (408) 
-1.90043

>  <r_i_glide_evdw>  (408) 
-21.2105

>  <r_i_glide_ecoul>  (408) 
-1.20188

>  <r_i_glide_erotb>  (408) 
0.668639

>  <r_i_glide_esite>  (408) 
-0.0306655

>  <r_i_glide_emodel>  (408) 
-27.0418

>  <r_i_glide_energy>  (408) 
-22.4123

>  <r_i_glide_einternal>  (408) 
0.0176158

>  <r_i_glide_intrahb_reward>  (408) 
-0

>  <i_i_glide_confnum>  (408) 
1

>  <i_i_glide_posenum>  (408) 
16

>  <r_i_glide_eff_state_penalty>  (408) 
0

>  <ligand_id>  (408) 
99

>  <original_smiles>  (408) 
CN1CC2CN(CC(=O)N(C)C)C(=O)C2C1

>  <smiles>  (408) 
[H]C([H])([H])N(C(=O)C([H])([H])N1C(=O)C2([H])C([H])([H])N(C([H])([H])[H])C([H])([H])C2([H])C1([H])[H])C([H])([H])[H]

$$$$
99:1:1
     RDKit          3D

 35 36  0  0  1  0  0  0  0  0999 V2000
    2.9318   -2.3075   -3.6597 C   0  0  0  0  0  0  0  0  0  0  0  0
    4.1795   -2.2584   -2.9053 N   0  0  0  0  0  0  0  0  0  0  0  0
    4.6204   -3.5913   -2.5162 C   0  0  0  0  0  0  0  0  0  0  0  0
    5.5763   -3.3273   -1.3473 C   0  0  2  0  0  0  0  0  0  0  0  0
    5.5769   -4.4658   -0.3087 C   0  0  0  0  0  0  0  0  0  0  0  0
    4.5578   -4.0857    0.6406 N   0  0  0  0  0  0  0  0  0  0  0  0
    4.0952   -5.0378    1.6411 C   0  0  0  0  0  0  0  0  0  0  0  0
    2.8590   -5.8421    1.1957 C   0  0  0  0  0  0  0  0  0  0  0  0
    2.0756   -5.3347    0.3966 O   0  0  0  0  0  0  0  0  0  0  0  0
    2.6317   -7.0668    1.7263 N   0  0  0  0  0  0  0  0  0  0  0  0
    1.4724   -7.8742    1.3248 C   0  0  0  0  0  0  0  0  0  0  0  0
    3.4614   -7.7483    2.7216 C   0  0  0  0  0  0  0  0  0  0  0  0
    4.1716   -2.8004    0.5065 C   0  0  0  0  0  0  0  0  0  0  0  0
    3.3638   -2.2203    1.2012 O   0  0  0  0  0  0  0  0  0  0  0  0
    4.9362   -2.1384   -0.6426 C   0  0  2  0  0  0  0  0  0  0  0  0
    4.0309   -1.4696   -1.6830 C   0  0  0  0  0  0  0  0  0  0  0  0
    3.0619   -2.8920   -4.5715 H   0  0  0  0  0  0  0  0  0  0  0  0
    2.6237   -1.2999   -3.9418 H   0  0  0  0  0  0  0  0  0  0  0  0
    2.1239   -2.7601   -3.0806 H   0  0  0  0  0  0  0  0  0  0  0  0
    3.7739   -4.1870   -2.1684 H   0  0  0  0  0  0  0  0  0  0  0  0
    5.1087   -4.1201   -3.3392 H   0  0  0  0  0  0  0  0  0  0  0  0
    6.5760   -3.0970   -1.7156 H   0  0  0  0  0  0  0  0  0  0  0  0
    5.3623   -5.4505   -0.7463 H   0  0  0  0  0  0  0  0  0  0  0  0
    6.5434   -4.5238    0.2019 H   0  0  0  0  0  0  0  0  0  0  0  0
    4.9632   -5.6632    1.8287 H   0  0  0  0  0  0  0  0  0  0  0  0
    3.8488   -4.5316    2.5708 H   0  0  0  0  0  0  0  0  0  0  0  0
    0.8192   -7.4188    0.5797 H   0  0  0  0  0  0  0  0  0  0  0  0
    0.8542   -8.1103    2.1893 H   0  0  0  0  0  0  0  0  0  0  0  0
    1.8223   -8.8189    0.9126 H   0  0  0  0  0  0  0  0  0  0  0  0
    4.3311   -7.2082    3.0885 H   0  0  0  0  0  0  0  0  0  0  0  0
    3.8197   -8.6906    2.3083 H   0  0  0  0  0  0  0  0  0  0  0  0
    2.8582   -7.9857    3.5964 H   0  0  0  0  0  0  0  0  0  0  0  0
    5.6740   -1.4625   -0.2164 H   0  0  0  0  0  0  0  0  0  0  0  0
    4.3330   -0.4408   -1.8695 H   0  0  0  0  0  0  0  0  0  0  0  0
    2.9976   -1.4467   -1.3366 H   0  0  0  0  0  0  0  0  0  0  0  0
  1  2  1  0
  1 17  1  0
  1 18  1  0
  1 19  1  0
  2 16  1  0
  2  3  1  0
  3  4  1  0
  3 20  1  0
  3 21  1  0
  4 15  1  0
  4  5  1  0
  4 22  1  6
  5  6  1  0
  5 23  1  0
  5 24  1  0
  6  7  1  0
  6 13  1  0
  7  8  1  0
  7 25  1  0
  7 26  1  0
  8  9  2  0
  8 10  1  0
 10 11  1  0
 10 12  1  0
 11 27  1  0
 11 28  1  0
 11 29  1  0
 12 30  1  0
 12 31  1  0
 12 32  1  0
 13 14  2  0
 13 15  1  0
 15 16  1  0
 15 33  1  1
 16 34  1  0
 16 35  1  0
M  END
>  <i_m_ct_stereo_status>  (409) 
1

>  <s_m_source_file>  (409) 
/var/tmp/pbs.5102103.sched01/tmpeh5ntauu/15412114_vq.sdf

>  <i_m_source_file_index>  (409) 
5

>  <i_lp_mmshare_version>  (409) 
48012

>  <i_f3d_flags>  (409) 
0

>  <s_epik_input>  (409) 
W0NIM11OKFtDSDJdMSlbQ0gyXVtDQEhdKFtDQEhdMTIpQyg9TylOKFtDSDJdMilbQ0gyXUMoPU8pTihbQ0gzXSlbQ0gzXQ==

>  <s_epik_cmdline>  (409) 
J2VwaWtfcHl0aG9uJywgJy1waHQnLCAnMi4wJywgJy1waCcsICc3LjAnLCAnLXRuJywgJzgnLCAnLW1hJywgJzIwMCcsICctaW1hZScsICc8aW5maWxlLm1hZT4nLCAnLW9tYWUnLCAnPG91dGZpbGUubWFlPic=

>  <r_epik_Ionization_Penalty>  (409) 
1.86002

>  <r_epik_Ionization_Penalty_Charging>  (409) 
0

>  <r_epik_Ionization_Penalty_Neutral>  (409) 
1.86002

>  <r_epik_State_Penalty>  (409) 
1.9782

>  <r_epik_Charging_Adjusted_Penalty>  (409) 
1.9782

>  <i_epik_Tot_Q>  (409) 
0

>  <i_epik_Tot_abs_Q>  (409) 
0

>  <s_lp_Force_Field>  (409) 
OPLS3e

>  <r_lp_Energy>  (409) 
-4.05807

>  <b_lp_Chiralities_Consistent>  (409) 
1

>  <s_lp_Variant>  (409) 
99:0-2

>  <s_i_glide_gridfile>  (409) 
pfpi4k_grid

>  <i_i_glide_lignum>  (409) 
5

>  <i_i_glide_rotatable_bonds>  (409) 
3

>  <r_i_docking_score>  (409) 
-2.97162

>  <r_i_glide_ligand_efficiency>  (409) 
-0.185726

>  <r_i_glide_ligand_efficiency_sa>  (409) 
-0.468001

>  <r_i_glide_ligand_efficiency_ln>  (409) 
-0.787687

>  <r_i_glide_gscore>  (409) 
-2.97162

>  <r_i_glide_lipo>  (409) 
-0.415476

>  <r_i_glide_hbond>  (409) 
-0.0374749

>  <r_i_glide_metal>  (409) 
-0

>  <r_i_glide_rewards>  (409) 
-1.9173

>  <r_i_glide_evdw>  (409) 
-19.9004

>  <r_i_glide_ecoul>  (409) 
-1.76659

>  <r_i_glide_erotb>  (409) 
0.668639

>  <r_i_glide_esite>  (409) 
-0.00999801

>  <r_i_glide_emodel>  (409) 
-26.0236

>  <r_i_glide_energy>  (409) 
-21.667

>  <r_i_glide_einternal>  (409) 
0.126947

>  <r_i_glide_intrahb_reward>  (409) 
-0

>  <i_i_glide_confnum>  (409) 
1

>  <i_i_glide_posenum>  (409) 
20

>  <r_i_glide_eff_state_penalty>  (409) 
0

>  <ligand_id>  (409) 
99

>  <original_smiles>  (409) 
CN1CC2CN(CC(=O)N(C)C)C(=O)C2C1

>  <smiles>  (409) 
[H]C([H])([H])N(C(=O)C([H])([H])N1C(=O)C2([H])C([H])([H])N(C([H])([H])[H])C([H])([H])C2([H])C1([H])[H])C([H])([H])[H]

$$$$
99:1:2
     RDKit          3D

 35 36  0  0  1  0  0  0  0  0999 V2000
    2.7152   -1.9248   -2.6936 C   0  0  0  0  0  0  0  0  0  0  0  0
    3.9043   -2.1850   -1.8936 N   0  0  0  0  0  0  0  0  0  0  0  0
    4.2392   -3.5987   -1.8773 C   0  0  0  0  0  0  0  0  0  0  0  0
    5.1428   -3.7498   -0.6490 C   0  0  2  0  0  0  0  0  0  0  0  0
    5.0249   -5.1375    0.0082 C   0  0  0  0  0  0  0  0  0  0  0  0
    3.9615   -4.9627    0.9803 N   0  0  0  0  0  0  0  0  0  0  0  0
    3.3614   -6.1038    1.6712 C   0  0  0  0  0  0  0  0  0  0  0  0
    1.8800   -6.3448    1.2848 C   0  0  0  0  0  0  0  0  0  0  0  0
    1.4434   -5.8556    0.2403 O   0  0  0  0  0  0  0  0  0  0  0  0
    1.0951   -7.0972    2.0943 N   0  0  0  0  0  0  0  0  0  0  0  0
   -0.2820   -7.4391    1.7155 C   0  0  0  0  0  0  0  0  0  0  0  0
    1.4781   -7.6527    3.3953 C   0  0  0  0  0  0  0  0  0  0  0  0
    3.6673   -3.6742    1.2047 C   0  0  0  0  0  0  0  0  0  0  0  0
    2.8340   -3.2541    2.0101 O   0  0  0  0  0  0  0  0  0  0  0  0
    4.5324   -2.7654    0.3408 C   0  0  2  0  0  0  0  0  0  0  0  0
    3.7282   -1.7679   -0.5053 C   0  0  0  0  0  0  0  0  0  0  0  0
    2.8724   -2.2311   -3.7289 H   0  0  0  0  0  0  0  0  0  0  0  0
    2.4922   -0.8571   -2.6807 H   0  0  0  0  0  0  0  0  0  0  0  0
    1.8427   -2.4620   -2.3161 H   0  0  0  0  0  0  0  0  0  0  0  0
    3.3331   -4.1949   -1.7564 H   0  0  0  0  0  0  0  0  0  0  0  0
    4.7420   -3.9105   -2.7953 H   0  0  0  0  0  0  0  0  0  0  0  0
    6.1728   -3.4908   -0.8913 H   0  0  0  0  0  0  0  0  0  0  0  0
    4.7753   -5.9339   -0.7015 H   0  0  0  0  0  0  0  0  0  0  0  0
    5.9478   -5.4029    0.5333 H   0  0  0  0  0  0  0  0  0  0  0  0
    3.9247   -7.0170    1.4664 H   0  0  0  0  0  0  0  0  0  0  0  0
    3.4572   -5.8877    2.7334 H   0  0  0  0  0  0  0  0  0  0  0  0
   -0.5827   -7.0692    0.7330 H   0  0  0  0  0  0  0  0  0  0  0  0
   -0.9889   -7.0539    2.4493 H   0  0  0  0  0  0  0  0  0  0  0  0
   -0.3982   -8.5220    1.6808 H   0  0  0  0  0  0  0  0  0  0  0  0
    2.5040   -7.4603    3.7073 H   0  0  0  0  0  0  0  0  0  0  0  0
    1.3360   -8.7341    3.3906 H   0  0  0  0  0  0  0  0  0  0  0  0
    0.8216   -7.2382    4.1605 H   0  0  0  0  0  0  0  0  0  0  0  0
    5.2807   -2.2834    0.9680 H   0  0  0  0  0  0  0  0  0  0  0  0
    4.0901   -0.7499   -0.3781 H   0  0  0  0  0  0  0  0  0  0  0  0
    2.6781   -1.7711   -0.2097 H   0  0  0  0  0  0  0  0  0  0  0  0
  1  2  1  0
  1 17  1  0
  1 18  1  0
  1 19  1  0
  2 16  1  0
  2  3  1  0
  3  4  1  0
  3 20  1  0
  3 21  1  0
  4 15  1  0
  4  5  1  0
  4 22  1  6
  5  6  1  0
  5 23  1  0
  5 24  1  0
  6  7  1  0
  6 13  1  0
  7  8  1  0
  7 25  1  0
  7 26  1  0
  8  9  2  0
  8 10  1  0
 10 11  1  0
 10 12  1  0
 11 27  1  0
 11 28  1  0
 11 29  1  0
 12 30  1  0
 12 31  1  0
 12 32  1  0
 13 14  2  0
 13 15  1  0
 15 16  1  0
 15 33  1  1
 16 34  1  0
 16 35  1  0
M  END
>  <i_m_ct_stereo_status>  (410) 
1

>  <s_m_source_file>  (410) 
/var/tmp/pbs.5102103.sched01/tmpeh5ntauu/15412114_vq.sdf

>  <i_m_source_file_index>  (410) 
5

>  <i_lp_mmshare_version>  (410) 
48012

>  <i_f3d_flags>  (410) 
0

>  <s_epik_input>  (410) 
W0NIM11OKFtDSDJdMSlbQ0gyXVtDQEhdKFtDQEhdMTIpQyg9TylOKFtDSDJdMilbQ0gyXUMoPU8pTihbQ0gzXSlbQ0gzXQ==

>  <s_epik_cmdline>  (410) 
J2VwaWtfcHl0aG9uJywgJy1waHQnLCAnMi4wJywgJy1waCcsICc3LjAnLCAnLXRuJywgJzgnLCAnLW1hJywgJzIwMCcsICctaW1hZScsICc8aW5maWxlLm1hZT4nLCAnLW9tYWUnLCAnPG91dGZpbGUubWFlPic=

>  <r_epik_Ionization_Penalty>  (410) 
1.86002

>  <r_epik_Ionization_Penalty_Charging>  (410) 
0

>  <r_epik_Ionization_Penalty_Neutral>  (410) 
1.86002

>  <r_epik_State_Penalty>  (410) 
1.9782

>  <r_epik_Charging_Adjusted_Penalty>  (410) 
1.9782

>  <i_epik_Tot_Q>  (410) 
0

>  <i_epik_Tot_abs_Q>  (410) 
0

>  <s_lp_Force_Field>  (410) 
OPLS3e

>  <r_lp_Energy>  (410) 
-4.05807

>  <b_lp_Chiralities_Consistent>  (410) 
1

>  <s_lp_Variant>  (410) 
99:0-2

>  <s_i_glide_gridfile>  (410) 
pfpi4k_grid

>  <i_i_glide_lignum>  (410) 
5

>  <i_i_glide_rotatable_bonds>  (410) 
3

>  <r_i_docking_score>  (410) 
-2.94758

>  <r_i_glide_ligand_efficiency>  (410) 
-0.184224

>  <r_i_glide_ligand_efficiency_sa>  (410) 
-0.464214

>  <r_i_glide_ligand_efficiency_ln>  (410) 
-0.781314

>  <r_i_glide_gscore>  (410) 
-2.94758

>  <r_i_glide_lipo>  (410) 
-0.12184

>  <r_i_glide_hbond>  (410) 
-0.149583

>  <r_i_glide_metal>  (410) 
-0

>  <r_i_glide_rewards>  (410) 
-1.90713

>  <r_i_glide_evdw>  (410) 
-18.7533

>  <r_i_glide_ecoul>  (410) 
-2.78643

>  <r_i_glide_erotb>  (410) 
0.668639

>  <r_i_glide_esite>  (410) 
-0.0820353

>  <r_i_glide_emodel>  (410) 
-25.7431

>  <r_i_glide_energy>  (410) 
-21.5397

>  <r_i_glide_einternal>  (410) 
0.464669

>  <r_i_glide_intrahb_reward>  (410) 
-0

>  <i_i_glide_confnum>  (410) 
1

>  <i_i_glide_posenum>  (410) 
2

>  <r_i_glide_eff_state_penalty>  (410) 
0

>  <ligand_id>  (410) 
99

>  <original_smiles>  (410) 
CN1CC2CN(CC(=O)N(C)C)C(=O)C2C1

>  <smiles>  (410) 
[H]C([H])([H])N(C(=O)C([H])([H])N1C(=O)C2([H])C([H])([H])N(C([H])([H])[H])C([H])([H])C2([H])C1([H])[H])C([H])([H])[H]

$$$$
100:0:0
     RDKit          3D

 39 42  0  0  1  0  0  0  0  0999 V2000
    0.1864   -2.0661    4.6071 C   0  0  0  0  0  0  0  0  0  0  0  0
    0.0436   -3.1219    5.6155 N   0  0  0  0  0  0  0  0  0  0  0  0
    0.3381   -4.4635    5.5238 C   0  0  0  0  0  0  0  0  0  0  0  0
    0.1225   -4.9921    6.7564 C   0  0  0  0  0  0  0  0  0  0  0  0
    0.3491   -6.3731    7.2227 C   0  0  0  0  0  0  0  0  0  0  0  0
    0.0178   -6.8347    8.3768 N   0  0  0  0  0  0  0  0  0  0  0  0
    0.1796   -8.2476    8.2522 O   0  0  0  0  0  0  0  0  0  0  0  0
    0.5774   -8.4353    6.9715 C   0  0  0  0  0  0  0  0  0  0  0  0
    0.7587   -9.8439    6.4171 C   0  0  0  0  0  0  0  0  0  0  0  0
    0.2530  -10.0263    5.0112 N   0  0  0  0  0  0  0  0  0  0  0  0
    0.1479   -8.8918    4.0564 C   0  0  2  0  0  0  0  0  0  0  0  0
   -0.7147   -9.2130    2.8347 C   0  0  0  0  0  0  0  0  0  0  0  0
   -0.8740   -7.9015    2.0046 C   0  0  0  0  0  0  0  0  0  0  0  0
    0.4321   -7.1985    1.7616 C   0  0  0  0  0  0  0  0  0  0  0  0
    0.6898   -6.2624    0.8616 N   0  0  0  0  0  0  0  0  0  0  0  0
    2.0188   -6.0514    1.1232 C   0  0  0  0  0  0  0  0  0  0  0  0
    2.5258   -6.7118    2.1582 N   0  0  0  0  0  0  0  0  0  0  0  0
    1.4758   -7.4468    2.5521 N   0  0  0  0  0  0  0  0  0  0  0  0
    1.5650   -8.4181    3.6229 C   0  0  0  0  0  0  0  0  0  0  0  0
    0.7506   -7.2768    6.3519 N   0  0  0  0  0  0  0  0  0  0  0  0
   -0.3945   -3.9106    7.5391 C   0  0  0  0  0  0  0  0  0  0  0  0
   -0.4253   -2.7903    6.8410 N   0  0  0  0  0  0  0  0  0  0  0  0
    0.5614   -2.4711    3.6677 H   0  0  0  0  0  0  0  0  0  0  0  0
    0.8845   -1.3006    4.9630 H   0  0  0  0  0  0  0  0  0  0  0  0
   -0.7831   -1.5944    4.4303 H   0  0  0  0  0  0  0  0  0  0  0  0
    0.7015   -4.8935    4.6092 H   0  0  0  0  0  0  0  0  0  0  0  0
    1.8194  -10.0824    6.4617 H   0  0  0  0  0  0  0  0  0  0  0  0
    0.2195  -10.5506    7.0384 H   0  0  0  0  0  0  0  0  0  0  0  0
    0.8043  -10.7445    4.6046 H   0  0  0  0  0  0  0  0  0  0  0  0
   -0.4793   -8.1146    4.4706 H   0  0  0  0  0  0  0  0  0  0  0  0
   -0.2619  -10.0059    2.2188 H   0  0  0  0  0  0  0  0  0  0  0  0
   -1.7165   -9.5273    3.1635 H   0  0  0  0  0  0  0  0  0  0  0  0
   -1.3017   -8.1551    1.0426 H   0  0  0  0  0  0  0  0  0  0  0  0
   -1.5393   -7.1833    2.5030 H   0  0  0  0  0  0  0  0  0  0  0  0
    2.6414   -5.3748    0.5621 H   0  0  0  0  0  0  0  0  0  0  0  0
    2.1385   -7.9653    4.4270 H   0  0  0  0  0  0  0  0  0  0  0  0
    2.1830   -9.2549    3.2944 H   0  0  0  0  0  0  0  0  0  0  0  0
   -0.7027   -3.9289    8.5676 H   0  0  0  0  0  0  0  0  0  0  0  0
   -0.7413  -10.4041    5.0996 H   0  0  0  0  0  0  0  0  0  0  0  0
  1  2  1  0
  1 23  1  0
  1 24  1  0
  1 25  1  0
  2 22  1  0
  2  3  1  0
  3  4  2  0
  3 26  1  0
  4  5  1  0
  4 21  1  0
  5 20  1  0
  5  6  2  0
  6  7  1  0
  7  8  1  0
  8  9  1  0
  8 20  2  0
  9 10  1  0
  9 27  1  0
  9 28  1  0
 10 11  1  0
 10 29  1  0
 10 39  1  0
 11 19  1  0
 11 12  1  0
 11 30  1  1
 12 13  1  0
 12 31  1  0
 12 32  1  0
 13 14  1  0
 13 33  1  0
 13 34  1  0
 14 18  1  0
 14 15  2  0
 15 16  1  0
 16 17  2  0
 16 35  1  0
 17 18  1  0
 18 19  1  0
 19 36  1  0
 19 37  1  0
 21 22  2  0
 21 38  1  0
M  CHG  1  10   1
M  END
>  <i_m_ct_stereo_status>  (411) 
1

>  <s_m_source_file>  (411) 
/var/tmp/pbs.5102103.sched01/tmpeh5ntauu/15412114_vq.sdf

>  <i_m_source_file_index>  (411) 
6

>  <i_lp_mmshare_version>  (411) 
48012

>  <i_f3d_flags>  (411) 
0

>  <s_epik_input>  (411) 
W0NIM11uMVtjSF1jKFtjSF1uMSktYzJub2MobjIpW0NIMl1bTkhdW0NASF0oW0NIMl1bQ0gyXTMpW0NIMl1uKGMzNCluW2NIXW40

>  <s_epik_cmdline>  (411) 
J2VwaWtfcHl0aG9uJywgJy1waHQnLCAnMi4wJywgJy1waCcsICc3LjAnLCAnLXRuJywgJzgnLCAnLW1hJywgJzIwMCcsICctaW1hZScsICc8aW5maWxlLm1hZT4nLCAnLW9tYWUnLCAnPG91dGZpbGUubWFlPic=

>  <r_lp_tautomer_probability>  (411) 
1

>  <r_epik_Ionization_Penalty>  (411) 
0.417944

>  <r_epik_Ionization_Penalty_Charging>  (411) 
0.417933

>  <r_epik_Ionization_Penalty_Neutral>  (411) 
1.07184e-05

>  <r_epik_State_Penalty>  (411) 
0.101651

>  <r_epik_Charging_Adjusted_Penalty>  (411) 
0.519585

>  <i_epik_Tot_Q>  (411) 
1

>  <i_epik_Tot_abs_Q>  (411) 
1

>  <s_lp_Force_Field>  (411) 
OPLS3e

>  <r_lp_Energy>  (411) 
20.461

>  <b_lp_Chiralities_Consistent>  (411) 
1

>  <s_lp_Variant>  (411) 
100:0-1

>  <s_i_glide_gridfile>  (411) 
pfpi4k_grid

>  <i_i_glide_lignum>  (411) 
6

>  <i_i_glide_rotatable_bonds>  (411) 
4

>  <r_i_docking_score>  (411) 
-4.64693

>  <r_i_glide_ligand_efficiency>  (411) 
-0.211224

>  <r_i_glide_ligand_efficiency_sa>  (411) 
-0.591859

>  <r_i_glide_ligand_efficiency_ln>  (411) 
-1.13588

>  <r_i_glide_gscore>  (411) 
-4.64693

>  <r_i_glide_lipo>  (411) 
-0.0301342

>  <r_i_glide_hbond>  (411) 
-0.36

>  <r_i_glide_metal>  (411) 
-0

>  <r_i_glide_rewards>  (411) 
-1.35459

>  <r_i_glide_evdw>  (411) 
-20.6211

>  <r_i_glide_ecoul>  (411) 
-15.82

>  <r_i_glide_erotb>  (411) 
0.810381

>  <r_i_glide_esite>  (411) 
-0.308532

>  <r_i_glide_emodel>  (411) 
-46.0572

>  <r_i_glide_energy>  (411) 
-36.4412

>  <r_i_glide_einternal>  (411) 
3.60149

>  <r_i_glide_intrahb_reward>  (411) 
-0

>  <i_i_glide_confnum>  (411) 
5

>  <i_i_glide_posenum>  (411) 
34

>  <r_i_glide_eff_state_penalty>  (411) 
0

>  <ligand_id>  (411) 
100

>  <original_smiles>  (411) 
Cn1cc(-c2noc(CNC3CCc4ncnn4C3)n2)cn1

>  <smiles>  (411) 
[H]c1nc2n(n1)C([H])([H])C([H])([N+]([H])([H])C([H])([H])c1nc(-c3c([H])nn(C([H])([H])[H])c3[H])no1)C([H])([H])C2([H])[H]

$$$$
100:0:1
     RDKit          3D

 39 42  0  0  1  0  0  0  0  0999 V2000
    4.8395   -5.2369    0.1208 C   0  0  0  0  0  0  0  0  0  0  0  0
    5.3368   -6.3643    0.8828 N   0  0  0  0  0  0  0  0  0  0  0  0
    4.6636   -7.5005    1.2766 C   0  0  0  0  0  0  0  0  0  0  0  0
    5.5777   -8.2767    1.9395 C   0  0  0  0  0  0  0  0  0  0  0  0
    5.3458   -9.5970    2.5413 C   0  0  0  0  0  0  0  0  0  0  0  0
    6.3359  -10.3295    3.0463 N   0  0  0  0  0  0  0  0  0  0  0  0
    5.6505  -11.4399    3.5728 O   0  0  0  0  0  0  0  0  0  0  0  0
    4.3281  -11.2231    3.3314 C   0  0  0  0  0  0  0  0  0  0  0  0
    3.3200  -12.2534    3.7635 C   0  0  0  0  0  0  0  0  0  0  0  0
    2.5050  -11.6808    4.8758 N   0  0  0  0  0  0  0  0  0  0  0  0
    1.7414  -10.4289    4.6289 C   0  0  2  0  0  0  0  0  0  0  0  0
    1.0906   -9.9264    5.9248 C   0  0  0  0  0  0  0  0  0  0  0  0
    0.4145   -8.5576    5.6986 C   0  0  0  0  0  0  0  0  0  0  0  0
   -0.4185   -8.5333    4.4542 C   0  0  0  0  0  0  0  0  0  0  0  0
   -1.3652   -7.6543    4.1533 N   0  0  0  0  0  0  0  0  0  0  0  0
   -1.7638   -8.1601    2.9453 C   0  0  0  0  0  0  0  0  0  0  0  0
   -1.0924   -9.2153    2.4917 N   0  0  0  0  0  0  0  0  0  0  0  0
   -0.2179   -9.4469    3.4988 N   0  0  0  0  0  0  0  0  0  0  0  0
    0.6893  -10.5778    3.5038 C   0  0  0  0  0  0  0  0  0  0  0  0
    4.0888  -10.0907    2.6679 N   0  0  0  0  0  0  0  0  0  0  0  0
    6.7829   -7.5224    1.9286 C   0  0  0  0  0  0  0  0  0  0  0  0
    6.6292   -6.3731    1.2852 N   0  0  0  0  0  0  0  0  0  0  0  0
    3.7890   -5.3847   -0.1377 H   0  0  0  0  0  0  0  0  0  0  0  0
    5.4122   -5.1318   -0.8020 H   0  0  0  0  0  0  0  0  0  0  0  0
    4.9357   -4.3196    0.7042 H   0  0  0  0  0  0  0  0  0  0  0  0
    3.6232   -7.6712    1.0529 H   0  0  0  0  0  0  0  0  0  0  0  0
    2.7209  -12.5295    2.8987 H   0  0  0  0  0  0  0  0  0  0  0  0
    3.8321  -13.1503    4.1151 H   0  0  0  0  0  0  0  0  0  0  0  0
    1.8203  -12.3833    5.1148 H   0  0  0  0  0  0  0  0  0  0  0  0
    2.4071   -9.6106    4.3714 H   0  0  0  0  0  0  0  0  0  0  0  0
    0.3377  -10.6560    6.2366 H   0  0  0  0  0  0  0  0  0  0  0  0
    1.8327   -9.8485    6.7238 H   0  0  0  0  0  0  0  0  0  0  0  0
   -0.2065   -8.3240    6.5609 H   0  0  0  0  0  0  0  0  0  0  0  0
    1.1643   -7.7666    5.6141 H   0  0  0  0  0  0  0  0  0  0  0  0
   -2.5547   -7.7213    2.3572 H   0  0  0  0  0  0  0  0  0  0  0  0
    1.1454  -10.6669    2.5172 H   0  0  0  0  0  0  0  0  0  0  0  0
    0.0991  -11.4757    3.6780 H   0  0  0  0  0  0  0  0  0  0  0  0
    7.7464   -7.7657    2.3566 H   0  0  0  0  0  0  0  0  0  0  0  0
    3.0822  -11.5531    5.6937 H   0  0  0  0  0  0  0  0  0  0  0  0
  1  2  1  0
  1 23  1  0
  1 24  1  0
  1 25  1  0
  2 22  1  0
  2  3  1  0
  3  4  2  0
  3 26  1  0
  4  5  1  0
  4 21  1  0
  5 20  1  0
  5  6  2  0
  6  7  1  0
  7  8  1  0
  8  9  1  0
  8 20  2  0
  9 10  1  0
  9 27  1  0
  9 28  1  0
 10 11  1  0
 10 29  1  0
 10 39  1  0
 11 19  1  0
 11 12  1  0
 11 30  1  6
 12 13  1  0
 12 31  1  0
 12 32  1  0
 13 14  1  0
 13 33  1  0
 13 34  1  0
 14 18  1  0
 14 15  2  0
 15 16  1  0
 16 17  2  0
 16 35  1  0
 17 18  1  0
 18 19  1  0
 19 36  1  0
 19 37  1  0
 21 22  2  0
 21 38  1  0
M  CHG  1  10   1
M  END
>  <i_m_ct_stereo_status>  (412) 
1

>  <s_m_source_file>  (412) 
/var/tmp/pbs.5102103.sched01/tmpeh5ntauu/15412114_vq.sdf

>  <i_m_source_file_index>  (412) 
6

>  <i_lp_mmshare_version>  (412) 
48012

>  <i_f3d_flags>  (412) 
0

>  <s_epik_input>  (412) 
W0NIM11uMVtjSF1jKFtjSF1uMSktYzJub2MobjIpW0NIMl1bTkhdW0NASF0oW0NIMl1bQ0gyXTMpW0NIMl1uKGMzNCluW2NIXW40

>  <s_epik_cmdline>  (412) 
J2VwaWtfcHl0aG9uJywgJy1waHQnLCAnMi4wJywgJy1waCcsICc3LjAnLCAnLXRuJywgJzgnLCAnLW1hJywgJzIwMCcsICctaW1hZScsICc8aW5maWxlLm1hZT4nLCAnLW9tYWUnLCAnPG91dGZpbGUubWFlPic=

>  <r_lp_tautomer_probability>  (412) 
1

>  <r_epik_Ionization_Penalty>  (412) 
0.417944

>  <r_epik_Ionization_Penalty_Charging>  (412) 
0.417933

>  <r_epik_Ionization_Penalty_Neutral>  (412) 
1.07184e-05

>  <r_epik_State_Penalty>  (412) 
0.101651

>  <r_epik_Charging_Adjusted_Penalty>  (412) 
0.519585

>  <i_epik_Tot_Q>  (412) 
1

>  <i_epik_Tot_abs_Q>  (412) 
1

>  <s_lp_Force_Field>  (412) 
OPLS3e

>  <r_lp_Energy>  (412) 
20.461

>  <b_lp_Chiralities_Consistent>  (412) 
1

>  <s_lp_Variant>  (412) 
100:0-1

>  <s_i_glide_gridfile>  (412) 
pfpi4k_grid

>  <i_i_glide_lignum>  (412) 
6

>  <i_i_glide_rotatable_bonds>  (412) 
4

>  <r_i_docking_score>  (412) 
-3.47582

>  <r_i_glide_ligand_efficiency>  (412) 
-0.157992

>  <r_i_glide_ligand_efficiency_sa>  (412) 
-0.442699

>  <r_i_glide_ligand_efficiency_ln>  (412) 
-0.849617

>  <r_i_glide_gscore>  (412) 
-3.47582

>  <r_i_glide_lipo>  (412) 
-0.250954

>  <r_i_glide_hbond>  (412) 
0

>  <r_i_glide_metal>  (412) 
-0

>  <r_i_glide_rewards>  (412) 
-1.50079

>  <r_i_glide_evdw>  (412) 
-26.9152

>  <r_i_glide_ecoul>  (412) 
-6.06205

>  <r_i_glide_erotb>  (412) 
0.810381

>  <r_i_glide_esite>  (412) 
-0.279383

>  <r_i_glide_emodel>  (412) 
-43.0369

>  <r_i_glide_energy>  (412) 
-32.9773

>  <r_i_glide_einternal>  (412) 
0.930459

>  <r_i_glide_intrahb_reward>  (412) 
-0

>  <i_i_glide_confnum>  (412) 
5

>  <i_i_glide_posenum>  (412) 
2

>  <r_i_glide_eff_state_penalty>  (412) 
0

>  <ligand_id>  (412) 
100

>  <original_smiles>  (412) 
Cn1cc(-c2noc(CNC3CCc4ncnn4C3)n2)cn1

>  <smiles>  (412) 
[H]c1nc2n(n1)C([H])([H])C([H])([N+]([H])([H])C([H])([H])c1nc(-c3c([H])nn(C([H])([H])[H])c3[H])no1)C([H])([H])C2([H])[H]

$$$$
100:0:2
     RDKit          3D

 39 42  0  0  1  0  0  0  0  0999 V2000
    5.3818   -4.5618    1.4142 C   0  0  0  0  0  0  0  0  0  0  0  0
    5.8148   -5.9157    1.6934 N   0  0  0  0  0  0  0  0  0  0  0  0
    5.0485   -7.0231    1.9883 C   0  0  0  0  0  0  0  0  0  0  0  0
    5.9244   -8.0629    2.1514 C   0  0  0  0  0  0  0  0  0  0  0  0
    5.5954   -9.4603    2.4645 C   0  0  0  0  0  0  0  0  0  0  0  0
    6.5273  -10.3939    2.6238 N   0  0  0  0  0  0  0  0  0  0  0  0
    5.7664  -11.5229    2.9749 O   0  0  0  0  0  0  0  0  0  0  0  0
    4.4650  -11.1200    2.9893 C   0  0  0  0  0  0  0  0  0  0  0  0
    3.3897  -12.1279    3.2990 C   0  0  0  0  0  0  0  0  0  0  0  0
    2.6453  -11.6626    4.5009 N   0  0  0  0  0  0  0  0  0  0  0  0
    1.8396  -10.4166    4.4005 C   0  0  2  0  0  0  0  0  0  0  0  0
    1.2260  -10.0595    5.7631 C   0  0  0  0  0  0  0  0  0  0  0  0
    0.4976   -8.7014    5.7013 C   0  0  0  0  0  0  0  0  0  0  0  0
   -0.3772   -8.5828    4.4950 C   0  0  0  0  0  0  0  0  0  0  0  0
   -1.3515   -7.7026    4.3087 N   0  0  0  0  0  0  0  0  0  0  0  0
   -1.7775   -8.0990    3.0703 C   0  0  0  0  0  0  0  0  0  0  0  0
   -1.1013   -9.0916    2.4971 N   0  0  0  0  0  0  0  0  0  0  0  0
   -0.1896   -9.3965    3.4481 N   0  0  0  0  0  0  0  0  0  0  0  0
    0.7507  -10.4907    3.3071 C   0  0  0  0  0  0  0  0  0  0  0  0
    4.3057   -9.8396    2.6515 N   0  0  0  0  0  0  0  0  0  0  0  0
    7.2145   -7.4962    1.9598 C   0  0  0  0  0  0  0  0  0  0  0  0
    7.1372   -6.2033    1.6748 N   0  0  0  0  0  0  0  0  0  0  0  0
    4.2934   -4.4916    1.4592 H   0  0  0  0  0  0  0  0  0  0  0  0
    5.7107   -4.2660    0.4166 H   0  0  0  0  0  0  0  0  0  0  0  0
    5.8092   -3.8750    2.1466 H   0  0  0  0  0  0  0  0  0  0  0  0
    3.9721   -6.9859    2.0505 H   0  0  0  0  0  0  0  0  0  0  0  0
    2.7360  -12.2491    2.4429 H   0  0  0  0  0  0  0  0  0  0  0  0
    3.8421  -13.1015    3.4919 H   0  0  0  0  0  0  0  0  0  0  0  0
    1.9842  -12.3947    4.7199 H   0  0  0  0  0  0  0  0  0  0  0  0
    2.4665   -9.5567    4.1889 H   0  0  0  0  0  0  0  0  0  0  0  0
    0.5034  -10.8350    6.0300 H   0  0  0  0  0  0  0  0  0  0  0  0
    1.9937  -10.0385    6.5412 H   0  0  0  0  0  0  0  0  0  0  0  0
   -0.1129   -8.5761    6.5945 H   0  0  0  0  0  0  0  0  0  0  0  0
    1.2189   -7.8809    5.6724 H   0  0  0  0  0  0  0  0  0  0  0  0
   -2.5891   -7.6202    2.5468 H   0  0  0  0  0  0  0  0  0  0  0  0
    1.1700  -10.4557    2.3014 H   0  0  0  0  0  0  0  0  0  0  0  0
    0.2026  -11.4265    3.4064 H   0  0  0  0  0  0  0  0  0  0  0  0
    8.1840   -7.9725    2.0096 H   0  0  0  0  0  0  0  0  0  0  0  0
    3.2832  -11.5809    5.2794 H   0  0  0  0  0  0  0  0  0  0  0  0
  1  2  1  0
  1 23  1  0
  1 24  1  0
  1 25  1  0
  2 22  1  0
  2  3  1  0
  3  4  2  0
  3 26  1  0
  4  5  1  0
  4 21  1  0
  5 20  1  0
  5  6  2  0
  6  7  1  0
  7  8  1  0
  8  9  1  0
  8 20  2  0
  9 10  1  0
  9 27  1  0
  9 28  1  0
 10 11  1  0
 10 29  1  0
 10 39  1  0
 11 19  1  0
 11 12  1  0
 11 30  1  6
 12 13  1  0
 12 31  1  0
 12 32  1  0
 13 14  1  0
 13 33  1  0
 13 34  1  0
 14 18  1  0
 14 15  2  0
 15 16  1  0
 16 17  2  0
 16 35  1  0
 17 18  1  0
 18 19  1  0
 19 36  1  0
 19 37  1  0
 21 22  2  0
 21 38  1  0
M  CHG  1  10   1
M  END
>  <i_m_ct_stereo_status>  (413) 
1

>  <s_m_source_file>  (413) 
/var/tmp/pbs.5102103.sched01/tmpeh5ntauu/15412114_vq.sdf

>  <i_m_source_file_index>  (413) 
6

>  <i_lp_mmshare_version>  (413) 
48012

>  <i_f3d_flags>  (413) 
0

>  <s_epik_input>  (413) 
W0NIM11uMVtjSF1jKFtjSF1uMSktYzJub2MobjIpW0NIMl1bTkhdW0NASF0oW0NIMl1bQ0gyXTMpW0NIMl1uKGMzNCluW2NIXW40

>  <s_epik_cmdline>  (413) 
J2VwaWtfcHl0aG9uJywgJy1waHQnLCAnMi4wJywgJy1waCcsICc3LjAnLCAnLXRuJywgJzgnLCAnLW1hJywgJzIwMCcsICctaW1hZScsICc8aW5maWxlLm1hZT4nLCAnLW9tYWUnLCAnPG91dGZpbGUubWFlPic=

>  <r_lp_tautomer_probability>  (413) 
1

>  <r_epik_Ionization_Penalty>  (413) 
0.417944

>  <r_epik_Ionization_Penalty_Charging>  (413) 
0.417933

>  <r_epik_Ionization_Penalty_Neutral>  (413) 
1.07184e-05

>  <r_epik_State_Penalty>  (413) 
0.101651

>  <r_epik_Charging_Adjusted_Penalty>  (413) 
0.519585

>  <i_epik_Tot_Q>  (413) 
1

>  <i_epik_Tot_abs_Q>  (413) 
1

>  <s_lp_Force_Field>  (413) 
OPLS3e

>  <r_lp_Energy>  (413) 
20.461

>  <b_lp_Chiralities_Consistent>  (413) 
1

>  <s_lp_Variant>  (413) 
100:0-1

>  <s_i_glide_gridfile>  (413) 
pfpi4k_grid

>  <i_i_glide_lignum>  (413) 
6

>  <i_i_glide_rotatable_bonds>  (413) 
4

>  <r_i_docking_score>  (413) 
-3.38416

>  <r_i_glide_ligand_efficiency>  (413) 
-0.153826

>  <r_i_glide_ligand_efficiency_sa>  (413) 
-0.431025

>  <r_i_glide_ligand_efficiency_ln>  (413) 
-0.827213

>  <r_i_glide_gscore>  (413) 
-3.38416

>  <r_i_glide_lipo>  (413) 
-0.230523

>  <r_i_glide_hbond>  (413) 
0

>  <r_i_glide_metal>  (413) 
-0

>  <r_i_glide_rewards>  (413) 
-1.44041

>  <r_i_glide_evdw>  (413) 
-26.0024

>  <r_i_glide_ecoul>  (413) 
-6.20684

>  <r_i_glide_erotb>  (413) 
0.810381

>  <r_i_glide_esite>  (413) 
-0.292463

>  <r_i_glide_emodel>  (413) 
-42.25

>  <r_i_glide_energy>  (413) 
-32.2093

>  <r_i_glide_einternal>  (413) 
0.695138

>  <r_i_glide_intrahb_reward>  (413) 
-0

>  <i_i_glide_confnum>  (413) 
5

>  <i_i_glide_posenum>  (413) 
11

>  <r_i_glide_eff_state_penalty>  (413) 
0

>  <ligand_id>  (413) 
100

>  <original_smiles>  (413) 
Cn1cc(-c2noc(CNC3CCc4ncnn4C3)n2)cn1

>  <smiles>  (413) 
[H]c1nc2n(n1)C([H])([H])C([H])([N+]([H])([H])C([H])([H])c1nc(-c3c([H])nn(C([H])([H])[H])c3[H])no1)C([H])([H])C2([H])[H]

$$$$
100:1:0
     RDKit          3D

 38 41  0  0  1  0  0  0  0  0999 V2000
    3.1628   -0.1259   -4.6542 C   0  0  0  0  0  0  0  0  0  0  0  0
    3.8119   -1.1527   -3.8665 N   0  0  0  0  0  0  0  0  0  0  0  0
    4.5275   -1.0163   -2.6982 C   0  0  0  0  0  0  0  0  0  0  0  0
    4.9934   -2.2698   -2.4020 C   0  0  0  0  0  0  0  0  0  0  0  0
    5.8715   -2.6773   -1.2969 C   0  0  0  0  0  0  0  0  0  0  0  0
    6.5322   -1.8001   -0.5479 N   0  0  0  0  0  0  0  0  0  0  0  0
    7.1017   -2.6139    0.4486 O   0  0  0  0  0  0  0  0  0  0  0  0
    6.6898   -3.8796    0.1696 C   0  0  0  0  0  0  0  0  0  0  0  0
    6.9453   -4.9698    1.1684 C   0  0  0  0  0  0  0  0  0  0  0  0
    5.8723   -5.2043    2.1430 N   0  0  0  0  0  0  0  0  0  0  0  0
    4.6006   -5.5788    1.5280 C   0  0  2  0  0  0  0  0  0  0  0  0
    3.7030   -4.3402    1.1995 C   0  0  0  0  0  0  0  0  0  0  0  0
    2.5045   -4.7972    0.3558 C   0  0  0  0  0  0  0  0  0  0  0  0
    1.8167   -5.9562    0.9893 C   0  0  0  0  0  0  0  0  0  0  0  0
    0.5715   -6.3515    0.7606 N   0  0  0  0  0  0  0  0  0  0  0  0
    0.5226   -7.4359    1.5983 C   0  0  0  0  0  0  0  0  0  0  0  0
    1.6117   -7.6720    2.3253 N   0  0  0  0  0  0  0  0  0  0  0  0
    2.4556   -6.7084    1.8940 N   0  0  0  0  0  0  0  0  0  0  0  0
    3.7892   -6.5197    2.4460 C   0  0  0  0  0  0  0  0  0  0  0  0
    5.9795   -3.9790   -0.9497 N   0  0  0  0  0  0  0  0  0  0  0  0
    4.4485   -3.1238   -3.3960 C   0  0  0  0  0  0  0  0  0  0  0  0
    3.7644   -2.4370   -4.2895 N   0  0  0  0  0  0  0  0  0  0  0  0
    3.2936    0.8504   -4.1864 H   0  0  0  0  0  0  0  0  0  0  0  0
    2.0971   -0.3390   -4.7323 H   0  0  0  0  0  0  0  0  0  0  0  0
    3.5846   -0.0879   -5.6609 H   0  0  0  0  0  0  0  0  0  0  0  0
    4.6710   -0.0596   -2.2139 H   0  0  0  0  0  0  0  0  0  0  0  0
    7.1595   -5.8956    0.6336 H   0  0  0  0  0  0  0  0  0  0  0  0
    7.8429   -4.7106    1.7281 H   0  0  0  0  0  0  0  0  0  0  0  0
    6.1682   -5.9752    2.7296 H   0  0  0  0  0  0  0  0  0  0  0  0
    4.8206   -6.1567    0.6278 H   0  0  0  0  0  0  0  0  0  0  0  0
    3.3596   -3.8911    2.1362 H   0  0  0  0  0  0  0  0  0  0  0  0
    4.1691   -3.5152    0.6654 H   0  0  0  0  0  0  0  0  0  0  0  0
    1.8178   -3.9743    0.2272 H   0  0  0  0  0  0  0  0  0  0  0  0
    2.8292   -5.0803   -0.6483 H   0  0  0  0  0  0  0  0  0  0  0  0
   -0.3591   -8.0599    1.6994 H   0  0  0  0  0  0  0  0  0  0  0  0
    4.2654   -7.4913    2.5819 H   0  0  0  0  0  0  0  0  0  0  0  0
    3.6783   -6.0716    3.4362 H   0  0  0  0  0  0  0  0  0  0  0  0
    4.5728   -4.1901   -3.5141 H   0  0  0  0  0  0  0  0  0  0  0  0
  1  2  1  0
  1 23  1  0
  1 24  1  0
  1 25  1  0
  2 22  1  0
  2  3  1  0
  3  4  2  0
  3 26  1  0
  4  5  1  0
  4 21  1  0
  5 20  1  0
  5  6  2  0
  6  7  1  0
  7  8  1  0
  8  9  1  0
  8 20  2  0
  9 10  1  0
  9 27  1  0
  9 28  1  0
 10 11  1  0
 10 29  1  0
 11 19  1  0
 11 12  1  0
 11 30  1  6
 12 13  1  0
 12 31  1  0
 12 32  1  0
 13 14  1  0
 13 33  1  0
 13 34  1  0
 14 18  1  0
 14 15  2  0
 15 16  1  0
 16 17  2  0
 16 35  1  0
 17 18  1  0
 18 19  1  0
 19 36  1  0
 19 37  1  0
 21 22  2  0
 21 38  1  0
M  END
>  <i_m_ct_stereo_status>  (414) 
1

>  <s_m_source_file>  (414) 
/var/tmp/pbs.5102103.sched01/tmpeh5ntauu/15412114_vq.sdf

>  <i_m_source_file_index>  (414) 
7

>  <i_lp_mmshare_version>  (414) 
48012

>  <i_f3d_flags>  (414) 
0

>  <s_epik_input>  (414) 
W0NIM11uMVtjSF1jKFtjSF1uMSktYzJub2MobjIpW0NIMl1bTkhdW0NASF0oW0NIMl1bQ0gyXTMpW0NIMl1uKGMzNCluW2NIXW40

>  <s_epik_cmdline>  (414) 
J2VwaWtfcHl0aG9uJywgJy1waHQnLCAnMi4wJywgJy1waCcsICc3LjAnLCAnLXRuJywgJzgnLCAnLW1hJywgJzIwMCcsICctaW1hZScsICc8aW5maWxlLm1hZT4nLCAnLW9tYWUnLCAnPG91dGZpbGUubWFlPic=

>  <r_lp_tautomer_probability>  (414) 
1

>  <r_epik_Ionization_Penalty>  (414) 
0.405734

>  <r_epik_Ionization_Penalty_Charging>  (414) 
0

>  <r_epik_Ionization_Penalty_Neutral>  (414) 
0.405734

>  <r_epik_State_Penalty>  (414) 
1.09482

>  <r_epik_Charging_Adjusted_Penalty>  (414) 
1.09482

>  <i_epik_Tot_Q>  (414) 
0

>  <i_epik_Tot_abs_Q>  (414) 
0

>  <s_lp_Force_Field>  (414) 
OPLS3e

>  <r_lp_Energy>  (414) 
29.4686

>  <b_lp_Chiralities_Consistent>  (414) 
1

>  <s_lp_Variant>  (414) 
100:0-2

>  <s_i_glide_gridfile>  (414) 
pfpi4k_grid

>  <i_i_glide_lignum>  (414) 
7

>  <i_i_glide_rotatable_bonds>  (414) 
4

>  <r_i_docking_score>  (414) 
-4.98601

>  <r_i_glide_ligand_efficiency>  (414) 
-0.226637

>  <r_i_glide_ligand_efficiency_sa>  (414) 
-0.635046

>  <r_i_glide_ligand_efficiency_ln>  (414) 
-1.21876

>  <r_i_glide_gscore>  (414) 
-4.98601

>  <r_i_glide_lipo>  (414) 
-0.770455

>  <r_i_glide_hbond>  (414) 
-0.48

>  <r_i_glide_metal>  (414) 
-0

>  <r_i_glide_rewards>  (414) 
-1.56649

>  <r_i_glide_evdw>  (414) 
-27.0778

>  <r_i_glide_ecoul>  (414) 
-9.42695

>  <r_i_glide_erotb>  (414) 
0.815148

>  <r_i_glide_esite>  (414) 
-0.216286

>  <r_i_glide_emodel>  (414) 
-47.3435

>  <r_i_glide_energy>  (414) 
-36.5048

>  <r_i_glide_einternal>  (414) 
1.69835

>  <r_i_glide_intrahb_reward>  (414) 
-0

>  <i_i_glide_confnum>  (414) 
3

>  <i_i_glide_posenum>  (414) 
17

>  <r_i_glide_eff_state_penalty>  (414) 
0

>  <ligand_id>  (414) 
100

>  <original_smiles>  (414) 
Cn1cc(-c2noc(CNC3CCc4ncnn4C3)n2)cn1

>  <smiles>  (414) 
[H]c1nc2n(n1)C([H])([H])C([H])(N([H])C([H])([H])c1nc(-c3c([H])nn(C([H])([H])[H])c3[H])no1)C([H])([H])C2([H])[H]

$$$$
100:1:1
     RDKit          3D

 38 41  0  0  1  0  0  0  0  0999 V2000
    3.2039   -0.1095   -4.6873 C   0  0  0  0  0  0  0  0  0  0  0  0
    3.8321   -1.1335   -3.8798 N   0  0  0  0  0  0  0  0  0  0  0  0
    4.4905   -0.9976   -2.6780 C   0  0  0  0  0  0  0  0  0  0  0  0
    4.9115   -2.2519   -2.3356 C   0  0  0  0  0  0  0  0  0  0  0  0
    5.6859   -2.6633   -1.1600 C   0  0  0  0  0  0  0  0  0  0  0  0
    6.5136   -1.8352   -0.5366 N   0  0  0  0  0  0  0  0  0  0  0  0
    7.0113   -2.6250    0.5096 O   0  0  0  0  0  0  0  0  0  0  0  0
    6.4047   -3.8360    0.3726 C   0  0  0  0  0  0  0  0  0  0  0  0
    6.6411   -4.9022    1.4004 C   0  0  0  0  0  0  0  0  0  0  0  0
    5.7569   -4.8132    2.5625 N   0  0  0  0  0  0  0  0  0  0  0  0
    4.3543   -5.0241    2.2133 C   0  0  2  0  0  0  0  0  0  0  0  0
    3.4082   -4.2277    3.1322 C   0  0  0  0  0  0  0  0  0  0  0  0
    1.9537   -4.3560    2.6145 C   0  0  0  0  0  0  0  0  0  0  0  0
    1.5976   -5.7708    2.2422 C   0  0  0  0  0  0  0  0  0  0  0  0
    0.3769   -6.2557    2.0364 N   0  0  0  0  0  0  0  0  0  0  0  0
    0.6958   -7.5468    1.7023 C   0  0  0  0  0  0  0  0  0  0  0  0
    1.9926   -7.8462    1.6821 N   0  0  0  0  0  0  0  0  0  0  0  0
    2.5619   -6.6745    2.0320 N   0  0  0  0  0  0  0  0  0  0  0  0
    3.9901   -6.5198    2.2013 C   0  0  0  0  0  0  0  0  0  0  0  0
    5.6048   -3.9270   -0.6861 N   0  0  0  0  0  0  0  0  0  0  0  0
    4.4451   -3.1024   -3.3705 C   0  0  0  0  0  0  0  0  0  0  0  0
    3.8135   -2.4154   -4.3071 N   0  0  0  0  0  0  0  0  0  0  0  0
    3.3157    0.8640   -4.2113 H   0  0  0  0  0  0  0  0  0  0  0  0
    2.1422   -0.3264   -4.8010 H   0  0  0  0  0  0  0  0  0  0  0  0
    3.6639   -0.0731   -5.6744 H   0  0  0  0  0  0  0  0  0  0  0  0
    4.6147   -0.0450   -2.1851 H   0  0  0  0  0  0  0  0  0  0  0  0
    6.5451   -5.8789    0.9247 H   0  0  0  0  0  0  0  0  0  0  0  0
    7.6738   -4.8157    1.7391 H   0  0  0  0  0  0  0  0  0  0  0  0
    6.0439   -5.4956    3.2517 H   0  0  0  0  0  0  0  0  0  0  0  0
    4.1456   -4.6356    1.2202 H   0  0  0  0  0  0  0  0  0  0  0  0
    3.4630   -4.6292    4.1451 H   0  0  0  0  0  0  0  0  0  0  0  0
    3.7041   -3.1755    3.1903 H   0  0  0  0  0  0  0  0  0  0  0  0
    1.2494   -3.9896    3.3619 H   0  0  0  0  0  0  0  0  0  0  0  0
    1.8392   -3.7249    1.7292 H   0  0  0  0  0  0  0  0  0  0  0  0
   -0.0567   -8.2844    1.4595 H   0  0  0  0  0  0  0  0  0  0  0  0
    4.4996   -7.0461    1.3966 H   0  0  0  0  0  0  0  0  0  0  0  0
    4.2691   -6.9902    3.1433 H   0  0  0  0  0  0  0  0  0  0  0  0
    4.5678   -4.1744   -3.4810 H   0  0  0  0  0  0  0  0  0  0  0  0
  1  2  1  0
  1 23  1  0
  1 24  1  0
  1 25  1  0
  2 22  1  0
  2  3  1  0
  3  4  2  0
  3 26  1  0
  4  5  1  0
  4 21  1  0
  5 20  1  0
  5  6  2  0
  6  7  1  0
  7  8  1  0
  8  9  1  0
  8 20  2  0
  9 10  1  0
  9 27  1  0
  9 28  1  0
 10 11  1  0
 10 29  1  0
 11 19  1  0
 11 12  1  0
 11 30  1  6
 12 13  1  0
 12 31  1  0
 12 32  1  0
 13 14  1  0
 13 33  1  0
 13 34  1  0
 14 18  1  0
 14 15  2  0
 15 16  1  0
 16 17  2  0
 16 35  1  0
 17 18  1  0
 18 19  1  0
 19 36  1  0
 19 37  1  0
 21 22  2  0
 21 38  1  0
M  END
>  <i_m_ct_stereo_status>  (415) 
1

>  <s_m_source_file>  (415) 
/var/tmp/pbs.5102103.sched01/tmpeh5ntauu/15412114_vq.sdf

>  <i_m_source_file_index>  (415) 
7

>  <i_lp_mmshare_version>  (415) 
48012

>  <i_f3d_flags>  (415) 
0

>  <s_epik_input>  (415) 
W0NIM11uMVtjSF1jKFtjSF1uMSktYzJub2MobjIpW0NIMl1bTkhdW0NASF0oW0NIMl1bQ0gyXTMpW0NIMl1uKGMzNCluW2NIXW40

>  <s_epik_cmdline>  (415) 
J2VwaWtfcHl0aG9uJywgJy1waHQnLCAnMi4wJywgJy1waCcsICc3LjAnLCAnLXRuJywgJzgnLCAnLW1hJywgJzIwMCcsICctaW1hZScsICc8aW5maWxlLm1hZT4nLCAnLW9tYWUnLCAnPG91dGZpbGUubWFlPic=

>  <r_lp_tautomer_probability>  (415) 
1

>  <r_epik_Ionization_Penalty>  (415) 
0.405734

>  <r_epik_Ionization_Penalty_Charging>  (415) 
0

>  <r_epik_Ionization_Penalty_Neutral>  (415) 
0.405734

>  <r_epik_State_Penalty>  (415) 
1.09482

>  <r_epik_Charging_Adjusted_Penalty>  (415) 
1.09482

>  <i_epik_Tot_Q>  (415) 
0

>  <i_epik_Tot_abs_Q>  (415) 
0

>  <s_lp_Force_Field>  (415) 
OPLS3e

>  <r_lp_Energy>  (415) 
29.4686

>  <b_lp_Chiralities_Consistent>  (415) 
1

>  <s_lp_Variant>  (415) 
100:0-2

>  <s_i_glide_gridfile>  (415) 
pfpi4k_grid

>  <i_i_glide_lignum>  (415) 
7

>  <i_i_glide_rotatable_bonds>  (415) 
4

>  <r_i_docking_score>  (415) 
-4.81238

>  <r_i_glide_ligand_efficiency>  (415) 
-0.218744

>  <r_i_glide_ligand_efficiency_sa>  (415) 
-0.612931

>  <r_i_glide_ligand_efficiency_ln>  (415) 
-1.17632

>  <r_i_glide_gscore>  (415) 
-4.81238

>  <r_i_glide_lipo>  (415) 
-0.680092

>  <r_i_glide_hbond>  (415) 
-0.519312

>  <r_i_glide_metal>  (415) 
-0

>  <r_i_glide_rewards>  (415) 
-1.56361

>  <r_i_glide_evdw>  (415) 
-28.2562

>  <r_i_glide_ecoul>  (415) 
-8.46616

>  <r_i_glide_erotb>  (415) 
0.815148

>  <r_i_glide_esite>  (415) 
-0.181782

>  <r_i_glide_emodel>  (415) 
-47.3609

>  <r_i_glide_energy>  (415) 
-36.7224

>  <r_i_glide_einternal>  (415) 
1.92877

>  <r_i_glide_intrahb_reward>  (415) 
-0

>  <i_i_glide_confnum>  (415) 
3

>  <i_i_glide_posenum>  (415) 
1

>  <r_i_glide_eff_state_penalty>  (415) 
0

>  <ligand_id>  (415) 
100

>  <original_smiles>  (415) 
Cn1cc(-c2noc(CNC3CCc4ncnn4C3)n2)cn1

>  <smiles>  (415) 
[H]c1nc2n(n1)C([H])([H])C([H])(N([H])C([H])([H])c1nc(-c3c([H])nn(C([H])([H])[H])c3[H])no1)C([H])([H])C2([H])[H]

$$$$
100:1:2
     RDKit          3D

 38 41  0  0  1  0  0  0  0  0999 V2000
    3.1992    0.0156   -5.2358 C   0  0  0  0  0  0  0  0  0  0  0  0
    3.6999   -0.8157   -4.1606 N   0  0  0  0  0  0  0  0  0  0  0  0
    4.1701   -0.4255   -2.9288 C   0  0  0  0  0  0  0  0  0  0  0  0
    4.5131   -1.5723   -2.2764 C   0  0  0  0  0  0  0  0  0  0  0  0
    5.0578   -1.7019   -0.9255 C   0  0  0  0  0  0  0  0  0  0  0  0
    6.3601   -1.8549   -0.7143 N   0  0  0  0  0  0  0  0  0  0  0  0
    6.4268   -1.9439    0.6851 O   0  0  0  0  0  0  0  0  0  0  0  0
    5.1412   -1.8445    1.1265 C   0  0  0  0  0  0  0  0  0  0  0  0
    4.8616   -1.8843    2.5992 C   0  0  0  0  0  0  0  0  0  0  0  0
    4.4715   -0.5860    3.1433 N   0  0  0  0  0  0  0  0  0  0  0  0
    3.0747   -0.2799    2.8413 C   0  0  2  0  0  0  0  0  0  0  0  0
    2.9009    1.1378    2.2580 C   0  0  0  0  0  0  0  0  0  0  0  0
    1.4283    1.3707    1.8499 C   0  0  0  0  0  0  0  0  0  0  0  0
    0.4682    0.8926    2.8938 C   0  0  0  0  0  0  0  0  0  0  0  0
   -0.8228    1.1939    2.9773 N   0  0  0  0  0  0  0  0  0  0  0  0
   -1.1580    0.4689    4.0854 C   0  0  0  0  0  0  0  0  0  0  0  0
   -0.1813   -0.2413    4.6482 N   0  0  0  0  0  0  0  0  0  0  0  0
    0.8676    0.0466    3.8491 N   0  0  0  0  0  0  0  0  0  0  0  0
    2.2049   -0.4573    4.1008 C   0  0  0  0  0  0  0  0  0  0  0  0
    4.2447   -1.7030    0.1548 N   0  0  0  0  0  0  0  0  0  0  0  0
    4.2198   -2.6291   -3.1751 C   0  0  0  0  0  0  0  0  0  0  0  0
    3.7543   -2.1601   -4.3179 N   0  0  0  0  0  0  0  0  0  0  0  0
    3.2349    1.0688   -4.9518 H   0  0  0  0  0  0  0  0  0  0  0  0
    2.1641   -0.2481   -5.4605 H   0  0  0  0  0  0  0  0  0  0  0  0
    3.8026   -0.1311   -6.1306 H   0  0  0  0  0  0  0  0  0  0  0  0
    4.2193    0.6098   -2.6332 H   0  0  0  0  0  0  0  0  0  0  0  0
    4.0929   -2.6313    2.7994 H   0  0  0  0  0  0  0  0  0  0  0  0
    5.7602   -2.2244    3.1097 H   0  0  0  0  0  0  0  0  0  0  0  0
    4.6427   -0.5539    4.1395 H   0  0  0  0  0  0  0  0  0  0  0  0
    2.6890   -0.9657    2.0862 H   0  0  0  0  0  0  0  0  0  0  0  0
    3.1708    1.8770    3.0137 H   0  0  0  0  0  0  0  0  0  0  0  0
    3.5555    1.3054    1.4000 H   0  0  0  0  0  0  0  0  0  0  0  0
    1.2428    2.4264    1.6617 H   0  0  0  0  0  0  0  0  0  0  0  0
    1.2146    0.8326    0.9254 H   0  0  0  0  0  0  0  0  0  0  0  0
   -2.1612    0.4488    4.4943 H   0  0  0  0  0  0  0  0  0  0  0  0
    2.1494   -1.5028    4.4005 H   0  0  0  0  0  0  0  0  0  0  0  0
    2.6228    0.1060    4.9360 H   0  0  0  0  0  0  0  0  0  0  0  0
    4.3381   -3.6962   -3.0384 H   0  0  0  0  0  0  0  0  0  0  0  0
  1  2  1  0
  1 23  1  0
  1 24  1  0
  1 25  1  0
  2 22  1  0
  2  3  1  0
  3  4  2  0
  3 26  1  0
  4  5  1  0
  4 21  1  0
  5 20  1  0
  5  6  2  0
  6  7  1  0
  7  8  1  0
  8  9  1  0
  8 20  2  0
  9 10  1  0
  9 27  1  0
  9 28  1  0
 10 11  1  0
 10 29  1  0
 11 19  1  0
 11 12  1  0
 11 30  1  6
 12 13  1  0
 12 31  1  0
 12 32  1  0
 13 14  1  0
 13 33  1  0
 13 34  1  0
 14 18  1  0
 14 15  2  0
 15 16  1  0
 16 17  2  0
 16 35  1  0
 17 18  1  0
 18 19  1  0
 19 36  1  0
 19 37  1  0
 21 22  2  0
 21 38  1  0
M  END
>  <i_m_ct_stereo_status>  (416) 
1

>  <s_m_source_file>  (416) 
/var/tmp/pbs.5102103.sched01/tmpeh5ntauu/15412114_vq.sdf

>  <i_m_source_file_index>  (416) 
7

>  <i_lp_mmshare_version>  (416) 
48012

>  <i_f3d_flags>  (416) 
0

>  <s_epik_input>  (416) 
W0NIM11uMVtjSF1jKFtjSF1uMSktYzJub2MobjIpW0NIMl1bTkhdW0NASF0oW0NIMl1bQ0gyXTMpW0NIMl1uKGMzNCluW2NIXW40

>  <s_epik_cmdline>  (416) 
J2VwaWtfcHl0aG9uJywgJy1waHQnLCAnMi4wJywgJy1waCcsICc3LjAnLCAnLXRuJywgJzgnLCAnLW1hJywgJzIwMCcsICctaW1hZScsICc8aW5maWxlLm1hZT4nLCAnLW9tYWUnLCAnPG91dGZpbGUubWFlPic=

>  <r_lp_tautomer_probability>  (416) 
1

>  <r_epik_Ionization_Penalty>  (416) 
0.405734

>  <r_epik_Ionization_Penalty_Charging>  (416) 
0

>  <r_epik_Ionization_Penalty_Neutral>  (416) 
0.405734

>  <r_epik_State_Penalty>  (416) 
1.09482

>  <r_epik_Charging_Adjusted_Penalty>  (416) 
1.09482

>  <i_epik_Tot_Q>  (416) 
0

>  <i_epik_Tot_abs_Q>  (416) 
0

>  <s_lp_Force_Field>  (416) 
OPLS3e

>  <r_lp_Energy>  (416) 
29.4686

>  <b_lp_Chiralities_Consistent>  (416) 
1

>  <s_lp_Variant>  (416) 
100:0-2

>  <s_i_glide_gridfile>  (416) 
pfpi4k_grid

>  <i_i_glide_lignum>  (416) 
7

>  <i_i_glide_rotatable_bonds>  (416) 
4

>  <r_i_docking_score>  (416) 
-4.09282

>  <r_i_glide_ligand_efficiency>  (416) 
-0.186037

>  <r_i_glide_ligand_efficiency_sa>  (416) 
-0.521284

>  <r_i_glide_ligand_efficiency_ln>  (416) 
-1.00044

>  <r_i_glide_gscore>  (416) 
-4.09282

>  <r_i_glide_lipo>  (416) 
-0.58763

>  <r_i_glide_hbond>  (416) 
-0.32

>  <r_i_glide_metal>  (416) 
-0

>  <r_i_glide_rewards>  (416) 
-1.57621

>  <r_i_glide_evdw>  (416) 
-31.6325

>  <r_i_glide_ecoul>  (416) 
-4.50442

>  <r_i_glide_erotb>  (416) 
0.815148

>  <r_i_glide_esite>  (416) 
-0.166843

>  <r_i_glide_emodel>  (416) 
-43.3514

>  <r_i_glide_energy>  (416) 
-36.1369

>  <r_i_glide_einternal>  (416) 
5.63531

>  <r_i_glide_intrahb_reward>  (416) 
-0

>  <i_i_glide_confnum>  (416) 
3

>  <i_i_glide_posenum>  (416) 
2

>  <r_i_glide_eff_state_penalty>  (416) 
0

>  <ligand_id>  (416) 
100

>  <original_smiles>  (416) 
Cn1cc(-c2noc(CNC3CCc4ncnn4C3)n2)cn1

>  <smiles>  (416) 
[H]c1nc2n(n1)C([H])([H])C([H])(N([H])C([H])([H])c1nc(-c3c([H])nn(C([H])([H])[H])c3[H])no1)C([H])([H])C2([H])[H]

$$$$
101:0:0
     RDKit          3D

 98102  0  0  1  0  0  0  0  0999 V2000
    3.5239    3.8540    4.5879 C   0  0  0  0  0  0  0  0  0  0  0  0
    3.2664    2.6353    5.0893 C   0  0  0  0  0  0  0  0  0  0  0  0
    2.5787    1.4385    4.3877 C   0  0  1  0  0  0  0  0  0  0  0  0
    2.1133    1.9067    2.9583 C   0  0  0  0  0  0  0  0  0  0  0  0
    3.7783    0.4693    4.1207 C   0  0  1  0  0  0  0  0  0  0  0  0
    4.6382    0.2244    5.2251 O   0  0  0  0  0  0  0  0  0  0  0  0
    3.5130   -0.7906    3.2548 C   0  0  1  0  0  0  0  0  0  0  0  0
    4.6925   -0.9923    2.2797 C   0  0  0  0  0  0  0  0  0  0  0  0
    3.0292   -2.0991    3.9785 C   0  0  2  0  0  0  0  0  0  0  0  0
    2.2820   -3.0083    2.9380 C   0  0  0  0  0  0  0  0  0  0  0  0
    1.4888   -4.2663    3.3698 C   0  0  0  0  0  0  0  0  0  0  0  0
    2.1213   -5.4983    4.0967 C   0  0  1  0  0  0  0  0  0  0  0  0
    1.6798   -6.8002    3.3848 C   0  0  0  0  0  0  0  0  0  0  0  0
    3.6321   -5.5012    4.5441 C   0  0  1  0  0  0  0  0  0  0  0  0
    3.7572   -6.6170    5.6359 C   0  0  0  0  0  0  0  0  0  0  0  0
    4.6098   -5.9598    3.3771 C   0  0  2  0  0  0  0  0  0  0  0  0
    6.1143   -5.9648    3.7831 C   0  0  0  0  0  0  0  0  0  0  0  0
    4.3570   -5.2312    2.1679 O   0  0  0  0  0  0  0  0  0  0  0  0
    4.9308   -5.5361    0.9790 C   0  0  0  0  0  0  0  0  0  0  0  0
    5.8577   -6.3203    0.8043 O   0  0  0  0  0  0  0  0  0  0  0  0
    4.3192   -4.7987   -0.2015 C   0  0  0  0  0  0  0  0  0  0  0  0
    5.1051   -3.1649   -0.4117 S   0  0  0  0  0  0  0  0  0  0  0  0
    4.2304   -2.3565   -1.7263 C   0  0  0  0  0  0  0  0  0  0  0  0
    3.1755   -2.9785   -2.4367 C   0  0  0  0  0  0  0  0  0  0  0  0
    2.6204   -2.3170   -3.5192 C   0  0  0  0  0  0  0  0  0  0  0  0
    3.0134   -1.0961   -3.9337 N   0  0  0  0  0  0  0  0  0  0  0  0
    3.9586   -0.4667   -3.1984 C   0  0  0  0  0  0  0  0  0  0  0  0
    4.6018   -1.0538   -2.1097 C   0  0  0  0  0  0  0  0  0  0  0  0
    4.0747   -4.1601    5.2493 C   0  0  2  0  0  0  0  0  0  0  0  0
    3.3193   -3.7113    6.5102 C   0  0  0  0  0  0  0  0  0  0  0  0
    2.0303   -2.9323    6.2397 C   0  0  0  0  0  0  0  0  0  0  0  0
    2.1851   -1.7035    5.2709 C   0  0  2  0  0  0  0  0  0  0  0  0
    0.9390   -0.6762    5.1588 C   0  0  2  0  0  0  0  0  0  0  0  0
   -0.0628   -1.1337    6.2662 C   0  0  0  0  0  0  0  0  0  0  0  0
    0.0911   -0.7983    3.8600 C   0  0  0  0  0  0  0  0  0  0  0  0
   -1.1185    0.1583    3.7755 C   0  0  0  0  0  0  0  0  0  0  0  0
   -0.7985    1.6142    4.1559 C   0  0  0  0  0  0  0  0  0  0  0  0
   -1.2994    2.5344    3.5164 O   0  0  0  0  0  0  0  0  0  0  0  0
    0.0997    1.8789    5.3986 C   0  0  0  0  0  0  0  0  0  0  0  0
    0.4209    3.4030    5.4808 C   0  0  0  0  0  0  0  0  0  0  0  0
   -0.7805    1.7267    6.6782 C   0  0  0  0  0  0  0  0  0  0  0  0
    1.3733    0.8826    5.3288 C   0  0  2  0  0  0  0  0  0  0  0  0
    4.2982   -2.9166    4.3864 C   0  0  0  0  0  0  0  0  0  0  0  0
    3.2732    4.1306    3.5670 H   0  0  0  0  0  0  0  0  0  0  0  0
    4.0139    4.6137    5.1810 H   0  0  0  0  0  0  0  0  0  0  0  0
    3.5699    2.4452    6.1101 H   0  0  0  0  0  0  0  0  0  0  0  0
    1.5302    1.1815    2.4034 H   0  0  0  0  0  0  0  0  0  0  0  0
    2.9665    2.1428    2.3233 H   0  0  0  0  0  0  0  0  0  0  0  0
    1.4984    2.7984    2.9504 H   0  0  0  0  0  0  0  0  0  0  0  0
    4.4546    1.0795    3.5226 H   0  0  0  0  0  0  0  0  0  0  0  0
    5.3997   -0.2274    4.8948 H   0  0  0  0  0  0  0  0  0  0  0  0
    2.7401   -0.5342    2.5539 H   0  0  0  0  0  0  0  0  0  0  0  0
    5.6542   -1.1444    2.7879 H   0  0  0  0  0  0  0  0  0  0  0  0
    4.8223   -0.1236    1.6291 H   0  0  0  0  0  0  0  0  0  0  0  0
    4.4862   -1.8462    1.6266 H   0  0  0  0  0  0  0  0  0  0  0  0
    1.5781   -2.4120    2.3706 H   0  0  0  0  0  0  0  0  0  0  0  0
    2.9695   -3.3015    2.1534 H   0  0  0  0  0  0  0  0  0  0  0  0
    0.6112   -3.9417    3.9274 H   0  0  0  0  0  0  0  0  0  0  0  0
    1.0402   -4.6481    2.4596 H   0  0  0  0  0  0  0  0  0  0  0  0
    1.5587   -5.5439    5.0299 H   0  0  0  0  0  0  0  0  0  0  0  0
    2.1255   -6.8941    2.3934 H   0  0  0  0  0  0  0  0  0  0  0  0
    0.5962   -6.8274    3.2556 H   0  0  0  0  0  0  0  0  0  0  0  0
    1.9316   -7.6970    3.9481 H   0  0  0  0  0  0  0  0  0  0  0  0
    4.6847   -6.5412    6.2017 H   0  0  0  0  0  0  0  0  0  0  0  0
    3.7427   -7.6176    5.2083 H   0  0  0  0  0  0  0  0  0  0  0  0
    2.9538   -6.5888    6.3726 H   0  0  0  0  0  0  0  0  0  0  0  0
    4.3621   -6.9957    3.1400 H   0  0  0  0  0  0  0  0  0  0  0  0
    6.2991   -6.4752    4.7311 H   0  0  0  0  0  0  0  0  0  0  0  0
    6.4970   -4.9524    3.8752 H   0  0  0  0  0  0  0  0  0  0  0  0
    6.7408   -6.4806    3.0592 H   0  0  0  0  0  0  0  0  0  0  0  0
    4.4817   -5.3982   -1.0962 H   0  0  0  0  0  0  0  0  0  0  0  0
    3.2434   -4.6996   -0.0491 H   0  0  0  0  0  0  0  0  0  0  0  0
    2.7925   -3.9462   -2.1558 H   0  0  0  0  0  0  0  0  0  0  0  0
    1.8358   -2.7702   -4.1127 H   0  0  0  0  0  0  0  0  0  0  0  0
    4.2310    0.5242   -3.5391 H   0  0  0  0  0  0  0  0  0  0  0  0
    5.3600   -0.5202   -1.5551 H   0  0  0  0  0  0  0  0  0  0  0  0
    5.0658   -4.3881    5.6307 H   0  0  0  0  0  0  0  0  0  0  0  0
    3.1150   -4.5393    7.1857 H   0  0  0  0  0  0  0  0  0  0  0  0
    3.9826   -3.0480    7.0721 H   0  0  0  0  0  0  0  0  0  0  0  0
    1.2512   -3.6150    5.9283 H   0  0  0  0  0  0  0  0  0  0  0  0
    1.7262   -2.5903    7.2333 H   0  0  0  0  0  0  0  0  0  0  0  0
    2.8547   -1.1436    5.9122 H   0  0  0  0  0  0  0  0  0  0  0  0
   -1.0417   -0.6934    6.2035 H   0  0  0  0  0  0  0  0  0  0  0  0
    0.3169   -0.9502    7.2710 H   0  0  0  0  0  0  0  0  0  0  0  0
   -0.3262   -2.1880    6.1803 H   0  0  0  0  0  0  0  0  0  0  0  0
    0.6798   -0.6072    2.9789 H   0  0  0  0  0  0  0  0  0  0  0  0
   -0.2692   -1.8236    3.7433 H   0  0  0  0  0  0  0  0  0  0  0  0
   -1.5155    0.1596    2.7657 H   0  0  0  0  0  0  0  0  0  0  0  0
   -1.9365   -0.1689    4.4084 H   0  0  0  0  0  0  0  0  0  0  0  0
    1.0005    3.6349    6.3751 H   0  0  0  0  0  0  0  0  0  0  0  0
   -0.4954    4.0033    5.5298 H   0  0  0  0  0  0  0  0  0  0  0  0
    0.9240    3.8117    4.6219 H   0  0  0  0  0  0  0  0  0  0  0  0
   -0.2513    1.2176    7.4802 H   0  0  0  0  0  0  0  0  0  0  0  0
   -1.7289    1.2290    6.4880 H   0  0  0  0  0  0  0  0  0  0  0  0
   -1.0826    2.6778    7.1124 H   0  0  0  0  0  0  0  0  0  0  0  0
    1.8066    0.9209    6.3285 H   0  0  0  0  0  0  0  0  0  0  0  0
    4.8682   -3.2058    3.5123 H   0  0  0  0  0  0  0  0  0  0  0  0
    4.9667   -2.2672    4.9440 H   0  0  0  0  0  0  0  0  0  0  0  0
  1  2  2  0
  1 44  1  0
  1 45  1  0
  2  3  1  0
  2 46  1  0
  3 42  1  0
  3  4  1  6
  3  5  1  0
  4 47  1  0
  4 48  1  0
  4 49  1  0
  5  6  1  0
  5  7  1  0
  5 50  1  6
  6 51  1  0
  7  8  1  0
  7  9  1  0
  7 52  1  6
  8 53  1  0
  8 54  1  0
  8 55  1  0
  9 32  1  0
  9 43  1  0
  9 10  1  6
 10 11  1  0
 10 56  1  0
 10 57  1  0
 11 12  1  0
 11 58  1  0
 11 59  1  0
 12 13  1  0
 12 14  1  0
 12 60  1  1
 13 61  1  0
 13 62  1  0
 13 63  1  0
 14 15  1  1
 14 16  1  0
 14 29  1  0
 15 64  1  0
 15 65  1  0
 15 66  1  0
 16 17  1  0
 16 18  1  0
 16 67  1  6
 17 68  1  0
 17 69  1  0
 17 70  1  0
 18 19  1  0
 19 20  2  0
 19 21  1  0
 21 22  1  0
 21 71  1  0
 21 72  1  0
 22 23  1  0
 23 28  1  0
 23 24  2  0
 24 25  1  0
 24 73  1  0
 25 26  2  0
 25 74  1  0
 26 27  1  0
 27 28  2  0
 27 75  1  0
 28 76  1  0
 29 30  1  0
 29 43  1  0
 29 77  1  1
 30 31  1  0
 30 78  1  0
 30 79  1  0
 31 32  1  0
 31 80  1  0
 31 81  1  0
 32 33  1  0
 32 82  1  1
 33 42  1  0
 33 34  1  1
 33 35  1  0
 34 83  1  0
 34 84  1  0
 34 85  1  0
 35 36  1  0
 35 86  1  0
 35 87  1  0
 36 37  1  0
 36 88  1  0
 36 89  1  0
 37 38  2  0
 37 39  1  0
 39 40  1  0
 39 41  1  0
 39 42  1  0
 40 90  1  0
 40 91  1  0
 40 92  1  0
 41 93  1  0
 41 94  1  0
 41 95  1  0
 42 96  1  1
 43 97  1  0
 43 98  1  0
M  END
>  <i_m_ct_stereo_status>  (417) 
1

>  <s_m_source_file>  (417) 
/var/tmp/pbs.5102103.sched01/tmpeh5ntauu/15412114_vq.sdf

>  <i_m_source_file_index>  (417) 
8

>  <i_lp_mmshare_version>  (417) 
48012

>  <i_f3d_flags>  (417) 
0

>  <s_epik_input>  (417) 
W0NIM11bQ0BASF0xW0NASF0oW09IXSlbQ0BdKFtDSDNdKShbQ0hdPVtDSDJdKVtDQEBIXShDKFtDSDNdKShbQ0gzXSlDKD1PKVtDSDJdW0NIMl0yKVtDQF0yKFtDSDNdKVtDQEhdKFtDQF0xMzQpW0NIMl1bQ0gyXVtDQEhdKFtDSDJdNClbQ0BAXShbQ0gzXSkoW0NASF0oW0NIM10pW0NIMl1bQ0gyXTMpW0NASF0oW0NIM10pT0MoPU8pW0NIMl1TYzVbY0hdW2NIXW5bY0hdW2NIXTU=

>  <s_epik_cmdline>  (417) 
J2VwaWtfcHl0aG9uJywgJy1waHQnLCAnMi4wJywgJy1waCcsICc3LjAnLCAnLXRuJywgJzgnLCAnLW1hJywgJzIwMCcsICctaW1hZScsICc8aW5maWxlLm1hZT4nLCAnLW9tYWUnLCAnPG91dGZpbGUubWFlPic=

>  <r_lp_tautomer_probability>  (417) 
0.99995

>  <r_epik_Ionization_Penalty>  (417) 
0.0112252

>  <r_epik_Ionization_Penalty_Charging>  (417) 
0

>  <r_epik_Ionization_Penalty_Neutral>  (417) 
0.0112252

>  <r_epik_State_Penalty>  (417) 
0.00862692

>  <r_epik_Charging_Adjusted_Penalty>  (417) 
0.00862692

>  <i_epik_Tot_Q>  (417) 
0

>  <i_epik_Tot_abs_Q>  (417) 
0

>  <s_epik_Chemistry_Notes>  (417) 
This compound has an ester and may undergo hydrolysis at high or low pH.

>  <s_lp_Force_Field>  (417) 
OPLS3e

>  <r_lp_Energy>  (417) 
151.487

>  <b_lp_Chiralities_Consistent>  (417) 
1

>  <s_lp_Variant>  (417) 
101:0-1

>  <s_i_glide_gridfile>  (417) 
pfpi4k_grid

>  <i_i_glide_lignum>  (417) 
8

>  <i_i_glide_rotatable_bonds>  (417) 
8

>  <r_i_docking_score>  (417) 
-2.66909

>  <r_i_glide_ligand_efficiency>  (417) 
-0.0620719

>  <r_i_glide_ligand_efficiency_sa>  (417) 
-0.217462

>  <r_i_glide_ligand_efficiency_ln>  (417) 
-0.560592

>  <r_i_glide_gscore>  (417) 
-2.66909

>  <r_i_glide_lipo>  (417) 
-0.565678

>  <r_i_glide_hbond>  (417) 
0

>  <r_i_glide_metal>  (417) 
-0

>  <r_i_glide_rewards>  (417) 
-0.0965294

>  <r_i_glide_evdw>  (417) 
-35.9093

>  <r_i_glide_ecoul>  (417) 
-2.70764

>  <r_i_glide_erotb>  (417) 
0.215135

>  <r_i_glide_esite>  (417) 
-0.0204053

>  <r_i_glide_emodel>  (417) 
-41.7265

>  <r_i_glide_energy>  (417) 
-38.617

>  <r_i_glide_einternal>  (417) 
2.32618

>  <r_i_glide_intrahb_reward>  (417) 
-0

>  <i_i_glide_confnum>  (417) 
6

>  <i_i_glide_posenum>  (417) 
2

>  <r_i_glide_eff_state_penalty>  (417) 
0

>  <ligand_id>  (417) 
101

>  <original_smiles>  (417) 
C=CC1(C)C(O)C(C)C23CCC(C)C(C)(C(C)OC(=O)CSc4ccncc4)C(CCC2C2(C)CCC(=O)C(C)(C)C12)C3

>  <smiles>  (417) 
[H]OC1([H])C([H])(C([H])([H])[H])C23C([H])([H])C([H])([H])C([H])(C([H])([H])[H])C(C([H])([H])[H])(C([H])(OC(=O)C([H])([H])Sc4c([H])c([H])nc([H])c4[H])C([H])([H])[H])C([H])(C([H])([H])C([H])([H])C2([H])C2(C([H])([H])[H])C([H])([H])C([H])([H])C(=O)C(C([H])([H])[H])(C([H])([H])[H])C2([H])C1(C([H])=C([H])[H])C([H])([H])[H])C3([H])[H]

$$$$
101:0:1
     RDKit          3D

 98102  0  0  1  0  0  0  0  0999 V2000
    2.6087    3.8056    2.5046 C   0  0  0  0  0  0  0  0  0  0  0  0
    2.7705    2.8038    3.3926 C   0  0  0  0  0  0  0  0  0  0  0  0
    2.0423    1.4373    3.4372 C   0  0  1  0  0  0  0  0  0  0  0  0
    1.0242    1.3883    2.2389 C   0  0  0  0  0  0  0  0  0  0  0  0
    3.1687    0.4145    3.0296 C   0  0  1  0  0  0  0  0  0  0  0  0
    4.3901    0.5470    3.7389 O   0  0  0  0  0  0  0  0  0  0  0  0
    2.7755   -1.0724    2.7861 C   0  0  1  0  0  0  0  0  0  0  0  0
    3.5261   -1.6107    1.5367 C   0  0  0  0  0  0  0  0  0  0  0  0
    2.7670   -2.0291    4.0363 C   0  0  2  0  0  0  0  0  0  0  0  0
    1.8208   -3.2364    3.7243 C   0  0  0  0  0  0  0  0  0  0  0  0
    1.4165   -4.2665    4.8031 C   0  0  0  0  0  0  0  0  0  0  0  0
    2.4315   -5.1657    5.5838 C   0  0  1  0  0  0  0  0  0  0  0  0
    1.9406   -6.6362    5.5560 C   0  0  0  0  0  0  0  0  0  0  0  0
    3.9908   -5.0138    5.3935 C   0  0  1  0  0  0  0  0  0  0  0  0
    4.6579   -5.6845    6.6364 C   0  0  0  0  0  0  0  0  0  0  0  0
    4.5349   -5.8413    4.1605 C   0  0  2  0  0  0  0  0  0  0  0  0
    6.0578   -5.6713    3.8896 C   0  0  0  0  0  0  0  0  0  0  0  0
    3.7615   -5.5538    2.9922 O   0  0  0  0  0  0  0  0  0  0  0  0
    3.8822   -6.2275    1.8174 C   0  0  0  0  0  0  0  0  0  0  0  0
    4.7510   -7.0479    1.5252 O   0  0  0  0  0  0  0  0  0  0  0  0
    2.8314   -5.8706    0.8018 C   0  0  0  0  0  0  0  0  0  0  0  0
    1.1603   -6.3215    1.3985 S   0  0  0  0  0  0  0  0  0  0  0  0
    1.1022   -7.9962    1.9791 C   0  0  0  0  0  0  0  0  0  0  0  0
    2.2590   -8.8292    1.9358 C   0  0  0  0  0  0  0  0  0  0  0  0
    2.1148  -10.1237    2.4963 C   0  0  0  0  0  0  0  0  0  0  0  0
    0.9406  -10.6148    3.0004 N   0  0  0  0  0  0  0  0  0  0  0  0
   -0.1400   -9.8111    2.9547 C   0  0  0  0  0  0  0  0  0  0  0  0
   -0.1170   -8.4993    2.4860 C   0  0  0  0  0  0  0  0  0  0  0  0
    4.4777   -3.5121    5.3969 C   0  0  2  0  0  0  0  0  0  0  0  0
    4.1811   -2.6502    6.6346 C   0  0  0  0  0  0  0  0  0  0  0  0
    2.7900   -2.0157    6.6490 C   0  0  0  0  0  0  0  0  0  0  0  0
    2.4108   -1.2061    5.3550 C   0  0  2  0  0  0  0  0  0  0  0  0
    1.0882   -0.2782    5.4232 C   0  0  2  0  0  0  0  0  0  0  0  0
    0.6301   -0.3161    6.9157 C   0  0  0  0  0  0  0  0  0  0  0  0
   -0.1519   -0.8358    4.6639 C   0  0  0  0  0  0  0  0  0  0  0  0
   -1.4258    0.0339    4.7608 C   0  0  0  0  0  0  0  0  0  0  0  0
   -1.1817    1.5304    4.4995 C   0  0  0  0  0  0  0  0  0  0  0  0
   -1.9912    2.1755    3.8288 O   0  0  0  0  0  0  0  0  0  0  0  0
    0.0646    2.2092    5.1390 C   0  0  0  0  0  0  0  0  0  0  0  0
    0.1767    3.6683    4.5980 C   0  0  0  0  0  0  0  0  0  0  0  0
   -0.2620    2.5053    6.6370 C   0  0  0  0  0  0  0  0  0  0  0  0
    1.3465    1.2412    4.8983 C   0  0  2  0  0  0  0  0  0  0  0  0
    4.1959   -2.6467    4.1595 C   0  0  0  0  0  0  0  0  0  0  0  0
    1.9278    3.7387    1.6813 H   0  0  0  0  0  0  0  0  0  0  0  0
    3.1839    4.7225    2.5725 H   0  0  0  0  0  0  0  0  0  0  0  0
    3.4868    2.9710    4.1900 H   0  0  0  0  0  0  0  0  0  0  0  0
    0.3813    0.5135    2.2151 H   0  0  0  0  0  0  0  0  0  0  0  0
    1.5404    1.3943    1.2789 H   0  0  0  0  0  0  0  0  0  0  0  0
    0.3348    2.2194    2.1927 H   0  0  0  0  0  0  0  0  0  0  0  0
    3.5001    0.7754    2.0528 H   0  0  0  0  0  0  0  0  0  0  0  0
    4.7177    1.4271    3.5718 H   0  0  0  0  0  0  0  0  0  0  0  0
    1.7618   -1.0632    2.4100 H   0  0  0  0  0  0  0  0  0  0  0  0
    4.6102   -1.5860    1.6578 H   0  0  0  0  0  0  0  0  0  0  0  0
    3.2931   -1.0092    0.6571 H   0  0  0  0  0  0  0  0  0  0  0  0
    3.2369   -2.6297    1.2852 H   0  0  0  0  0  0  0  0  0  0  0  0
    0.8850   -2.8680    3.3160 H   0  0  0  0  0  0  0  0  0  0  0  0
    2.2091   -3.7749    2.8642 H   0  0  0  0  0  0  0  0  0  0  0  0
    0.7685   -3.7685    5.5228 H   0  0  0  0  0  0  0  0  0  0  0  0
    0.7194   -4.9342    4.2969 H   0  0  0  0  0  0  0  0  0  0  0  0
    2.2583   -4.8857    6.6237 H   0  0  0  0  0  0  0  0  0  0  0  0
    2.0080   -7.0661    4.5575 H   0  0  0  0  0  0  0  0  0  0  0  0
    0.8980   -6.7048    5.8668 H   0  0  0  0  0  0  0  0  0  0  0  0
    2.4998   -7.2816    6.2310 H   0  0  0  0  0  0  0  0  0  0  0  0
    5.7118   -5.4213    6.7329 H   0  0  0  0  0  0  0  0  0  0  0  0
    4.6219   -6.7728    6.5910 H   0  0  0  0  0  0  0  0  0  0  0  0
    4.1845   -5.4007    7.5766 H   0  0  0  0  0  0  0  0  0  0  0  0
    4.3600   -6.8973    4.3707 H   0  0  0  0  0  0  0  0  0  0  0  0
    6.6686   -5.8151    4.7819 H   0  0  0  0  0  0  0  0  0  0  0  0
    6.2583   -4.6885    3.4632 H   0  0  0  0  0  0  0  0  0  0  0  0
    6.4545   -6.4014    3.1879 H   0  0  0  0  0  0  0  0  0  0  0  0
    2.8965   -4.8125    0.5714 H   0  0  0  0  0  0  0  0  0  0  0  0
    3.0704   -6.4187   -0.1006 H   0  0  0  0  0  0  0  0  0  0  0  0
    3.2315   -8.5366    1.5138 H   0  0  0  0  0  0  0  0  0  0  0  0
    2.9761  -10.7752    2.5295 H   0  0  0  0  0  0  0  0  0  0  0  0
   -1.0692  -10.2562    3.2904 H   0  0  0  0  0  0  0  0  0  0  0  0
   -1.0098   -7.9136    2.4837 H   0  0  0  0  0  0  0  0  0  0  0  0
    5.5606   -3.5915    5.4070 H   0  0  0  0  0  0  0  0  0  0  0  0
    4.3537   -3.1960    7.5579 H   0  0  0  0  0  0  0  0  0  0  0  0
    4.9097   -1.8370    6.6485 H   0  0  0  0  0  0  0  0  0  0  0  0
    2.0509   -2.7631    6.9017 H   0  0  0  0  0  0  0  0  0  0  0  0
    2.8270   -1.3498    7.5127 H   0  0  0  0  0  0  0  0  0  0  0  0
    3.1891   -0.4598    5.4700 H   0  0  0  0  0  0  0  0  0  0  0  0
   -0.3498    0.0766    7.1089 H   0  0  0  0  0  0  0  0  0  0  0  0
    1.3222    0.2033    7.5761 H   0  0  0  0  0  0  0  0  0  0  0  0
    0.5006   -1.3338    7.2848 H   0  0  0  0  0  0  0  0  0  0  0  0
    0.0462   -0.9579    3.6155 H   0  0  0  0  0  0  0  0  0  0  0  0
   -0.3960   -1.8376    5.0302 H   0  0  0  0  0  0  0  0  0  0  0  0
   -2.1727   -0.3220    4.0542 H   0  0  0  0  0  0  0  0  0  0  0  0
   -1.8940   -0.0515    5.7349 H   0  0  0  0  0  0  0  0  0  0  0  0
    1.0074    4.1970    5.0686 H   0  0  0  0  0  0  0  0  0  0  0  0
   -0.7289    4.2478    4.8086 H   0  0  0  0  0  0  0  0  0  0  0  0
    0.2632    3.7512    3.5281 H   0  0  0  0  0  0  0  0  0  0  0  0
    0.5842    2.3069    7.2873 H   0  0  0  0  0  0  0  0  0  0  0  0
   -1.1378    1.9768    7.0041 H   0  0  0  0  0  0  0  0  0  0  0  0
   -0.5132    3.5525    6.8297 H   0  0  0  0  0  0  0  0  0  0  0  0
    2.1005    1.6257    5.5835 H   0  0  0  0  0  0  0  0  0  0  0  0
    4.4496   -3.2189    3.2748 H   0  0  0  0  0  0  0  0  0  0  0  0
    4.9287   -1.8436    4.1702 H   0  0  0  0  0  0  0  0  0  0  0  0
  1  2  2  0
  1 44  1  0
  1 45  1  0
  2  3  1  0
  2 46  1  0
  3 42  1  0
  3  4  1  6
  3  5  1  0
  4 47  1  0
  4 48  1  0
  4 49  1  0
  5  6  1  0
  5  7  1  0
  5 50  1  6
  6 51  1  0
  7  8  1  0
  7  9  1  0
  7 52  1  6
  8 53  1  0
  8 54  1  0
  8 55  1  0
  9 32  1  0
  9 43  1  0
  9 10  1  6
 10 11  1  0
 10 56  1  0
 10 57  1  0
 11 12  1  0
 11 58  1  0
 11 59  1  0
 12 13  1  0
 12 14  1  0
 12 60  1  1
 13 61  1  0
 13 62  1  0
 13 63  1  0
 14 15  1  1
 14 16  1  0
 14 29  1  0
 15 64  1  0
 15 65  1  0
 15 66  1  0
 16 17  1  0
 16 18  1  0
 16 67  1  1
 17 68  1  0
 17 69  1  0
 17 70  1  0
 18 19  1  0
 19 20  2  0
 19 21  1  0
 21 22  1  0
 21 71  1  0
 21 72  1  0
 22 23  1  0
 23 28  1  0
 23 24  2  0
 24 25  1  0
 24 73  1  0
 25 26  2  0
 25 74  1  0
 26 27  1  0
 27 28  2  0
 27 75  1  0
 28 76  1  0
 29 30  1  0
 29 43  1  0
 29 77  1  1
 30 31  1  0
 30 78  1  0
 30 79  1  0
 31 32  1  0
 31 80  1  0
 31 81  1  0
 32 33  1  0
 32 82  1  6
 33 42  1  0
 33 34  1  1
 33 35  1  0
 34 83  1  0
 34 84  1  0
 34 85  1  0
 35 36  1  0
 35 86  1  0
 35 87  1  0
 36 37  1  0
 36 88  1  0
 36 89  1  0
 37 38  2  0
 37 39  1  0
 39 40  1  0
 39 41  1  0
 39 42  1  0
 40 90  1  0
 40 91  1  0
 40 92  1  0
 41 93  1  0
 41 94  1  0
 41 95  1  0
 42 96  1  1
 43 97  1  0
 43 98  1  0
M  END
>  <i_m_ct_stereo_status>  (418) 
1

>  <s_m_source_file>  (418) 
/var/tmp/pbs.5102103.sched01/tmpeh5ntauu/15412114_vq.sdf

>  <i_m_source_file_index>  (418) 
8

>  <i_lp_mmshare_version>  (418) 
48012

>  <i_f3d_flags>  (418) 
0

>  <s_epik_input>  (418) 
W0NIM11bQ0BASF0xW0NASF0oW09IXSlbQ0BdKFtDSDNdKShbQ0hdPVtDSDJdKVtDQEBIXShDKFtDSDNdKShbQ0gzXSlDKD1PKVtDSDJdW0NIMl0yKVtDQF0yKFtDSDNdKVtDQEhdKFtDQF0xMzQpW0NIMl1bQ0gyXVtDQEhdKFtDSDJdNClbQ0BAXShbQ0gzXSkoW0NASF0oW0NIM10pW0NIMl1bQ0gyXTMpW0NASF0oW0NIM10pT0MoPU8pW0NIMl1TYzVbY0hdW2NIXW5bY0hdW2NIXTU=

>  <s_epik_cmdline>  (418) 
J2VwaWtfcHl0aG9uJywgJy1waHQnLCAnMi4wJywgJy1waCcsICc3LjAnLCAnLXRuJywgJzgnLCAnLW1hJywgJzIwMCcsICctaW1hZScsICc8aW5maWxlLm1hZT4nLCAnLW9tYWUnLCAnPG91dGZpbGUubWFlPic=

>  <r_lp_tautomer_probability>  (418) 
0.99995

>  <r_epik_Ionization_Penalty>  (418) 
0.0112252

>  <r_epik_Ionization_Penalty_Charging>  (418) 
0

>  <r_epik_Ionization_Penalty_Neutral>  (418) 
0.0112252

>  <r_epik_State_Penalty>  (418) 
0.00862692

>  <r_epik_Charging_Adjusted_Penalty>  (418) 
0.00862692

>  <i_epik_Tot_Q>  (418) 
0

>  <i_epik_Tot_abs_Q>  (418) 
0

>  <s_epik_Chemistry_Notes>  (418) 
This compound has an ester and may undergo hydrolysis at high or low pH.

>  <s_lp_Force_Field>  (418) 
OPLS3e

>  <r_lp_Energy>  (418) 
151.487

>  <b_lp_Chiralities_Consistent>  (418) 
1

>  <s_lp_Variant>  (418) 
101:0-1

>  <s_i_glide_gridfile>  (418) 
pfpi4k_grid

>  <i_i_glide_lignum>  (418) 
8

>  <i_i_glide_rotatable_bonds>  (418) 
8

>  <r_i_docking_score>  (418) 
-2.23224

>  <r_i_glide_ligand_efficiency>  (418) 
-0.0519125

>  <r_i_glide_ligand_efficiency_sa>  (418) 
-0.18187

>  <r_i_glide_ligand_efficiency_ln>  (418) 
-0.46884

>  <r_i_glide_gscore>  (418) 
-2.23224

>  <r_i_glide_lipo>  (418) 
-0.123303

>  <r_i_glide_hbond>  (418) 
-0.223163

>  <r_i_glide_metal>  (418) 
-0

>  <r_i_glide_rewards>  (418) 
-0.0442823

>  <r_i_glide_evdw>  (418) 
-33.1483

>  <r_i_glide_ecoul>  (418) 
-2.52937

>  <r_i_glide_erotb>  (418) 
0.215135

>  <r_i_glide_esite>  (418) 
-0.0198066

>  <r_i_glide_emodel>  (418) 
-38.2145

>  <r_i_glide_energy>  (418) 
-35.6777

>  <r_i_glide_einternal>  (418) 
2.12934

>  <r_i_glide_intrahb_reward>  (418) 
-0

>  <i_i_glide_confnum>  (418) 
5

>  <i_i_glide_posenum>  (418) 
14

>  <r_i_glide_eff_state_penalty>  (418) 
0

>  <ligand_id>  (418) 
101

>  <original_smiles>  (418) 
C=CC1(C)C(O)C(C)C23CCC(C)C(C)(C(C)OC(=O)CSc4ccncc4)C(CCC2C2(C)CCC(=O)C(C)(C)C12)C3

>  <smiles>  (418) 
[H]OC1([H])C([H])(C([H])([H])[H])C23C([H])([H])C([H])([H])C([H])(C([H])([H])[H])C(C([H])([H])[H])(C([H])(OC(=O)C([H])([H])Sc4c([H])c([H])nc([H])c4[H])C([H])([H])[H])C([H])(C([H])([H])C([H])([H])C2([H])C2(C([H])([H])[H])C([H])([H])C([H])([H])C(=O)C(C([H])([H])[H])(C([H])([H])[H])C2([H])C1(C([H])=C([H])[H])C([H])([H])[H])C3([H])[H]

$$$$
101:0:2
     RDKit          3D

 98102  0  0  1  0  0  0  0  0999 V2000
    2.5952    5.3027    4.4382 C   0  0  0  0  0  0  0  0  0  0  0  0
    2.6175    4.0744    5.0051 C   0  0  0  0  0  0  0  0  0  0  0  0
    1.8491    2.8086    4.5350 C   0  0  1  0  0  0  0  0  0  0  0  0
    0.9336    3.2146    3.3334 C   0  0  0  0  0  0  0  0  0  0  0  0
    2.9769    1.9202    3.9000 C   0  0  1  0  0  0  0  0  0  0  0  0
    4.1302    1.7516    4.7157 O   0  0  0  0  0  0  0  0  0  0  0  0
    2.5507    0.6169    3.1375 C   0  0  1  0  0  0  0  0  0  0  0  0
    3.3781    0.4622    1.8377 C   0  0  0  0  0  0  0  0  0  0  0  0
    2.3997   -0.6969    3.9972 C   0  0  2  0  0  0  0  0  0  0  0  0
    1.4451   -1.6820    3.2295 C   0  0  0  0  0  0  0  0  0  0  0  0
    0.9120   -2.9709    3.8987 C   0  0  0  0  0  0  0  0  0  0  0  0
    1.8238   -4.1303    4.4032 C   0  0  1  0  0  0  0  0  0  0  0  0
    1.2942   -5.4859    3.8482 C   0  0  0  0  0  0  0  0  0  0  0  0
    3.4053   -3.9967    4.3983 C   0  0  1  0  0  0  0  0  0  0  0  0
    3.9346   -5.0985    5.3765 C   0  0  0  0  0  0  0  0  0  0  0  0
    4.0656   -4.4098    3.0164 C   0  0  2  0  0  0  0  0  0  0  0  0
    5.6292   -4.2595    2.9638 C   0  0  0  0  0  0  0  0  0  0  0  0
    3.4417   -3.7483    1.9034 O   0  0  0  0  0  0  0  0  0  0  0  0
    3.4398   -4.2331    0.6186 C   0  0  0  0  0  0  0  0  0  0  0  0
    2.9246   -3.5690   -0.3060 O   0  0  0  0  0  0  0  0  0  0  0  0
    4.2275   -5.5144    0.2921 C   0  0  0  0  0  0  0  0  0  0  0  0
    3.4246   -6.9554    1.0941 S   0  0  0  0  0  0  0  0  0  0  0  0
    4.6789   -8.0478    1.6662 C   0  0  0  0  0  0  0  0  0  0  0  0
    6.0389   -7.6676    1.8273 C   0  0  0  0  0  0  0  0  0  0  0  0
    6.9711   -8.6533    2.2241 C   0  0  0  0  0  0  0  0  0  0  0  0
    6.6444   -9.9340    2.4516 N   0  0  0  0  0  0  0  0  0  0  0  0
    5.3466  -10.2736    2.3554 C   0  0  0  0  0  0  0  0  0  0  0  0
    4.3246   -9.3842    1.9880 C   0  0  0  0  0  0  0  0  0  0  0  0
    3.9387   -2.6165    4.9291 C   0  0  2  0  0  0  0  0  0  0  0  0
    3.5711   -2.2069    6.3480 C   0  0  0  0  0  0  0  0  0  0  0  0
    2.1980   -1.5400    6.4645 C   0  0  0  0  0  0  0  0  0  0  0  0
    1.9566   -0.3369    5.4855 C   0  0  2  0  0  0  0  0  0  0  0  0
    0.6673    0.5952    5.7710 C   0  0  2  0  0  0  0  0  0  0  0  0
    0.0819    0.0916    7.1364 C   0  0  0  0  0  0  0  0  0  0  0  0
   -0.5163    0.3909    4.7908 C   0  0  0  0  0  0  0  0  0  0  0  0
   -1.7645    1.2656    5.0783 C   0  0  0  0  0  0  0  0  0  0  0  0
   -1.4486    2.7365    5.3459 C   0  0  0  0  0  0  0  0  0  0  0  0
   -2.1839    3.6198    4.8569 O   0  0  0  0  0  0  0  0  0  0  0  0
   -0.2428    3.0970    6.2519 C   0  0  0  0  0  0  0  0  0  0  0  0
   -0.0286    4.6445    6.2425 C   0  0  0  0  0  0  0  0  0  0  0  0
   -0.6851    2.9071    7.7429 C   0  0  0  0  0  0  0  0  0  0  0  0
    1.0237    2.1810    5.8018 C   0  0  2  0  0  0  0  0  0  0  0  0
    3.7920   -1.3961    4.0106 C   0  0  0  0  0  0  0  0  0  0  0  0
    2.0163    5.5384    3.5649 H   0  0  0  0  0  0  0  0  0  0  0  0
    3.1718    6.1145    4.8547 H   0  0  0  0  0  0  0  0  0  0  0  0
    3.2372    3.9448    5.8690 H   0  0  0  0  0  0  0  0  0  0  0  0
    0.2571    2.4429    2.9755 H   0  0  0  0  0  0  0  0  0  0  0  0
    1.5377    3.5063    2.4697 H   0  0  0  0  0  0  0  0  0  0  0  0
    0.2847    4.0663    3.5105 H   0  0  0  0  0  0  0  0  0  0  0  0
    3.3982    2.5587    3.1244 H   0  0  0  0  0  0  0  0  0  0  0  0
    3.9651    1.0896    5.3497 H   0  0  0  0  0  0  0  0  0  0  0  0
    1.5768    0.8092    2.7199 H   0  0  0  0  0  0  0  0  0  0  0  0
    4.4492    0.3789    2.0190 H   0  0  0  0  0  0  0  0  0  0  0  0
    3.2445    1.3367    1.2070 H   0  0  0  0  0  0  0  0  0  0  0  0
    3.0709   -0.3911    1.2308 H   0  0  0  0  0  0  0  0  0  0  0  0
    0.5616   -1.1463    2.9133 H   0  0  0  0  0  0  0  0  0  0  0  0
    1.8773   -1.9389    2.2710 H   0  0  0  0  0  0  0  0  0  0  0  0
    0.2232   -2.7028    4.6922 H   0  0  0  0  0  0  0  0  0  0  0  0
    0.2397   -3.3991    3.1635 H   0  0  0  0  0  0  0  0  0  0  0  0
    1.5676   -4.2122    5.4572 H   0  0  0  0  0  0  0  0  0  0  0  0
    1.4180   -5.5659    2.7679 H   0  0  0  0  0  0  0  0  0  0  0  0
    0.2282   -5.6031    4.0537 H   0  0  0  0  0  0  0  0  0  0  0  0
    1.7751   -6.3551    4.3001 H   0  0  0  0  0  0  0  0  0  0  0  0
    4.9825   -4.9560    5.6286 H   0  0  0  0  0  0  0  0  0  0  0  0
    3.8736   -6.1074    4.9615 H   0  0  0  0  0  0  0  0  0  0  0  0
    3.3998   -5.1347    6.3193 H   0  0  0  0  0  0  0  0  0  0  0  0
    3.7730   -5.4302    2.9558 H   0  0  0  0  0  0  0  0  0  0  0  0
    6.0508   -4.8069    3.8211 H   0  0  0  0  0  0  0  0  0  0  0  0
    5.9118   -3.1951    2.9863 H   0  0  0  0  0  0  0  0  0  0  0  0
    6.0920   -4.6535    2.0988 H   0  0  0  0  0  0  0  0  0  0  0  0
    4.2877   -5.6825   -0.7902 H   0  0  0  0  0  0  0  0  0  0  0  0
    5.2000   -5.4292    0.6427 H   0  0  0  0  0  0  0  0  0  0  0  0
    6.4317   -6.6857    1.6455 H   0  0  0  0  0  0  0  0  0  0  0  0
    8.0277   -8.4062    2.3153 H   0  0  0  0  0  0  0  0  0  0  0  0
    5.0905  -11.3103    2.5251 H   0  0  0  0  0  0  0  0  0  0  0  0
    3.3101   -9.6864    1.8921 H   0  0  0  0  0  0  0  0  0  0  0  0
    5.0125   -2.7771    4.9740 H   0  0  0  0  0  0  0  0  0  0  0  0
    3.6541   -3.0461    7.0361 H   0  0  0  0  0  0  0  0  0  0  0  0
    4.3257   -1.4935    6.6711 H   0  0  0  0  0  0  0  0  0  0  0  0
    1.4193   -2.2940    6.4086 H   0  0  0  0  0  0  0  0  0  0  0  0
    2.1915   -1.1959    7.4987 H   0  0  0  0  0  0  0  0  0  0  0  0
    2.7464    0.2792    5.8953 H   0  0  0  0  0  0  0  0  0  0  0  0
   -0.8972    0.4594    7.3803 H   0  0  0  0  0  0  0  0  0  0  0  0
    0.7224    0.3269    7.9783 H   0  0  0  0  0  0  0  0  0  0  0  0
   -0.1128   -0.9742    7.1394 H   0  0  0  0  0  0  0  0  0  0  0  0
   -0.2347    0.6186    3.7724 H   0  0  0  0  0  0  0  0  0  0  0  0
   -0.8261   -0.6521    4.7772 H   0  0  0  0  0  0  0  0  0  0  0  0
   -2.4595    1.1972    4.2377 H   0  0  0  0  0  0  0  0  0  0  0  0
   -2.3161    0.8802    5.9356 H   0  0  0  0  0  0  0  0  0  0  0  0
    0.7732    4.9381    6.9203 H   0  0  0  0  0  0  0  0  0  0  0  0
   -0.9287    5.1895    6.5411 H   0  0  0  0  0  0  0  0  0  0  0  0
    0.1785    5.0686    5.2721 H   0  0  0  0  0  0  0  0  0  0  0  0
    0.0922    2.4515    8.3459 H   0  0  0  0  0  0  0  0  0  0  0  0
   -1.6052    2.3325    7.8578 H   0  0  0  0  0  0  0  0  0  0  0  0
   -0.9148    3.8429    8.2555 H   0  0  0  0  0  0  0  0  0  0  0  0
    1.7197    2.2709    6.6288 H   0  0  0  0  0  0  0  0  0  0  0  0
    4.1088   -1.6647    3.0070 H   0  0  0  0  0  0  0  0  0  0  0  0
    4.5551   -0.6900    4.3282 H   0  0  0  0  0  0  0  0  0  0  0  0
  1  2  2  0
  1 44  1  0
  1 45  1  0
  2  3  1  0
  2 46  1  0
  3 42  1  0
  3  4  1  6
  3  5  1  0
  4 47  1  0
  4 48  1  0
  4 49  1  0
  5  6  1  0
  5  7  1  0
  5 50  1  6
  6 51  1  0
  7  8  1  0
  7  9  1  0
  7 52  1  6
  8 53  1  0
  8 54  1  0
  8 55  1  0
  9 32  1  0
  9 43  1  0
  9 10  1  6
 10 11  1  0
 10 56  1  0
 10 57  1  0
 11 12  1  0
 11 58  1  0
 11 59  1  0
 12 13  1  0
 12 14  1  0
 12 60  1  1
 13 61  1  0
 13 62  1  0
 13 63  1  0
 14 15  1  1
 14 16  1  0
 14 29  1  0
 15 64  1  0
 15 65  1  0
 15 66  1  0
 16 17  1  0
 16 18  1  0
 16 67  1  6
 17 68  1  0
 17 69  1  0
 17 70  1  0
 18 19  1  0
 19 20  2  0
 19 21  1  0
 21 22  1  0
 21 71  1  0
 21 72  1  0
 22 23  1  0
 23 28  1  0
 23 24  2  0
 24 25  1  0
 24 73  1  0
 25 26  2  0
 25 74  1  0
 26 27  1  0
 27 28  2  0
 27 75  1  0
 28 76  1  0
 29 30  1  0
 29 43  1  0
 29 77  1  1
 30 31  1  0
 30 78  1  0
 30 79  1  0
 31 32  1  0
 31 80  1  0
 31 81  1  0
 32 33  1  0
 32 82  1  1
 33 42  1  0
 33 34  1  1
 33 35  1  0
 34 83  1  0
 34 84  1  0
 34 85  1  0
 35 36  1  0
 35 86  1  0
 35 87  1  0
 36 37  1  0
 36 88  1  0
 36 89  1  0
 37 38  2  0
 37 39  1  0
 39 40  1  0
 39 41  1  0
 39 42  1  0
 40 90  1  0
 40 91  1  0
 40 92  1  0
 41 93  1  0
 41 94  1  0
 41 95  1  0
 42 96  1  1
 43 97  1  0
 43 98  1  0
M  END
>  <i_m_ct_stereo_status>  (419) 
1

>  <s_m_source_file>  (419) 
/var/tmp/pbs.5102103.sched01/tmpeh5ntauu/15412114_vq.sdf

>  <i_m_source_file_index>  (419) 
8

>  <i_lp_mmshare_version>  (419) 
48012

>  <i_f3d_flags>  (419) 
0

>  <s_epik_input>  (419) 
W0NIM11bQ0BASF0xW0NASF0oW09IXSlbQ0BdKFtDSDNdKShbQ0hdPVtDSDJdKVtDQEBIXShDKFtDSDNdKShbQ0gzXSlDKD1PKVtDSDJdW0NIMl0yKVtDQF0yKFtDSDNdKVtDQEhdKFtDQF0xMzQpW0NIMl1bQ0gyXVtDQEhdKFtDSDJdNClbQ0BAXShbQ0gzXSkoW0NASF0oW0NIM10pW0NIMl1bQ0gyXTMpW0NASF0oW0NIM10pT0MoPU8pW0NIMl1TYzVbY0hdW2NIXW5bY0hdW2NIXTU=

>  <s_epik_cmdline>  (419) 
J2VwaWtfcHl0aG9uJywgJy1waHQnLCAnMi4wJywgJy1waCcsICc3LjAnLCAnLXRuJywgJzgnLCAnLW1hJywgJzIwMCcsICctaW1hZScsICc8aW5maWxlLm1hZT4nLCAnLW9tYWUnLCAnPG91dGZpbGUubWFlPic=

>  <r_lp_tautomer_probability>  (419) 
0.99995

>  <r_epik_Ionization_Penalty>  (419) 
0.0112252

>  <r_epik_Ionization_Penalty_Charging>  (419) 
0

>  <r_epik_Ionization_Penalty_Neutral>  (419) 
0.0112252

>  <r_epik_State_Penalty>  (419) 
0.00862692

>  <r_epik_Charging_Adjusted_Penalty>  (419) 
0.00862692

>  <i_epik_Tot_Q>  (419) 
0

>  <i_epik_Tot_abs_Q>  (419) 
0

>  <s_epik_Chemistry_Notes>  (419) 
This compound has an ester and may undergo hydrolysis at high or low pH.

>  <s_lp_Force_Field>  (419) 
OPLS3e

>  <r_lp_Energy>  (419) 
151.487

>  <b_lp_Chiralities_Consistent>  (419) 
1

>  <s_lp_Variant>  (419) 
101:0-1

>  <s_i_glide_gridfile>  (419) 
pfpi4k_grid

>  <i_i_glide_lignum>  (419) 
8

>  <i_i_glide_rotatable_bonds>  (419) 
8

>  <r_i_docking_score>  (419) 
-1.95273

>  <r_i_glide_ligand_efficiency>  (419) 
-0.0454123

>  <r_i_glide_ligand_efficiency_sa>  (419) 
-0.159097

>  <r_i_glide_ligand_efficiency_ln>  (419) 
-0.410133

>  <r_i_glide_gscore>  (419) 
-1.95273

>  <r_i_glide_lipo>  (419) 
-0.426537

>  <r_i_glide_hbond>  (419) 
0

>  <r_i_glide_metal>  (419) 
-0

>  <r_i_glide_rewards>  (419) 
-0.020309

>  <r_i_glide_evdw>  (419) 
-28.6208

>  <r_i_glide_ecoul>  (419) 
-1.90669

>  <r_i_glide_erotb>  (419) 
0.215135

>  <r_i_glide_esite>  (419) 
-0.00397383

>  <r_i_glide_emodel>  (419) 
-30.0364

>  <r_i_glide_energy>  (419) 
-30.5275

>  <r_i_glide_einternal>  (419) 
6.53135

>  <r_i_glide_intrahb_reward>  (419) 
-0

>  <i_i_glide_confnum>  (419) 
6

>  <i_i_glide_posenum>  (419) 
39

>  <r_i_glide_eff_state_penalty>  (419) 
0

>  <ligand_id>  (419) 
101

>  <original_smiles>  (419) 
C=CC1(C)C(O)C(C)C23CCC(C)C(C)(C(C)OC(=O)CSc4ccncc4)C(CCC2C2(C)CCC(=O)C(C)(C)C12)C3

>  <smiles>  (419) 
[H]OC1([H])C([H])(C([H])([H])[H])C23C([H])([H])C([H])([H])C([H])(C([H])([H])[H])C(C([H])([H])[H])(C([H])(OC(=O)C([H])([H])Sc4c([H])c([H])nc([H])c4[H])C([H])([H])[H])C([H])(C([H])([H])C([H])([H])C2([H])C2(C([H])([H])[H])C([H])([H])C([H])([H])C(=O)C(C([H])([H])[H])(C([H])([H])[H])C2([H])C1(C([H])=C([H])[H])C([H])([H])[H])C3([H])[H]

$$$$
101:1:0
     RDKit          3D

 99103  0  0  1  0  0  0  0  0999 V2000
    2.8923    5.1677    4.3426 C   0  0  0  0  0  0  0  0  0  0  0  0
    2.6543    3.9780    4.9416 C   0  0  0  0  0  0  0  0  0  0  0  0
    1.9434    2.7374    4.3512 C   0  0  1  0  0  0  0  0  0  0  0  0
    1.4423    3.0972    2.9141 C   0  0  0  0  0  0  0  0  0  0  0  0
    3.1336    1.7385    4.1140 C   0  0  1  0  0  0  0  0  0  0  0  0
    4.0116    1.5725    5.2169 O   0  0  0  0  0  0  0  0  0  0  0  0
    2.8402    0.4102    3.3465 C   0  0  1  0  0  0  0  0  0  0  0  0
    3.9900    0.1234    2.3458 C   0  0  0  0  0  0  0  0  0  0  0  0
    2.3657   -0.8227    4.2058 C   0  0  2  0  0  0  0  0  0  0  0  0
    1.5913   -1.7986    3.2582 C   0  0  0  0  0  0  0  0  0  0  0  0
    0.8061   -3.0125    3.8107 C   0  0  0  0  0  0  0  0  0  0  0  0
    1.4446   -4.1933    4.6124 C   0  0  1  0  0  0  0  0  0  0  0  0
    0.9748   -5.5431    4.0109 C   0  0  0  0  0  0  0  0  0  0  0  0
    2.9649   -4.1715    5.0174 C   0  0  1  0  0  0  0  0  0  0  0  0
    3.1298   -5.2032    6.1774 C   0  0  0  0  0  0  0  0  0  0  0  0
    3.8915   -4.7202    3.8641 C   0  0  2  0  0  0  0  0  0  0  0  0
    5.4136   -4.6084    4.1093 C   0  0  0  0  0  0  0  0  0  0  0  0
    3.5950   -4.1087    2.6164 O   0  0  0  0  0  0  0  0  0  0  0  0
    3.7467   -4.7669    1.4566 C   0  0  0  0  0  0  0  0  0  0  0  0
    4.2242   -5.8929    1.3134 O   0  0  0  0  0  0  0  0  0  0  0  0
    3.2063   -3.9843    0.2680 C   0  0  0  0  0  0  0  0  0  0  0  0
    4.3646   -2.6794   -0.2587 S   0  0  0  0  0  0  0  0  0  0  0  0
    3.8223   -2.0945   -1.8319 C   0  0  0  0  0  0  0  0  0  0  0  0
    4.2250   -0.8275   -2.2866 C   0  0  0  0  0  0  0  0  0  0  0  0
    3.7923   -0.3782   -3.5559 C   0  0  0  0  0  0  0  0  0  0  0  0
    3.0149   -1.1871   -4.3141 N   0  0  0  0  0  0  0  0  0  0  0  0
    2.6120   -2.4056   -3.9103 C   0  0  0  0  0  0  0  0  0  0  0  0
    3.0066   -2.8901   -2.6564 C   0  0  0  0  0  0  0  0  0  0  0  0
    3.4348   -2.7819    5.6000 C   0  0  2  0  0  0  0  0  0  0  0  0
    2.7179   -2.2341    6.8440 C   0  0  0  0  0  0  0  0  0  0  0  0
    1.4269   -1.4702    6.5490 C   0  0  0  0  0  0  0  0  0  0  0  0
    1.5619   -0.3265    5.4870 C   0  0  2  0  0  0  0  0  0  0  0  0
    0.3202    0.7007    5.3286 C   0  0  2  0  0  0  0  0  0  0  0  0
   -0.6570    0.3376    6.4995 C   0  0  0  0  0  0  0  0  0  0  0  0
   -0.5636    0.4889    4.0699 C   0  0  0  0  0  0  0  0  0  0  0  0
   -1.7617    1.4538    3.9337 C   0  0  0  0  0  0  0  0  0  0  0  0
   -1.4405    2.9258    4.2076 C   0  0  0  0  0  0  0  0  0  0  0  0
   -1.9646    3.8091    3.5249 O   0  0  0  0  0  0  0  0  0  0  0  0
   -0.5074    3.2732    5.3935 C   0  0  0  0  0  0  0  0  0  0  0  0
   -0.1699    4.7981    5.3529 C   0  0  0  0  0  0  0  0  0  0  0  0
   -1.3551    3.2259    6.7044 C   0  0  0  0  0  0  0  0  0  0  0  0
    0.7636    2.2645    5.3694 C   0  0  2  0  0  0  0  0  0  0  0  0
    3.6363   -1.6101    4.6319 C   0  0  0  0  0  0  0  0  0  0  0  0
    2.5921    5.3729    3.3238 H   0  0  0  0  0  0  0  0  0  0  0  0
    3.3985    5.9669    4.8658 H   0  0  0  0  0  0  0  0  0  0  0  0
    2.9992    3.8669    5.9614 H   0  0  0  0  0  0  0  0  0  0  0  0
    0.8462    2.3406    2.4214 H   0  0  0  0  0  0  0  0  0  0  0  0
    2.2703    3.2998    2.2340 H   0  0  0  0  0  0  0  0  0  0  0  0
    0.8279    3.9847    2.8820 H   0  0  0  0  0  0  0  0  0  0  0  0
    3.7968    2.2930    3.4483 H   0  0  0  0  0  0  0  0  0  0  0  0
    4.7746    1.1036    4.9093 H   0  0  0  0  0  0  0  0  0  0  0  0
    2.0349    0.6186    2.6573 H   0  0  0  0  0  0  0  0  0  0  0  0
    4.9567   -0.0006    2.8339 H   0  0  0  0  0  0  0  0  0  0  0  0
    4.0854    0.9363    1.6253 H   0  0  0  0  0  0  0  0  0  0  0  0
    3.7939   -0.7660    1.7550 H   0  0  0  0  0  0  0  0  0  0  0  0
    0.8715   -1.2443    2.6638 H   0  0  0  0  0  0  0  0  0  0  0  0
    2.2590   -2.1499    2.4786 H   0  0  0  0  0  0  0  0  0  0  0  0
   -0.0665   -2.6467    4.3489 H   0  0  0  0  0  0  0  0  0  0  0  0
    0.3693   -3.4514    2.9195 H   0  0  0  0  0  0  0  0  0  0  0  0
    0.9100   -4.1630    5.5605 H   0  0  0  0  0  0  0  0  0  0  0  0
    1.3842   -5.7161    3.0162 H   0  0  0  0  0  0  0  0  0  0  0  0
   -0.1110   -5.5720    3.9262 H   0  0  0  0  0  0  0  0  0  0  0  0
    1.2489   -6.3949    4.6305 H   0  0  0  0  0  0  0  0  0  0  0  0
    4.0839   -5.0932    6.6938 H   0  0  0  0  0  0  0  0  0  0  0  0
    3.0923   -6.2354    5.8289 H   0  0  0  0  0  0  0  0  0  0  0  0
    2.3518   -5.1100    6.9358 H   0  0  0  0  0  0  0  0  0  0  0  0
    3.6736   -5.7860    3.7614 H   0  0  0  0  0  0  0  0  0  0  0  0
    5.7053   -5.0142    5.0769 H   0  0  0  0  0  0  0  0  0  0  0  0
    5.7571   -3.5761    4.0601 H   0  0  0  0  0  0  0  0  0  0  0  0
    5.9692   -5.1623    3.3515 H   0  0  0  0  0  0  0  0  0  0  0  0
    3.0467   -4.7114   -0.5254 H   0  0  0  0  0  0  0  0  0  0  0  0
    2.2423   -3.5427    0.5254 H   0  0  0  0  0  0  0  0  0  0  0  0
    4.8358   -0.2005   -1.6607 H   0  0  0  0  0  0  0  0  0  0  0  0
    4.0325    0.5875   -3.9743 H   0  0  0  0  0  0  0  0  0  0  0  0
    1.9827   -2.9701   -4.5815 H   0  0  0  0  0  0  0  0  0  0  0  0
    2.6588   -3.8585   -2.3663 H   0  0  0  0  0  0  0  0  0  0  0  0
    4.4385   -2.9878    5.9672 H   0  0  0  0  0  0  0  0  0  0  0  0
    2.5291   -3.0092    7.5814 H   0  0  0  0  0  0  0  0  0  0  0  0
    3.3993   -1.5381    7.3348 H   0  0  0  0  0  0  0  0  0  0  0  0
    0.6382   -2.1674    6.3072 H   0  0  0  0  0  0  0  0  0  0  0  0
    1.1519   -1.0541    7.5165 H   0  0  0  0  0  0  0  0  0  0  0  0
    2.2502    0.2799    6.0602 H   0  0  0  0  0  0  0  0  0  0  0  0
   -1.6395    0.7823    6.4300 H   0  0  0  0  0  0  0  0  0  0  0  0
   -0.2441    0.5985    7.4765 H   0  0  0  0  0  0  0  0  0  0  0  0
   -0.9235   -0.7200    6.4963 H   0  0  0  0  0  0  0  0  0  0  0  0
    0.0042    0.6082    3.1621 H   0  0  0  0  0  0  0  0  0  0  0  0
   -0.9407   -0.5347    4.0396 H   0  0  0  0  0  0  0  0  0  0  0  0
   -2.1648    1.3688    2.9260 H   0  0  0  0  0  0  0  0  0  0  0  0
   -2.5701    1.1661    4.5999 H   0  0  0  0  0  0  0  0  0  0  0  0
    0.4314    5.0954    6.2161 H   0  0  0  0  0  0  0  0  0  0  0  0
   -1.0783    5.3993    5.3794 H   0  0  0  0  0  0  0  0  0  0  0  0
    0.3122    5.1385    4.4464 H   0  0  0  0  0  0  0  0  0  0  0  0
   -0.8084    2.7775    7.5300 H   0  0  0  0  0  0  0  0  0  0  0  0
   -2.3106    2.7187    6.5768 H   0  0  0  0  0  0  0  0  0  0  0  0
   -1.6477    4.2095    7.0718 H   0  0  0  0  0  0  0  0  0  0  0  0
    1.2219    2.3802    6.3534 H   0  0  0  0  0  0  0  0  0  0  0  0
    4.1770   -1.9742    3.7646 H   0  0  0  0  0  0  0  0  0  0  0  0
    4.3272   -0.9274    5.1189 H   0  0  0  0  0  0  0  0  0  0  0  0
    2.6788   -0.8584   -5.2182 H   0  0  0  0  0  0  0  0  0  0  0  0
  1  2  2  0
  1 44  1  0
  1 45  1  0
  2  3  1  0
  2 46  1  0
  3 42  1  0
  3  4  1  6
  3  5  1  0
  4 47  1  0
  4 48  1  0
  4 49  1  0
  5  6  1  0
  5  7  1  0
  5 50  1  6
  6 51  1  0
  7  8  1  0
  7  9  1  0
  7 52  1  6
  8 53  1  0
  8 54  1  0
  8 55  1  0
  9 32  1  0
  9 43  1  0
  9 10  1  6
 10 11  1  0
 10 56  1  0
 10 57  1  0
 11 12  1  0
 11 58  1  0
 11 59  1  0
 12 13  1  0
 12 14  1  0
 12 60  1  1
 13 61  1  0
 13 62  1  0
 13 63  1  0
 14 15  1  1
 14 16  1  0
 14 29  1  0
 15 64  1  0
 15 65  1  0
 15 66  1  0
 16 17  1  0
 16 18  1  0
 16 67  1  6
 17 68  1  0
 17 69  1  0
 17 70  1  0
 18 19  1  0
 19 20  2  0
 19 21  1  0
 21 22  1  0
 21 71  1  0
 21 72  1  0
 22 23  1  0
 23 28  1  0
 23 24  2  0
 24 25  1  0
 24 73  1  0
 25 26  2  0
 25 74  1  0
 26 27  1  0
 26 99  1  0
 27 28  2  0
 27 75  1  0
 28 76  1  0
 29 30  1  0
 29 43  1  0
 29 77  1  1
 30 31  1  0
 30 78  1  0
 30 79  1  0
 31 32  1  0
 31 80  1  0
 31 81  1  0
 32 33  1  0
 32 82  1  1
 33 42  1  0
 33 34  1  1
 33 35  1  0
 34 83  1  0
 34 84  1  0
 34 85  1  0
 35 36  1  0
 35 86  1  0
 35 87  1  0
 36 37  1  0
 36 88  1  0
 36 89  1  0
 37 38  2  0
 37 39  1  0
 39 40  1  0
 39 41  1  0
 39 42  1  0
 40 90  1  0
 40 91  1  0
 40 92  1  0
 41 93  1  0
 41 94  1  0
 41 95  1  0
 42 96  1  1
 43 97  1  0
 43 98  1  0
M  CHG  1  26   1
M  END
>  <i_m_ct_stereo_status>  (420) 
1

>  <s_m_source_file>  (420) 
/var/tmp/pbs.5102103.sched01/tmpeh5ntauu/15412114_vq.sdf

>  <i_m_source_file_index>  (420) 
9

>  <i_lp_mmshare_version>  (420) 
48012

>  <i_f3d_flags>  (420) 
0

>  <s_epik_input>  (420) 
W0NIM11bQ0BASF0xW0NASF0oW09IXSlbQ0BdKFtDSDNdKShbQ0hdPVtDSDJdKVtDQEBIXShDKFtDSDNdKShbQ0gzXSlDKD1PKVtDSDJdW0NIMl0yKVtDQF0yKFtDSDNdKVtDQEhdKFtDQF0xMzQpW0NIMl1bQ0gyXVtDQEhdKFtDSDJdNClbQ0BAXShbQ0gzXSkoW0NASF0oW0NIM10pW0NIMl1bQ0gyXTMpW0NASF0oW0NIM10pT0MoPU8pW0NIMl1TYzVbY0hdW2NIXW5bY0hdW2NIXTU=

>  <s_epik_cmdline>  (420) 
J2VwaWtfcHl0aG9uJywgJy1waHQnLCAnMi4wJywgJy1waCcsICc3LjAnLCAnLXRuJywgJzgnLCAnLW1hJywgJzIwMCcsICctaW1hZScsICc8aW5maWxlLm1hZT4nLCAnLW9tYWUnLCAnPG91dGZpbGUubWFlPic=

>  <r_lp_tautomer_probability>  (420) 
0.99995

>  <r_epik_Ionization_Penalty>  (420) 
2.35553

>  <r_epik_Ionization_Penalty_Charging>  (420) 
2.35553

>  <r_epik_Ionization_Penalty_Neutral>  (420) 
6.44378e-07

>  <r_epik_State_Penalty>  (420) 
2.51019

>  <r_epik_Charging_Adjusted_Penalty>  (420) 
4.86572

>  <i_epik_Tot_Q>  (420) 
1

>  <i_epik_Tot_abs_Q>  (420) 
1

>  <s_epik_Chemistry_Notes>  (420) 
This compound has an ester and may undergo hydrolysis at high or low pH.

>  <s_lp_Force_Field>  (420) 
OPLS3e

>  <r_lp_Energy>  (420) 
156.567

>  <b_lp_Chiralities_Consistent>  (420) 
1

>  <s_lp_Variant>  (420) 
101:0-2

>  <s_i_glide_gridfile>  (420) 
pfpi4k_grid

>  <i_i_glide_lignum>  (420) 
9

>  <i_i_glide_rotatable_bonds>  (420) 
8

>  <r_i_docking_score>  (420) 
-3.28062

>  <r_i_glide_ligand_efficiency>  (420) 
-0.0762935

>  <r_i_glide_ligand_efficiency_sa>  (420) 
-0.267286

>  <r_i_glide_ligand_efficiency_ln>  (420) 
-0.689032

>  <r_i_glide_gscore>  (420) 
-3.28062

>  <r_i_glide_lipo>  (420) 
-0.498694

>  <r_i_glide_hbond>  (420) 
0

>  <r_i_glide_metal>  (420) 
-0

>  <r_i_glide_rewards>  (420) 
-0.0169296

>  <r_i_glide_evdw>  (420) 
-33.7307

>  <r_i_glide_ecoul>  (420) 
-8.39132

>  <r_i_glide_erotb>  (420) 
0.213339

>  <r_i_glide_esite>  (420) 
-0.0331012

>  <r_i_glide_emodel>  (420) 
-51.6504

>  <r_i_glide_energy>  (420) 
-42.122

>  <r_i_glide_einternal>  (420) 
1.71964

>  <r_i_glide_intrahb_reward>  (420) 
-0

>  <i_i_glide_confnum>  (420) 
1

>  <i_i_glide_posenum>  (420) 
2

>  <r_i_glide_eff_state_penalty>  (420) 
0

>  <ligand_id>  (420) 
101

>  <original_smiles>  (420) 
C=CC1(C)C(O)C(C)C23CCC(C)C(C)(C(C)OC(=O)CSc4ccncc4)C(CCC2C2(C)CCC(=O)C(C)(C)C12)C3

>  <smiles>  (420) 
[H]OC1([H])C([H])(C([H])([H])[H])C23C([H])([H])C([H])([H])C([H])(C([H])([H])[H])C(C([H])([H])[H])(C([H])(OC(=O)C([H])([H])Sc4c([H])c([H])[n+]([H])c([H])c4[H])C([H])([H])[H])C([H])(C([H])([H])C([H])([H])C2([H])C2(C([H])([H])[H])C([H])([H])C([H])([H])C(=O)C(C([H])([H])[H])(C([H])([H])[H])C2([H])C1(C([H])=C([H])[H])C([H])([H])[H])C3([H])[H]

$$$$
101:1:1
     RDKit          3D

 99103  0  0  1  0  0  0  0  0999 V2000
    3.2033    4.1118    4.1843 C   0  0  0  0  0  0  0  0  0  0  0  0
    2.9622    2.9206    4.7759 C   0  0  0  0  0  0  0  0  0  0  0  0
    2.3017    1.6682    4.1573 C   0  0  1  0  0  0  0  0  0  0  0  0
    1.8133    2.0347    2.7085 C   0  0  0  0  0  0  0  0  0  0  0  0
    3.5279    0.7255    3.9412 C   0  0  1  0  0  0  0  0  0  0  0  0
    4.4016    0.5760    5.0467 O   0  0  0  0  0  0  0  0  0  0  0  0
    3.2976   -0.5874    3.1476 C   0  0  1  0  0  0  0  0  0  0  0  0
    4.4814   -0.8190    2.1700 C   0  0  0  0  0  0  0  0  0  0  0  0
    2.8574   -1.8728    3.9388 C   0  0  2  0  0  0  0  0  0  0  0  0
    2.1285   -2.8614    2.9583 C   0  0  0  0  0  0  0  0  0  0  0  0
    1.3787   -4.1186    3.4667 C   0  0  0  0  0  0  0  0  0  0  0  0
    2.0450   -5.2880    4.2588 C   0  0  1  0  0  0  0  0  0  0  0  0
    1.6312   -6.6427    3.6258 C   0  0  0  0  0  0  0  0  0  0  0  0
    3.5556   -5.2275    4.6895 C   0  0  1  0  0  0  0  0  0  0  0  0
    3.7311   -6.2747    5.8360 C   0  0  0  0  0  0  0  0  0  0  0  0
    4.5161   -5.7290    3.5359 C   0  0  2  0  0  0  0  0  0  0  0  0
    6.0295   -5.6749    3.8793 C   0  0  0  0  0  0  0  0  0  0  0  0
    4.2375   -5.0648    2.2979 O   0  0  0  0  0  0  0  0  0  0  0  0
    4.6280   -5.5659    1.1004 C   0  0  0  0  0  0  0  0  0  0  0  0
    5.3953   -6.5037    0.9203 O   0  0  0  0  0  0  0  0  0  0  0  0
    4.0280   -4.8205   -0.0776 C   0  0  0  0  0  0  0  0  0  0  0  0
    4.8187   -3.1657   -0.2594 S   0  0  0  0  0  0  0  0  0  0  0  0
    4.0248   -2.3798   -1.6503 C   0  0  0  0  0  0  0  0  0  0  0  0
    3.0751   -3.0600   -2.4791 C   0  0  0  0  0  0  0  0  0  0  0  0
    2.6172   -2.4158   -3.6423 C   0  0  0  0  0  0  0  0  0  0  0  0
    3.0115   -1.1646   -3.9333 N   0  0  0  0  0  0  0  0  0  0  0  0
    3.8388   -0.4552   -3.1341 C   0  0  0  0  0  0  0  0  0  0  0  0
    4.3505   -1.0590   -1.9728 C   0  0  0  0  0  0  0  0  0  0  0  0
    3.9716   -3.8357    5.3105 C   0  0  2  0  0  0  0  0  0  0  0  0
    3.2141   -3.3357    6.5531 C   0  0  0  0  0  0  0  0  0  0  0  0
    1.8998   -2.6121    6.2519 C   0  0  0  0  0  0  0  0  0  0  0  0
    2.0099   -1.4385    5.2127 C   0  0  2  0  0  0  0  0  0  0  0  0
    0.7354   -0.4511    5.0618 C   0  0  2  0  0  0  0  0  0  0  0  0
   -0.2402   -0.8712    6.2052 C   0  0  0  0  0  0  0  0  0  0  0  0
   -0.1183   -0.6698    3.7819 C   0  0  0  0  0  0  0  0  0  0  0  0
   -1.3557    0.2465    3.6599 C   0  0  0  0  0  0  0  0  0  0  0  0
   -1.0718    1.7278    3.9474 C   0  0  0  0  0  0  0  0  0  0  0  0
   -1.5982    2.5977    3.2499 O   0  0  0  0  0  0  0  0  0  0  0  0
   -0.1729    2.0938    5.1612 C   0  0  0  0  0  0  0  0  0  0  0  0
    0.1033    3.6284    5.1525 C   0  0  0  0  0  0  0  0  0  0  0  0
   -1.0393    1.9889    6.4527 C   0  0  0  0  0  0  0  0  0  0  0  0
    1.1258    1.1270    5.1393 C   0  0  2  0  0  0  0  0  0  0  0  0
    4.1518   -2.6311    4.3742 C   0  0  0  0  0  0  0  0  0  0  0  0
    2.9548    4.3060    3.1540 H   0  0  0  0  0  0  0  0  0  0  0  0
    3.6749    4.9159    4.7262 H   0  0  0  0  0  0  0  0  0  0  0  0
    3.2680    2.8089    5.8092 H   0  0  0  0  0  0  0  0  0  0  0  0
    1.2554    1.2613    2.1901 H   0  0  0  0  0  0  0  0  0  0  0  0
    2.6633    2.2655    2.0646 H   0  0  0  0  0  0  0  0  0  0  0  0
    1.1739    2.9067    2.6510 H   0  0  0  0  0  0  0  0  0  0  0  0
    4.1787    1.3193    3.3017 H   0  0  0  0  0  0  0  0  0  0  0  0
    3.9877    0.0140    5.6881 H   0  0  0  0  0  0  0  0  0  0  0  0
    2.5131   -0.4023    2.4310 H   0  0  0  0  0  0  0  0  0  0  0  0
    5.4550   -0.8888    2.6965 H   0  0  0  0  0  0  0  0  0  0  0  0
    4.5806    0.0321    1.4725 H   0  0  0  0  0  0  0  0  0  0  0  0
    4.2790   -1.7171    1.5904 H   0  0  0  0  0  0  0  0  0  0  0  0
    1.4013   -2.3159    2.3676 H   0  0  0  0  0  0  0  0  0  0  0  0
    2.8155   -3.1759    2.1809 H   0  0  0  0  0  0  0  0  0  0  0  0
    0.4890   -3.7957    4.0038 H   0  0  0  0  0  0  0  0  0  0  0  0
    0.9618   -4.5680    2.5680 H   0  0  0  0  0  0  0  0  0  0  0  0
    1.4952   -5.2967    5.1988 H   0  0  0  0  0  0  0  0  0  0  0  0
    2.0649   -6.7810    2.6355 H   0  0  0  0  0  0  0  0  0  0  0  0
    0.5487   -6.7072    3.5163 H   0  0  0  0  0  0  0  0  0  0  0  0
    1.9196   -7.4983    4.2342 H   0  0  0  0  0  0  0  0  0  0  0  0
    4.6658   -6.1440    6.3816 H   0  0  0  0  0  0  0  0  0  0  0  0
    3.7395   -7.2996    5.4665 H   0  0  0  0  0  0  0  0  0  0  0  0
    2.9368   -6.2256    6.5808 H   0  0  0  0  0  0  0  0  0  0  0  0
    4.2909   -6.7827    3.3609 H   0  0  0  0  0  0  0  0  0  0  0  0
    6.2673   -6.1571    4.8294 H   0  0  0  0  0  0  0  0  0  0  0  0
    6.3784   -4.6595    3.9260 H   0  0  0  0  0  0  0  0  0  0  0  0
    6.6347   -6.1902    3.1331 H   0  0  0  0  0  0  0  0  0  0  0  0
    4.1971   -5.4281   -0.9760 H   0  0  0  0  0  0  0  0  0  0  0  0
    2.9452   -4.7508    0.0731 H   0  0  0  0  0  0  0  0  0  0  0  0
    2.7147   -4.0370   -2.2417 H   0  0  0  0  0  0  0  0  0  0  0  0
    1.9079   -2.8684   -4.3229 H   0  0  0  0  0  0  0  0  0  0  0  0
    4.0744    0.5506   -3.4495 H   0  0  0  0  0  0  0  0  0  0  0  0
    5.0166   -0.5061   -1.3147 H   0  0  0  0  0  0  0  0  0  0  0  0
    4.9745   -4.0170    5.6879 H   0  0  0  0  0  0  0  0  0  0  0  0
    3.0421   -4.1322    7.2713 H   0  0  0  0  0  0  0  0  0  0  0  0
    3.8647   -2.6282    7.0702 H   0  0  0  0  0  0  0  0  0  0  0  0
    1.1398   -3.3344    5.9852 H   0  0  0  0  0  0  0  0  0  0  0  0
    1.5957   -2.2237    7.2268 H   0  0  0  0  0  0  0  0  0  0  0  0
    2.6632   -0.8257    5.8242 H   0  0  0  0  0  0  0  0  0  0  0  0
   -1.2291   -0.4637    6.1283 H   0  0  0  0  0  0  0  0  0  0  0  0
    0.1462   -0.6152    7.1885 H   0  0  0  0  0  0  0  0  0  0  0  0
   -0.4725   -1.9352    6.1847 H   0  0  0  0  0  0  0  0  0  0  0  0
    0.4548   -0.5048    2.8854 H   0  0  0  0  0  0  0  0  0  0  0  0
   -0.4505   -1.7097    3.7250 H   0  0  0  0  0  0  0  0  0  0  0  0
   -1.7698    0.1788    2.6567 H   0  0  0  0  0  0  0  0  0  0  0  0
   -2.1555   -0.0675    4.3237 H   0  0  0  0  0  0  0  0  0  0  0  0
    0.6804    3.9260    6.0290 H   0  0  0  0  0  0  0  0  0  0  0  0
   -0.8265    4.2032    5.1635 H   0  0  0  0  0  0  0  0  0  0  0  0
    0.5955    3.9975    4.2695 H   0  0  0  0  0  0  0  0  0  0  0  0
   -0.4904    1.5438    7.2762 H   0  0  0  0  0  0  0  0  0  0  0  0
   -1.9724    1.4526    6.3002 H   0  0  0  0  0  0  0  0  0  0  0  0
   -1.3701    2.9577    6.8323 H   0  0  0  0  0  0  0  0  0  0  0  0
    1.5652    1.2401    6.1289 H   0  0  0  0  0  0  0  0  0  0  0  0
    4.7258   -2.9550    3.5138 H   0  0  0  0  0  0  0  0  0  0  0  0
    4.8117   -1.9345    4.8853 H   0  0  0  0  0  0  0  0  0  0  0  0
    2.6429   -0.7167   -4.7826 H   0  0  0  0  0  0  0  0  0  0  0  0
  1  2  2  0
  1 44  1  0
  1 45  1  0
  2  3  1  0
  2 46  1  0
  3 42  1  0
  3  4  1  6
  3  5  1  0
  4 47  1  0
  4 48  1  0
  4 49  1  0
  5  6  1  0
  5  7  1  0
  5 50  1  6
  6 51  1  0
  7  8  1  0
  7  9  1  0
  7 52  1  6
  8 53  1  0
  8 54  1  0
  8 55  1  0
  9 32  1  0
  9 43  1  0
  9 10  1  6
 10 11  1  0
 10 56  1  0
 10 57  1  0
 11 12  1  0
 11 58  1  0
 11 59  1  0
 12 13  1  0
 12 14  1  0
 12 60  1  1
 13 61  1  0
 13 62  1  0
 13 63  1  0
 14 15  1  1
 14 16  1  0
 14 29  1  0
 15 64  1  0
 15 65  1  0
 15 66  1  0
 16 17  1  0
 16 18  1  0
 16 67  1  6
 17 68  1  0
 17 69  1  0
 17 70  1  0
 18 19  1  0
 19 20  2  0
 19 21  1  0
 21 22  1  0
 21 71  1  0
 21 72  1  0
 22 23  1  0
 23 28  1  0
 23 24  2  0
 24 25  1  0
 24 73  1  0
 25 26  2  0
 25 74  1  0
 26 27  1  0
 26 99  1  0
 27 28  2  0
 27 75  1  0
 28 76  1  0
 29 30  1  0
 29 43  1  0
 29 77  1  1
 30 31  1  0
 30 78  1  0
 30 79  1  0
 31 32  1  0
 31 80  1  0
 31 81  1  0
 32 33  1  0
 32 82  1  1
 33 42  1  0
 33 34  1  1
 33 35  1  0
 34 83  1  0
 34 84  1  0
 34 85  1  0
 35 36  1  0
 35 86  1  0
 35 87  1  0
 36 37  1  0
 36 88  1  0
 36 89  1  0
 37 38  2  0
 37 39  1  0
 39 40  1  0
 39 41  1  0
 39 42  1  0
 40 90  1  0
 40 91  1  0
 40 92  1  0
 41 93  1  0
 41 94  1  0
 41 95  1  0
 42 96  1  1
 43 97  1  0
 43 98  1  0
M  CHG  1  26   1
M  END
>  <i_m_ct_stereo_status>  (421) 
1

>  <s_m_source_file>  (421) 
/var/tmp/pbs.5102103.sched01/tmpeh5ntauu/15412114_vq.sdf

>  <i_m_source_file_index>  (421) 
9

>  <i_lp_mmshare_version>  (421) 
48012

>  <i_f3d_flags>  (421) 
0

>  <s_epik_input>  (421) 
W0NIM11bQ0BASF0xW0NASF0oW09IXSlbQ0BdKFtDSDNdKShbQ0hdPVtDSDJdKVtDQEBIXShDKFtDSDNdKShbQ0gzXSlDKD1PKVtDSDJdW0NIMl0yKVtDQF0yKFtDSDNdKVtDQEhdKFtDQF0xMzQpW0NIMl1bQ0gyXVtDQEhdKFtDSDJdNClbQ0BAXShbQ0gzXSkoW0NASF0oW0NIM10pW0NIMl1bQ0gyXTMpW0NASF0oW0NIM10pT0MoPU8pW0NIMl1TYzVbY0hdW2NIXW5bY0hdW2NIXTU=

>  <s_epik_cmdline>  (421) 
J2VwaWtfcHl0aG9uJywgJy1waHQnLCAnMi4wJywgJy1waCcsICc3LjAnLCAnLXRuJywgJzgnLCAnLW1hJywgJzIwMCcsICctaW1hZScsICc8aW5maWxlLm1hZT4nLCAnLW9tYWUnLCAnPG91dGZpbGUubWFlPic=

>  <r_lp_tautomer_probability>  (421) 
0.99995

>  <r_epik_Ionization_Penalty>  (421) 
2.35553

>  <r_epik_Ionization_Penalty_Charging>  (421) 
2.35553

>  <r_epik_Ionization_Penalty_Neutral>  (421) 
6.44378e-07

>  <r_epik_State_Penalty>  (421) 
2.51019

>  <r_epik_Charging_Adjusted_Penalty>  (421) 
4.86572

>  <i_epik_Tot_Q>  (421) 
1

>  <i_epik_Tot_abs_Q>  (421) 
1

>  <s_epik_Chemistry_Notes>  (421) 
This compound has an ester and may undergo hydrolysis at high or low pH.

>  <s_lp_Force_Field>  (421) 
OPLS3e

>  <r_lp_Energy>  (421) 
156.567

>  <b_lp_Chiralities_Consistent>  (421) 
1

>  <s_lp_Variant>  (421) 
101:0-2

>  <s_i_glide_gridfile>  (421) 
pfpi4k_grid

>  <i_i_glide_lignum>  (421) 
9

>  <i_i_glide_rotatable_bonds>  (421) 
8

>  <r_i_docking_score>  (421) 
-3.21962

>  <r_i_glide_ligand_efficiency>  (421) 
-0.0748749

>  <r_i_glide_ligand_efficiency_sa>  (421) 
-0.262317

>  <r_i_glide_ligand_efficiency_ln>  (421) 
-0.676221

>  <r_i_glide_gscore>  (421) 
-3.21962

>  <r_i_glide_lipo>  (421) 
-0.555922

>  <r_i_glide_hbond>  (421) 
0

>  <r_i_glide_metal>  (421) 
-0

>  <r_i_glide_rewards>  (421) 
-0.0782332

>  <r_i_glide_evdw>  (421) 
-33.7801

>  <r_i_glide_ecoul>  (421) 
-7.23123

>  <r_i_glide_erotb>  (421) 
0.213339

>  <r_i_glide_esite>  (421) 
-0.0251147

>  <r_i_glide_emodel>  (421) 
-49.4406

>  <r_i_glide_energy>  (421) 
-41.0114

>  <r_i_glide_einternal>  (421) 
1.24421

>  <r_i_glide_intrahb_reward>  (421) 
-0

>  <i_i_glide_confnum>  (421) 
1

>  <i_i_glide_posenum>  (421) 
33

>  <r_i_glide_eff_state_penalty>  (421) 
0

>  <ligand_id>  (421) 
101

>  <original_smiles>  (421) 
C=CC1(C)C(O)C(C)C23CCC(C)C(C)(C(C)OC(=O)CSc4ccncc4)C(CCC2C2(C)CCC(=O)C(C)(C)C12)C3

>  <smiles>  (421) 
[H]OC1([H])C([H])(C([H])([H])[H])C23C([H])([H])C([H])([H])C([H])(C([H])([H])[H])C(C([H])([H])[H])(C([H])(OC(=O)C([H])([H])Sc4c([H])c([H])[n+]([H])c([H])c4[H])C([H])([H])[H])C([H])(C([H])([H])C([H])([H])C2([H])C2(C([H])([H])[H])C([H])([H])C([H])([H])C(=O)C(C([H])([H])[H])(C([H])([H])[H])C2([H])C1(C([H])=C([H])[H])C([H])([H])[H])C3([H])[H]

$$$$
101:1:2
     RDKit          3D

 99103  0  0  1  0  0  0  0  0999 V2000
    2.9406    5.3209    4.1933 C   0  0  0  0  0  0  0  0  0  0  0  0
    2.6932    4.1857    4.8874 C   0  0  0  0  0  0  0  0  0  0  0  0
    1.9559    2.9147    4.4041 C   0  0  1  0  0  0  0  0  0  0  0  0
    1.4157    3.1805    2.9605 C   0  0  0  0  0  0  0  0  0  0  0  0
    3.1314    1.8885    4.2068 C   0  0  1  0  0  0  0  0  0  0  0  0
    4.0443    1.8005    5.2931 O   0  0  0  0  0  0  0  0  0  0  0  0
    2.8006    0.5126    3.5402 C   0  0  1  0  0  0  0  0  0  0  0  0
    3.9162    0.1430    2.5292 C   0  0  0  0  0  0  0  0  0  0  0  0
    2.3380   -0.6528    4.4943 C   0  0  2  0  0  0  0  0  0  0  0  0
    1.5271   -1.6830    3.6355 C   0  0  0  0  0  0  0  0  0  0  0  0
    0.7429   -2.8511    4.2845 C   0  0  0  0  0  0  0  0  0  0  0  0
    1.3991   -3.9749    5.1530 C   0  0  1  0  0  0  0  0  0  0  0  0
    0.9022   -5.3590    4.6637 C   0  0  0  0  0  0  0  0  0  0  0  0
    2.9316   -3.9402    5.5137 C   0  0  1  0  0  0  0  0  0  0  0  0
    3.1224   -4.8917    6.7383 C   0  0  0  0  0  0  0  0  0  0  0  0
    3.8198   -4.5768    4.3748 C   0  0  2  0  0  0  0  0  0  0  0  0
    5.3494   -4.4771    4.5753 C   0  0  0  0  0  0  0  0  0  0  0  0
    3.5048   -4.0448    3.0930 O   0  0  0  0  0  0  0  0  0  0  0  0
    3.5707   -4.7962    1.9792 C   0  0  0  0  0  0  0  0  0  0  0  0
    3.9743   -5.9568    1.9094 O   0  0  0  0  0  0  0  0  0  0  0  0
    3.0553   -4.0631    0.7467 C   0  0  0  0  0  0  0  0  0  0  0  0
    4.2939   -2.8732    0.1392 S   0  0  0  0  0  0  0  0  0  0  0  0
    3.7595   -2.2926   -1.4383 C   0  0  0  0  0  0  0  0  0  0  0  0
    2.9001   -3.0568   -2.2501 C   0  0  0  0  0  0  0  0  0  0  0  0
    2.5410   -2.5782   -3.5193 C   0  0  0  0  0  0  0  0  0  0  0  0
    3.0140   -1.3849   -3.9430 N   0  0  0  0  0  0  0  0  0  0  0  0
    3.8270   -0.6110   -3.1903 C   0  0  0  0  0  0  0  0  0  0  0  0
    4.2297   -1.0564   -1.9151 C   0  0  0  0  0  0  0  0  0  0  0  0
    3.4327   -2.5201    5.9879 C   0  0  2  0  0  0  0  0  0  0  0  0
    2.7576   -1.8809    7.2122 C   0  0  0  0  0  0  0  0  0  0  0  0
    1.4638   -1.1273    6.9022 C   0  0  0  0  0  0  0  0  0  0  0  0
    1.5757   -0.0608    5.7591 C   0  0  2  0  0  0  0  0  0  0  0  0
    0.3415    0.9680    5.5645 C   0  0  2  0  0  0  0  0  0  0  0  0
   -0.6013    0.6979    6.7865 C   0  0  0  0  0  0  0  0  0  0  0  0
   -0.5815    0.6799    4.3499 C   0  0  0  0  0  0  0  0  0  0  0  0
   -1.7745    1.6477    4.1891 C   0  0  0  0  0  0  0  0  0  0  0  0
   -1.4290    3.1317    4.3460 C   0  0  0  0  0  0  0  0  0  0  0  0
   -1.9690    3.9722    3.6238 O   0  0  0  0  0  0  0  0  0  0  0  0
   -0.4568    3.5474    5.4779 C   0  0  0  0  0  0  0  0  0  0  0  0
   -0.1023    5.0619    5.3259 C   0  0  0  0  0  0  0  0  0  0  0  0
   -1.2657    3.5965    6.8124 C   0  0  0  0  0  0  0  0  0  0  0  0
    0.8009    2.5245    5.4862 C   0  0  2  0  0  0  0  0  0  0  0  0
    3.6165   -1.4187    4.9375 C   0  0  0  0  0  0  0  0  0  0  0  0
    2.6304    5.4510    3.1661 H   0  0  0  0  0  0  0  0  0  0  0  0
    3.4650    6.1514    4.6480 H   0  0  0  0  0  0  0  0  0  0  0  0
    3.0496    4.1513    5.9078 H   0  0  0  0  0  0  0  0  0  0  0  0
    0.7970    2.3995    2.5387 H   0  0  0  0  0  0  0  0  0  0  0  0
    2.2269    3.3236    2.2455 H   0  0  0  0  0  0  0  0  0  0  0  0
    0.8108    4.0693    2.8805 H   0  0  0  0  0  0  0  0  0  0  0  0
    3.7810    2.3878    3.4915 H   0  0  0  0  0  0  0  0  0  0  0  0
    3.6293    1.3333    6.0031 H   0  0  0  0  0  0  0  0  0  0  0  0
    1.9784    0.6845    2.8597 H   0  0  0  0  0  0  0  0  0  0  0  0
    4.8959    0.0490    2.9993 H   0  0  0  0  0  0  0  0  0  0  0  0
    3.9986    0.9103    1.7570 H   0  0  0  0  0  0  0  0  0  0  0  0
    3.6985   -0.7809    2.0015 H   0  0  0  0  0  0  0  0  0  0  0  0
    0.7971   -1.1600    3.0256 H   0  0  0  0  0  0  0  0  0  0  0  0
    2.1725   -2.0920    2.8647 H   0  0  0  0  0  0  0  0  0  0  0  0
   -0.1011   -2.4344    4.8308 H   0  0  0  0  0  0  0  0  0  0  0  0
    0.2505   -3.3429    3.4459 H   0  0  0  0  0  0  0  0  0  0  0  0
    0.8944   -3.8725    6.1130 H   0  0  0  0  0  0  0  0  0  0  0  0
    1.2830   -5.6043    3.6733 H   0  0  0  0  0  0  0  0  0  0  0  0
   -0.1860   -5.3794    4.6054 H   0  0  0  0  0  0  0  0  0  0  0  0
    1.1855   -6.1676    5.3349 H   0  0  0  0  0  0  0  0  0  0  0  0
    4.0921   -4.7574    7.2193 H   0  0  0  0  0  0  0  0  0  0  0  0
    3.0670   -5.9452    6.4643 H   0  0  0  0  0  0  0  0  0  0  0  0
    2.3689   -4.7395    7.5116 H   0  0  0  0  0  0  0  0  0  0  0  0
    3.5846   -5.6431    4.3514 H   0  0  0  0  0  0  0  0  0  0  0  0
    5.6617   -4.8271    5.5583 H   0  0  0  0  0  0  0  0  0  0  0  0
    5.7084   -3.4561    4.4540 H   0  0  0  0  0  0  0  0  0  0  0  0
    5.8746   -5.0866    3.8391 H   0  0  0  0  0  0  0  0  0  0  0  0
    2.8320   -4.8152   -0.0078 H   0  0  0  0  0  0  0  0  0  0  0  0
    2.1318   -3.5423    0.9949 H   0  0  0  0  0  0  0  0  0  0  0  0
    2.5042   -4.0052   -1.9274 H   0  0  0  0  0  0  0  0  0  0  0  0
    1.8840   -3.1004   -4.1976 H   0  0  0  0  0  0  0  0  0  0  0  0
    4.1157    0.3362   -3.6184 H   0  0  0  0  0  0  0  0  0  0  0  0
    4.8712   -0.4439   -1.3009 H   0  0  0  0  0  0  0  0  0  0  0  0
    4.4440   -2.7129    6.3394 H   0  0  0  0  0  0  0  0  0  0  0  0
    2.5837   -2.6020    8.0056 H   0  0  0  0  0  0  0  0  0  0  0  0
    3.4606   -1.1616    7.6351 H   0  0  0  0  0  0  0  0  0  0  0  0
    0.6642   -1.8325    6.7316 H   0  0  0  0  0  0  0  0  0  0  0  0
    1.2209   -0.6427    7.8471 H   0  0  0  0  0  0  0  0  0  0  0  0
    2.2798    0.5766    6.2771 H   0  0  0  0  0  0  0  0  0  0  0  0
   -1.5815    1.1456    6.7186 H   0  0  0  0  0  0  0  0  0  0  0  0
   -0.1581    1.0194    7.7319 H   0  0  0  0  0  0  0  0  0  0  0  0
   -0.8758   -0.3552    6.8639 H   0  0  0  0  0  0  0  0  0  0  0  0
   -0.0406    0.7314    3.4199 H   0  0  0  0  0  0  0  0  0  0  0  0
   -0.9690   -0.3407    4.3995 H   0  0  0  0  0  0  0  0  0  0  0  0
   -2.2079    1.4991    3.2039 H   0  0  0  0  0  0  0  0  0  0  0  0
   -2.5575    1.4228    4.9077 H   0  0  0  0  0  0  0  0  0  0  0  0
    0.5270    5.4082    6.1503 H   0  0  0  0  0  0  0  0  0  0  0  0
   -0.9881    5.6876    5.3426 H   0  0  0  0  0  0  0  0  0  0  0  0
    0.3521    5.3361    4.3838 H   0  0  0  0  0  0  0  0  0  0  0  0
   -0.7001    3.1985    7.6503 H   0  0  0  0  0  0  0  0  0  0  0  0
   -2.2306    3.0958    6.7473 H   0  0  0  0  0  0  0  0  0  0  0  0
   -1.5332    4.6060    7.1258 H   0  0  0  0  0  0  0  0  0  0  0  0
    1.2874    2.7068    6.4446 H   0  0  0  0  0  0  0  0  0  0  0  0
    4.1283   -1.8481    4.0834 H   0  0  0  0  0  0  0  0  0  0  0  0
    4.3299   -0.7100    5.3507 H   0  0  0  0  0  0  0  0  0  0  0  0
    2.7040   -1.0479   -4.8562 H   0  0  0  0  0  0  0  0  0  0  0  0
  1  2  2  0
  1 44  1  0
  1 45  1  0
  2  3  1  0
  2 46  1  0
  3 42  1  0
  3  4  1  6
  3  5  1  0
  4 47  1  0
  4 48  1  0
  4 49  1  0
  5  6  1  0
  5  7  1  0
  5 50  1  6
  6 51  1  0
  7  8  1  0
  7  9  1  0
  7 52  1  6
  8 53  1  0
  8 54  1  0
  8 55  1  0
  9 32  1  0
  9 43  1  0
  9 10  1  6
 10 11  1  0
 10 56  1  0
 10 57  1  0
 11 12  1  0
 11 58  1  0
 11 59  1  0
 12 13  1  0
 12 14  1  0
 12 60  1  1
 13 61  1  0
 13 62  1  0
 13 63  1  0
 14 15  1  1
 14 16  1  0
 14 29  1  0
 15 64  1  0
 15 65  1  0
 15 66  1  0
 16 17  1  0
 16 18  1  0
 16 67  1  6
 17 68  1  0
 17 69  1  0
 17 70  1  0
 18 19  1  0
 19 20  2  0
 19 21  1  0
 21 22  1  0
 21 71  1  0
 21 72  1  0
 22 23  1  0
 23 28  1  0
 23 24  2  0
 24 25  1  0
 24 73  1  0
 25 26  2  0
 25 74  1  0
 26 27  1  0
 26 99  1  0
 27 28  2  0
 27 75  1  0
 28 76  1  0
 29 30  1  0
 29 43  1  0
 29 77  1  1
 30 31  1  0
 30 78  1  0
 30 79  1  0
 31 32  1  0
 31 80  1  0
 31 81  1  0
 32 33  1  0
 32 82  1  1
 33 42  1  0
 33 34  1  1
 33 35  1  0
 34 83  1  0
 34 84  1  0
 34 85  1  0
 35 36  1  0
 35 86  1  0
 35 87  1  0
 36 37  1  0
 36 88  1  0
 36 89  1  0
 37 38  2  0
 37 39  1  0
 39 40  1  0
 39 41  1  0
 39 42  1  0
 40 90  1  0
 40 91  1  0
 40 92  1  0
 41 93  1  0
 41 94  1  0
 41 95  1  0
 42 96  1  1
 43 97  1  0
 43 98  1  0
M  CHG  1  26   1
M  END
>  <i_m_ct_stereo_status>  (422) 
1

>  <s_m_source_file>  (422) 
/var/tmp/pbs.5102103.sched01/tmpeh5ntauu/15412114_vq.sdf

>  <i_m_source_file_index>  (422) 
9

>  <i_lp_mmshare_version>  (422) 
48012

>  <i_f3d_flags>  (422) 
0

>  <s_epik_input>  (422) 
W0NIM11bQ0BASF0xW0NASF0oW09IXSlbQ0BdKFtDSDNdKShbQ0hdPVtDSDJdKVtDQEBIXShDKFtDSDNdKShbQ0gzXSlDKD1PKVtDSDJdW0NIMl0yKVtDQF0yKFtDSDNdKVtDQEhdKFtDQF0xMzQpW0NIMl1bQ0gyXVtDQEhdKFtDSDJdNClbQ0BAXShbQ0gzXSkoW0NASF0oW0NIM10pW0NIMl1bQ0gyXTMpW0NASF0oW0NIM10pT0MoPU8pW0NIMl1TYzVbY0hdW2NIXW5bY0hdW2NIXTU=

>  <s_epik_cmdline>  (422) 
J2VwaWtfcHl0aG9uJywgJy1waHQnLCAnMi4wJywgJy1waCcsICc3LjAnLCAnLXRuJywgJzgnLCAnLW1hJywgJzIwMCcsICctaW1hZScsICc8aW5maWxlLm1hZT4nLCAnLW9tYWUnLCAnPG91dGZpbGUubWFlPic=

>  <r_lp_tautomer_probability>  (422) 
0.99995

>  <r_epik_Ionization_Penalty>  (422) 
2.35553

>  <r_epik_Ionization_Penalty_Charging>  (422) 
2.35553

>  <r_epik_Ionization_Penalty_Neutral>  (422) 
6.44378e-07

>  <r_epik_State_Penalty>  (422) 
2.51019

>  <r_epik_Charging_Adjusted_Penalty>  (422) 
4.86572

>  <i_epik_Tot_Q>  (422) 
1

>  <i_epik_Tot_abs_Q>  (422) 
1

>  <s_epik_Chemistry_Notes>  (422) 
This compound has an ester and may undergo hydrolysis at high or low pH.

>  <s_lp_Force_Field>  (422) 
OPLS3e

>  <r_lp_Energy>  (422) 
156.567

>  <b_lp_Chiralities_Consistent>  (422) 
1

>  <s_lp_Variant>  (422) 
101:0-2

>  <s_i_glide_gridfile>  (422) 
pfpi4k_grid

>  <i_i_glide_lignum>  (422) 
9

>  <i_i_glide_rotatable_bonds>  (422) 
8

>  <r_i_docking_score>  (422) 
-3.168

>  <r_i_glide_ligand_efficiency>  (422) 
-0.0736743

>  <r_i_glide_ligand_efficiency_sa>  (422) 
-0.258111

>  <r_i_glide_ligand_efficiency_ln>  (422) 
-0.665378

>  <r_i_glide_gscore>  (422) 
-3.168

>  <r_i_glide_lipo>  (422) 
-0.468468

>  <r_i_glide_hbond>  (422) 
-0.00720253

>  <r_i_glide_metal>  (422) 
-0

>  <r_i_glide_rewards>  (422) 
-0.00562303

>  <r_i_glide_evdw>  (422) 
-33.7611

>  <r_i_glide_ecoul>  (422) 
-7.85744

>  <r_i_glide_erotb>  (422) 
0.213339

>  <r_i_glide_esite>  (422) 
-0.0333713

>  <r_i_glide_emodel>  (422) 
-51.2598

>  <r_i_glide_energy>  (422) 
-41.6185

>  <r_i_glide_einternal>  (422) 
0.988125

>  <r_i_glide_intrahb_reward>  (422) 
-0

>  <i_i_glide_confnum>  (422) 
1

>  <i_i_glide_posenum>  (422) 
17

>  <r_i_glide_eff_state_penalty>  (422) 
0

>  <ligand_id>  (422) 
101

>  <original_smiles>  (422) 
C=CC1(C)C(O)C(C)C23CCC(C)C(C)(C(C)OC(=O)CSc4ccncc4)C(CCC2C2(C)CCC(=O)C(C)(C)C12)C3

>  <smiles>  (422) 
[H]OC1([H])C([H])(C([H])([H])[H])C23C([H])([H])C([H])([H])C([H])(C([H])([H])[H])C(C([H])([H])[H])(C([H])(OC(=O)C([H])([H])Sc4c([H])c([H])[n+]([H])c([H])c4[H])C([H])([H])[H])C([H])(C([H])([H])C([H])([H])C2([H])C2(C([H])([H])[H])C([H])([H])C([H])([H])C(=O)C(C([H])([H])[H])(C([H])([H])[H])C2([H])C1(C([H])=C([H])[H])C([H])([H])[H])C3([H])[H]

$$$$
102:0:0
     RDKit          3D

 47 51  0  0  1  0  0  0  0  0999 V2000
    3.0263    0.1909   -5.4023 C   0  0  0  0  0  0  0  0  0  0  0  0
    3.7977    0.2996   -4.2119 O   0  0  0  0  0  0  0  0  0  0  0  0
    3.7795   -0.7850   -3.3468 C   0  0  0  0  0  0  0  0  0  0  0  0
    2.9974   -1.9514   -3.5412 C   0  0  0  0  0  0  0  0  0  0  0  0
    3.0595   -3.0190   -2.6389 C   0  0  0  0  0  0  0  0  0  0  0  0
    3.8996   -2.9724   -1.5091 C   0  0  0  0  0  0  0  0  0  0  0  0
    3.9023   -4.1254   -0.6723 N   0  0  0  0  0  0  0  0  0  0  0  0
    4.5194   -4.3823    0.5029 C   0  0  0  0  0  0  0  0  0  0  0  0
    5.3529   -3.6572    1.0514 O   0  0  0  0  0  0  0  0  0  0  0  0
    4.1085   -5.6911    1.0823 C   0  0  0  0  0  0  0  0  0  0  0  0
    2.8517   -6.0001    1.3293 N   0  0  0  0  0  0  0  0  0  0  0  0
    2.9211   -7.2366    1.9361 N   0  0  0  0  0  0  0  0  0  0  0  0
    4.2145   -7.6782    1.9996 C   0  0  0  0  0  0  0  0  0  0  0  0
    4.8162   -8.8618    2.4732 C   0  0  0  0  0  0  0  0  0  0  0  0
    6.2246   -8.9988    2.4075 C   0  0  0  0  0  0  0  0  0  0  0  0
    7.0138   -7.9530    1.8854 C   0  0  0  0  0  0  0  0  0  0  0  0
    6.4024   -6.7708    1.4134 C   0  0  0  0  0  0  0  0  0  0  0  0
    5.0085   -6.6933    1.4845 C   0  0  0  0  0  0  0  0  0  0  0  0
    3.8861   -9.9421    3.0017 C   0  0  0  0  0  0  0  0  0  0  0  0
    2.6050  -10.1885    2.2030 C   0  0  0  0  0  0  0  0  0  0  0  0
    1.5079   -9.1971    2.5248 C   0  0  0  0  0  0  0  0  0  0  0  0
    0.2635   -9.6971    2.9612 C   0  0  0  0  0  0  0  0  0  0  0  0
   -0.7903   -8.8217    3.2718 C   0  0  0  0  0  0  0  0  0  0  0  0
   -0.6067   -7.4340    3.1671 C   0  0  0  0  0  0  0  0  0  0  0  0
    0.6356   -6.9269    2.7383 C   0  0  0  0  0  0  0  0  0  0  0  0
    1.7059   -7.8018    2.4048 C   0  0  0  0  0  0  0  0  0  0  0  0
    4.6643   -1.8015   -1.2895 C   0  0  0  0  0  0  0  0  0  0  0  0
    4.5999   -0.7314   -2.2049 C   0  0  0  0  0  0  0  0  0  0  0  0
    3.0497    1.0916   -6.0255 H   0  0  0  0  0  0  0  0  0  0  0  0
    1.9757   -0.0161   -5.1912 H   0  0  0  0  0  0  0  0  0  0  0  0
    3.4274   -0.6271   -5.9971 H   0  0  0  0  0  0  0  0  0  0  0  0
    2.3205   -2.0967   -4.3600 H   0  0  0  0  0  0  0  0  0  0  0  0
    2.4426   -3.8668   -2.8424 H   0  0  0  0  0  0  0  0  0  0  0  0
    3.2996   -4.8758   -0.9849 H   0  0  0  0  0  0  0  0  0  0  0  0
    6.6912   -9.9135    2.7551 H   0  0  0  0  0  0  0  0  0  0  0  0
    8.0908   -8.0703    1.8406 H   0  0  0  0  0  0  0  0  0  0  0  0
    6.9953   -5.9656    1.0118 H   0  0  0  0  0  0  0  0  0  0  0  0
    4.4567  -10.8650    2.9376 H   0  0  0  0  0  0  0  0  0  0  0  0
    3.6769   -9.7948    4.0664 H   0  0  0  0  0  0  0  0  0  0  0  0
    2.8114  -10.2274    1.1349 H   0  0  0  0  0  0  0  0  0  0  0  0
    2.2499  -11.1814    2.4782 H   0  0  0  0  0  0  0  0  0  0  0  0
    0.1125  -10.7619    3.0554 H   0  0  0  0  0  0  0  0  0  0  0  0
   -1.7316   -9.2205    3.6091 H   0  0  0  0  0  0  0  0  0  0  0  0
   -1.4082   -6.7605    3.4267 H   0  0  0  0  0  0  0  0  0  0  0  0
    0.7642   -5.8535    2.6727 H   0  0  0  0  0  0  0  0  0  0  0  0
    5.3176   -1.6872   -0.4352 H   0  0  0  0  0  0  0  0  0  0  0  0
    5.2012    0.1442   -2.0212 H   0  0  0  0  0  0  0  0  0  0  0  0
  1  2  1  0
  1 29  1  0
  1 30  1  0
  1 31  1  0
  2  3  1  0
  3 28  2  0
  3  4  1  0
  4  5  2  0
  4 32  1  0
  5  6  1  0
  5 33  1  0
  6  7  1  0
  6 27  2  0
  7  8  1  0
  7 34  1  0
  8  9  2  0
  8 10  1  0
 10 18  1  0
 10 11  2  0
 11 12  1  0
 12 26  1  0
 12 13  1  0
 13 18  2  0
 13 14  1  0
 14 15  2  0
 14 19  1  0
 15 16  1  0
 15 35  1  0
 16 17  2  0
 16 36  1  0
 17 18  1  0
 17 37  1  0
 19 20  1  0
 19 38  1  0
 19 39  1  0
 20 21  1  0
 20 40  1  0
 20 41  1  0
 21 26  2  0
 21 22  1  0
 22 23  2  0
 22 42  1  0
 23 24  1  0
 23 43  1  0
 24 25  2  0
 24 44  1  0
 25 26  1  0
 25 45  1  0
 27 28  1  0
 27 46  1  0
 28 47  1  0
M  END
>  <i_m_ct_stereo_status>  (423) 
1

>  <s_m_source_file>  (423) 
/var/tmp/pbs.5102103.sched01/tmpeh5ntauu/15412114_vq.sdf

>  <i_m_source_file_index>  (423) 
10

>  <i_lp_mmshare_version>  (423) 
48012

>  <i_f3d_flags>  (423) 
0

>  <s_epik_input>  (423) 
W0NIM11PYzFbY0hdW2NIXWMoW2NIXVtjSF0xKVtOSF1DKD1PKWMobjIpYzNbY0hdW2NIXVtjSF1jKGMzbjI0KVtDSDJdW0NIMl1jNWM0W2NIXVtjSF1bY0hdW2NIXTU=

>  <s_epik_cmdline>  (423) 
J2VwaWtfcHl0aG9uJywgJy1waHQnLCAnMi4wJywgJy1waCcsICc3LjAnLCAnLXRuJywgJzgnLCAnLW1hJywgJzIwMCcsICctaW1hZScsICc8aW5maWxlLm1hZT4nLCAnLW9tYWUnLCAnPG91dGZpbGUubWFlPic=

>  <r_lp_tautomer_probability>  (423) 
1

>  <r_epik_Ionization_Penalty>  (423) 
1.77763e-06

>  <r_epik_Ionization_Penalty_Charging>  (423) 
0

>  <r_epik_Ionization_Penalty_Neutral>  (423) 
1.77763e-06

>  <r_epik_State_Penalty>  (423) 
-0

>  <r_epik_Charging_Adjusted_Penalty>  (423) 
0

>  <i_epik_Tot_Q>  (423) 
0

>  <i_epik_Tot_abs_Q>  (423) 
0

>  <s_lp_Force_Field>  (423) 
OPLS3e

>  <r_lp_Energy>  (423) 
50.1855

>  <b_lp_Chiralities_Consistent>  (423) 
1

>  <s_lp_Variant>  (423) 
102:0-1

>  <s_i_glide_gridfile>  (423) 
pfpi4k_grid

>  <i_i_glide_lignum>  (423) 
10

>  <i_i_glide_rotatable_bonds>  (423) 
4

>  <r_i_docking_score>  (423) 
-4.22722

>  <r_i_glide_ligand_efficiency>  (423) 
-0.150972

>  <r_i_glide_ligand_efficiency_sa>  (423) 
-0.45844

>  <r_i_glide_ligand_efficiency_ln>  (423) 
-0.975766

>  <r_i_glide_gscore>  (423) 
-4.22722

>  <r_i_glide_lipo>  (423) 
-0.921683

>  <r_i_glide_hbond>  (423) 
-0.248253

>  <r_i_glide_metal>  (423) 
-0

>  <r_i_glide_rewards>  (423) 
-0.962721

>  <r_i_glide_evdw>  (423) 
-39.2129

>  <r_i_glide_ecoul>  (423) 
-3.55204

>  <r_i_glide_erotb>  (423) 
0.423852

>  <r_i_glide_esite>  (423) 
-0.0249591

>  <r_i_glide_emodel>  (423) 
-50.2327

>  <r_i_glide_energy>  (423) 
-42.765

>  <r_i_glide_einternal>  (423) 
6.34756

>  <r_i_glide_intrahb_reward>  (423) 
-0

>  <i_i_glide_confnum>  (423) 
4

>  <i_i_glide_posenum>  (423) 
19

>  <r_i_glide_eff_state_penalty>  (423) 
0

>  <ligand_id>  (423) 
102

>  <original_smiles>  (423) 
COc1ccc(NC(=O)c2nn3c4c(cccc24)CCc2ccccc2-3)cc1

>  <smiles>  (423) 
[H]c1c([H])c([H])c2c(c1[H])-n1nc(C(=O)N([H])c3c([H])c([H])c(OC([H])([H])[H])c([H])c3[H])c3c([H])c([H])c([H])c(c31)C([H])([H])C2([H])[H]

$$$$
102:0:1
     RDKit          3D

 47 51  0  0  1  0  0  0  0  0999 V2000
    3.7947    1.2627   -4.7868 C   0  0  0  0  0  0  0  0  0  0  0  0
    2.9519    0.1389   -4.6407 O   0  0  0  0  0  0  0  0  0  0  0  0
    3.3204   -0.8200   -3.7244 C   0  0  0  0  0  0  0  0  0  0  0  0
    2.6194   -2.0272   -3.7587 C   0  0  0  0  0  0  0  0  0  0  0  0
    2.8831   -3.0607   -2.8556 C   0  0  0  0  0  0  0  0  0  0  0  0
    3.9110   -2.9281   -1.8897 C   0  0  0  0  0  0  0  0  0  0  0  0
    4.1395   -4.0355   -1.0088 N   0  0  0  0  0  0  0  0  0  0  0  0
    5.0415   -4.2353   -0.0132 C   0  0  0  0  0  0  0  0  0  0  0  0
    5.9791   -3.4708    0.2382 O   0  0  0  0  0  0  0  0  0  0  0  0
    4.7955   -5.5274    0.7219 C   0  0  0  0  0  0  0  0  0  0  0  0
    3.5918   -6.0276    0.9007 N   0  0  0  0  0  0  0  0  0  0  0  0
    3.8360   -7.1507    1.6741 N   0  0  0  0  0  0  0  0  0  0  0  0
    5.1549   -7.3136    1.9199 C   0  0  0  0  0  0  0  0  0  0  0  0
    5.9209   -8.2894    2.6209 C   0  0  0  0  0  0  0  0  0  0  0  0
    7.3187   -8.1492    2.7069 C   0  0  0  0  0  0  0  0  0  0  0  0
    7.9454   -7.0400    2.1061 C   0  0  0  0  0  0  0  0  0  0  0  0
    7.1889   -6.0755    1.4016 C   0  0  0  0  0  0  0  0  0  0  0  0
    5.8168   -6.2759    1.3453 C   0  0  0  0  0  0  0  0  0  0  0  0
    5.1372   -9.4505    3.2134 C   0  0  0  0  0  0  0  0  0  0  0  0
    4.0296  -10.0526    2.3470 C   0  0  0  0  0  0  0  0  0  0  0  0
    2.7485   -9.2615    2.4235 C   0  0  0  0  0  0  0  0  0  0  0  0
    1.5709   -9.9378    2.8166 C   0  0  0  0  0  0  0  0  0  0  0  0
    0.3433   -9.2548    2.8958 C   0  0  0  0  0  0  0  0  0  0  0  0
    0.2818   -7.8809    2.5971 C   0  0  0  0  0  0  0  0  0  0  0  0
    1.4580   -7.2012    2.2108 C   0  0  0  0  0  0  0  0  0  0  0  0
    2.7012   -7.8777    2.1183 C   0  0  0  0  0  0  0  0  0  0  0  0
    4.6134   -1.6996   -1.8309 C   0  0  0  0  0  0  0  0  0  0  0  0
    4.3178   -0.6573   -2.7323 C   0  0  0  0  0  0  0  0  0  0  0  0
    3.3626    1.9482   -5.5079 H   0  0  0  0  0  0  0  0  0  0  0  0
    4.7531    0.9360   -5.1609 H   0  0  0  0  0  0  0  0  0  0  0  0
    3.9588    1.8287   -3.8790 H   0  0  0  0  0  0  0  0  0  0  0  0
    1.7993   -2.1456   -4.4473 H   0  0  0  0  0  0  0  0  0  0  0  0
    2.2699   -3.9433   -2.9222 H   0  0  0  0  0  0  0  0  0  0  0  0
    3.5153   -4.8249   -1.1523 H   0  0  0  0  0  0  0  0  0  0  0  0
    7.9095   -8.9014    3.2279 H   0  0  0  0  0  0  0  0  0  0  0  0
    9.0130   -6.9603    2.1819 H   0  0  0  0  0  0  0  0  0  0  0  0
    7.6899   -5.2325    0.9452 H   0  0  0  0  0  0  0  0  0  0  0  0
    5.8765  -10.2410    3.3460 H   0  0  0  0  0  0  0  0  0  0  0  0
    4.7878   -9.2144    4.2260 H   0  0  0  0  0  0  0  0  0  0  0  0
    4.3744  -10.1720    1.3232 H   0  0  0  0  0  0  0  0  0  0  0  0
    3.8317  -11.0561    2.7217 H   0  0  0  0  0  0  0  0  0  0  0  0
    1.6064  -10.9955    3.0446 H   0  0  0  0  0  0  0  0  0  0  0  0
   -0.5494   -9.7849    3.1910 H   0  0  0  0  0  0  0  0  0  0  0  0
   -0.6571   -7.3497    2.6625 H   0  0  0  0  0  0  0  0  0  0  0  0
    1.3872   -6.1403    1.9929 H   0  0  0  0  0  0  0  0  0  0  0  0
    5.3750   -1.5231   -1.0896 H   0  0  0  0  0  0  0  0  0  0  0  0
    4.8633    0.2622   -2.6315 H   0  0  0  0  0  0  0  0  0  0  0  0
  1  2  1  0
  1 29  1  0
  1 30  1  0
  1 31  1  0
  2  3  1  0
  3 28  2  0
  3  4  1  0
  4  5  2  0
  4 32  1  0
  5  6  1  0
  5 33  1  0
  6  7  1  0
  6 27  2  0
  7  8  1  0
  7 34  1  0
  8  9  2  0
  8 10  1  0
 10 18  1  0
 10 11  2  0
 11 12  1  0
 12 26  1  0
 12 13  1  0
 13 18  2  0
 13 14  1  0
 14 15  2  0
 14 19  1  0
 15 16  1  0
 15 35  1  0
 16 17  2  0
 16 36  1  0
 17 18  1  0
 17 37  1  0
 19 20  1  0
 19 38  1  0
 19 39  1  0
 20 21  1  0
 20 40  1  0
 20 41  1  0
 21 26  2  0
 21 22  1  0
 22 23  2  0
 22 42  1  0
 23 24  1  0
 23 43  1  0
 24 25  2  0
 24 44  1  0
 25 26  1  0
 25 45  1  0
 27 28  1  0
 27 46  1  0
 28 47  1  0
M  END
>  <i_m_ct_stereo_status>  (424) 
1

>  <s_m_source_file>  (424) 
/var/tmp/pbs.5102103.sched01/tmpeh5ntauu/15412114_vq.sdf

>  <i_m_source_file_index>  (424) 
10

>  <i_lp_mmshare_version>  (424) 
48012

>  <i_f3d_flags>  (424) 
0

>  <s_epik_input>  (424) 
W0NIM11PYzFbY0hdW2NIXWMoW2NIXVtjSF0xKVtOSF1DKD1PKWMobjIpYzNbY0hdW2NIXVtjSF1jKGMzbjI0KVtDSDJdW0NIMl1jNWM0W2NIXVtjSF1bY0hdW2NIXTU=

>  <s_epik_cmdline>  (424) 
J2VwaWtfcHl0aG9uJywgJy1waHQnLCAnMi4wJywgJy1waCcsICc3LjAnLCAnLXRuJywgJzgnLCAnLW1hJywgJzIwMCcsICctaW1hZScsICc8aW5maWxlLm1hZT4nLCAnLW9tYWUnLCAnPG91dGZpbGUubWFlPic=

>  <r_lp_tautomer_probability>  (424) 
1

>  <r_epik_Ionization_Penalty>  (424) 
1.77763e-06

>  <r_epik_Ionization_Penalty_Charging>  (424) 
0

>  <r_epik_Ionization_Penalty_Neutral>  (424) 
1.77763e-06

>  <r_epik_State_Penalty>  (424) 
-0

>  <r_epik_Charging_Adjusted_Penalty>  (424) 
0

>  <i_epik_Tot_Q>  (424) 
0

>  <i_epik_Tot_abs_Q>  (424) 
0

>  <s_lp_Force_Field>  (424) 
OPLS3e

>  <r_lp_Energy>  (424) 
50.1855

>  <b_lp_Chiralities_Consistent>  (424) 
1

>  <s_lp_Variant>  (424) 
102:0-1

>  <s_i_glide_gridfile>  (424) 
pfpi4k_grid

>  <i_i_glide_lignum>  (424) 
10

>  <i_i_glide_rotatable_bonds>  (424) 
4

>  <r_i_docking_score>  (424) 
-4.11371

>  <r_i_glide_ligand_efficiency>  (424) 
-0.146918

>  <r_i_glide_ligand_efficiency_sa>  (424) 
-0.44613

>  <r_i_glide_ligand_efficiency_ln>  (424) 
-0.949565

>  <r_i_glide_gscore>  (424) 
-4.11371

>  <r_i_glide_lipo>  (424) 
-0.916415

>  <r_i_glide_hbond>  (424) 
-0.257269

>  <r_i_glide_metal>  (424) 
-0

>  <r_i_glide_rewards>  (424) 
-1.03844

>  <r_i_glide_evdw>  (424) 
-35.0207

>  <r_i_glide_ecoul>  (424) 
-3.62881

>  <r_i_glide_erotb>  (424) 
0.423852

>  <r_i_glide_esite>  (424) 
-0.0300799

>  <r_i_glide_emodel>  (424) 
-47.8486

>  <r_i_glide_energy>  (424) 
-38.6495

>  <r_i_glide_einternal>  (424) 
2.4211

>  <r_i_glide_intrahb_reward>  (424) 
-0

>  <i_i_glide_confnum>  (424) 
4

>  <i_i_glide_posenum>  (424) 
33

>  <r_i_glide_eff_state_penalty>  (424) 
0

>  <ligand_id>  (424) 
102

>  <original_smiles>  (424) 
COc1ccc(NC(=O)c2nn3c4c(cccc24)CCc2ccccc2-3)cc1

>  <smiles>  (424) 
[H]c1c([H])c([H])c2c(c1[H])-n1nc(C(=O)N([H])c3c([H])c([H])c(OC([H])([H])[H])c([H])c3[H])c3c([H])c([H])c([H])c(c31)C([H])([H])C2([H])[H]

$$$$
102:0:2
     RDKit          3D

 47 51  0  0  1  0  0  0  0  0999 V2000
    3.5266    1.2276   -5.1571 C   0  0  0  0  0  0  0  0  0  0  0  0
    2.7394    0.0869   -4.8800 O   0  0  0  0  0  0  0  0  0  0  0  0
    3.2071   -0.8078   -3.9417 C   0  0  0  0  0  0  0  0  0  0  0  0
    2.6194   -2.0793   -3.9171 C   0  0  0  0  0  0  0  0  0  0  0  0
    3.0258   -3.0528   -2.9877 C   0  0  0  0  0  0  0  0  0  0  0  0
    4.0599   -2.7864   -2.0636 C   0  0  0  0  0  0  0  0  0  0  0  0
    4.4224   -3.8351   -1.1537 N   0  0  0  0  0  0  0  0  0  0  0  0
    5.4040   -3.9138   -0.2171 C   0  0  0  0  0  0  0  0  0  0  0  0
    6.2690   -3.0461   -0.0456 O   0  0  0  0  0  0  0  0  0  0  0  0
    5.3485   -5.2073    0.5583 C   0  0  0  0  0  0  0  0  0  0  0  0
    4.2536   -5.9284    0.6629 N   0  0  0  0  0  0  0  0  0  0  0  0
    4.6437   -6.9742    1.4753 N   0  0  0  0  0  0  0  0  0  0  0  0
    5.9501   -6.8823    1.8220 C   0  0  0  0  0  0  0  0  0  0  0  0
    6.8244   -7.6832    2.6044 C   0  0  0  0  0  0  0  0  0  0  0  0
    8.1603   -7.2779    2.7962 C   0  0  0  0  0  0  0  0  0  0  0  0
    8.6177   -6.0781    2.2144 C   0  0  0  0  0  0  0  0  0  0  0  0
    7.7481   -5.2895    1.4197 C   0  0  0  0  0  0  0  0  0  0  0  0
    6.4445   -5.7437    1.2672 C   0  0  0  0  0  0  0  0  0  0  0  0
    6.2295   -8.9651    3.1655 C   0  0  0  0  0  0  0  0  0  0  0  0
    5.3261   -9.7838    2.2377 C   0  0  0  0  0  0  0  0  0  0  0  0
    3.9190   -9.2434    2.2019 C   0  0  0  0  0  0  0  0  0  0  0  0
    2.8592  -10.1200    2.5231 C   0  0  0  0  0  0  0  0  0  0  0  0
    1.5255   -9.6764    2.4951 C   0  0  0  0  0  0  0  0  0  0  0  0
    1.2307   -8.3454    2.1539 C   0  0  0  0  0  0  0  0  0  0  0  0
    2.2824   -7.4640    1.8344 C   0  0  0  0  0  0  0  0  0  0  0  0
    3.6339   -7.8970    1.8538 C   0  0  0  0  0  0  0  0  0  0  0  0
    4.6395   -1.4938   -2.0676 C   0  0  0  0  0  0  0  0  0  0  0  0
    4.2054   -0.5151   -2.9899 C   0  0  0  0  0  0  0  0  0  0  0  0
    3.0062    1.8122   -5.9129 H   0  0  0  0  0  0  0  0  0  0  0  0
    4.5033    0.9336   -5.5312 H   0  0  0  0  0  0  0  0  0  0  0  0
    3.6990    1.8857   -4.3153 H   0  0  0  0  0  0  0  0  0  0  0  0
    1.8202   -2.3290   -4.5860 H   0  0  0  0  0  0  0  0  0  0  0  0
    2.5116   -3.9970   -3.0247 H   0  0  0  0  0  0  0  0  0  0  0  0
    3.8504   -4.6728   -1.2109 H   0  0  0  0  0  0  0  0  0  0  0  0
    8.8397   -7.9044    3.3740 H   0  0  0  0  0  0  0  0  0  0  0  0
    9.6505   -5.8039    2.3711 H   0  0  0  0  0  0  0  0  0  0  0  0
    8.1210   -4.3741    0.9765 H   0  0  0  0  0  0  0  0  0  0  0  0
    7.0907   -9.5989    3.3822 H   0  0  0  0  0  0  0  0  0  0  0  0
    5.7647   -8.7881    4.1432 H   0  0  0  0  0  0  0  0  0  0  0  0
    5.7580   -9.8640    1.2421 H   0  0  0  0  0  0  0  0  0  0  0  0
    5.2833  -10.7979    2.6337 H   0  0  0  0  0  0  0  0  0  0  0  0
    3.0722  -11.1519    2.7718 H   0  0  0  0  0  0  0  0  0  0  0  0
    0.7247  -10.3624    2.7279 H   0  0  0  0  0  0  0  0  0  0  0  0
    0.2069   -8.0030    2.1228 H   0  0  0  0  0  0  0  0  0  0  0  0
    2.0266   -6.4417    1.5677 H   0  0  0  0  0  0  0  0  0  0  0  0
    5.3970   -1.2091   -1.3567 H   0  0  0  0  0  0  0  0  0  0  0  0
    4.6557    0.4639   -2.9290 H   0  0  0  0  0  0  0  0  0  0  0  0
  1  2  1  0
  1 29  1  0
  1 30  1  0
  1 31  1  0
  2  3  1  0
  3 28  2  0
  3  4  1  0
  4  5  2  0
  4 32  1  0
  5  6  1  0
  5 33  1  0
  6  7  1  0
  6 27  2  0
  7  8  1  0
  7 34  1  0
  8  9  2  0
  8 10  1  0
 10 18  1  0
 10 11  2  0
 11 12  1  0
 12 26  1  0
 12 13  1  0
 13 18  2  0
 13 14  1  0
 14 15  2  0
 14 19  1  0
 15 16  1  0
 15 35  1  0
 16 17  2  0
 16 36  1  0
 17 18  1  0
 17 37  1  0
 19 20  1  0
 19 38  1  0
 19 39  1  0
 20 21  1  0
 20 40  1  0
 20 41  1  0
 21 26  2  0
 21 22  1  0
 22 23  2  0
 22 42  1  0
 23 24  1  0
 23 43  1  0
 24 25  2  0
 24 44  1  0
 25 26  1  0
 25 45  1  0
 27 28  1  0
 27 46  1  0
 28 47  1  0
M  END
>  <i_m_ct_stereo_status>  (425) 
1

>  <s_m_source_file>  (425) 
/var/tmp/pbs.5102103.sched01/tmpeh5ntauu/15412114_vq.sdf

>  <i_m_source_file_index>  (425) 
10

>  <i_lp_mmshare_version>  (425) 
48012

>  <i_f3d_flags>  (425) 
0

>  <s_epik_input>  (425) 
W0NIM11PYzFbY0hdW2NIXWMoW2NIXVtjSF0xKVtOSF1DKD1PKWMobjIpYzNbY0hdW2NIXVtjSF1jKGMzbjI0KVtDSDJdW0NIMl1jNWM0W2NIXVtjSF1bY0hdW2NIXTU=

>  <s_epik_cmdline>  (425) 
J2VwaWtfcHl0aG9uJywgJy1waHQnLCAnMi4wJywgJy1waCcsICc3LjAnLCAnLXRuJywgJzgnLCAnLW1hJywgJzIwMCcsICctaW1hZScsICc8aW5maWxlLm1hZT4nLCAnLW9tYWUnLCAnPG91dGZpbGUubWFlPic=

>  <r_lp_tautomer_probability>  (425) 
1

>  <r_epik_Ionization_Penalty>  (425) 
1.77763e-06

>  <r_epik_Ionization_Penalty_Charging>  (425) 
0

>  <r_epik_Ionization_Penalty_Neutral>  (425) 
1.77763e-06

>  <r_epik_State_Penalty>  (425) 
-0

>  <r_epik_Charging_Adjusted_Penalty>  (425) 
0

>  <i_epik_Tot_Q>  (425) 
0

>  <i_epik_Tot_abs_Q>  (425) 
0

>  <s_lp_Force_Field>  (425) 
OPLS3e

>  <r_lp_Energy>  (425) 
50.1855

>  <b_lp_Chiralities_Consistent>  (425) 
1

>  <s_lp_Variant>  (425) 
102:0-1

>  <s_i_glide_gridfile>  (425) 
pfpi4k_grid

>  <i_i_glide_lignum>  (425) 
10

>  <i_i_glide_rotatable_bonds>  (425) 
4

>  <r_i_docking_score>  (425) 
-4.06227

>  <r_i_glide_ligand_efficiency>  (425) 
-0.145081

>  <r_i_glide_ligand_efficiency_sa>  (425) 
-0.440551

>  <r_i_glide_ligand_efficiency_ln>  (425) 
-0.93769

>  <r_i_glide_gscore>  (425) 
-4.06227

>  <r_i_glide_lipo>  (425) 
-1.01792

>  <r_i_glide_hbond>  (425) 
-0.168921

>  <r_i_glide_metal>  (425) 
-0

>  <r_i_glide_rewards>  (425) 
-1.07266

>  <r_i_glide_evdw>  (425) 
-35.8672

>  <r_i_glide_ecoul>  (425) 
-2.77867

>  <r_i_glide_erotb>  (425) 
0.423852

>  <r_i_glide_esite>  (425) 
-0.0164608

>  <r_i_glide_emodel>  (425) 
-47.7587

>  <r_i_glide_energy>  (425) 
-38.6458

>  <r_i_glide_einternal>  (425) 
2.32098

>  <r_i_glide_intrahb_reward>  (425) 
-0

>  <i_i_glide_confnum>  (425) 
4

>  <i_i_glide_posenum>  (425) 
27

>  <r_i_glide_eff_state_penalty>  (425) 
0

>  <ligand_id>  (425) 
102

>  <original_smiles>  (425) 
COc1ccc(NC(=O)c2nn3c4c(cccc24)CCc2ccccc2-3)cc1

>  <smiles>  (425) 
[H]c1c([H])c([H])c2c(c1[H])-n1nc(C(=O)N([H])c3c([H])c([H])c(OC([H])([H])[H])c([H])c3[H])c3c([H])c([H])c([H])c(c31)C([H])([H])C2([H])[H]

$$$$
104:1:0
     RDKit          3D

 49 51  0  0  1  0  0  0  0  0999 V2000
    3.0633    0.4222    1.7988 C   0  0  0  0  0  0  0  0  0  0  0  0
    4.3234   -0.4408    1.6596 C   0  0  0  0  0  0  0  0  0  0  0  0
    5.4169    0.0843    1.8557 O   0  0  0  0  0  0  0  0  0  0  0  0
    4.2237   -1.7472    1.3176 N   0  0  0  0  0  0  0  0  0  0  0  0
    5.3931   -2.5724    1.0258 C   0  0  0  0  0  0  0  0  0  0  0  0
    5.6831   -2.5360   -0.4827 C   0  0  1  0  0  0  0  0  0  0  0  0
    6.7608   -3.5571   -0.8727 C   0  0  0  0  0  0  0  0  0  0  0  0
    8.1173   -3.3785   -0.1789 C   0  0  0  0  0  0  0  0  0  0  0  0
    9.0686   -4.1667   -0.8495 O   0  0  0  0  0  0  0  0  0  0  0  0
    4.4732   -2.7359   -1.3430 N   0  0  2  0  0  0  0  0  0  0  0  0
    4.5862   -1.9815   -2.6452 C   0  0  0  0  0  0  0  0  0  0  0  0
    4.5321   -0.4584   -2.4888 C   0  0  0  0  0  0  0  0  0  0  0  0
    3.9147    0.0863   -3.7810 C   0  0  0  0  0  0  0  0  0  0  0  0
    3.4693   -1.1153   -4.6067 C   0  0  0  0  0  0  0  0  0  0  0  0
    3.5325   -2.3369   -3.7055 C   0  0  0  0  0  0  0  0  0  0  0  0
    3.1122   -2.6253   -0.7184 C   0  0  1  0  0  0  0  0  0  0  0  0
    2.2445   -3.8245   -1.0814 C   0  0  0  0  0  0  0  0  0  0  0  0
    2.5419   -4.9878    0.2733 S   0  0  0  0  0  0  0  0  0  0  0  0
    1.3763   -5.8555    0.4460 O   0  0  0  0  0  0  0  0  0  0  0  0
    3.9166   -5.5229    0.1184 O   0  0  0  0  0  0  0  0  0  0  0  0
    2.5991   -3.6908    1.5443 C   0  0  0  0  0  0  0  0  0  0  0  0
    3.0095   -2.3983    0.8109 C   0  0  1  0  0  0  0  0  0  0  0  0
    2.3595   -0.0287    2.5010 H   0  0  0  0  0  0  0  0  0  0  0  0
    2.5585    0.5427    0.8381 H   0  0  0  0  0  0  0  0  0  0  0  0
    3.3154    1.4205    2.1641 H   0  0  0  0  0  0  0  0  0  0  0  0
    6.2652   -2.2025    1.5667 H   0  0  0  0  0  0  0  0  0  0  0  0
    5.2533   -3.6018    1.3530 H   0  0  0  0  0  0  0  0  0  0  0  0
    6.1133   -1.5508   -0.6679 H   0  0  0  0  0  0  0  0  0  0  0  0
    6.3692   -4.5571   -0.6663 H   0  0  0  0  0  0  0  0  0  0  0  0
    6.9216   -3.5055   -1.9499 H   0  0  0  0  0  0  0  0  0  0  0  0
    8.4600   -2.3388   -0.1869 H   0  0  0  0  0  0  0  0  0  0  0  0
    8.0550   -3.7266    0.8533 H   0  0  0  0  0  0  0  0  0  0  0  0
    9.5055   -3.6292   -1.5073 H   0  0  0  0  0  0  0  0  0  0  0  0
    5.5434   -2.2084   -3.1068 H   0  0  0  0  0  0  0  0  0  0  0  0
    3.8993   -0.2445   -1.6372 H   0  0  0  0  0  0  0  0  0  0  0  0
    5.4925    0.0210   -2.2912 H   0  0  0  0  0  0  0  0  0  0  0  0
    3.0175    0.6546   -3.5477 H   0  0  0  0  0  0  0  0  0  0  0  0
    4.5878    0.7142   -4.3432 H   0  0  0  0  0  0  0  0  0  0  0  0
    2.4463   -0.9581   -4.9443 H   0  0  0  0  0  0  0  0  0  0  0  0
    4.1362   -1.2047   -5.4545 H   0  0  0  0  0  0  0  0  0  0  0  0
    3.7592   -3.2778   -4.2186 H   0  0  0  0  0  0  0  0  0  0  0  0
    2.5150   -2.4018   -3.3153 H   0  0  0  0  0  0  0  0  0  0  0  0
    2.6209   -1.7702   -1.1552 H   0  0  0  0  0  0  0  0  0  0  0  0
    1.1987   -3.5405   -1.0833 H   0  0  0  0  0  0  0  0  0  0  0  0
    2.4345   -4.2418   -2.0469 H   0  0  0  0  0  0  0  0  0  0  0  0
    1.5992   -3.5888    1.9690 H   0  0  0  0  0  0  0  0  0  0  0  0
    3.3004   -4.0023    2.3166 H   0  0  0  0  0  0  0  0  0  0  0  0
    2.1618   -1.7364    0.9433 H   0  0  0  0  0  0  0  0  0  0  0  0
    4.5476   -3.7239   -1.5769 H   0  0  0  0  0  0  0  0  0  0  0  0
  1  2  1  0
  1 23  1  0
  1 24  1  0
  1 25  1  0
  2  3  2  0
  2  4  1  0
  4 22  1  0
  4  5  1  0
  5  6  1  0
  5 26  1  0
  5 27  1  0
  6  7  1  0
  6 10  1  0
  6 28  1  6
  7  8  1  0
  7 29  1  0
  7 30  1  0
  8  9  1  0
  8 31  1  0
  8 32  1  0
  9 33  1  0
 10 11  1  0
 10 16  1  0
 10 49  1  6
 11 15  1  0
 11 12  1  0
 11 34  1  0
 12 13  1  0
 12 35  1  0
 12 36  1  0
 13 14  1  0
 13 37  1  0
 13 38  1  0
 14 15  1  0
 14 39  1  0
 14 40  1  0
 15 41  1  0
 15 42  1  0
 16 22  1  0
 16 17  1  0
 16 43  1  6
 17 18  1  0
 17 44  1  0
 17 45  1  0
 18 19  2  0
 18 20  2  0
 18 21  1  0
 21 22  1  0
 21 46  1  0
 21 47  1  0
 22 48  1  6
M  CHG  1  10   1
M  END
>  <i_m_ct_stereo_status>  (426) 
1

>  <s_m_source_file>  (426) 
/var/tmp/pbs.5102103.sched01/tmpeh5ntauu/15412114_vq.sdf

>  <i_m_source_file_index>  (426) 
13

>  <i_lp_mmshare_version>  (426) 
48012

>  <i_f3d_flags>  (426) 
0

>  <s_epik_input>  (426) 
W0NIMl0xUyg9TykoPU8pW0NIMl1bQ0BIXShbQ0BIXTEyKU4oQyg9TylbQ0gzXSlbQ0gyXVtDQEBIXShbQ0gyXVtDSDJdW09IXSlOMltDSF0zW0NIMl1bQ0gyXVtDSDJdW0NIMl0z

>  <s_epik_cmdline>  (426) 
J2VwaWtfcHl0aG9uJywgJy1waHQnLCAnMi4wJywgJy1waCcsICc3LjAnLCAnLXRuJywgJzgnLCAnLW1hJywgJzIwMCcsICctaW1hZScsICc8aW5maWxlLm1hZT4nLCAnLW9tYWUnLCAnPG91dGZpbGUubWFlPic=

>  <r_epik_Ionization_Penalty>  (426) 
2.29014

>  <r_epik_Ionization_Penalty_Charging>  (426) 
2.29014

>  <r_epik_Ionization_Penalty_Neutral>  (426) 
5.1425e-08

>  <r_epik_State_Penalty>  (426) 
2.4401

>  <r_epik_Charging_Adjusted_Penalty>  (426) 
4.73024

>  <i_epik_Tot_Q>  (426) 
1

>  <i_epik_Tot_abs_Q>  (426) 
1

>  <s_lp_Force_Field>  (426) 
OPLS3e

>  <r_lp_Energy>  (426) 
34.23

>  <b_lp_Chiralities_Consistent>  (426) 
1

>  <s_lp_Variant>  (426) 
104:0-2

>  <s_i_glide_gridfile>  (426) 
pfpi4k_grid

>  <i_i_glide_lignum>  (426) 
13

>  <i_i_glide_rotatable_bonds>  (426) 
5

>  <r_i_docking_score>  (426) 
-5.38465

>  <r_i_glide_ligand_efficiency>  (426) 
-0.244757

>  <r_i_glide_ligand_efficiency_sa>  (426) 
-0.685818

>  <r_i_glide_ligand_efficiency_ln>  (426) 
-1.31621

>  <r_i_glide_gscore>  (426) 
-5.38465

>  <r_i_glide_lipo>  (426) 
-0.824442

>  <r_i_glide_hbond>  (426) 
-0.511988

>  <r_i_glide_metal>  (426) 
-0

>  <r_i_glide_rewards>  (426) 
-1.28951

>  <r_i_glide_evdw>  (426) 
-17.307

>  <r_i_glide_ecoul>  (426) 
-13.8608

>  <r_i_glide_erotb>  (426) 
0.359776

>  <r_i_glide_esite>  (426) 
-0.174016

>  <r_i_glide_emodel>  (426) 
-41.6172

>  <r_i_glide_energy>  (426) 
-31.1678

>  <r_i_glide_einternal>  (426) 
3.9383

>  <r_i_glide_intrahb_reward>  (426) 
-0

>  <i_i_glide_confnum>  (426) 
1

>  <i_i_glide_posenum>  (426) 
19

>  <r_i_glide_eff_state_penalty>  (426) 
0

>  <ligand_id>  (426) 
104

>  <original_smiles>  (426) 
CC(=O)N1CC(CCO)N(C2CCCC2)C2CS(=O)(=O)CC21

>  <smiles>  (426) 
[H]OC([H])([H])C([H])([H])C1([H])C([H])([H])N(C(=O)C([H])([H])[H])C2([H])C([H])(C([H])([H])S(=O)(=O)C2([H])[H])[N+]1([H])C1([H])C([H])([H])C([H])([H])C([H])([H])C1([H])[H]

$$$$
104:1:1
     RDKit          3D

 49 51  0  0  1  0  0  0  0  0999 V2000
    2.8380    0.4043    1.9200 C   0  0  0  0  0  0  0  0  0  0  0  0
    4.1114   -0.4536    2.0053 C   0  0  0  0  0  0  0  0  0  0  0  0
    5.1701    0.0938    2.2649 O   0  0  0  0  0  0  0  0  0  0  0  0
    4.0395   -1.7988    1.7783 N   0  0  0  0  0  0  0  0  0  0  0  0
    5.2393   -2.6255    1.6799 C   0  0  0  0  0  0  0  0  0  0  0  0
    5.6522   -2.7351    0.2063 C   0  0  1  0  0  0  0  0  0  0  0  0
    6.7632   -3.7829    0.0189 C   0  0  0  0  0  0  0  0  0  0  0  0
    8.2037   -3.2572   -0.0091 C   0  0  0  0  0  0  0  0  0  0  0  0
    8.3934   -2.4270   -1.1348 O   0  0  0  0  0  0  0  0  0  0  0  0
    4.5121   -3.0202   -0.7494 N   0  0  2  0  0  0  0  0  0  0  0  0
    4.7492   -2.3818   -2.0971 C   0  0  0  0  0  0  0  0  0  0  0  0
    4.6562   -0.8314   -2.0623 C   0  0  0  0  0  0  0  0  0  0  0  0
    4.1326   -0.4600   -3.4548 C   0  0  0  0  0  0  0  0  0  0  0  0
    3.2575   -1.6244   -3.8920 C   0  0  0  0  0  0  0  0  0  0  0  0
    3.7947   -2.8986   -3.2189 C   0  0  0  0  0  0  0  0  0  0  0  0
    3.0816   -2.8402   -0.2563 C   0  0  1  0  0  0  0  0  0  0  0  0
    2.2570   -4.0737   -0.5396 C   0  0  0  0  0  0  0  0  0  0  0  0
    2.4553   -5.1266    0.9088 S   0  0  0  0  0  0  0  0  0  0  0  0
    1.2646   -5.9574    1.0654 O   0  0  0  0  0  0  0  0  0  0  0  0
    3.8274   -5.6901    0.8524 O   0  0  0  0  0  0  0  0  0  0  0  0
    2.4373   -3.7239    2.0696 C   0  0  0  0  0  0  0  0  0  0  0  0
    2.8754   -2.4942    1.2436 C   0  0  1  0  0  0  0  0  0  0  0  0
    2.0743    0.0113    2.5898 H   0  0  0  0  0  0  0  0  0  0  0  0
    2.4396    0.4239    0.9036 H   0  0  0  0  0  0  0  0  0  0  0  0
    3.0421    1.4367    2.2179 H   0  0  0  0  0  0  0  0  0  0  0  0
    6.0719   -2.2077    2.2369 H   0  0  0  0  0  0  0  0  0  0  0  0
    5.0596   -3.6174    2.0977 H   0  0  0  0  0  0  0  0  0  0  0  0
    6.0648   -1.7610   -0.0409 H   0  0  0  0  0  0  0  0  0  0  0  0
    6.6708   -4.5766    0.7662 H   0  0  0  0  0  0  0  0  0  0  0  0
    6.5940   -4.2455   -0.9516 H   0  0  0  0  0  0  0  0  0  0  0  0
    8.4652   -2.7048    0.8929 H   0  0  0  0  0  0  0  0  0  0  0  0
    8.8850   -4.1065   -0.0981 H   0  0  0  0  0  0  0  0  0  0  0  0
    9.3253   -2.4171   -1.3535 H   0  0  0  0  0  0  0  0  0  0  0  0
    5.7625   -2.6279   -2.4160 H   0  0  0  0  0  0  0  0  0  0  0  0
    3.9312   -0.4738   -1.3215 H   0  0  0  0  0  0  0  0  0  0  0  0
    5.6161   -0.3412   -1.8435 H   0  0  0  0  0  0  0  0  0  0  0  0
    3.6043    0.5046   -3.4582 H   0  0  0  0  0  0  0  0  0  0  0  0
    4.9351   -0.4623   -4.1854 H   0  0  0  0  0  0  0  0  0  0  0  0
    2.2538   -1.4764   -3.5027 H   0  0  0  0  0  0  0  0  0  0  0  0
    3.2020   -1.7241   -4.9751 H   0  0  0  0  0  0  0  0  0  0  0  0
    4.3614   -3.5482   -3.9190 H   0  0  0  0  0  0  0  0  0  0  0  0
    2.8879   -3.4122   -2.9252 H   0  0  0  0  0  0  0  0  0  0  0  0
    2.6229   -2.0643   -0.8395 H   0  0  0  0  0  0  0  0  0  0  0  0
    1.2321   -3.8197   -0.7131 H   0  0  0  0  0  0  0  0  0  0  0  0
    2.5544   -4.6556   -1.4190 H   0  0  0  0  0  0  0  0  0  0  0  0
    1.3950   -3.6038    2.3797 H   0  0  0  0  0  0  0  0  0  0  0  0
    3.0631   -3.9621    2.9249 H   0  0  0  0  0  0  0  0  0  0  0  0
    2.0079   -1.8391    1.2447 H   0  0  0  0  0  0  0  0  0  0  0  0
    4.6041   -4.0313   -0.8711 H   0  0  0  0  0  0  0  0  0  0  0  0
  1  2  1  0
  1 23  1  0
  1 24  1  0
  1 25  1  0
  2  3  2  0
  2  4  1  0
  4 22  1  0
  4  5  1  0
  5  6  1  0
  5 26  1  0
  5 27  1  0
  6  7  1  0
  6 10  1  0
  6 28  1  6
  7  8  1  0
  7 29  1  0
  7 30  1  0
  8  9  1  0
  8 31  1  0
  8 32  1  0
  9 33  1  0
 10 11  1  0
 10 16  1  0
 10 49  1  6
 11 15  1  0
 11 12  1  0
 11 34  1  0
 12 13  1  0
 12 35  1  0
 12 36  1  0
 13 14  1  0
 13 37  1  0
 13 38  1  0
 14 15  1  0
 14 39  1  0
 14 40  1  0
 15 41  1  0
 15 42  1  0
 16 22  1  0
 16 17  1  0
 16 43  1  6
 17 18  1  0
 17 44  1  0
 17 45  1  0
 18 19  2  0
 18 20  2  0
 18 21  1  0
 21 22  1  0
 21 46  1  0
 21 47  1  0
 22 48  1  6
M  CHG  1  10   1
M  END
>  <i_m_ct_stereo_status>  (427) 
1

>  <s_m_source_file>  (427) 
/var/tmp/pbs.5102103.sched01/tmpeh5ntauu/15412114_vq.sdf

>  <i_m_source_file_index>  (427) 
13

>  <i_lp_mmshare_version>  (427) 
48012

>  <i_f3d_flags>  (427) 
0

>  <s_epik_input>  (427) 
W0NIMl0xUyg9TykoPU8pW0NIMl1bQ0BIXShbQ0BIXTEyKU4oQyg9TylbQ0gzXSlbQ0gyXVtDQEBIXShbQ0gyXVtDSDJdW09IXSlOMltDSF0zW0NIMl1bQ0gyXVtDSDJdW0NIMl0z

>  <s_epik_cmdline>  (427) 
J2VwaWtfcHl0aG9uJywgJy1waHQnLCAnMi4wJywgJy1waCcsICc3LjAnLCAnLXRuJywgJzgnLCAnLW1hJywgJzIwMCcsICctaW1hZScsICc8aW5maWxlLm1hZT4nLCAnLW9tYWUnLCAnPG91dGZpbGUubWFlPic=

>  <r_epik_Ionization_Penalty>  (427) 
2.29014

>  <r_epik_Ionization_Penalty_Charging>  (427) 
2.29014

>  <r_epik_Ionization_Penalty_Neutral>  (427) 
5.1425e-08

>  <r_epik_State_Penalty>  (427) 
2.4401

>  <r_epik_Charging_Adjusted_Penalty>  (427) 
4.73024

>  <i_epik_Tot_Q>  (427) 
1

>  <i_epik_Tot_abs_Q>  (427) 
1

>  <s_lp_Force_Field>  (427) 
OPLS3e

>  <r_lp_Energy>  (427) 
34.23

>  <b_lp_Chiralities_Consistent>  (427) 
1

>  <s_lp_Variant>  (427) 
104:0-2

>  <s_i_glide_gridfile>  (427) 
pfpi4k_grid

>  <i_i_glide_lignum>  (427) 
13

>  <i_i_glide_rotatable_bonds>  (427) 
5

>  <r_i_docking_score>  (427) 
-5.24579

>  <r_i_glide_ligand_efficiency>  (427) 
-0.238445

>  <r_i_glide_ligand_efficiency_sa>  (427) 
-0.668132

>  <r_i_glide_ligand_efficiency_ln>  (427) 
-1.28226

>  <r_i_glide_gscore>  (427) 
-5.24579

>  <r_i_glide_lipo>  (427) 
-0.941793

>  <r_i_glide_hbond>  (427) 
-0.475375

>  <r_i_glide_metal>  (427) 
-0

>  <r_i_glide_rewards>  (427) 
-1.24353

>  <r_i_glide_evdw>  (427) 
-16.3147

>  <r_i_glide_ecoul>  (427) 
-13.2518

>  <r_i_glide_erotb>  (427) 
0.359776

>  <r_i_glide_esite>  (427) 
-0.141368

>  <r_i_glide_emodel>  (427) 
-38.6782

>  <r_i_glide_energy>  (427) 
-29.5665

>  <r_i_glide_einternal>  (427) 
5.48189

>  <r_i_glide_intrahb_reward>  (427) 
-0

>  <i_i_glide_confnum>  (427) 
4

>  <i_i_glide_posenum>  (427) 
39

>  <r_i_glide_eff_state_penalty>  (427) 
0

>  <ligand_id>  (427) 
104

>  <original_smiles>  (427) 
CC(=O)N1CC(CCO)N(C2CCCC2)C2CS(=O)(=O)CC21

>  <smiles>  (427) 
[H]OC([H])([H])C([H])([H])C1([H])C([H])([H])N(C(=O)C([H])([H])[H])C2([H])C([H])(C([H])([H])S(=O)(=O)C2([H])[H])[N+]1([H])C1([H])C([H])([H])C([H])([H])C([H])([H])C1([H])[H]

$$$$
104:1:2
     RDKit          3D

 49 51  0  0  1  0  0  0  0  0999 V2000
    6.8069   -6.2592    1.2937 C   0  0  0  0  0  0  0  0  0  0  0  0
    6.8890   -4.7340    1.2833 C   0  0  0  0  0  0  0  0  0  0  0  0
    7.9530   -4.2242    0.9144 O   0  0  0  0  0  0  0  0  0  0  0  0
    5.8074   -4.0007    1.6625 N   0  0  0  0  0  0  0  0  0  0  0  0
    4.4818   -4.5803    1.8672 C   0  0  0  0  0  0  0  0  0  0  0  0
    3.7048   -4.4745    0.5445 C   0  0  1  0  0  0  0  0  0  0  0  0
    2.2181   -4.8363    0.7592 C   0  0  0  0  0  0  0  0  0  0  0  0
    1.9568   -6.2768    1.2258 C   0  0  0  0  0  0  0  0  0  0  0  0
    0.5616   -6.5232    1.2061 O   0  0  0  0  0  0  0  0  0  0  0  0
    3.7934   -3.1205   -0.1242 N   0  0  2  0  0  0  0  0  0  0  0  0
    3.7165   -3.2523   -1.6055 C   0  0  0  0  0  0  0  0  0  0  0  0
    4.9476   -3.9501   -2.2105 C   0  0  0  0  0  0  0  0  0  0  0  0
    5.1008   -3.3798   -3.6086 C   0  0  0  0  0  0  0  0  0  0  0  0
    4.1209   -2.1986   -3.7477 C   0  0  0  0  0  0  0  0  0  0  0  0
    3.6068   -1.9044   -2.3474 C   0  0  0  0  0  0  0  0  0  0  0  0
    4.8609   -2.1378    0.3181 C   0  0  1  0  0  0  0  0  0  0  0  0
    4.2282   -0.7509    0.6052 C   0  0  0  0  0  0  0  0  0  0  0  0
    3.7797   -0.8404    2.3618 S   0  0  0  0  0  0  0  0  0  0  0  0
    3.8119    0.4981    2.9638 O   0  0  0  0  0  0  0  0  0  0  0  0
    2.6058   -1.7119    2.4899 O   0  0  0  0  0  0  0  0  0  0  0  0
    5.2826   -1.7797    2.8260 C   0  0  0  0  0  0  0  0  0  0  0  0
    5.7285   -2.5361    1.5407 C   0  0  1  0  0  0  0  0  0  0  0  0
    5.9838   -6.6106    0.6742 H   0  0  0  0  0  0  0  0  0  0  0  0
    6.6518   -6.6257    2.3108 H   0  0  0  0  0  0  0  0  0  0  0  0
    7.7203   -6.7196    0.9139 H   0  0  0  0  0  0  0  0  0  0  0  0
    4.5390   -5.6194    2.2218 H   0  0  0  0  0  0  0  0  0  0  0  0
    3.9610   -4.0374    2.6586 H   0  0  0  0  0  0  0  0  0  0  0  0
    4.1252   -5.2351   -0.1238 H   0  0  0  0  0  0  0  0  0  0  0  0
    1.8138   -4.1383    1.4946 H   0  0  0  0  0  0  0  0  0  0  0  0
    1.6798   -4.6893   -0.1735 H   0  0  0  0  0  0  0  0  0  0  0  0
    2.4533   -6.9905    0.5716 H   0  0  0  0  0  0  0  0  0  0  0  0
    2.3395   -6.4487    2.2330 H   0  0  0  0  0  0  0  0  0  0  0  0
    0.4262   -7.4519    1.3705 H   0  0  0  0  0  0  0  0  0  0  0  0
    2.8250   -3.8450   -1.8623 H   0  0  0  0  0  0  0  0  0  0  0  0
    5.8607   -3.7374   -1.6298 H   0  0  0  0  0  0  0  0  0  0  0  0
    4.8579   -5.0418   -2.2286 H   0  0  0  0  0  0  0  0  0  0  0  0
    6.1376   -3.0659   -3.7156 H   0  0  0  0  0  0  0  0  0  0  0  0
    4.8948   -4.1326   -4.3757 H   0  0  0  0  0  0  0  0  0  0  0  0
    4.6020   -1.3170   -4.1678 H   0  0  0  0  0  0  0  0  0  0  0  0
    3.2834   -2.4697   -4.4013 H   0  0  0  0  0  0  0  0  0  0  0  0
    2.5840   -1.5285   -2.3454 H   0  0  0  0  0  0  0  0  0  0  0  0
    4.2510   -1.1271   -1.9085 H   0  0  0  0  0  0  0  0  0  0  0  0
    5.5732   -2.0082   -0.5083 H   0  0  0  0  0  0  0  0  0  0  0  0
    4.9680    0.0434    0.4925 H   0  0  0  0  0  0  0  0  0  0  0  0
    3.3296   -0.5171    0.0272 H   0  0  0  0  0  0  0  0  0  0  0  0
    6.0353   -1.0380    3.0776 H   0  0  0  0  0  0  0  0  0  0  0  0
    5.0968   -2.3997    3.7106 H   0  0  0  0  0  0  0  0  0  0  0  0
    6.7352   -2.1484    1.3398 H   0  0  0  0  0  0  0  0  0  0  0  0
    2.9319   -2.6809    0.1613 H   0  0  0  0  0  0  0  0  0  0  0  0
  1  2  1  0
  1 23  1  0
  1 24  1  0
  1 25  1  0
  2  3  2  0
  2  4  1  0
  4 22  1  0
  4  5  1  0
  5  6  1  0
  5 26  1  0
  5 27  1  0
  6  7  1  0
  6 10  1  0
  6 28  1  6
  7  8  1  0
  7 29  1  0
  7 30  1  0
  8  9  1  0
  8 31  1  0
  8 32  1  0
  9 33  1  0
 10 11  1  0
 10 16  1  0
 10 49  1  1
 11 15  1  0
 11 12  1  0
 11 34  1  0
 12 13  1  0
 12 35  1  0
 12 36  1  0
 13 14  1  0
 13 37  1  0
 13 38  1  0
 14 15  1  0
 14 39  1  0
 14 40  1  0
 15 41  1  0
 15 42  1  0
 16 22  1  0
 16 17  1  0
 16 43  1  6
 17 18  1  0
 17 44  1  0
 17 45  1  0
 18 19  2  0
 18 20  2  0
 18 21  1  0
 21 22  1  0
 21 46  1  0
 21 47  1  0
 22 48  1  6
M  CHG  1  10   1
M  END
>  <i_m_ct_stereo_status>  (428) 
1

>  <s_m_source_file>  (428) 
/var/tmp/pbs.5102103.sched01/tmpeh5ntauu/15412114_vq.sdf

>  <i_m_source_file_index>  (428) 
13

>  <i_lp_mmshare_version>  (428) 
48012

>  <i_f3d_flags>  (428) 
0

>  <s_epik_input>  (428) 
W0NIMl0xUyg9TykoPU8pW0NIMl1bQ0BIXShbQ0BIXTEyKU4oQyg9TylbQ0gzXSlbQ0gyXVtDQEBIXShbQ0gyXVtDSDJdW09IXSlOMltDSF0zW0NIMl1bQ0gyXVtDSDJdW0NIMl0z

>  <s_epik_cmdline>  (428) 
J2VwaWtfcHl0aG9uJywgJy1waHQnLCAnMi4wJywgJy1waCcsICc3LjAnLCAnLXRuJywgJzgnLCAnLW1hJywgJzIwMCcsICctaW1hZScsICc8aW5maWxlLm1hZT4nLCAnLW9tYWUnLCAnPG91dGZpbGUubWFlPic=

>  <r_epik_Ionization_Penalty>  (428) 
2.29014

>  <r_epik_Ionization_Penalty_Charging>  (428) 
2.29014

>  <r_epik_Ionization_Penalty_Neutral>  (428) 
5.1425e-08

>  <r_epik_State_Penalty>  (428) 
2.4401

>  <r_epik_Charging_Adjusted_Penalty>  (428) 
4.73024

>  <i_epik_Tot_Q>  (428) 
1

>  <i_epik_Tot_abs_Q>  (428) 
1

>  <s_lp_Force_Field>  (428) 
OPLS3e

>  <r_lp_Energy>  (428) 
34.23

>  <b_lp_Chiralities_Consistent>  (428) 
1

>  <s_lp_Variant>  (428) 
104:0-2

>  <s_i_glide_gridfile>  (428) 
pfpi4k_grid

>  <i_i_glide_lignum>  (428) 
13

>  <i_i_glide_rotatable_bonds>  (428) 
5

>  <r_i_docking_score>  (428) 
-3.99176

>  <r_i_glide_ligand_efficiency>  (428) 
-0.181444

>  <r_i_glide_ligand_efficiency_sa>  (428) 
-0.508412

>  <r_i_glide_ligand_efficiency_ln>  (428) 
-0.975732

>  <r_i_glide_gscore>  (428) 
-3.99176

>  <r_i_glide_lipo>  (428) 
-0.769635

>  <r_i_glide_hbond>  (428) 
-0.15907

>  <r_i_glide_metal>  (428) 
-0

>  <r_i_glide_rewards>  (428) 
-1.39087

>  <r_i_glide_evdw>  (428) 
-22.9007

>  <r_i_glide_ecoul>  (428) 
-6.8489

>  <r_i_glide_erotb>  (428) 
0.513966

>  <r_i_glide_esite>  (428) 
-0.0137844

>  <r_i_glide_emodel>  (428) 
-37.3102

>  <r_i_glide_energy>  (428) 
-29.7496

>  <r_i_glide_einternal>  (428) 
3.40563

>  <r_i_glide_intrahb_reward>  (428) 
-0

>  <i_i_glide_confnum>  (428) 
1

>  <i_i_glide_posenum>  (428) 
4

>  <r_i_glide_eff_state_penalty>  (428) 
0

>  <ligand_id>  (428) 
104

>  <original_smiles>  (428) 
CC(=O)N1CC(CCO)N(C2CCCC2)C2CS(=O)(=O)CC21

>  <smiles>  (428) 
[H]OC([H])([H])C([H])([H])C1([H])C([H])([H])N(C(=O)C([H])([H])[H])C2([H])C([H])(C([H])([H])S(=O)(=O)C2([H])[H])[N+]1([H])C1([H])C([H])([H])C([H])([H])C([H])([H])C1([H])[H]

$$$$
105:0:0
     RDKit          3D

 69 72  0  0  1  0  0  0  0  0999 V2000
    8.3022   -6.6778    0.5520 C   0  0  0  0  0  0  0  0  0  0  0  0
    8.3807   -5.3988    1.3674 C   0  0  0  0  0  0  0  0  0  0  0  0
    9.4692   -4.9612    1.6886 O   0  0  0  0  0  0  0  0  0  0  0  0
    7.2114   -4.7857    1.6872 O   0  0  0  0  0  0  0  0  0  0  0  0
    5.9540   -5.1342    1.1292 C   0  0  2  0  0  0  0  0  0  0  0  0
    5.7726   -4.2213   -0.0555 C   0  0  0  0  0  0  0  0  0  0  0  0
    4.7364   -3.5269   -0.5321 C   0  0  0  0  0  0  0  0  0  0  0  0
    4.8776   -2.6321   -1.7648 C   0  0  0  0  0  0  0  0  0  0  0  0
    5.8721   -1.4941   -1.4948 C   0  0  0  0  0  0  0  0  0  0  0  0
    5.3210   -3.4336   -3.0083 C   0  0  0  0  0  0  0  0  0  0  0  0
    3.4775   -2.0577   -2.0027 C   0  0  0  0  0  0  0  0  0  0  0  0
    2.5756   -3.0864   -1.3546 C   0  0  0  0  0  0  0  0  0  0  0  0
    3.3027   -3.5221   -0.0594 C   0  0  2  0  0  0  0  0  0  0  0  0
    3.0671   -1.9607    1.1696 Br  0  0  0  0  0  0  0  0  0  0  0  0
    2.6876   -4.7867    0.6456 C   0  0  1  0  0  0  0  0  0  0  0  0
    1.8965   -5.4688   -0.3284 O   0  0  0  0  0  0  0  0  0  0  0  0
    3.4688   -5.8031    1.6303 C   0  0  2  0  0  0  0  0  0  0  0  0
    3.8182   -6.9316    0.8188 O   0  0  0  0  0  0  0  0  0  0  0  0
    2.4523   -6.3603    2.7726 C   0  0  1  0  0  0  0  0  0  0  0  0
    1.9714   -5.1734    3.6552 C   0  0  0  0  0  0  0  0  0  0  0  0
    1.1786   -7.0928    2.1678 C   0  0  0  0  0  0  0  0  0  0  0  0
    0.0306   -7.5196    3.0901 C   0  0  0  0  0  0  0  0  0  0  0  0
   -0.9683   -8.4805    2.7145 C   0  0  0  0  0  0  0  0  0  0  0  0
   -1.8173   -8.5716    3.7693 C   0  0  0  0  0  0  0  0  0  0  0  0
   -1.4746   -7.7617    4.7635 O   0  0  0  0  0  0  0  0  0  0  0  0
   -0.3809   -7.1302    4.3571 C   0  0  0  0  0  0  0  0  0  0  0  0
    3.1456   -7.4067    3.7205 C   0  0  1  0  0  0  0  0  0  0  0  0
    3.3703   -8.6817    3.1290 O   0  0  0  0  0  0  0  0  0  0  0  0
    4.4480   -6.8517    4.3240 C   0  0  1  0  0  0  0  0  0  0  0  0
    5.0402   -7.7549    5.2381 O   0  0  0  0  0  0  0  0  0  0  0  0
    5.4464   -6.3784    3.2573 C   0  0  1  0  0  0  0  0  0  0  0  0
    6.0235   -7.5296    2.6548 O   0  0  0  0  0  0  0  0  0  0  0  0
    4.8736   -5.3019    2.2378 C   0  0  1  0  0  0  0  0  0  0  0  0
    4.7825   -3.9596    3.0035 C   0  0  0  0  0  0  0  0  0  0  0  0
    7.8048   -7.4585    1.1167 H   0  0  0  0  0  0  0  0  0  0  0  0
    9.2707   -7.0467    0.2192 H   0  0  0  0  0  0  0  0  0  0  0  0
    7.7409   -6.4641   -0.3317 H   0  0  0  0  0  0  0  0  0  0  0  0
    5.9846   -6.1040    0.6670 H   0  0  0  0  0  0  0  0  0  0  0  0
    6.6886   -4.1009   -0.6041 H   0  0  0  0  0  0  0  0  0  0  0  0
    5.8405   -0.7795   -2.3168 H   0  0  0  0  0  0  0  0  0  0  0  0
    6.8906   -1.8712   -1.3737 H   0  0  0  0  0  0  0  0  0  0  0  0
    5.6193   -0.9455   -0.5865 H   0  0  0  0  0  0  0  0  0  0  0  0
    5.3233   -2.8028   -3.8973 H   0  0  0  0  0  0  0  0  0  0  0  0
    4.6470   -4.2655   -3.2142 H   0  0  0  0  0  0  0  0  0  0  0  0
    6.3268   -3.8396   -2.9026 H   0  0  0  0  0  0  0  0  0  0  0  0
    3.3557   -1.1004   -1.4975 H   0  0  0  0  0  0  0  0  0  0  0  0
    3.2369   -1.8884   -3.0509 H   0  0  0  0  0  0  0  0  0  0  0  0
    1.5811   -2.7271   -1.1868 H   0  0  0  0  0  0  0  0  0  0  0  0
    2.4363   -3.8841   -2.0787 H   0  0  0  0  0  0  0  0  0  0  0  0
    1.8824   -4.3412    1.2156 H   0  0  0  0  0  0  0  0  0  0  0  0
    2.4595   -5.7366   -1.0203 H   0  0  0  0  0  0  0  0  0  0  0  0
    4.2204   -6.5895    0.0332 H   0  0  0  0  0  0  0  0  0  0  0  0
    1.4732   -5.5167    4.5231 H   0  0  0  0  0  0  0  0  0  0  0  0
    1.3165   -4.4561    3.1590 H   0  0  0  0  0  0  0  0  0  0  0  0
    2.7408   -4.6911    4.2583 H   0  0  0  0  0  0  0  0  0  0  0  0
    0.6473   -6.4626    1.4610 H   0  0  0  0  0  0  0  0  0  0  0  0
    1.4740   -7.9614    1.5522 H   0  0  0  0  0  0  0  0  0  0  0  0
   -1.0933   -9.0836    1.8179 H   0  0  0  0  0  0  0  0  0  0  0  0
   -2.6870   -9.1208    4.0733 H   0  0  0  0  0  0  0  0  0  0  0  0
   -0.1134   -6.4782    5.1676 H   0  0  0  0  0  0  0  0  0  0  0  0
    2.4721   -7.6298    4.5437 H   0  0  0  0  0  0  0  0  0  0  0  0
    3.8853   -8.5729    2.3481 H   0  0  0  0  0  0  0  0  0  0  0  0
    4.2120   -5.9938    4.9440 H   0  0  0  0  0  0  0  0  0  0  0  0
    4.3828   -8.0251    5.8593 H   0  0  0  0  0  0  0  0  0  0  0  0
    6.2883   -5.9301    3.7832 H   0  0  0  0  0  0  0  0  0  0  0  0
    5.3737   -8.0023    2.1638 H   0  0  0  0  0  0  0  0  0  0  0  0
    3.7816   -3.5793    3.0917 H   0  0  0  0  0  0  0  0  0  0  0  0
    5.3215   -3.1587    2.5120 H   0  0  0  0  0  0  0  0  0  0  0  0
    5.1746   -4.0288    4.0146 H   0  0  0  0  0  0  0  0  0  0  0  0
  1  2  1  0
  1 35  1  0
  1 36  1  0
  1 37  1  0
  2  3  2  0
  2  4  1  0
  4  5  1  0
  5 33  1  0
  5  6  1  0
  5 38  1  6
  6  7  2  0
  6 39  1  0
  7 13  1  0
  7  8  1  0
  8  9  1  0
  8 10  1  0
  8 11  1  0
  9 40  1  0
  9 41  1  0
  9 42  1  0
 10 43  1  0
 10 44  1  0
 10 45  1  0
 11 12  1  0
 11 46  1  0
 11 47  1  0
 12 13  1  0
 12 48  1  0
 12 49  1  0
 13 14  1  1
 13 15  1  0
 15 16  1  0
 15 17  1  0
 15 50  1  1
 16 51  1  0
 17 33  1  0
 17 18  1  6
 17 19  1  0
 18 52  1  0
 19 20  1  1
 19 21  1  0
 19 27  1  0
 20 53  1  0
 20 54  1  0
 20 55  1  0
 21 22  1  0
 21 56  1  0
 21 57  1  0
 22 26  2  0
 22 23  1  0
 23 24  2  0
 23 58  1  0
 24 25  1  0
 24 59  1  0
 25 26  1  0
 26 60  1  0
 27 28  1  0
 27 29  1  0
 27 61  1  1
 28 62  1  0
 29 30  1  0
 29 31  1  0
 29 63  1  1
 30 64  1  0
 31 32  1  0
 31 33  1  0
 31 65  1  1
 32 66  1  0
 33 34  1  1
 34 67  1  0
 34 68  1  0
 34 69  1  0
M  END
>  <i_m_ct_stereo_status>  (429) 
1

>  <s_m_source_file>  (429) 
/var/tmp/pbs.5102103.sched01/tmpeh5ntauu/15412114_vq.sdf

>  <i_m_source_file_index>  (429) 
14

>  <i_lp_mmshare_version>  (429) 
48012

>  <i_f3d_flags>  (429) 
0

>  <s_epik_input>  (429) 
W0NIMl0xW0NIMl1DKFtDSDNdKShbQ0gzXSlDKFtDQEBdMTJCcik9W0NIXVtDQEBIXShPQyg9TylbQ0gzXSlbQ0BAXTMoW0NIM10pW0NAXShbT0hdKShbQ0BASF0yW09IXSlbQ0BdKFtDSDNdKShbQ0BASF0oW09IXSlbQ0BASF0oW09IXSlbQ0BIXTNbT0hdKVtDSDJdYzRbY0hdW2NIXW9bY0hdNA==

>  <s_epik_cmdline>  (429) 
J2VwaWtfcHl0aG9uJywgJy1waHQnLCAnMi4wJywgJy1waCcsICc3LjAnLCAnLXRuJywgJzgnLCAnLW1hJywgJzIwMCcsICctaW1hZScsICc8aW5maWxlLm1hZT4nLCAnLW9tYWUnLCAnPG91dGZpbGUubWFlPic=

>  <r_lp_tautomer_probability>  (429) 
1

>  <r_epik_Ionization_Penalty>  (429) 
5.5375e-06

>  <r_epik_Ionization_Penalty_Charging>  (429) 
0

>  <r_epik_Ionization_Penalty_Neutral>  (429) 
5.5375e-06

>  <r_epik_State_Penalty>  (429) 
-0

>  <r_epik_Charging_Adjusted_Penalty>  (429) 
0

>  <i_epik_Tot_Q>  (429) 
0

>  <i_epik_Tot_abs_Q>  (429) 
0

>  <s_epik_Chemistry_Notes>  (429) 
This compound has an ester and may undergo hydrolysis at high or low pH.

>  <s_lp_Force_Field>  (429) 
OPLS3e

>  <r_lp_Energy>  (429) 
71.6904

>  <b_lp_Chiralities_Consistent>  (429) 
1

>  <s_lp_Variant>  (429) 
105:0-1

>  <s_i_glide_gridfile>  (429) 
pfpi4k_grid

>  <i_i_glide_lignum>  (429) 
14

>  <i_i_glide_rotatable_bonds>  (429) 
9

>  <r_i_docking_score>  (429) 
-3.52301

>  <r_i_glide_ligand_efficiency>  (429) 
-0.103618

>  <r_i_glide_ligand_efficiency_sa>  (429) 
-0.335682

>  <r_i_glide_ligand_efficiency_ln>  (429) 
-0.778331

>  <r_i_glide_gscore>  (429) 
-3.52301

>  <r_i_glide_lipo>  (429) 
-0.449175

>  <r_i_glide_hbond>  (429) 
-0.0168556

>  <r_i_glide_metal>  (429) 
-0

>  <r_i_glide_rewards>  (429) 
-1.03598

>  <r_i_glide_evdw>  (429) 
-23.8107

>  <r_i_glide_ecoul>  (429) 
-6.9377

>  <r_i_glide_erotb>  (429) 
0.210194

>  <r_i_glide_esite>  (429) 
0

>  <r_i_glide_emodel>  (429) 
-42.1716

>  <r_i_glide_energy>  (429) 
-30.7484

>  <r_i_glide_einternal>  (429) 
7.69576

>  <r_i_glide_intrahb_reward>  (429) 
-1

>  <i_i_glide_confnum>  (429) 
4

>  <i_i_glide_posenum>  (429) 
23

>  <r_i_glide_eff_state_penalty>  (429) 
0

>  <ligand_id>  (429) 
105

>  <original_smiles>  (429) 
CC(=O)OC1C=C2C(C)(C)CCC2(Br)C(O)C2(O)C(C)(Cc3ccoc3)C(O)C(O)C(O)C12C

>  <smiles>  (429) 
[H]OC1([H])C([H])(O[H])C2(C([H])([H])[H])C([H])(OC(=O)C([H])([H])[H])C([H])=C3C(Br)(C([H])([H])C([H])([H])C3(C([H])([H])[H])C([H])([H])[H])C([H])(O[H])C2(O[H])C(C([H])([H])[H])(C([H])([H])c2c([H])oc([H])c2[H])C1([H])O[H]

$$$$
105:0:1
     RDKit          3D

 69 72  0  0  1  0  0  0  0  0999 V2000
    8.1178   -6.8026    0.5690 C   0  0  0  0  0  0  0  0  0  0  0  0
    8.1518   -5.7784    1.7043 C   0  0  0  0  0  0  0  0  0  0  0  0
    9.2127   -5.4528    2.2243 O   0  0  0  0  0  0  0  0  0  0  0  0
    6.9661   -5.2428    2.0876 O   0  0  0  0  0  0  0  0  0  0  0  0
    5.7438   -5.4570    1.3818 C   0  0  2  0  0  0  0  0  0  0  0  0
    5.7465   -4.5018    0.2028 C   0  0  0  0  0  0  0  0  0  0  0  0
    4.8125   -3.7366   -0.3667 C   0  0  0  0  0  0  0  0  0  0  0  0
    5.1468   -2.8697   -1.5808 C   0  0  0  0  0  0  0  0  0  0  0  0
    6.2180   -1.8409   -1.2194 C   0  0  0  0  0  0  0  0  0  0  0  0
    5.6118   -3.6990   -2.7905 C   0  0  0  0  0  0  0  0  0  0  0  0
    3.8324   -2.1728   -1.9457 C   0  0  0  0  0  0  0  0  0  0  0  0
    2.7803   -3.1210   -1.3867 C   0  0  0  0  0  0  0  0  0  0  0  0
    3.3549   -3.5883   -0.0297 C   0  0  2  0  0  0  0  0  0  0  0  0
    3.2010   -1.9816    1.1642 Br  0  0  0  0  0  0  0  0  0  0  0  0
    2.5834   -4.7923    0.6368 C   0  0  1  0  0  0  0  0  0  0  0  0
    1.7207   -5.4041   -0.3111 O   0  0  0  0  0  0  0  0  0  0  0  0
    3.1611   -5.8485    1.6965 C   0  0  2  0  0  0  0  0  0  0  0  0
    3.4759   -6.9847    0.8827 O   0  0  0  0  0  0  0  0  0  0  0  0
    1.9955   -6.3375    2.7326 C   0  0  1  0  0  0  0  0  0  0  0  0
    1.4246   -5.1423    3.5804 C   0  0  0  0  0  0  0  0  0  0  0  0
    0.7415   -6.9310    1.9721 C   0  0  0  0  0  0  0  0  0  0  0  0
   -0.3367   -7.6534    2.7761 C   0  0  0  0  0  0  0  0  0  0  0  0
   -0.6437   -7.5984    4.1709 C   0  0  0  0  0  0  0  0  0  0  0  0
   -1.7017   -8.4356    4.3426 C   0  0  0  0  0  0  0  0  0  0  0  0
   -2.0983   -9.0036    3.1656 O   0  0  0  0  0  0  0  0  0  0  0  0
   -1.2390   -8.5451    2.2375 C   0  0  0  0  0  0  0  0  0  0  0  0
    2.5514   -7.4313    3.7229 C   0  0  1  0  0  0  0  0  0  0  0  0
    2.6814   -8.7361    3.1465 O   0  0  0  0  0  0  0  0  0  0  0  0
    3.8372   -6.9733    4.4290 C   0  0  1  0  0  0  0  0  0  0  0  0
    4.2909   -7.9338    5.3630 O   0  0  0  0  0  0  0  0  0  0  0  0
    4.9451   -6.6118    3.4423 C   0  0  1  0  0  0  0  0  0  0  0  0
    5.3351   -7.8348    2.8392 O   0  0  0  0  0  0  0  0  0  0  0  0
    4.5506   -5.4945    2.3973 C   0  0  1  0  0  0  0  0  0  0  0  0
    4.5203   -4.1451    3.1530 C   0  0  0  0  0  0  0  0  0  0  0  0
    7.5451   -7.6892    0.8614 H   0  0  0  0  0  0  0  0  0  0  0  0
    9.1077   -7.1278    0.2730 H   0  0  0  0  0  0  0  0  0  0  0  0
    7.6956   -6.3483   -0.3231 H   0  0  0  0  0  0  0  0  0  0  0  0
    5.7618   -6.4378    0.9211 H   0  0  0  0  0  0  0  0  0  0  0  0
    6.7113   -4.4369   -0.2633 H   0  0  0  0  0  0  0  0  0  0  0  0
    6.2795   -1.1525   -2.0575 H   0  0  0  0  0  0  0  0  0  0  0  0
    7.1926   -2.3051   -1.0355 H   0  0  0  0  0  0  0  0  0  0  0  0
    5.9476   -1.2685   -0.3292 H   0  0  0  0  0  0  0  0  0  0  0  0
    5.7433   -3.0669   -3.6679 H   0  0  0  0  0  0  0  0  0  0  0  0
    4.9067   -4.4923   -3.0483 H   0  0  0  0  0  0  0  0  0  0  0  0
    6.5862   -4.1338   -2.6096 H   0  0  0  0  0  0  0  0  0  0  0  0
    3.7636   -1.1959   -1.4635 H   0  0  0  0  0  0  0  0  0  0  0  0
    3.7191   -2.0010   -3.0167 H   0  0  0  0  0  0  0  0  0  0  0  0
    1.8013   -2.6825   -1.2739 H   0  0  0  0  0  0  0  0  0  0  0  0
    2.6897   -3.9308   -2.1100 H   0  0  0  0  0  0  0  0  0  0  0  0
    1.8890   -4.2032    1.2000 H   0  0  0  0  0  0  0  0  0  0  0  0
    2.2352   -5.5537   -1.1141 H   0  0  0  0  0  0  0  0  0  0  0  0
    3.9530   -7.6234    1.4242 H   0  0  0  0  0  0  0  0  0  0  0  0
    0.6060   -5.4198    4.2123 H   0  0  0  0  0  0  0  0  0  0  0  0
    1.0820   -4.3013    2.9585 H   0  0  0  0  0  0  0  0  0  0  0  0
    2.1913   -4.7195    4.2340 H   0  0  0  0  0  0  0  0  0  0  0  0
    0.1943   -6.1526    1.4448 H   0  0  0  0  0  0  0  0  0  0  0  0
    1.0429   -7.6426    1.2009 H   0  0  0  0  0  0  0  0  0  0  0  0
   -0.1702   -7.0525    4.9775 H   0  0  0  0  0  0  0  0  0  0  0  0
   -2.2125   -8.7697    5.2170 H   0  0  0  0  0  0  0  0  0  0  0  0
   -1.4177   -8.9760    1.2603 H   0  0  0  0  0  0  0  0  0  0  0  0
    1.8522   -7.5772    4.5469 H   0  0  0  0  0  0  0  0  0  0  0  0
    3.4276   -8.7842    2.5489 H   0  0  0  0  0  0  0  0  0  0  0  0
    3.6094   -6.0918    5.0193 H   0  0  0  0  0  0  0  0  0  0  0  0
    4.2128   -8.7939    4.9543 H   0  0  0  0  0  0  0  0  0  0  0  0
    5.7919   -6.2631    4.0415 H   0  0  0  0  0  0  0  0  0  0  0  0
    5.7433   -8.3572    3.5300 H   0  0  0  0  0  0  0  0  0  0  0  0
    3.5400   -3.6869    3.1409 H   0  0  0  0  0  0  0  0  0  0  0  0
    5.1882   -3.4158    2.6958 H   0  0  0  0  0  0  0  0  0  0  0  0
    4.8266   -4.2446    4.1963 H   0  0  0  0  0  0  0  0  0  0  0  0
  1  2  1  0
  1 35  1  0
  1 36  1  0
  1 37  1  0
  2  3  2  0
  2  4  1  0
  4  5  1  0
  5 33  1  0
  5  6  1  0
  5 38  1  6
  6  7  2  0
  6 39  1  0
  7 13  1  0
  7  8  1  0
  8  9  1  0
  8 10  1  0
  8 11  1  0
  9 40  1  0
  9 41  1  0
  9 42  1  0
 10 43  1  0
 10 44  1  0
 10 45  1  0
 11 12  1  0
 11 46  1  0
 11 47  1  0
 12 13  1  0
 12 48  1  0
 12 49  1  0
 13 14  1  1
 13 15  1  0
 15 16  1  0
 15 17  1  0
 15 50  1  1
 16 51  1  0
 17 33  1  0
 17 18  1  6
 17 19  1  0
 18 52  1  0
 19 20  1  1
 19 21  1  0
 19 27  1  0
 20 53  1  0
 20 54  1  0
 20 55  1  0
 21 22  1  0
 21 56  1  0
 21 57  1  0
 22 26  2  0
 22 23  1  0
 23 24  2  0
 23 58  1  0
 24 25  1  0
 24 59  1  0
 25 26  1  0
 26 60  1  0
 27 28  1  0
 27 29  1  0
 27 61  1  1
 28 62  1  0
 29 30  1  0
 29 31  1  0
 29 63  1  1
 30 64  1  0
 31 32  1  0
 31 33  1  0
 31 65  1  1
 32 66  1  0
 33 34  1  1
 34 67  1  0
 34 68  1  0
 34 69  1  0
M  END
>  <i_m_ct_stereo_status>  (430) 
1

>  <s_m_source_file>  (430) 
/var/tmp/pbs.5102103.sched01/tmpeh5ntauu/15412114_vq.sdf

>  <i_m_source_file_index>  (430) 
14

>  <i_lp_mmshare_version>  (430) 
48012

>  <i_f3d_flags>  (430) 
0

>  <s_epik_input>  (430) 
W0NIMl0xW0NIMl1DKFtDSDNdKShbQ0gzXSlDKFtDQEBdMTJCcik9W0NIXVtDQEBIXShPQyg9TylbQ0gzXSlbQ0BAXTMoW0NIM10pW0NAXShbT0hdKShbQ0BASF0yW09IXSlbQ0BdKFtDSDNdKShbQ0BASF0oW09IXSlbQ0BASF0oW09IXSlbQ0BIXTNbT0hdKVtDSDJdYzRbY0hdW2NIXW9bY0hdNA==

>  <s_epik_cmdline>  (430) 
J2VwaWtfcHl0aG9uJywgJy1waHQnLCAnMi4wJywgJy1waCcsICc3LjAnLCAnLXRuJywgJzgnLCAnLW1hJywgJzIwMCcsICctaW1hZScsICc8aW5maWxlLm1hZT4nLCAnLW9tYWUnLCAnPG91dGZpbGUubWFlPic=

>  <r_lp_tautomer_probability>  (430) 
1

>  <r_epik_Ionization_Penalty>  (430) 
5.5375e-06

>  <r_epik_Ionization_Penalty_Charging>  (430) 
0

>  <r_epik_Ionization_Penalty_Neutral>  (430) 
5.5375e-06

>  <r_epik_State_Penalty>  (430) 
-0

>  <r_epik_Charging_Adjusted_Penalty>  (430) 
0

>  <i_epik_Tot_Q>  (430) 
0

>  <i_epik_Tot_abs_Q>  (430) 
0

>  <s_epik_Chemistry_Notes>  (430) 
This compound has an ester and may undergo hydrolysis at high or low pH.

>  <s_lp_Force_Field>  (430) 
OPLS3e

>  <r_lp_Energy>  (430) 
71.6904

>  <b_lp_Chiralities_Consistent>  (430) 
1

>  <s_lp_Variant>  (430) 
105:0-1

>  <s_i_glide_gridfile>  (430) 
pfpi4k_grid

>  <i_i_glide_lignum>  (430) 
14

>  <i_i_glide_rotatable_bonds>  (430) 
9

>  <r_i_docking_score>  (430) 
-3.23532

>  <r_i_glide_ligand_efficiency>  (430) 
-0.0951565

>  <r_i_glide_ligand_efficiency_sa>  (430) 
-0.30827

>  <r_i_glide_ligand_efficiency_ln>  (430) 
-0.714773

>  <r_i_glide_gscore>  (430) 
-3.23532

>  <r_i_glide_lipo>  (430) 
-0.386393

>  <r_i_glide_hbond>  (430) 
0

>  <r_i_glide_metal>  (430) 
-0

>  <r_i_glide_rewards>  (430) 
-1

>  <r_i_glide_evdw>  (430) 
-23.1057

>  <r_i_glide_ecoul>  (430) 
-6.01244

>  <r_i_glide_erotb>  (430) 
0.210194

>  <r_i_glide_esite>  (430) 
-0.00197034

>  <r_i_glide_emodel>  (430) 
-40.8767

>  <r_i_glide_energy>  (430) 
-29.1181

>  <r_i_glide_einternal>  (430) 
7.33372

>  <r_i_glide_intrahb_reward>  (430) 
-1

>  <i_i_glide_confnum>  (430) 
4

>  <i_i_glide_posenum>  (430) 
40

>  <r_i_glide_eff_state_penalty>  (430) 
0

>  <ligand_id>  (430) 
105

>  <original_smiles>  (430) 
CC(=O)OC1C=C2C(C)(C)CCC2(Br)C(O)C2(O)C(C)(Cc3ccoc3)C(O)C(O)C(O)C12C

>  <smiles>  (430) 
[H]OC1([H])C([H])(O[H])C2(C([H])([H])[H])C([H])(OC(=O)C([H])([H])[H])C([H])=C3C(Br)(C([H])([H])C([H])([H])C3(C([H])([H])[H])C([H])([H])[H])C([H])(O[H])C2(O[H])C(C([H])([H])[H])(C([H])([H])c2c([H])oc([H])c2[H])C1([H])O[H]

$$$$
105:0:2
     RDKit          3D

 69 72  0  0  1  0  0  0  0  0999 V2000
    9.4656   -6.6927    3.5324 C   0  0  0  0  0  0  0  0  0  0  0  0
    8.2682   -6.8105    2.6118 C   0  0  0  0  0  0  0  0  0  0  0  0
    8.1405   -7.7552    1.8255 O   0  0  0  0  0  0  0  0  0  0  0  0
    7.3917   -5.8076    2.7585 O   0  0  0  0  0  0  0  0  0  0  0  0
    6.1964   -5.7245    1.9636 C   0  0  2  0  0  0  0  0  0  0  0  0
    6.3091   -4.4627    1.1356 C   0  0  0  0  0  0  0  0  0  0  0  0
    5.4697   -3.4599    0.8388 C   0  0  0  0  0  0  0  0  0  0  0  0
    5.9200   -2.2734   -0.0391 C   0  0  0  0  0  0  0  0  0  0  0  0
    7.0624   -1.4913    0.6343 C   0  0  0  0  0  0  0  0  0  0  0  0
    6.3574   -2.7402   -1.4414 C   0  0  0  0  0  0  0  0  0  0  0  0
    4.6734   -1.3844   -0.1745 C   0  0  0  0  0  0  0  0  0  0  0  0
    3.5154   -2.3249    0.0783 C   0  0  0  0  0  0  0  0  0  0  0  0
    4.0073   -3.2742    1.1922 C   0  0  2  0  0  0  0  0  0  0  0  0
    3.9163   -2.1219    2.8302 Br  0  0  0  0  0  0  0  0  0  0  0  0
    3.0911   -4.5391    1.4119 C   0  0  1  0  0  0  0  0  0  0  0  0
    2.3564   -4.7995    0.2073 O   0  0  0  0  0  0  0  0  0  0  0  0
    3.5281   -5.9287    2.0928 C   0  0  2  0  0  0  0  0  0  0  0  0
    3.7899   -6.7599    0.9632 O   0  0  0  0  0  0  0  0  0  0  0  0
    2.3067   -6.5892    2.9375 C   0  0  1  0  0  0  0  0  0  0  0  0
    1.8645   -5.6737    4.1342 C   0  0  0  0  0  0  0  0  0  0  0  0
    1.0222   -6.8293    2.0624 C   0  0  0  0  0  0  0  0  0  0  0  0
   -0.1826   -7.5531    2.6540 C   0  0  0  0  0  0  0  0  0  0  0  0
   -0.5650   -7.7058    4.0294 C   0  0  0  0  0  0  0  0  0  0  0  0
   -1.7799   -8.4086    3.9957 C   0  0  0  0  0  0  0  0  0  0  0  0
   -2.1311   -8.6823    2.7429 O   0  0  0  0  0  0  0  0  0  0  0  0
   -1.1610   -8.2224    1.9487 C   0  0  0  0  0  0  0  0  0  0  0  0
    2.7053   -7.9765    3.5583 C   0  0  1  0  0  0  0  0  0  0  0  0
    2.7522   -9.0465    2.5937 O   0  0  0  0  0  0  0  0  0  0  0  0
    3.9917   -7.8990    4.3954 C   0  0  1  0  0  0  0  0  0  0  0  0
    4.3346   -9.1518    4.9874 O   0  0  0  0  0  0  0  0  0  0  0  0
    5.1435   -7.3710    3.5577 C   0  0  1  0  0  0  0  0  0  0  0  0
    5.4081   -8.4027    2.6078 O   0  0  0  0  0  0  0  0  0  0  0  0
    4.9314   -5.9590    2.8859 C   0  0  1  0  0  0  0  0  0  0  0  0
    5.0106   -4.9079    4.0274 C   0  0  0  0  0  0  0  0  0  0  0  0
   10.0870   -5.8562    3.2380 H   0  0  0  0  0  0  0  0  0  0  0  0
   10.0757   -7.6032    3.4799 H   0  0  0  0  0  0  0  0  0  0  0  0
    9.1551   -6.5632    4.5790 H   0  0  0  0  0  0  0  0  0  0  0  0
    6.2188   -6.5107    1.2126 H   0  0  0  0  0  0  0  0  0  0  0  0
    7.2975   -4.3788    0.7190 H   0  0  0  0  0  0  0  0  0  0  0  0
    7.2919   -0.5811    0.0846 H   0  0  0  0  0  0  0  0  0  0  0  0
    7.9736   -2.0878    0.6944 H   0  0  0  0  0  0  0  0  0  0  0  0
    6.7939   -1.1938    1.6498 H   0  0  0  0  0  0  0  0  0  0  0  0
    6.5850   -1.8941   -2.0824 H   0  0  0  0  0  0  0  0  0  0  0  0
    5.5800   -3.3184   -1.9353 H   0  0  0  0  0  0  0  0  0  0  0  0
    7.2591   -3.3620   -1.4035 H   0  0  0  0  0  0  0  0  0  0  0  0
    4.6745   -0.5995    0.5901 H   0  0  0  0  0  0  0  0  0  0  0  0
    4.5988   -0.8632   -1.1330 H   0  0  0  0  0  0  0  0  0  0  0  0
    2.5974   -1.8006    0.3537 H   0  0  0  0  0  0  0  0  0  0  0  0
    3.3178   -2.8531   -0.8564 H   0  0  0  0  0  0  0  0  0  0  0  0
    2.3246   -4.1221    2.0054 H   0  0  0  0  0  0  0  0  0  0  0  0
    2.9710   -5.1131   -0.4533 H   0  0  0  0  0  0  0  0  0  0  0  0
    4.1235   -7.5938    1.2787 H   0  0  0  0  0  0  0  0  0  0  0  0
    1.0487   -6.0220    4.7078 H   0  0  0  0  0  0  0  0  0  0  0  0
    1.5976   -4.6560    3.8088 H   0  0  0  0  0  0  0  0  0  0  0  0
    2.6500   -5.5295    4.8581 H   0  0  0  0  0  0  0  0  0  0  0  0
    0.6400   -5.8688    1.7072 H   0  0  0  0  0  0  0  0  0  0  0  0
    1.2891   -7.3610    1.1472 H   0  0  0  0  0  0  0  0  0  0  0  0
   -0.1118   -7.4465    4.9316 H   0  0  0  0  0  0  0  0  0  0  0  0
   -2.3760   -8.7889    4.7866 H   0  0  0  0  0  0  0  0  0  0  0  0
   -1.3188   -8.4125    0.8905 H   0  0  0  0  0  0  0  0  0  0  0  0
    1.9279   -8.3085    4.2498 H   0  0  0  0  0  0  0  0  0  0  0  0
    3.5853   -9.0099    2.1279 H   0  0  0  0  0  0  0  0  0  0  0  0
    3.8440   -7.2388    5.2398 H   0  0  0  0  0  0  0  0  0  0  0  0
    4.2501   -9.8270    4.3249 H   0  0  0  0  0  0  0  0  0  0  0  0
    6.0042   -7.3266    4.2325 H   0  0  0  0  0  0  0  0  0  0  0  0
    5.7816   -9.1251    3.1062 H   0  0  0  0  0  0  0  0  0  0  0  0
    4.0937   -4.3598    4.1684 H   0  0  0  0  0  0  0  0  0  0  0  0
    5.7502   -4.1261    3.8451 H   0  0  0  0  0  0  0  0  0  0  0  0
    5.2630   -5.3438    4.9972 H   0  0  0  0  0  0  0  0  0  0  0  0
  1  2  1  0
  1 35  1  0
  1 36  1  0
  1 37  1  0
  2  3  2  0
  2  4  1  0
  4  5  1  0
  5 33  1  0
  5  6  1  0
  5 38  1  6
  6  7  2  0
  6 39  1  0
  7 13  1  0
  7  8  1  0
  8  9  1  0
  8 10  1  0
  8 11  1  0
  9 40  1  0
  9 41  1  0
  9 42  1  0
 10 43  1  0
 10 44  1  0
 10 45  1  0
 11 12  1  0
 11 46  1  0
 11 47  1  0
 12 13  1  0
 12 48  1  0
 12 49  1  0
 13 14  1  1
 13 15  1  0
 15 16  1  0
 15 17  1  0
 15 50  1  1
 16 51  1  0
 17 33  1  0
 17 18  1  6
 17 19  1  0
 18 52  1  0
 19 20  1  1
 19 21  1  0
 19 27  1  0
 20 53  1  0
 20 54  1  0
 20 55  1  0
 21 22  1  0
 21 56  1  0
 21 57  1  0
 22 26  2  0
 22 23  1  0
 23 24  2  0
 23 58  1  0
 24 25  1  0
 24 59  1  0
 25 26  1  0
 26 60  1  0
 27 28  1  0
 27 29  1  0
 27 61  1  1
 28 62  1  0
 29 30  1  0
 29 31  1  0
 29 63  1  1
 30 64  1  0
 31 32  1  0
 31 33  1  0
 31 65  1  1
 32 66  1  0
 33 34  1  1
 34 67  1  0
 34 68  1  0
 34 69  1  0
M  END
>  <i_m_ct_stereo_status>  (431) 
1

>  <s_m_source_file>  (431) 
/var/tmp/pbs.5102103.sched01/tmpeh5ntauu/15412114_vq.sdf

>  <i_m_source_file_index>  (431) 
14

>  <i_lp_mmshare_version>  (431) 
48012

>  <i_f3d_flags>  (431) 
0

>  <s_epik_input>  (431) 
W0NIMl0xW0NIMl1DKFtDSDNdKShbQ0gzXSlDKFtDQEBdMTJCcik9W0NIXVtDQEBIXShPQyg9TylbQ0gzXSlbQ0BAXTMoW0NIM10pW0NAXShbT0hdKShbQ0BASF0yW09IXSlbQ0BdKFtDSDNdKShbQ0BASF0oW09IXSlbQ0BASF0oW09IXSlbQ0BIXTNbT0hdKVtDSDJdYzRbY0hdW2NIXW9bY0hdNA==

>  <s_epik_cmdline>  (431) 
J2VwaWtfcHl0aG9uJywgJy1waHQnLCAnMi4wJywgJy1waCcsICc3LjAnLCAnLXRuJywgJzgnLCAnLW1hJywgJzIwMCcsICctaW1hZScsICc8aW5maWxlLm1hZT4nLCAnLW9tYWUnLCAnPG91dGZpbGUubWFlPic=

>  <r_lp_tautomer_probability>  (431) 
1

>  <r_epik_Ionization_Penalty>  (431) 
5.5375e-06

>  <r_epik_Ionization_Penalty_Charging>  (431) 
0

>  <r_epik_Ionization_Penalty_Neutral>  (431) 
5.5375e-06

>  <r_epik_State_Penalty>  (431) 
-0

>  <r_epik_Charging_Adjusted_Penalty>  (431) 
0

>  <i_epik_Tot_Q>  (431) 
0

>  <i_epik_Tot_abs_Q>  (431) 
0

>  <s_epik_Chemistry_Notes>  (431) 
This compound has an ester and may undergo hydrolysis at high or low pH.

>  <s_lp_Force_Field>  (431) 
OPLS3e

>  <r_lp_Energy>  (431) 
71.6904

>  <b_lp_Chiralities_Consistent>  (431) 
1

>  <s_lp_Variant>  (431) 
105:0-1

>  <s_i_glide_gridfile>  (431) 
pfpi4k_grid

>  <i_i_glide_lignum>  (431) 
14

>  <i_i_glide_rotatable_bonds>  (431) 
9

>  <r_i_docking_score>  (431) 
-2.79762

>  <r_i_glide_ligand_efficiency>  (431) 
-0.0822829

>  <r_i_glide_ligand_efficiency_sa>  (431) 
-0.266565

>  <r_i_glide_ligand_efficiency_ln>  (431) 
-0.618072

>  <r_i_glide_gscore>  (431) 
-2.79762

>  <r_i_glide_lipo>  (431) 
-0.218736

>  <r_i_glide_hbond>  (431) 
0

>  <r_i_glide_metal>  (431) 
-0

>  <r_i_glide_rewards>  (431) 
-1

>  <r_i_glide_evdw>  (431) 
-26.8793

>  <r_i_glide_ecoul>  (431) 
-2.71879

>  <r_i_glide_erotb>  (431) 
0.210194

>  <r_i_glide_esite>  (431) 
-0.0372917

>  <r_i_glide_emodel>  (431) 
-41.2814

>  <r_i_glide_energy>  (431) 
-29.5981

>  <r_i_glide_einternal>  (431) 
2.66934

>  <r_i_glide_intrahb_reward>  (431) 
-1

>  <i_i_glide_confnum>  (431) 
4

>  <i_i_glide_posenum>  (431) 
22

>  <r_i_glide_eff_state_penalty>  (431) 
0

>  <ligand_id>  (431) 
105

>  <original_smiles>  (431) 
CC(=O)OC1C=C2C(C)(C)CCC2(Br)C(O)C2(O)C(C)(Cc3ccoc3)C(O)C(O)C(O)C12C

>  <smiles>  (431) 
[H]OC1([H])C([H])(O[H])C2(C([H])([H])[H])C([H])(OC(=O)C([H])([H])[H])C([H])=C3C(Br)(C([H])([H])C([H])([H])C3(C([H])([H])[H])C([H])([H])[H])C([H])(O[H])C2(O[H])C(C([H])([H])[H])(C([H])([H])c2c([H])oc([H])c2[H])C1([H])O[H]

$$$$
106:0:0
     RDKit          3D

 52 55  0  0  1  0  0  0  0  0999 V2000
    1.1841   -1.7638    3.5130 C   0  0  0  0  0  0  0  0  0  0  0  0
    1.3851   -0.4910    2.6813 C   0  0  0  0  0  0  0  0  0  0  0  0
    2.7936   -0.0536    2.7792 N   0  0  0  0  0  0  0  0  0  0  0  0
    3.1971    0.8291    3.7415 C   0  0  0  0  0  0  0  0  0  0  0  0
    4.3664    0.9946    4.0890 O   0  0  0  0  0  0  0  0  0  0  0  0
    2.1581    1.6425    4.4505 C   0  0  0  0  0  0  0  0  0  0  0  0
    1.8656    1.3029    5.7810 C   0  0  0  0  0  0  0  0  0  0  0  0
    0.8949    2.0400    6.4729 C   0  0  0  0  0  0  0  0  0  0  0  0
    0.5751    1.6857    7.8081 C   0  0  0  0  0  0  0  0  0  0  0  0
   -0.4073    2.4725    8.4184 C   0  0  0  0  0  0  0  0  0  0  0  0
   -1.0001    3.5152    7.7561 C   0  0  0  0  0  0  0  0  0  0  0  0
   -0.7218    3.8712    6.4881 N   0  0  0  0  0  0  0  0  0  0  0  0
    0.2332    3.1360    5.8377 C   0  0  0  0  0  0  0  0  0  0  0  0
    0.5638    3.4562    4.5450 N   0  0  0  0  0  0  0  0  0  0  0  0
   -0.1416    4.6207    3.9209 C   0  0  0  0  0  0  0  0  0  0  0  0
    1.5067    2.7509    3.8374 C   0  0  0  0  0  0  0  0  0  0  0  0
    1.8278    3.1222    2.5203 N   0  0  0  0  0  0  0  0  0  0  0  0
   -1.9585    4.1387    8.7085 C   0  0  0  0  0  0  0  0  0  0  0  0
   -2.6820    5.1072    8.4826 O   0  0  0  0  0  0  0  0  0  0  0  0
   -1.8632    3.4285    9.8645 N   0  0  0  0  0  0  0  0  0  0  0  0
   -2.6416    3.7533   11.0610 C   0  0  0  0  0  0  0  0  0  0  0  0
   -0.9675    2.4121    9.7848 C   0  0  0  0  0  0  0  0  0  0  0  0
   -0.6418    1.5842   10.6273 O   0  0  0  0  0  0  0  0  0  0  0  0
    3.7360   -0.7365    1.9379 C   0  0  0  0  0  0  0  0  0  0  0  0
    4.8815   -1.3607    2.4835 C   0  0  0  0  0  0  0  0  0  0  0  0
    5.7694   -2.0744    1.6614 C   0  0  0  0  0  0  0  0  0  0  0  0
    5.5351   -2.1916    0.2820 C   0  0  0  0  0  0  0  0  0  0  0  0
    4.3979   -1.5817   -0.2804 C   0  0  0  0  0  0  0  0  0  0  0  0
    4.1364   -1.7322   -1.7667 C   0  0  0  0  0  0  0  0  0  0  0  0
    3.5056   -0.8588    0.5458 C   0  0  0  0  0  0  0  0  0  0  0  0
    0.1400   -2.0823    3.5024 H   0  0  0  0  0  0  0  0  0  0  0  0
    1.4818   -1.6096    4.5532 H   0  0  0  0  0  0  0  0  0  0  0  0
    1.7909   -2.5856    3.1216 H   0  0  0  0  0  0  0  0  0  0  0  0
    1.1053   -0.6986    1.6538 H   0  0  0  0  0  0  0  0  0  0  0  0
    0.6594    0.2608    2.9872 H   0  0  0  0  0  0  0  0  0  0  0  0
    2.3779    0.4759    6.2499 H   0  0  0  0  0  0  0  0  0  0  0  0
    1.0514    0.8684    8.3336 H   0  0  0  0  0  0  0  0  0  0  0  0
    0.1676    4.8254    2.8986 H   0  0  0  0  0  0  0  0  0  0  0  0
    0.0692    5.5074    4.5222 H   0  0  0  0  0  0  0  0  0  0  0  0
   -1.2127    4.4085    3.9182 H   0  0  0  0  0  0  0  0  0  0  0  0
    2.5033    2.6087    1.9701 H   0  0  0  0  0  0  0  0  0  0  0  0
   -2.0949    3.5110   11.9670 H   0  0  0  0  0  0  0  0  0  0  0  0
   -3.5873    3.2159   11.0816 H   0  0  0  0  0  0  0  0  0  0  0  0
   -2.8660    4.8153   11.1093 H   0  0  0  0  0  0  0  0  0  0  0  0
    5.0784   -1.3256    3.5424 H   0  0  0  0  0  0  0  0  0  0  0  0
    6.6198   -2.5584    2.1065 H   0  0  0  0  0  0  0  0  0  0  0  0
    6.2158   -2.7591   -0.3306 H   0  0  0  0  0  0  0  0  0  0  0  0
    3.3032   -1.1115   -2.0946 H   0  0  0  0  0  0  0  0  0  0  0  0
    3.8988   -2.7675   -2.0099 H   0  0  0  0  0  0  0  0  0  0  0  0
    5.0205   -1.4438   -2.3334 H   0  0  0  0  0  0  0  0  0  0  0  0
    2.6317   -0.4093    0.0936 H   0  0  0  0  0  0  0  0  0  0  0  0
    1.2695    3.8051    1.9970 H   0  0  0  0  0  0  0  0  0  0  0  0
  1  2  1  0
  1 31  1  0
  1 32  1  0
  1 33  1  0
  2  3  1  0
  2 34  1  0
  2 35  1  0
  3  4  1  0
  3 24  1  0
  4  5  2  0
  4  6  1  0
  6 16  1  0
  6  7  2  0
  7  8  1  0
  7 36  1  0
  8 13  2  0
  8  9  1  0
  9 10  2  0
  9 37  1  0
 10 22  1  0
 10 11  1  0
 11 12  2  0
 11 18  1  0
 12 13  1  0
 13 14  1  0
 14 15  1  0
 14 16  2  0
 15 38  1  0
 15 39  1  0
 15 40  1  0
 16 17  1  0
 17 41  1  0
 17 52  1  0
 18 19  2  0
 18 20  1  0
 20 21  1  0
 20 22  1  0
 21 42  1  0
 21 43  1  0
 21 44  1  0
 22 23  2  0
 24 30  1  0
 24 25  2  0
 25 26  1  0
 25 45  1  0
 26 27  2  0
 26 46  1  0
 27 28  1  0
 27 47  1  0
 28 29  1  0
 28 30  2  0
 29 48  1  0
 29 49  1  0
 29 50  1  0
 30 51  1  0
M  CHG  1  14   1
M  END
>  <i_m_ct_stereo_status>  (432) 
1

>  <s_m_source_file>  (432) 
/var/tmp/pbs.5102103.sched01/tmpeh5ntauu/15412114_vq.sdf

>  <i_m_source_file_index>  (432) 
15

>  <i_lp_mmshare_version>  (432) 
48012

>  <i_f3d_flags>  (432) 
0

>  <s_epik_input>  (432) 
W0NIM11jKFtjSF0xKVtjSF1bY0hdW2NIXWMxTihbQ0gyXVtDSDNdKUMoPU8pYyhbY0hdMikvYyg9TlxbSF0pbihbQ0gzXSljKGMyMyluYzRjKFtjSF0zKUMoPU8pTihDND1PKVtDSDNd

>  <s_epik_cmdline>  (432) 
J2VwaWtfcHl0aG9uJywgJy1waHQnLCAnMi4wJywgJy1waCcsICc3LjAnLCAnLXRuJywgJzgnLCAnLW1hJywgJzIwMCcsICctaW1hZScsICc8aW5maWxlLm1hZT4nLCAnLW9tYWUnLCAnPG91dGZpbGUubWFlPic=

>  <r_lp_tautomer_probability>  (432) 
1

>  <r_epik_Ionization_Penalty>  (432) 
5.4273e-05

>  <r_epik_Ionization_Penalty_Charging>  (432) 
0

>  <r_epik_Ionization_Penalty_Neutral>  (432) 
5.4273e-05

>  <r_epik_State_Penalty>  (432) 
-0

>  <r_epik_Charging_Adjusted_Penalty>  (432) 
0

>  <i_epik_Tot_Q>  (432) 
1

>  <i_epik_Tot_abs_Q>  (432) 
1

>  <s_lp_Force_Field>  (432) 
OPLS3e

>  <r_lp_Energy>  (432) 
55.7856

>  <b_lp_Chiralities_Consistent>  (432) 
1

>  <s_lp_Variant>  (432) 
106:0-1

>  <s_i_glide_gridfile>  (432) 
pfpi4k_grid

>  <i_i_glide_lignum>  (432) 
15

>  <i_i_glide_rotatable_bonds>  (432) 
4

>  <r_i_docking_score>  (432) 
-3.19255

>  <r_i_glide_ligand_efficiency>  (432) 
-0.106418

>  <r_i_glide_ligand_efficiency_sa>  (432) 
-0.330666

>  <r_i_glide_ligand_efficiency_ln>  (432) 
-0.725382

>  <r_i_glide_gscore>  (432) 
-3.19255

>  <r_i_glide_lipo>  (432) 
-0.230229

>  <r_i_glide_hbond>  (432) 
-0.16

>  <r_i_glide_metal>  (432) 
-0

>  <r_i_glide_rewards>  (432) 
-0.651533

>  <r_i_glide_evdw>  (432) 
-25.7887

>  <r_i_glide_ecoul>  (432) 
-6.82606

>  <r_i_glide_erotb>  (432) 
0.360264

>  <r_i_glide_esite>  (432) 
-0.197705

>  <r_i_glide_emodel>  (432) 
-37.6645

>  <r_i_glide_energy>  (432) 
-32.6148

>  <r_i_glide_einternal>  (432) 
4.92389

>  <r_i_glide_intrahb_reward>  (432) 
-0

>  <i_i_glide_confnum>  (432) 
2

>  <i_i_glide_posenum>  (432) 
40

>  <r_i_glide_eff_state_penalty>  (432) 
0

>  <ligand_id>  (432) 
106

>  <original_smiles>  (432) 
CCN(C(=O)c1cc2cc3c(nc2n(C)c1=N)C(=O)N(C)C3=O)c1cccc(C)c1

>  <smiles>  (432) 
[H]c1c([H])c(N(C(=O)c2c([H])c3c([H])c4c(nc3[n+](C([H])([H])[H])c2N([H])[H])C(=O)N(C([H])([H])[H])C4=O)C([H])([H])C([H])([H])[H])c([H])c(C([H])([H])[H])c1[H]

$$$$
106:0:1
     RDKit          3D

 52 55  0  0  1  0  0  0  0  0999 V2000
    0.3634    0.8176    1.8180 C   0  0  0  0  0  0  0  0  0  0  0  0
    1.1598   -0.3566    2.4788 C   0  0  0  0  0  0  0  0  0  0  0  0
    2.6138   -0.1365    2.7106 N   0  0  0  0  0  0  0  0  0  0  0  0
    3.1012    0.7124    3.6748 C   0  0  0  0  0  0  0  0  0  0  0  0
    4.2844    0.7830    4.0114 O   0  0  0  0  0  0  0  0  0  0  0  0
    2.1312    1.5813    4.4230 C   0  0  0  0  0  0  0  0  0  0  0  0
    1.7719    1.1971    5.7229 C   0  0  0  0  0  0  0  0  0  0  0  0
    0.8244    1.9528    6.4340 C   0  0  0  0  0  0  0  0  0  0  0  0
    0.4688    1.5779    7.7614 C   0  0  0  0  0  0  0  0  0  0  0  0
   -0.4743    2.4056    8.3886 C   0  0  0  0  0  0  0  0  0  0  0  0
   -1.0233    3.4838    7.7414 C   0  0  0  0  0  0  0  0  0  0  0  0
   -0.7133    3.8490    6.4787 N   0  0  0  0  0  0  0  0  0  0  0  0
    0.2342    3.1043    5.8289 C   0  0  0  0  0  0  0  0  0  0  0  0
    0.6223    3.4652    4.5677 N   0  0  0  0  0  0  0  0  0  0  0  0
   -0.0597    4.6403    3.9378 C   0  0  0  0  0  0  0  0  0  0  0  0
    1.5900    2.7764    3.8813 C   0  0  0  0  0  0  0  0  0  0  0  0
    1.9811    3.2054    2.5941 N   0  0  0  0  0  0  0  0  0  0  0  0
   -1.9515    4.1360    8.7204 C   0  0  0  0  0  0  0  0  0  0  0  0
   -2.6224    5.1548    8.5604 O   0  0  0  0  0  0  0  0  0  0  0  0
   -1.8979    3.3917    9.8438 N   0  0  0  0  0  0  0  0  0  0  0  0
   -2.6678    3.7428   11.0421 C   0  0  0  0  0  0  0  0  0  0  0  0
   -1.0437    2.3496    9.7511 C   0  0  0  0  0  0  0  0  0  0  0  0
   -0.7746    1.4993   10.5977 O   0  0  0  0  0  0  0  0  0  0  0  0
    3.4936   -1.0674    2.0551 C   0  0  0  0  0  0  0  0  0  0  0  0
    4.3860   -1.8691    2.8042 C   0  0  0  0  0  0  0  0  0  0  0  0
    5.1978   -2.8286    2.1750 C   0  0  0  0  0  0  0  0  0  0  0  0
    5.1295   -3.0066    0.7821 C   0  0  0  0  0  0  0  0  0  0  0  0
    4.2355   -2.2232    0.0215 C   0  0  0  0  0  0  0  0  0  0  0  0
    4.1627   -2.4380   -1.4790 C   0  0  0  0  0  0  0  0  0  0  0  0
    3.4158   -1.2598    0.6570 C   0  0  0  0  0  0  0  0  0  0  0  0
   -0.6538    0.4709    1.5698 H   0  0  0  0  0  0  0  0  0  0  0  0
    0.8559    1.1060    0.8872 H   0  0  0  0  0  0  0  0  0  0  0  0
    0.2659    1.6752    2.4313 H   0  0  0  0  0  0  0  0  0  0  0  0
    0.7059   -0.5823    3.4476 H   0  0  0  0  0  0  0  0  0  0  0  0
    1.0283   -1.2707    1.8799 H   0  0  0  0  0  0  0  0  0  0  0  0
    2.2035    0.3153    6.1609 H   0  0  0  0  0  0  0  0  0  0  0  0
    0.9083    0.7367    8.2717 H   0  0  0  0  0  0  0  0  0  0  0  0
    0.2423    4.8283    2.9137 H   0  0  0  0  0  0  0  0  0  0  0  0
    0.1646    5.5183    4.5442 H   0  0  0  0  0  0  0  0  0  0  0  0
   -1.1359    4.4439    3.9327 H   0  0  0  0  0  0  0  0  0  0  0  0
    2.4850    2.5618    2.0041 H   0  0  0  0  0  0  0  0  0  0  0  0
   -2.1295    3.4544   11.9444 H   0  0  0  0  0  0  0  0  0  0  0  0
   -3.6427    3.2483   11.0463 H   0  0  0  0  0  0  0  0  0  0  0  0
   -2.8357    4.8215   11.1094 H   0  0  0  0  0  0  0  0  0  0  0  0
    4.4378   -1.7728    3.8761 H   0  0  0  0  0  0  0  0  0  0  0  0
    5.8685   -3.4292    2.7682 H   0  0  0  0  0  0  0  0  0  0  0  0
    5.7562   -3.7465    0.3068 H   0  0  0  0  0  0  0  0  0  0  0  0
    3.5383   -1.6821   -1.9590 H   0  0  0  0  0  0  0  0  0  0  0  0
    3.7420   -3.4201   -1.7073 H   0  0  0  0  0  0  0  0  0  0  0  0
    5.1618   -2.3835   -1.9169 H   0  0  0  0  0  0  0  0  0  0  0  0
    2.7230   -0.6799    0.0634 H   0  0  0  0  0  0  0  0  0  0  0  0
    1.3665    3.8095    2.0800 H   0  0  0  0  0  0  0  0  0  0  0  0
  1  2  1  0
  1 31  1  0
  1 32  1  0
  1 33  1  0
  2  3  1  0
  2 34  1  0
  2 35  1  0
  3  4  1  0
  3 24  1  0
  4  5  2  0
  4  6  1  0
  6 16  1  0
  6  7  2  0
  7  8  1  0
  7 36  1  0
  8 13  2  0
  8  9  1  0
  9 10  2  0
  9 37  1  0
 10 22  1  0
 10 11  1  0
 11 12  2  0
 11 18  1  0
 12 13  1  0
 13 14  1  0
 14 15  1  0
 14 16  2  0
 15 38  1  0
 15 39  1  0
 15 40  1  0
 16 17  1  0
 17 41  1  0
 17 52  1  0
 18 19  2  0
 18 20  1  0
 20 21  1  0
 20 22  1  0
 21 42  1  0
 21 43  1  0
 21 44  1  0
 22 23  2  0
 24 30  1  0
 24 25  2  0
 25 26  1  0
 25 45  1  0
 26 27  2  0
 26 46  1  0
 27 28  1  0
 27 47  1  0
 28 29  1  0
 28 30  2  0
 29 48  1  0
 29 49  1  0
 29 50  1  0
 30 51  1  0
M  CHG  1  14   1
M  END
>  <i_m_ct_stereo_status>  (433) 
1

>  <s_m_source_file>  (433) 
/var/tmp/pbs.5102103.sched01/tmpeh5ntauu/15412114_vq.sdf

>  <i_m_source_file_index>  (433) 
15

>  <i_lp_mmshare_version>  (433) 
48012

>  <i_f3d_flags>  (433) 
0

>  <s_epik_input>  (433) 
W0NIM11jKFtjSF0xKVtjSF1bY0hdW2NIXWMxTihbQ0gyXVtDSDNdKUMoPU8pYyhbY0hdMikvYyg9TlxbSF0pbihbQ0gzXSljKGMyMyluYzRjKFtjSF0zKUMoPU8pTihDND1PKVtDSDNd

>  <s_epik_cmdline>  (433) 
J2VwaWtfcHl0aG9uJywgJy1waHQnLCAnMi4wJywgJy1waCcsICc3LjAnLCAnLXRuJywgJzgnLCAnLW1hJywgJzIwMCcsICctaW1hZScsICc8aW5maWxlLm1hZT4nLCAnLW9tYWUnLCAnPG91dGZpbGUubWFlPic=

>  <r_lp_tautomer_probability>  (433) 
1

>  <r_epik_Ionization_Penalty>  (433) 
5.4273e-05

>  <r_epik_Ionization_Penalty_Charging>  (433) 
0

>  <r_epik_Ionization_Penalty_Neutral>  (433) 
5.4273e-05

>  <r_epik_State_Penalty>  (433) 
-0

>  <r_epik_Charging_Adjusted_Penalty>  (433) 
0

>  <i_epik_Tot_Q>  (433) 
1

>  <i_epik_Tot_abs_Q>  (433) 
1

>  <s_lp_Force_Field>  (433) 
OPLS3e

>  <r_lp_Energy>  (433) 
55.7856

>  <b_lp_Chiralities_Consistent>  (433) 
1

>  <s_lp_Variant>  (433) 
106:0-1

>  <s_i_glide_gridfile>  (433) 
pfpi4k_grid

>  <i_i_glide_lignum>  (433) 
15

>  <i_i_glide_rotatable_bonds>  (433) 
4

>  <r_i_docking_score>  (433) 
-2.98285

>  <r_i_glide_ligand_efficiency>  (433) 
-0.0994283

>  <r_i_glide_ligand_efficiency_sa>  (433) 
-0.308947

>  <r_i_glide_ligand_efficiency_ln>  (433) 
-0.677735

>  <r_i_glide_gscore>  (433) 
-2.98285

>  <r_i_glide_lipo>  (433) 
-0.110727

>  <r_i_glide_hbond>  (433) 
-0.16

>  <r_i_glide_metal>  (433) 
-0

>  <r_i_glide_rewards>  (433) 
-0.651533

>  <r_i_glide_evdw>  (433) 
-26.1696

>  <r_i_glide_ecoul>  (433) 
-6.10983

>  <r_i_glide_erotb>  (433) 
0.360264

>  <r_i_glide_esite>  (433) 
-0.195898

>  <r_i_glide_emodel>  (433) 
-35.2931

>  <r_i_glide_energy>  (433) 
-32.2794

>  <r_i_glide_einternal>  (433) 
4.0036

>  <r_i_glide_intrahb_reward>  (433) 
-0

>  <i_i_glide_confnum>  (433) 
2

>  <i_i_glide_posenum>  (433) 
17

>  <r_i_glide_eff_state_penalty>  (433) 
0

>  <ligand_id>  (433) 
106

>  <original_smiles>  (433) 
CCN(C(=O)c1cc2cc3c(nc2n(C)c1=N)C(=O)N(C)C3=O)c1cccc(C)c1

>  <smiles>  (433) 
[H]c1c([H])c(N(C(=O)c2c([H])c3c([H])c4c(nc3[n+](C([H])([H])[H])c2N([H])[H])C(=O)N(C([H])([H])[H])C4=O)C([H])([H])C([H])([H])[H])c([H])c(C([H])([H])[H])c1[H]

$$$$
106:0:2
     RDKit          3D

 52 55  0  0  1  0  0  0  0  0999 V2000
   -1.2926    2.0044    3.5580 C   0  0  0  0  0  0  0  0  0  0  0  0
   -0.2662    3.1495    3.2992 C   0  0  0  0  0  0  0  0  0  0  0  0
    0.6682    3.4562    4.4110 N   0  0  0  0  0  0  0  0  0  0  0  0
    1.8001    2.7257    4.6595 C   0  0  0  0  0  0  0  0  0  0  0  0
    2.7032    3.0929    5.4174 O   0  0  0  0  0  0  0  0  0  0  0  0
    1.9465    1.3953    3.9685 C   0  0  0  0  0  0  0  0  0  0  0  0
    2.7763    1.3182    2.8278 C   0  0  0  0  0  0  0  0  0  0  0  0
    2.9036    0.0986    2.1422 C   0  0  0  0  0  0  0  0  0  0  0  0
    3.7427    0.0089    1.0052 C   0  0  0  0  0  0  0  0  0  0  0  0
    3.8124   -1.2452    0.3802 C   0  0  0  0  0  0  0  0  0  0  0  0
    3.0561   -2.2955    0.8579 C   0  0  0  0  0  0  0  0  0  0  0  0
    2.2538   -2.2408    1.9253 N   0  0  0  0  0  0  0  0  0  0  0  0
    2.1795   -1.0489    2.5834 C   0  0  0  0  0  0  0  0  0  0  0  0
    1.3915   -0.9535    3.7098 N   0  0  0  0  0  0  0  0  0  0  0  0
    0.6254   -2.1732    4.1204 C   0  0  0  0  0  0  0  0  0  0  0  0
    1.3134    0.2153    4.4215 C   0  0  0  0  0  0  0  0  0  0  0  0
    0.5522    0.2519    5.6109 N   0  0  0  0  0  0  0  0  0  0  0  0
    3.3557   -3.4590   -0.0264 C   0  0  0  0  0  0  0  0  0  0  0  0
    2.8629   -4.5878    0.1050 O   0  0  0  0  0  0  0  0  0  0  0  0
    4.2532   -3.0280   -0.9444 N   0  0  0  0  0  0  0  0  0  0  0  0
    4.8429   -3.8794   -1.9841 C   0  0  0  0  0  0  0  0  0  0  0  0
    4.5727   -1.7170   -0.7878 C   0  0  0  0  0  0  0  0  0  0  0  0
    5.3546   -1.0397   -1.4621 O   0  0  0  0  0  0  0  0  0  0  0  0
    0.5277    4.7389    5.0232 C   0  0  0  0  0  0  0  0  0  0  0  0
    0.8920    5.8977    4.3029 C   0  0  0  0  0  0  0  0  0  0  0  0
    0.7420    7.1729    4.8779 C   0  0  0  0  0  0  0  0  0  0  0  0
    0.2172    7.3026    6.1755 C   0  0  0  0  0  0  0  0  0  0  0  0
   -0.1637    6.1585    6.8998 C   0  0  0  0  0  0  0  0  0  0  0  0
   -0.7437    6.3187    8.2904 C   0  0  0  0  0  0  0  0  0  0  0  0
   -0.0081    4.8731    6.3235 C   0  0  0  0  0  0  0  0  0  0  0  0
   -2.0116    1.9961    2.7172 H   0  0  0  0  0  0  0  0  0  0  0  0
   -1.8784    2.2208    4.4611 H   0  0  0  0  0  0  0  0  0  0  0  0
   -0.8280    1.0218    3.6436 H   0  0  0  0  0  0  0  0  0  0  0  0
    0.3317    2.9126    2.4226 H   0  0  0  0  0  0  0  0  0  0  0  0
   -0.7989    4.0705    3.0388 H   0  0  0  0  0  0  0  0  0  0  0  0
    3.2969    2.1942    2.4806 H   0  0  0  0  0  0  0  0  0  0  0  0
    4.3153    0.8460    0.6299 H   0  0  0  0  0  0  0  0  0  0  0  0
   -0.0307   -2.0156    4.9760 H   0  0  0  0  0  0  0  0  0  0  0  0
    1.3341   -2.9719    4.3504 H   0  0  0  0  0  0  0  0  0  0  0  0
   -0.0016   -2.4776    3.2785 H   0  0  0  0  0  0  0  0  0  0  0  0
    0.2745    1.1449    5.9881 H   0  0  0  0  0  0  0  0  0  0  0  0
    5.8513   -3.5683   -2.2595 H   0  0  0  0  0  0  0  0  0  0  0  0
    4.2374   -3.8642   -2.8893 H   0  0  0  0  0  0  0  0  0  0  0  0
    4.9161   -4.9164   -1.6565 H   0  0  0  0  0  0  0  0  0  0  0  0
    1.2830    5.8133    3.3035 H   0  0  0  0  0  0  0  0  0  0  0  0
    1.0270    8.0512    4.3196 H   0  0  0  0  0  0  0  0  0  0  0  0
    0.1054    8.2876    6.6094 H   0  0  0  0  0  0  0  0  0  0  0  0
   -0.8637    5.3579    8.7868 H   0  0  0  0  0  0  0  0  0  0  0  0
   -1.7214    6.8012    8.2522 H   0  0  0  0  0  0  0  0  0  0  0  0
   -0.0874    6.9351    8.9067 H   0  0  0  0  0  0  0  0  0  0  0  0
   -0.3093    4.0020    6.8828 H   0  0  0  0  0  0  0  0  0  0  0  0
   -0.1129   -0.4872    5.7453 H   0  0  0  0  0  0  0  0  0  0  0  0
  1  2  1  0
  1 31  1  0
  1 32  1  0
  1 33  1  0
  2  3  1  0
  2 34  1  0
  2 35  1  0
  3  4  1  0
  3 24  1  0
  4  5  2  0
  4  6  1  0
  6 16  1  0
  6  7  2  0
  7  8  1  0
  7 36  1  0
  8 13  2  0
  8  9  1  0
  9 10  2  0
  9 37  1  0
 10 22  1  0
 10 11  1  0
 11 12  2  0
 11 18  1  0
 12 13  1  0
 13 14  1  0
 14 15  1  0
 14 16  2  0
 15 38  1  0
 15 39  1  0
 15 40  1  0
 16 17  1  0
 17 41  1  0
 17 52  1  0
 18 19  2  0
 18 20  1  0
 20 21  1  0
 20 22  1  0
 21 42  1  0
 21 43  1  0
 21 44  1  0
 22 23  2  0
 24 30  1  0
 24 25  2  0
 25 26  1  0
 25 45  1  0
 26 27  2  0
 26 46  1  0
 27 28  1  0
 27 47  1  0
 28 29  1  0
 28 30  2  0
 29 48  1  0
 29 49  1  0
 29 50  1  0
 30 51  1  0
M  CHG  1  14   1
M  END
>  <i_m_ct_stereo_status>  (434) 
1

>  <s_m_source_file>  (434) 
/var/tmp/pbs.5102103.sched01/tmpeh5ntauu/15412114_vq.sdf

>  <i_m_source_file_index>  (434) 
15

>  <i_lp_mmshare_version>  (434) 
48012

>  <i_f3d_flags>  (434) 
0

>  <s_epik_input>  (434) 
W0NIM11jKFtjSF0xKVtjSF1bY0hdW2NIXWMxTihbQ0gyXVtDSDNdKUMoPU8pYyhbY0hdMikvYyg9TlxbSF0pbihbQ0gzXSljKGMyMyluYzRjKFtjSF0zKUMoPU8pTihDND1PKVtDSDNd

>  <s_epik_cmdline>  (434) 
J2VwaWtfcHl0aG9uJywgJy1waHQnLCAnMi4wJywgJy1waCcsICc3LjAnLCAnLXRuJywgJzgnLCAnLW1hJywgJzIwMCcsICctaW1hZScsICc8aW5maWxlLm1hZT4nLCAnLW9tYWUnLCAnPG91dGZpbGUubWFlPic=

>  <r_lp_tautomer_probability>  (434) 
1

>  <r_epik_Ionization_Penalty>  (434) 
5.4273e-05

>  <r_epik_Ionization_Penalty_Charging>  (434) 
0

>  <r_epik_Ionization_Penalty_Neutral>  (434) 
5.4273e-05

>  <r_epik_State_Penalty>  (434) 
-0

>  <r_epik_Charging_Adjusted_Penalty>  (434) 
0

>  <i_epik_Tot_Q>  (434) 
1

>  <i_epik_Tot_abs_Q>  (434) 
1

>  <s_lp_Force_Field>  (434) 
OPLS3e

>  <r_lp_Energy>  (434) 
55.7856

>  <b_lp_Chiralities_Consistent>  (434) 
1

>  <s_lp_Variant>  (434) 
106:0-1

>  <s_i_glide_gridfile>  (434) 
pfpi4k_grid

>  <i_i_glide_lignum>  (434) 
15

>  <i_i_glide_rotatable_bonds>  (434) 
4

>  <r_i_docking_score>  (434) 
-2.55577

>  <r_i_glide_ligand_efficiency>  (434) 
-0.0851924

>  <r_i_glide_ligand_efficiency_sa>  (434) 
-0.264713

>  <r_i_glide_ligand_efficiency_ln>  (434) 
-0.580699

>  <r_i_glide_gscore>  (434) 
-2.55577

>  <r_i_glide_lipo>  (434) 
-0.046837

>  <r_i_glide_hbond>  (434) 
0

>  <r_i_glide_metal>  (434) 
-0

>  <r_i_glide_rewards>  (434) 
-0.661779

>  <r_i_glide_evdw>  (434) 
-28.8508

>  <r_i_glide_ecoul>  (434) 
-4.4342

>  <r_i_glide_erotb>  (434) 
0.360264

>  <r_i_glide_esite>  (434) 
-0.0997476

>  <r_i_glide_emodel>  (434) 
-35.7409

>  <r_i_glide_energy>  (434) 
-33.285

>  <r_i_glide_einternal>  (434) 
5.21827

>  <r_i_glide_intrahb_reward>  (434) 
-0

>  <i_i_glide_confnum>  (434) 
2

>  <i_i_glide_posenum>  (434) 
38

>  <r_i_glide_eff_state_penalty>  (434) 
0

>  <ligand_id>  (434) 
106

>  <original_smiles>  (434) 
CCN(C(=O)c1cc2cc3c(nc2n(C)c1=N)C(=O)N(C)C3=O)c1cccc(C)c1

>  <smiles>  (434) 
[H]c1c([H])c(N(C(=O)c2c([H])c3c([H])c4c(nc3[n+](C([H])([H])[H])c2N([H])[H])C(=O)N(C([H])([H])[H])C4=O)C([H])([H])C([H])([H])[H])c([H])c(C([H])([H])[H])c1[H]

$$$$
107:0:0
     RDKit          3D

 43 45  0  0  1  0  0  0  0  0999 V2000
    4.6262   -8.8935    3.7479 C   0  0  0  0  0  0  0  0  0  0  0  0
    3.8658   -8.7367    2.4024 C   0  0  2  0  0  0  0  0  0  0  0  0
    4.1964   -7.5066    1.6783 N   0  0  0  0  0  0  0  0  0  0  0  0
    5.4567   -7.0059    1.4127 C   0  0  0  0  0  0  0  0  0  0  0  0
    5.5329   -5.7155    1.0338 N   0  0  0  0  0  0  0  0  0  0  0  0
    6.7620   -5.1476    0.8675 C   0  0  0  0  0  0  0  0  0  0  0  0
    6.8804   -3.7768    0.4549 N   0  0  0  0  0  0  0  0  0  0  0  0
    8.0640   -3.0852    0.1928 C   0  0  0  0  0  0  0  0  0  0  0  0
    9.2153   -3.5097    0.0639 O   0  0  0  0  0  0  0  0  0  0  0  0
    7.7563   -1.7918    0.0803 O   0  0  0  0  0  0  0  0  0  0  0  0
    6.4029   -1.5003    0.3656 C   0  0  0  0  0  0  0  0  0  0  0  0
    5.7303   -2.8810    0.3406 C   0  0  1  0  0  0  0  0  0  0  0  0
    4.8938   -3.1199   -0.9484 C   0  0  2  0  0  0  0  0  0  0  0  0
    5.7058   -3.0727   -2.2520 C   0  0  0  0  0  0  0  0  0  0  0  0
    3.9160   -2.1089   -1.0518 O   0  0  0  0  0  0  0  0  0  0  0  0
    7.9085   -5.9375    1.1174 C   0  0  0  0  0  0  0  0  0  0  0  0
    7.7165   -7.2705    1.4866 C   0  0  0  0  0  0  0  0  0  0  0  0
    6.4961   -7.8196    1.6107 N   0  0  0  0  0  0  0  0  0  0  0  0
    2.3632   -8.8342    2.6693 C   0  0  0  0  0  0  0  0  0  0  0  0
    1.7326  -10.0893    2.7706 C   0  0  0  0  0  0  0  0  0  0  0  0
    0.3688  -10.1453    3.0835 C   0  0  0  0  0  0  0  0  0  0  0  0
   -0.3376   -8.9557    3.2916 C   0  0  0  0  0  0  0  0  0  0  0  0
    0.3687   -7.7449    3.1896 C   0  0  0  0  0  0  0  0  0  0  0  0
    1.6898   -7.6710    2.8821 N   0  0  0  0  0  0  0  0  0  0  0  0
    3.4335   -6.8738    1.5203 H   0  0  0  0  0  0  0  0  0  0  0  0
    4.3213   -9.8084    4.2682 H   0  0  0  0  0  0  0  0  0  0  0  0
    4.4179   -8.0512    4.4092 H   0  0  0  0  0  0  0  0  0  0  0  0
    5.7092   -8.9690    3.6405 H   0  0  0  0  0  0  0  0  0  0  0  0
    4.1149   -9.5776    1.7519 H   0  0  0  0  0  0  0  0  0  0  0  0
    6.3424   -1.0354    1.3522 H   0  0  0  0  0  0  0  0  0  0  0  0
    6.0007   -0.8053   -0.3733 H   0  0  0  0  0  0  0  0  0  0  0  0
    5.0874   -2.9894    1.2201 H   0  0  0  0  0  0  0  0  0  0  0  0
    4.3875   -4.0857   -0.8944 H   0  0  0  0  0  0  0  0  0  0  0  0
    6.4625   -3.8507   -2.2841 H   0  0  0  0  0  0  0  0  0  0  0  0
    6.2163   -2.1224   -2.3602 H   0  0  0  0  0  0  0  0  0  0  0  0
    5.0692   -3.2092   -3.1243 H   0  0  0  0  0  0  0  0  0  0  0  0
    3.2358   -2.2369   -0.3915 H   0  0  0  0  0  0  0  0  0  0  0  0
    8.9252   -5.6030    1.0650 H   0  0  0  0  0  0  0  0  0  0  0  0
    8.5593   -7.9003    1.7231 H   0  0  0  0  0  0  0  0  0  0  0  0
    2.2901  -11.0097    2.6231 H   0  0  0  0  0  0  0  0  0  0  0  0
   -0.1160  -11.1061    3.1782 H   0  0  0  0  0  0  0  0  0  0  0  0
   -1.3910   -8.9763    3.5404 H   0  0  0  0  0  0  0  0  0  0  0  0
   -0.1335   -6.8077    3.3667 H   0  0  0  0  0  0  0  0  0  0  0  0
  1  2  1  0
  1 26  1  0
  1 27  1  0
  1 28  1  0
  2 19  1  0
  2 29  1  6
  2  3  1  0
  3  4  1  0
  3 25  1  0
  4  5  2  0
  4 18  1  0
  5  6  1  0
  6  7  1  0
  6 16  2  0
  7 12  1  0
  7  8  1  0
  8  9  2  0
  8 10  1  0
 10 11  1  0
 11 12  1  0
 11 30  1  0
 11 31  1  0
 12 13  1  0
 12 32  1  1
 13 14  1  0
 13 15  1  0
 13 33  1  1
 14 34  1  0
 14 35  1  0
 14 36  1  0
 15 37  1  0
 16 38  1  0
 16 17  1  0
 17 39  1  0
 17 18  2  0
 19 24  1  0
 19 20  2  0
 20 21  1  0
 20 40  1  0
 21 22  2  0
 21 41  1  0
 22 23  1  0
 22 42  1  0
 23 24  2  0
 23 43  1  0
M  END
>  <i_m_ct_stereo_status>  (435) 
1

>  <s_m_source_file>  (435) 
/var/tmp/pbs.5102103.sched01/tmpeh5ntauu/15412114_vq.sdf

>  <i_m_source_file_index>  (435) 
16

>  <i_lp_mmshare_version>  (435) 
48012

>  <i_f3d_flags>  (435) 
0

>  <s_epik_input>  (435) 
bjFbY0hdW2NIXVtjSF1bY0hdYzFbQ0BIXShbQ0gzXSkvTj1jMlxuYyhbY0hdW2NIXVtuSF0yKU4zQyg9TylPW0NIMl1bQ0BIXTNbQ0BIXShbQ0gzXSlbT0hd

>  <s_epik_cmdline>  (435) 
J2VwaWtfcHl0aG9uJywgJy1waHQnLCAnMi4wJywgJy1waCcsICc3LjAnLCAnLXRuJywgJzgnLCAnLW1hJywgJzIwMCcsICctaW1hZScsICc8aW5maWxlLm1hZT4nLCAnLW9tYWUnLCAnPG91dGZpbGUubWFlPic=

>  <r_lp_tautomer_probability>  (435) 
1

>  <r_epik_Ionization_Penalty>  (435) 
0.227376

>  <r_epik_Ionization_Penalty_Charging>  (435) 
0

>  <r_epik_Ionization_Penalty_Neutral>  (435) 
0.227376

>  <r_epik_State_Penalty>  (435) 
0.200832

>  <r_epik_Charging_Adjusted_Penalty>  (435) 
0.200832

>  <i_epik_Tot_Q>  (435) 
0

>  <i_epik_Tot_abs_Q>  (435) 
0

>  <s_epik_Chemistry_Notes>  (435) 
This compound has an ester and may undergo hydrolysis at high or low pH.

>  <s_lp_Force_Field>  (435) 
OPLS3e

>  <r_lp_Energy>  (435) 
19.4248

>  <b_lp_Chiralities_Consistent>  (435) 
1

>  <s_lp_Variant>  (435) 
107:0-1

>  <s_i_glide_gridfile>  (435) 
pfpi4k_grid

>  <i_i_glide_lignum>  (435) 
16

>  <i_i_glide_rotatable_bonds>  (435) 
6

>  <r_i_docking_score>  (435) 
-3.62867

>  <r_i_glide_ligand_efficiency>  (435) 
-0.151194

>  <r_i_glide_ligand_efficiency_sa>  (435) 
-0.43612

>  <r_i_glide_ligand_efficiency_ln>  (435) 
-0.868507

>  <r_i_glide_gscore>  (435) 
-3.62867

>  <r_i_glide_lipo>  (435) 
-0.474158

>  <r_i_glide_hbond>  (435) 
-0.233848

>  <r_i_glide_metal>  (435) 
-0

>  <r_i_glide_rewards>  (435) 
-1.75785

>  <r_i_glide_evdw>  (435) 
-31.7959

>  <r_i_glide_ecoul>  (435) 
-2.92862

>  <r_i_glide_erotb>  (435) 
0.86628

>  <r_i_glide_esite>  (435) 
0

>  <r_i_glide_emodel>  (435) 
-40.5938

>  <r_i_glide_energy>  (435) 
-34.7245

>  <r_i_glide_einternal>  (435) 
4.39586

>  <r_i_glide_intrahb_reward>  (435) 
-0

>  <i_i_glide_confnum>  (435) 
3

>  <i_i_glide_posenum>  (435) 
20

>  <r_i_glide_eff_state_penalty>  (435) 
0

>  <ligand_id>  (435) 
107

>  <original_smiles>  (435) 
CC(N=c1nc(N2C(=O)OCC2C(C)O)cc[nH]1)c1ccccn1

>  <smiles>  (435) 
[H]OC([H])(C([H])([H])[H])C1([H])N(c2nc(N([H])C([H])(c3nc([H])c([H])c([H])c3[H])C([H])([H])[H])nc([H])c2[H])C(=O)OC1([H])[H]

$$$$
107:0:1
     RDKit          3D

 43 45  0  0  1  0  0  0  0  0999 V2000
    2.3436    3.2870    3.0406 C   0  0  0  0  0  0  0  0  0  0  0  0
    1.6850    2.0084    3.5990 C   0  0  2  0  0  0  0  0  0  0  0  0
    1.8895    0.8759    2.6921 N   0  0  0  0  0  0  0  0  0  0  0  0
    3.0492    0.1467    2.5410 C   0  0  0  0  0  0  0  0  0  0  0  0
    3.1228   -0.6349    1.4605 N   0  0  0  0  0  0  0  0  0  0  0  0
    4.2507   -1.3647    1.2561 C   0  0  0  0  0  0  0  0  0  0  0  0
    4.4119   -2.2181    0.1209 N   0  0  0  0  0  0  0  0  0  0  0  0
    5.5427   -2.2378   -0.6879 C   0  0  0  0  0  0  0  0  0  0  0  0
    6.6606   -1.7838   -0.4622 O   0  0  0  0  0  0  0  0  0  0  0  0
    5.2086   -2.8786   -1.8065 O   0  0  0  0  0  0  0  0  0  0  0  0
    3.8323   -3.1985   -1.8982 C   0  0  0  0  0  0  0  0  0  0  0  0
    3.3187   -2.9735   -0.4712 C   0  0  1  0  0  0  0  0  0  0  0  0
    3.0514   -4.2962    0.2952 C   0  0  2  0  0  0  0  0  0  0  0  0
    4.2719   -5.2309    0.4064 C   0  0  0  0  0  0  0  0  0  0  0  0
    1.9941   -5.0116   -0.3183 O   0  0  0  0  0  0  0  0  0  0  0  0
    5.2944   -1.2969    2.2064 C   0  0  0  0  0  0  0  0  0  0  0  0
    5.1017   -0.4643    3.3223 C   0  0  0  0  0  0  0  0  0  0  0  0
    3.9783    0.2548    3.4890 N   0  0  0  0  0  0  0  0  0  0  0  0
    0.2092    2.2624    3.9088 C   0  0  0  0  0  0  0  0  0  0  0  0
   -0.2063    2.6141    5.2181 C   0  0  0  0  0  0  0  0  0  0  0  0
   -1.5719    2.8704    5.4560 C   0  0  0  0  0  0  0  0  0  0  0  0
   -2.4678    2.7974    4.3762 C   0  0  0  0  0  0  0  0  0  0  0  0
   -1.9583    2.4541    3.1068 C   0  0  0  0  0  0  0  0  0  0  0  0
   -0.6613    2.1651    2.8812 N   0  0  0  0  0  0  0  0  0  0  0  0
    1.2103    0.7798    1.9553 H   0  0  0  0  0  0  0  0  0  0  0  0
    2.2293    4.1256    3.7316 H   0  0  0  0  0  0  0  0  0  0  0  0
    1.9019    3.5906    2.0885 H   0  0  0  0  0  0  0  0  0  0  0  0
    3.4131    3.1509    2.8814 H   0  0  0  0  0  0  0  0  0  0  0  0
    2.1562    1.7788    4.5568 H   0  0  0  0  0  0  0  0  0  0  0  0
    3.3473   -2.5330   -2.6140 H   0  0  0  0  0  0  0  0  0  0  0  0
    3.6964   -4.2219   -2.2420 H   0  0  0  0  0  0  0  0  0  0  0  0
    2.4138   -2.3703   -0.4901 H   0  0  0  0  0  0  0  0  0  0  0  0
    2.7191   -4.0482    1.3065 H   0  0  0  0  0  0  0  0  0  0  0  0
    5.0921   -4.7556    0.9464 H   0  0  0  0  0  0  0  0  0  0  0  0
    4.6510   -5.5220   -0.5742 H   0  0  0  0  0  0  0  0  0  0  0  0
    4.0232   -6.1502    0.9365 H   0  0  0  0  0  0  0  0  0  0  0  0
    2.2937   -5.3126   -1.1783 H   0  0  0  0  0  0  0  0  0  0  0  0
    6.2048   -1.8627    2.1003 H   0  0  0  0  0  0  0  0  0  0  0  0
    5.8521   -0.3744    4.0939 H   0  0  0  0  0  0  0  0  0  0  0  0
    0.5119    2.6823    6.0222 H   0  0  0  0  0  0  0  0  0  0  0  0
   -1.9268    3.1097    6.4484 H   0  0  0  0  0  0  0  0  0  0  0  0
   -3.5273    2.9531    4.5144 H   0  0  0  0  0  0  0  0  0  0  0  0
   -2.6231    2.3717    2.2626 H   0  0  0  0  0  0  0  0  0  0  0  0
  1  2  1  0
  1 26  1  0
  1 27  1  0
  1 28  1  0
  2 19  1  0
  2 29  1  1
  2  3  1  0
  3  4  1  0
  3 25  1  0
  4  5  2  0
  4 18  1  0
  5  6  1  0
  6  7  1  0
  6 16  2  0
  7 12  1  0
  7  8  1  0
  8  9  2  0
  8 10  1  0
 10 11  1  0
 11 12  1  0
 11 30  1  0
 11 31  1  0
 12 13  1  0
 12 32  1  6
 13 14  1  0
 13 15  1  0
 13 33  1  1
 14 34  1  0
 14 35  1  0
 14 36  1  0
 15 37  1  0
 16 38  1  0
 16 17  1  0
 17 39  1  0
 17 18  2  0
 19 24  1  0
 19 20  2  0
 20 21  1  0
 20 40  1  0
 21 22  2  0
 21 41  1  0
 22 23  1  0
 22 42  1  0
 23 24  2  0
 23 43  1  0
M  END
>  <i_m_ct_stereo_status>  (436) 
1

>  <s_m_source_file>  (436) 
/var/tmp/pbs.5102103.sched01/tmpeh5ntauu/15412114_vq.sdf

>  <i_m_source_file_index>  (436) 
16

>  <i_lp_mmshare_version>  (436) 
48012

>  <i_f3d_flags>  (436) 
0

>  <s_epik_input>  (436) 
bjFbY0hdW2NIXVtjSF1bY0hdYzFbQ0BIXShbQ0gzXSkvTj1jMlxuYyhbY0hdW2NIXVtuSF0yKU4zQyg9TylPW0NIMl1bQ0BIXTNbQ0BIXShbQ0gzXSlbT0hd

>  <s_epik_cmdline>  (436) 
J2VwaWtfcHl0aG9uJywgJy1waHQnLCAnMi4wJywgJy1waCcsICc3LjAnLCAnLXRuJywgJzgnLCAnLW1hJywgJzIwMCcsICctaW1hZScsICc8aW5maWxlLm1hZT4nLCAnLW9tYWUnLCAnPG91dGZpbGUubWFlPic=

>  <r_lp_tautomer_probability>  (436) 
1

>  <r_epik_Ionization_Penalty>  (436) 
0.227376

>  <r_epik_Ionization_Penalty_Charging>  (436) 
0

>  <r_epik_Ionization_Penalty_Neutral>  (436) 
0.227376

>  <r_epik_State_Penalty>  (436) 
0.200832

>  <r_epik_Charging_Adjusted_Penalty>  (436) 
0.200832

>  <i_epik_Tot_Q>  (436) 
0

>  <i_epik_Tot_abs_Q>  (436) 
0

>  <s_epik_Chemistry_Notes>  (436) 
This compound has an ester and may undergo hydrolysis at high or low pH.

>  <s_lp_Force_Field>  (436) 
OPLS3e

>  <r_lp_Energy>  (436) 
19.4248

>  <b_lp_Chiralities_Consistent>  (436) 
1

>  <s_lp_Variant>  (436) 
107:0-1

>  <s_i_glide_gridfile>  (436) 
pfpi4k_grid

>  <i_i_glide_lignum>  (436) 
16

>  <i_i_glide_rotatable_bonds>  (436) 
6

>  <r_i_docking_score>  (436) 
-3.62643

>  <r_i_glide_ligand_efficiency>  (436) 
-0.151101

>  <r_i_glide_ligand_efficiency_sa>  (436) 
-0.435852

>  <r_i_glide_ligand_efficiency_ln>  (436) 
-0.867972

>  <r_i_glide_gscore>  (436) 
-3.62643

>  <r_i_glide_lipo>  (436) 
-0.320964

>  <r_i_glide_hbond>  (436) 
-0.482987

>  <r_i_glide_metal>  (436) 
-0

>  <r_i_glide_rewards>  (436) 
-1.19903

>  <r_i_glide_evdw>  (436) 
-27.7597

>  <r_i_glide_ecoul>  (436) 
-7.05839

>  <r_i_glide_erotb>  (436) 
0.86628

>  <r_i_glide_esite>  (436) 
-0.0429885

>  <r_i_glide_emodel>  (436) 
-41.4263

>  <r_i_glide_energy>  (436) 
-34.8181

>  <r_i_glide_einternal>  (436) 
3.63048

>  <r_i_glide_intrahb_reward>  (436) 
-0

>  <i_i_glide_confnum>  (436) 
3

>  <i_i_glide_posenum>  (436) 
13

>  <r_i_glide_eff_state_penalty>  (436) 
0

>  <ligand_id>  (436) 
107

>  <original_smiles>  (436) 
CC(N=c1nc(N2C(=O)OCC2C(C)O)cc[nH]1)c1ccccn1

>  <smiles>  (436) 
[H]OC([H])(C([H])([H])[H])C1([H])N(c2nc(N([H])C([H])(c3nc([H])c([H])c([H])c3[H])C([H])([H])[H])nc([H])c2[H])C(=O)OC1([H])[H]

$$$$
107:0:2
     RDKit          3D

 43 45  0  0  1  0  0  0  0  0999 V2000
    2.4615   -6.3243    4.5308 C   0  0  0  0  0  0  0  0  0  0  0  0
    2.3932   -6.9891    3.1435 C   0  0  2  0  0  0  0  0  0  0  0  0
    2.6005   -6.0038    2.0847 N   0  0  0  0  0  0  0  0  0  0  0  0
    3.8211   -5.6429    1.5499 C   0  0  0  0  0  0  0  0  0  0  0  0
    3.8188   -4.5668    0.7560 N   0  0  0  0  0  0  0  0  0  0  0  0
    4.9936   -4.1606    0.2027 C   0  0  0  0  0  0  0  0  0  0  0  0
    5.0552   -2.9949   -0.6375 N   0  0  0  0  0  0  0  0  0  0  0  0
    6.1976   -2.2542   -0.9356 C   0  0  0  0  0  0  0  0  0  0  0  0
    7.3880   -2.4945   -0.7443 O   0  0  0  0  0  0  0  0  0  0  0  0
    5.7933   -1.1343   -1.5208 O   0  0  0  0  0  0  0  0  0  0  0  0
    4.3998   -0.9517   -1.5310 C   0  0  0  0  0  0  0  0  0  0  0  0
    3.8641   -2.3355   -1.1684 C   0  0  1  0  0  0  0  0  0  0  0  0
    3.2821   -3.0617   -2.4013 C   0  0  2  0  0  0  0  0  0  0  0  0
    4.3107   -3.4547   -3.4756 C   0  0  0  0  0  0  0  0  0  0  0  0
    2.3188   -2.2561   -3.0387 O   0  0  0  0  0  0  0  0  0  0  0  0
    6.1666   -4.9090    0.4786 C   0  0  0  0  0  0  0  0  0  0  0  0
    6.0513   -6.0237    1.3192 C   0  0  0  0  0  0  0  0  0  0  0  0
    4.8778   -6.3862    1.8617 N   0  0  0  0  0  0  0  0  0  0  0  0
    1.0867   -7.7536    2.9751 C   0  0  0  0  0  0  0  0  0  0  0  0
    1.0837   -9.1604    3.0386 C   0  0  0  0  0  0  0  0  0  0  0  0
   -0.1331   -9.8449    2.8986 C   0  0  0  0  0  0  0  0  0  0  0  0
   -1.3050   -9.0973    2.7119 C   0  0  0  0  0  0  0  0  0  0  0  0
   -1.2079   -7.6996    2.6683 C   0  0  0  0  0  0  0  0  0  0  0  0
   -0.0416   -7.0236    2.7813 N   0  0  0  0  0  0  0  0  0  0  0  0
    1.8368   -5.3840    1.8747 H   0  0  0  0  0  0  0  0  0  0  0  0
    2.3442   -7.0676    5.3228 H   0  0  0  0  0  0  0  0  0  0  0  0
    1.6659   -5.5877    4.6605 H   0  0  0  0  0  0  0  0  0  0  0  0
    3.4155   -5.8191    4.6949 H   0  0  0  0  0  0  0  0  0  0  0  0
    3.1831   -7.7450    3.1052 H   0  0  0  0  0  0  0  0  0  0  0  0
    4.1519   -0.2322   -0.7532 H   0  0  0  0  0  0  0  0  0  0  0  0
    4.0621   -0.5697   -2.4950 H   0  0  0  0  0  0  0  0  0  0  0  0
    3.0964   -2.2328   -0.4026 H   0  0  0  0  0  0  0  0  0  0  0  0
    2.7554   -3.9395   -2.0427 H   0  0  0  0  0  0  0  0  0  0  0  0
    5.0502   -4.1580   -3.0867 H   0  0  0  0  0  0  0  0  0  0  0  0
    4.8393   -2.5905   -3.8628 H   0  0  0  0  0  0  0  0  0  0  0  0
    3.8264   -3.9495   -4.3178 H   0  0  0  0  0  0  0  0  0  0  0  0
    1.7251   -1.9107   -2.3843 H   0  0  0  0  0  0  0  0  0  0  0  0
    7.1414   -4.6852    0.0793 H   0  0  0  0  0  0  0  0  0  0  0  0
    6.9109   -6.6319    1.5510 H   0  0  0  0  0  0  0  0  0  0  0  0
    1.9978   -9.7127    3.2004 H   0  0  0  0  0  0  0  0  0  0  0  0
   -0.1640  -10.9230    2.9465 H   0  0  0  0  0  0  0  0  0  0  0  0
   -2.2537   -9.5961    2.6128 H   0  0  0  0  0  0  0  0  0  0  0  0
   -2.0978   -7.1045    2.5393 H   0  0  0  0  0  0  0  0  0  0  0  0
  1  2  1  0
  1 26  1  0
  1 27  1  0
  1 28  1  0
  2 19  1  0
  2 29  1  1
  2  3  1  0
  3  4  1  0
  3 25  1  0
  4  5  2  0
  4 18  1  0
  5  6  1  0
  6  7  1  0
  6 16  2  0
  7 12  1  0
  7  8  1  0
  8  9  2  0
  8 10  1  0
 10 11  1  0
 11 12  1  0
 11 30  1  0
 11 31  1  0
 12 13  1  0
 12 32  1  1
 13 14  1  0
 13 15  1  0
 13 33  1  1
 14 34  1  0
 14 35  1  0
 14 36  1  0
 15 37  1  0
 16 38  1  0
 16 17  1  0
 17 39  1  0
 17 18  2  0
 19 24  1  0
 19 20  2  0
 20 21  1  0
 20 40  1  0
 21 22  2  0
 21 41  1  0
 22 23  1  0
 22 42  1  0
 23 24  2  0
 23 43  1  0
M  END
>  <i_m_ct_stereo_status>  (437) 
1

>  <s_m_source_file>  (437) 
/var/tmp/pbs.5102103.sched01/tmpeh5ntauu/15412114_vq.sdf

>  <i_m_source_file_index>  (437) 
16

>  <i_lp_mmshare_version>  (437) 
48012

>  <i_f3d_flags>  (437) 
0

>  <s_epik_input>  (437) 
bjFbY0hdW2NIXVtjSF1bY0hdYzFbQ0BIXShbQ0gzXSkvTj1jMlxuYyhbY0hdW2NIXVtuSF0yKU4zQyg9TylPW0NIMl1bQ0BIXTNbQ0BIXShbQ0gzXSlbT0hd

>  <s_epik_cmdline>  (437) 
J2VwaWtfcHl0aG9uJywgJy1waHQnLCAnMi4wJywgJy1waCcsICc3LjAnLCAnLXRuJywgJzgnLCAnLW1hJywgJzIwMCcsICctaW1hZScsICc8aW5maWxlLm1hZT4nLCAnLW9tYWUnLCAnPG91dGZpbGUubWFlPic=

>  <r_lp_tautomer_probability>  (437) 
1

>  <r_epik_Ionization_Penalty>  (437) 
0.227376

>  <r_epik_Ionization_Penalty_Charging>  (437) 
0

>  <r_epik_Ionization_Penalty_Neutral>  (437) 
0.227376

>  <r_epik_State_Penalty>  (437) 
0.200832

>  <r_epik_Charging_Adjusted_Penalty>  (437) 
0.200832

>  <i_epik_Tot_Q>  (437) 
0

>  <i_epik_Tot_abs_Q>  (437) 
0

>  <s_epik_Chemistry_Notes>  (437) 
This compound has an ester and may undergo hydrolysis at high or low pH.

>  <s_lp_Force_Field>  (437) 
OPLS3e

>  <r_lp_Energy>  (437) 
19.4248

>  <b_lp_Chiralities_Consistent>  (437) 
1

>  <s_lp_Variant>  (437) 
107:0-1

>  <s_i_glide_gridfile>  (437) 
pfpi4k_grid

>  <i_i_glide_lignum>  (437) 
16

>  <i_i_glide_rotatable_bonds>  (437) 
6

>  <r_i_docking_score>  (437) 
-3.37019

>  <r_i_glide_ligand_efficiency>  (437) 
-0.140424

>  <r_i_glide_ligand_efficiency_sa>  (437) 
-0.405054

>  <r_i_glide_ligand_efficiency_ln>  (437) 
-0.80664

>  <r_i_glide_gscore>  (437) 
-3.37019

>  <r_i_glide_lipo>  (437) 
-0.451806

>  <r_i_glide_hbond>  (437) 
-0.379547

>  <r_i_glide_metal>  (437) 
-0

>  <r_i_glide_rewards>  (437) 
-1.22356

>  <r_i_glide_evdw>  (437) 
-31.6301

>  <r_i_glide_ecoul>  (437) 
-3.68644

>  <r_i_glide_erotb>  (437) 
0.86628

>  <r_i_glide_esite>  (437) 
-0.0470773

>  <r_i_glide_emodel>  (437) 
-41.0793

>  <r_i_glide_energy>  (437) 
-35.3165

>  <r_i_glide_einternal>  (437) 
3.78788

>  <r_i_glide_intrahb_reward>  (437) 
-0

>  <i_i_glide_confnum>  (437) 
3

>  <i_i_glide_posenum>  (437) 
16

>  <r_i_glide_eff_state_penalty>  (437) 
0

>  <ligand_id>  (437) 
107

>  <original_smiles>  (437) 
CC(N=c1nc(N2C(=O)OCC2C(C)O)cc[nH]1)c1ccccn1

>  <smiles>  (437) 
[H]OC([H])(C([H])([H])[H])C1([H])N(c2nc(N([H])C([H])(c3nc([H])c([H])c([H])c3[H])C([H])([H])[H])nc([H])c2[H])C(=O)OC1([H])[H]

$$$$
107:1:0
     RDKit          3D

 44 46  0  0  1  0  0  0  0  0999 V2000
    4.1961   -0.7861    0.3119 C   0  0  0  0  0  0  0  0  0  0  0  0
    3.5216   -1.0427    1.6662 C   0  0  2  0  0  0  0  0  0  0  0  0
    2.8163   -2.3199    1.6785 N   0  0  0  0  0  0  0  0  0  0  0  0
    3.3741   -3.5133    2.0902 C   0  0  0  0  0  0  0  0  0  0  0  0
    2.5912   -4.5906    2.0202 N   0  0  0  0  0  0  0  0  0  0  0  0
    3.0786   -5.7909    2.4485 C   0  0  0  0  0  0  0  0  0  0  0  0
    2.3053   -7.0072    2.4159 N   0  0  0  0  0  0  0  0  0  0  0  0
    1.0828   -7.1321    1.7581 C   0  0  0  0  0  0  0  0  0  0  0  0
    0.5221   -6.3489    0.9835 O   0  0  0  0  0  0  0  0  0  0  0  0
    0.5786   -8.3160    2.0973 O   0  0  0  0  0  0  0  0  0  0  0  0
    1.3316   -9.0237    3.0633 C   0  0  0  0  0  0  0  0  0  0  0  0
    2.6698   -8.2570    3.0994 C   0  0  1  0  0  0  0  0  0  0  0  0
    3.8257   -9.0589    2.4136 C   0  0  2  0  0  0  0  0  0  0  0  0
    3.7723   -9.0580    0.8868 C   0  0  0  0  0  0  0  0  0  0  0  0
    3.8442  -10.3951    2.8731 O   0  0  0  0  0  0  0  0  0  0  0  0
    4.3986   -5.8317    2.9576 C   0  0  0  0  0  0  0  0  0  0  0  0
    5.1433   -4.6417    2.9567 C   0  0  0  0  0  0  0  0  0  0  0  0
    4.6257   -3.4769    2.5365 N   0  0  0  0  0  0  0  0  0  0  0  0
    2.6506    0.1341    2.0782 C   0  0  0  0  0  0  0  0  0  0  0  0
    3.0097    0.9856    3.1472 C   0  0  0  0  0  0  0  0  0  0  0  0
    2.1835    2.0800    3.4722 C   0  0  0  0  0  0  0  0  0  0  0  0
    1.0048    2.2825    2.7343 C   0  0  0  0  0  0  0  0  0  0  0  0
    0.6820    1.3995    1.6834 C   0  0  0  0  0  0  0  0  0  0  0  0
    1.5123    0.3774    1.3920 N   0  0  0  0  0  0  0  0  0  0  0  0
    1.9538   -2.4140    1.1665 H   0  0  0  0  0  0  0  0  0  0  0  0
    4.7810    0.1364    0.3398 H   0  0  0  0  0  0  0  0  0  0  0  0
    3.4576   -0.6860   -0.4879 H   0  0  0  0  0  0  0  0  0  0  0  0
    4.8703   -1.6004    0.0384 H   0  0  0  0  0  0  0  0  0  0  0  0
    4.3154   -1.0648    2.4160 H   0  0  0  0  0  0  0  0  0  0  0  0
    0.8198   -8.9757    4.0254 H   0  0  0  0  0  0  0  0  0  0  0  0
    1.4296  -10.0770    2.8008 H   0  0  0  0  0  0  0  0  0  0  0  0
    2.9311   -8.0651    4.1416 H   0  0  0  0  0  0  0  0  0  0  0  0
    4.8012   -8.6665    2.6990 H   0  0  0  0  0  0  0  0  0  0  0  0
    3.8465   -8.0522    0.4773 H   0  0  0  0  0  0  0  0  0  0  0  0
    2.8432   -9.5033    0.5299 H   0  0  0  0  0  0  0  0  0  0  0  0
    4.5950   -9.6402    0.4804 H   0  0  0  0  0  0  0  0  0  0  0  0
    3.8555  -10.9829    2.1230 H   0  0  0  0  0  0  0  0  0  0  0  0
    4.8638   -6.7212    3.3350 H   0  0  0  0  0  0  0  0  0  0  0  0
    6.1655   -4.6335    3.3013 H   0  0  0  0  0  0  0  0  0  0  0  0
    3.9258    0.8311    3.6939 H   0  0  0  0  0  0  0  0  0  0  0  0
    2.4629    2.7696    4.2578 H   0  0  0  0  0  0  0  0  0  0  0  0
    0.3708    3.1322    2.9258 H   0  0  0  0  0  0  0  0  0  0  0  0
   -0.1818    1.5116    1.0418 H   0  0  0  0  0  0  0  0  0  0  0  0
    1.2627   -0.2220    0.5874 H   0  0  0  0  0  0  0  0  0  0  0  0
  1  2  1  0
  1 26  1  0
  1 27  1  0
  1 28  1  0
  2 19  1  0
  2 29  1  1
  2  3  1  0
  3  4  1  0
  3 25  1  0
  4  5  2  0
  4 18  1  0
  5  6  1  0
  6  7  1  0
  6 16  2  0
  7 12  1  0
  7  8  1  0
  8  9  2  0
  8 10  1  0
 10 11  1  0
 11 12  1  0
 11 30  1  0
 11 31  1  0
 12 13  1  0
 12 32  1  1
 13 14  1  0
 13 15  1  0
 13 33  1  6
 14 34  1  0
 14 35  1  0
 14 36  1  0
 15 37  1  0
 16 38  1  0
 16 17  1  0
 17 39  1  0
 17 18  2  0
 19 24  1  0
 19 20  2  0
 20 21  1  0
 20 40  1  0
 21 22  2  0
 21 41  1  0
 22 23  1  0
 22 42  1  0
 23 24  2  0
 23 43  1  0
 24 44  1  0
M  CHG  1  24   1
M  END
>  <i_m_ct_stereo_status>  (438) 
1

>  <s_m_source_file>  (438) 
/var/tmp/pbs.5102103.sched01/tmpeh5ntauu/15412114_vq.sdf

>  <i_m_source_file_index>  (438) 
17

>  <i_lp_mmshare_version>  (438) 
48012

>  <i_f3d_flags>  (438) 
0

>  <s_epik_input>  (438) 
bjFbY0hdW2NIXVtjSF1bY0hdYzFbQ0BIXShbQ0gzXSkvTj1jMlxuYyhbY0hdW2NIXVtuSF0yKU4zQyg9TylPW0NIMl1bQ0BIXTNbQ0BIXShbQ0gzXSlbT0hd

>  <s_epik_cmdline>  (438) 
J2VwaWtfcHl0aG9uJywgJy1waHQnLCAnMi4wJywgJy1waCcsICc3LjAnLCAnLXRuJywgJzgnLCAnLW1hJywgJzIwMCcsICctaW1hZScsICc8aW5maWxlLm1hZT4nLCAnLW9tYWUnLCAnPG91dGZpbGUubWFlPic=

>  <r_lp_tautomer_probability>  (438) 
1

>  <r_epik_Ionization_Penalty>  (438) 
0.798619

>  <r_epik_Ionization_Penalty_Charging>  (438) 
0.775653

>  <r_epik_Ionization_Penalty_Neutral>  (438) 
0.022966

>  <r_epik_State_Penalty>  (438) 
0.829504

>  <r_epik_Charging_Adjusted_Penalty>  (438) 
1.60516

>  <i_epik_Tot_Q>  (438) 
1

>  <i_epik_Tot_abs_Q>  (438) 
1

>  <s_epik_Chemistry_Notes>  (438) 
This compound has an ester and may undergo hydrolysis at high or low pH.

>  <s_lp_Force_Field>  (438) 
OPLS3e

>  <r_lp_Energy>  (438) 
21.8249

>  <b_lp_Chiralities_Consistent>  (438) 
1

>  <s_lp_Variant>  (438) 
107:0-2

>  <s_i_glide_gridfile>  (438) 
pfpi4k_grid

>  <i_i_glide_lignum>  (438) 
17

>  <i_i_glide_rotatable_bonds>  (438) 
6

>  <r_i_docking_score>  (438) 
-4.02638

>  <r_i_glide_ligand_efficiency>  (438) 
-0.167766

>  <r_i_glide_ligand_efficiency_sa>  (438) 
-0.48392

>  <r_i_glide_ligand_efficiency_ln>  (438) 
-0.963698

>  <r_i_glide_gscore>  (438) 
-4.02638

>  <r_i_glide_lipo>  (438) 
-0.0550455

>  <r_i_glide_hbond>  (438) 
-0.471794

>  <r_i_glide_metal>  (438) 
-0

>  <r_i_glide_rewards>  (438) 
-1.15862

>  <r_i_glide_evdw>  (438) 
-24.387

>  <r_i_glide_ecoul>  (438) 
-12.0586

>  <r_i_glide_erotb>  (438) 
0.861614

>  <r_i_glide_esite>  (438) 
-0.1744

>  <r_i_glide_emodel>  (438) 
-46.9669

>  <r_i_glide_energy>  (438) 
-36.4455

>  <r_i_glide_einternal>  (438) 
5.08375

>  <r_i_glide_intrahb_reward>  (438) 
-0

>  <i_i_glide_confnum>  (438) 
5

>  <i_i_glide_posenum>  (438) 
25

>  <r_i_glide_eff_state_penalty>  (438) 
0

>  <ligand_id>  (438) 
107

>  <original_smiles>  (438) 
CC(N=c1nc(N2C(=O)OCC2C(C)O)cc[nH]1)c1ccccn1

>  <smiles>  (438) 
[H]OC([H])(C([H])([H])[H])C1([H])N(c2nc(N([H])C([H])(c3c([H])c([H])c([H])c([H])[n+]3[H])C([H])([H])[H])nc([H])c2[H])C(=O)OC1([H])[H]

$$$$
107:1:1
     RDKit          3D

 44 46  0  0  1  0  0  0  0  0999 V2000
    3.9763   -1.5895    1.1391 C   0  0  0  0  0  0  0  0  0  0  0  0
    3.1385   -1.5708    2.4301 C   0  0  2  0  0  0  0  0  0  0  0  0
    2.2863   -2.7609    2.5265 N   0  0  0  0  0  0  0  0  0  0  0  0
    2.7167   -3.9851    3.0013 C   0  0  0  0  0  0  0  0  0  0  0  0
    1.9070   -5.0238    2.7791 N   0  0  0  0  0  0  0  0  0  0  0  0
    2.2791   -6.2566    3.2255 C   0  0  0  0  0  0  0  0  0  0  0  0
    1.4807   -7.4420    3.0281 N   0  0  0  0  0  0  0  0  0  0  0  0
    0.2776   -7.4646    2.3267 C   0  0  0  0  0  0  0  0  0  0  0  0
   -0.2409   -6.5789    1.6462 O   0  0  0  0  0  0  0  0  0  0  0  0
   -0.2574   -8.6735    2.4996 O   0  0  0  0  0  0  0  0  0  0  0  0
    0.4619   -9.5062    3.3874 C   0  0  0  0  0  0  0  0  0  0  0  0
    1.8065   -8.7742    3.5584 C   0  0  1  0  0  0  0  0  0  0  0  0
    2.9701   -9.4846    2.7943 C   0  0  2  0  0  0  0  0  0  0  0  0
    2.9150   -9.3215    1.2793 C   0  0  0  0  0  0  0  0  0  0  0  0
    2.9804  -10.8734    3.0594 O   0  0  0  0  0  0  0  0  0  0  0  0
    3.5042   -6.3736    3.9243 C   0  0  0  0  0  0  0  0  0  0  0  0
    4.2777   -5.2144    4.0990 C   0  0  0  0  0  0  0  0  0  0  0  0
    3.8802   -4.0207    3.6365 N   0  0  0  0  0  0  0  0  0  0  0  0
    2.3810   -0.2598    2.5759 C   0  0  0  0  0  0  0  0  0  0  0  0
    2.6798    0.6726    3.5984 C   0  0  0  0  0  0  0  0  0  0  0  0
    1.9615    1.8881    3.6587 C   0  0  0  0  0  0  0  0  0  0  0  0
    0.9619    2.1404    2.6963 C   0  0  0  0  0  0  0  0  0  0  0  0
    0.7067    1.1833    1.6998 C   0  0  0  0  0  0  0  0  0  0  0  0
    1.4118    0.0320    1.6811 N   0  0  0  0  0  0  0  0  0  0  0  0
    1.4225   -2.7880    2.0112 H   0  0  0  0  0  0  0  0  0  0  0  0
    4.6614   -0.7415    1.1101 H   0  0  0  0  0  0  0  0  0  0  0  0
    3.3455   -1.5328    0.2501 H   0  0  0  0  0  0  0  0  0  0  0  0
    4.5765   -2.4972    1.0634 H   0  0  0  0  0  0  0  0  0  0  0  0
    3.8393   -1.5857    3.2675 H   0  0  0  0  0  0  0  0  0  0  0  0
   -0.0756   -9.5634    4.3337 H   0  0  0  0  0  0  0  0  0  0  0  0
    0.5484  -10.5186    2.9916 H   0  0  0  0  0  0  0  0  0  0  0  0
    2.0445   -8.7288    4.6235 H   0  0  0  0  0  0  0  0  0  0  0  0
    3.9368   -9.1072    3.1263 H   0  0  0  0  0  0  0  0  0  0  0  0
    2.9964   -8.2754    0.9828 H   0  0  0  0  0  0  0  0  0  0  0  0
    1.9785   -9.7156    0.8829 H   0  0  0  0  0  0  0  0  0  0  0  0
    3.7295   -9.8506    0.7835 H   0  0  0  0  0  0  0  0  0  0  0  0
    3.4170  -11.3239    2.3455 H   0  0  0  0  0  0  0  0  0  0  0  0
    3.8702   -7.2991    4.3270 H   0  0  0  0  0  0  0  0  0  0  0  0
    5.2258   -5.2435    4.6109 H   0  0  0  0  0  0  0  0  0  0  0  0
    3.4576    0.4742    4.3255 H   0  0  0  0  0  0  0  0  0  0  0  0
    2.1741    2.6228    4.4209 H   0  0  0  0  0  0  0  0  0  0  0  0
    0.4127    3.0705    2.6905 H   0  0  0  0  0  0  0  0  0  0  0  0
   -0.0071    1.3179    0.8977 H   0  0  0  0  0  0  0  0  0  0  0  0
    1.2330   -0.6126    0.8939 H   0  0  0  0  0  0  0  0  0  0  0  0
  1  2  1  0
  1 26  1  0
  1 27  1  0
  1 28  1  0
  2 19  1  0
  2 29  1  1
  2  3  1  0
  3  4  1  0
  3 25  1  0
  4  5  2  0
  4 18  1  0
  5  6  1  0
  6  7  1  0
  6 16  2  0
  7 12  1  0
  7  8  1  0
  8  9  2  0
  8 10  1  0
 10 11  1  0
 11 12  1  0
 11 30  1  0
 11 31  1  0
 12 13  1  0
 12 32  1  1
 13 14  1  0
 13 15  1  0
 13 33  1  1
 14 34  1  0
 14 35  1  0
 14 36  1  0
 15 37  1  0
 16 38  1  0
 16 17  1  0
 17 39  1  0
 17 18  2  0
 19 24  1  0
 19 20  2  0
 20 21  1  0
 20 40  1  0
 21 22  2  0
 21 41  1  0
 22 23  1  0
 22 42  1  0
 23 24  2  0
 23 43  1  0
 24 44  1  0
M  CHG  1  24   1
M  END
>  <i_m_ct_stereo_status>  (439) 
1

>  <s_m_source_file>  (439) 
/var/tmp/pbs.5102103.sched01/tmpeh5ntauu/15412114_vq.sdf

>  <i_m_source_file_index>  (439) 
17

>  <i_lp_mmshare_version>  (439) 
48012

>  <i_f3d_flags>  (439) 
0

>  <s_epik_input>  (439) 
bjFbY0hdW2NIXVtjSF1bY0hdYzFbQ0BIXShbQ0gzXSkvTj1jMlxuYyhbY0hdW2NIXVtuSF0yKU4zQyg9TylPW0NIMl1bQ0BIXTNbQ0BIXShbQ0gzXSlbT0hd

>  <s_epik_cmdline>  (439) 
J2VwaWtfcHl0aG9uJywgJy1waHQnLCAnMi4wJywgJy1waCcsICc3LjAnLCAnLXRuJywgJzgnLCAnLW1hJywgJzIwMCcsICctaW1hZScsICc8aW5maWxlLm1hZT4nLCAnLW9tYWUnLCAnPG91dGZpbGUubWFlPic=

>  <r_lp_tautomer_probability>  (439) 
1

>  <r_epik_Ionization_Penalty>  (439) 
0.798619

>  <r_epik_Ionization_Penalty_Charging>  (439) 
0.775653

>  <r_epik_Ionization_Penalty_Neutral>  (439) 
0.022966

>  <r_epik_State_Penalty>  (439) 
0.829504

>  <r_epik_Charging_Adjusted_Penalty>  (439) 
1.60516

>  <i_epik_Tot_Q>  (439) 
1

>  <i_epik_Tot_abs_Q>  (439) 
1

>  <s_epik_Chemistry_Notes>  (439) 
This compound has an ester and may undergo hydrolysis at high or low pH.

>  <s_lp_Force_Field>  (439) 
OPLS3e

>  <r_lp_Energy>  (439) 
21.8249

>  <b_lp_Chiralities_Consistent>  (439) 
1

>  <s_lp_Variant>  (439) 
107:0-2

>  <s_i_glide_gridfile>  (439) 
pfpi4k_grid

>  <i_i_glide_lignum>  (439) 
17

>  <i_i_glide_rotatable_bonds>  (439) 
6

>  <r_i_docking_score>  (439) 
-3.94941

>  <r_i_glide_ligand_efficiency>  (439) 
-0.164559

>  <r_i_glide_ligand_efficiency_sa>  (439) 
-0.474669

>  <r_i_glide_ligand_efficiency_ln>  (439) 
-0.945274

>  <r_i_glide_gscore>  (439) 
-3.94941

>  <r_i_glide_lipo>  (439) 
-9.43364e-05

>  <r_i_glide_hbond>  (439) 
-0.529012

>  <r_i_glide_metal>  (439) 
-0

>  <r_i_glide_rewards>  (439) 
-1.15662

>  <r_i_glide_evdw>  (439) 
-23.9326

>  <r_i_glide_ecoul>  (439) 
-11.6772

>  <r_i_glide_erotb>  (439) 
0.861614

>  <r_i_glide_esite>  (439) 
-0.177089

>  <r_i_glide_emodel>  (439) 
-46.5745

>  <r_i_glide_energy>  (439) 
-35.6097

>  <r_i_glide_einternal>  (439) 
3.76526

>  <r_i_glide_intrahb_reward>  (439) 
-0

>  <i_i_glide_confnum>  (439) 
5

>  <i_i_glide_posenum>  (439) 
6

>  <r_i_glide_eff_state_penalty>  (439) 
0

>  <ligand_id>  (439) 
107

>  <original_smiles>  (439) 
CC(N=c1nc(N2C(=O)OCC2C(C)O)cc[nH]1)c1ccccn1

>  <smiles>  (439) 
[H]OC([H])(C([H])([H])[H])C1([H])N(c2nc(N([H])C([H])(c3c([H])c([H])c([H])c([H])[n+]3[H])C([H])([H])[H])nc([H])c2[H])C(=O)OC1([H])[H]

$$$$
107:1:2
     RDKit          3D

 44 46  0  0  1  0  0  0  0  0999 V2000
    4.8257   -0.5017    1.4778 C   0  0  0  0  0  0  0  0  0  0  0  0
    3.5893   -1.0686    0.7600 C   0  0  2  0  0  0  0  0  0  0  0  0
    2.8135   -1.9029    1.6792 N   0  0  0  0  0  0  0  0  0  0  0  0
    1.9548   -1.4439    2.6471 C   0  0  0  0  0  0  0  0  0  0  0  0
    1.7837   -0.1301    2.7657 N   0  0  0  0  0  0  0  0  0  0  0  0
    0.9696    0.3585    3.7379 C   0  0  0  0  0  0  0  0  0  0  0  0
    0.7923    1.7678    3.9666 N   0  0  0  0  0  0  0  0  0  0  0  0
    1.5726    2.7602    3.3886 C   0  0  0  0  0  0  0  0  0  0  0  0
    2.4334    2.6436    2.5159 O   0  0  0  0  0  0  0  0  0  0  0  0
    1.2321    3.9182    3.9646 O   0  0  0  0  0  0  0  0  0  0  0  0
    0.2948    3.7882    5.0201 C   0  0  0  0  0  0  0  0  0  0  0  0
   -0.2037    2.3413    4.8810 C   0  0  1  0  0  0  0  0  0  0  0  0
   -1.6411    2.2579    4.2938 C   0  0  2  0  0  0  0  0  0  0  0  0
   -1.8003    2.8212    2.8780 C   0  0  0  0  0  0  0  0  0  0  0  0
   -2.5201    2.9591    5.1455 O   0  0  0  0  0  0  0  0  0  0  0  0
    0.3129   -0.5746    4.5667 C   0  0  0  0  0  0  0  0  0  0  0  0
    0.5426   -1.9439    4.3424 C   0  0  0  0  0  0  0  0  0  0  0  0
    1.3738   -2.3845    3.3795 N   0  0  0  0  0  0  0  0  0  0  0  0
    3.9610   -1.7923   -0.5572 C   0  0  0  0  0  0  0  0  0  0  0  0
    5.2304   -2.3797   -0.8080 C   0  0  0  0  0  0  0  0  0  0  0  0
    5.4846   -3.0159   -2.0478 C   0  0  0  0  0  0  0  0  0  0  0  0
    4.4609   -3.0459   -3.0243 C   0  0  0  0  0  0  0  0  0  0  0  0
    3.2202   -2.4439   -2.7317 C   0  0  0  0  0  0  0  0  0  0  0  0
    3.0131   -1.8852   -1.5105 N   0  0  0  0  0  0  0  0  0  0  0  0
    2.9389   -2.8997    1.6688 H   0  0  0  0  0  0  0  0  0  0  0  0
    5.3846    0.1492    0.8025 H   0  0  0  0  0  0  0  0  0  0  0  0
    5.4859   -1.2982    1.8216 H   0  0  0  0  0  0  0  0  0  0  0  0
    4.5586    0.0805    2.3603 H   0  0  0  0  0  0  0  0  0  0  0  0
    2.9580   -0.2258    0.4563 H   0  0  0  0  0  0  0  0  0  0  0  0
    0.8148    3.9351    5.9670 H   0  0  0  0  0  0  0  0  0  0  0  0
   -0.4958    4.5413    4.9681 H   0  0  0  0  0  0  0  0  0  0  0  0
   -0.1738    1.8735    5.8722 H   0  0  0  0  0  0  0  0  0  0  0  0
   -1.9784    1.2194    4.2787 H   0  0  0  0  0  0  0  0  0  0  0  0
   -1.1935    2.2589    2.1607 H   0  0  0  0  0  0  0  0  0  0  0  0
   -1.4846    3.8631    2.8102 H   0  0  0  0  0  0  0  0  0  0  0  0
   -2.8337    2.7688    2.5248 H   0  0  0  0  0  0  0  0  0  0  0  0
   -3.3909    2.8778    4.7891 H   0  0  0  0  0  0  0  0  0  0  0  0
   -0.3358   -0.2762    5.3678 H   0  0  0  0  0  0  0  0  0  0  0  0
    0.0480   -2.6963    4.9342 H   0  0  0  0  0  0  0  0  0  0  0  0
    6.0240   -2.3767   -0.0688 H   0  0  0  0  0  0  0  0  0  0  0  0
    6.4380   -3.4778   -2.2378 H   0  0  0  0  0  0  0  0  0  0  0  0
    4.6174   -3.5768   -3.9571 H   0  0  0  0  0  0  0  0  0  0  0  0
    2.3678   -2.4589   -3.3893 H   0  0  0  0  0  0  0  0  0  0  0  0
    2.0921   -1.4374   -1.2780 H   0  0  0  0  0  0  0  0  0  0  0  0
  1  2  1  0
  1 26  1  0
  1 27  1  0
  1 28  1  0
  2 19  1  0
  2 29  1  6
  2  3  1  0
  3  4  1  0
  3 25  1  0
  4  5  2  0
  4 18  1  0
  5  6  1  0
  6  7  1  0
  6 16  2  0
  7 12  1  0
  7  8  1  0
  8  9  2  0
  8 10  1  0
 10 11  1  0
 11 12  1  0
 11 30  1  0
 11 31  1  0
 12 13  1  0
 12 32  1  1
 13 14  1  0
 13 15  1  0
 13 33  1  6
 14 34  1  0
 14 35  1  0
 14 36  1  0
 15 37  1  0
 16 38  1  0
 16 17  1  0
 17 39  1  0
 17 18  2  0
 19 24  1  0
 19 20  2  0
 20 21  1  0
 20 40  1  0
 21 22  2  0
 21 41  1  0
 22 23  1  0
 22 42  1  0
 23 24  2  0
 23 43  1  0
 24 44  1  0
M  CHG  1  24   1
M  END
>  <i_m_ct_stereo_status>  (440) 
1

>  <s_m_source_file>  (440) 
/var/tmp/pbs.5102103.sched01/tmpeh5ntauu/15412114_vq.sdf

>  <i_m_source_file_index>  (440) 
17

>  <i_lp_mmshare_version>  (440) 
48012

>  <i_f3d_flags>  (440) 
0

>  <s_epik_input>  (440) 
bjFbY0hdW2NIXVtjSF1bY0hdYzFbQ0BIXShbQ0gzXSkvTj1jMlxuYyhbY0hdW2NIXVtuSF0yKU4zQyg9TylPW0NIMl1bQ0BIXTNbQ0BIXShbQ0gzXSlbT0hd

>  <s_epik_cmdline>  (440) 
J2VwaWtfcHl0aG9uJywgJy1waHQnLCAnMi4wJywgJy1waCcsICc3LjAnLCAnLXRuJywgJzgnLCAnLW1hJywgJzIwMCcsICctaW1hZScsICc8aW5maWxlLm1hZT4nLCAnLW9tYWUnLCAnPG91dGZpbGUubWFlPic=

>  <r_lp_tautomer_probability>  (440) 
1

>  <r_epik_Ionization_Penalty>  (440) 
0.798619

>  <r_epik_Ionization_Penalty_Charging>  (440) 
0.775653

>  <r_epik_Ionization_Penalty_Neutral>  (440) 
0.022966

>  <r_epik_State_Penalty>  (440) 
0.829504

>  <r_epik_Charging_Adjusted_Penalty>  (440) 
1.60516

>  <i_epik_Tot_Q>  (440) 
1

>  <i_epik_Tot_abs_Q>  (440) 
1

>  <s_epik_Chemistry_Notes>  (440) 
This compound has an ester and may undergo hydrolysis at high or low pH.

>  <s_lp_Force_Field>  (440) 
OPLS3e

>  <r_lp_Energy>  (440) 
21.8249

>  <b_lp_Chiralities_Consistent>  (440) 
1

>  <s_lp_Variant>  (440) 
107:0-2

>  <s_i_glide_gridfile>  (440) 
pfpi4k_grid

>  <i_i_glide_lignum>  (440) 
17

>  <i_i_glide_rotatable_bonds>  (440) 
6

>  <r_i_docking_score>  (440) 
-3.49272

>  <r_i_glide_ligand_efficiency>  (440) 
-0.14553

>  <r_i_glide_ligand_efficiency_sa>  (440) 
-0.419781

>  <r_i_glide_ligand_efficiency_ln>  (440) 
-0.835968

>  <r_i_glide_gscore>  (440) 
-3.49272

>  <r_i_glide_lipo>  (440) 
-0.382187

>  <r_i_glide_hbond>  (440) 
-0.184405

>  <r_i_glide_metal>  (440) 
-0

>  <r_i_glide_rewards>  (440) 
-1.15662

>  <r_i_glide_evdw>  (440) 
-30.0566

>  <r_i_glide_ecoul>  (440) 
-6.166

>  <r_i_glide_erotb>  (440) 
0.861614

>  <r_i_glide_esite>  (440) 
-0.203388

>  <r_i_glide_emodel>  (440) 
-45.7296

>  <r_i_glide_energy>  (440) 
-36.2226

>  <r_i_glide_einternal>  (440) 
3.99108

>  <r_i_glide_intrahb_reward>  (440) 
-0

>  <i_i_glide_confnum>  (440) 
1

>  <i_i_glide_posenum>  (440) 
14

>  <r_i_glide_eff_state_penalty>  (440) 
0

>  <ligand_id>  (440) 
107

>  <original_smiles>  (440) 
CC(N=c1nc(N2C(=O)OCC2C(C)O)cc[nH]1)c1ccccn1

>  <smiles>  (440) 
[H]OC([H])(C([H])([H])[H])C1([H])N(c2nc(N([H])C([H])(c3c([H])c([H])c([H])c([H])[n+]3[H])C([H])([H])[H])nc([H])c2[H])C(=O)OC1([H])[H]

$$$$
107:2:0
     RDKit          3D

 44 46  0  0  1  0  0  0  0  0999 V2000
    0.5818   -1.7377    4.0115 C   0  0  0  0  0  0  0  0  0  0  0  0
    0.9404   -0.3879    3.3624 C   0  0  2  0  0  0  0  0  0  0  0  0
    2.2964    0.0293    3.7168 N   0  0  0  0  0  0  0  0  0  0  0  0
    3.4475   -0.3633    3.0674 C   0  0  0  0  0  0  0  0  0  0  0  0
    3.3598   -1.0254    1.9054 N   0  0  0  0  0  0  0  0  0  0  0  0
    4.4742   -1.3893    1.2154 C   0  0  0  0  0  0  0  0  0  0  0  0
    4.3229   -2.0850   -0.0275 N   0  0  0  0  0  0  0  0  0  0  0  0
    5.2419   -2.1398   -1.0700 C   0  0  0  0  0  0  0  0  0  0  0  0
    6.4361   -1.8400   -1.0763 O   0  0  0  0  0  0  0  0  0  0  0  0
    4.6057   -2.6758   -2.1190 O   0  0  0  0  0  0  0  0  0  0  0  0
    3.2209   -2.8791   -1.8919 C   0  0  0  0  0  0  0  0  0  0  0  0
    3.1219   -2.8299   -0.3679 C   0  0  1  0  0  0  0  0  0  0  0  0
    3.1269   -4.2320    0.2998 C   0  0  2  0  0  0  0  0  0  0  0  0
    4.4205   -5.0506    0.0963 C   0  0  0  0  0  0  0  0  0  0  0  0
    2.0373   -5.0013   -0.1786 O   0  0  0  0  0  0  0  0  0  0  0  0
    5.7364   -1.0641    1.7640 C   0  0  0  0  0  0  0  0  0  0  0  0
    5.7485   -0.3840    2.9921 C   0  0  0  0  0  0  0  0  0  0  0  0
    4.6117   -0.0453    3.6235 N   0  0  0  0  0  0  0  0  0  0  0  0
   -0.1136    0.6708    3.6499 C   0  0  0  0  0  0  0  0  0  0  0  0
   -0.7868    1.3115    2.5878 C   0  0  0  0  0  0  0  0  0  0  0  0
   -1.7575    2.2835    2.8895 C   0  0  0  0  0  0  0  0  0  0  0  0
   -2.0246    2.5745    4.2374 C   0  0  0  0  0  0  0  0  0  0  0  0
   -1.2999    1.8868    5.2262 C   0  0  0  0  0  0  0  0  0  0  0  0
   -0.3571    0.9600    4.9488 N   0  0  0  0  0  0  0  0  0  0  0  0
    2.4195    0.5859    4.5520 H   0  0  0  0  0  0  0  0  0  0  0  0
   -0.4086   -2.0646    3.6813 H   0  0  0  0  0  0  0  0  0  0  0  0
    0.5397   -1.6698    5.1009 H   0  0  0  0  0  0  0  0  0  0  0  0
    1.2884   -2.5303    3.7501 H   0  0  0  0  0  0  0  0  0  0  0  0
    0.9088   -0.5313    2.2850 H   0  0  0  0  0  0  0  0  0  0  0  0
    2.6778   -2.0515   -2.3463 H   0  0  0  0  0  0  0  0  0  0  0  0
    2.8402   -3.8082   -2.3198 H   0  0  0  0  0  0  0  0  0  0  0  0
    2.2285   -2.2863   -0.0649 H   0  0  0  0  0  0  0  0  0  0  0  0
    2.9762   -4.0962    1.3752 H   0  0  0  0  0  0  0  0  0  0  0  0
    5.2837   -4.5501    0.5361 H   0  0  0  0  0  0  0  0  0  0  0  0
    4.6294   -5.1996   -0.9647 H   0  0  0  0  0  0  0  0  0  0  0  0
    4.3559   -6.0366    0.5594 H   0  0  0  0  0  0  0  0  0  0  0  0
    2.2730   -5.3505   -1.0315 H   0  0  0  0  0  0  0  0  0  0  0  0
    6.6781   -1.3093    1.2912 H   0  0  0  0  0  0  0  0  0  0  0  0
    6.6746   -0.0993    3.4678 H   0  0  0  0  0  0  0  0  0  0  0  0
   -0.5665    1.0690    1.5563 H   0  0  0  0  0  0  0  0  0  0  0  0
   -2.2914    2.7886    2.0986 H   0  0  0  0  0  0  0  0  0  0  0  0
   -2.7690    3.3031    4.5067 H   0  0  0  0  0  0  0  0  0  0  0  0
   -1.4873    2.0767    6.2701 H   0  0  0  0  0  0  0  0  0  0  0  0
    2.4415   -1.2107    1.5133 H   0  0  0  0  0  0  0  0  0  0  0  0
  1  2  1  0
  1 26  1  0
  1 27  1  0
  1 28  1  0
  2 19  1  0
  2 29  1  6
  2  3  1  0
  3  4  1  0
  3 25  1  0
  4  5  2  0
  4 18  1  0
  5  6  1  0
  5 44  1  0
  6  7  1  0
  6 16  2  0
  7 12  1  0
  7  8  1  0
  8  9  2  0
  8 10  1  0
 10 11  1  0
 11 12  1  0
 11 30  1  0
 11 31  1  0
 12 13  1  0
 12 32  1  6
 13 14  1  0
 13 15  1  0
 13 33  1  1
 14 34  1  0
 14 35  1  0
 14 36  1  0
 15 37  1  0
 16 38  1  0
 16 17  1  0
 17 39  1  0
 17 18  2  0
 19 24  1  0
 19 20  2  0
 20 21  1  0
 20 40  1  0
 21 22  2  0
 21 41  1  0
 22 23  1  0
 22 42  1  0
 23 24  2  0
 23 43  1  0
M  CHG  1   5   1
M  END
>  <i_m_ct_stereo_status>  (441) 
1

>  <s_m_source_file>  (441) 
/var/tmp/pbs.5102103.sched01/tmpeh5ntauu/15412114_vq.sdf

>  <i_m_source_file_index>  (441) 
18

>  <i_lp_mmshare_version>  (441) 
48012

>  <i_f3d_flags>  (441) 
0

>  <s_epik_input>  (441) 
bjFbY0hdW2NIXVtjSF1bY0hdYzFbQ0BIXShbQ0gzXSkvTj1jMlxuYyhbY0hdW2NIXVtuSF0yKU4zQyg9TylPW0NIMl1bQ0BIXTNbQ0BIXShbQ0gzXSlbT0hd

>  <s_epik_cmdline>  (441) 
J2VwaWtfcHl0aG9uJywgJy1waHQnLCAnMi4wJywgJy1waCcsICc3LjAnLCAnLXRuJywgJzgnLCAnLW1hJywgJzIwMCcsICctaW1hZScsICc8aW5maWxlLm1hZT4nLCAnLW9tYWUnLCAnPG91dGZpbGUubWFlPic=

>  <r_epik_Ionization_Penalty>  (441) 
1.8125

>  <r_epik_Ionization_Penalty_Charging>  (441) 
1.62598

>  <r_epik_Ionization_Penalty_Neutral>  (441) 
0.186525

>  <r_epik_State_Penalty>  (441) 
1.89387

>  <r_epik_Charging_Adjusted_Penalty>  (441) 
3.51985

>  <i_epik_Tot_Q>  (441) 
1

>  <i_epik_Tot_abs_Q>  (441) 
1

>  <s_epik_Chemistry_Notes>  (441) 
This compound has an ester and may undergo hydrolysis at high or low pH.

>  <s_lp_Force_Field>  (441) 
OPLS3e

>  <r_lp_Energy>  (441) 
20.4841

>  <b_lp_Chiralities_Consistent>  (441) 
1

>  <s_lp_Variant>  (441) 
107:0-3

>  <s_i_glide_gridfile>  (441) 
pfpi4k_grid

>  <i_i_glide_lignum>  (441) 
18

>  <i_i_glide_rotatable_bonds>  (441) 
6

>  <r_i_docking_score>  (441) 
-3.87281

>  <r_i_glide_ligand_efficiency>  (441) 
-0.161367

>  <r_i_glide_ligand_efficiency_sa>  (441) 
-0.465463

>  <r_i_glide_ligand_efficiency_ln>  (441) 
-0.92694

>  <r_i_glide_gscore>  (441) 
-3.87281

>  <r_i_glide_lipo>  (441) 
-0.245175

>  <r_i_glide_hbond>  (441) 
-0.498866

>  <r_i_glide_metal>  (441) 
-0

>  <r_i_glide_rewards>  (441) 
-1.16786

>  <r_i_glide_evdw>  (441) 
-25.1224

>  <r_i_glide_ecoul>  (441) 
-10.0766

>  <r_i_glide_erotb>  (441) 
0.861614

>  <r_i_glide_esite>  (441) 
-0.0548992

>  <r_i_glide_emodel>  (441) 
-43.5883

>  <r_i_glide_energy>  (441) 
-35.1991

>  <r_i_glide_einternal>  (441) 
3.50758

>  <r_i_glide_intrahb_reward>  (441) 
-0

>  <i_i_glide_confnum>  (441) 
6

>  <i_i_glide_posenum>  (441) 
2

>  <r_i_glide_eff_state_penalty>  (441) 
0

>  <ligand_id>  (441) 
107

>  <original_smiles>  (441) 
CC(N=c1nc(N2C(=O)OCC2C(C)O)cc[nH]1)c1ccccn1

>  <smiles>  (441) 
[H]OC([H])(C([H])([H])[H])C1([H])N(c2c([H])c([H])nc(N([H])C([H])(c3nc([H])c([H])c([H])c3[H])C([H])([H])[H])[n+]2[H])C(=O)OC1([H])[H]

$$$$
107:2:1
     RDKit          3D

 44 46  0  0  1  0  0  0  0  0999 V2000
    4.5946   -0.6573    0.3035 C   0  0  0  0  0  0  0  0  0  0  0  0
    3.5920   -1.7580   -0.0730 C   0  0  2  0  0  0  0  0  0  0  0  0
    3.4176   -2.7162    1.0135 N   0  0  0  0  0  0  0  0  0  0  0  0
    2.6132   -2.5308    2.1165 C   0  0  0  0  0  0  0  0  0  0  0  0
    1.8586   -1.4313    2.2132 N   0  0  0  0  0  0  0  0  0  0  0  0
    1.0322   -1.2352    3.2789 C   0  0  0  0  0  0  0  0  0  0  0  0
    0.2356   -0.0434    3.3270 N   0  0  0  0  0  0  0  0  0  0  0  0
   -0.8550    0.1937    4.1540 C   0  0  0  0  0  0  0  0  0  0  0  0
   -1.2659   -0.4508    5.1201 O   0  0  0  0  0  0  0  0  0  0  0  0
   -1.4175    1.3303    3.7212 O   0  0  0  0  0  0  0  0  0  0  0  0
   -0.8847    1.7943    2.4934 C   0  0  0  0  0  0  0  0  0  0  0  0
    0.4648    1.0879    2.4490 C   0  0  1  0  0  0  0  0  0  0  0  0
    1.6190    1.9573    3.0080 C   0  0  2  0  0  0  0  0  0  0  0  0
    1.3714    2.6426    4.3630 C   0  0  0  0  0  0  0  0  0  0  0  0
    1.9626    2.9540    2.0808 O   0  0  0  0  0  0  0  0  0  0  0  0
    0.9854   -2.2335    4.2796 C   0  0  0  0  0  0  0  0  0  0  0  0
    1.8020   -3.3597    4.1067 C   0  0  0  0  0  0  0  0  0  0  0  0
    2.5983   -3.4913    3.0351 N   0  0  0  0  0  0  0  0  0  0  0  0
    3.9299   -2.3945   -1.4140 C   0  0  0  0  0  0  0  0  0  0  0  0
    2.9735   -2.4497   -2.4498 C   0  0  0  0  0  0  0  0  0  0  0  0
    3.3146   -3.0489   -3.6709 C   0  0  0  0  0  0  0  0  0  0  0  0
    4.6140   -3.5587   -3.8193 C   0  0  0  0  0  0  0  0  0  0  0  0
    5.5017   -3.4534   -2.7323 C   0  0  0  0  0  0  0  0  0  0  0  0
    5.1757   -2.9009   -1.5499 N   0  0  0  0  0  0  0  0  0  0  0  0
    3.9619   -3.5683    0.9918 H   0  0  0  0  0  0  0  0  0  0  0  0
    4.6187    0.0823   -0.4981 H   0  0  0  0  0  0  0  0  0  0  0  0
    5.6073   -1.0485    0.4275 H   0  0  0  0  0  0  0  0  0  0  0  0
    4.3210   -0.1264    1.2188 H   0  0  0  0  0  0  0  0  0  0  0  0
    2.6327   -1.2701   -0.2193 H   0  0  0  0  0  0  0  0  0  0  0  0
   -1.5320    1.4643    1.6812 H   0  0  0  0  0  0  0  0  0  0  0  0
   -0.8005    2.8808    2.4440 H   0  0  0  0  0  0  0  0  0  0  0  0
    0.6755    0.7616    1.4308 H   0  0  0  0  0  0  0  0  0  0  0  0
    2.5135    1.3382    3.0918 H   0  0  0  0  0  0  0  0  0  0  0  0
    1.2128    1.9111    5.1531 H   0  0  0  0  0  0  0  0  0  0  0  0
    0.5035    3.2990    4.3232 H   0  0  0  0  0  0  0  0  0  0  0  0
    2.2231    3.2582    4.6530 H   0  0  0  0  0  0  0  0  0  0  0  0
    1.2069    3.4559    1.7844 H   0  0  0  0  0  0  0  0  0  0  0  0
    0.3634   -2.1780    5.1625 H   0  0  0  0  0  0  0  0  0  0  0  0
    1.8264   -4.1566    4.8338 H   0  0  0  0  0  0  0  0  0  0  0  0
    1.9786   -2.0504   -2.3179 H   0  0  0  0  0  0  0  0  0  0  0  0
    2.5897   -3.1196   -4.4676 H   0  0  0  0  0  0  0  0  0  0  0  0
    4.9211   -4.0406   -4.7289 H   0  0  0  0  0  0  0  0  0  0  0  0
    6.5071   -3.8332   -2.8194 H   0  0  0  0  0  0  0  0  0  0  0  0
    1.8775   -0.7536    1.4500 H   0  0  0  0  0  0  0  0  0  0  0  0
  1  2  1  0
  1 26  1  0
  1 27  1  0
  1 28  1  0
  2 19  1  0
  2 29  1  6
  2  3  1  0
  3  4  1  0
  3 25  1  0
  4  5  2  0
  4 18  1  0
  5  6  1  0
  5 44  1  0
  6  7  1  0
  6 16  2  0
  7 12  1  0
  7  8  1  0
  8  9  2  0
  8 10  1  0
 10 11  1  0
 11 12  1  0
 11 30  1  0
 11 31  1  0
 12 13  1  0
 12 32  1  6
 13 14  1  0
 13 15  1  0
 13 33  1  1
 14 34  1  0
 14 35  1  0
 14 36  1  0
 15 37  1  0
 16 38  1  0
 16 17  1  0
 17 39  1  0
 17 18  2  0
 19 24  1  0
 19 20  2  0
 20 21  1  0
 20 40  1  0
 21 22  2  0
 21 41  1  0
 22 23  1  0
 22 42  1  0
 23 24  2  0
 23 43  1  0
M  CHG  1   5   1
M  END
>  <i_m_ct_stereo_status>  (442) 
1

>  <s_m_source_file>  (442) 
/var/tmp/pbs.5102103.sched01/tmpeh5ntauu/15412114_vq.sdf

>  <i_m_source_file_index>  (442) 
18

>  <i_lp_mmshare_version>  (442) 
48012

>  <i_f3d_flags>  (442) 
0

>  <s_epik_input>  (442) 
bjFbY0hdW2NIXVtjSF1bY0hdYzFbQ0BIXShbQ0gzXSkvTj1jMlxuYyhbY0hdW2NIXVtuSF0yKU4zQyg9TylPW0NIMl1bQ0BIXTNbQ0BIXShbQ0gzXSlbT0hd

>  <s_epik_cmdline>  (442) 
J2VwaWtfcHl0aG9uJywgJy1waHQnLCAnMi4wJywgJy1waCcsICc3LjAnLCAnLXRuJywgJzgnLCAnLW1hJywgJzIwMCcsICctaW1hZScsICc8aW5maWxlLm1hZT4nLCAnLW9tYWUnLCAnPG91dGZpbGUubWFlPic=

>  <r_epik_Ionization_Penalty>  (442) 
1.8125

>  <r_epik_Ionization_Penalty_Charging>  (442) 
1.62598

>  <r_epik_Ionization_Penalty_Neutral>  (442) 
0.186525

>  <r_epik_State_Penalty>  (442) 
1.89387

>  <r_epik_Charging_Adjusted_Penalty>  (442) 
3.51985

>  <i_epik_Tot_Q>  (442) 
1

>  <i_epik_Tot_abs_Q>  (442) 
1

>  <s_epik_Chemistry_Notes>  (442) 
This compound has an ester and may undergo hydrolysis at high or low pH.

>  <s_lp_Force_Field>  (442) 
OPLS3e

>  <r_lp_Energy>  (442) 
20.4841

>  <b_lp_Chiralities_Consistent>  (442) 
1

>  <s_lp_Variant>  (442) 
107:0-3

>  <s_i_glide_gridfile>  (442) 
pfpi4k_grid

>  <i_i_glide_lignum>  (442) 
18

>  <i_i_glide_rotatable_bonds>  (442) 
6

>  <r_i_docking_score>  (442) 
-3.62715

>  <r_i_glide_ligand_efficiency>  (442) 
-0.151131

>  <r_i_glide_ligand_efficiency_sa>  (442) 
-0.435938

>  <r_i_glide_ligand_efficiency_ln>  (442) 
-0.868143

>  <r_i_glide_gscore>  (442) 
-3.62715

>  <r_i_glide_lipo>  (442) 
-0.652292

>  <r_i_glide_hbond>  (442) 
-0.16

>  <r_i_glide_metal>  (442) 
-0

>  <r_i_glide_rewards>  (442) 
-1.15662

>  <r_i_glide_evdw>  (442) 
-28.1586

>  <r_i_glide_ecoul>  (442) 
-6.67366

>  <r_i_glide_erotb>  (442) 
0.861614

>  <r_i_glide_esite>  (442) 
-0.110865

>  <r_i_glide_emodel>  (442) 
-43.0829

>  <r_i_glide_energy>  (442) 
-34.8323

>  <r_i_glide_einternal>  (442) 
2.85876

>  <r_i_glide_intrahb_reward>  (442) 
-0

>  <i_i_glide_confnum>  (442) 
6

>  <i_i_glide_posenum>  (442) 
34

>  <r_i_glide_eff_state_penalty>  (442) 
0

>  <ligand_id>  (442) 
107

>  <original_smiles>  (442) 
CC(N=c1nc(N2C(=O)OCC2C(C)O)cc[nH]1)c1ccccn1

>  <smiles>  (442) 
[H]OC([H])(C([H])([H])[H])C1([H])N(c2c([H])c([H])nc(N([H])C([H])(c3nc([H])c([H])c([H])c3[H])C([H])([H])[H])[n+]2[H])C(=O)OC1([H])[H]

$$$$
107:2:2
     RDKit          3D

 44 46  0  0  1  0  0  0  0  0999 V2000
    4.6168   -0.7630    0.4451 C   0  0  0  0  0  0  0  0  0  0  0  0
    3.5706   -1.7906   -0.0166 C   0  0  2  0  0  0  0  0  0  0  0  0
    3.3205   -2.7901    1.0112 N   0  0  0  0  0  0  0  0  0  0  0  0
    2.6321   -2.5367    2.1819 C   0  0  0  0  0  0  0  0  0  0  0  0
    2.1517   -1.3163    2.4397 N   0  0  0  0  0  0  0  0  0  0  0  0
    1.5153   -1.0443    3.5996 C   0  0  0  0  0  0  0  0  0  0  0  0
    0.9989    0.2737    3.8369 N   0  0  0  0  0  0  0  0  0  0  0  0
    1.0408    1.3048    2.9104 C   0  0  0  0  0  0  0  0  0  0  0  0
    1.3284    1.2483    1.7102 O   0  0  0  0  0  0  0  0  0  0  0  0
    0.7048    2.4290    3.5523 O   0  0  0  0  0  0  0  0  0  0  0  0
    0.6276    2.2537    4.9587 C   0  0  0  0  0  0  0  0  0  0  0  0
    0.4217    0.7425    5.1105 C   0  0  1  0  0  0  0  0  0  0  0  0
   -1.0912    0.3702    5.2110 C   0  0  2  0  0  0  0  0  0  0  0  0
   -1.7968    1.0410    6.3941 C   0  0  0  0  0  0  0  0  0  0  0  0
   -1.2878   -1.0062    5.4900 O   0  0  0  0  0  0  0  0  0  0  0  0
    1.3921   -2.0703    4.5526 C   0  0  0  0  0  0  0  0  0  0  0  0
    1.8541   -3.3448    4.1852 C   0  0  0  0  0  0  0  0  0  0  0  0
    2.4679   -3.5758    3.0134 N   0  0  0  0  0  0  0  0  0  0  0  0
    3.9194   -2.3931   -1.3650 C   0  0  0  0  0  0  0  0  0  0  0  0
    2.9888   -2.3817   -2.4309 C   0  0  0  0  0  0  0  0  0  0  0  0
    3.3461   -2.9559   -3.6597 C   0  0  0  0  0  0  0  0  0  0  0  0
    4.6288   -3.5004   -3.7944 C   0  0  0  0  0  0  0  0  0  0  0  0
    5.4934   -3.4578   -2.6822 C   0  0  0  0  0  0  0  0  0  0  0  0
    5.1522   -2.9363   -1.4869 N   0  0  0  0  0  0  0  0  0  0  0  0
    3.6449   -3.7451    0.8784 H   0  0  0  0  0  0  0  0  0  0  0  0
    4.7289    0.0075   -0.3232 H   0  0  0  0  0  0  0  0  0  0  0  0
    5.5911   -1.2258    0.5988 H   0  0  0  0  0  0  0  0  0  0  0  0
    4.3490   -0.2457    1.3707 H   0  0  0  0  0  0  0  0  0  0  0  0
    2.6343   -1.2600   -0.1508 H   0  0  0  0  0  0  0  0  0  0  0  0
    1.5691    2.5833    5.3944 H   0  0  0  0  0  0  0  0  0  0  0  0
   -0.1568    2.8818    5.3964 H   0  0  0  0  0  0  0  0  0  0  0  0
    1.0076    0.3822    5.9533 H   0  0  0  0  0  0  0  0  0  0  0  0
   -1.6044    0.6201    4.2713 H   0  0  0  0  0  0  0  0  0  0  0  0
   -1.8931    2.1179    6.2683 H   0  0  0  0  0  0  0  0  0  0  0  0
   -1.2725    0.8504    7.3367 H   0  0  0  0  0  0  0  0  0  0  0  0
   -2.8122    0.6566    6.4983 H   0  0  0  0  0  0  0  0  0  0  0  0
   -0.8396   -1.5203    4.8355 H   0  0  0  0  0  0  0  0  0  0  0  0
    0.9938   -1.9589    5.5544 H   0  0  0  0  0  0  0  0  0  0  0  0
    1.7364   -4.1795    4.8560 H   0  0  0  0  0  0  0  0  0  0  0  0
    2.0073   -1.9585   -2.3198 H   0  0  0  0  0  0  0  0  0  0  0  0
    2.6406   -2.9768   -4.4835 H   0  0  0  0  0  0  0  0  0  0  0  0
    4.9554   -3.9508   -4.7120 H   0  0  0  0  0  0  0  0  0  0  0  0
    6.4915   -3.8572   -2.7564 H   0  0  0  0  0  0  0  0  0  0  0  0
    2.2797   -0.5838    1.7398 H   0  0  0  0  0  0  0  0  0  0  0  0
  1  2  1  0
  1 26  1  0
  1 27  1  0
  1 28  1  0
  2 19  1  0
  2 29  1  6
  2  3  1  0
  3  4  1  0
  3 25  1  0
  4  5  2  0
  4 18  1  0
  5  6  1  0
  5 44  1  0
  6  7  1  0
  6 16  2  0
  7 12  1  0
  7  8  1  0
  8  9  2  0
  8 10  1  0
 10 11  1  0
 11 12  1  0
 11 30  1  0
 11 31  1  0
 12 13  1  0
 12 32  1  1
 13 14  1  0
 13 15  1  0
 13 33  1  6
 14 34  1  0
 14 35  1  0
 14 36  1  0
 15 37  1  0
 16 38  1  0
 16 17  1  0
 17 39  1  0
 17 18  2  0
 19 24  1  0
 19 20  2  0
 20 21  1  0
 20 40  1  0
 21 22  2  0
 21 41  1  0
 22 23  1  0
 22 42  1  0
 23 24  2  0
 23 43  1  0
M  CHG  1   5   1
M  END
>  <i_m_ct_stereo_status>  (443) 
1

>  <s_m_source_file>  (443) 
/var/tmp/pbs.5102103.sched01/tmpeh5ntauu/15412114_vq.sdf

>  <i_m_source_file_index>  (443) 
18

>  <i_lp_mmshare_version>  (443) 
48012

>  <i_f3d_flags>  (443) 
0

>  <s_epik_input>  (443) 
bjFbY0hdW2NIXVtjSF1bY0hdYzFbQ0BIXShbQ0gzXSkvTj1jMlxuYyhbY0hdW2NIXVtuSF0yKU4zQyg9TylPW0NIMl1bQ0BIXTNbQ0BIXShbQ0gzXSlbT0hd

>  <s_epik_cmdline>  (443) 
J2VwaWtfcHl0aG9uJywgJy1waHQnLCAnMi4wJywgJy1waCcsICc3LjAnLCAnLXRuJywgJzgnLCAnLW1hJywgJzIwMCcsICctaW1hZScsICc8aW5maWxlLm1hZT4nLCAnLW9tYWUnLCAnPG91dGZpbGUubWFlPic=

>  <r_epik_Ionization_Penalty>  (443) 
1.8125

>  <r_epik_Ionization_Penalty_Charging>  (443) 
1.62598

>  <r_epik_Ionization_Penalty_Neutral>  (443) 
0.186525

>  <r_epik_State_Penalty>  (443) 
1.89387

>  <r_epik_Charging_Adjusted_Penalty>  (443) 
3.51985

>  <i_epik_Tot_Q>  (443) 
1

>  <i_epik_Tot_abs_Q>  (443) 
1

>  <s_epik_Chemistry_Notes>  (443) 
This compound has an ester and may undergo hydrolysis at high or low pH.

>  <s_lp_Force_Field>  (443) 
OPLS3e

>  <r_lp_Energy>  (443) 
20.4841

>  <b_lp_Chiralities_Consistent>  (443) 
1

>  <s_lp_Variant>  (443) 
107:0-3

>  <s_i_glide_gridfile>  (443) 
pfpi4k_grid

>  <i_i_glide_lignum>  (443) 
18

>  <i_i_glide_rotatable_bonds>  (443) 
6

>  <r_i_docking_score>  (443) 
-3.05086

>  <r_i_glide_ligand_efficiency>  (443) 
-0.127119

>  <r_i_glide_ligand_efficiency_sa>  (443) 
-0.366675

>  <r_i_glide_ligand_efficiency_ln>  (443) 
-0.73021

>  <r_i_glide_gscore>  (443) 
-3.05086

>  <r_i_glide_lipo>  (443) 
-0.678917

>  <r_i_glide_hbond>  (443) 
0

>  <r_i_glide_metal>  (443) 
-0

>  <r_i_glide_rewards>  (443) 
-1.65662

>  <r_i_glide_evdw>  (443) 
-28.1057

>  <r_i_glide_ecoul>  (443) 
-0.571155

>  <r_i_glide_erotb>  (443) 
0.861614

>  <r_i_glide_esite>  (443) 
-0.0859707

>  <r_i_glide_emodel>  (443) 
-40.7025

>  <r_i_glide_energy>  (443) 
-28.6769

>  <r_i_glide_einternal>  (443) 
2.36008

>  <r_i_glide_intrahb_reward>  (443) 
-0.5

>  <i_i_glide_confnum>  (443) 
1

>  <i_i_glide_posenum>  (443) 
38

>  <r_i_glide_eff_state_penalty>  (443) 
0

>  <ligand_id>  (443) 
107

>  <original_smiles>  (443) 
CC(N=c1nc(N2C(=O)OCC2C(C)O)cc[nH]1)c1ccccn1

>  <smiles>  (443) 
[H]OC([H])(C([H])([H])[H])C1([H])N(c2c([H])c([H])nc(N([H])C([H])(c3nc([H])c([H])c([H])c3[H])C([H])([H])[H])[n+]2[H])C(=O)OC1([H])[H]

$$$$
108:0:0
     RDKit          3D

 33 35  0  0  1  0  0  0  0  0999 V2000
    1.5501    4.2775    3.3014 C   0  0  0  0  0  0  0  0  0  0  0  0
    1.5602    2.7861    3.2656 C   0  0  0  0  0  0  0  0  0  0  0  0
    2.3930    1.8852    2.6464 C   0  0  0  0  0  0  0  0  0  0  0  0
    1.9020    0.5661    2.9611 C   0  0  0  0  0  0  0  0  0  0  0  0
    2.2288   -0.7941    2.6929 C   0  0  0  0  0  0  0  0  0  0  0  0
    3.6764   -1.1748    1.6719 S   0  0  0  0  0  0  0  0  0  0  0  0
    4.4417    0.0445    1.3748 O   0  0  0  0  0  0  0  0  0  0  0  0
    4.3720   -2.3411    2.2399 O   0  0  0  0  0  0  0  0  0  0  0  0
    3.0300   -1.6927    0.1357 N   0  0  0  0  0  0  0  0  0  0  0  0
    3.7479   -2.2158   -0.9480 C   0  0  0  0  0  0  0  0  0  0  0  0
    5.1282   -2.5059   -0.8362 C   0  0  0  0  0  0  0  0  0  0  0  0
    5.8251   -3.0814   -1.9152 C   0  0  0  0  0  0  0  0  0  0  0  0
    5.1544   -3.3655   -3.1179 C   0  0  0  0  0  0  0  0  0  0  0  0
    3.7872   -3.0552   -3.2474 C   0  0  0  0  0  0  0  0  0  0  0  0
    3.0891   -2.4796   -2.1676 C   0  0  0  0  0  0  0  0  0  0  0  0
    1.4587   -1.8539    3.2568 C   0  0  0  0  0  0  0  0  0  0  0  0
    1.8157   -3.5217    2.9798 Cl  0  0  0  0  0  0  0  0  0  0  0  0
    0.3520   -1.5669    4.0829 C   0  0  0  0  0  0  0  0  0  0  0  0
    0.0032   -0.2335    4.3570 C   0  0  0  0  0  0  0  0  0  0  0  0
    0.7753    0.7968    3.7959 C   0  0  0  0  0  0  0  0  0  0  0  0
    0.5818    2.1530    3.9745 O   0  0  0  0  0  0  0  0  0  0  0  0
    2.3751    4.6932    2.7199 H   0  0  0  0  0  0  0  0  0  0  0  0
    1.6316    4.6364    4.3282 H   0  0  0  0  0  0  0  0  0  0  0  0
    0.6192    4.6613    2.8827 H   0  0  0  0  0  0  0  0  0  0  0  0
    3.2617    2.1312    2.0564 H   0  0  0  0  0  0  0  0  0  0  0  0
    2.0712   -1.3918   -0.0959 H   0  0  0  0  0  0  0  0  0  0  0  0
    5.6667   -2.3116    0.0801 H   0  0  0  0  0  0  0  0  0  0  0  0
    6.8688   -3.3325   -1.8028 H   0  0  0  0  0  0  0  0  0  0  0  0
    5.6885   -3.8329   -3.9225 H   0  0  0  0  0  0  0  0  0  0  0  0
    3.2643   -3.2738   -4.1629 H   0  0  0  0  0  0  0  0  0  0  0  0
    2.0369   -2.2594   -2.2800 H   0  0  0  0  0  0  0  0  0  0  0  0
   -0.2254   -2.3762    4.5084 H   0  0  0  0  0  0  0  0  0  0  0  0
   -0.8389    0.0157    4.9847 H   0  0  0  0  0  0  0  0  0  0  0  0
  1  2  1  0
  1 22  1  0
  1 23  1  0
  1 24  1  0
  2 21  1  0
  2  3  2  0
  3  4  1  0
  3 25  1  0
  4 20  2  0
  4  5  1  0
  5  6  1  0
  5 16  2  0
  6  7  2  0
  6  8  2  0
  6  9  1  0
  9 10  1  0
  9 26  1  0
 10 15  1  0
 10 11  2  0
 11 12  1  0
 11 27  1  0
 12 13  2  0
 12 28  1  0
 13 14  1  0
 13 29  1  0
 14 15  2  0
 14 30  1  0
 15 31  1  0
 16 17  1  0
 16 18  1  0
 18 19  2  0
 18 32  1  0
 19 20  1  0
 19 33  1  0
 20 21  1  0
M  END
>  <i_m_ct_stereo_status>  (444) 
1

>  <s_m_source_file>  (444) 
/var/tmp/pbs.5102103.sched01/tmpeh5ntauu/15412114_vq.sdf

>  <i_m_source_file_index>  (444) 
19

>  <i_lp_mmshare_version>  (444) 
48012

>  <i_f3d_flags>  (444) 
0

>  <s_epik_input>  (444) 
W0NIM11jKFtjSF0xKW9jKGMxMilbY0hdW2NIXWMoQ2wpYzJTKD1PKSg9TylbTkhdYzNbY0hdW2NIXVtjSF1bY0hdW2NIXTM=

>  <s_epik_cmdline>  (444) 
J2VwaWtfcHl0aG9uJywgJy1waHQnLCAnMi4wJywgJy1waCcsICc3LjAnLCAnLXRuJywgJzgnLCAnLW1hJywgJzIwMCcsICctaW1hZScsICc8aW5maWxlLm1hZT4nLCAnLW9tYWUnLCAnPG91dGZpbGUubWFlPic=

>  <r_epik_Ionization_Penalty>  (444) 
0.0859055

>  <r_epik_Ionization_Penalty_Charging>  (444) 
0

>  <r_epik_Ionization_Penalty_Neutral>  (444) 
0.0859055

>  <r_epik_State_Penalty>  (444) 
0.0764613

>  <r_epik_Charging_Adjusted_Penalty>  (444) 
0.0764613

>  <i_epik_Tot_Q>  (444) 
0

>  <i_epik_Tot_abs_Q>  (444) 
0

>  <s_lp_Force_Field>  (444) 
OPLS3e

>  <r_lp_Energy>  (444) 
15.5837

>  <b_lp_Chiralities_Consistent>  (444) 
1

>  <s_lp_Variant>  (444) 
108:0-1

>  <s_i_glide_gridfile>  (444) 
pfpi4k_grid

>  <i_i_glide_lignum>  (444) 
19

>  <i_i_glide_rotatable_bonds>  (444) 
3

>  <r_i_docking_score>  (444) 
-3.47043

>  <r_i_glide_ligand_efficiency>  (444) 
-0.165259

>  <r_i_glide_ligand_efficiency_sa>  (444) 
-0.455936

>  <r_i_glide_ligand_efficiency_ln>  (444) 
-0.858057

>  <r_i_glide_gscore>  (444) 
-3.47043

>  <r_i_glide_lipo>  (444) 
-0.485261

>  <r_i_glide_hbond>  (444) 
-0.16

>  <r_i_glide_metal>  (444) 
-0

>  <r_i_glide_rewards>  (444) 
-1.21514

>  <r_i_glide_evdw>  (444) 
-23.0641

>  <r_i_glide_ecoul>  (444) 
-5.98512

>  <r_i_glide_erotb>  (444) 
0.541557

>  <r_i_glide_esite>  (444) 
-0.10061

>  <r_i_glide_emodel>  (444) 
-34.6723

>  <r_i_glide_energy>  (444) 
-29.0493

>  <r_i_glide_einternal>  (444) 
1.82361

>  <r_i_glide_intrahb_reward>  (444) 
-0

>  <i_i_glide_confnum>  (444) 
5

>  <i_i_glide_posenum>  (444) 
18

>  <r_i_glide_eff_state_penalty>  (444) 
0

>  <ligand_id>  (444) 
108

>  <original_smiles>  (444) 
Cc1cc2c(S(=O)(=O)Nc3ccccc3)c(Cl)ccc2o1

>  <smiles>  (444) 
[H]c1c([H])c([H])c(N([H])S(=O)(=O)c2c(Cl)c([H])c([H])c3oc(C([H])([H])[H])c([H])c23)c([H])c1[H]

$$$$
108:0:1
     RDKit          3D

 33 35  0  0  1  0  0  0  0  0999 V2000
    2.9986   -1.8814   -3.7646 C   0  0  0  0  0  0  0  0  0  0  0  0
    3.5249   -2.6182   -2.5803 C   0  0  0  0  0  0  0  0  0  0  0  0
    2.9165   -3.4262   -1.6475 C   0  0  0  0  0  0  0  0  0  0  0  0
    3.9534   -3.8768   -0.7489 C   0  0  0  0  0  0  0  0  0  0  0  0
    4.0898   -4.7187    0.3929 C   0  0  0  0  0  0  0  0  0  0  0  0
    2.6193   -5.5280    1.0742 S   0  0  0  0  0  0  0  0  0  0  0  0
    2.3673   -4.9805    2.4155 O   0  0  0  0  0  0  0  0  0  0  0  0
    1.5363   -5.5736    0.0788 O   0  0  0  0  0  0  0  0  0  0  0  0
    3.0612   -7.1915    1.3151 N   0  0  0  0  0  0  0  0  0  0  0  0
    2.3431   -8.1790    1.9989 C   0  0  0  0  0  0  0  0  0  0  0  0
    1.0482   -7.9139    2.4973 C   0  0  0  0  0  0  0  0  0  0  0  0
    0.3266   -8.9139    3.1772 C   0  0  0  0  0  0  0  0  0  0  0  0
    0.8964  -10.1859    3.3669 C   0  0  0  0  0  0  0  0  0  0  0  0
    2.1911  -10.4529    2.8813 C   0  0  0  0  0  0  0  0  0  0  0  0
    2.9116   -9.4544    2.1965 C   0  0  0  0  0  0  0  0  0  0  0  0
    5.3539   -4.8734    1.0330 C   0  0  0  0  0  0  0  0  0  0  0  0
    5.5662   -5.8259    2.4577 Cl  0  0  0  0  0  0  0  0  0  0  0  0
    6.4971   -4.2297    0.5187 C   0  0  0  0  0  0  0  0  0  0  0  0
    6.3961   -3.4181   -0.6221 C   0  0  0  0  0  0  0  0  0  0  0  0
    5.1399   -3.2579   -1.2278 C   0  0  0  0  0  0  0  0  0  0  0  0
    4.8643   -2.4994   -2.3474 O   0  0  0  0  0  0  0  0  0  0  0  0
    1.9327   -2.0673   -3.9002 H   0  0  0  0  0  0  0  0  0  0  0  0
    3.5094   -2.1963   -4.6745 H   0  0  0  0  0  0  0  0  0  0  0  0
    3.1524   -0.8081   -3.6448 H   0  0  0  0  0  0  0  0  0  0  0  0
    1.8688   -3.6916   -1.6186 H   0  0  0  0  0  0  0  0  0  0  0  0
    3.9757   -7.4570    0.9846 H   0  0  0  0  0  0  0  0  0  0  0  0
    0.5971   -6.9428    2.3624 H   0  0  0  0  0  0  0  0  0  0  0  0
   -0.6647   -8.7027    3.5492 H   0  0  0  0  0  0  0  0  0  0  0  0
    0.3379  -10.9484    3.8848 H   0  0  0  0  0  0  0  0  0  0  0  0
    2.6252  -11.4307    3.0222 H   0  0  0  0  0  0  0  0  0  0  0  0
    3.9013   -9.6821    1.8254 H   0  0  0  0  0  0  0  0  0  0  0  0
    7.4519   -4.3610    1.0064 H   0  0  0  0  0  0  0  0  0  0  0  0
    7.2669   -2.9298   -1.0340 H   0  0  0  0  0  0  0  0  0  0  0  0
  1  2  1  0
  1 22  1  0
  1 23  1  0
  1 24  1  0
  2 21  1  0
  2  3  2  0
  3  4  1  0
  3 25  1  0
  4 20  2  0
  4  5  1  0
  5  6  1  0
  5 16  2  0
  6  7  2  0
  6  8  2  0
  6  9  1  0
  9 10  1  0
  9 26  1  0
 10 15  1  0
 10 11  2  0
 11 12  1  0
 11 27  1  0
 12 13  2  0
 12 28  1  0
 13 14  1  0
 13 29  1  0
 14 15  2  0
 14 30  1  0
 15 31  1  0
 16 17  1  0
 16 18  1  0
 18 19  2  0
 18 32  1  0
 19 20  1  0
 19 33  1  0
 20 21  1  0
M  END
>  <i_m_ct_stereo_status>  (445) 
1

>  <s_m_source_file>  (445) 
/var/tmp/pbs.5102103.sched01/tmpeh5ntauu/15412114_vq.sdf

>  <i_m_source_file_index>  (445) 
19

>  <i_lp_mmshare_version>  (445) 
48012

>  <i_f3d_flags>  (445) 
0

>  <s_epik_input>  (445) 
W0NIM11jKFtjSF0xKW9jKGMxMilbY0hdW2NIXWMoQ2wpYzJTKD1PKSg9TylbTkhdYzNbY0hdW2NIXVtjSF1bY0hdW2NIXTM=

>  <s_epik_cmdline>  (445) 
J2VwaWtfcHl0aG9uJywgJy1waHQnLCAnMi4wJywgJy1waCcsICc3LjAnLCAnLXRuJywgJzgnLCAnLW1hJywgJzIwMCcsICctaW1hZScsICc8aW5maWxlLm1hZT4nLCAnLW9tYWUnLCAnPG91dGZpbGUubWFlPic=

>  <r_epik_Ionization_Penalty>  (445) 
0.0859055

>  <r_epik_Ionization_Penalty_Charging>  (445) 
0

>  <r_epik_Ionization_Penalty_Neutral>  (445) 
0.0859055

>  <r_epik_State_Penalty>  (445) 
0.0764613

>  <r_epik_Charging_Adjusted_Penalty>  (445) 
0.0764613

>  <i_epik_Tot_Q>  (445) 
0

>  <i_epik_Tot_abs_Q>  (445) 
0

>  <s_lp_Force_Field>  (445) 
OPLS3e

>  <r_lp_Energy>  (445) 
15.5837

>  <b_lp_Chiralities_Consistent>  (445) 
1

>  <s_lp_Variant>  (445) 
108:0-1

>  <s_i_glide_gridfile>  (445) 
pfpi4k_grid

>  <i_i_glide_lignum>  (445) 
19

>  <i_i_glide_rotatable_bonds>  (445) 
3

>  <r_i_docking_score>  (445) 
-3.22965

>  <r_i_glide_ligand_efficiency>  (445) 
-0.153793

>  <r_i_glide_ligand_efficiency_sa>  (445) 
-0.424303

>  <r_i_glide_ligand_efficiency_ln>  (445) 
-0.798524

>  <r_i_glide_gscore>  (445) 
-3.22965

>  <r_i_glide_lipo>  (445) 
-0.791748

>  <r_i_glide_hbond>  (445) 
0

>  <r_i_glide_metal>  (445) 
-0

>  <r_i_glide_rewards>  (445) 
-1.21514

>  <r_i_glide_evdw>  (445) 
-27.5489

>  <r_i_glide_ecoul>  (445) 
-1.67365

>  <r_i_glide_erotb>  (445) 
0.541557

>  <r_i_glide_esite>  (445) 
-0.135825

>  <r_i_glide_emodel>  (445) 
-34.3069

>  <r_i_glide_energy>  (445) 
-29.2226

>  <r_i_glide_einternal>  (445) 
2.21869

>  <r_i_glide_intrahb_reward>  (445) 
-0

>  <i_i_glide_confnum>  (445) 
5

>  <i_i_glide_posenum>  (445) 
6

>  <r_i_glide_eff_state_penalty>  (445) 
0

>  <ligand_id>  (445) 
108

>  <original_smiles>  (445) 
Cc1cc2c(S(=O)(=O)Nc3ccccc3)c(Cl)ccc2o1

>  <smiles>  (445) 
[H]c1c([H])c([H])c(N([H])S(=O)(=O)c2c(Cl)c([H])c([H])c3oc(C([H])([H])[H])c([H])c23)c([H])c1[H]

$$$$
108:0:2
     RDKit          3D

 33 35  0  0  1  0  0  0  0  0999 V2000
   -0.7162   -3.9671    6.7818 C   0  0  0  0  0  0  0  0  0  0  0  0
   -0.2654   -2.9280    5.8103 C   0  0  0  0  0  0  0  0  0  0  0  0
    0.8676   -2.8137    5.0362 C   0  0  0  0  0  0  0  0  0  0  0  0
    0.7296   -1.5889    4.2831 C   0  0  0  0  0  0  0  0  0  0  0  0
    1.4605   -0.8401    3.3153 C   0  0  0  0  0  0  0  0  0  0  0  0
    3.0723   -1.4364    2.7566 S   0  0  0  0  0  0  0  0  0  0  0  0
    4.1017   -0.4558    3.1320 O   0  0  0  0  0  0  0  0  0  0  0  0
    3.2247   -2.8550    3.1171 O   0  0  0  0  0  0  0  0  0  0  0  0
    3.0141   -1.4269    1.0159 N   0  0  0  0  0  0  0  0  0  0  0  0
    4.0328   -1.7915    0.1296 C   0  0  0  0  0  0  0  0  0  0  0  0
    5.2804   -2.2563    0.6024 C   0  0  0  0  0  0  0  0  0  0  0  0
    6.2881   -2.6437   -0.3030 C   0  0  0  0  0  0  0  0  0  0  0  0
    6.0573   -2.5689   -1.6900 C   0  0  0  0  0  0  0  0  0  0  0  0
    4.8194   -2.0970   -2.1679 C   0  0  0  0  0  0  0  0  0  0  0  0
    3.8147   -1.7074   -1.2615 C   0  0  0  0  0  0  0  0  0  0  0  0
    0.9568    0.3947    2.8258 C   0  0  0  0  0  0  0  0  0  0  0  0
    1.8362    1.3438    1.6932 Cl  0  0  0  0  0  0  0  0  0  0  0  0
   -0.2859    0.8903    3.2641 C   0  0  0  0  0  0  0  0  0  0  0  0
   -1.0334    0.1667    4.2077 C   0  0  0  0  0  0  0  0  0  0  0  0
   -0.5158   -1.0439    4.6967 C   0  0  0  0  0  0  0  0  0  0  0  0
   -1.1123   -1.8729    5.6254 O   0  0  0  0  0  0  0  0  0  0  0  0
    0.0061   -4.7817    6.8492 H   0  0  0  0  0  0  0  0  0  0  0  0
   -1.6788   -4.3911    6.4848 H   0  0  0  0  0  0  0  0  0  0  0  0
   -0.8419   -3.5356    7.7751 H   0  0  0  0  0  0  0  0  0  0  0  0
    1.6991   -3.5042    4.9993 H   0  0  0  0  0  0  0  0  0  0  0  0
    2.1607   -1.0653    0.5895 H   0  0  0  0  0  0  0  0  0  0  0  0
    5.4725   -2.3286    1.6635 H   0  0  0  0  0  0  0  0  0  0  0  0
    7.2309   -3.0060    0.0775 H   0  0  0  0  0  0  0  0  0  0  0  0
    6.8269   -2.8753   -2.3806 H   0  0  0  0  0  0  0  0  0  0  0  0
    4.6345   -2.0408   -3.2286 H   0  0  0  0  0  0  0  0  0  0  0  0
    2.8652   -1.3564   -1.6403 H   0  0  0  0  0  0  0  0  0  0  0  0
   -0.6600    1.8271    2.8712 H   0  0  0  0  0  0  0  0  0  0  0  0
   -1.9925    0.5297    4.5423 H   0  0  0  0  0  0  0  0  0  0  0  0
  1  2  1  0
  1 22  1  0
  1 23  1  0
  1 24  1  0
  2 21  1  0
  2  3  2  0
  3  4  1  0
  3 25  1  0
  4 20  2  0
  4  5  1  0
  5  6  1  0
  5 16  2  0
  6  7  2  0
  6  8  2  0
  6  9  1  0
  9 10  1  0
  9 26  1  0
 10 15  1  0
 10 11  2  0
 11 12  1  0
 11 27  1  0
 12 13  2  0
 12 28  1  0
 13 14  1  0
 13 29  1  0
 14 15  2  0
 14 30  1  0
 15 31  1  0
 16 17  1  0
 16 18  1  0
 18 19  2  0
 18 32  1  0
 19 20  1  0
 19 33  1  0
 20 21  1  0
M  END
>  <i_m_ct_stereo_status>  (446) 
1

>  <s_m_source_file>  (446) 
/var/tmp/pbs.5102103.sched01/tmpeh5ntauu/15412114_vq.sdf

>  <i_m_source_file_index>  (446) 
19

>  <i_lp_mmshare_version>  (446) 
48012

>  <i_f3d_flags>  (446) 
0

>  <s_epik_input>  (446) 
W0NIM11jKFtjSF0xKW9jKGMxMilbY0hdW2NIXWMoQ2wpYzJTKD1PKSg9TylbTkhdYzNbY0hdW2NIXVtjSF1bY0hdW2NIXTM=

>  <s_epik_cmdline>  (446) 
J2VwaWtfcHl0aG9uJywgJy1waHQnLCAnMi4wJywgJy1waCcsICc3LjAnLCAnLXRuJywgJzgnLCAnLW1hJywgJzIwMCcsICctaW1hZScsICc8aW5maWxlLm1hZT4nLCAnLW9tYWUnLCAnPG91dGZpbGUubWFlPic=

>  <r_epik_Ionization_Penalty>  (446) 
0.0859055

>  <r_epik_Ionization_Penalty_Charging>  (446) 
0

>  <r_epik_Ionization_Penalty_Neutral>  (446) 
0.0859055

>  <r_epik_State_Penalty>  (446) 
0.0764613

>  <r_epik_Charging_Adjusted_Penalty>  (446) 
0.0764613

>  <i_epik_Tot_Q>  (446) 
0

>  <i_epik_Tot_abs_Q>  (446) 
0

>  <s_lp_Force_Field>  (446) 
OPLS3e

>  <r_lp_Energy>  (446) 
15.5837

>  <b_lp_Chiralities_Consistent>  (446) 
1

>  <s_lp_Variant>  (446) 
108:0-1

>  <s_i_glide_gridfile>  (446) 
pfpi4k_grid

>  <i_i_glide_lignum>  (446) 
19

>  <i_i_glide_rotatable_bonds>  (446) 
3

>  <r_i_docking_score>  (446) 
-2.70724

>  <r_i_glide_ligand_efficiency>  (446) 
-0.128916

>  <r_i_glide_ligand_efficiency_sa>  (446) 
-0.355669

>  <r_i_glide_ligand_efficiency_ln>  (446) 
-0.669359

>  <r_i_glide_gscore>  (446) 
-2.70724

>  <r_i_glide_lipo>  (446) 
-0.0453773

>  <r_i_glide_hbond>  (446) 
-0.16

>  <r_i_glide_metal>  (446) 
-0

>  <r_i_glide_rewards>  (446) 
-1.21514

>  <r_i_glide_evdw>  (446) 
-24.4221

>  <r_i_glide_ecoul>  (446) 
-3.64955

>  <r_i_glide_erotb>  (446) 
0.541557

>  <r_i_glide_esite>  (446) 
-0.0597362

>  <r_i_glide_emodel>  (446) 
-32.2885

>  <r_i_glide_energy>  (446) 
-28.0717

>  <r_i_glide_einternal>  (446) 
1.92394

>  <r_i_glide_intrahb_reward>  (446) 
-0

>  <i_i_glide_confnum>  (446) 
5

>  <i_i_glide_posenum>  (446) 
4

>  <r_i_glide_eff_state_penalty>  (446) 
0

>  <ligand_id>  (446) 
108

>  <original_smiles>  (446) 
Cc1cc2c(S(=O)(=O)Nc3ccccc3)c(Cl)ccc2o1

>  <smiles>  (446) 
[H]c1c([H])c([H])c(N([H])S(=O)(=O)c2c(Cl)c([H])c([H])c3oc(C([H])([H])[H])c([H])c23)c([H])c1[H]

$$$$
108:1:0
     RDKit          3D

 32 34  0  0  1  0  0  0  0  0999 V2000
    1.7755   -6.2487    1.3282 C   0  0  0  0  0  0  0  0  0  0  0  0
    3.1765   -5.7636    1.1857 C   0  0  0  0  0  0  0  0  0  0  0  0
    3.7101   -4.5350    0.8664 C   0  0  0  0  0  0  0  0  0  0  0  0
    5.1434   -4.6959    0.8954 C   0  0  0  0  0  0  0  0  0  0  0  0
    6.3110   -3.9055    0.6915 C   0  0  0  0  0  0  0  0  0  0  0  0
    6.1285   -2.1504    0.2956 S   0  0  0  0  0  0  0  0  0  0  0  0
    4.8129   -1.7316    0.8014 O   0  0  0  0  0  0  0  0  0  0  0  0
    7.2914   -1.4291    0.8350 O   0  0  0  0  0  0  0  0  0  0  0  0
    6.2257   -2.3074   -1.3158 N   0  0  0  0  0  0  0  0  0  0  0  0
    5.1771   -2.3557   -2.1483 C   0  0  0  0  0  0  0  0  0  0  0  0
    5.0594   -3.3800   -3.1094 C   0  0  0  0  0  0  0  0  0  0  0  0
    3.9189   -3.4593   -3.9250 C   0  0  0  0  0  0  0  0  0  0  0  0
    2.8896   -2.5111   -3.8071 C   0  0  0  0  0  0  0  0  0  0  0  0
    3.0138   -1.4714   -2.8760 C   0  0  0  0  0  0  0  0  0  0  0  0
    4.1533   -1.3908   -2.0666 C   0  0  0  0  0  0  0  0  0  0  0  0
    7.6011   -4.4938    0.7785 C   0  0  0  0  0  0  0  0  0  0  0  0
    9.0325   -3.6060    0.4458 Cl  0  0  0  0  0  0  0  0  0  0  0  0
    7.7573   -5.8510    1.1198 C   0  0  0  0  0  0  0  0  0  0  0  0
    6.6230   -6.6415    1.3580 C   0  0  0  0  0  0  0  0  0  0  0  0
    5.3538   -6.0602    1.2314 C   0  0  0  0  0  0  0  0  0  0  0  0
    4.1450   -6.6948    1.4126 O   0  0  0  0  0  0  0  0  0  0  0  0
    1.0678   -5.4575    1.1010 H   0  0  0  0  0  0  0  0  0  0  0  0
    1.5852   -6.5939    2.3467 H   0  0  0  0  0  0  0  0  0  0  0  0
    1.5767   -7.0718    0.6419 H   0  0  0  0  0  0  0  0  0  0  0  0
    3.1775   -3.6214    0.6328 H   0  0  0  0  0  0  0  0  0  0  0  0
    5.8208   -4.1410   -3.1918 H   0  0  0  0  0  0  0  0  0  0  0  0
    3.8281   -4.2716   -4.6299 H   0  0  0  0  0  0  0  0  0  0  0  0
    1.9989   -2.5860   -4.4110 H   0  0  0  0  0  0  0  0  0  0  0  0
    2.2292   -0.7444   -2.7493 H   0  0  0  0  0  0  0  0  0  0  0  0
    4.2024   -0.5945   -1.3377 H   0  0  0  0  0  0  0  0  0  0  0  0
    8.7474   -6.2857    1.1970 H   0  0  0  0  0  0  0  0  0  0  0  0
    6.7243   -7.6823    1.6222 H   0  0  0  0  0  0  0  0  0  0  0  0
  1  2  1  0
  1 22  1  0
  1 23  1  0
  1 24  1  0
  2 21  1  0
  2  3  2  0
  3  4  1  0
  3 25  1  0
  4 20  2  0
  4  5  1  0
  5  6  1  0
  5 16  2  0
  6  7  2  0
  6  8  2  0
  6  9  1  0
  9 10  1  0
 10 15  1  0
 10 11  2  0
 11 12  1  0
 11 26  1  0
 12 13  2  0
 12 27  1  0
 13 14  1  0
 13 28  1  0
 14 15  2  0
 14 29  1  0
 15 30  1  0
 16 17  1  0
 16 18  1  0
 18 19  2  0
 18 31  1  0
 19 20  1  0
 19 32  1  0
 20 21  1  0
M  CHG  1   9  -1
M  END
>  <i_m_ct_stereo_status>  (447) 
1

>  <s_m_source_file>  (447) 
/var/tmp/pbs.5102103.sched01/tmpeh5ntauu/15412114_vq.sdf

>  <i_m_source_file_index>  (447) 
20

>  <i_lp_mmshare_version>  (447) 
48012

>  <i_f3d_flags>  (447) 
0

>  <s_epik_input>  (447) 
W0NIM11jKFtjSF0xKW9jKGMxMilbY0hdW2NIXWMoQ2wpYzJTKD1PKSg9TylbTkhdYzNbY0hdW2NIXVtjSF1bY0hdW2NIXTM=

>  <s_epik_cmdline>  (447) 
J2VwaWtfcHl0aG9uJywgJy1waHQnLCAnMi4wJywgJy1waCcsICc3LjAnLCAnLXRuJywgJzgnLCAnLW1hJywgJzIwMCcsICctaW1hZScsICc8aW5maWxlLm1hZT4nLCAnLW9tYWUnLCAnPG91dGZpbGUubWFlPic=

>  <r_epik_Ionization_Penalty>  (447) 
1.18657

>  <r_epik_Ionization_Penalty_Charging>  (447) 
1.18657

>  <r_epik_Ionization_Penalty_Neutral>  (447) 
0

>  <r_epik_State_Penalty>  (447) 
1.25096

>  <r_epik_Charging_Adjusted_Penalty>  (447) 
2.43753

>  <i_epik_Tot_Q>  (447) 
-1

>  <i_epik_Tot_abs_Q>  (447) 
1

>  <s_lp_Force_Field>  (447) 
OPLS3e

>  <r_lp_Energy>  (447) 
20.4175

>  <b_lp_Chiralities_Consistent>  (447) 
1

>  <s_lp_Variant>  (447) 
108:0-2

>  <s_i_glide_gridfile>  (447) 
pfpi4k_grid

>  <i_i_glide_lignum>  (447) 
20

>  <i_i_glide_rotatable_bonds>  (447) 
3

>  <r_i_docking_score>  (447) 
-2.98617

>  <r_i_glide_ligand_efficiency>  (447) 
-0.142198

>  <r_i_glide_ligand_efficiency_sa>  (447) 
-0.392315

>  <r_i_glide_ligand_efficiency_ln>  (447) 
-0.738324

>  <r_i_glide_gscore>  (447) 
-2.98617

>  <r_i_glide_lipo>  (447) 
-1.12404

>  <r_i_glide_hbond>  (447) 
-0.0589212

>  <r_i_glide_metal>  (447) 
-0

>  <r_i_glide_rewards>  (447) 
-1.29551

>  <r_i_glide_evdw>  (447) 
-28.9171

>  <r_i_glide_ecoul>  (447) 
2.81278

>  <r_i_glide_erotb>  (447) 
0.54456

>  <r_i_glide_esite>  (447) 
-0.0283239

>  <r_i_glide_emodel>  (447) 
-30.7989

>  <r_i_glide_energy>  (447) 
-26.1043

>  <r_i_glide_einternal>  (447) 
4.71884

>  <r_i_glide_intrahb_reward>  (447) 
-0

>  <i_i_glide_confnum>  (447) 
6

>  <i_i_glide_posenum>  (447) 
3

>  <r_i_glide_eff_state_penalty>  (447) 
0

>  <ligand_id>  (447) 
108

>  <original_smiles>  (447) 
Cc1cc2c(S(=O)(=O)Nc3ccccc3)c(Cl)ccc2o1

>  <smiles>  (447) 
[H]c1c([H])c([H])c([N-]S(=O)(=O)c2c(Cl)c([H])c([H])c3oc(C([H])([H])[H])c([H])c23)c([H])c1[H]

$$$$
108:1:1
     RDKit          3D

 32 34  0  0  1  0  0  0  0  0999 V2000
    3.9590    0.4951    5.2628 C   0  0  0  0  0  0  0  0  0  0  0  0
    4.3896   -0.6263    4.3864 C   0  0  0  0  0  0  0  0  0  0  0  0
    4.7557   -0.6699    3.0675 C   0  0  0  0  0  0  0  0  0  0  0  0
    5.0610   -2.0492    2.7622 C   0  0  0  0  0  0  0  0  0  0  0  0
    5.5067   -2.8425    1.6611 C   0  0  0  0  0  0  0  0  0  0  0  0
    5.9191   -1.9987    0.1092 S   0  0  0  0  0  0  0  0  0  0  0  0
    5.7928   -0.5585    0.3770 O   0  0  0  0  0  0  0  0  0  0  0  0
    7.2515   -2.4431   -0.3324 O   0  0  0  0  0  0  0  0  0  0  0  0
    4.7195   -2.6022   -0.8256 N   0  0  0  0  0  0  0  0  0  0  0  0
    4.1952   -2.0852   -1.9487 C   0  0  0  0  0  0  0  0  0  0  0  0
    4.4200   -0.7547   -2.3735 C   0  0  0  0  0  0  0  0  0  0  0  0
    3.8261   -0.2359   -3.5304 C   0  0  0  0  0  0  0  0  0  0  0  0
    3.0115   -1.0487   -4.3206 C   0  0  0  0  0  0  0  0  0  0  0  0
    2.7600   -2.3765   -3.9194 C   0  0  0  0  0  0  0  0  0  0  0  0
    3.3409   -2.8777   -2.7508 C   0  0  0  0  0  0  0  0  0  0  0  0
    5.6604   -4.2534    1.7849 C   0  0  0  0  0  0  0  0  0  0  0  0
    6.1752   -5.2545    0.4778 Cl  0  0  0  0  0  0  0  0  0  0  0  0
    5.4077   -4.8900    3.0166 C   0  0  0  0  0  0  0  0  0  0  0  0
    4.9987   -4.1298    4.1259 C   0  0  0  0  0  0  0  0  0  0  0  0
    4.8276   -2.7456    3.9791 C   0  0  0  0  0  0  0  0  0  0  0  0
    4.4304   -1.8598    4.9624 O   0  0  0  0  0  0  0  0  0  0  0  0
    3.9295    1.4388    4.7094 H   0  0  0  0  0  0  0  0  0  0  0  0
    4.6476    0.6071    6.1056 H   0  0  0  0  0  0  0  0  0  0  0  0
    2.9597    0.2994    5.6639 H   0  0  0  0  0  0  0  0  0  0  0  0
    4.8016    0.1668    2.3890 H   0  0  0  0  0  0  0  0  0  0  0  0
    5.0379   -0.0847   -1.8136 H   0  0  0  0  0  0  0  0  0  0  0  0
    4.0066    0.7992   -3.7907 H   0  0  0  0  0  0  0  0  0  0  0  0
    2.5500   -0.6254   -5.2058 H   0  0  0  0  0  0  0  0  0  0  0  0
    2.1108   -3.0066   -4.5110 H   0  0  0  0  0  0  0  0  0  0  0  0
    3.1258   -3.8946   -2.4594 H   0  0  0  0  0  0  0  0  0  0  0  0
    5.5444   -5.9583    3.1031 H   0  0  0  0  0  0  0  0  0  0  0  0
    4.8157   -4.6015    5.0821 H   0  0  0  0  0  0  0  0  0  0  0  0
  1  2  1  0
  1 22  1  0
  1 23  1  0
  1 24  1  0
  2 21  1  0
  2  3  2  0
  3  4  1  0
  3 25  1  0
  4 20  2  0
  4  5  1  0
  5  6  1  0
  5 16  2  0
  6  7  2  0
  6  8  2  0
  6  9  1  0
  9 10  1  0
 10 15  1  0
 10 11  2  0
 11 12  1  0
 11 26  1  0
 12 13  2  0
 12 27  1  0
 13 14  1  0
 13 28  1  0
 14 15  2  0
 14 29  1  0
 15 30  1  0
 16 17  1  0
 16 18  1  0
 18 19  2  0
 18 31  1  0
 19 20  1  0
 19 32  1  0
 20 21  1  0
M  CHG  1   9  -1
M  END
>  <i_m_ct_stereo_status>  (448) 
1

>  <s_m_source_file>  (448) 
/var/tmp/pbs.5102103.sched01/tmpeh5ntauu/15412114_vq.sdf

>  <i_m_source_file_index>  (448) 
20

>  <i_lp_mmshare_version>  (448) 
48012

>  <i_f3d_flags>  (448) 
0

>  <s_epik_input>  (448) 
W0NIM11jKFtjSF0xKW9jKGMxMilbY0hdW2NIXWMoQ2wpYzJTKD1PKSg9TylbTkhdYzNbY0hdW2NIXVtjSF1bY0hdW2NIXTM=

>  <s_epik_cmdline>  (448) 
J2VwaWtfcHl0aG9uJywgJy1waHQnLCAnMi4wJywgJy1waCcsICc3LjAnLCAnLXRuJywgJzgnLCAnLW1hJywgJzIwMCcsICctaW1hZScsICc8aW5maWxlLm1hZT4nLCAnLW9tYWUnLCAnPG91dGZpbGUubWFlPic=

>  <r_epik_Ionization_Penalty>  (448) 
1.18657

>  <r_epik_Ionization_Penalty_Charging>  (448) 
1.18657

>  <r_epik_Ionization_Penalty_Neutral>  (448) 
0

>  <r_epik_State_Penalty>  (448) 
1.25096

>  <r_epik_Charging_Adjusted_Penalty>  (448) 
2.43753

>  <i_epik_Tot_Q>  (448) 
-1

>  <i_epik_Tot_abs_Q>  (448) 
1

>  <s_lp_Force_Field>  (448) 
OPLS3e

>  <r_lp_Energy>  (448) 
20.4175

>  <b_lp_Chiralities_Consistent>  (448) 
1

>  <s_lp_Variant>  (448) 
108:0-2

>  <s_i_glide_gridfile>  (448) 
pfpi4k_grid

>  <i_i_glide_lignum>  (448) 
20

>  <i_i_glide_rotatable_bonds>  (448) 
3

>  <r_i_docking_score>  (448) 
-2.92148

>  <r_i_glide_ligand_efficiency>  (448) 
-0.139118

>  <r_i_glide_ligand_efficiency_sa>  (448) 
-0.383817

>  <r_i_glide_ligand_efficiency_ln>  (448) 
-0.722331

>  <r_i_glide_gscore>  (448) 
-2.92148

>  <r_i_glide_lipo>  (448) 
-0.865663

>  <r_i_glide_hbond>  (448) 
0

>  <r_i_glide_metal>  (448) 
-0

>  <r_i_glide_rewards>  (448) 
-1.24491

>  <r_i_glide_evdw>  (448) 
-23.9528

>  <r_i_glide_ecoul>  (448) 
-0.936769

>  <r_i_glide_erotb>  (448) 
0.54456

>  <r_i_glide_esite>  (448) 
-0.0173172

>  <r_i_glide_emodel>  (448) 
-29.6649

>  <r_i_glide_energy>  (448) 
-24.8895

>  <r_i_glide_einternal>  (448) 
4.38169

>  <r_i_glide_intrahb_reward>  (448) 
-0

>  <i_i_glide_confnum>  (448) 
1

>  <i_i_glide_posenum>  (448) 
19

>  <r_i_glide_eff_state_penalty>  (448) 
0

>  <ligand_id>  (448) 
108

>  <original_smiles>  (448) 
Cc1cc2c(S(=O)(=O)Nc3ccccc3)c(Cl)ccc2o1

>  <smiles>  (448) 
[H]c1c([H])c([H])c([N-]S(=O)(=O)c2c(Cl)c([H])c([H])c3oc(C([H])([H])[H])c([H])c23)c([H])c1[H]

$$$$
108:1:2
     RDKit          3D

 32 34  0  0  1  0  0  0  0  0999 V2000
    3.9380   -0.5434   -2.9927 C   0  0  0  0  0  0  0  0  0  0  0  0
    4.3314   -1.4773   -1.8963 C   0  0  0  0  0  0  0  0  0  0  0  0
    3.6452   -1.9835   -0.8177 C   0  0  0  0  0  0  0  0  0  0  0  0
    4.5534   -2.8382   -0.0975 C   0  0  0  0  0  0  0  0  0  0  0  0
    4.5580   -3.6557    1.0737 C   0  0  0  0  0  0  0  0  0  0  0  0
    3.0505   -3.7335    2.0923 S   0  0  0  0  0  0  0  0  0  0  0  0
    3.4958   -3.8468    3.4911 O   0  0  0  0  0  0  0  0  0  0  0  0
    2.2196   -2.5587    1.7804 O   0  0  0  0  0  0  0  0  0  0  0  0
    2.4136   -5.1056    1.4751 N   0  0  0  0  0  0  0  0  0  0  0  0
    1.4175   -5.8565    1.9912 C   0  0  0  0  0  0  0  0  0  0  0  0
    1.0614   -5.8203    3.3638 C   0  0  0  0  0  0  0  0  0  0  0  0
    0.0349   -6.6218    3.8871 C   0  0  0  0  0  0  0  0  0  0  0  0
   -0.6861   -7.4790    3.0408 C   0  0  0  0  0  0  0  0  0  0  0  0
   -0.3535   -7.5293    1.6749 C   0  0  0  0  0  0  0  0  0  0  0  0
    0.6868   -6.7343    1.1575 C   0  0  0  0  0  0  0  0  0  0  0  0
    5.7410   -4.3682    1.4500 C   0  0  0  0  0  0  0  0  0  0  0  0
    5.8427   -5.4027    2.8281 Cl  0  0  0  0  0  0  0  0  0  0  0  0
    6.9133   -4.2568    0.6770 C   0  0  0  0  0  0  0  0  0  0  0  0
    6.9305   -3.4582   -0.4755 C   0  0  0  0  0  0  0  0  0  0  0  0
    5.7640   -2.7703   -0.8395 C   0  0  0  0  0  0  0  0  0  0  0  0
    5.6213   -1.9298   -1.9208 O   0  0  0  0  0  0  0  0  0  0  0  0
    2.9052   -0.2080   -2.8695 H   0  0  0  0  0  0  0  0  0  0  0  0
    4.0208   -1.0344   -3.9658 H   0  0  0  0  0  0  0  0  0  0  0  0
    4.5876    0.3365   -2.9985 H   0  0  0  0  0  0  0  0  0  0  0  0
    2.6237   -1.7660   -0.5459 H   0  0  0  0  0  0  0  0  0  0  0  0
    1.5870   -5.1842    4.0561 H   0  0  0  0  0  0  0  0  0  0  0  0
   -0.1882   -6.5687    4.9421 H   0  0  0  0  0  0  0  0  0  0  0  0
   -1.4725   -8.1035    3.4454 H   0  0  0  0  0  0  0  0  0  0  0  0
   -0.8974   -8.1989    1.0266 H   0  0  0  0  0  0  0  0  0  0  0  0
    0.9326   -6.8104    0.1071 H   0  0  0  0  0  0  0  0  0  0  0  0
    7.8037   -4.7930    0.9791 H   0  0  0  0  0  0  0  0  0  0  0  0
    7.8173   -3.3700   -1.0845 H   0  0  0  0  0  0  0  0  0  0  0  0
  1  2  1  0
  1 22  1  0
  1 23  1  0
  1 24  1  0
  2 21  1  0
  2  3  2  0
  3  4  1  0
  3 25  1  0
  4 20  2  0
  4  5  1  0
  5  6  1  0
  5 16  2  0
  6  7  2  0
  6  8  2  0
  6  9  1  0
  9 10  1  0
 10 15  1  0
 10 11  2  0
 11 12  1  0
 11 26  1  0
 12 13  2  0
 12 27  1  0
 13 14  1  0
 13 28  1  0
 14 15  2  0
 14 29  1  0
 15 30  1  0
 16 17  1  0
 16 18  1  0
 18 19  2  0
 18 31  1  0
 19 20  1  0
 19 32  1  0
 20 21  1  0
M  CHG  1   9  -1
M  END
>  <i_m_ct_stereo_status>  (449) 
1

>  <s_m_source_file>  (449) 
/var/tmp/pbs.5102103.sched01/tmpeh5ntauu/15412114_vq.sdf

>  <i_m_source_file_index>  (449) 
20

>  <i_lp_mmshare_version>  (449) 
48012

>  <i_f3d_flags>  (449) 
0

>  <s_epik_input>  (449) 
W0NIM11jKFtjSF0xKW9jKGMxMilbY0hdW2NIXWMoQ2wpYzJTKD1PKSg9TylbTkhdYzNbY0hdW2NIXVtjSF1bY0hdW2NIXTM=

>  <s_epik_cmdline>  (449) 
J2VwaWtfcHl0aG9uJywgJy1waHQnLCAnMi4wJywgJy1waCcsICc3LjAnLCAnLXRuJywgJzgnLCAnLW1hJywgJzIwMCcsICctaW1hZScsICc8aW5maWxlLm1hZT4nLCAnLW9tYWUnLCAnPG91dGZpbGUubWFlPic=

>  <r_epik_Ionization_Penalty>  (449) 
1.18657

>  <r_epik_Ionization_Penalty_Charging>  (449) 
1.18657

>  <r_epik_Ionization_Penalty_Neutral>  (449) 
0

>  <r_epik_State_Penalty>  (449) 
1.25096

>  <r_epik_Charging_Adjusted_Penalty>  (449) 
2.43753

>  <i_epik_Tot_Q>  (449) 
-1

>  <i_epik_Tot_abs_Q>  (449) 
1

>  <s_lp_Force_Field>  (449) 
OPLS3e

>  <r_lp_Energy>  (449) 
20.4175

>  <b_lp_Chiralities_Consistent>  (449) 
1

>  <s_lp_Variant>  (449) 
108:0-2

>  <s_i_glide_gridfile>  (449) 
pfpi4k_grid

>  <i_i_glide_lignum>  (449) 
20

>  <i_i_glide_rotatable_bonds>  (449) 
3

>  <r_i_docking_score>  (449) 
-2.53882

>  <r_i_glide_ligand_efficiency>  (449) 
-0.120896

>  <r_i_glide_ligand_efficiency_sa>  (449) 
-0.333544

>  <r_i_glide_ligand_efficiency_ln>  (449) 
-0.627719

>  <r_i_glide_gscore>  (449) 
-2.53882

>  <r_i_glide_lipo>  (449) 
-0.523646

>  <r_i_glide_hbond>  (449) 
0

>  <r_i_glide_metal>  (449) 
-0

>  <r_i_glide_rewards>  (449) 
-1.22201

>  <r_i_glide_evdw>  (449) 
-24.4658

>  <r_i_glide_ecoul>  (449) 
-0.569498

>  <r_i_glide_erotb>  (449) 
0.54456

>  <r_i_glide_esite>  (449) 
-0.0290095

>  <r_i_glide_emodel>  (449) 
-28.3508

>  <r_i_glide_energy>  (449) 
-25.0353

>  <r_i_glide_einternal>  (449) 
5.30122

>  <r_i_glide_intrahb_reward>  (449) 
-0

>  <i_i_glide_confnum>  (449) 
4

>  <i_i_glide_posenum>  (449) 
20

>  <r_i_glide_eff_state_penalty>  (449) 
0

>  <ligand_id>  (449) 
108

>  <original_smiles>  (449) 
Cc1cc2c(S(=O)(=O)Nc3ccccc3)c(Cl)ccc2o1

>  <smiles>  (449) 
[H]c1c([H])c([H])c([N-]S(=O)(=O)c2c(Cl)c([H])c([H])c3oc(C([H])([H])[H])c([H])c23)c([H])c1[H]

$$$$
109:0:0
     RDKit          3D

 36 39  0  0  1  0  0  0  0  0999 V2000
    1.8094   -8.1139    2.1002 C   0  0  0  0  0  0  0  0  0  0  0  0
    0.7727   -7.4064    1.4515 C   0  0  0  0  0  0  0  0  0  0  0  0
    0.9687   -6.2614    0.7807 N   0  0  0  0  0  0  0  0  0  0  0  0
    2.2360   -5.7743    0.7194 C   0  0  0  0  0  0  0  0  0  0  0  0
    3.3475   -6.3950    1.3326 C   0  0  0  0  0  0  0  0  0  0  0  0
    4.6840   -5.8150    1.2123 C   0  0  0  0  0  0  0  0  0  0  0  0
    5.2009   -4.9701    0.2862 C   0  0  0  0  0  0  0  0  0  0  0  0
    6.5056   -4.7341    0.6895 N   0  0  0  0  0  0  0  0  0  0  0  0
    7.5638   -3.9264    0.0727 C   0  0  0  0  0  0  0  0  0  0  0  0
    7.3712   -2.3999    0.2596 C   0  0  0  0  0  0  0  0  0  0  0  0
    6.1094   -1.8798   -0.2493 N   0  0  0  0  0  0  0  0  0  0  0  0
    5.3231   -0.9972    0.3832 C   0  0  0  0  0  0  0  0  0  0  0  0
    4.1847   -0.6597   -0.2224 N   0  0  0  0  0  0  0  0  0  0  0  0
    4.2490   -1.4092   -1.3959 C   0  0  0  0  0  0  0  0  0  0  0  0
    3.3305   -1.5052   -2.4698 C   0  0  0  0  0  0  0  0  0  0  0  0
    3.5772   -2.3831   -3.5528 C   0  0  0  0  0  0  0  0  0  0  0  0
    4.7603   -3.1466   -3.5733 C   0  0  0  0  0  0  0  0  0  0  0  0
    5.7268   -3.0087   -2.5617 C   0  0  0  0  0  0  0  0  0  0  0  0
    5.4551   -2.1661   -1.4573 C   0  0  0  0  0  0  0  0  0  0  0  0
    6.7661   -5.4260    1.8273 N   0  0  0  0  0  0  0  0  0  0  0  0
    5.6913   -6.0771    2.1462 N   0  0  0  0  0  0  0  0  0  0  0  0
    3.1159   -7.5934    2.0370 C   0  0  0  0  0  0  0  0  0  0  0  0
    1.5991   -9.0328    2.6188 H   0  0  0  0  0  0  0  0  0  0  0  0
   -0.2391   -7.7801    1.4783 H   0  0  0  0  0  0  0  0  0  0  0  0
    2.3419   -4.8554    0.1712 H   0  0  0  0  0  0  0  0  0  0  0  0
    4.7328   -4.5631   -0.6033 H   0  0  0  0  0  0  0  0  0  0  0  0
    8.5375   -4.2275    0.5104 H   0  0  0  0  0  0  0  0  0  0  0  0
    7.6200   -4.1649   -0.9888 H   0  0  0  0  0  0  0  0  0  0  0  0
    7.4118   -2.1528    1.3118 H   0  0  0  0  0  0  0  0  0  0  0  0
    8.1857   -1.8652   -0.2223 H   0  0  0  0  0  0  0  0  0  0  0  0
    5.5865   -0.5607    1.3476 H   0  0  0  0  0  0  0  0  0  0  0  0
    2.4232   -0.9220   -2.4277 H   0  0  0  0  0  0  0  0  0  0  0  0
    2.8577   -2.4683   -4.3517 H   0  0  0  0  0  0  0  0  0  0  0  0
    4.9579   -3.8497   -4.3759 H   0  0  0  0  0  0  0  0  0  0  0  0
    6.6415   -3.5699   -2.6404 H   0  0  0  0  0  0  0  0  0  0  0  0
    3.9361   -8.1171    2.5166 H   0  0  0  0  0  0  0  0  0  0  0  0
  1 22  2  0
  1  2  1  0
  1 23  1  0
  2  3  2  0
  2 24  1  0
  3  4  1  0
  4  5  2  0
  4 25  1  0
  5  6  1  0
  5 22  1  0
  6 21  1  0
  6  7  2  0
  7  8  1  0
  7 26  1  0
  8  9  1  0
  8 20  1  0
  9 10  1  0
  9 27  1  0
  9 28  1  0
 10 11  1  0
 10 29  1  0
 10 30  1  0
 11 19  1  0
 11 12  1  0
 12 13  2  0
 12 31  1  0
 13 14  1  0
 14 19  2  0
 14 15  1  0
 15 16  2  0
 15 32  1  0
 16 17  1  0
 16 33  1  0
 17 18  2  0
 17 34  1  0
 18 19  1  0
 18 35  1  0
 20 21  2  0
 22 36  1  0
M  END
>  <i_m_ct_stereo_status>  (450) 
1

>  <s_m_source_file>  (450) 
/var/tmp/pbs.5102103.sched01/tmpeh5ntauu/15412114_vq.sdf

>  <i_m_source_file_index>  (450) 
21

>  <i_lp_mmshare_version>  (450) 
48012

>  <i_f3d_flags>  (450) 
0

>  <s_epik_input>  (450) 
W2NIXTFbY0hdW2NIXW5bY0hdYzEtYzJbY0hdbihubjIpW0NIMl1bQ0gyXW4oW2NIXW4zKWMoYzM0KVtjSF1bY0hdW2NIXVtjSF00

>  <s_epik_cmdline>  (450) 
J2VwaWtfcHl0aG9uJywgJy1waHQnLCAnMi4wJywgJy1waCcsICc3LjAnLCAnLXRuJywgJzgnLCAnLW1hJywgJzIwMCcsICctaW1hZScsICc8aW5maWxlLm1hZT4nLCAnLW9tYWUnLCAnPG91dGZpbGUubWFlPic=

>  <r_lp_tautomer_probability>  (450) 
1

>  <r_epik_Ionization_Penalty>  (450) 
0.0452367

>  <r_epik_Ionization_Penalty_Charging>  (450) 
0

>  <r_epik_Ionization_Penalty_Neutral>  (450) 
0.0452367

>  <r_epik_State_Penalty>  (450) 
0.0380315

>  <r_epik_Charging_Adjusted_Penalty>  (450) 
0.0380315

>  <i_epik_Tot_Q>  (450) 
0

>  <i_epik_Tot_abs_Q>  (450) 
0

>  <s_lp_Force_Field>  (450) 
OPLS3e

>  <r_lp_Energy>  (450) 
25.2027

>  <b_lp_Chiralities_Consistent>  (450) 
1

>  <s_lp_Variant>  (450) 
109:0-1

>  <s_i_glide_gridfile>  (450) 
pfpi4k_grid

>  <i_i_glide_lignum>  (450) 
21

>  <i_i_glide_rotatable_bonds>  (450) 
4

>  <r_i_docking_score>  (450) 
-4.27352

>  <r_i_glide_ligand_efficiency>  (450) 
-0.194251

>  <r_i_glide_ligand_efficiency_sa>  (450) 
-0.544299

>  <r_i_glide_ligand_efficiency_ln>  (450) 
-1.04461

>  <r_i_glide_gscore>  (450) 
-4.27352

>  <r_i_glide_lipo>  (450) 
-1.09811

>  <r_i_glide_hbond>  (450) 
-0.16

>  <r_i_glide_metal>  (450) 
-0

>  <r_i_glide_rewards>  (450) 
-1.7324

>  <r_i_glide_evdw>  (450) 
-29.8503

>  <r_i_glide_ecoul>  (450) 
-4.23058

>  <r_i_glide_erotb>  (450) 
0.864812

>  <r_i_glide_esite>  (450) 
-0.0207206

>  <r_i_glide_emodel>  (450) 
-42.2773

>  <r_i_glide_energy>  (450) 
-34.0808

>  <r_i_glide_einternal>  (450) 
3.32662

>  <r_i_glide_intrahb_reward>  (450) 
-0

>  <i_i_glide_confnum>  (450) 
6

>  <i_i_glide_posenum>  (450) 
19

>  <r_i_glide_eff_state_penalty>  (450) 
0

>  <ligand_id>  (450) 
109

>  <original_smiles>  (450) 
c1cncc(-c2cn(CCn3cnc4ccccc43)nn2)c1

>  <smiles>  (450) 
[H]c1nc([H])c(-c2nnn(C([H])([H])C([H])([H])n3c([H])nc4c([H])c([H])c([H])c([H])c43)c2[H])c([H])c1[H]

$$$$
109:0:1
     RDKit          3D

 36 39  0  0  1  0  0  0  0  0999 V2000
   -2.0743    2.0707    6.0752 C   0  0  0  0  0  0  0  0  0  0  0  0
   -2.3527    3.3381    5.5328 C   0  0  0  0  0  0  0  0  0  0  0  0
   -1.7818    3.8074    4.4059 N   0  0  0  0  0  0  0  0  0  0  0  0
   -0.8941    3.0064    3.7739 C   0  0  0  0  0  0  0  0  0  0  0  0
   -0.5380    1.7168    4.2247 C   0  0  0  0  0  0  0  0  0  0  0  0
    0.4535    0.9260    3.4909 C   0  0  0  0  0  0  0  0  0  0  0  0
    1.3748    1.3123    2.5551 C   0  0  0  0  0  0  0  0  0  0  0  0
    2.0333    0.1475    2.2269 N   0  0  0  0  0  0  0  0  0  0  0  0
    3.0880   -0.0414    1.2412 C   0  0  0  0  0  0  0  0  0  0  0  0
    4.2117   -0.9979    1.6948 C   0  0  0  0  0  0  0  0  0  0  0  0
    5.0529   -1.4332    0.5914 N   0  0  0  0  0  0  0  0  0  0  0  0
    6.3966   -1.3642    0.5240 C   0  0  0  0  0  0  0  0  0  0  0  0
    6.9761   -1.8558   -0.5709 N   0  0  0  0  0  0  0  0  0  0  0  0
    5.8814   -2.3148   -1.2886 C   0  0  0  0  0  0  0  0  0  0  0  0
    5.8100   -2.9377   -2.5551 C   0  0  0  0  0  0  0  0  0  0  0  0
    4.5645   -3.3006   -3.1113 C   0  0  0  0  0  0  0  0  0  0  0  0
    3.3733   -3.0599   -2.3991 C   0  0  0  0  0  0  0  0  0  0  0  0
    3.4270   -2.4739   -1.1247 C   0  0  0  0  0  0  0  0  0  0  0  0
    4.6657   -2.0768   -0.5828 C   0  0  0  0  0  0  0  0  0  0  0  0
    1.4995   -0.9129    2.8780 N   0  0  0  0  0  0  0  0  0  0  0  0
    0.5819   -0.4558    3.6668 N   0  0  0  0  0  0  0  0  0  0  0  0
   -1.1519    1.2412    5.4046 C   0  0  0  0  0  0  0  0  0  0  0  0
   -2.5658    1.7530    6.9819 H   0  0  0  0  0  0  0  0  0  0  0  0
   -3.0584    3.9915    6.0181 H   0  0  0  0  0  0  0  0  0  0  0  0
   -0.4509    3.4196    2.8799 H   0  0  0  0  0  0  0  0  0  0  0  0
    1.6066    2.2701    2.1099 H   0  0  0  0  0  0  0  0  0  0  0  0
    2.6130   -0.3906    0.3324 H   0  0  0  0  0  0  0  0  0  0  0  0
    3.5071    0.9295    0.9788 H   0  0  0  0  0  0  0  0  0  0  0  0
    4.8250   -0.4994    2.4434 H   0  0  0  0  0  0  0  0  0  0  0  0
    3.8144   -1.8993    2.1557 H   0  0  0  0  0  0  0  0  0  0  0  0
    6.9894   -0.9248    1.3153 H   0  0  0  0  0  0  0  0  0  0  0  0
    6.7180   -3.1201   -3.1072 H   0  0  0  0  0  0  0  0  0  0  0  0
    4.5184   -3.7853   -4.0736 H   0  0  0  0  0  0  0  0  0  0  0  0
    2.4149   -3.3584   -2.8068 H   0  0  0  0  0  0  0  0  0  0  0  0
    2.5148   -2.3165   -0.5743 H   0  0  0  0  0  0  0  0  0  0  0  0
   -0.9166    0.2657    5.8055 H   0  0  0  0  0  0  0  0  0  0  0  0
  1 22  2  0
  1  2  1  0
  1 23  1  0
  2  3  2  0
  2 24  1  0
  3  4  1  0
  4  5  2  0
  4 25  1  0
  5  6  1  0
  5 22  1  0
  6 21  1  0
  6  7  2  0
  7  8  1  0
  7 26  1  0
  8  9  1  0
  8 20  1  0
  9 10  1  0
  9 27  1  0
  9 28  1  0
 10 11  1  0
 10 29  1  0
 10 30  1  0
 11 19  1  0
 11 12  1  0
 12 13  2  0
 12 31  1  0
 13 14  1  0
 14 19  2  0
 14 15  1  0
 15 16  2  0
 15 32  1  0
 16 17  1  0
 16 33  1  0
 17 18  2  0
 17 34  1  0
 18 19  1  0
 18 35  1  0
 20 21  2  0
 22 36  1  0
M  END
>  <i_m_ct_stereo_status>  (451) 
1

>  <s_m_source_file>  (451) 
/var/tmp/pbs.5102103.sched01/tmpeh5ntauu/15412114_vq.sdf

>  <i_m_source_file_index>  (451) 
21

>  <i_lp_mmshare_version>  (451) 
48012

>  <i_f3d_flags>  (451) 
0

>  <s_epik_input>  (451) 
W2NIXTFbY0hdW2NIXW5bY0hdYzEtYzJbY0hdbihubjIpW0NIMl1bQ0gyXW4oW2NIXW4zKWMoYzM0KVtjSF1bY0hdW2NIXVtjSF00

>  <s_epik_cmdline>  (451) 
J2VwaWtfcHl0aG9uJywgJy1waHQnLCAnMi4wJywgJy1waCcsICc3LjAnLCAnLXRuJywgJzgnLCAnLW1hJywgJzIwMCcsICctaW1hZScsICc8aW5maWxlLm1hZT4nLCAnLW9tYWUnLCAnPG91dGZpbGUubWFlPic=

>  <r_lp_tautomer_probability>  (451) 
1

>  <r_epik_Ionization_Penalty>  (451) 
0.0452367

>  <r_epik_Ionization_Penalty_Charging>  (451) 
0

>  <r_epik_Ionization_Penalty_Neutral>  (451) 
0.0452367

>  <r_epik_State_Penalty>  (451) 
0.0380315

>  <r_epik_Charging_Adjusted_Penalty>  (451) 
0.0380315

>  <i_epik_Tot_Q>  (451) 
0

>  <i_epik_Tot_abs_Q>  (451) 
0

>  <s_lp_Force_Field>  (451) 
OPLS3e

>  <r_lp_Energy>  (451) 
25.2027

>  <b_lp_Chiralities_Consistent>  (451) 
1

>  <s_lp_Variant>  (451) 
109:0-1

>  <s_i_glide_gridfile>  (451) 
pfpi4k_grid

>  <i_i_glide_lignum>  (451) 
21

>  <i_i_glide_rotatable_bonds>  (451) 
4

>  <r_i_docking_score>  (451) 
-3.47645

>  <r_i_glide_ligand_efficiency>  (451) 
-0.15802

>  <r_i_glide_ligand_efficiency_sa>  (451) 
-0.442779

>  <r_i_glide_ligand_efficiency_ln>  (451) 
-0.849771

>  <r_i_glide_gscore>  (451) 
-3.47645

>  <r_i_glide_lipo>  (451) 
-0.338658

>  <r_i_glide_hbond>  (451) 
-0.16

>  <r_i_glide_metal>  (451) 
-0

>  <r_i_glide_rewards>  (451) 
-1.574

>  <r_i_glide_evdw>  (451) 
-28.3669

>  <r_i_glide_ecoul>  (451) 
-5.22896

>  <r_i_glide_erotb>  (451) 
0.864812

>  <r_i_glide_esite>  (451) 
-0.0659052

>  <r_i_glide_emodel>  (451) 
-40.9238

>  <r_i_glide_energy>  (451) 
-33.5959

>  <r_i_glide_einternal>  (451) 
1.51009

>  <r_i_glide_intrahb_reward>  (451) 
-0

>  <i_i_glide_confnum>  (451) 
1

>  <i_i_glide_posenum>  (451) 
1

>  <r_i_glide_eff_state_penalty>  (451) 
0

>  <ligand_id>  (451) 
109

>  <original_smiles>  (451) 
c1cncc(-c2cn(CCn3cnc4ccccc43)nn2)c1

>  <smiles>  (451) 
[H]c1nc([H])c(-c2nnn(C([H])([H])C([H])([H])n3c([H])nc4c([H])c([H])c([H])c([H])c43)c2[H])c([H])c1[H]

$$$$
109:0:2
     RDKit          3D

 36 39  0  0  1  0  0  0  0  0999 V2000
   -2.1763    3.3481    4.1292 C   0  0  0  0  0  0  0  0  0  0  0  0
   -2.5355    2.9450    5.4318 C   0  0  0  0  0  0  0  0  0  0  0  0
   -1.9908    1.8768    6.0510 N   0  0  0  0  0  0  0  0  0  0  0  0
   -1.0451    1.1740    5.3807 C   0  0  0  0  0  0  0  0  0  0  0  0
   -0.6003    1.5064    4.0773 C   0  0  0  0  0  0  0  0  0  0  0  0
    0.4508    0.7425    3.4119 C   0  0  0  0  0  0  0  0  0  0  0  0
    1.3203    1.1258    2.4230 C   0  0  0  0  0  0  0  0  0  0  0  0
    2.0901    0.0022    2.2202 N   0  0  0  0  0  0  0  0  0  0  0  0
    3.1410   -0.1812    1.2332 C   0  0  0  0  0  0  0  0  0  0  0  0
    4.2901   -1.1222    1.6844 C   0  0  0  0  0  0  0  0  0  0  0  0
    5.1170   -1.5718    0.5806 N   0  0  0  0  0  0  0  0  0  0  0  0
    6.4686   -1.5750    0.5383 C   0  0  0  0  0  0  0  0  0  0  0  0
    7.0438   -2.0695   -0.5522 N   0  0  0  0  0  0  0  0  0  0  0  0
    5.9411   -2.4642   -1.2991 C   0  0  0  0  0  0  0  0  0  0  0  0
    5.8605   -3.0558   -2.5830 C   0  0  0  0  0  0  0  0  0  0  0  0
    4.6103   -3.3560   -3.1737 C   0  0  0  0  0  0  0  0  0  0  0  0
    3.4207   -3.0771   -2.4814 C   0  0  0  0  0  0  0  0  0  0  0  0
    3.4801   -2.5296   -1.1877 C   0  0  0  0  0  0  0  0  0  0  0  0
    4.7277   -2.1860   -0.6125 C   0  0  0  0  0  0  0  0  0  0  0  0
    1.6592   -1.0391    2.9687 N   0  0  0  0  0  0  0  0  0  0  0  0
    0.7080   -0.5936    3.7195 N   0  0  0  0  0  0  0  0  0  0  0  0
   -1.1805    2.6181    3.4489 C   0  0  0  0  0  0  0  0  0  0  0  0
   -2.6520    4.1866    3.6536 H   0  0  0  0  0  0  0  0  0  0  0  0
   -3.3061    3.4687    5.9754 H   0  0  0  0  0  0  0  0  0  0  0  0
   -0.6298    0.3372    5.9202 H   0  0  0  0  0  0  0  0  0  0  0  0
    1.4477    2.0466    1.8765 H   0  0  0  0  0  0  0  0  0  0  0  0
    2.6243   -0.5208    0.3412 H   0  0  0  0  0  0  0  0  0  0  0  0
    3.5514    0.7888    0.9498 H   0  0  0  0  0  0  0  0  0  0  0  0
    4.9088   -0.5922    2.4085 H   0  0  0  0  0  0  0  0  0  0  0  0
    3.9279   -2.0226    2.1760 H   0  0  0  0  0  0  0  0  0  0  0  0
    7.0680   -1.1916    1.3519 H   0  0  0  0  0  0  0  0  0  0  0  0
    6.7705   -3.2875   -3.1110 H   0  0  0  0  0  0  0  0  0  0  0  0
    4.5614   -3.8223   -4.1461 H   0  0  0  0  0  0  0  0  0  0  0  0
    2.4493   -3.3087   -2.9069 H   0  0  0  0  0  0  0  0  0  0  0  0
    2.5566   -2.3701   -0.6686 H   0  0  0  0  0  0  0  0  0  0  0  0
   -0.8789    2.9159    2.4516 H   0  0  0  0  0  0  0  0  0  0  0  0
  1 22  2  0
  1  2  1  0
  1 23  1  0
  2  3  2  0
  2 24  1  0
  3  4  1  0
  4  5  2  0
  4 25  1  0
  5  6  1  0
  5 22  1  0
  6 21  1  0
  6  7  2  0
  7  8  1  0
  7 26  1  0
  8  9  1  0
  8 20  1  0
  9 10  1  0
  9 27  1  0
  9 28  1  0
 10 11  1  0
 10 29  1  0
 10 30  1  0
 11 19  1  0
 11 12  1  0
 12 13  2  0
 12 31  1  0
 13 14  1  0
 14 19  2  0
 14 15  1  0
 15 16  2  0
 15 32  1  0
 16 17  1  0
 16 33  1  0
 17 18  2  0
 17 34  1  0
 18 19  1  0
 18 35  1  0
 20 21  2  0
 22 36  1  0
M  END
>  <i_m_ct_stereo_status>  (452) 
1

>  <s_m_source_file>  (452) 
/var/tmp/pbs.5102103.sched01/tmpeh5ntauu/15412114_vq.sdf

>  <i_m_source_file_index>  (452) 
21

>  <i_lp_mmshare_version>  (452) 
48012

>  <i_f3d_flags>  (452) 
0

>  <s_epik_input>  (452) 
W2NIXTFbY0hdW2NIXW5bY0hdYzEtYzJbY0hdbihubjIpW0NIMl1bQ0gyXW4oW2NIXW4zKWMoYzM0KVtjSF1bY0hdW2NIXVtjSF00

>  <s_epik_cmdline>  (452) 
J2VwaWtfcHl0aG9uJywgJy1waHQnLCAnMi4wJywgJy1waCcsICc3LjAnLCAnLXRuJywgJzgnLCAnLW1hJywgJzIwMCcsICctaW1hZScsICc8aW5maWxlLm1hZT4nLCAnLW9tYWUnLCAnPG91dGZpbGUubWFlPic=

>  <r_lp_tautomer_probability>  (452) 
1

>  <r_epik_Ionization_Penalty>  (452) 
0.0452367

>  <r_epik_Ionization_Penalty_Charging>  (452) 
0

>  <r_epik_Ionization_Penalty_Neutral>  (452) 
0.0452367

>  <r_epik_State_Penalty>  (452) 
0.0380315

>  <r_epik_Charging_Adjusted_Penalty>  (452) 
0.0380315

>  <i_epik_Tot_Q>  (452) 
0

>  <i_epik_Tot_abs_Q>  (452) 
0

>  <s_lp_Force_Field>  (452) 
OPLS3e

>  <r_lp_Energy>  (452) 
25.2027

>  <b_lp_Chiralities_Consistent>  (452) 
1

>  <s_lp_Variant>  (452) 
109:0-1

>  <s_i_glide_gridfile>  (452) 
pfpi4k_grid

>  <i_i_glide_lignum>  (452) 
21

>  <i_i_glide_rotatable_bonds>  (452) 
4

>  <r_i_docking_score>  (452) 
-3.42127

>  <r_i_glide_ligand_efficiency>  (452) 
-0.155512

>  <r_i_glide_ligand_efficiency_sa>  (452) 
-0.435752

>  <r_i_glide_ligand_efficiency_ln>  (452) 
-0.836283

>  <r_i_glide_gscore>  (452) 
-3.42127

>  <r_i_glide_lipo>  (452) 
-0.401915

>  <r_i_glide_hbond>  (452) 
-0.16

>  <r_i_glide_metal>  (452) 
-0

>  <r_i_glide_rewards>  (452) 
-1.56917

>  <r_i_glide_evdw>  (452) 
-29.9531

>  <r_i_glide_ecoul>  (452) 
-3.9843

>  <r_i_glide_erotb>  (452) 
0.864812

>  <r_i_glide_esite>  (452) 
-0.0597025

>  <r_i_glide_emodel>  (452) 
-40.4934

>  <r_i_glide_energy>  (452) 
-33.9374

>  <r_i_glide_einternal>  (452) 
2.35732

>  <r_i_glide_intrahb_reward>  (452) 
-0

>  <i_i_glide_confnum>  (452) 
1

>  <i_i_glide_posenum>  (452) 
37

>  <r_i_glide_eff_state_penalty>  (452) 
0

>  <ligand_id>  (452) 
109

>  <original_smiles>  (452) 
c1cncc(-c2cn(CCn3cnc4ccccc43)nn2)c1

>  <smiles>  (452) 
[H]c1nc([H])c(-c2nnn(C([H])([H])C([H])([H])n3c([H])nc4c([H])c([H])c([H])c([H])c43)c2[H])c([H])c1[H]

$$$$
109:1:0
     RDKit          3D

 37 40  0  0  1  0  0  0  0  0999 V2000
    1.7774   -8.1551    1.9413 C   0  0  0  0  0  0  0  0  0  0  0  0
    0.7360   -7.4321    1.3288 C   0  0  0  0  0  0  0  0  0  0  0  0
    0.9282   -6.2579    0.6993 N   0  0  0  0  0  0  0  0  0  0  0  0
    2.1913   -5.7652    0.6639 C   0  0  0  0  0  0  0  0  0  0  0  0
    3.3079   -6.4021    1.2576 C   0  0  0  0  0  0  0  0  0  0  0  0
    4.6400   -5.8137    1.1721 C   0  0  0  0  0  0  0  0  0  0  0  0
    5.0541   -4.8009    0.3569 C   0  0  0  0  0  0  0  0  0  0  0  0
    6.3764   -4.5699    0.7019 N   0  0  0  0  0  0  0  0  0  0  0  0
    7.3387   -3.6150    0.1400 C   0  0  0  0  0  0  0  0  0  0  0  0
    6.8933   -2.1292    0.2095 C   0  0  0  0  0  0  0  0  0  0  0  0
    5.5262   -1.8370   -0.2838 N   0  0  0  0  0  0  0  0  0  0  0  0
    4.5375   -1.1471    0.3579 C   0  0  0  0  0  0  0  0  0  0  0  0
    3.4246   -1.2055   -0.4181 N   0  0  0  0  0  0  0  0  0  0  0  0
    3.6978   -1.9084   -1.5864 C   0  0  0  0  0  0  0  0  0  0  0  0
    2.8642   -2.2464   -2.6453 C   0  0  0  0  0  0  0  0  0  0  0  0
    3.4176   -3.0428   -3.6688 C   0  0  0  0  0  0  0  0  0  0  0  0
    4.7625   -3.4427   -3.6172 C   0  0  0  0  0  0  0  0  0  0  0  0
    5.6219   -3.0514   -2.5683 C   0  0  0  0  0  0  0  0  0  0  0  0
    5.0545   -2.2932   -1.5351 C   0  0  0  0  0  0  0  0  0  0  0  0
    6.7674   -5.4649    1.6484 N   0  0  0  0  0  0  0  0  0  0  0  0
    5.7384   -6.2083    1.9505 N   0  0  0  0  0  0  0  0  0  0  0  0
    3.0810   -7.6328    1.9012 C   0  0  0  0  0  0  0  0  0  0  0  0
    1.5854   -9.0983    2.4235 H   0  0  0  0  0  0  0  0  0  0  0  0
   -0.2723   -7.8162    1.3448 H   0  0  0  0  0  0  0  0  0  0  0  0
    2.2774   -4.8201    0.1452 H   0  0  0  0  0  0  0  0  0  0  0  0
    4.4829   -4.2671   -0.3925 H   0  0  0  0  0  0  0  0  0  0  0  0
    8.2932   -3.7173    0.6739 H   0  0  0  0  0  0  0  0  0  0  0  0
    7.5776   -3.8991   -0.8851 H   0  0  0  0  0  0  0  0  0  0  0  0
    6.9120   -1.8213    1.2576 H   0  0  0  0  0  0  0  0  0  0  0  0
    7.5984   -1.4775   -0.3142 H   0  0  0  0  0  0  0  0  0  0  0  0
    4.6069   -0.7093    1.3564 H   0  0  0  0  0  0  0  0  0  0  0  0
    1.8181   -1.9744   -2.6555 H   0  0  0  0  0  0  0  0  0  0  0  0
    2.7899   -3.3524   -4.4940 H   0  0  0  0  0  0  0  0  0  0  0  0
    5.1519   -4.0956   -4.3804 H   0  0  0  0  0  0  0  0  0  0  0  0
    6.6410   -3.4014   -2.5756 H   0  0  0  0  0  0  0  0  0  0  0  0
    3.9072   -8.1620    2.3482 H   0  0  0  0  0  0  0  0  0  0  0  0
    2.4824   -0.8582   -0.1779 H   0  0  0  0  0  0  0  0  0  0  0  0
  1 22  2  0
  1  2  1  0
  1 23  1  0
  2  3  2  0
  2 24  1  0
  3  4  1  0
  4  5  2  0
  4 25  1  0
  5  6  1  0
  5 22  1  0
  6 21  1  0
  6  7  2  0
  7  8  1  0
  7 26  1  0
  8  9  1  0
  8 20  1  0
  9 10  1  0
  9 27  1  0
  9 28  1  0
 10 11  1  0
 10 29  1  0
 10 30  1  0
 11 19  1  0
 11 12  1  0
 12 13  2  0
 12 31  1  0
 13 14  1  0
 13 37  1  0
 14 19  2  0
 14 15  1  0
 15 16  2  0
 15 32  1  0
 16 17  1  0
 16 33  1  0
 17 18  2  0
 17 34  1  0
 18 19  1  0
 18 35  1  0
 20 21  2  0
 22 36  1  0
M  CHG  1  13   1
M  END
>  <i_m_ct_stereo_status>  (453) 
1

>  <s_m_source_file>  (453) 
/var/tmp/pbs.5102103.sched01/tmpeh5ntauu/15412114_vq.sdf

>  <i_m_source_file_index>  (453) 
22

>  <i_lp_mmshare_version>  (453) 
48012

>  <i_f3d_flags>  (453) 
0

>  <s_epik_input>  (453) 
W2NIXTFbY0hdW2NIXW5bY0hdYzEtYzJbY0hdbihubjIpW0NIMl1bQ0gyXW4oW2NIXW4zKWMoYzM0KVtjSF1bY0hdW2NIXVtjSF00

>  <s_epik_cmdline>  (453) 
J2VwaWtfcHl0aG9uJywgJy1waHQnLCAnMi4wJywgJy1waCcsICc3LjAnLCAnLXRuJywgJzgnLCAnLW1hJywgJzIwMCcsICctaW1hZScsICc8aW5maWxlLm1hZT4nLCAnLW9tYWUnLCAnPG91dGZpbGUubWFlPic=

>  <r_lp_tautomer_probability>  (453) 
1

>  <r_epik_Ionization_Penalty>  (453) 
1.55196

>  <r_epik_Ionization_Penalty_Charging>  (453) 
1.55157

>  <r_epik_Ionization_Penalty_Neutral>  (453) 
0.000392695

>  <r_epik_State_Penalty>  (453) 
1.64583

>  <r_epik_Charging_Adjusted_Penalty>  (453) 
3.1974

>  <i_epik_Tot_Q>  (453) 
1

>  <i_epik_Tot_abs_Q>  (453) 
1

>  <s_lp_Force_Field>  (453) 
OPLS3e

>  <r_lp_Energy>  (453) 
31.5998

>  <b_lp_Chiralities_Consistent>  (453) 
1

>  <s_lp_Variant>  (453) 
109:0-2

>  <s_i_glide_gridfile>  (453) 
pfpi4k_grid

>  <i_i_glide_lignum>  (453) 
22

>  <i_i_glide_rotatable_bonds>  (453) 
4

>  <r_i_docking_score>  (453) 
-4.98625

>  <r_i_glide_ligand_efficiency>  (453) 
-0.226648

>  <r_i_glide_ligand_efficiency_sa>  (453) 
-0.635075

>  <r_i_glide_ligand_efficiency_ln>  (453) 
-1.21882

>  <r_i_glide_gscore>  (453) 
-4.98625

>  <r_i_glide_lipo>  (453) 
-1.01593

>  <r_i_glide_hbond>  (453) 
-0.317728

>  <r_i_glide_metal>  (453) 
-0

>  <r_i_glide_rewards>  (453) 
-1.58779

>  <r_i_glide_evdw>  (453) 
-29.3383

>  <r_i_glide_ecoul>  (453) 
-8.94361

>  <r_i_glide_erotb>  (453) 
0.8596

>  <r_i_glide_esite>  (453) 
-0.115948

>  <r_i_glide_emodel>  (453) 
-48.7555

>  <r_i_glide_energy>  (453) 
-38.2819

>  <r_i_glide_einternal>  (453) 
4.27183

>  <r_i_glide_intrahb_reward>  (453) 
-0

>  <i_i_glide_confnum>  (453) 
6

>  <i_i_glide_posenum>  (453) 
23

>  <r_i_glide_eff_state_penalty>  (453) 
0

>  <ligand_id>  (453) 
109

>  <original_smiles>  (453) 
c1cncc(-c2cn(CCn3cnc4ccccc43)nn2)c1

>  <smiles>  (453) 
[H]c1nc([H])c(-c2nnn(C([H])([H])C([H])([H])n3c([H])[n+]([H])c4c([H])c([H])c([H])c([H])c43)c2[H])c([H])c1[H]

$$$$
109:1:1
     RDKit          3D

 37 40  0  0  1  0  0  0  0  0999 V2000
    1.0205   -7.4859    2.5972 C   0  0  0  0  0  0  0  0  0  0  0  0
    0.2168   -7.2125    1.4769 C   0  0  0  0  0  0  0  0  0  0  0  0
    0.5879   -6.3748    0.4858 N   0  0  0  0  0  0  0  0  0  0  0  0
    1.8244   -5.8408    0.5506 C   0  0  0  0  0  0  0  0  0  0  0  0
    2.7110   -6.0345    1.6301 C   0  0  0  0  0  0  0  0  0  0  0  0
    4.0232   -5.3847    1.6289 C   0  0  0  0  0  0  0  0  0  0  0  0
    4.8062   -5.0001    0.5795 C   0  0  0  0  0  0  0  0  0  0  0  0
    5.9053   -4.4121    1.1736 N   0  0  0  0  0  0  0  0  0  0  0  0
    7.0745   -3.8249    0.5234 C   0  0  0  0  0  0  0  0  0  0  0  0
    6.8710   -2.3754    0.0269 C   0  0  0  0  0  0  0  0  0  0  0  0
    5.5086   -2.0699   -0.4477 N   0  0  0  0  0  0  0  0  0  0  0  0
    4.5255   -1.3883    0.2027 C   0  0  0  0  0  0  0  0  0  0  0  0
    3.4163   -1.4448   -0.5830 N   0  0  0  0  0  0  0  0  0  0  0  0
    3.6950   -2.1487   -1.7486 C   0  0  0  0  0  0  0  0  0  0  0  0
    2.8661   -2.4581   -2.8221 C   0  0  0  0  0  0  0  0  0  0  0  0
    3.4342   -3.2171   -3.8613 C   0  0  0  0  0  0  0  0  0  0  0  0
    4.7739   -3.6585   -3.7891 C   0  0  0  0  0  0  0  0  0  0  0  0
    5.6107   -3.3230   -2.6985 C   0  0  0  0  0  0  0  0  0  0  0  0
    5.0387   -2.5587   -1.6782 C   0  0  0  0  0  0  0  0  0  0  0  0
    5.8020   -4.4371    2.5229 N   0  0  0  0  0  0  0  0  0  0  0  0
    4.6765   -5.0120    2.8066 N   0  0  0  0  0  0  0  0  0  0  0  0
    2.2914   -6.8788    2.6824 C   0  0  0  0  0  0  0  0  0  0  0  0
    0.6721   -8.1563    3.3672 H   0  0  0  0  0  0  0  0  0  0  0  0
   -0.7581   -7.6692    1.3769 H   0  0  0  0  0  0  0  0  0  0  0  0
    2.0897   -5.1969   -0.2750 H   0  0  0  0  0  0  0  0  0  0  0  0
    4.6721   -5.0767   -0.4854 H   0  0  0  0  0  0  0  0  0  0  0  0
    7.9282   -3.8624    1.2100 H   0  0  0  0  0  0  0  0  0  0  0  0
    7.3346   -4.4691   -0.3136 H   0  0  0  0  0  0  0  0  0  0  0  0
    7.0597   -1.6971    0.8553 H   0  0  0  0  0  0  0  0  0  0  0  0
    7.5916   -2.1245   -0.7483 H   0  0  0  0  0  0  0  0  0  0  0  0
    4.6027   -0.9345    1.1862 H   0  0  0  0  0  0  0  0  0  0  0  0
    1.8339   -2.1452   -2.8502 H   0  0  0  0  0  0  0  0  0  0  0  0
    2.8090   -3.4638   -4.7088 H   0  0  0  0  0  0  0  0  0  0  0  0
    5.1702   -4.2604   -4.5929 H   0  0  0  0  0  0  0  0  0  0  0  0
    6.6367   -3.6636   -2.6612 H   0  0  0  0  0  0  0  0  0  0  0  0
    2.9307   -7.0706    3.5320 H   0  0  0  0  0  0  0  0  0  0  0  0
    2.4788   -1.0741   -0.3677 H   0  0  0  0  0  0  0  0  0  0  0  0
  1 22  2  0
  1  2  1  0
  1 23  1  0
  2  3  2  0
  2 24  1  0
  3  4  1  0
  4  5  2  0
  4 25  1  0
  5  6  1  0
  5 22  1  0
  6 21  1  0
  6  7  2  0
  7  8  1  0
  7 26  1  0
  8  9  1  0
  8 20  1  0
  9 10  1  0
  9 27  1  0
  9 28  1  0
 10 11  1  0
 10 29  1  0
 10 30  1  0
 11 19  1  0
 11 12  1  0
 12 13  2  0
 12 31  1  0
 13 14  1  0
 13 37  1  0
 14 19  2  0
 14 15  1  0
 15 16  2  0
 15 32  1  0
 16 17  1  0
 16 33  1  0
 17 18  2  0
 17 34  1  0
 18 19  1  0
 18 35  1  0
 20 21  2  0
 22 36  1  0
M  CHG  1  13   1
M  END
>  <i_m_ct_stereo_status>  (454) 
1

>  <s_m_source_file>  (454) 
/var/tmp/pbs.5102103.sched01/tmpeh5ntauu/15412114_vq.sdf

>  <i_m_source_file_index>  (454) 
22

>  <i_lp_mmshare_version>  (454) 
48012

>  <i_f3d_flags>  (454) 
0

>  <s_epik_input>  (454) 
W2NIXTFbY0hdW2NIXW5bY0hdYzEtYzJbY0hdbihubjIpW0NIMl1bQ0gyXW4oW2NIXW4zKWMoYzM0KVtjSF1bY0hdW2NIXVtjSF00

>  <s_epik_cmdline>  (454) 
J2VwaWtfcHl0aG9uJywgJy1waHQnLCAnMi4wJywgJy1waCcsICc3LjAnLCAnLXRuJywgJzgnLCAnLW1hJywgJzIwMCcsICctaW1hZScsICc8aW5maWxlLm1hZT4nLCAnLW9tYWUnLCAnPG91dGZpbGUubWFlPic=

>  <r_lp_tautomer_probability>  (454) 
1

>  <r_epik_Ionization_Penalty>  (454) 
1.55196

>  <r_epik_Ionization_Penalty_Charging>  (454) 
1.55157

>  <r_epik_Ionization_Penalty_Neutral>  (454) 
0.000392695

>  <r_epik_State_Penalty>  (454) 
1.64583

>  <r_epik_Charging_Adjusted_Penalty>  (454) 
3.1974

>  <i_epik_Tot_Q>  (454) 
1

>  <i_epik_Tot_abs_Q>  (454) 
1

>  <s_lp_Force_Field>  (454) 
OPLS3e

>  <r_lp_Energy>  (454) 
31.5998

>  <b_lp_Chiralities_Consistent>  (454) 
1

>  <s_lp_Variant>  (454) 
109:0-2

>  <s_i_glide_gridfile>  (454) 
pfpi4k_grid

>  <i_i_glide_lignum>  (454) 
22

>  <i_i_glide_rotatable_bonds>  (454) 
4

>  <r_i_docking_score>  (454) 
-4.63345

>  <r_i_glide_ligand_efficiency>  (454) 
-0.210611

>  <r_i_glide_ligand_efficiency_sa>  (454) 
-0.590141

>  <r_i_glide_ligand_efficiency_ln>  (454) 
-1.13258

>  <r_i_glide_gscore>  (454) 
-4.63345

>  <r_i_glide_lipo>  (454) 
-0.70408

>  <r_i_glide_hbond>  (454) 
-0.433825

>  <r_i_glide_metal>  (454) 
-0

>  <r_i_glide_rewards>  (454) 
-1.52502

>  <r_i_glide_evdw>  (454) 
-26.9309

>  <r_i_glide_ecoul>  (454) 
-9.01583

>  <r_i_glide_erotb>  (454) 
0.8596

>  <r_i_glide_esite>  (454) 
-0.131203

>  <r_i_glide_emodel>  (454) 
-46.1781

>  <r_i_glide_energy>  (454) 
-35.9468

>  <r_i_glide_einternal>  (454) 
4.01274

>  <r_i_glide_intrahb_reward>  (454) 
-0

>  <i_i_glide_confnum>  (454) 
6

>  <i_i_glide_posenum>  (454) 
18

>  <r_i_glide_eff_state_penalty>  (454) 
0

>  <ligand_id>  (454) 
109

>  <original_smiles>  (454) 
c1cncc(-c2cn(CCn3cnc4ccccc43)nn2)c1

>  <smiles>  (454) 
[H]c1nc([H])c(-c2nnn(C([H])([H])C([H])([H])n3c([H])[n+]([H])c4c([H])c([H])c([H])c([H])c43)c2[H])c([H])c1[H]

$$$$
109:1:2
     RDKit          3D

 37 40  0  0  1  0  0  0  0  0999 V2000
   -2.1720    3.2853    3.8657 C   0  0  0  0  0  0  0  0  0  0  0  0
   -2.5026    2.9433    5.1916 C   0  0  0  0  0  0  0  0  0  0  0  0
   -1.9115    1.9366    5.8664 N   0  0  0  0  0  0  0  0  0  0  0  0
   -0.9513    1.2275    5.2275 C   0  0  0  0  0  0  0  0  0  0  0  0
   -0.5397    1.4923    3.9037 C   0  0  0  0  0  0  0  0  0  0  0  0
    0.5267    0.7234    3.2681 C   0  0  0  0  0  0  0  0  0  0  0  0
    1.4068    1.0797    2.2838 C   0  0  0  0  0  0  0  0  0  0  0  0
    2.1950   -0.0341    2.1140 N   0  0  0  0  0  0  0  0  0  0  0  0
    3.2512   -0.2343    1.1290 C   0  0  0  0  0  0  0  0  0  0  0  0
    4.3424   -1.2555    1.5704 C   0  0  0  0  0  0  0  0  0  0  0  0
    5.2453   -1.7090    0.4957 N   0  0  0  0  0  0  0  0  0  0  0  0
    6.6083   -1.7441    0.5090 C   0  0  0  0  0  0  0  0  0  0  0  0
    7.0184   -2.3007   -0.6652 N   0  0  0  0  0  0  0  0  0  0  0  0
    5.8984   -2.6200   -1.4424 C   0  0  0  0  0  0  0  0  0  0  0  0
    5.8125   -3.1809   -2.7146 C   0  0  0  0  0  0  0  0  0  0  0  0
    4.5221   -3.3880   -3.2437 C   0  0  0  0  0  0  0  0  0  0  0  0
    3.3725   -3.0571   -2.5016 C   0  0  0  0  0  0  0  0  0  0  0  0
    3.4675   -2.5426   -1.1926 C   0  0  0  0  0  0  0  0  0  0  0  0
    4.7510   -2.2847   -0.6912 C   0  0  0  0  0  0  0  0  0  0  0  0
    1.7638   -1.0510    2.8966 N   0  0  0  0  0  0  0  0  0  0  0  0
    0.7924   -0.5993    3.6196 N   0  0  0  0  0  0  0  0  0  0  0  0
   -1.1673    2.5446    3.2164 C   0  0  0  0  0  0  0  0  0  0  0  0
   -2.6813    4.0842    3.3540 H   0  0  0  0  0  0  0  0  0  0  0  0
   -3.2768    3.4760    5.7176 H   0  0  0  0  0  0  0  0  0  0  0  0
   -0.4985    0.4389    5.8086 H   0  0  0  0  0  0  0  0  0  0  0  0
    1.5272    1.9834    1.7130 H   0  0  0  0  0  0  0  0  0  0  0  0
    2.7410   -0.5126    0.2093 H   0  0  0  0  0  0  0  0  0  0  0  0
    3.7237    0.7319    0.9304 H   0  0  0  0  0  0  0  0  0  0  0  0
    4.9646   -0.7635    2.3243 H   0  0  0  0  0  0  0  0  0  0  0  0
    3.9465   -2.1578    2.0422 H   0  0  0  0  0  0  0  0  0  0  0  0
    7.2453   -1.4126    1.3189 H   0  0  0  0  0  0  0  0  0  0  0  0
    6.6895   -3.4564   -3.2771 H   0  0  0  0  0  0  0  0  0  0  0  0
    4.4080   -3.8330   -4.2222 H   0  0  0  0  0  0  0  0  0  0  0  0
    2.3955   -3.2423   -2.9240 H   0  0  0  0  0  0  0  0  0  0  0  0
    2.5566   -2.3486   -0.6505 H   0  0  0  0  0  0  0  0  0  0  0  0
   -0.8900    2.7862    2.2000 H   0  0  0  0  0  0  0  0  0  0  0  0
    7.9894   -2.4874   -0.9010 H   0  0  0  0  0  0  0  0  0  0  0  0
  1 22  2  0
  1  2  1  0
  1 23  1  0
  2  3  2  0
  2 24  1  0
  3  4  1  0
  4  5  2  0
  4 25  1  0
  5  6  1  0
  5 22  1  0
  6 21  1  0
  6  7  2  0
  7  8  1  0
  7 26  1  0
  8  9  1  0
  8 20  1  0
  9 10  1  0
  9 27  1  0
  9 28  1  0
 10 11  1  0
 10 29  1  0
 10 30  1  0
 11 19  1  0
 11 12  1  0
 12 13  2  0
 12 31  1  0
 13 14  1  0
 13 37  1  0
 14 19  2  0
 14 15  1  0
 15 16  2  0
 15 32  1  0
 16 17  1  0
 16 33  1  0
 17 18  2  0
 17 34  1  0
 18 19  1  0
 18 35  1  0
 20 21  2  0
 22 36  1  0
M  CHG  1  13   1
M  END
>  <i_m_ct_stereo_status>  (455) 
1

>  <s_m_source_file>  (455) 
/var/tmp/pbs.5102103.sched01/tmpeh5ntauu/15412114_vq.sdf

>  <i_m_source_file_index>  (455) 
22

>  <i_lp_mmshare_version>  (455) 
48012

>  <i_f3d_flags>  (455) 
0

>  <s_epik_input>  (455) 
W2NIXTFbY0hdW2NIXW5bY0hdYzEtYzJbY0hdbihubjIpW0NIMl1bQ0gyXW4oW2NIXW4zKWMoYzM0KVtjSF1bY0hdW2NIXVtjSF00

>  <s_epik_cmdline>  (455) 
J2VwaWtfcHl0aG9uJywgJy1waHQnLCAnMi4wJywgJy1waCcsICc3LjAnLCAnLXRuJywgJzgnLCAnLW1hJywgJzIwMCcsICctaW1hZScsICc8aW5maWxlLm1hZT4nLCAnLW9tYWUnLCAnPG91dGZpbGUubWFlPic=

>  <r_lp_tautomer_probability>  (455) 
1

>  <r_epik_Ionization_Penalty>  (455) 
1.55196

>  <r_epik_Ionization_Penalty_Charging>  (455) 
1.55157

>  <r_epik_Ionization_Penalty_Neutral>  (455) 
0.000392695

>  <r_epik_State_Penalty>  (455) 
1.64583

>  <r_epik_Charging_Adjusted_Penalty>  (455) 
3.1974

>  <i_epik_Tot_Q>  (455) 
1

>  <i_epik_Tot_abs_Q>  (455) 
1

>  <s_lp_Force_Field>  (455) 
OPLS3e

>  <r_lp_Energy>  (455) 
31.5998

>  <b_lp_Chiralities_Consistent>  (455) 
1

>  <s_lp_Variant>  (455) 
109:0-2

>  <s_i_glide_gridfile>  (455) 
pfpi4k_grid

>  <i_i_glide_lignum>  (455) 
22

>  <i_i_glide_rotatable_bonds>  (455) 
4

>  <r_i_docking_score>  (455) 
-3.56259

>  <r_i_glide_ligand_efficiency>  (455) 
-0.161936

>  <r_i_glide_ligand_efficiency_sa>  (455) 
-0.453751

>  <r_i_glide_ligand_efficiency_ln>  (455) 
-0.870827

>  <r_i_glide_gscore>  (455) 
-3.56259

>  <r_i_glide_lipo>  (455) 
-0.401746

>  <r_i_glide_hbond>  (455) 
0

>  <r_i_glide_metal>  (455) 
-0

>  <r_i_glide_rewards>  (455) 
-1.54201

>  <r_i_glide_evdw>  (455) 
-29.545

>  <r_i_glide_ecoul>  (455) 
-5.89028

>  <r_i_glide_erotb>  (455) 
0.8596

>  <r_i_glide_esite>  (455) 
-0.117646

>  <r_i_glide_emodel>  (455) 
-42.7827

>  <r_i_glide_energy>  (455) 
-35.4352

>  <r_i_glide_einternal>  (455) 
2.86891

>  <r_i_glide_intrahb_reward>  (455) 
-0

>  <i_i_glide_confnum>  (455) 
2

>  <i_i_glide_posenum>  (455) 
6

>  <r_i_glide_eff_state_penalty>  (455) 
0

>  <ligand_id>  (455) 
109

>  <original_smiles>  (455) 
c1cncc(-c2cn(CCn3cnc4ccccc43)nn2)c1

>  <smiles>  (455) 
[H]c1nc([H])c(-c2nnn(C([H])([H])C([H])([H])n3c([H])[n+]([H])c4c([H])c([H])c([H])c([H])c43)c2[H])c([H])c1[H]

$$$$
110:0:0
     RDKit          3D

 51 55  0  0  1  0  0  0  0  0999 V2000
   -2.3854    2.6228    6.5703 C   0  0  0  0  0  0  0  0  0  0  0  0
   -1.4950    2.2125    5.3975 C   0  0  0  0  0  0  0  0  0  0  0  0
   -2.0434    2.6236    4.0228 C   0  0  0  0  0  0  0  0  0  0  0  0
   -1.1432    0.7956    5.4186 N   0  0  0  0  0  0  0  0  0  0  0  0
   -2.0426   -0.1656    5.7796 N   0  0  0  0  0  0  0  0  0  0  0  0
   -1.3867   -1.3212    5.6509 C   0  0  0  0  0  0  0  0  0  0  0  0
   -0.0538   -1.1373    5.1896 C   0  0  0  0  0  0  0  0  0  0  0  0
    0.0393    0.2059    5.0529 C   0  0  0  0  0  0  0  0  0  0  0  0
    1.2829    0.8655    4.5991 C   0  0  0  0  0  0  0  0  0  0  0  0
    1.4434    2.0859    4.5791 O   0  0  0  0  0  0  0  0  0  0  0  0
    2.2658    0.0375    4.2465 N   0  0  0  0  0  0  0  0  0  0  0  0
    2.1590   -1.4086    4.0032 C   0  0  0  0  0  0  0  0  0  0  0  0
    3.5394   -2.0051    4.3101 C   0  0  0  0  0  0  0  0  0  0  0  0
    4.6253   -1.4170    3.3917 C   0  0  0  0  0  0  0  0  0  0  0  0
    4.2714   -1.5948    1.9684 N   0  0  0  0  0  0  0  0  0  0  0  0
    5.1233   -2.2095    1.1049 C   0  0  0  0  0  0  0  0  0  0  0  0
    6.1619   -2.7640    1.4729 O   0  0  0  0  0  0  0  0  0  0  0  0
    4.8022   -2.2256   -0.3656 C   0  0  0  0  0  0  0  0  0  0  0  0
    4.4900   -1.0126   -1.0293 C   0  0  0  0  0  0  0  0  0  0  0  0
    4.2159   -1.1678   -2.3837 N   0  0  0  0  0  0  0  0  0  0  0  0
    3.8232   -0.2564   -3.3445 C   0  0  0  0  0  0  0  0  0  0  0  0
    3.6803   -0.9734   -4.4974 C   0  0  0  0  0  0  0  0  0  0  0  0
    3.9606   -2.3200   -4.2849 N   0  0  0  0  0  0  0  0  0  0  0  0
    4.2834   -2.4269   -2.9981 C   0  0  0  0  0  0  0  0  0  0  0  0
    4.6334   -3.5196   -2.2872 N   0  0  0  0  0  0  0  0  0  0  0  0
    4.8956   -3.4229   -0.9869 N   0  0  0  0  0  0  0  0  0  0  0  0
    2.9520   -1.0340    1.6101 C   0  0  0  0  0  0  0  0  0  0  0  0
    1.8466   -1.6073    2.5043 C   0  0  0  0  0  0  0  0  0  0  0  0
    1.0717   -2.0925    4.8959 C   0  0  0  0  0  0  0  0  0  0  0  0
   -2.4980    3.7099    6.6023 H   0  0  0  0  0  0  0  0  0  0  0  0
   -1.9260    2.3132    7.5118 H   0  0  0  0  0  0  0  0  0  0  0  0
   -3.3749    2.1708    6.5036 H   0  0  0  0  0  0  0  0  0  0  0  0
   -0.5833    2.7832    5.5612 H   0  0  0  0  0  0  0  0  0  0  0  0
   -2.1832    3.7041    3.9601 H   0  0  0  0  0  0  0  0  0  0  0  0
   -2.9984    2.1462    3.8109 H   0  0  0  0  0  0  0  0  0  0  0  0
   -1.3508    2.3459    3.2260 H   0  0  0  0  0  0  0  0  0  0  0  0
   -1.8968   -2.2434    5.9031 H   0  0  0  0  0  0  0  0  0  0  0  0
    3.1374    0.4739    3.9937 H   0  0  0  0  0  0  0  0  0  0  0  0
    3.7876   -1.7976    5.3525 H   0  0  0  0  0  0  0  0  0  0  0  0
    3.5016   -3.0883    4.2101 H   0  0  0  0  0  0  0  0  0  0  0  0
    4.7679   -0.3541    3.5926 H   0  0  0  0  0  0  0  0  0  0  0  0
    5.5724   -1.8799    3.6653 H   0  0  0  0  0  0  0  0  0  0  0  0
    4.4192   -0.0457   -0.5682 H   0  0  0  0  0  0  0  0  0  0  0  0
    3.6962    0.7943   -3.1236 H   0  0  0  0  0  0  0  0  0  0  0  0
    3.3988   -0.6152   -5.4735 H   0  0  0  0  0  0  0  0  0  0  0  0
    2.9964    0.0551    1.6728 H   0  0  0  0  0  0  0  0  0  0  0  0
    2.6221   -1.2715    0.5994 H   0  0  0  0  0  0  0  0  0  0  0  0
    1.7112   -2.6639    2.2777 H   0  0  0  0  0  0  0  0  0  0  0  0
    0.9039   -1.1234    2.2418 H   0  0  0  0  0  0  0  0  0  0  0  0
    1.5194   -2.3726    5.8477 H   0  0  0  0  0  0  0  0  0  0  0  0
    0.7153   -3.0238    4.4675 H   0  0  0  0  0  0  0  0  0  0  0  0
  1  2  1  0
  1 30  1  0
  1 31  1  0
  1 32  1  0
  2  3  1  0
  2  4  1  0
  2 33  1  0
  3 34  1  0
  3 35  1  0
  3 36  1  0
  4  8  1  0
  4  5  1  0
  5  6  2  0
  6  7  1  0
  6 37  1  0
  7 29  1  0
  7  8  2  0
  8  9  1  0
  9 10  2  0
  9 11  1  0
 11 12  1  0
 11 38  1  0
 12 28  1  0
 12 13  1  0
 12 29  1  0
 13 14  1  0
 13 39  1  0
 13 40  1  0
 14 15  1  0
 14 41  1  0
 14 42  1  0
 15 16  1  0
 15 27  1  0
 16 17  2  0
 16 18  1  0
 18 26  1  0
 18 19  2  0
 19 20  1  0
 19 43  1  0
 20 24  1  0
 20 21  1  0
 21 22  2  0
 21 44  1  0
 22 23  1  0
 22 45  1  0
 23 24  2  0
 24 25  1  0
 25 26  2  0
 27 28  1  0
 27 46  1  0
 27 47  1  0
 28 48  1  0
 28 49  1  0
 29 50  1  0
 29 51  1  0
M  END
>  <i_m_ct_stereo_status>  (456) 
1

>  <s_m_source_file>  (456) 
/var/tmp/pbs.5102103.sched01/tmp7htwmlud/1762k52hbh7.sdf

>  <i_m_source_file_index>  (456) 
1

>  <i_lp_mmshare_version>  (456) 
48012

>  <i_f3d_flags>  (456) 
0

>  <s_epik_input>  (456) 
W0NIM11bQ0hdKFtDSDNdKW4xbltjSF1jKFtDSDJdMiljMUMoPU8pW05IXUMyM1tDSDJdW0NIMl1OKFtDSDJdW0NIMl0zKUMoPU8pYyhbY0hdNClubmMobjQ1KW5bY0hdW2NIXTU=

>  <s_epik_cmdline>  (456) 
J2VwaWtfcHl0aG9uJywgJy1waHQnLCAnMi4wJywgJy1waCcsICc3LjAnLCAnLXRuJywgJzgnLCAnLW1hJywgJzIwMCcsICctaW1hZScsICc8aW5maWxlLm1hZT4nLCAnLW9tYWUnLCAnPG91dGZpbGUubWFlPic=

>  <r_lp_tautomer_probability>  (456) 
1

>  <r_epik_Ionization_Penalty>  (456) 
6.62338e-06

>  <r_epik_Ionization_Penalty_Charging>  (456) 
1.55995e-07

>  <r_epik_Ionization_Penalty_Neutral>  (456) 
6.46738e-06

>  <r_epik_State_Penalty>  (456) 
-0

>  <r_epik_Charging_Adjusted_Penalty>  (456) 
1.55995e-07

>  <i_epik_Tot_Q>  (456) 
0

>  <i_epik_Tot_abs_Q>  (456) 
0

>  <s_lp_Force_Field>  (456) 
OPLS3e

>  <r_lp_Energy>  (456) 
30.8008

>  <b_lp_Chiralities_Consistent>  (456) 
1

>  <s_lp_Variant>  (456) 
110:0-1

>  <s_i_glide_gridfile>  (456) 
pfpi4k_grid

>  <i_i_glide_lignum>  (456) 
1

>  <i_i_glide_rotatable_bonds>  (456) 
3

>  <r_i_docking_score>  (456) 
-4.299

>  <r_i_glide_ligand_efficiency>  (456) 
-0.148241

>  <r_i_glide_ligand_efficiency_sa>  (456) 
-0.455444

>  <r_i_glide_ligand_efficiency_ln>  (456) 
-0.984361

>  <r_i_glide_gscore>  (456) 
-4.299

>  <r_i_glide_lipo>  (456) 
-0.379389

>  <r_i_glide_hbond>  (456) 
-0.42521

>  <r_i_glide_metal>  (456) 
-0

>  <r_i_glide_rewards>  (456) 
-0.971473

>  <r_i_glide_evdw>  (456) 
-32.7884

>  <r_i_glide_ecoul>  (456) 
-7.17214

>  <r_i_glide_erotb>  (456) 
0.251258

>  <r_i_glide_esite>  (456) 
-0.0589434

>  <r_i_glide_emodel>  (456) 
-49.8136

>  <r_i_glide_energy>  (456) 
-39.9605

>  <r_i_glide_einternal>  (456) 
0.718856

>  <r_i_glide_intrahb_reward>  (456) 
-0

>  <i_i_glide_confnum>  (456) 
5

>  <i_i_glide_posenum>  (456) 
2

>  <r_i_glide_eff_state_penalty>  (456) 
0

>  <ligand_id>  (456) 
110

>  <original_smiles>  (456) 
CC(C)n1ncc2c1C(=O)NC1(CCN(C(=O)c3cn4ccnc4nn3)CC1)C2

>  <smiles>  (456) 
[H]c1nn(C([H])(C([H])([H])[H])C([H])([H])[H])c2c1C([H])([H])C1(N([H])C2=O)C([H])([H])C([H])([H])N(C(=O)c2nnc3nc([H])c([H])n3c2[H])C([H])([H])C1([H])[H]

$$$$
110:0:1
     RDKit          3D

 51 55  0  0  1  0  0  0  0  0999 V2000
   -1.8453    2.8638    3.3615 C   0  0  0  0  0  0  0  0  0  0  0  0
   -1.8917    2.5084    4.8764 C   0  0  0  0  0  0  0  0  0  0  0  0
   -1.1335    3.5167    5.7879 C   0  0  0  0  0  0  0  0  0  0  0  0
   -1.3972    1.1492    5.1010 N   0  0  0  0  0  0  0  0  0  0  0  0
   -2.1780    0.1826    5.6696 N   0  0  0  0  0  0  0  0  0  0  0  0
   -1.4031   -0.9033    5.6889 C   0  0  0  0  0  0  0  0  0  0  0  0
   -0.0976   -0.6528    5.1968 C   0  0  0  0  0  0  0  0  0  0  0  0
   -0.1419    0.6539    4.8284 C   0  0  0  0  0  0  0  0  0  0  0  0
    1.0417    1.3400    4.2655 C   0  0  0  0  0  0  0  0  0  0  0  0
    1.1540    2.5281    4.0128 O   0  0  0  0  0  0  0  0  0  0  0  0
    2.1008    0.5790    4.0489 N   0  0  0  0  0  0  0  0  0  0  0  0
    2.1377   -0.8685    4.0428 C   0  0  0  0  0  0  0  0  0  0  0  0
    3.5783   -1.2185    4.4142 C   0  0  0  0  0  0  0  0  0  0  0  0
    4.5891   -0.6577    3.3885 C   0  0  0  0  0  0  0  0  0  0  0  0
    4.2384   -1.0908    2.0129 N   0  0  0  0  0  0  0  0  0  0  0  0
    5.1412   -1.7664    1.2449 C   0  0  0  0  0  0  0  0  0  0  0  0
    6.2669   -2.0677    1.6517 O   0  0  0  0  0  0  0  0  0  0  0  0
    4.8203   -2.1084   -0.1938 C   0  0  0  0  0  0  0  0  0  0  0  0
    3.5437   -2.6224   -0.5461 C   0  0  0  0  0  0  0  0  0  0  0  0
    3.3613   -2.7605   -1.9175 N   0  0  0  0  0  0  0  0  0  0  0  0
    2.2122   -3.0543   -2.6181 C   0  0  0  0  0  0  0  0  0  0  0  0
    2.6210   -3.1687   -3.9107 C   0  0  0  0  0  0  0  0  0  0  0  0
    3.9949   -2.8694   -4.0372 N   0  0  0  0  0  0  0  0  0  0  0  0
    4.4291   -2.6032   -2.8063 C   0  0  0  0  0  0  0  0  0  0  0  0
    5.6395   -2.2574   -2.3557 N   0  0  0  0  0  0  0  0  0  0  0  0
    5.8385   -1.9587   -1.0781 N   0  0  0  0  0  0  0  0  0  0  0  0
    2.8810   -0.6529    1.6413 C   0  0  0  0  0  0  0  0  0  0  0  0
    1.8527   -1.3036    2.5735 C   0  0  0  0  0  0  0  0  0  0  0  0
    1.1321   -1.5093    5.0544 C   0  0  0  0  0  0  0  0  0  0  0  0
   -2.2482    3.8555    3.1729 H   0  0  0  0  0  0  0  0  0  0  0  0
   -2.3880    2.1271    2.7662 H   0  0  0  0  0  0  0  0  0  0  0  0
   -0.8583    2.8852    2.9198 H   0  0  0  0  0  0  0  0  0  0  0  0
   -2.9554    2.5435    5.1741 H   0  0  0  0  0  0  0  0  0  0  0  0
   -1.4851    4.5329    5.6337 H   0  0  0  0  0  0  0  0  0  0  0  0
   -0.0687    3.5740    5.6284 H   0  0  0  0  0  0  0  0  0  0  0  0
   -1.2213    3.2358    6.8389 H   0  0  0  0  0  0  0  0  0  0  0  0
   -1.7821   -1.8394    6.1054 H   0  0  0  0  0  0  0  0  0  0  0  0
    2.8980    1.0872    3.6992 H   0  0  0  0  0  0  0  0  0  0  0  0
    3.7885   -0.8083    5.4035 H   0  0  0  0  0  0  0  0  0  0  0  0
    3.6719   -2.3013    4.4878 H   0  0  0  0  0  0  0  0  0  0  0  0
    4.6015    0.4356    3.4182 H   0  0  0  0  0  0  0  0  0  0  0  0
    5.5940   -0.9544    3.7203 H   0  0  0  0  0  0  0  0  0  0  0  0
    2.6946   -2.8099    0.0899 H   0  0  0  0  0  0  0  0  0  0  0  0
    1.2604   -3.2065   -2.1316 H   0  0  0  0  0  0  0  0  0  0  0  0
    2.0180   -3.4541   -4.7662 H   0  0  0  0  0  0  0  0  0  0  0  0
    2.8203    0.4267    1.6054 H   0  0  0  0  0  0  0  0  0  0  0  0
    2.5791   -0.8372    0.6287 H   0  0  0  0  0  0  0  0  0  0  0  0
    1.8524   -2.3961    2.5158 H   0  0  0  0  0  0  0  0  0  0  0  0
    0.8533   -0.9913    2.2672 H   0  0  0  0  0  0  0  0  0  0  0  0
    1.6344   -1.5556    6.0269 H   0  0  0  0  0  0  0  0  0  0  0  0
    0.9001   -2.5420    4.7761 H   0  0  0  0  0  0  0  0  0  0  0  0
  1  2  1  0
  1 30  1  0
  1 31  1  0
  1 32  1  0
  2  3  1  0
  2  4  1  0
  2 33  1  0
  3 34  1  0
  3 35  1  0
  3 36  1  0
  4  8  1  0
  4  5  1  0
  5  6  2  0
  6  7  1  0
  6 37  1  0
  7 29  1  0
  7  8  2  0
  8  9  1  0
  9 10  2  0
  9 11  1  0
 11 12  1  0
 11 38  1  0
 12 28  1  0
 12 13  1  0
 12 29  1  0
 13 14  1  0
 13 39  1  0
 13 40  1  0
 14 15  1  0
 14 41  1  0
 14 42  1  0
 15 16  1  0
 15 27  1  0
 16 17  2  0
 16 18  1  0
 18 26  1  0
 18 19  2  0
 19 20  1  0
 19 43  1  0
 20 24  1  0
 20 21  1  0
 21 22  2  0
 21 44  1  0
 22 23  1  0
 22 45  1  0
 23 24  2  0
 24 25  1  0
 25 26  2  0
 27 28  1  0
 27 46  1  0
 27 47  1  0
 28 48  1  0
 28 49  1  0
 29 50  1  0
 29 51  1  0
M  END
>  <i_m_ct_stereo_status>  (457) 
1

>  <s_m_source_file>  (457) 
/var/tmp/pbs.5102103.sched01/tmp7htwmlud/1762k52hbh7.sdf

>  <i_m_source_file_index>  (457) 
1

>  <i_lp_mmshare_version>  (457) 
48012

>  <i_f3d_flags>  (457) 
0

>  <s_epik_input>  (457) 
W0NIM11bQ0hdKFtDSDNdKW4xbltjSF1jKFtDSDJdMiljMUMoPU8pW05IXUMyM1tDSDJdW0NIMl1OKFtDSDJdW0NIMl0zKUMoPU8pYyhbY0hdNClubmMobjQ1KW5bY0hdW2NIXTU=

>  <s_epik_cmdline>  (457) 
J2VwaWtfcHl0aG9uJywgJy1waHQnLCAnMi4wJywgJy1waCcsICc3LjAnLCAnLXRuJywgJzgnLCAnLW1hJywgJzIwMCcsICctaW1hZScsICc8aW5maWxlLm1hZT4nLCAnLW9tYWUnLCAnPG91dGZpbGUubWFlPic=

>  <r_lp_tautomer_probability>  (457) 
1

>  <r_epik_Ionization_Penalty>  (457) 
6.62338e-06

>  <r_epik_Ionization_Penalty_Charging>  (457) 
1.55995e-07

>  <r_epik_Ionization_Penalty_Neutral>  (457) 
6.46738e-06

>  <r_epik_State_Penalty>  (457) 
-0

>  <r_epik_Charging_Adjusted_Penalty>  (457) 
1.55995e-07

>  <i_epik_Tot_Q>  (457) 
0

>  <i_epik_Tot_abs_Q>  (457) 
0

>  <s_lp_Force_Field>  (457) 
OPLS3e

>  <r_lp_Energy>  (457) 
30.8008

>  <b_lp_Chiralities_Consistent>  (457) 
1

>  <s_lp_Variant>  (457) 
110:0-1

>  <s_i_glide_gridfile>  (457) 
pfpi4k_grid

>  <i_i_glide_lignum>  (457) 
1

>  <i_i_glide_rotatable_bonds>  (457) 
3

>  <r_i_docking_score>  (457) 
-3.94157

>  <r_i_glide_ligand_efficiency>  (457) 
-0.135916

>  <r_i_glide_ligand_efficiency_sa>  (457) 
-0.417578

>  <r_i_glide_ligand_efficiency_ln>  (457) 
-0.90252

>  <r_i_glide_gscore>  (457) 
-3.94157

>  <r_i_glide_lipo>  (457) 
-0.314863

>  <r_i_glide_hbond>  (457) 
-0.238406

>  <r_i_glide_metal>  (457) 
-0

>  <r_i_glide_rewards>  (457) 
-0.995912

>  <r_i_glide_evdw>  (457) 
-33.2383

>  <r_i_glide_ecoul>  (457) 
-5.79542

>  <r_i_glide_erotb>  (457) 
0.251258

>  <r_i_glide_esite>  (457) 
-0.11242

>  <r_i_glide_emodel>  (457) 
-43.2017

>  <r_i_glide_energy>  (457) 
-39.0338

>  <r_i_glide_einternal>  (457) 
4.90555

>  <r_i_glide_intrahb_reward>  (457) 
-0

>  <i_i_glide_confnum>  (457) 
5

>  <i_i_glide_posenum>  (457) 
1

>  <r_i_glide_eff_state_penalty>  (457) 
0

>  <ligand_id>  (457) 
110

>  <original_smiles>  (457) 
CC(C)n1ncc2c1C(=O)NC1(CCN(C(=O)c3cn4ccnc4nn3)CC1)C2

>  <smiles>  (457) 
[H]c1nn(C([H])(C([H])([H])[H])C([H])([H])[H])c2c1C([H])([H])C1(N([H])C2=O)C([H])([H])C([H])([H])N(C(=O)c2nnc3nc([H])c([H])n3c2[H])C([H])([H])C1([H])[H]

$$$$
110:0:2
     RDKit          3D

 51 55  0  0  1  0  0  0  0  0999 V2000
    0.0835   -9.3080    5.7629 C   0  0  0  0  0  0  0  0  0  0  0  0
    0.1191   -8.6521    4.3768 C   0  0  0  0  0  0  0  0  0  0  0  0
   -1.1563   -8.8280    3.5487 C   0  0  0  0  0  0  0  0  0  0  0  0
    1.3057   -9.0600    3.6327 N   0  0  0  0  0  0  0  0  0  0  0  0
    1.4357  -10.3285    3.1606 N   0  0  0  0  0  0  0  0  0  0  0  0
    2.6244  -10.3583    2.5534 C   0  0  0  0  0  0  0  0  0  0  0  0
    3.2901   -9.1068    2.6067 C   0  0  0  0  0  0  0  0  0  0  0  0
    2.4231   -8.3294    3.3110 C   0  0  0  0  0  0  0  0  0  0  0  0
    2.7264   -6.9260    3.6545 C   0  0  0  0  0  0  0  0  0  0  0  0
    2.0270   -6.2392    4.3943 O   0  0  0  0  0  0  0  0  0  0  0  0
    3.8501   -6.4417    3.1205 N   0  0  0  0  0  0  0  0  0  0  0  0
    4.6630   -7.0559    2.0539 C   0  0  0  0  0  0  0  0  0  0  0  0
    6.1051   -6.5698    2.2684 C   0  0  0  0  0  0  0  0  0  0  0  0
    6.1962   -5.0388    2.1530 C   0  0  0  0  0  0  0  0  0  0  0  0
    5.6420   -4.5680    0.8656 N   0  0  0  0  0  0  0  0  0  0  0  0
    6.3912   -3.7960    0.0380 C   0  0  0  0  0  0  0  0  0  0  0  0
    7.6177   -3.7047    0.1260 O   0  0  0  0  0  0  0  0  0  0  0  0
    5.6947   -2.9050   -0.9481 C   0  0  0  0  0  0  0  0  0  0  0  0
    4.9706   -3.4562   -2.0337 C   0  0  0  0  0  0  0  0  0  0  0  0
    4.3545   -2.4961   -2.8274 N   0  0  0  0  0  0  0  0  0  0  0  0
    3.5169   -2.6178   -3.9150 C   0  0  0  0  0  0  0  0  0  0  0  0
    3.2199   -1.3325   -4.2925 C   0  0  0  0  0  0  0  0  0  0  0  0
    3.8391   -0.4118   -3.4704 N   0  0  0  0  0  0  0  0  0  0  0  0
    4.5020   -1.1254   -2.5668 C   0  0  0  0  0  0  0  0  0  0  0  0
    5.2322   -0.7009   -1.5138 N   0  0  0  0  0  0  0  0  0  0  0  0
    5.8342   -1.5796   -0.7197 N   0  0  0  0  0  0  0  0  0  0  0  0
    4.2391   -4.9733    0.6395 C   0  0  0  0  0  0  0  0  0  0  0  0
    4.1405   -6.5087    0.7044 C   0  0  0  0  0  0  0  0  0  0  0  0
    4.6162   -8.6239    2.0864 C   0  0  0  0  0  0  0  0  0  0  0  0
   -0.7106   -8.8730    6.3696 H   0  0  0  0  0  0  0  0  0  0  0  0
    1.0201   -9.1338    6.2962 H   0  0  0  0  0  0  0  0  0  0  0  0
   -0.0798  -10.3872    5.7102 H   0  0  0  0  0  0  0  0  0  0  0  0
    0.1698   -7.5819    4.5572 H   0  0  0  0  0  0  0  0  0  0  0  0
   -2.0160   -8.4044    4.0755 H   0  0  0  0  0  0  0  0  0  0  0  0
   -1.3632   -9.8750    3.3228 H   0  0  0  0  0  0  0  0  0  0  0  0
   -1.0579   -8.3027    2.5981 H   0  0  0  0  0  0  0  0  0  0  0  0
    2.9589  -11.2849    2.0970 H   0  0  0  0  0  0  0  0  0  0  0  0
    4.0922   -5.4977    3.3810 H   0  0  0  0  0  0  0  0  0  0  0  0
    6.4331   -6.8823    3.2615 H   0  0  0  0  0  0  0  0  0  0  0  0
    6.7684   -7.0462    1.5501 H   0  0  0  0  0  0  0  0  0  0  0  0
    5.6484   -4.5562    2.9664 H   0  0  0  0  0  0  0  0  0  0  0  0
    7.2359   -4.7527    2.3163 H   0  0  0  0  0  0  0  0  0  0  0  0
    4.8418   -4.5011   -2.2538 H   0  0  0  0  0  0  0  0  0  0  0  0
    3.2047   -3.5927   -4.2721 H   0  0  0  0  0  0  0  0  0  0  0  0
    2.6006   -0.9925   -5.1024 H   0  0  0  0  0  0  0  0  0  0  0  0
    3.5996   -4.4872    1.3823 H   0  0  0  0  0  0  0  0  0  0  0  0
    3.8229   -4.7049   -0.3319 H   0  0  0  0  0  0  0  0  0  0  0  0
    4.6826   -6.9646   -0.1245 H   0  0  0  0  0  0  0  0  0  0  0  0
    3.0980   -6.7945    0.5633 H   0  0  0  0  0  0  0  0  0  0  0  0
    5.3807   -8.9938    2.7643 H   0  0  0  0  0  0  0  0  0  0  0  0
    4.8610   -9.0696    1.1276 H   0  0  0  0  0  0  0  0  0  0  0  0
  1  2  1  0
  1 30  1  0
  1 31  1  0
  1 32  1  0
  2  3  1  0
  2  4  1  0
  2 33  1  0
  3 34  1  0
  3 35  1  0
  3 36  1  0
  4  8  1  0
  4  5  1  0
  5  6  2  0
  6  7  1  0
  6 37  1  0
  7 29  1  0
  7  8  2  0
  8  9  1  0
  9 10  2  0
  9 11  1  0
 11 12  1  0
 11 38  1  0
 12 28  1  0
 12 13  1  0
 12 29  1  0
 13 14  1  0
 13 39  1  0
 13 40  1  0
 14 15  1  0
 14 41  1  0
 14 42  1  0
 15 16  1  0
 15 27  1  0
 16 17  2  0
 16 18  1  0
 18 26  1  0
 18 19  2  0
 19 20  1  0
 19 43  1  0
 20 24  1  0
 20 21  1  0
 21 22  2  0
 21 44  1  0
 22 23  1  0
 22 45  1  0
 23 24  2  0
 24 25  1  0
 25 26  2  0
 27 28  1  0
 27 46  1  0
 27 47  1  0
 28 48  1  0
 28 49  1  0
 29 50  1  0
 29 51  1  0
M  END
>  <i_m_ct_stereo_status>  (458) 
1

>  <s_m_source_file>  (458) 
/var/tmp/pbs.5102103.sched01/tmp7htwmlud/1762k52hbh7.sdf

>  <i_m_source_file_index>  (458) 
1

>  <i_lp_mmshare_version>  (458) 
48012

>  <i_f3d_flags>  (458) 
0

>  <s_epik_input>  (458) 
W0NIM11bQ0hdKFtDSDNdKW4xbltjSF1jKFtDSDJdMiljMUMoPU8pW05IXUMyM1tDSDJdW0NIMl1OKFtDSDJdW0NIMl0zKUMoPU8pYyhbY0hdNClubmMobjQ1KW5bY0hdW2NIXTU=

>  <s_epik_cmdline>  (458) 
J2VwaWtfcHl0aG9uJywgJy1waHQnLCAnMi4wJywgJy1waCcsICc3LjAnLCAnLXRuJywgJzgnLCAnLW1hJywgJzIwMCcsICctaW1hZScsICc8aW5maWxlLm1hZT4nLCAnLW9tYWUnLCAnPG91dGZpbGUubWFlPic=

>  <r_lp_tautomer_probability>  (458) 
1

>  <r_epik_Ionization_Penalty>  (458) 
6.62338e-06

>  <r_epik_Ionization_Penalty_Charging>  (458) 
1.55995e-07

>  <r_epik_Ionization_Penalty_Neutral>  (458) 
6.46738e-06

>  <r_epik_State_Penalty>  (458) 
-0

>  <r_epik_Charging_Adjusted_Penalty>  (458) 
1.55995e-07

>  <i_epik_Tot_Q>  (458) 
0

>  <i_epik_Tot_abs_Q>  (458) 
0

>  <s_lp_Force_Field>  (458) 
OPLS3e

>  <r_lp_Energy>  (458) 
30.8008

>  <b_lp_Chiralities_Consistent>  (458) 
1

>  <s_lp_Variant>  (458) 
110:0-1

>  <s_i_glide_gridfile>  (458) 
pfpi4k_grid

>  <i_i_glide_lignum>  (458) 
1

>  <i_i_glide_rotatable_bonds>  (458) 
3

>  <r_i_docking_score>  (458) 
-3.56468

>  <r_i_glide_ligand_efficiency>  (458) 
-0.12292

>  <r_i_glide_ligand_efficiency_sa>  (458) 
-0.377649

>  <r_i_glide_ligand_efficiency_ln>  (458) 
-0.816221

>  <r_i_glide_gscore>  (458) 
-3.56468

>  <r_i_glide_lipo>  (458) 
-0.440872

>  <r_i_glide_hbond>  (458) 
0

>  <r_i_glide_metal>  (458) 
-0

>  <r_i_glide_rewards>  (458) 
-1.09689

>  <r_i_glide_evdw>  (458) 
-33.9463

>  <r_i_glide_ecoul>  (458) 
-2.85856

>  <r_i_glide_erotb>  (458) 
0.251258

>  <r_i_glide_esite>  (458) 
-0.152077

>  <r_i_glide_emodel>  (458) 
-42.8518

>  <r_i_glide_energy>  (458) 
-36.8049

>  <r_i_glide_einternal>  (458) 
4.10535

>  <r_i_glide_intrahb_reward>  (458) 
-0

>  <i_i_glide_confnum>  (458) 
5

>  <i_i_glide_posenum>  (458) 
36

>  <r_i_glide_eff_state_penalty>  (458) 
0

>  <ligand_id>  (458) 
110

>  <original_smiles>  (458) 
CC(C)n1ncc2c1C(=O)NC1(CCN(C(=O)c3cn4ccnc4nn3)CC1)C2

>  <smiles>  (458) 
[H]c1nn(C([H])(C([H])([H])[H])C([H])([H])[H])c2c1C([H])([H])C1(N([H])C2=O)C([H])([H])C([H])([H])N(C(=O)c2nnc3nc([H])c([H])n3c2[H])C([H])([H])C1([H])[H]

$$$$
111:0:0
     RDKit          3D

 39 42  0  0  1  0  0  0  0  0999 V2000
    7.4180   -7.7491    1.8473 C   0  0  0  0  0  0  0  0  0  0  0  0
    6.2681   -6.8762    1.4488 C   0  0  0  0  0  0  0  0  0  0  0  0
    5.0326   -7.3337    1.5932 N   0  0  0  0  0  0  0  0  0  0  0  0
    4.1995   -6.3432    1.1814 N   0  0  0  0  0  0  0  0  0  0  0  0
    2.7961   -6.5407    1.2418 C   0  0  0  0  0  0  0  0  0  0  0  0
    1.8812   -5.8555    0.4890 C   0  0  0  0  0  0  0  0  0  0  0  0
    0.5885   -6.2597    0.8007 N   0  0  0  0  0  0  0  0  0  0  0  0
    0.7156   -7.2455    1.6940 C   0  0  0  0  0  0  0  0  0  0  0  0
   -0.2626   -7.9621    2.2754 N   0  0  0  0  0  0  0  0  0  0  0  0
    0.1040   -8.9079    3.1376 C   0  0  0  0  0  0  0  0  0  0  0  0
    1.4461   -9.1506    3.5129 C   0  0  0  0  0  0  0  0  0  0  0  0
    2.4404   -8.3958    2.9361 C   0  0  0  0  0  0  0  0  0  0  0  0
    2.0818   -7.4495    2.0164 N   0  0  0  0  0  0  0  0  0  0  0  0
    4.9296   -5.2404    0.7520 C   0  0  0  0  0  0  0  0  0  0  0  0
    6.2416   -5.5653    0.9022 C   0  0  0  0  0  0  0  0  0  0  0  0
    7.3379   -4.6337    0.5535 C   0  0  0  0  0  0  0  0  0  0  0  0
    8.5340   -4.8396    0.7282 O   0  0  0  0  0  0  0  0  0  0  0  0
    6.8645   -3.3333   -0.1181 C   0  0  0  0  0  0  0  0  0  0  0  0
    5.4867   -2.8152    0.3886 C   0  0  0  0  0  0  0  0  0  0  0  0
    5.5819   -2.3980    1.8774 C   0  0  0  0  0  0  0  0  0  0  0  0
    5.0891   -1.5892   -0.4545 C   0  0  0  0  0  0  0  0  0  0  0  0
    4.4141   -3.9256    0.2500 C   0  0  0  0  0  0  0  0  0  0  0  0
    8.3782   -7.3075    1.5839 H   0  0  0  0  0  0  0  0  0  0  0  0
    7.3522   -8.7188    1.3565 H   0  0  0  0  0  0  0  0  0  0  0  0
    7.4112   -7.9178    2.9232 H   0  0  0  0  0  0  0  0  0  0  0  0
    2.0476   -5.0913   -0.2502 H   0  0  0  0  0  0  0  0  0  0  0  0
   -0.6952   -9.5047    3.5775 H   0  0  0  0  0  0  0  0  0  0  0  0
    1.6935   -9.9255    4.2367 H   0  0  0  0  0  0  0  0  0  0  0  0
    3.4934   -8.5142    3.1730 H   0  0  0  0  0  0  0  0  0  0  0  0
    7.6329   -2.5735    0.0198 H   0  0  0  0  0  0  0  0  0  0  0  0
    6.8015   -3.5328   -1.1887 H   0  0  0  0  0  0  0  0  0  0  0  0
    4.6419   -1.9803    2.2429 H   0  0  0  0  0  0  0  0  0  0  0  0
    6.3680   -1.6602    2.0428 H   0  0  0  0  0  0  0  0  0  0  0  0
    5.8071   -3.2504    2.5191 H   0  0  0  0  0  0  0  0  0  0  0  0
    4.1197   -1.1879   -0.1526 H   0  0  0  0  0  0  0  0  0  0  0  0
    5.0173   -1.8499   -1.5109 H   0  0  0  0  0  0  0  0  0  0  0  0
    5.8226   -0.7864   -0.3615 H   0  0  0  0  0  0  0  0  0  0  0  0
    4.1413   -4.0357   -0.8003 H   0  0  0  0  0  0  0  0  0  0  0  0
    3.5109   -3.6311    0.7781 H   0  0  0  0  0  0  0  0  0  0  0  0
  1  2  1  0
  1 23  1  0
  1 24  1  0
  1 25  1  0
  2 15  1  0
  2  3  2  0
  3  4  1  0
  4  5  1  0
  4 14  1  0
  5 13  1  0
  5  6  2  0
  6  7  1  0
  6 26  1  0
  7  8  2  0
  8 13  1  0
  8  9  1  0
  9 10  2  0
 10 11  1  0
 10 27  1  0
 11 12  2  0
 11 28  1  0
 12 13  1  0
 12 29  1  0
 14 22  1  0
 14 15  2  0
 15 16  1  0
 16 17  2  0
 16 18  1  0
 18 19  1  0
 18 30  1  0
 18 31  1  0
 19 20  1  0
 19 21  1  0
 19 22  1  0
 20 32  1  0
 20 33  1  0
 20 34  1  0
 21 35  1  0
 21 36  1  0
 21 37  1  0
 22 38  1  0
 22 39  1  0
M  END
>  <i_m_ct_stereo_status>  (459) 
1

>  <s_m_source_file>  (459) 
/var/tmp/pbs.5102103.sched01/tmp7htwmlud/1762k52hbh7.sdf

>  <i_m_source_file_index>  (459) 
2

>  <i_lp_mmshare_version>  (459) 
48012

>  <i_f3d_flags>  (459) 
0

>  <s_epik_input>  (459) 
W0NIM11DKFtDSDNdKShbQ0gyXTEpW0NIMl1DKD1PKWMoYzEyKWMoW0NIM10pbm4yLWMoW2NIXW4zKW4oYzM0KVtjSF1bY0hdW2NIXW40

>  <s_epik_cmdline>  (459) 
J2VwaWtfcHl0aG9uJywgJy1waHQnLCAnMi4wJywgJy1waCcsICc3LjAnLCAnLXRuJywgJzgnLCAnLW1hJywgJzIwMCcsICctaW1hZScsICc8aW5maWxlLm1hZT4nLCAnLW9tYWUnLCAnPG91dGZpbGUubWFlPic=

>  <r_lp_tautomer_probability>  (459) 
1

>  <r_epik_Ionization_Penalty>  (459) 
7.67474e-06

>  <r_epik_Ionization_Penalty_Charging>  (459) 
5.17221e-06

>  <r_epik_Ionization_Penalty_Neutral>  (459) 
2.50253e-06

>  <r_epik_State_Penalty>  (459) 
-0

>  <r_epik_Charging_Adjusted_Penalty>  (459) 
5.17221e-06

>  <i_epik_Tot_Q>  (459) 
0

>  <i_epik_Tot_abs_Q>  (459) 
0

>  <s_lp_Force_Field>  (459) 
OPLS3e

>  <r_lp_Energy>  (459) 
22.8069

>  <b_lp_Chiralities_Consistent>  (459) 
1

>  <s_lp_Variant>  (459) 
111:0-1

>  <s_i_glide_gridfile>  (459) 
pfpi4k_grid

>  <i_i_glide_lignum>  (459) 
2

>  <i_i_glide_rotatable_bonds>  (459) 
1

>  <r_i_docking_score>  (459) 
-4.55204

>  <r_i_glide_ligand_efficiency>  (459) 
-0.206911

>  <r_i_glide_ligand_efficiency_sa>  (459) 
-0.579773

>  <r_i_glide_ligand_efficiency_ln>  (459) 
-1.11269

>  <r_i_glide_gscore>  (459) 
-4.55204

>  <r_i_glide_lipo>  (459) 
-0.520631

>  <r_i_glide_hbond>  (459) 
-0.16

>  <r_i_glide_metal>  (459) 
-0

>  <r_i_glide_rewards>  (459) 
-1.70147

>  <r_i_glide_evdw>  (459) 
-24.6062

>  <r_i_glide_ecoul>  (459) 
-7.13062

>  <r_i_glide_erotb>  (459) 
0.209834

>  <r_i_glide_esite>  (459) 
-0.0798794

>  <r_i_glide_emodel>  (459) 
-41.3873

>  <r_i_glide_energy>  (459) 
-31.7368

>  <r_i_glide_einternal>  (459) 
0.00596929

>  <r_i_glide_intrahb_reward>  (459) 
-0

>  <i_i_glide_confnum>  (459) 
1

>  <i_i_glide_posenum>  (459) 
29

>  <r_i_glide_eff_state_penalty>  (459) 
0

>  <ligand_id>  (459) 
111

>  <original_smiles>  (459) 
Cc1nn(-c2cnc3ncccn23)c2c1C(=O)CC(C)(C)C2

>  <smiles>  (459) 
[H]c1nc2nc([H])c(-n3nc(C([H])([H])[H])c4c3C([H])([H])C(C([H])([H])[H])(C([H])([H])[H])C([H])([H])C4=O)n2c([H])c1[H]

$$$$
111:0:1
     RDKit          3D

 39 42  0  0  1  0  0  0  0  0999 V2000
    6.4430   -8.6030    3.8308 C   0  0  0  0  0  0  0  0  0  0  0  0
    5.5847   -7.7654    2.9265 C   0  0  0  0  0  0  0  0  0  0  0  0
    4.2770   -7.9725    2.8893 N   0  0  0  0  0  0  0  0  0  0  0  0
    3.7506   -7.0816    2.0043 N   0  0  0  0  0  0  0  0  0  0  0  0
    2.3452   -7.0717    1.7638 C   0  0  0  0  0  0  0  0  0  0  0  0
    1.6896   -6.2744    0.8648 C   0  0  0  0  0  0  0  0  0  0  0  0
    0.3213   -6.4949    0.8992 N   0  0  0  0  0  0  0  0  0  0  0  0
    0.1338   -7.4725    1.7760 C   0  0  0  0  0  0  0  0  0  0  0  0
   -1.0346   -8.0325    2.1283 N   0  0  0  0  0  0  0  0  0  0  0  0
   -0.9915   -9.0175    3.0140 C   0  0  0  0  0  0  0  0  0  0  0  0
    0.1929   -9.4575    3.6480 C   0  0  0  0  0  0  0  0  0  0  0  0
    1.3833   -8.8597    3.3045 C   0  0  0  0  0  0  0  0  0  0  0  0
    1.3638   -7.8702    2.3654 N   0  0  0  0  0  0  0  0  0  0  0  0
    4.7592   -6.2758    1.4874 C   0  0  0  0  0  0  0  0  0  0  0  0
    5.9249   -6.7097    2.0397 C   0  0  0  0  0  0  0  0  0  0  0  0
    7.2286   -6.0801    1.7442 C   0  0  0  0  0  0  0  0  0  0  0  0
    8.2894   -6.3499    2.2875 O   0  0  0  0  0  0  0  0  0  0  0  0
    7.1712   -5.0106    0.6403 C   0  0  0  0  0  0  0  0  0  0  0  0
    5.8530   -4.1895    0.6160 C   0  0  0  0  0  0  0  0  0  0  0  0
    5.7187   -3.3361    1.9056 C   0  0  0  0  0  0  0  0  0  0  0  0
    5.8646   -3.2573   -0.6097 C   0  0  0  0  0  0  0  0  0  0  0  0
    4.6360   -5.1304    0.5327 C   0  0  0  0  0  0  0  0  0  0  0  0
    7.5036   -8.3898    3.7022 H   0  0  0  0  0  0  0  0  0  0  0  0
    6.2914   -9.6639    3.6352 H   0  0  0  0  0  0  0  0  0  0  0  0
    6.1912   -8.4167    4.8731 H   0  0  0  0  0  0  0  0  0  0  0  0
    2.0590   -5.5480    0.1602 H   0  0  0  0  0  0  0  0  0  0  0  0
   -1.9440   -9.4830    3.2610 H   0  0  0  0  0  0  0  0  0  0  0  0
    0.1547  -10.2620    4.3829 H   0  0  0  0  0  0  0  0  0  0  0  0
    2.3268   -9.1516    3.7606 H   0  0  0  0  0  0  0  0  0  0  0  0
    8.0306   -4.3465    0.7360 H   0  0  0  0  0  0  0  0  0  0  0  0
    7.2642   -5.5377   -0.3059 H   0  0  0  0  0  0  0  0  0  0  0  0
    4.8202   -2.7118    1.8908 H   0  0  0  0  0  0  0  0  0  0  0  0
    6.5813   -2.6835    2.0487 H   0  0  0  0  0  0  0  0  0  0  0  0
    5.6379   -3.9642    2.7963 H   0  0  0  0  0  0  0  0  0  0  0  0
    4.9502   -2.6640   -0.6721 H   0  0  0  0  0  0  0  0  0  0  0  0
    5.9444   -3.8316   -1.5322 H   0  0  0  0  0  0  0  0  0  0  0  0
    6.7106   -2.5705   -0.5723 H   0  0  0  0  0  0  0  0  0  0  0  0
    4.5315   -5.5288   -0.4767 H   0  0  0  0  0  0  0  0  0  0  0  0
    3.7760   -4.5102    0.7520 H   0  0  0  0  0  0  0  0  0  0  0  0
  1  2  1  0
  1 23  1  0
  1 24  1  0
  1 25  1  0
  2 15  1  0
  2  3  2  0
  3  4  1  0
  4  5  1  0
  4 14  1  0
  5 13  1  0
  5  6  2  0
  6  7  1  0
  6 26  1  0
  7  8  2  0
  8 13  1  0
  8  9  1  0
  9 10  2  0
 10 11  1  0
 10 27  1  0
 11 12  2  0
 11 28  1  0
 12 13  1  0
 12 29  1  0
 14 22  1  0
 14 15  2  0
 15 16  1  0
 16 17  2  0
 16 18  1  0
 18 19  1  0
 18 30  1  0
 18 31  1  0
 19 20  1  0
 19 21  1  0
 19 22  1  0
 20 32  1  0
 20 33  1  0
 20 34  1  0
 21 35  1  0
 21 36  1  0
 21 37  1  0
 22 38  1  0
 22 39  1  0
M  END
>  <i_m_ct_stereo_status>  (460) 
1

>  <s_m_source_file>  (460) 
/var/tmp/pbs.5102103.sched01/tmp7htwmlud/1762k52hbh7.sdf

>  <i_m_source_file_index>  (460) 
2

>  <i_lp_mmshare_version>  (460) 
48012

>  <i_f3d_flags>  (460) 
0

>  <s_epik_input>  (460) 
W0NIM11DKFtDSDNdKShbQ0gyXTEpW0NIMl1DKD1PKWMoYzEyKWMoW0NIM10pbm4yLWMoW2NIXW4zKW4oYzM0KVtjSF1bY0hdW2NIXW40

>  <s_epik_cmdline>  (460) 
J2VwaWtfcHl0aG9uJywgJy1waHQnLCAnMi4wJywgJy1waCcsICc3LjAnLCAnLXRuJywgJzgnLCAnLW1hJywgJzIwMCcsICctaW1hZScsICc8aW5maWxlLm1hZT4nLCAnLW9tYWUnLCAnPG91dGZpbGUubWFlPic=

>  <r_lp_tautomer_probability>  (460) 
1

>  <r_epik_Ionization_Penalty>  (460) 
7.67474e-06

>  <r_epik_Ionization_Penalty_Charging>  (460) 
5.17221e-06

>  <r_epik_Ionization_Penalty_Neutral>  (460) 
2.50253e-06

>  <r_epik_State_Penalty>  (460) 
-0

>  <r_epik_Charging_Adjusted_Penalty>  (460) 
5.17221e-06

>  <i_epik_Tot_Q>  (460) 
0

>  <i_epik_Tot_abs_Q>  (460) 
0

>  <s_lp_Force_Field>  (460) 
OPLS3e

>  <r_lp_Energy>  (460) 
22.8069

>  <b_lp_Chiralities_Consistent>  (460) 
1

>  <s_lp_Variant>  (460) 
111:0-1

>  <s_i_glide_gridfile>  (460) 
pfpi4k_grid

>  <i_i_glide_lignum>  (460) 
2

>  <i_i_glide_rotatable_bonds>  (460) 
1

>  <r_i_docking_score>  (460) 
-3.99455

>  <r_i_glide_ligand_efficiency>  (460) 
-0.18157

>  <r_i_glide_ligand_efficiency_sa>  (460) 
-0.508767

>  <r_i_glide_ligand_efficiency_ln>  (460) 
-0.976413

>  <r_i_glide_gscore>  (460) 
-3.99455

>  <r_i_glide_lipo>  (460) 
-0.487124

>  <r_i_glide_hbond>  (460) 
-0.16

>  <r_i_glide_metal>  (460) 
-0

>  <r_i_glide_rewards>  (460) 
-1.50902

>  <r_i_glide_evdw>  (460) 
-22.8932

>  <r_i_glide_ecoul>  (460) 
-5.26696

>  <r_i_glide_erotb>  (460) 
0.209834

>  <r_i_glide_esite>  (460) 
-0.113531

>  <r_i_glide_emodel>  (460) 
-36.2373

>  <r_i_glide_energy>  (460) 
-28.1602

>  <r_i_glide_einternal>  (460) 
0.369168

>  <r_i_glide_intrahb_reward>  (460) 
-0

>  <i_i_glide_confnum>  (460) 
5

>  <i_i_glide_posenum>  (460) 
39

>  <r_i_glide_eff_state_penalty>  (460) 
0

>  <ligand_id>  (460) 
111

>  <original_smiles>  (460) 
Cc1nn(-c2cnc3ncccn23)c2c1C(=O)CC(C)(C)C2

>  <smiles>  (460) 
[H]c1nc2nc([H])c(-n3nc(C([H])([H])[H])c4c3C([H])([H])C(C([H])([H])[H])(C([H])([H])[H])C([H])([H])C4=O)n2c([H])c1[H]

$$$$
111:0:2
     RDKit          3D

 39 42  0  0  1  0  0  0  0  0999 V2000
    5.8571  -10.7121    2.6895 C   0  0  0  0  0  0  0  0  0  0  0  0
    5.2143   -9.4040    2.3399 C   0  0  0  0  0  0  0  0  0  0  0  0
    3.8976   -9.3405    2.1931 N   0  0  0  0  0  0  0  0  0  0  0  0
    3.5968   -8.0437    1.9131 N   0  0  0  0  0  0  0  0  0  0  0  0
    2.2454   -7.6614    1.7159 C   0  0  0  0  0  0  0  0  0  0  0  0
    1.8169   -6.5689    1.0118 C   0  0  0  0  0  0  0  0  0  0  0  0
    0.4253   -6.4838    1.0307 N   0  0  0  0  0  0  0  0  0  0  0  0
    0.0045   -7.5275    1.7568 C   0  0  0  0  0  0  0  0  0  0  0  0
   -1.2533   -7.8514    2.0934 N   0  0  0  0  0  0  0  0  0  0  0  0
   -1.4281   -9.0111    2.7292 C   0  0  0  0  0  0  0  0  0  0  0  0
   -0.3570   -9.8110    3.1813 C   0  0  0  0  0  0  0  0  0  0  0  0
    0.9262   -9.4292    2.9279 C   0  0  0  0  0  0  0  0  0  0  0  0
    1.1111   -8.3004    2.1867 N   0  0  0  0  0  0  0  0  0  0  0  0
    4.7470   -7.2738    1.8945 C   0  0  0  0  0  0  0  0  0  0  0  0
    5.7836   -8.1163    2.1362 C   0  0  0  0  0  0  0  0  0  0  0  0
    7.1745   -7.6236    2.2396 C   0  0  0  0  0  0  0  0  0  0  0  0
    8.1273   -8.2570    2.6512 O   0  0  0  0  0  0  0  0  0  0  0  0
    7.3712   -6.1638    1.8254 C   0  0  0  0  0  0  0  0  0  0  0  0
    6.1854   -5.2582    2.2470 C   0  0  0  0  0  0  0  0  0  0  0  0
    6.0634   -5.2056    3.8002 C   0  0  0  0  0  0  0  0  0  0  0  0
    6.4435   -3.8577    1.6691 C   0  0  0  0  0  0  0  0  0  0  0  0
    4.8598   -5.8041    1.6816 C   0  0  0  0  0  0  0  0  0  0  0  0
    6.9446  -10.6423    2.6872 H   0  0  0  0  0  0  0  0  0  0  0  0
    5.5703  -11.4829    1.9788 H   0  0  0  0  0  0  0  0  0  0  0  0
    5.5365  -11.0448    3.6751 H   0  0  0  0  0  0  0  0  0  0  0  0
    2.4170   -5.8343    0.4888 H   0  0  0  0  0  0  0  0  0  0  0  0
   -2.4602   -9.3183    2.8897 H   0  0  0  0  0  0  0  0  0  0  0  0
   -0.5149  -10.7170    3.7521 H   0  0  0  0  0  0  0  0  0  0  0  0
    1.7860   -9.9859    3.2900 H   0  0  0  0  0  0  0  0  0  0  0  0
    8.3009   -5.8144    2.2780 H   0  0  0  0  0  0  0  0  0  0  0  0
    7.5090   -6.1341    0.7438 H   0  0  0  0  0  0  0  0  0  0  0  0
    5.3048   -4.4834    4.1220 H   0  0  0  0  0  0  0  0  0  0  0  0
    7.0021   -5.0390    4.3307 H   0  0  0  0  0  0  0  0  0  0  0  0
    5.7679   -6.1711    4.2034 H   0  0  0  0  0  0  0  0  0  0  0  0
    5.6635   -3.1426    1.9482 H   0  0  0  0  0  0  0  0  0  0  0  0
    6.5045   -3.8793    0.5753 H   0  0  0  0  0  0  0  0  0  0  0  0
    7.3939   -3.4801    2.0247 H   0  0  0  0  0  0  0  0  0  0  0  0
    4.8184   -5.6105    0.6121 H   0  0  0  0  0  0  0  0  0  0  0  0
    4.0250   -5.2864    2.1408 H   0  0  0  0  0  0  0  0  0  0  0  0
  1  2  1  0
  1 23  1  0
  1 24  1  0
  1 25  1  0
  2 15  1  0
  2  3  2  0
  3  4  1  0
  4  5  1  0
  4 14  1  0
  5 13  1  0
  5  6  2  0
  6  7  1  0
  6 26  1  0
  7  8  2  0
  8 13  1  0
  8  9  1  0
  9 10  2  0
 10 11  1  0
 10 27  1  0
 11 12  2  0
 11 28  1  0
 12 13  1  0
 12 29  1  0
 14 22  1  0
 14 15  2  0
 15 16  1  0
 16 17  2  0
 16 18  1  0
 18 19  1  0
 18 30  1  0
 18 31  1  0
 19 20  1  0
 19 21  1  0
 19 22  1  0
 20 32  1  0
 20 33  1  0
 20 34  1  0
 21 35  1  0
 21 36  1  0
 21 37  1  0
 22 38  1  0
 22 39  1  0
M  END
>  <i_m_ct_stereo_status>  (461) 
1

>  <s_m_source_file>  (461) 
/var/tmp/pbs.5102103.sched01/tmp7htwmlud/1762k52hbh7.sdf

>  <i_m_source_file_index>  (461) 
2

>  <i_lp_mmshare_version>  (461) 
48012

>  <i_f3d_flags>  (461) 
0

>  <s_epik_input>  (461) 
W0NIM11DKFtDSDNdKShbQ0gyXTEpW0NIMl1DKD1PKWMoYzEyKWMoW0NIM10pbm4yLWMoW2NIXW4zKW4oYzM0KVtjSF1bY0hdW2NIXW40

>  <s_epik_cmdline>  (461) 
J2VwaWtfcHl0aG9uJywgJy1waHQnLCAnMi4wJywgJy1waCcsICc3LjAnLCAnLXRuJywgJzgnLCAnLW1hJywgJzIwMCcsICctaW1hZScsICc8aW5maWxlLm1hZT4nLCAnLW9tYWUnLCAnPG91dGZpbGUubWFlPic=

>  <r_lp_tautomer_probability>  (461) 
1

>  <r_epik_Ionization_Penalty>  (461) 
7.67474e-06

>  <r_epik_Ionization_Penalty_Charging>  (461) 
5.17221e-06

>  <r_epik_Ionization_Penalty_Neutral>  (461) 
2.50253e-06

>  <r_epik_State_Penalty>  (461) 
-0

>  <r_epik_Charging_Adjusted_Penalty>  (461) 
5.17221e-06

>  <i_epik_Tot_Q>  (461) 
0

>  <i_epik_Tot_abs_Q>  (461) 
0

>  <s_lp_Force_Field>  (461) 
OPLS3e

>  <r_lp_Energy>  (461) 
22.8069

>  <b_lp_Chiralities_Consistent>  (461) 
1

>  <s_lp_Variant>  (461) 
111:0-1

>  <s_i_glide_gridfile>  (461) 
pfpi4k_grid

>  <i_i_glide_lignum>  (461) 
2

>  <i_i_glide_rotatable_bonds>  (461) 
1

>  <r_i_docking_score>  (461) 
-3.68544

>  <r_i_glide_ligand_efficiency>  (461) 
-0.16752

>  <r_i_glide_ligand_efficiency_sa>  (461) 
-0.469397

>  <r_i_glide_ligand_efficiency_ln>  (461) 
-0.900856

>  <r_i_glide_gscore>  (461) 
-3.68544

>  <r_i_glide_lipo>  (461) 
-0.293389

>  <r_i_glide_hbond>  (461) 
-0.16

>  <r_i_glide_metal>  (461) 
-0

>  <r_i_glide_rewards>  (461) 
-1.44607

>  <r_i_glide_evdw>  (461) 
-20.7764

>  <r_i_glide_ecoul>  (461) 
-5.48921

>  <r_i_glide_erotb>  (461) 
0.209834

>  <r_i_glide_esite>  (461) 
-0.133618

>  <r_i_glide_emodel>  (461) 
-33.7389

>  <r_i_glide_energy>  (461) 
-26.2656

>  <r_i_glide_einternal>  (461) 
0.00152077

>  <r_i_glide_intrahb_reward>  (461) 
-0

>  <i_i_glide_confnum>  (461) 
1

>  <i_i_glide_posenum>  (461) 
34

>  <r_i_glide_eff_state_penalty>  (461) 
0

>  <ligand_id>  (461) 
111

>  <original_smiles>  (461) 
Cc1nn(-c2cnc3ncccn23)c2c1C(=O)CC(C)(C)C2

>  <smiles>  (461) 
[H]c1nc2nc([H])c(-n3nc(C([H])([H])[H])c4c3C([H])([H])C(C([H])([H])[H])(C([H])([H])[H])C([H])([H])C4=O)n2c([H])c1[H]

$$$$
112:0:0
     RDKit          3D

 58 61  0  0  1  0  0  0  0  0999 V2000
    2.7240   -3.4461   -1.5873 C   0  0  0  0  0  0  0  0  0  0  0  0
    3.2056   -3.8240   -0.1932 C   0  0  0  0  0  0  0  0  0  0  0  0
    2.4927   -4.5335    0.5190 O   0  0  0  0  0  0  0  0  0  0  0  0
    4.5800   -3.2978    0.3231 C   0  0  1  0  0  0  0  0  0  0  0  0
    5.3640   -2.8622   -0.7846 O   0  0  0  0  0  0  0  0  0  0  0  0
    4.3800   -2.1333    1.3235 C   0  0  1  0  0  0  0  0  0  0  0  0
    3.3432   -1.0527    0.9507 C   0  0  0  0  0  0  0  0  0  0  0  0
    4.0842   -2.8261    2.6609 C   0  0  0  0  0  0  0  0  0  0  0  0
    4.7679   -4.2169    2.6446 C   0  0  1  0  0  0  0  0  0  0  0  0
    5.7744   -4.2493    3.7013 O   0  0  0  0  0  0  0  0  0  0  0  0
    4.8460   -4.9247    4.5680 C   0  0  0  0  0  0  0  0  0  0  0  0
    4.0102   -5.3517    3.3689 C   0  0  2  0  0  0  0  0  0  0  0  0
    4.2111   -6.8020    2.9625 C   0  0  1  0  0  0  0  0  0  0  0  0
    3.5566   -7.6372    3.8733 O   0  0  0  0  0  0  0  0  0  0  0  0
    2.2171   -7.9608    3.5565 C   0  0  2  0  0  0  0  0  0  0  0  0
    1.3844   -6.8221    3.5668 O   0  0  0  0  0  0  0  0  0  0  0  0
    0.0377   -7.0333    3.1628 C   0  0  1  0  0  0  0  0  0  0  0  0
   -0.0279   -7.3856    1.6545 C   0  0  0  0  0  0  0  0  0  0  0  0
    0.3784   -6.2948    0.8525 O   0  0  0  0  0  0  0  0  0  0  0  0
   -0.5973   -8.0449    4.1170 C   0  0  1  0  0  0  0  0  0  0  0  0
   -1.9445   -8.2773    3.7513 O   0  0  0  0  0  0  0  0  0  0  0  0
    0.2014   -9.3556    4.1938 C   0  0  1  0  0  0  0  0  0  0  0  0
    0.0796  -10.0540    2.9520 O   0  0  0  0  0  0  0  0  0  0  0  0
    1.6781   -9.0428    4.5130 C   0  0  1  0  0  0  0  0  0  0  0  0
    2.4734  -10.2167    4.3835 O   0  0  0  0  0  0  0  0  0  0  0  0
    3.7432   -6.9840    1.6724 O   0  0  0  0  0  0  0  0  0  0  0  0
    4.6497   -6.8046    0.6723 C   0  0  0  0  0  0  0  0  0  0  0  0
    5.4060   -5.7167    0.4969 C   0  0  0  0  0  0  0  0  0  0  0  0
    5.3570   -4.3495    1.1956 C   0  0  1  0  0  0  0  0  0  0  0  0
    6.6951   -3.9029    1.2836 O   0  0  0  0  0  0  0  0  0  0  0  0
    3.4080   -3.8113   -2.3526 H   0  0  0  0  0  0  0  0  0  0  0  0
    2.6302   -2.3641   -1.6733 H   0  0  0  0  0  0  0  0  0  0  0  0
    1.7437   -3.8861   -1.7753 H   0  0  0  0  0  0  0  0  0  0  0  0
    5.4323   -3.5848   -1.3868 H   0  0  0  0  0  0  0  0  0  0  0  0
    5.3413   -1.6311    1.4354 H   0  0  0  0  0  0  0  0  0  0  0  0
    2.3219   -1.4437    0.9043 H   0  0  0  0  0  0  0  0  0  0  0  0
    3.5767   -0.6229   -0.0252 H   0  0  0  0  0  0  0  0  0  0  0  0
    3.3445   -0.2428    1.6821 H   0  0  0  0  0  0  0  0  0  0  0  0
    4.4286   -2.2267    3.4953 H   0  0  0  0  0  0  0  0  0  0  0  0
    3.0001   -2.9324    2.7852 H   0  0  0  0  0  0  0  0  0  0  0  0
    5.3173   -5.7566    5.0955 H   0  0  0  0  0  0  0  0  0  0  0  0
    4.3288   -4.2402    5.2475 H   0  0  0  0  0  0  0  0  0  0  0  0
    2.9648   -5.0869    3.5118 H   0  0  0  0  0  0  0  0  0  0  0  0
    5.2733   -7.0652    3.0093 H   0  0  0  0  0  0  0  0  0  0  0  0
    2.2175   -8.3750    2.5432 H   0  0  0  0  0  0  0  0  0  0  0  0
   -0.4815   -6.0912    3.3148 H   0  0  0  0  0  0  0  0  0  0  0  0
    0.5641   -8.2596    1.3903 H   0  0  0  0  0  0  0  0  0  0  0  0
   -1.0460   -7.6299    1.3546 H   0  0  0  0  0  0  0  0  0  0  0  0
    1.3564   -6.2285    0.8856 H   0  0  0  0  0  0  0  0  0  0  0  0
   -0.6141   -7.6090    5.1125 H   0  0  0  0  0  0  0  0  0  0  0  0
   -1.9403   -8.9379    3.0366 H   0  0  0  0  0  0  0  0  0  0  0  0
   -0.1898   -9.9843    4.9914 H   0  0  0  0  0  0  0  0  0  0  0  0
    0.6100  -10.8590    2.9956 H   0  0  0  0  0  0  0  0  0  0  0  0
    1.7490   -8.6800    5.5352 H   0  0  0  0  0  0  0  0  0  0  0  0
    2.2023  -10.8762    5.0417 H   0  0  0  0  0  0  0  0  0  0  0  0
    4.7296   -7.6934    0.0665 H   0  0  0  0  0  0  0  0  0  0  0  0
    6.1189   -5.7484   -0.3101 H   0  0  0  0  0  0  0  0  0  0  0  0
    7.0449   -3.8388    0.4138 H   0  0  0  0  0  0  0  0  0  0  0  0
  1  2  1  0
  1 31  1  0
  1 32  1  0
  1 33  1  0
  2  3  2  0
  2  4  1  0
  4 29  1  0
  4  5  1  6
  4  6  1  0
  5 34  1  0
  6  7  1  0
  6  8  1  0
  6 35  1  1
  7 36  1  0
  7 37  1  0
  7 38  1  0
  8  9  1  0
  8 39  1  0
  8 40  1  0
  9 12  1  0
  9 29  1  0
  9 10  1  1
 10 11  1  0
 11 12  1  0
 11 41  1  0
 11 42  1  0
 12 13  1  0
 12 43  1  1
 13 14  1  0
 13 26  1  0
 13 44  1  6
 14 15  1  0
 15 24  1  0
 15 16  1  0
 15 45  1  6
 16 17  1  0
 17 18  1  0
 17 20  1  0
 17 46  1  6
 18 19  1  0
 18 47  1  0
 18 48  1  0
 19 49  1  0
 20 21  1  0
 20 22  1  0
 20 50  1  1
 21 51  1  0
 22 23  1  0
 22 24  1  0
 22 52  1  1
 23 53  1  0
 24 25  1  0
 24 54  1  1
 25 55  1  0
 26 27  1  0
 27 28  2  0
 27 56  1  0
 28 29  1  0
 28 57  1  0
 29 30  1  1
 30 58  1  0
M  END
>  <i_m_ct_stereo_status>  (462) 
1

>  <s_m_source_file>  (462) 
/var/tmp/pbs.5102103.sched01/tmp7htwmlud/1762k52hbh7.sdf

>  <i_m_source_file_index>  (462) 
3

>  <i_lp_mmshare_version>  (462) 
48012

>  <i_f3d_flags>  (462) 
0

>  <s_epik_input>  (462) 
W0NIM11DKD1PKVtDQEBdKFtPSF0pKFtDQEBIXShbQ0gzXSlbQ0gyXTEpW0NAXTIoW09IXSlbQ0hdPVtDSF1PW0NAQEhdKFtDQEhdKFtDQF0xMjMpW0NIMl1PMylPW0NAQEhdNE9bQ0BASF0oW0NIMl1bT0hdKVtDQEBIXShbT0hdKVtDQEBIXShbT0hdKVtDQEhdNFtPSF0=

>  <s_epik_cmdline>  (462) 
J2VwaWtfcHl0aG9uJywgJy1waHQnLCAnMi4wJywgJy1waCcsICc3LjAnLCAnLXRuJywgJzgnLCAnLW1hJywgJzIwMCcsICctaW1hZScsICc8aW5maWxlLm1hZT4nLCAnLW9tYWUnLCAnPG91dGZpbGUubWFlPic=

>  <r_lp_tautomer_probability>  (462) 
1

>  <r_epik_Ionization_Penalty>  (462) 
6.86378e-06

>  <r_epik_Ionization_Penalty_Charging>  (462) 
0

>  <r_epik_Ionization_Penalty_Neutral>  (462) 
6.86378e-06

>  <r_epik_State_Penalty>  (462) 
-0

>  <r_epik_Charging_Adjusted_Penalty>  (462) 
0

>  <i_epik_Tot_Q>  (462) 
0

>  <i_epik_Tot_abs_Q>  (462) 
0

>  <s_epik_Chemistry_Notes>  (462) 
This compound contains an acetal/aminal-like group ( X-CH(R)-Y where X, Y are N, S, or O) that may be acid/base labile, releasing an aldehyde.

>  <s_lp_Force_Field>  (462) 
OPLS3e

>  <r_lp_Energy>  (462) 
44.5936

>  <b_lp_Chiralities_Consistent>  (462) 
1

>  <s_lp_Variant>  (462) 
112:0-1

>  <s_i_glide_gridfile>  (462) 
pfpi4k_grid

>  <i_i_glide_lignum>  (462) 
3

>  <i_i_glide_rotatable_bonds>  (462) 
10

>  <r_i_docking_score>  (462) 
-3.53384

>  <r_i_glide_ligand_efficiency>  (462) 
-0.117795

>  <r_i_glide_ligand_efficiency_sa>  (462) 
-0.366016

>  <r_i_glide_ligand_efficiency_ln>  (462) 
-0.802927

>  <r_i_glide_gscore>  (462) 
-3.53384

>  <r_i_glide_lipo>  (462) 
-0.4443

>  <r_i_glide_hbond>  (462) 
0

>  <r_i_glide_metal>  (462) 
-0

>  <r_i_glide_rewards>  (462) 
-0.960779

>  <r_i_glide_evdw>  (462) 
-23.6117

>  <r_i_glide_ecoul>  (462) 
-8.35509

>  <r_i_glide_erotb>  (462) 
0.319249

>  <r_i_glide_esite>  (462) 
-0.0141611

>  <r_i_glide_emodel>  (462) 
-40.6584

>  <r_i_glide_energy>  (462) 
-31.9668

>  <r_i_glide_einternal>  (462) 
8.79156

>  <r_i_glide_intrahb_reward>  (462) 
-0.5

>  <i_i_glide_confnum>  (462) 
1

>  <i_i_glide_posenum>  (462) 
11

>  <r_i_glide_eff_state_penalty>  (462) 
0

>  <ligand_id>  (462) 
112

>  <original_smiles>  (462) 
CC(=O)C1(O)C(C)CC23OCC2C(OC2OC(CO)C(O)C(O)C2O)OC=CC31O

>  <smiles>  (462) 
[H]OC([H])([H])C1([H])OC([H])(OC2([H])OC([H])=C([H])C3(O[H])C(O[H])(C(=O)C([H])([H])[H])C([H])(C([H])([H])[H])C([H])([H])C34OC([H])([H])C24[H])C([H])(O[H])C([H])(O[H])C1([H])O[H]

$$$$
112:0:1
     RDKit          3D

 58 61  0  0  1  0  0  0  0  0999 V2000
    0.4325   -5.1986    4.5537 C   0  0  0  0  0  0  0  0  0  0  0  0
    0.8416   -6.2411    3.5160 C   0  0  0  0  0  0  0  0  0  0  0  0
    0.6609   -5.9974    2.3146 O   0  0  0  0  0  0  0  0  0  0  0  0
    1.4985   -7.5651    4.0120 C   0  0  1  0  0  0  0  0  0  0  0  0
    1.1302   -7.7928    5.3672 O   0  0  0  0  0  0  0  0  0  0  0  0
    1.1177   -8.7954    3.1437 C   0  0  1  0  0  0  0  0  0  0  0  0
   -0.3715   -8.9569    2.7839 C   0  0  0  0  0  0  0  0  0  0  0  0
    2.0489   -8.7127    1.9325 C   0  0  0  0  0  0  0  0  0  0  0  0
    3.3285   -7.9674    2.3838 C   0  0  1  0  0  0  0  0  0  0  0  0
    4.4225   -8.9141    2.2533 O   0  0  0  0  0  0  0  0  0  0  0  0
    4.7758   -8.3212    0.9825 C   0  0  0  0  0  0  0  0  0  0  0  0
    4.0090   -7.0593    1.3316 C   0  0  2  0  0  0  0  0  0  0  0  0
    4.8868   -5.9011    1.7496 C   0  0  1  0  0  0  0  0  0  0  0  0
    5.4748   -5.3792    0.5951 O   0  0  0  0  0  0  0  0  0  0  0  0
    4.9836   -4.1168    0.1820 C   0  0  2  0  0  0  0  0  0  0  0  0
    3.5900   -4.1502   -0.0529 O   0  0  0  0  0  0  0  0  0  0  0  0
    2.9661   -2.9013   -0.3662 C   0  0  1  0  0  0  0  0  0  0  0  0
    2.9862   -1.9455    0.8598 C   0  0  0  0  0  0  0  0  0  0  0  0
    2.2522   -2.4835    1.9503 O   0  0  0  0  0  0  0  0  0  0  0  0
    3.6035   -2.3583   -1.6482 C   0  0  1  0  0  0  0  0  0  0  0  0
    3.0165   -1.1298   -2.0569 O   0  0  0  0  0  0  0  0  0  0  0  0
    5.1424   -2.2517   -1.5579 C   0  0  1  0  0  0  0  0  0  0  0  0
    5.5185   -1.1657   -0.7085 O   0  0  0  0  0  0  0  0  0  0  0  0
    5.7314   -3.6025   -1.0667 C   0  0  1  0  0  0  0  0  0  0  0  0
    7.1275   -3.4851   -0.7609 O   0  0  0  0  0  0  0  0  0  0  0  0
    4.0984   -4.9769    2.4269 O   0  0  0  0  0  0  0  0  0  0  0  0
    4.0218   -5.1149    3.7765 C   0  0  0  0  0  0  0  0  0  0  0  0
    3.6449   -6.2372    4.4249 C   0  0  0  0  0  0  0  0  0  0  0  0
    3.0556   -7.5357    3.8716 C   0  0  1  0  0  0  0  0  0  0  0  0
    3.5591   -8.5832    4.6896 O   0  0  0  0  0  0  0  0  0  0  0  0
    1.3050   -4.8154    5.0839 H   0  0  0  0  0  0  0  0  0  0  0  0
   -0.2637   -5.6186    5.2783 H   0  0  0  0  0  0  0  0  0  0  0  0
   -0.0514   -4.3576    4.0632 H   0  0  0  0  0  0  0  0  0  0  0  0
    1.5542   -8.5920    5.6446 H   0  0  0  0  0  0  0  0  0  0  0  0
    1.4059   -9.6922    3.6957 H   0  0  0  0  0  0  0  0  0  0  0  0
   -0.7447   -8.1538    2.1485 H   0  0  0  0  0  0  0  0  0  0  0  0
   -0.9807   -8.9796    3.6889 H   0  0  0  0  0  0  0  0  0  0  0  0
   -0.5390   -9.8896    2.2464 H   0  0  0  0  0  0  0  0  0  0  0  0
    2.2809   -9.6962    1.5306 H   0  0  0  0  0  0  0  0  0  0  0  0
    1.5592   -8.1605    1.1295 H   0  0  0  0  0  0  0  0  0  0  0  0
    5.8524   -8.1530    0.8893 H   0  0  0  0  0  0  0  0  0  0  0  0
    4.3735   -8.8625    0.1196 H   0  0  0  0  0  0  0  0  0  0  0  0
    3.3215   -6.7932    0.5270 H   0  0  0  0  0  0  0  0  0  0  0  0
    5.7111   -6.2308    2.4016 H   0  0  0  0  0  0  0  0  0  0  0  0
    5.1719   -3.4459    1.0274 H   0  0  0  0  0  0  0  0  0  0  0  0
    1.9295   -3.1280   -0.6059 H   0  0  0  0  0  0  0  0  0  0  0  0
    3.9907   -1.7172    1.2163 H   0  0  0  0  0  0  0  0  0  0  0  0
    2.5562   -0.9756    0.6032 H   0  0  0  0  0  0  0  0  0  0  0  0
    2.7256   -3.2640    2.2774 H   0  0  0  0  0  0  0  0  0  0  0  0
    3.3984   -3.0816   -2.4316 H   0  0  0  0  0  0  0  0  0  0  0  0
    2.0812   -1.0978   -1.7207 H   0  0  0  0  0  0  0  0  0  0  0  0
    5.5440   -2.0598   -2.5543 H   0  0  0  0  0  0  0  0  0  0  0  0
    4.9265   -0.4173   -0.8873 H   0  0  0  0  0  0  0  0  0  0  0  0
    5.5965   -4.3418   -1.8530 H   0  0  0  0  0  0  0  0  0  0  0  0
    7.6287   -3.3336   -1.5768 H   0  0  0  0  0  0  0  0  0  0  0  0
    4.3647   -4.2276    4.2790 H   0  0  0  0  0  0  0  0  0  0  0  0
    3.6833   -6.2157    5.5061 H   0  0  0  0  0  0  0  0  0  0  0  0
    3.3405   -9.4111    4.2897 H   0  0  0  0  0  0  0  0  0  0  0  0
  1  2  1  0
  1 31  1  0
  1 32  1  0
  1 33  1  0
  2  3  2  0
  2  4  1  0
  4 29  1  0
  4  5  1  1
  4  6  1  0
  5 34  1  0
  6  7  1  0
  6  8  1  0
  6 35  1  1
  7 36  1  0
  7 37  1  0
  7 38  1  0
  8  9  1  0
  8 39  1  0
  8 40  1  0
  9 12  1  0
  9 29  1  0
  9 10  1  1
 10 11  1  0
 11 12  1  0
 11 41  1  0
 11 42  1  0
 12 13  1  0
 12 43  1  6
 13 14  1  0
 13 26  1  0
 13 44  1  1
 14 15  1  0
 15 24  1  0
 15 16  1  0
 15 45  1  1
 16 17  1  0
 17 18  1  0
 17 20  1  0
 17 46  1  6
 18 19  1  0
 18 47  1  0
 18 48  1  0
 19 49  1  0
 20 21  1  0
 20 22  1  0
 20 50  1  6
 21 51  1  0
 22 23  1  0
 22 24  1  0
 22 52  1  6
 23 53  1  0
 24 25  1  0
 24 54  1  6
 25 55  1  0
 26 27  1  0
 27 28  2  0
 27 56  1  0
 28 29  1  0
 28 57  1  0
 29 30  1  1
 30 58  1  0
M  END
>  <i_m_ct_stereo_status>  (463) 
1

>  <s_m_source_file>  (463) 
/var/tmp/pbs.5102103.sched01/tmp7htwmlud/1762k52hbh7.sdf

>  <i_m_source_file_index>  (463) 
3

>  <i_lp_mmshare_version>  (463) 
48012

>  <i_f3d_flags>  (463) 
0

>  <s_epik_input>  (463) 
W0NIM11DKD1PKVtDQEBdKFtPSF0pKFtDQEBIXShbQ0gzXSlbQ0gyXTEpW0NAXTIoW09IXSlbQ0hdPVtDSF1PW0NAQEhdKFtDQEhdKFtDQF0xMjMpW0NIMl1PMylPW0NAQEhdNE9bQ0BASF0oW0NIMl1bT0hdKVtDQEBIXShbT0hdKVtDQEBIXShbT0hdKVtDQEhdNFtPSF0=

>  <s_epik_cmdline>  (463) 
J2VwaWtfcHl0aG9uJywgJy1waHQnLCAnMi4wJywgJy1waCcsICc3LjAnLCAnLXRuJywgJzgnLCAnLW1hJywgJzIwMCcsICctaW1hZScsICc8aW5maWxlLm1hZT4nLCAnLW9tYWUnLCAnPG91dGZpbGUubWFlPic=

>  <r_lp_tautomer_probability>  (463) 
1

>  <r_epik_Ionization_Penalty>  (463) 
6.86378e-06

>  <r_epik_Ionization_Penalty_Charging>  (463) 
0

>  <r_epik_Ionization_Penalty_Neutral>  (463) 
6.86378e-06

>  <r_epik_State_Penalty>  (463) 
-0

>  <r_epik_Charging_Adjusted_Penalty>  (463) 
0

>  <i_epik_Tot_Q>  (463) 
0

>  <i_epik_Tot_abs_Q>  (463) 
0

>  <s_epik_Chemistry_Notes>  (463) 
This compound contains an acetal/aminal-like group ( X-CH(R)-Y where X, Y are N, S, or O) that may be acid/base labile, releasing an aldehyde.

>  <s_lp_Force_Field>  (463) 
OPLS3e

>  <r_lp_Energy>  (463) 
44.5936

>  <b_lp_Chiralities_Consistent>  (463) 
1

>  <s_lp_Variant>  (463) 
112:0-1

>  <s_i_glide_gridfile>  (463) 
pfpi4k_grid

>  <i_i_glide_lignum>  (463) 
3

>  <i_i_glide_rotatable_bonds>  (463) 
10

>  <r_i_docking_score>  (463) 
-3.35427

>  <r_i_glide_ligand_efficiency>  (463) 
-0.111809

>  <r_i_glide_ligand_efficiency_sa>  (463) 
-0.347417

>  <r_i_glide_ligand_efficiency_ln>  (463) 
-0.762127

>  <r_i_glide_gscore>  (463) 
-3.35427

>  <r_i_glide_lipo>  (463) 
-0.16131

>  <r_i_glide_hbond>  (463) 
-0.105772

>  <r_i_glide_metal>  (463) 
-0

>  <r_i_glide_rewards>  (463) 
-1.07668

>  <r_i_glide_evdw>  (463) 
-22.6001

>  <r_i_glide_ecoul>  (463) 
-7.78983

>  <r_i_glide_erotb>  (463) 
0.319249

>  <r_i_glide_esite>  (463) 
-0.0312766

>  <r_i_glide_emodel>  (463) 
-38.6103

>  <r_i_glide_energy>  (463) 
-30.39

>  <r_i_glide_einternal>  (463) 
9.5491

>  <r_i_glide_intrahb_reward>  (463) 
-0.5

>  <i_i_glide_confnum>  (463) 
1

>  <i_i_glide_posenum>  (463) 
38

>  <r_i_glide_eff_state_penalty>  (463) 
0

>  <ligand_id>  (463) 
112

>  <original_smiles>  (463) 
CC(=O)C1(O)C(C)CC23OCC2C(OC2OC(CO)C(O)C(O)C2O)OC=CC31O

>  <smiles>  (463) 
[H]OC([H])([H])C1([H])OC([H])(OC2([H])OC([H])=C([H])C3(O[H])C(O[H])(C(=O)C([H])([H])[H])C([H])(C([H])([H])[H])C([H])([H])C34OC([H])([H])C24[H])C([H])(O[H])C([H])(O[H])C1([H])O[H]

$$$$
112:0:2
     RDKit          3D

 58 61  0  0  1  0  0  0  0  0999 V2000
    2.7255   -3.4392   -1.5956 C   0  0  0  0  0  0  0  0  0  0  0  0
    3.1484   -3.8137   -0.1812 C   0  0  0  0  0  0  0  0  0  0  0  0
    2.4207   -4.5490    0.4955 O   0  0  0  0  0  0  0  0  0  0  0  0
    4.4794   -3.2587    0.3954 C   0  0  1  0  0  0  0  0  0  0  0  0
    5.2973   -2.7606   -0.6611 O   0  0  0  0  0  0  0  0  0  0  0  0
    4.2170   -2.1363    1.4352 C   0  0  1  0  0  0  0  0  0  0  0  0
    3.1645   -1.0743    1.0685 C   0  0  0  0  0  0  0  0  0  0  0  0
    3.8950   -2.8856    2.7299 C   0  0  0  0  0  0  0  0  0  0  0  0
    4.6239   -4.2467    2.6871 C   0  0  1  0  0  0  0  0  0  0  0  0
    5.5951   -4.2661    3.7837 O   0  0  0  0  0  0  0  0  0  0  0  0
    4.6575   -5.0256    4.5902 C   0  0  0  0  0  0  0  0  0  0  0  0
    3.8859   -5.4337    3.3485 C   0  0  2  0  0  0  0  0  0  0  0  0
    4.1433   -6.8615    2.8959 C   0  0  1  0  0  0  0  0  0  0  0  0
    3.4869   -7.7523    3.7516 O   0  0  0  0  0  0  0  0  0  0  0  0
    2.1631   -8.0926    3.4013 C   0  0  2  0  0  0  0  0  0  0  0  0
    1.2829   -6.9923    3.4952 O   0  0  0  0  0  0  0  0  0  0  0  0
   -0.0535   -7.2153    3.0453 C   0  0  1  0  0  0  0  0  0  0  0  0
   -0.0862   -7.4352    1.5131 C   0  0  0  0  0  0  0  0  0  0  0  0
    0.2959   -6.2645    0.8098 O   0  0  0  0  0  0  0  0  0  0  0  0
   -0.6514   -8.3542    3.8802 C   0  0  1  0  0  0  0  0  0  0  0  0
   -1.9956   -8.6108    3.4969 O   0  0  0  0  0  0  0  0  0  0  0  0
    0.2147   -9.6272    3.8632 C   0  0  1  0  0  0  0  0  0  0  0  0
    0.1761  -10.2200    2.5643 O   0  0  0  0  0  0  0  0  0  0  0  0
    1.6603   -9.2706    4.2472 C   0  0  1  0  0  0  0  0  0  0  0  0
    2.5067  -10.3858    4.0106 O   0  0  0  0  0  0  0  0  0  0  0  0
    3.7246   -7.0134    1.5864 O   0  0  0  0  0  0  0  0  0  0  0  0
    4.6578   -6.7670    0.6273 C   0  0  0  0  0  0  0  0  0  0  0  0
    5.3858   -5.6461    0.5064 C   0  0  0  0  0  0  0  0  0  0  0  0
    5.2628   -4.3103    1.2493 C   0  0  1  0  0  0  0  0  0  0  0  0
    6.5758   -3.7881    1.3916 O   0  0  0  0  0  0  0  0  0  0  0  0
    3.4588   -3.7907   -2.3201 H   0  0  0  0  0  0  0  0  0  0  0  0
    2.6274   -2.3582   -1.6818 H   0  0  0  0  0  0  0  0  0  0  0  0
    1.7653   -3.8933   -1.8317 H   0  0  0  0  0  0  0  0  0  0  0  0
    6.0508   -2.3760   -0.2469 H   0  0  0  0  0  0  0  0  0  0  0  0
    5.1598   -1.6124    1.6052 H   0  0  0  0  0  0  0  0  0  0  0  0
    2.1647   -1.5020    0.9763 H   0  0  0  0  0  0  0  0  0  0  0  0
    3.4143   -0.6032    0.1172 H   0  0  0  0  0  0  0  0  0  0  0  0
    3.1165   -0.2946    1.8304 H   0  0  0  0  0  0  0  0  0  0  0  0
    4.1970   -2.3132    3.6056 H   0  0  0  0  0  0  0  0  0  0  0  0
    2.8156   -3.0314    2.8196 H   0  0  0  0  0  0  0  0  0  0  0  0
    5.1449   -5.8612    5.0990 H   0  0  0  0  0  0  0  0  0  0  0  0
    4.0929   -4.3921    5.2779 H   0  0  0  0  0  0  0  0  0  0  0  0
    2.8241   -5.2088    3.4687 H   0  0  0  0  0  0  0  0  0  0  0  0
    5.2128   -7.1035    2.9716 H   0  0  0  0  0  0  0  0  0  0  0  0
    2.1805   -8.4248    2.3564 H   0  0  0  0  0  0  0  0  0  0  0  0
   -0.6124   -6.3173    3.2721 H   0  0  0  0  0  0  0  0  0  0  0  0
    0.5523   -8.2527    1.1949 H   0  0  0  0  0  0  0  0  0  0  0  0
   -1.0874   -7.6917    1.1715 H   0  0  0  0  0  0  0  0  0  0  0  0
    1.2668   -6.1860    0.8235 H   0  0  0  0  0  0  0  0  0  0  0  0
   -0.6921   -8.0084    4.9074 H   0  0  0  0  0  0  0  0  0  0  0  0
   -2.0173   -9.0240    2.6247 H   0  0  0  0  0  0  0  0  0  0  0  0
   -0.1289  -10.3508    4.6057 H   0  0  0  0  0  0  0  0  0  0  0  0
   -0.7254  -10.5188    2.3606 H   0  0  0  0  0  0  0  0  0  0  0  0
    1.7126   -9.0207    5.3056 H   0  0  0  0  0  0  0  0  0  0  0  0
    2.3847  -10.6516    3.0905 H   0  0  0  0  0  0  0  0  0  0  0  0
    4.7787   -7.6265   -0.0127 H   0  0  0  0  0  0  0  0  0  0  0  0
    6.1054   -5.6191   -0.3058 H   0  0  0  0  0  0  0  0  0  0  0  0
    7.0271   -3.9009    0.5738 H   0  0  0  0  0  0  0  0  0  0  0  0
  1  2  1  0
  1 31  1  0
  1 32  1  0
  1 33  1  0
  2  3  2  0
  2  4  1  0
  4 29  1  0
  4  5  1  6
  4  6  1  0
  5 34  1  0
  6  7  1  0
  6  8  1  0
  6 35  1  1
  7 36  1  0
  7 37  1  0
  7 38  1  0
  8  9  1  0
  8 39  1  0
  8 40  1  0
  9 12  1  0
  9 29  1  0
  9 10  1  1
 10 11  1  0
 11 12  1  0
 11 41  1  0
 11 42  1  0
 12 13  1  0
 12 43  1  1
 13 14  1  0
 13 26  1  0
 13 44  1  6
 14 15  1  0
 15 24  1  0
 15 16  1  0
 15 45  1  6
 16 17  1  0
 17 18  1  0
 17 20  1  0
 17 46  1  6
 18 19  1  0
 18 47  1  0
 18 48  1  0
 19 49  1  0
 20 21  1  0
 20 22  1  0
 20 50  1  1
 21 51  1  0
 22 23  1  0
 22 24  1  0
 22 52  1  1
 23 53  1  0
 24 25  1  0
 24 54  1  1
 25 55  1  0
 26 27  1  0
 27 28  2  0
 27 56  1  0
 28 29  1  0
 28 57  1  0
 29 30  1  1
 30 58  1  0
M  END
>  <i_m_ct_stereo_status>  (464) 
1

>  <s_m_source_file>  (464) 
/var/tmp/pbs.5102103.sched01/tmp7htwmlud/1762k52hbh7.sdf

>  <i_m_source_file_index>  (464) 
3

>  <i_lp_mmshare_version>  (464) 
48012

>  <i_f3d_flags>  (464) 
0

>  <s_epik_input>  (464) 
W0NIM11DKD1PKVtDQEBdKFtPSF0pKFtDQEBIXShbQ0gzXSlbQ0gyXTEpW0NAXTIoW09IXSlbQ0hdPVtDSF1PW0NAQEhdKFtDQEhdKFtDQF0xMjMpW0NIMl1PMylPW0NAQEhdNE9bQ0BASF0oW0NIMl1bT0hdKVtDQEBIXShbT0hdKVtDQEBIXShbT0hdKVtDQEhdNFtPSF0=

>  <s_epik_cmdline>  (464) 
J2VwaWtfcHl0aG9uJywgJy1waHQnLCAnMi4wJywgJy1waCcsICc3LjAnLCAnLXRuJywgJzgnLCAnLW1hJywgJzIwMCcsICctaW1hZScsICc8aW5maWxlLm1hZT4nLCAnLW9tYWUnLCAnPG91dGZpbGUubWFlPic=

>  <r_lp_tautomer_probability>  (464) 
1

>  <r_epik_Ionization_Penalty>  (464) 
6.86378e-06

>  <r_epik_Ionization_Penalty_Charging>  (464) 
0

>  <r_epik_Ionization_Penalty_Neutral>  (464) 
6.86378e-06

>  <r_epik_State_Penalty>  (464) 
-0

>  <r_epik_Charging_Adjusted_Penalty>  (464) 
0

>  <i_epik_Tot_Q>  (464) 
0

>  <i_epik_Tot_abs_Q>  (464) 
0

>  <s_epik_Chemistry_Notes>  (464) 
This compound contains an acetal/aminal-like group ( X-CH(R)-Y where X, Y are N, S, or O) that may be acid/base labile, releasing an aldehyde.

>  <s_lp_Force_Field>  (464) 
OPLS3e

>  <r_lp_Energy>  (464) 
44.5936

>  <b_lp_Chiralities_Consistent>  (464) 
1

>  <s_lp_Variant>  (464) 
112:0-1

>  <s_i_glide_gridfile>  (464) 
pfpi4k_grid

>  <i_i_glide_lignum>  (464) 
3

>  <i_i_glide_rotatable_bonds>  (464) 
10

>  <r_i_docking_score>  (464) 
-3.24358

>  <r_i_glide_ligand_efficiency>  (464) 
-0.108119

>  <r_i_glide_ligand_efficiency_sa>  (464) 
-0.335952

>  <r_i_glide_ligand_efficiency_ln>  (464) 
-0.736978

>  <r_i_glide_gscore>  (464) 
-3.24358

>  <r_i_glide_lipo>  (464) 
-0.428876

>  <r_i_glide_hbond>  (464) 
0

>  <r_i_glide_metal>  (464) 
-0

>  <r_i_glide_rewards>  (464) 
-0.960779

>  <r_i_glide_evdw>  (464) 
-23.2625

>  <r_i_glide_ecoul>  (464) 
-6.63229

>  <r_i_glide_erotb>  (464) 
0.319249

>  <r_i_glide_esite>  (464) 
-0.0152059

>  <r_i_glide_emodel>  (464) 
-39.2823

>  <r_i_glide_energy>  (464) 
-29.8948

>  <r_i_glide_einternal>  (464) 
6.90598

>  <r_i_glide_intrahb_reward>  (464) 
-0.5

>  <i_i_glide_confnum>  (464) 
1

>  <i_i_glide_posenum>  (464) 
39

>  <r_i_glide_eff_state_penalty>  (464) 
0

>  <ligand_id>  (464) 
112

>  <original_smiles>  (464) 
CC(=O)C1(O)C(C)CC23OCC2C(OC2OC(CO)C(O)C(O)C2O)OC=CC31O

>  <smiles>  (464) 
[H]OC([H])([H])C1([H])OC([H])(OC2([H])OC([H])=C([H])C3(O[H])C(O[H])(C(=O)C([H])([H])[H])C([H])(C([H])([H])[H])C([H])([H])C34OC([H])([H])C24[H])C([H])(O[H])C([H])(O[H])C1([H])O[H]

$$$$
113:0:0
     RDKit          3D

 32 34  0  0  1  0  0  0  0  0999 V2000
    3.1495   -2.2700   -2.8886 C   0  0  0  0  0  0  0  0  0  0  0  0
    4.2759   -2.6634   -1.9277 C   0  0  0  0  0  0  0  0  0  0  0  0
    5.4104   -2.2355   -2.1584 O   0  0  0  0  0  0  0  0  0  0  0  0
    3.9838   -3.4465   -0.8576 N   0  0  0  0  0  0  0  0  0  0  0  0
    5.0049   -3.8231    0.1365 C   0  0  0  0  0  0  0  0  0  0  0  0
    5.0625   -5.3512    0.2351 C   0  0  0  0  0  0  0  0  0  0  0  0
    3.7427   -5.8339    0.5764 N   0  0  0  0  0  0  0  0  0  0  0  0
    2.5920   -5.2281    0.2071 C   0  0  0  0  0  0  0  0  0  0  0  0
    1.4662   -5.8598    0.5656 N   0  0  0  0  0  0  0  0  0  0  0  0
    1.9508   -6.9384    1.2815 C   0  0  0  0  0  0  0  0  0  0  0  0
    1.2576   -7.9722    1.9387 C   0  0  0  0  0  0  0  0  0  0  0  0
    1.9575   -9.0213    2.5804 C   0  0  0  0  0  0  0  0  0  0  0  0
    1.1847  -10.1366    3.2663 C   0  0  0  0  0  0  0  0  0  0  0  0
    0.2043  -10.5678    2.4819 F   0  0  0  0  0  0  0  0  0  0  0  0
    1.9717  -11.1692    3.5565 F   0  0  0  0  0  0  0  0  0  0  0  0
    0.6604   -9.6637    4.3924 F   0  0  0  0  0  0  0  0  0  0  0  0
    3.3702   -9.0220    2.5754 C   0  0  0  0  0  0  0  0  0  0  0  0
    4.0847   -7.9928    1.9280 C   0  0  0  0  0  0  0  0  0  0  0  0
    3.3742   -6.9651    1.2909 C   0  0  0  0  0  0  0  0  0  0  0  0
    2.6117   -3.9231   -0.5625 C   0  0  0  0  0  0  0  0  0  0  0  0
    2.2941   -1.8705   -2.3429 H   0  0  0  0  0  0  0  0  0  0  0  0
    2.8188   -3.1353   -3.4635 H   0  0  0  0  0  0  0  0  0  0  0  0
    3.4780   -1.5011   -3.5888 H   0  0  0  0  0  0  0  0  0  0  0  0
    5.9940   -3.4211   -0.0849 H   0  0  0  0  0  0  0  0  0  0  0  0
    4.7111   -3.4023    1.1018 H   0  0  0  0  0  0  0  0  0  0  0  0
    5.3621   -5.7900   -0.7186 H   0  0  0  0  0  0  0  0  0  0  0  0
    5.7755   -5.6737    0.9906 H   0  0  0  0  0  0  0  0  0  0  0  0
    0.1781   -7.9802    1.9208 H   0  0  0  0  0  0  0  0  0  0  0  0
    3.9151   -9.8173    3.0609 H   0  0  0  0  0  0  0  0  0  0  0  0
    5.1614   -7.9991    1.9253 H   0  0  0  0  0  0  0  0  0  0  0  0
    2.0972   -3.1511    0.0162 H   0  0  0  0  0  0  0  0  0  0  0  0
    2.0396   -4.1132   -1.4744 H   0  0  0  0  0  0  0  0  0  0  0  0
  1  2  1  0
  1 21  1  0
  1 22  1  0
  1 23  1  0
  2  3  2  0
  2  4  1  0
  4 20  1  0
  4  5  1  0
  5  6  1  0
  5 24  1  0
  5 25  1  0
  6  7  1  0
  6 26  1  0
  6 27  1  0
  7 19  1  0
  7  8  1  0
  8  9  2  0
  8 20  1  0
  9 10  1  0
 10 19  2  0
 10 11  1  0
 11 12  2  0
 11 28  1  0
 12 13  1  0
 12 17  1  0
 13 14  1  0
 13 15  1  0
 13 16  1  0
 17 18  2  0
 17 29  1  0
 18 19  1  0
 18 30  1  0
 20 31  1  0
 20 32  1  0
M  END
>  <i_m_ct_stereo_status>  (465) 
1

>  <s_m_source_file>  (465) 
/var/tmp/pbs.5102103.sched01/tmp7htwmlud/1762k52hbh7.sdf

>  <i_m_source_file_index>  (465) 
4

>  <i_lp_mmshare_version>  (465) 
48012

>  <i_f3d_flags>  (465) 
0

>  <s_epik_input>  (465) 
W0NIM11DKD1PKU4oW0NIMl1bQ0gyXTEpW0NIMl1jKG4xMiluYzNjMltjSF1bY0hdYyhbY0hdMylDKEYpKEYpRg==

>  <s_epik_cmdline>  (465) 
J2VwaWtfcHl0aG9uJywgJy1waHQnLCAnMi4wJywgJy1waCcsICc3LjAnLCAnLXRuJywgJzgnLCAnLW1hJywgJzIwMCcsICctaW1hZScsICc8aW5maWxlLm1hZT4nLCAnLW9tYWUnLCAnPG91dGZpbGUubWFlPic=

>  <r_epik_Ionization_Penalty>  (465) 
0.0157432

>  <r_epik_Ionization_Penalty_Charging>  (465) 
0

>  <r_epik_Ionization_Penalty_Neutral>  (465) 
0.0157432

>  <r_epik_State_Penalty>  (465) 
0.0123887

>  <r_epik_Charging_Adjusted_Penalty>  (465) 
0.0123887

>  <i_epik_Tot_Q>  (465) 
0

>  <i_epik_Tot_abs_Q>  (465) 
0

>  <s_lp_Force_Field>  (465) 
OPLS3e

>  <r_lp_Energy>  (465) 
33.3933

>  <b_lp_Chiralities_Consistent>  (465) 
1

>  <s_lp_Variant>  (465) 
113:0-1

>  <s_i_glide_gridfile>  (465) 
pfpi4k_grid

>  <i_i_glide_lignum>  (465) 
4

>  <i_i_glide_rotatable_bonds>  (465) 
2

>  <r_i_docking_score>  (465) 
-4.54493

>  <r_i_glide_ligand_efficiency>  (465) 
-0.227247

>  <r_i_glide_ligand_efficiency_sa>  (465) 
-0.616842

>  <r_i_glide_ligand_efficiency_ln>  (465) 
-1.13745

>  <r_i_glide_gscore>  (465) 
-4.54493

>  <r_i_glide_lipo>  (465) 
-0.298574

>  <r_i_glide_hbond>  (465) 
-0.15384

>  <r_i_glide_metal>  (465) 
-0

>  <r_i_glide_rewards>  (465) 
-1.91887

>  <r_i_glide_evdw>  (465) 
-25.1501

>  <r_i_glide_ecoul>  (465) 
-5.37345

>  <r_i_glide_erotb>  (465) 
0

>  <r_i_glide_esite>  (465) 
-0.110124

>  <r_i_glide_emodel>  (465) 
-39.4316

>  <r_i_glide_energy>  (465) 
-30.5236

>  <r_i_glide_einternal>  (465) 
0.336976

>  <r_i_glide_intrahb_reward>  (465) 
-0

>  <i_i_glide_confnum>  (465) 
1

>  <i_i_glide_posenum>  (465) 
18

>  <r_i_glide_eff_state_penalty>  (465) 
0

>  <ligand_id>  (465) 
113

>  <original_smiles>  (465) 
CC(=O)N1CCn2c(nc3cc(C(F)(F)F)ccc32)C1

>  <smiles>  (465) 
[H]c1c(C(F)(F)F)c([H])c2nc3n(c2c1[H])C([H])([H])C([H])([H])N(C(=O)C([H])([H])[H])C3([H])[H]

$$$$
113:0:1
     RDKit          3D

 32 34  0  0  1  0  0  0  0  0999 V2000
   -1.5646    2.0690    4.8616 C   0  0  0  0  0  0  0  0  0  0  0  0
   -1.2637    0.6087    5.2065 C   0  0  0  0  0  0  0  0  0  0  0  0
   -1.7831    0.1387    6.2242 O   0  0  0  0  0  0  0  0  0  0  0  0
   -0.4632   -0.1092    4.3754 N   0  0  0  0  0  0  0  0  0  0  0  0
   -0.1960   -1.5430    4.5943 C   0  0  0  0  0  0  0  0  0  0  0  0
    1.3155   -1.7658    4.6852 C   0  0  0  0  0  0  0  0  0  0  0  0
    1.9195   -1.2515    3.4760 N   0  0  0  0  0  0  0  0  0  0  0  0
    1.4332   -0.2134    2.7617 C   0  0  0  0  0  0  0  0  0  0  0  0
    2.1574    0.1523    1.7043 N   0  0  0  0  0  0  0  0  0  0  0  0
    3.1873   -0.7689    1.7163 C   0  0  0  0  0  0  0  0  0  0  0  0
    4.2796   -0.9340    0.8354 C   0  0  0  0  0  0  0  0  0  0  0  0
    5.2332   -1.9603    1.0473 C   0  0  0  0  0  0  0  0  0  0  0  0
    6.4138   -2.1338    0.1037 C   0  0  0  0  0  0  0  0  0  0  0  0
    6.7525   -3.4182   -0.0019 F   0  0  0  0  0  0  0  0  0  0  0  0
    6.1304   -1.6772   -1.1125 F   0  0  0  0  0  0  0  0  0  0  0  0
    7.4561   -1.4564    0.5721 F   0  0  0  0  0  0  0  0  0  0  0  0
    5.0975   -2.8188    2.1595 C   0  0  0  0  0  0  0  0  0  0  0  0
    4.0172   -2.6755    3.0500 C   0  0  0  0  0  0  0  0  0  0  0  0
    3.0735   -1.6596    2.8209 C   0  0  0  0  0  0  0  0  0  0  0  0
    0.1489    0.4738    3.1542 C   0  0  0  0  0  0  0  0  0  0  0  0
   -1.9062    2.1592    3.8299 H   0  0  0  0  0  0  0  0  0  0  0  0
   -0.6741    2.6840    4.9915 H   0  0  0  0  0  0  0  0  0  0  0  0
   -2.3477    2.4684    5.5072 H   0  0  0  0  0  0  0  0  0  0  0  0
   -0.6925   -1.9493    5.4767 H   0  0  0  0  0  0  0  0  0  0  0  0
   -0.5885   -2.0974    3.7393 H   0  0  0  0  0  0  0  0  0  0  0  0
    1.7387   -1.2330    5.5407 H   0  0  0  0  0  0  0  0  0  0  0  0
    1.5579   -2.8215    4.7944 H   0  0  0  0  0  0  0  0  0  0  0  0
    4.3671   -0.2639   -0.0040 H   0  0  0  0  0  0  0  0  0  0  0  0
    5.8265   -3.5962    2.3317 H   0  0  0  0  0  0  0  0  0  0  0  0
    3.9144   -3.3399    3.8912 H   0  0  0  0  0  0  0  0  0  0  0  0
   -0.5621    0.3932    2.3296 H   0  0  0  0  0  0  0  0  0  0  0  0
    0.4048    1.5271    3.2816 H   0  0  0  0  0  0  0  0  0  0  0  0
  1  2  1  0
  1 21  1  0
  1 22  1  0
  1 23  1  0
  2  3  2  0
  2  4  1  0
  4 20  1  0
  4  5  1  0
  5  6  1  0
  5 24  1  0
  5 25  1  0
  6  7  1  0
  6 26  1  0
  6 27  1  0
  7 19  1  0
  7  8  1  0
  8  9  2  0
  8 20  1  0
  9 10  1  0
 10 19  2  0
 10 11  1  0
 11 12  2  0
 11 28  1  0
 12 13  1  0
 12 17  1  0
 13 14  1  0
 13 15  1  0
 13 16  1  0
 17 18  2  0
 17 29  1  0
 18 19  1  0
 18 30  1  0
 20 31  1  0
 20 32  1  0
M  END
>  <i_m_ct_stereo_status>  (466) 
1

>  <s_m_source_file>  (466) 
/var/tmp/pbs.5102103.sched01/tmp7htwmlud/1762k52hbh7.sdf

>  <i_m_source_file_index>  (466) 
4

>  <i_lp_mmshare_version>  (466) 
48012

>  <i_f3d_flags>  (466) 
0

>  <s_epik_input>  (466) 
W0NIM11DKD1PKU4oW0NIMl1bQ0gyXTEpW0NIMl1jKG4xMiluYzNjMltjSF1bY0hdYyhbY0hdMylDKEYpKEYpRg==

>  <s_epik_cmdline>  (466) 
J2VwaWtfcHl0aG9uJywgJy1waHQnLCAnMi4wJywgJy1waCcsICc3LjAnLCAnLXRuJywgJzgnLCAnLW1hJywgJzIwMCcsICctaW1hZScsICc8aW5maWxlLm1hZT4nLCAnLW9tYWUnLCAnPG91dGZpbGUubWFlPic=

>  <r_epik_Ionization_Penalty>  (466) 
0.0157432

>  <r_epik_Ionization_Penalty_Charging>  (466) 
0

>  <r_epik_Ionization_Penalty_Neutral>  (466) 
0.0157432

>  <r_epik_State_Penalty>  (466) 
0.0123887

>  <r_epik_Charging_Adjusted_Penalty>  (466) 
0.0123887

>  <i_epik_Tot_Q>  (466) 
0

>  <i_epik_Tot_abs_Q>  (466) 
0

>  <s_lp_Force_Field>  (466) 
OPLS3e

>  <r_lp_Energy>  (466) 
33.3933

>  <b_lp_Chiralities_Consistent>  (466) 
1

>  <s_lp_Variant>  (466) 
113:0-1

>  <s_i_glide_gridfile>  (466) 
pfpi4k_grid

>  <i_i_glide_lignum>  (466) 
4

>  <i_i_glide_rotatable_bonds>  (466) 
2

>  <r_i_docking_score>  (466) 
-3.84213

>  <r_i_glide_ligand_efficiency>  (466) 
-0.192107

>  <r_i_glide_ligand_efficiency_sa>  (466) 
-0.521457

>  <r_i_glide_ligand_efficiency_ln>  (466) 
-0.961559

>  <r_i_glide_gscore>  (466) 
-3.84213

>  <r_i_glide_lipo>  (466) 
-0.160947

>  <r_i_glide_hbond>  (466) 
-0.16

>  <r_i_glide_metal>  (466) 
-0

>  <r_i_glide_rewards>  (466) 
-1.644

>  <r_i_glide_evdw>  (466) 
-20.9628

>  <r_i_glide_ecoul>  (466) 
-4.28364

>  <r_i_glide_erotb>  (466) 
0

>  <r_i_glide_esite>  (466) 
-0.186494

>  <r_i_glide_emodel>  (466) 
-32.7873

>  <r_i_glide_energy>  (466) 
-25.2464

>  <r_i_glide_einternal>  (466) 
0.278456

>  <r_i_glide_intrahb_reward>  (466) 
-0

>  <i_i_glide_confnum>  (466) 
1

>  <i_i_glide_posenum>  (466) 
3

>  <r_i_glide_eff_state_penalty>  (466) 
0

>  <ligand_id>  (466) 
113

>  <original_smiles>  (466) 
CC(=O)N1CCn2c(nc3cc(C(F)(F)F)ccc32)C1

>  <smiles>  (466) 
[H]c1c(C(F)(F)F)c([H])c2nc3n(c2c1[H])C([H])([H])C([H])([H])N(C(=O)C([H])([H])[H])C3([H])[H]

$$$$
113:0:2
     RDKit          3D

 32 34  0  0  1  0  0  0  0  0999 V2000
    6.1709   -1.0582    0.6445 C   0  0  0  0  0  0  0  0  0  0  0  0
    5.3440   -2.0709   -0.1511 C   0  0  0  0  0  0  0  0  0  0  0  0
    5.7630   -2.4012   -1.2620 O   0  0  0  0  0  0  0  0  0  0  0  0
    4.2089   -2.5776    0.3927 N   0  0  0  0  0  0  0  0  0  0  0  0
    3.6107   -2.0889    1.6491 C   0  0  0  0  0  0  0  0  0  0  0  0
    3.5205   -3.2537    2.6392 C   0  0  0  0  0  0  0  0  0  0  0  0
    2.7448   -4.3049    2.0227 N   0  0  0  0  0  0  0  0  0  0  0  0
    2.6970   -4.5357    0.6910 C   0  0  0  0  0  0  0  0  0  0  0  0
    1.9143   -5.5502    0.3161 N   0  0  0  0  0  0  0  0  0  0  0  0
    1.4405   -6.0293    1.5234 C   0  0  0  0  0  0  0  0  0  0  0  0
    0.5426   -7.0838    1.7924 C   0  0  0  0  0  0  0  0  0  0  0  0
    0.1470   -7.3764    3.1159 C   0  0  0  0  0  0  0  0  0  0  0  0
   -0.7892   -8.5425    3.3988 C   0  0  0  0  0  0  0  0  0  0  0  0
   -0.0645   -9.6277    3.6512 F   0  0  0  0  0  0  0  0  0  0  0  0
   -1.5470   -8.2544    4.4551 F   0  0  0  0  0  0  0  0  0  0  0  0
   -1.5905   -8.7810    2.3621 F   0  0  0  0  0  0  0  0  0  0  0  0
    0.6449   -6.5960    4.1845 C   0  0  0  0  0  0  0  0  0  0  0  0
    1.5319   -5.5288    3.9385 C   0  0  0  0  0  0  0  0  0  0  0  0
    1.9232   -5.2568    2.6170 C   0  0  0  0  0  0  0  0  0  0  0  0
    3.4497   -3.6550   -0.2852 C   0  0  0  0  0  0  0  0  0  0  0  0
    6.3996   -1.4364    1.6415 H   0  0  0  0  0  0  0  0  0  0  0  0
    5.6395   -0.1107    0.7333 H   0  0  0  0  0  0  0  0  0  0  0  0
    7.1196   -0.8645    0.1456 H   0  0  0  0  0  0  0  0  0  0  0  0
    4.1388   -1.2574    2.1118 H   0  0  0  0  0  0  0  0  0  0  0  0
    2.6113   -1.7083    1.4245 H   0  0  0  0  0  0  0  0  0  0  0  0
    4.5123   -3.6490    2.8703 H   0  0  0  0  0  0  0  0  0  0  0  0
    3.0536   -2.9494    3.5745 H   0  0  0  0  0  0  0  0  0  0  0  0
    0.1739   -7.6781    0.9726 H   0  0  0  0  0  0  0  0  0  0  0  0
    0.3559   -6.8271    5.2017 H   0  0  0  0  0  0  0  0  0  0  0  0
    1.9025   -4.9292    4.7544 H   0  0  0  0  0  0  0  0  0  0  0  0
    2.7412   -3.2077   -0.9848 H   0  0  0  0  0  0  0  0  0  0  0  0
    4.1149   -4.3038   -0.8606 H   0  0  0  0  0  0  0  0  0  0  0  0
  1  2  1  0
  1 21  1  0
  1 22  1  0
  1 23  1  0
  2  3  2  0
  2  4  1  0
  4 20  1  0
  4  5  1  0
  5  6  1  0
  5 24  1  0
  5 25  1  0
  6  7  1  0
  6 26  1  0
  6 27  1  0
  7 19  1  0
  7  8  1  0
  8  9  2  0
  8 20  1  0
  9 10  1  0
 10 19  2  0
 10 11  1  0
 11 12  2  0
 11 28  1  0
 12 13  1  0
 12 17  1  0
 13 14  1  0
 13 15  1  0
 13 16  1  0
 17 18  2  0
 17 29  1  0
 18 19  1  0
 18 30  1  0
 20 31  1  0
 20 32  1  0
M  END
>  <i_m_ct_stereo_status>  (467) 
1

>  <s_m_source_file>  (467) 
/var/tmp/pbs.5102103.sched01/tmp7htwmlud/1762k52hbh7.sdf

>  <i_m_source_file_index>  (467) 
4

>  <i_lp_mmshare_version>  (467) 
48012

>  <i_f3d_flags>  (467) 
0

>  <s_epik_input>  (467) 
W0NIM11DKD1PKU4oW0NIMl1bQ0gyXTEpW0NIMl1jKG4xMiluYzNjMltjSF1bY0hdYyhbY0hdMylDKEYpKEYpRg==

>  <s_epik_cmdline>  (467) 
J2VwaWtfcHl0aG9uJywgJy1waHQnLCAnMi4wJywgJy1waCcsICc3LjAnLCAnLXRuJywgJzgnLCAnLW1hJywgJzIwMCcsICctaW1hZScsICc8aW5maWxlLm1hZT4nLCAnLW9tYWUnLCAnPG91dGZpbGUubWFlPic=

>  <r_epik_Ionization_Penalty>  (467) 
0.0157432

>  <r_epik_Ionization_Penalty_Charging>  (467) 
0

>  <r_epik_Ionization_Penalty_Neutral>  (467) 
0.0157432

>  <r_epik_State_Penalty>  (467) 
0.0123887

>  <r_epik_Charging_Adjusted_Penalty>  (467) 
0.0123887

>  <i_epik_Tot_Q>  (467) 
0

>  <i_epik_Tot_abs_Q>  (467) 
0

>  <s_lp_Force_Field>  (467) 
OPLS3e

>  <r_lp_Energy>  (467) 
33.3933

>  <b_lp_Chiralities_Consistent>  (467) 
1

>  <s_lp_Variant>  (467) 
113:0-1

>  <s_i_glide_gridfile>  (467) 
pfpi4k_grid

>  <i_i_glide_lignum>  (467) 
4

>  <i_i_glide_rotatable_bonds>  (467) 
2

>  <r_i_docking_score>  (467) 
-3.62083

>  <r_i_glide_ligand_efficiency>  (467) 
-0.181041

>  <r_i_glide_ligand_efficiency_sa>  (467) 
-0.491422

>  <r_i_glide_ligand_efficiency_ln>  (467) 
-0.906174

>  <r_i_glide_gscore>  (467) 
-3.62083

>  <r_i_glide_lipo>  (467) 
-0.108767

>  <r_i_glide_hbond>  (467) 
-0.061067

>  <r_i_glide_metal>  (467) 
-0

>  <r_i_glide_rewards>  (467) 
-1.75466

>  <r_i_glide_evdw>  (467) 
-22.4489

>  <r_i_glide_ecoul>  (467) 
-2.53395

>  <r_i_glide_erotb>  (467) 
0

>  <r_i_glide_esite>  (467) 
-0.1938

>  <r_i_glide_emodel>  (467) 
-32.0488

>  <r_i_glide_energy>  (467) 
-24.9828

>  <r_i_glide_einternal>  (467) 
0.149367

>  <r_i_glide_intrahb_reward>  (467) 
-0

>  <i_i_glide_confnum>  (467) 
2

>  <i_i_glide_posenum>  (467) 
4

>  <r_i_glide_eff_state_penalty>  (467) 
0

>  <ligand_id>  (467) 
113

>  <original_smiles>  (467) 
CC(=O)N1CCn2c(nc3cc(C(F)(F)F)ccc32)C1

>  <smiles>  (467) 
[H]c1c(C(F)(F)F)c([H])c2nc3n(c2c1[H])C([H])([H])C([H])([H])N(C(=O)C([H])([H])[H])C3([H])[H]

$$$$
113:1:0
     RDKit          3D

 33 35  0  0  1  0  0  0  0  0999 V2000
   -2.3437    3.7466    2.9013 C   0  0  0  0  0  0  0  0  0  0  0  0
   -1.4019    3.3143    4.0177 C   0  0  0  0  0  0  0  0  0  0  0  0
   -1.3801    4.0025    5.0410 O   0  0  0  0  0  0  0  0  0  0  0  0
   -0.6791    2.1763    3.8682 N   0  0  0  0  0  0  0  0  0  0  0  0
    0.1070    1.6074    4.9867 C   0  0  0  0  0  0  0  0  0  0  0  0
    1.6168    1.6873    4.6679 C   0  0  0  0  0  0  0  0  0  0  0  0
    1.8171    1.0208    3.3839 N   0  0  0  0  0  0  0  0  0  0  0  0
    0.8824    0.9316    2.4092 C   0  0  0  0  0  0  0  0  0  0  0  0
    1.4535    0.2610    1.3723 N   0  0  0  0  0  0  0  0  0  0  0  0
    2.7684   -0.0692    1.7008 C   0  0  0  0  0  0  0  0  0  0  0  0
    3.7162   -0.7598    0.9590 C   0  0  0  0  0  0  0  0  0  0  0  0
    4.9809   -0.9545    1.5562 C   0  0  0  0  0  0  0  0  0  0  0  0
    6.0719   -1.7101    0.7968 C   0  0  0  0  0  0  0  0  0  0  0  0
    5.7893   -1.8528   -0.4972 F   0  0  0  0  0  0  0  0  0  0  0  0
    7.2274   -1.0617    0.8799 F   0  0  0  0  0  0  0  0  0  0  0  0
    6.2217   -2.9180    1.3292 F   0  0  0  0  0  0  0  0  0  0  0  0
    5.2289   -0.4668    2.8601 C   0  0  0  0  0  0  0  0  0  0  0  0
    4.2487    0.2243    3.6176 C   0  0  0  0  0  0  0  0  0  0  0  0
    3.0158    0.4134    3.0000 C   0  0  0  0  0  0  0  0  0  0  0  0
   -0.5070    1.4695    2.5737 C   0  0  0  0  0  0  0  0  0  0  0  0
   -2.9231    2.9081    2.5129 H   0  0  0  0  0  0  0  0  0  0  0  0
   -1.7842    4.2042    2.0868 H   0  0  0  0  0  0  0  0  0  0  0  0
   -3.0289    4.5058    3.2673 H   0  0  0  0  0  0  0  0  0  0  0  0
   -0.1038    2.0887    5.9469 H   0  0  0  0  0  0  0  0  0  0  0  0
   -0.1803    0.5606    5.1193 H   0  0  0  0  0  0  0  0  0  0  0  0
    1.9195    2.7313    4.5550 H   0  0  0  0  0  0  0  0  0  0  0  0
    2.2339    1.2232    5.4380 H   0  0  0  0  0  0  0  0  0  0  0  0
    3.4856   -1.1328   -0.0272 H   0  0  0  0  0  0  0  0  0  0  0  0
    6.2082   -0.6185    3.2842 H   0  0  0  0  0  0  0  0  0  0  0  0
    4.4568    0.5941    4.6093 H   0  0  0  0  0  0  0  0  0  0  0  0
   -1.2300    0.6520    2.5072 H   0  0  0  0  0  0  0  0  0  0  0  0
   -0.6698    2.1369    1.7267 H   0  0  0  0  0  0  0  0  0  0  0  0
    0.9914   -0.0339    0.5040 H   0  0  0  0  0  0  0  0  0  0  0  0
  1  2  1  0
  1 21  1  0
  1 22  1  0
  1 23  1  0
  2  3  2  0
  2  4  1  0
  4 20  1  0
  4  5  1  0
  5  6  1  0
  5 24  1  0
  5 25  1  0
  6  7  1  0
  6 26  1  0
  6 27  1  0
  7 19  1  0
  7  8  1  0
  8  9  2  0
  8 20  1  0
  9 10  1  0
  9 33  1  0
 10 19  2  0
 10 11  1  0
 11 12  2  0
 11 28  1  0
 12 13  1  0
 12 17  1  0
 13 14  1  0
 13 15  1  0
 13 16  1  0
 17 18  2  0
 17 29  1  0
 18 19  1  0
 18 30  1  0
 20 31  1  0
 20 32  1  0
M  CHG  1   9   1
M  END
>  <i_m_ct_stereo_status>  (468) 
1

>  <s_m_source_file>  (468) 
/var/tmp/pbs.5102103.sched01/tmp7htwmlud/1762k52hbh7.sdf

>  <i_m_source_file_index>  (468) 
5

>  <i_lp_mmshare_version>  (468) 
48012

>  <i_f3d_flags>  (468) 
0

>  <s_epik_input>  (468) 
W0NIM11DKD1PKU4oW0NIMl1bQ0gyXTEpW0NIMl1jKG4xMiluYzNjMltjSF1bY0hdYyhbY0hdMylDKEYpKEYpRg==

>  <s_epik_cmdline>  (468) 
J2VwaWtfcHl0aG9uJywgJy1waHQnLCAnMi4wJywgJy1waCcsICc3LjAnLCAnLXRuJywgJzgnLCAnLW1hJywgJzIwMCcsICctaW1hZScsICc8aW5maWxlLm1hZT4nLCAnLW9tYWUnLCAnPG91dGZpbGUubWFlPic=

>  <r_epik_Ionization_Penalty>  (468) 
2.15734

>  <r_epik_Ionization_Penalty_Charging>  (468) 
2.15734

>  <r_epik_Ionization_Penalty_Neutral>  (468) 
3.70545e-09

>  <r_epik_State_Penalty>  (468) 
2.29765

>  <r_epik_Charging_Adjusted_Penalty>  (468) 
4.45499

>  <i_epik_Tot_Q>  (468) 
1

>  <i_epik_Tot_abs_Q>  (468) 
1

>  <s_lp_Force_Field>  (468) 
OPLS3e

>  <r_lp_Energy>  (468) 
37.0946

>  <b_lp_Chiralities_Consistent>  (468) 
1

>  <s_lp_Variant>  (468) 
113:0-2

>  <s_i_glide_gridfile>  (468) 
pfpi4k_grid

>  <i_i_glide_lignum>  (468) 
5

>  <i_i_glide_rotatable_bonds>  (468) 
2

>  <r_i_docking_score>  (468) 
-4.60685

>  <r_i_glide_ligand_efficiency>  (468) 
-0.230343

>  <r_i_glide_ligand_efficiency_sa>  (468) 
-0.625246

>  <r_i_glide_ligand_efficiency_ln>  (468) 
-1.15294

>  <r_i_glide_gscore>  (468) 
-4.60685

>  <r_i_glide_lipo>  (468) 
-0.395207

>  <r_i_glide_hbond>  (468) 
-0.2

>  <r_i_glide_metal>  (468) 
-0

>  <r_i_glide_rewards>  (468) 
-1.60218

>  <r_i_glide_evdw>  (468) 
-20.3568

>  <r_i_glide_ecoul>  (468) 
-7.26769

>  <r_i_glide_erotb>  (468) 
0

>  <r_i_glide_esite>  (468) 
-0.301471

>  <r_i_glide_emodel>  (468) 
-37.2418

>  <r_i_glide_energy>  (468) 
-27.6245

>  <r_i_glide_einternal>  (468) 
0.356647

>  <r_i_glide_intrahb_reward>  (468) 
-0

>  <i_i_glide_confnum>  (468) 
2

>  <i_i_glide_posenum>  (468) 
26

>  <r_i_glide_eff_state_penalty>  (468) 
0

>  <ligand_id>  (468) 
113

>  <original_smiles>  (468) 
CC(=O)N1CCn2c(nc3cc(C(F)(F)F)ccc32)C1

>  <smiles>  (468) 
[H]c1c(C(F)(F)F)c([H])c2c(c1[H])n1c([n+]2[H])C([H])([H])N(C(=O)C([H])([H])[H])C([H])([H])C1([H])[H]

$$$$
113:1:1
     RDKit          3D

 33 35  0  0  1  0  0  0  0  0999 V2000
    4.7091   -4.1677    0.0468 C   0  0  0  0  0  0  0  0  0  0  0  0
    5.5216   -3.1033    0.7844 C   0  0  0  0  0  0  0  0  0  0  0  0
    6.6082   -3.4318    1.2591 O   0  0  0  0  0  0  0  0  0  0  0  0
    5.0260   -1.8438    0.8855 N   0  0  0  0  0  0  0  0  0  0  0  0
    5.7745   -0.7727    1.5748 C   0  0  0  0  0  0  0  0  0  0  0  0
    5.0112   -0.3266    2.8449 C   0  0  0  0  0  0  0  0  0  0  0  0
    3.6681    0.0618    2.4236 N   0  0  0  0  0  0  0  0  0  0  0  0
    3.0440   -0.4325    1.3326 C   0  0  0  0  0  0  0  0  0  0  0  0
    1.8160    0.1376    1.2865 N   0  0  0  0  0  0  0  0  0  0  0  0
    1.6641    1.0231    2.3527 C   0  0  0  0  0  0  0  0  0  0  0  0
    0.5892    1.8342    2.7039 C   0  0  0  0  0  0  0  0  0  0  0  0
    0.7469    2.6378    3.8559 C   0  0  0  0  0  0  0  0  0  0  0  0
   -0.3749    3.5613    4.3174 C   0  0  0  0  0  0  0  0  0  0  0  0
    0.0642    4.8158    4.4043 F   0  0  0  0  0  0  0  0  0  0  0  0
   -1.4302    3.5361    3.5019 F   0  0  0  0  0  0  0  0  0  0  0  0
   -0.7825    3.1781    5.5254 F   0  0  0  0  0  0  0  0  0  0  0  0
    1.9530    2.5914    4.6038 C   0  0  0  0  0  0  0  0  0  0  0  0
    3.0356    1.7572    4.2433 C   0  0  0  0  0  0  0  0  0  0  0  0
    2.8621    0.9783    3.0978 C   0  0  0  0  0  0  0  0  0  0  0  0
    3.6800   -1.4323    0.4177 C   0  0  0  0  0  0  0  0  0  0  0  0
    4.3264   -3.7910   -0.9013 H   0  0  0  0  0  0  0  0  0  0  0  0
    3.8721   -4.4999    0.6604 H   0  0  0  0  0  0  0  0  0  0  0  0
    5.3323   -5.0362   -0.1731 H   0  0  0  0  0  0  0  0  0  0  0  0
    6.7974   -1.0565    1.8269 H   0  0  0  0  0  0  0  0  0  0  0  0
    5.8783    0.0752    0.8917 H   0  0  0  0  0  0  0  0  0  0  0  0
    4.9266   -1.1662    3.5373 H   0  0  0  0  0  0  0  0  0  0  0  0
    5.5057    0.4992    3.3620 H   0  0  0  0  0  0  0  0  0  0  0  0
   -0.3096    1.8715    2.1023 H   0  0  0  0  0  0  0  0  0  0  0  0
    2.0368    3.2224    5.4776 H   0  0  0  0  0  0  0  0  0  0  0  0
    3.9538    1.7423    4.8077 H   0  0  0  0  0  0  0  0  0  0  0  0
    3.7520   -1.0044   -0.5839 H   0  0  0  0  0  0  0  0  0  0  0  0
    2.9859   -2.2701    0.3692 H   0  0  0  0  0  0  0  0  0  0  0  0
    1.1491   -0.1008    0.5381 H   0  0  0  0  0  0  0  0  0  0  0  0
  1  2  1  0
  1 21  1  0
  1 22  1  0
  1 23  1  0
  2  3  2  0
  2  4  1  0
  4 20  1  0
  4  5  1  0
  5  6  1  0
  5 24  1  0
  5 25  1  0
  6  7  1  0
  6 26  1  0
  6 27  1  0
  7 19  1  0
  7  8  1  0
  8  9  2  0
  8 20  1  0
  9 10  1  0
  9 33  1  0
 10 19  2  0
 10 11  1  0
 11 12  2  0
 11 28  1  0
 12 13  1  0
 12 17  1  0
 13 14  1  0
 13 15  1  0
 13 16  1  0
 17 18  2  0
 17 29  1  0
 18 19  1  0
 18 30  1  0
 20 31  1  0
 20 32  1  0
M  CHG  1   9   1
M  END
>  <i_m_ct_stereo_status>  (469) 
1

>  <s_m_source_file>  (469) 
/var/tmp/pbs.5102103.sched01/tmp7htwmlud/1762k52hbh7.sdf

>  <i_m_source_file_index>  (469) 
5

>  <i_lp_mmshare_version>  (469) 
48012

>  <i_f3d_flags>  (469) 
0

>  <s_epik_input>  (469) 
W0NIM11DKD1PKU4oW0NIMl1bQ0gyXTEpW0NIMl1jKG4xMiluYzNjMltjSF1bY0hdYyhbY0hdMylDKEYpKEYpRg==

>  <s_epik_cmdline>  (469) 
J2VwaWtfcHl0aG9uJywgJy1waHQnLCAnMi4wJywgJy1waCcsICc3LjAnLCAnLXRuJywgJzgnLCAnLW1hJywgJzIwMCcsICctaW1hZScsICc8aW5maWxlLm1hZT4nLCAnLW9tYWUnLCAnPG91dGZpbGUubWFlPic=

>  <r_epik_Ionization_Penalty>  (469) 
2.15734

>  <r_epik_Ionization_Penalty_Charging>  (469) 
2.15734

>  <r_epik_Ionization_Penalty_Neutral>  (469) 
3.70545e-09

>  <r_epik_State_Penalty>  (469) 
2.29765

>  <r_epik_Charging_Adjusted_Penalty>  (469) 
4.45499

>  <i_epik_Tot_Q>  (469) 
1

>  <i_epik_Tot_abs_Q>  (469) 
1

>  <s_lp_Force_Field>  (469) 
OPLS3e

>  <r_lp_Energy>  (469) 
37.0946

>  <b_lp_Chiralities_Consistent>  (469) 
1

>  <s_lp_Variant>  (469) 
113:0-2

>  <s_i_glide_gridfile>  (469) 
pfpi4k_grid

>  <i_i_glide_lignum>  (469) 
5

>  <i_i_glide_rotatable_bonds>  (469) 
2

>  <r_i_docking_score>  (469) 
-4.3436

>  <r_i_glide_ligand_efficiency>  (469) 
-0.21718

>  <r_i_glide_ligand_efficiency_sa>  (469) 
-0.589517

>  <r_i_glide_ligand_efficiency_ln>  (469) 
-1.08706

>  <r_i_glide_gscore>  (469) 
-4.3436

>  <r_i_glide_lipo>  (469) 
-0.255208

>  <r_i_glide_hbond>  (469) 
-0.2

>  <r_i_glide_metal>  (469) 
-0

>  <r_i_glide_rewards>  (469) 
-1.63494

>  <r_i_glide_evdw>  (469) 
-19.6142

>  <r_i_glide_ecoul>  (469) 
-6.68456

>  <r_i_glide_erotb>  (469) 
0

>  <r_i_glide_esite>  (469) 
-0.270067

>  <r_i_glide_emodel>  (469) 
-35.5454

>  <r_i_glide_energy>  (469) 
-26.2987

>  <r_i_glide_einternal>  (469) 
0.00961937

>  <r_i_glide_intrahb_reward>  (469) 
-0

>  <i_i_glide_confnum>  (469) 
2

>  <i_i_glide_posenum>  (469) 
11

>  <r_i_glide_eff_state_penalty>  (469) 
0

>  <ligand_id>  (469) 
113

>  <original_smiles>  (469) 
CC(=O)N1CCn2c(nc3cc(C(F)(F)F)ccc32)C1

>  <smiles>  (469) 
[H]c1c(C(F)(F)F)c([H])c2c(c1[H])n1c([n+]2[H])C([H])([H])N(C(=O)C([H])([H])[H])C([H])([H])C1([H])[H]

$$$$
113:1:2
     RDKit          3D

 33 35  0  0  1  0  0  0  0  0999 V2000
   -1.7039    3.0962    6.0122 C   0  0  0  0  0  0  0  0  0  0  0  0
   -1.7193    1.5700    5.9371 C   0  0  0  0  0  0  0  0  0  0  0  0
   -2.2031    0.9428    6.8809 O   0  0  0  0  0  0  0  0  0  0  0  0
   -1.2410    0.9562    4.8249 N   0  0  0  0  0  0  0  0  0  0  0  0
   -1.3460   -0.5094    4.6578 C   0  0  0  0  0  0  0  0  0  0  0  0
    0.0628   -1.1460    4.6616 C   0  0  0  0  0  0  0  0  0  0  0  0
    0.8380   -0.4647    3.6260 N   0  0  0  0  0  0  0  0  0  0  0  0
    0.6162    0.8016    3.2008 C   0  0  0  0  0  0  0  0  0  0  0  0
    1.5498    1.0869    2.2538 N   0  0  0  0  0  0  0  0  0  0  0  0
    2.3799   -0.0338    2.0842 C   0  0  0  0  0  0  0  0  0  0  0  0
    3.4728   -0.2361    1.2483 C   0  0  0  0  0  0  0  0  0  0  0  0
    4.0967   -1.5049    1.2858 C   0  0  0  0  0  0  0  0  0  0  0  0
    5.2972   -1.7928    0.3855 C   0  0  0  0  0  0  0  0  0  0  0  0
    5.3207   -3.0694    0.0069 F   0  0  0  0  0  0  0  0  0  0  0  0
    5.2825   -1.0433   -0.7157 F   0  0  0  0  0  0  0  0  0  0  0  0
    6.4194   -1.5318    1.0490 F   0  0  0  0  0  0  0  0  0  0  0  0
    3.6331   -2.5013    2.1693 C   0  0  0  0  0  0  0  0  0  0  0  0
    2.5339   -2.2891    3.0334 C   0  0  0  0  0  0  0  0  0  0  0  0
    1.9207   -1.0378    2.9621 C   0  0  0  0  0  0  0  0  0  0  0  0
   -0.4967    1.6467    3.7424 C   0  0  0  0  0  0  0  0  0  0  0  0
   -2.0554    3.5412    5.0813 H   0  0  0  0  0  0  0  0  0  0  0  0
   -0.6948    3.4510    6.2170 H   0  0  0  0  0  0  0  0  0  0  0  0
   -2.3553    3.4465    6.8151 H   0  0  0  0  0  0  0  0  0  0  0  0
   -1.9850   -0.9934    5.4030 H   0  0  0  0  0  0  0  0  0  0  0  0
   -1.8269   -0.6889    3.6966 H   0  0  0  0  0  0  0  0  0  0  0  0
    0.5501   -0.9751    5.6267 H   0  0  0  0  0  0  0  0  0  0  0  0
    0.0392   -2.2170    4.4641 H   0  0  0  0  0  0  0  0  0  0  0  0
    3.8313    0.5370    0.5890 H   0  0  0  0  0  0  0  0  0  0  0  0
    4.1444   -3.4527    2.1884 H   0  0  0  0  0  0  0  0  0  0  0  0
    2.1897   -3.0659    3.6997 H   0  0  0  0  0  0  0  0  0  0  0  0
   -1.1783    1.9041    2.9287 H   0  0  0  0  0  0  0  0  0  0  0  0
   -0.0238    2.5593    4.1035 H   0  0  0  0  0  0  0  0  0  0  0  0
    1.5977    1.9742    1.7648 H   0  0  0  0  0  0  0  0  0  0  0  0
  1  2  1  0
  1 21  1  0
  1 22  1  0
  1 23  1  0
  2  3  2  0
  2  4  1  0
  4 20  1  0
  4  5  1  0
  5  6  1  0
  5 24  1  0
  5 25  1  0
  6  7  1  0
  6 26  1  0
  6 27  1  0
  7 19  1  0
  7  8  1  0
  8  9  2  0
  8 20  1  0
  9 10  1  0
  9 33  1  0
 10 19  2  0
 10 11  1  0
 11 12  2  0
 11 28  1  0
 12 13  1  0
 12 17  1  0
 13 14  1  0
 13 15  1  0
 13 16  1  0
 17 18  2  0
 17 29  1  0
 18 19  1  0
 18 30  1  0
 20 31  1  0
 20 32  1  0
M  CHG  1   9   1
M  END
>  <i_m_ct_stereo_status>  (470) 
1

>  <s_m_source_file>  (470) 
/var/tmp/pbs.5102103.sched01/tmp7htwmlud/1762k52hbh7.sdf

>  <i_m_source_file_index>  (470) 
5

>  <i_lp_mmshare_version>  (470) 
48012

>  <i_f3d_flags>  (470) 
0

>  <s_epik_input>  (470) 
W0NIM11DKD1PKU4oW0NIMl1bQ0gyXTEpW0NIMl1jKG4xMiluYzNjMltjSF1bY0hdYyhbY0hdMylDKEYpKEYpRg==

>  <s_epik_cmdline>  (470) 
J2VwaWtfcHl0aG9uJywgJy1waHQnLCAnMi4wJywgJy1waCcsICc3LjAnLCAnLXRuJywgJzgnLCAnLW1hJywgJzIwMCcsICctaW1hZScsICc8aW5maWxlLm1hZT4nLCAnLW9tYWUnLCAnPG91dGZpbGUubWFlPic=

>  <r_epik_Ionization_Penalty>  (470) 
2.15734

>  <r_epik_Ionization_Penalty_Charging>  (470) 
2.15734

>  <r_epik_Ionization_Penalty_Neutral>  (470) 
3.70545e-09

>  <r_epik_State_Penalty>  (470) 
2.29765

>  <r_epik_Charging_Adjusted_Penalty>  (470) 
4.45499

>  <i_epik_Tot_Q>  (470) 
1

>  <i_epik_Tot_abs_Q>  (470) 
1

>  <s_lp_Force_Field>  (470) 
OPLS3e

>  <r_lp_Energy>  (470) 
37.0946

>  <b_lp_Chiralities_Consistent>  (470) 
1

>  <s_lp_Variant>  (470) 
113:0-2

>  <s_i_glide_gridfile>  (470) 
pfpi4k_grid

>  <i_i_glide_lignum>  (470) 
5

>  <i_i_glide_rotatable_bonds>  (470) 
2

>  <r_i_docking_score>  (470) 
-3.82527

>  <r_i_glide_ligand_efficiency>  (470) 
-0.191264

>  <r_i_glide_ligand_efficiency_sa>  (470) 
-0.51917

>  <r_i_glide_ligand_efficiency_ln>  (470) 
-0.95734

>  <r_i_glide_gscore>  (470) 
-3.82527

>  <r_i_glide_lipo>  (470) 
-0.0889954

>  <r_i_glide_hbond>  (470) 
-0.16

>  <r_i_glide_metal>  (470) 
-0

>  <r_i_glide_rewards>  (470) 
-1.65282

>  <r_i_glide_evdw>  (470) 
-20.9418

>  <r_i_glide_ecoul>  (470) 
-4.79004

>  <r_i_glide_erotb>  (470) 
0

>  <r_i_glide_esite>  (470) 
-0.157865

>  <r_i_glide_emodel>  (470) 
-33.8467

>  <r_i_glide_energy>  (470) 
-25.7319

>  <r_i_glide_einternal>  (470) 
0.155824

>  <r_i_glide_intrahb_reward>  (470) 
-0

>  <i_i_glide_confnum>  (470) 
2

>  <i_i_glide_posenum>  (470) 
29

>  <r_i_glide_eff_state_penalty>  (470) 
0

>  <ligand_id>  (470) 
113

>  <original_smiles>  (470) 
CC(=O)N1CCn2c(nc3cc(C(F)(F)F)ccc32)C1

>  <smiles>  (470) 
[H]c1c(C(F)(F)F)c([H])c2c(c1[H])n1c([n+]2[H])C([H])([H])N(C(=O)C([H])([H])[H])C([H])([H])C1([H])[H]

$$$$
114:0:0
     RDKit          3D

 40 43  0  0  1  0  0  0  0  0999 V2000
    4.7951   -3.7304    2.5378 C   0  0  0  0  0  0  0  0  0  0  0  0
    5.4151   -2.9108    1.3767 C   0  0  0  0  0  0  0  0  0  0  0  0
    5.4480   -1.4977    2.0252 C   0  0  0  0  0  0  0  0  0  0  0  0
    6.8649   -3.3965    1.1312 C   0  0  0  0  0  0  0  0  0  0  0  0
    4.6572   -2.8744   -0.0116 C   0  0  0  0  0  0  0  0  0  0  0  0
    3.6737   -3.7050   -0.4661 C   0  0  0  0  0  0  0  0  0  0  0  0
    3.1999   -4.9642    0.1606 C   0  0  0  0  0  0  0  0  0  0  0  0
    4.1333   -5.8898    0.6925 C   0  0  0  0  0  0  0  0  0  0  0  0
    3.7001   -6.9701    1.4927 C   0  0  0  0  0  0  0  0  0  0  0  0
    2.3235   -7.2107    1.5633 C   0  0  0  0  0  0  0  0  0  0  0  0
    1.4120   -6.4044    0.9157 C   0  0  0  0  0  0  0  0  0  0  0  0
    1.8197   -5.2870    0.1801 C   0  0  0  0  0  0  0  0  0  0  0  0
    0.1671   -6.8853    1.1033 O   0  0  0  0  0  0  0  0  0  0  0  0
    0.3135   -7.9572    2.0036 C   0  0  0  0  0  0  0  0  0  0  0  0
    1.6763   -8.2076    2.1986 O   0  0  0  0  0  0  0  0  0  0  0  0
    3.0303   -3.5036   -1.6878 N   0  0  0  0  0  0  0  0  0  0  0  0
    3.2647   -2.4162   -2.5040 C   0  0  0  0  0  0  0  0  0  0  0  0
    2.7090   -1.9615   -3.6637 C   0  0  0  0  0  0  0  0  0  0  0  0
    3.4889   -0.7989   -3.9434 C   0  0  0  0  0  0  0  0  0  0  0  0
    4.4392   -0.5957   -3.0469 N   0  0  0  0  0  0  0  0  0  0  0  0
    4.2741   -1.5786   -2.1474 N   0  0  0  0  0  0  0  0  0  0  0  0
    5.0419   -1.7911   -0.9519 C   0  0  0  0  0  0  0  0  0  0  0  0
    6.0284   -1.0748   -0.8358 O   0  0  0  0  0  0  0  0  0  0  0  0
    2.5937   -4.3208   -2.0921 H   0  0  0  0  0  0  0  0  0  0  0  0
    5.2625   -3.5197    3.4862 H   0  0  0  0  0  0  0  0  0  0  0  0
    5.0495   -4.7944    2.5263 H   0  0  0  0  0  0  0  0  0  0  0  0
    3.7211   -3.5943    2.6043 H   0  0  0  0  0  0  0  0  0  0  0  0
    4.4389   -1.0842    2.1086 H   0  0  0  0  0  0  0  0  0  0  0  0
    6.0776   -0.7590    1.5221 H   0  0  0  0  0  0  0  0  0  0  0  0
    5.8456   -1.5459    3.0435 H   0  0  0  0  0  0  0  0  0  0  0  0
    7.3865   -3.5145    2.0764 H   0  0  0  0  0  0  0  0  0  0  0  0
    7.4622   -2.7134    0.5170 H   0  0  0  0  0  0  0  0  0  0  0  0
    6.9020   -4.3697    0.6436 H   0  0  0  0  0  0  0  0  0  0  0  0
    5.1814   -5.6783    0.5969 H   0  0  0  0  0  0  0  0  0  0  0  0
    4.4165   -7.5522    2.0514 H   0  0  0  0  0  0  0  0  0  0  0  0
    1.1205   -4.6709   -0.3424 H   0  0  0  0  0  0  0  0  0  0  0  0
   -0.0873   -7.6405    2.9670 H   0  0  0  0  0  0  0  0  0  0  0  0
   -0.2180   -8.8606    1.6837 H   0  0  0  0  0  0  0  0  0  0  0  0
    1.8695   -2.3580   -4.2147 H   0  0  0  0  0  0  0  0  0  0  0  0
    3.3942   -0.1078   -4.7706 H   0  0  0  0  0  0  0  0  0  0  0  0
  1  2  1  0
  1 25  1  0
  1 26  1  0
  1 27  1  0
  2  3  1  0
  2  4  1  0
  2  5  1  0
  3 28  1  0
  3 29  1  0
  3 30  1  0
  4 31  1  0
  4 32  1  0
  4 33  1  0
  5 22  1  0
  5  6  2  0
  6  7  1  0
  6 16  1  0
  7 12  1  0
  7  8  2  0
  8  9  1  0
  8 34  1  0
  9 10  2  0
  9 35  1  0
 10 15  1  0
 10 11  1  0
 11 12  2  0
 11 13  1  0
 12 36  1  0
 13 14  1  0
 14 15  1  0
 14 37  1  0
 14 38  1  0
 16 24  1  0
 16 17  1  0
 17 21  1  0
 17 18  2  0
 18 19  1  0
 18 39  1  0
 19 20  2  0
 19 40  1  0
 20 21  1  0
 21 22  1  0
 22 23  2  0
M  END
>  <i_m_ct_stereo_status>  (471) 
1

>  <s_m_source_file>  (471) 
/var/tmp/pbs.5102103.sched01/tmp7htwmlud/1762k52hbh7.sdf

>  <i_m_source_file_index>  (471) 
6

>  <i_lp_mmshare_version>  (471) 
48012

>  <i_f3d_flags>  (471) 
0

>  <s_epik_input>  (471) 
W2NIXTFbY0hdbm4oYzEyKWMoPU8pYyhDKFtDSDNdKShbQ0gzXSlbQ0gzXSljKFtuSF0yKS1jKFtjSF1bY0hdMylbY0hdYyhjMzQpT1tDSDJdTzQ=

>  <s_epik_cmdline>  (471) 
J2VwaWtfcHl0aG9uJywgJy1waHQnLCAnMi4wJywgJy1waCcsICc3LjAnLCAnLXRuJywgJzgnLCAnLW1hJywgJzIwMCcsICctaW1hZScsICc8aW5maWxlLm1hZT4nLCAnLW9tYWUnLCAnPG91dGZpbGUubWFlPic=

>  <r_lp_tautomer_probability>  (471) 
1

>  <r_epik_Ionization_Penalty>  (471) 
0.270053

>  <r_epik_Ionization_Penalty_Charging>  (471) 
0.270052

>  <r_epik_Ionization_Penalty_Neutral>  (471) 
6.68694e-07

>  <r_epik_State_Penalty>  (471) 
0.262155

>  <r_epik_Charging_Adjusted_Penalty>  (471) 
0.532207

>  <i_epik_Tot_Q>  (471) 
0

>  <i_epik_Tot_abs_Q>  (471) 
0

>  <s_epik_Chemistry_Notes>  (471) 
This compound contains an acetal/aminal-like group ( X-CH(R)-Y where X, Y are N, S, or O) that may be acid/base labile, releasing an aldehyde.

>  <s_lp_Force_Field>  (471) 
OPLS3e

>  <r_lp_Energy>  (471) 
51.2102

>  <b_lp_Chiralities_Consistent>  (471) 
1

>  <s_lp_Variant>  (471) 
114:0-1

>  <s_i_glide_gridfile>  (471) 
pfpi4k_grid

>  <i_i_glide_lignum>  (471) 
6

>  <i_i_glide_rotatable_bonds>  (471) 
2

>  <r_i_docking_score>  (471) 
-4.50811

>  <r_i_glide_ligand_efficiency>  (471) 
-0.196005

>  <r_i_glide_ligand_efficiency_sa>  (471) 
-0.557412

>  <r_i_glide_ligand_efficiency_ln>  (471) 
-1.0901

>  <r_i_glide_gscore>  (471) 
-4.50811

>  <r_i_glide_lipo>  (471) 
-0.835025

>  <r_i_glide_hbond>  (471) 
-0.415123

>  <r_i_glide_metal>  (471) 
-0

>  <r_i_glide_rewards>  (471) 
-1.28635

>  <r_i_glide_evdw>  (471) 
-21.7233

>  <r_i_glide_ecoul>  (471) 
-6.33917

>  <r_i_glide_erotb>  (471) 
0.191312

>  <r_i_glide_esite>  (471) 
-0.125885

>  <r_i_glide_emodel>  (471) 
-33.926

>  <r_i_glide_energy>  (471) 
-28.0625

>  <r_i_glide_einternal>  (471) 
0.0748169

>  <r_i_glide_intrahb_reward>  (471) 
-0

>  <i_i_glide_confnum>  (471) 
4

>  <i_i_glide_posenum>  (471) 
13

>  <r_i_glide_eff_state_penalty>  (471) 
0

>  <ligand_id>  (471) 
114

>  <original_smiles>  (471) 
CC(C)(C)c1c(-c2ccc3c(c2)OCO3)[nH]c2ccnn2c1=O

>  <smiles>  (471) 
[H]c1nn2c(=O)c(C(C([H])([H])[H])(C([H])([H])[H])C([H])([H])[H])c(-c3c([H])c([H])c4c(c3[H])OC([H])([H])O4)n([H])c2c1[H]

$$$$
114:0:1
     RDKit          3D

 40 43  0  0  1  0  0  0  0  0999 V2000
    6.0651   -1.2838    1.8697 C   0  0  0  0  0  0  0  0  0  0  0  0
    4.7125   -2.0271    1.9070 C   0  0  0  0  0  0  0  0  0  0  0  0
    5.1035   -3.2680    2.7863 C   0  0  0  0  0  0  0  0  0  0  0  0
    3.7717   -0.9990    2.6284 C   0  0  0  0  0  0  0  0  0  0  0  0
    4.1358   -2.3790    0.4717 C   0  0  0  0  0  0  0  0  0  0  0  0
    3.2697   -3.4367    0.1662 C   0  0  0  0  0  0  0  0  0  0  0  0
    2.6906   -4.4379    1.1061 C   0  0  0  0  0  0  0  0  0  0  0  0
    2.1180   -4.0776    2.3650 C   0  0  0  0  0  0  0  0  0  0  0  0
    1.7005   -5.0465    3.2828 C   0  0  0  0  0  0  0  0  0  0  0  0
    1.6635   -6.3790    2.8605 C   0  0  0  0  0  0  0  0  0  0  0  0
    2.0846   -6.7484    1.5910 C   0  0  0  0  0  0  0  0  0  0  0  0
    2.6189   -5.8067    0.7019 C   0  0  0  0  0  0  0  0  0  0  0  0
    1.9080   -8.0785    1.4422 O   0  0  0  0  0  0  0  0  0  0  0  0
    1.2314   -8.5164    2.5958 C   0  0  0  0  0  0  0  0  0  0  0  0
    1.2312   -7.4689    3.5277 O   0  0  0  0  0  0  0  0  0  0  0  0
    2.8005   -3.6311   -1.1360 N   0  0  0  0  0  0  0  0  0  0  0  0
    3.0518   -2.7685   -2.1987 C   0  0  0  0  0  0  0  0  0  0  0  0
    2.6168   -2.6711   -3.4850 C   0  0  0  0  0  0  0  0  0  0  0  0
    3.3721   -1.5817   -4.0202 C   0  0  0  0  0  0  0  0  0  0  0  0
    4.1929   -1.0645   -3.1157 N   0  0  0  0  0  0  0  0  0  0  0  0
    3.9579   -1.7603   -1.9739 N   0  0  0  0  0  0  0  0  0  0  0  0
    4.5965   -1.5853   -0.7020 C   0  0  0  0  0  0  0  0  0  0  0  0
    5.5445   -0.7862   -0.7466 O   0  0  0  0  0  0  0  0  0  0  0  0
    2.3137   -4.4806   -1.3688 H   0  0  0  0  0  0  0  0  0  0  0  0
    6.4972   -1.1520    2.8819 H   0  0  0  0  0  0  0  0  0  0  0  0
    6.0009   -0.2590    1.5167 H   0  0  0  0  0  0  0  0  0  0  0  0
    6.8373   -1.8080    1.2944 H   0  0  0  0  0  0  0  0  0  0  0  0
    5.7076   -3.9668    2.2061 H   0  0  0  0  0  0  0  0  0  0  0  0
    4.2948   -3.8447    3.2434 H   0  0  0  0  0  0  0  0  0  0  0  0
    5.6998   -2.9781    3.6459 H   0  0  0  0  0  0  0  0  0  0  0  0
    4.2050   -0.6777    3.5805 H   0  0  0  0  0  0  0  0  0  0  0  0
    2.7466   -1.2671    2.8277 H   0  0  0  0  0  0  0  0  0  0  0  0
    3.6822   -0.0894    2.0050 H   0  0  0  0  0  0  0  0  0  0  0  0
    2.0129   -3.0516    2.6824 H   0  0  0  0  0  0  0  0  0  0  0  0
    1.3802   -4.7650    4.2856 H   0  0  0  0  0  0  0  0  0  0  0  0
    2.9906   -6.1364   -0.2721 H   0  0  0  0  0  0  0  0  0  0  0  0
    0.1901   -8.7103    2.3320 H   0  0  0  0  0  0  0  0  0  0  0  0
    1.7220   -9.3980    3.0226 H   0  0  0  0  0  0  0  0  0  0  0  0
    1.8700   -3.3016   -3.9537 H   0  0  0  0  0  0  0  0  0  0  0  0
    3.3711   -1.1472   -5.0048 H   0  0  0  0  0  0  0  0  0  0  0  0
  1  2  1  0
  1 25  1  0
  1 26  1  0
  1 27  1  0
  2  3  1  0
  2  4  1  0
  2  5  1  0
  3 28  1  0
  3 29  1  0
  3 30  1  0
  4 31  1  0
  4 32  1  0
  4 33  1  0
  5 22  1  0
  5  6  2  0
  6  7  1  0
  6 16  1  0
  7 12  1  0
  7  8  2  0
  8  9  1  0
  8 34  1  0
  9 10  2  0
  9 35  1  0
 10 15  1  0
 10 11  1  0
 11 12  2  0
 11 13  1  0
 12 36  1  0
 13 14  1  0
 14 15  1  0
 14 37  1  0
 14 38  1  0
 16 24  1  0
 16 17  1  0
 17 21  1  0
 17 18  2  0
 18 19  1  0
 18 39  1  0
 19 20  2  0
 19 40  1  0
 20 21  1  0
 21 22  1  0
 22 23  2  0
M  END
>  <i_m_ct_stereo_status>  (472) 
1

>  <s_m_source_file>  (472) 
/var/tmp/pbs.5102103.sched01/tmp7htwmlud/1762k52hbh7.sdf

>  <i_m_source_file_index>  (472) 
6

>  <i_lp_mmshare_version>  (472) 
48012

>  <i_f3d_flags>  (472) 
0

>  <s_epik_input>  (472) 
W2NIXTFbY0hdbm4oYzEyKWMoPU8pYyhDKFtDSDNdKShbQ0gzXSlbQ0gzXSljKFtuSF0yKS1jKFtjSF1bY0hdMylbY0hdYyhjMzQpT1tDSDJdTzQ=

>  <s_epik_cmdline>  (472) 
J2VwaWtfcHl0aG9uJywgJy1waHQnLCAnMi4wJywgJy1waCcsICc3LjAnLCAnLXRuJywgJzgnLCAnLW1hJywgJzIwMCcsICctaW1hZScsICc8aW5maWxlLm1hZT4nLCAnLW9tYWUnLCAnPG91dGZpbGUubWFlPic=

>  <r_lp_tautomer_probability>  (472) 
1

>  <r_epik_Ionization_Penalty>  (472) 
0.270053

>  <r_epik_Ionization_Penalty_Charging>  (472) 
0.270052

>  <r_epik_Ionization_Penalty_Neutral>  (472) 
6.68694e-07

>  <r_epik_State_Penalty>  (472) 
0.262155

>  <r_epik_Charging_Adjusted_Penalty>  (472) 
0.532207

>  <i_epik_Tot_Q>  (472) 
0

>  <i_epik_Tot_abs_Q>  (472) 
0

>  <s_epik_Chemistry_Notes>  (472) 
This compound contains an acetal/aminal-like group ( X-CH(R)-Y where X, Y are N, S, or O) that may be acid/base labile, releasing an aldehyde.

>  <s_lp_Force_Field>  (472) 
OPLS3e

>  <r_lp_Energy>  (472) 
51.2102

>  <b_lp_Chiralities_Consistent>  (472) 
1

>  <s_lp_Variant>  (472) 
114:0-1

>  <s_i_glide_gridfile>  (472) 
pfpi4k_grid

>  <i_i_glide_lignum>  (472) 
6

>  <i_i_glide_rotatable_bonds>  (472) 
2

>  <r_i_docking_score>  (472) 
-3.81352

>  <r_i_glide_ligand_efficiency>  (472) 
-0.165805

>  <r_i_glide_ligand_efficiency_sa>  (472) 
-0.471527

>  <r_i_glide_ligand_efficiency_ln>  (472) 
-0.922143

>  <r_i_glide_gscore>  (472) 
-3.81352

>  <r_i_glide_lipo>  (472) 
-0.536943

>  <r_i_glide_hbond>  (472) 
-0.145685

>  <r_i_glide_metal>  (472) 
-0

>  <r_i_glide_rewards>  (472) 
-1.28635

>  <r_i_glide_evdw>  (472) 
-27.1082

>  <r_i_glide_ecoul>  (472) 
-3.95455

>  <r_i_glide_erotb>  (472) 
0.191312

>  <r_i_glide_esite>  (472) 
-0.0872574

>  <r_i_glide_emodel>  (472) 
-34.9532

>  <r_i_glide_energy>  (472) 
-31.0627

>  <r_i_glide_einternal>  (472) 
3.24498

>  <r_i_glide_intrahb_reward>  (472) 
-0

>  <i_i_glide_confnum>  (472) 
1

>  <i_i_glide_posenum>  (472) 
38

>  <r_i_glide_eff_state_penalty>  (472) 
0

>  <ligand_id>  (472) 
114

>  <original_smiles>  (472) 
CC(C)(C)c1c(-c2ccc3c(c2)OCO3)[nH]c2ccnn2c1=O

>  <smiles>  (472) 
[H]c1nn2c(=O)c(C(C([H])([H])[H])(C([H])([H])[H])C([H])([H])[H])c(-c3c([H])c([H])c4c(c3[H])OC([H])([H])O4)n([H])c2c1[H]

$$$$
114:0:2
     RDKit          3D

 40 43  0  0  1  0  0  0  0  0999 V2000
    6.0646   -1.2551    1.8608 C   0  0  0  0  0  0  0  0  0  0  0  0
    4.6332   -1.8825    1.8681 C   0  0  0  0  0  0  0  0  0  0  0  0
    4.8536   -3.0989    2.8399 C   0  0  0  0  0  0  0  0  0  0  0  0
    3.7149   -0.7720    2.4882 C   0  0  0  0  0  0  0  0  0  0  0  0
    4.0790   -2.2594    0.4280 C   0  0  0  0  0  0  0  0  0  0  0  0
    3.2045   -3.2970    0.1413 C   0  0  0  0  0  0  0  0  0  0  0  0
    2.6453   -4.2988    1.0800 C   0  0  0  0  0  0  0  0  0  0  0  0
    2.5416   -5.6505    0.7097 C   0  0  0  0  0  0  0  0  0  0  0  0
    2.0760   -6.6362    1.6238 C   0  0  0  0  0  0  0  0  0  0  0  0
    1.6839   -6.1934    2.9053 C   0  0  0  0  0  0  0  0  0  0  0  0
    1.7121   -4.8737    3.2458 C   0  0  0  0  0  0  0  0  0  0  0  0
    2.1031   -3.8759    2.3342 C   0  0  0  0  0  0  0  0  0  0  0  0
    1.3942   -4.7066    4.5481 O   0  0  0  0  0  0  0  0  0  0  0  0
    1.2483   -6.0023    5.0597 C   0  0  0  0  0  0  0  0  0  0  0  0
    1.3249   -6.9202    3.9953 O   0  0  0  0  0  0  0  0  0  0  0  0
    2.7335   -3.5143   -1.1576 N   0  0  0  0  0  0  0  0  0  0  0  0
    3.0230   -2.6842   -2.2335 C   0  0  0  0  0  0  0  0  0  0  0  0
    2.6024   -2.6212   -3.5200 C   0  0  0  0  0  0  0  0  0  0  0  0
    3.4097   -1.5357   -4.0549 C   0  0  0  0  0  0  0  0  0  0  0  0
    4.2109   -1.0273   -3.1508 N   0  0  0  0  0  0  0  0  0  0  0  0
    3.9430   -1.7019   -2.0220 N   0  0  0  0  0  0  0  0  0  0  0  0
    4.5502   -1.4950   -0.7426 C   0  0  0  0  0  0  0  0  0  0  0  0
    5.5012   -0.6996   -0.7735 O   0  0  0  0  0  0  0  0  0  0  0  0
    2.3108   -4.3952   -1.3672 H   0  0  0  0  0  0  0  0  0  0  0  0
    6.4319   -1.1283    2.8786 H   0  0  0  0  0  0  0  0  0  0  0  0
    6.1081   -0.2459    1.4479 H   0  0  0  0  0  0  0  0  0  0  0  0
    6.7749   -1.8942    1.3330 H   0  0  0  0  0  0  0  0  0  0  0  0
    5.3885   -3.9061    2.3055 H   0  0  0  0  0  0  0  0  0  0  0  0
    3.9883   -3.4825    3.3209 H   0  0  0  0  0  0  0  0  0  0  0  0
    5.4348   -2.7802    3.7167 H   0  0  0  0  0  0  0  0  0  0  0  0
    4.1112   -0.4432    3.4553 H   0  0  0  0  0  0  0  0  0  0  0  0
    2.6833   -1.0643    2.6516 H   0  0  0  0  0  0  0  0  0  0  0  0
    3.6549    0.1077    1.8331 H   0  0  0  0  0  0  0  0  0  0  0  0
    2.8908   -5.9688   -0.2690 H   0  0  0  0  0  0  0  0  0  0  0  0
    2.0416   -7.6678    1.3586 H   0  0  0  0  0  0  0  0  0  0  0  0
    2.0722   -2.8359    2.6462 H   0  0  0  0  0  0  0  0  0  0  0  0
    2.0749   -6.2266    5.7358 H   0  0  0  0  0  0  0  0  0  0  0  0
    0.2992   -6.0785    5.5921 H   0  0  0  0  0  0  0  0  0  0  0  0
    1.8711   -3.2142   -4.0238 H   0  0  0  0  0  0  0  0  0  0  0  0
    3.4092   -1.1379   -5.0413 H   0  0  0  0  0  0  0  0  0  0  0  0
  1  2  1  0
  1 25  1  0
  1 26  1  0
  1 27  1  0
  2  3  1  0
  2  4  1  0
  2  5  1  0
  3 28  1  0
  3 29  1  0
  3 30  1  0
  4 31  1  0
  4 32  1  0
  4 33  1  0
  5 22  1  0
  5  6  2  0
  6  7  1  0
  6 16  1  0
  7 12  1  0
  7  8  2  0
  8  9  1  0
  8 34  1  0
  9 10  2  0
  9 35  1  0
 10 15  1  0
 10 11  1  0
 11 12  2  0
 11 13  1  0
 12 36  1  0
 13 14  1  0
 14 15  1  0
 14 37  1  0
 14 38  1  0
 16 24  1  0
 16 17  1  0
 17 21  1  0
 17 18  2  0
 18 19  1  0
 18 39  1  0
 19 20  2  0
 19 40  1  0
 20 21  1  0
 21 22  1  0
 22 23  2  0
M  END
>  <i_m_ct_stereo_status>  (473) 
1

>  <s_m_source_file>  (473) 
/var/tmp/pbs.5102103.sched01/tmp7htwmlud/1762k52hbh7.sdf

>  <i_m_source_file_index>  (473) 
6

>  <i_lp_mmshare_version>  (473) 
48012

>  <i_f3d_flags>  (473) 
0

>  <s_epik_input>  (473) 
W2NIXTFbY0hdbm4oYzEyKWMoPU8pYyhDKFtDSDNdKShbQ0gzXSlbQ0gzXSljKFtuSF0yKS1jKFtjSF1bY0hdMylbY0hdYyhjMzQpT1tDSDJdTzQ=

>  <s_epik_cmdline>  (473) 
J2VwaWtfcHl0aG9uJywgJy1waHQnLCAnMi4wJywgJy1waCcsICc3LjAnLCAnLXRuJywgJzgnLCAnLW1hJywgJzIwMCcsICctaW1hZScsICc8aW5maWxlLm1hZT4nLCAnLW9tYWUnLCAnPG91dGZpbGUubWFlPic=

>  <r_lp_tautomer_probability>  (473) 
1

>  <r_epik_Ionization_Penalty>  (473) 
0.270053

>  <r_epik_Ionization_Penalty_Charging>  (473) 
0.270052

>  <r_epik_Ionization_Penalty_Neutral>  (473) 
6.68694e-07

>  <r_epik_State_Penalty>  (473) 
0.262155

>  <r_epik_Charging_Adjusted_Penalty>  (473) 
0.532207

>  <i_epik_Tot_Q>  (473) 
0

>  <i_epik_Tot_abs_Q>  (473) 
0

>  <s_epik_Chemistry_Notes>  (473) 
This compound contains an acetal/aminal-like group ( X-CH(R)-Y where X, Y are N, S, or O) that may be acid/base labile, releasing an aldehyde.

>  <s_lp_Force_Field>  (473) 
OPLS3e

>  <r_lp_Energy>  (473) 
51.2102

>  <b_lp_Chiralities_Consistent>  (473) 
1

>  <s_lp_Variant>  (473) 
114:0-1

>  <s_i_glide_gridfile>  (473) 
pfpi4k_grid

>  <i_i_glide_lignum>  (473) 
6

>  <i_i_glide_rotatable_bonds>  (473) 
2

>  <r_i_docking_score>  (473) 
-3.53918

>  <r_i_glide_ligand_efficiency>  (473) 
-0.153877

>  <r_i_glide_ligand_efficiency_sa>  (473) 
-0.437607

>  <r_i_glide_ligand_efficiency_ln>  (473) 
-0.855806

>  <r_i_glide_gscore>  (473) 
-3.53918

>  <r_i_glide_lipo>  (473) 
-0.520669

>  <r_i_glide_hbond>  (473) 
-0.123308

>  <r_i_glide_metal>  (473) 
-0

>  <r_i_glide_rewards>  (473) 
-1.28635

>  <r_i_glide_evdw>  (473) 
-26.3036

>  <r_i_glide_ecoul>  (473) 
-2.70058

>  <r_i_glide_erotb>  (473) 
0.191312

>  <r_i_glide_esite>  (473) 
-0.0798966

>  <r_i_glide_emodel>  (473) 
-32.2631

>  <r_i_glide_energy>  (473) 
-29.0042

>  <r_i_glide_einternal>  (473) 
2.83047

>  <r_i_glide_intrahb_reward>  (473) 
-0

>  <i_i_glide_confnum>  (473) 
4

>  <i_i_glide_posenum>  (473) 
29

>  <r_i_glide_eff_state_penalty>  (473) 
0

>  <ligand_id>  (473) 
114

>  <original_smiles>  (473) 
CC(C)(C)c1c(-c2ccc3c(c2)OCO3)[nH]c2ccnn2c1=O

>  <smiles>  (473) 
[H]c1nn2c(=O)c(C(C([H])([H])[H])(C([H])([H])[H])C([H])([H])[H])c(-c3c([H])c([H])c4c(c3[H])OC([H])([H])O4)n([H])c2c1[H]

$$$$
114:1:0
     RDKit          3D

 39 42  0  0  1  0  0  0  0  0999 V2000
    7.7360   -6.9481    1.1795 C   0  0  0  0  0  0  0  0  0  0  0  0
    6.3887   -6.6067    1.8936 C   0  0  0  0  0  0  0  0  0  0  0  0
    5.5041   -7.8329    1.4419 C   0  0  0  0  0  0  0  0  0  0  0  0
    6.7109   -6.6799    3.4284 C   0  0  0  0  0  0  0  0  0  0  0  0
    5.8389   -5.1574    1.4770 C   0  0  0  0  0  0  0  0  0  0  0  0
    4.4127   -4.8114    1.5752 C   0  0  0  0  0  0  0  0  0  0  0  0
    3.2898   -5.6737    2.0374 C   0  0  0  0  0  0  0  0  0  0  0  0
    3.3710   -6.4648    3.2276 C   0  0  0  0  0  0  0  0  0  0  0  0
    2.3438   -7.3095    3.6347 C   0  0  0  0  0  0  0  0  0  0  0  0
    1.1708   -7.3393    2.8667 C   0  0  0  0  0  0  0  0  0  0  0  0
    1.0350   -6.5585    1.7338 C   0  0  0  0  0  0  0  0  0  0  0  0
    2.0705   -5.7043    1.2832 C   0  0  0  0  0  0  0  0  0  0  0  0
   -0.2103   -6.7279    1.2249 O   0  0  0  0  0  0  0  0  0  0  0  0
   -0.7664   -7.7796    1.9701 C   0  0  0  0  0  0  0  0  0  0  0  0
    0.0545   -8.0698    3.0594 O   0  0  0  0  0  0  0  0  0  0  0  0
    3.9232   -3.6113    1.2348 N   0  0  0  0  0  0  0  0  0  0  0  0
    4.7507   -2.6699    0.8039 C   0  0  0  0  0  0  0  0  0  0  0  0
    4.5403   -1.3749    0.4068 C   0  0  0  0  0  0  0  0  0  0  0  0
    5.8171   -0.8893    0.0904 C   0  0  0  0  0  0  0  0  0  0  0  0
    6.7792   -1.7817    0.2317 N   0  0  0  0  0  0  0  0  0  0  0  0
    6.1282   -2.8988    0.6931 N   0  0  0  0  0  0  0  0  0  0  0  0
    6.6654   -4.1227    1.0315 C   0  0  0  0  0  0  0  0  0  0  0  0
    8.0385   -4.1546    0.8961 O   0  0  0  0  0  0  0  0  0  0  0  0
    7.9927   -8.0105    1.2400 H   0  0  0  0  0  0  0  0  0  0  0  0
    8.5859   -6.4324    1.6333 H   0  0  0  0  0  0  0  0  0  0  0  0
    7.7051   -6.6739    0.1189 H   0  0  0  0  0  0  0  0  0  0  0  0
    5.3346   -7.8633    0.3572 H   0  0  0  0  0  0  0  0  0  0  0  0
    4.5208   -7.9412    1.8980 H   0  0  0  0  0  0  0  0  0  0  0  0
    5.9915   -8.7705    1.7481 H   0  0  0  0  0  0  0  0  0  0  0  0
    6.7096   -7.7272    3.7510 H   0  0  0  0  0  0  0  0  0  0  0  0
    6.0266   -6.1298    4.0704 H   0  0  0  0  0  0  0  0  0  0  0  0
    7.6730   -6.2262    3.6836 H   0  0  0  0  0  0  0  0  0  0  0  0
    4.2327   -6.4827    3.8586 H   0  0  0  0  0  0  0  0  0  0  0  0
    2.5061   -7.9779    4.4593 H   0  0  0  0  0  0  0  0  0  0  0  0
    1.9541   -5.1140    0.3625 H   0  0  0  0  0  0  0  0  0  0  0  0
   -1.7609   -7.5367    2.3214 H   0  0  0  0  0  0  0  0  0  0  0  0
   -0.7556   -8.6651    1.3520 H   0  0  0  0  0  0  0  0  0  0  0  0
    3.5959   -0.8447    0.3554 H   0  0  0  0  0  0  0  0  0  0  0  0
    6.0665    0.1023   -0.2491 H   0  0  0  0  0  0  0  0  0  0  0  0
  1  2  1  0
  1 24  1  0
  1 25  1  0
  1 26  1  0
  2  3  1  0
  2  4  1  0
  2  5  1  0
  3 27  1  0
  3 28  1  0
  3 29  1  0
  4 30  1  0
  4 31  1  0
  4 32  1  0
  5 22  2  0
  5  6  1  0
  6  7  1  0
  6 16  2  0
  7 12  1  0
  7  8  2  0
  8  9  1  0
  8 33  1  0
  9 10  2  0
  9 34  1  0
 10 15  1  0
 10 11  1  0
 11 12  2  0
 11 13  1  0
 12 35  1  0
 13 14  1  0
 14 15  1  0
 14 36  1  0
 14 37  1  0
 16 17  1  0
 17 21  1  0
 17 18  2  0
 18 19  1  0
 18 38  1  0
 19 20  2  0
 19 39  1  0
 20 21  1  0
 21 22  1  0
 22 23  1  0
M  CHG  1  23  -1
M  END
>  <i_m_ct_stereo_status>  (474) 
1

>  <s_m_source_file>  (474) 
/var/tmp/pbs.5102103.sched01/tmp7htwmlud/1762k52hbh7.sdf

>  <i_m_source_file_index>  (474) 
7

>  <i_lp_mmshare_version>  (474) 
48012

>  <i_f3d_flags>  (474) 
0

>  <s_epik_input>  (474) 
W2NIXTFbY0hdbm4oYzEyKWMoPU8pYyhDKFtDSDNdKShbQ0gzXSlbQ0gzXSljKFtuSF0yKS1jKFtjSF1bY0hdMylbY0hdYyhjMzQpT1tDSDJdTzQ=

>  <s_epik_cmdline>  (474) 
J2VwaWtfcHl0aG9uJywgJy1waHQnLCAnMi4wJywgJy1waCcsICc3LjAnLCAnLXRuJywgJzgnLCAnLW1hJywgJzIwMCcsICctaW1hZScsICc8aW5maWxlLm1hZT4nLCAnLW9tYWUnLCAnPG91dGZpbGUubWFlPic=

>  <r_lp_tautomer_probability>  (474) 
1

>  <r_epik_Ionization_Penalty>  (474) 
0.595438

>  <r_epik_Ionization_Penalty_Charging>  (474) 
7.78032e-10

>  <r_epik_Ionization_Penalty_Neutral>  (474) 
0.595438

>  <r_epik_State_Penalty>  (474) 
0.609359

>  <r_epik_Charging_Adjusted_Penalty>  (474) 
0.609359

>  <i_epik_Tot_Q>  (474) 
-1

>  <i_epik_Tot_abs_Q>  (474) 
1

>  <s_epik_Chemistry_Notes>  (474) 
This compound contains an acetal/aminal-like group ( X-CH(R)-Y where X, Y are N, S, or O) that may be acid/base labile, releasing an aldehyde.

>  <s_lp_Force_Field>  (474) 
OPLS3e

>  <r_lp_Energy>  (474) 
49.6698

>  <b_lp_Chiralities_Consistent>  (474) 
1

>  <s_lp_Variant>  (474) 
114:0-2

>  <s_i_glide_gridfile>  (474) 
pfpi4k_grid

>  <i_i_glide_lignum>  (474) 
7

>  <i_i_glide_rotatable_bonds>  (474) 
2

>  <r_i_docking_score>  (474) 
-3.19045

>  <r_i_glide_ligand_efficiency>  (474) 
-0.138715

>  <r_i_glide_ligand_efficiency_sa>  (474) 
-0.394488

>  <r_i_glide_ligand_efficiency_ln>  (474) 
-0.77148

>  <r_i_glide_gscore>  (474) 
-3.19045

>  <r_i_glide_lipo>  (474) 
-0.369818

>  <r_i_glide_hbond>  (474) 
-0.174868

>  <r_i_glide_metal>  (474) 
-0

>  <r_i_glide_rewards>  (474) 
-1.42557

>  <r_i_glide_evdw>  (474) 
-21.5092

>  <r_i_glide_ecoul>  (474) 
-1.6997

>  <r_i_glide_erotb>  (474) 
0.192405

>  <r_i_glide_esite>  (474) 
-0.0821878

>  <r_i_glide_emodel>  (474) 
-26.1682

>  <r_i_glide_energy>  (474) 
-23.2089

>  <r_i_glide_einternal>  (474) 
2.71584

>  <r_i_glide_intrahb_reward>  (474) 
-0

>  <i_i_glide_confnum>  (474) 
4

>  <i_i_glide_posenum>  (474) 
34

>  <r_i_glide_eff_state_penalty>  (474) 
0

>  <ligand_id>  (474) 
114

>  <original_smiles>  (474) 
CC(C)(C)c1c(-c2ccc3c(c2)OCO3)[nH]c2ccnn2c1=O

>  <smiles>  (474) 
[H]c1nn2c([O-])c(C(C([H])([H])[H])(C([H])([H])[H])C([H])([H])[H])c(-c3c([H])c([H])c4c(c3[H])OC([H])([H])O4)nc2c1[H]

$$$$
114:1:1
     RDKit          3D

 39 42  0  0  1  0  0  0  0  0999 V2000
    6.0432   -5.5286    3.3497 C   0  0  0  0  0  0  0  0  0  0  0  0
    6.1181   -5.8039    1.8272 C   0  0  0  0  0  0  0  0  0  0  0  0
    7.6457   -6.0079    1.6389 C   0  0  0  0  0  0  0  0  0  0  0  0
    5.5102   -7.2088    1.5073 C   0  0  0  0  0  0  0  0  0  0  0  0
    5.4359   -4.6909    0.9231 C   0  0  0  0  0  0  0  0  0  0  0  0
    3.9799   -4.5164    0.8236 C   0  0  0  0  0  0  0  0  0  0  0  0
    2.9522   -5.3142    1.5253 C   0  0  0  0  0  0  0  0  0  0  0  0
    2.9116   -5.3922    2.9477 C   0  0  0  0  0  0  0  0  0  0  0  0
    2.0271   -6.2512    3.6372 C   0  0  0  0  0  0  0  0  0  0  0  0
    1.0150   -6.8408    2.8812 C   0  0  0  0  0  0  0  0  0  0  0  0
    0.9287   -6.6551    1.5113 C   0  0  0  0  0  0  0  0  0  0  0  0
    1.9007   -5.9266    0.7981 C   0  0  0  0  0  0  0  0  0  0  0  0
   -0.2116   -7.2426    1.0436 O   0  0  0  0  0  0  0  0  0  0  0  0
   -0.7137   -7.9611    2.1299 C   0  0  0  0  0  0  0  0  0  0  0  0
   -0.0559   -7.5707    3.3006 O   0  0  0  0  0  0  0  0  0  0  0  0
    3.3739   -3.5932    0.1001 N   0  0  0  0  0  0  0  0  0  0  0  0
    4.1000   -2.7521   -0.6254 C   0  0  0  0  0  0  0  0  0  0  0  0
    3.7847   -1.7281   -1.4547 C   0  0  0  0  0  0  0  0  0  0  0  0
    5.0237   -1.2221   -1.9134 C   0  0  0  0  0  0  0  0  0  0  0  0
    6.0575   -1.8513   -1.4374 N   0  0  0  0  0  0  0  0  0  0  0  0
    5.5069   -2.8289   -0.6138 N   0  0  0  0  0  0  0  0  0  0  0  0
    6.1688   -3.7591    0.1381 C   0  0  0  0  0  0  0  0  0  0  0  0
    7.5490   -3.6915    0.0399 O   0  0  0  0  0  0  0  0  0  0  0  0
    6.7708   -6.0778    3.9295 H   0  0  0  0  0  0  0  0  0  0  0  0
    5.1483   -5.9666    3.8195 H   0  0  0  0  0  0  0  0  0  0  0  0
    6.1213   -4.4706    3.5616 H   0  0  0  0  0  0  0  0  0  0  0  0
    8.2019   -5.1142    1.9370 H   0  0  0  0  0  0  0  0  0  0  0  0
    7.9202   -6.2922    0.6127 H   0  0  0  0  0  0  0  0  0  0  0  0
    8.0240   -6.7900    2.3001 H   0  0  0  0  0  0  0  0  0  0  0  0
    6.1231   -8.0196    1.9039 H   0  0  0  0  0  0  0  0  0  0  0  0
    5.4127   -7.3713    0.4347 H   0  0  0  0  0  0  0  0  0  0  0  0
    4.5232   -7.3639    1.9318 H   0  0  0  0  0  0  0  0  0  0  0  0
    3.5718   -4.7690    3.5143 H   0  0  0  0  0  0  0  0  0  0  0  0
    2.0986   -6.3844    4.6972 H   0  0  0  0  0  0  0  0  0  0  0  0
    1.8132   -5.7694   -0.2861 H   0  0  0  0  0  0  0  0  0  0  0  0
   -1.7846   -7.8217    2.2289 H   0  0  0  0  0  0  0  0  0  0  0  0
   -0.4779   -9.0128    1.9811 H   0  0  0  0  0  0  0  0  0  0  0  0
    2.7959   -1.3533   -1.7095 H   0  0  0  0  0  0  0  0  0  0  0  0
    5.1666   -0.3902   -2.5843 H   0  0  0  0  0  0  0  0  0  0  0  0
  1  2  1  0
  1 24  1  0
  1 25  1  0
  1 26  1  0
  2  3  1  0
  2  4  1  0
  2  5  1  0
  3 27  1  0
  3 28  1  0
  3 29  1  0
  4 30  1  0
  4 31  1  0
  4 32  1  0
  5 22  2  0
  5  6  1  0
  6  7  1  0
  6 16  2  0
  7 12  1  0
  7  8  2  0
  8  9  1  0
  8 33  1  0
  9 10  2  0
  9 34  1  0
 10 15  1  0
 10 11  1  0
 11 12  2  0
 11 13  1  0
 12 35  1  0
 13 14  1  0
 14 15  1  0
 14 36  1  0
 14 37  1  0
 16 17  1  0
 17 21  1  0
 17 18  2  0
 18 19  1  0
 18 38  1  0
 19 20  2  0
 19 39  1  0
 20 21  1  0
 21 22  1  0
 22 23  1  0
M  CHG  1  23  -1
M  END
>  <i_m_ct_stereo_status>  (475) 
1

>  <s_m_source_file>  (475) 
/var/tmp/pbs.5102103.sched01/tmp7htwmlud/1762k52hbh7.sdf

>  <i_m_source_file_index>  (475) 
7

>  <i_lp_mmshare_version>  (475) 
48012

>  <i_f3d_flags>  (475) 
0

>  <s_epik_input>  (475) 
W2NIXTFbY0hdbm4oYzEyKWMoPU8pYyhDKFtDSDNdKShbQ0gzXSlbQ0gzXSljKFtuSF0yKS1jKFtjSF1bY0hdMylbY0hdYyhjMzQpT1tDSDJdTzQ=

>  <s_epik_cmdline>  (475) 
J2VwaWtfcHl0aG9uJywgJy1waHQnLCAnMi4wJywgJy1waCcsICc3LjAnLCAnLXRuJywgJzgnLCAnLW1hJywgJzIwMCcsICctaW1hZScsICc8aW5maWxlLm1hZT4nLCAnLW9tYWUnLCAnPG91dGZpbGUubWFlPic=

>  <r_lp_tautomer_probability>  (475) 
1

>  <r_epik_Ionization_Penalty>  (475) 
0.595438

>  <r_epik_Ionization_Penalty_Charging>  (475) 
7.78032e-10

>  <r_epik_Ionization_Penalty_Neutral>  (475) 
0.595438

>  <r_epik_State_Penalty>  (475) 
0.609359

>  <r_epik_Charging_Adjusted_Penalty>  (475) 
0.609359

>  <i_epik_Tot_Q>  (475) 
-1

>  <i_epik_Tot_abs_Q>  (475) 
1

>  <s_epik_Chemistry_Notes>  (475) 
This compound contains an acetal/aminal-like group ( X-CH(R)-Y where X, Y are N, S, or O) that may be acid/base labile, releasing an aldehyde.

>  <s_lp_Force_Field>  (475) 
OPLS3e

>  <r_lp_Energy>  (475) 
49.6698

>  <b_lp_Chiralities_Consistent>  (475) 
1

>  <s_lp_Variant>  (475) 
114:0-2

>  <s_i_glide_gridfile>  (475) 
pfpi4k_grid

>  <i_i_glide_lignum>  (475) 
7

>  <i_i_glide_rotatable_bonds>  (475) 
2

>  <r_i_docking_score>  (475) 
-3.07055

>  <r_i_glide_ligand_efficiency>  (475) 
-0.133502

>  <r_i_glide_ligand_efficiency_sa>  (475) 
-0.379663

>  <r_i_glide_ligand_efficiency_ln>  (475) 
-0.742487

>  <r_i_glide_gscore>  (475) 
-3.07055

>  <r_i_glide_lipo>  (475) 
-0.331933

>  <r_i_glide_hbond>  (475) 
-0.108296

>  <r_i_glide_metal>  (475) 
-0

>  <r_i_glide_rewards>  (475) 
-1.29676

>  <r_i_glide_evdw>  (475) 
-24.4803

>  <r_i_glide_ecoul>  (475) 
-1.47986

>  <r_i_glide_erotb>  (475) 
0.192405

>  <r_i_glide_esite>  (475) 
-0.0799696

>  <r_i_glide_emodel>  (475) 
-29.9334

>  <r_i_glide_energy>  (475) 
-25.9601

>  <r_i_glide_einternal>  (475) 
0.481133

>  <r_i_glide_intrahb_reward>  (475) 
-0

>  <i_i_glide_confnum>  (475) 
4

>  <i_i_glide_posenum>  (475) 
12

>  <r_i_glide_eff_state_penalty>  (475) 
0

>  <ligand_id>  (475) 
114

>  <original_smiles>  (475) 
CC(C)(C)c1c(-c2ccc3c(c2)OCO3)[nH]c2ccnn2c1=O

>  <smiles>  (475) 
[H]c1nn2c([O-])c(C(C([H])([H])[H])(C([H])([H])[H])C([H])([H])[H])c(-c3c([H])c([H])c4c(c3[H])OC([H])([H])O4)nc2c1[H]

$$$$
114:1:2
     RDKit          3D

 39 42  0  0  1  0  0  0  0  0999 V2000
    7.2617   -3.4304    0.9404 C   0  0  0  0  0  0  0  0  0  0  0  0
    5.7353   -3.5039    1.2941 C   0  0  0  0  0  0  0  0  0  0  0  0
    5.6527   -4.9636    1.8732 C   0  0  0  0  0  0  0  0  0  0  0  0
    5.5270   -2.4238    2.4085 C   0  0  0  0  0  0  0  0  0  0  0  0
    4.8066   -3.2115    0.0350 C   0  0  0  0  0  0  0  0  0  0  0  0
    3.4213   -3.6838   -0.0723 C   0  0  0  0  0  0  0  0  0  0  0  0
    2.7058   -4.5125    0.9320 C   0  0  0  0  0  0  0  0  0  0  0  0
    2.6431   -4.1861    2.3040 C   0  0  0  0  0  0  0  0  0  0  0  0
    2.0107   -4.9871    3.2536 C   0  0  0  0  0  0  0  0  0  0  0  0
    1.3159   -6.1006    2.7870 C   0  0  0  0  0  0  0  0  0  0  0  0
    1.2869   -6.4238    1.4417 C   0  0  0  0  0  0  0  0  0  0  0  0
    1.9540   -5.6510    0.4751 C   0  0  0  0  0  0  0  0  0  0  0  0
    0.4816   -7.5106    1.2672 O   0  0  0  0  0  0  0  0  0  0  0  0
    0.1856   -7.9723    2.5531 C   0  0  0  0  0  0  0  0  0  0  0  0
    0.5993   -7.0122    3.4867 O   0  0  0  0  0  0  0  0  0  0  0  0
    2.6318   -3.4507   -1.1085 N   0  0  0  0  0  0  0  0  0  0  0  0
    3.0780   -2.7224   -2.1384 C   0  0  0  0  0  0  0  0  0  0  0  0
    2.5288   -2.3427   -3.3187 C   0  0  0  0  0  0  0  0  0  0  0  0
    3.4946   -1.5455   -3.9507 C   0  0  0  0  0  0  0  0  0  0  0  0
    4.5947   -1.4434   -3.2536 N   0  0  0  0  0  0  0  0  0  0  0  0
    4.3742   -2.2026   -2.1186 N   0  0  0  0  0  0  0  0  0  0  0  0
    5.2307   -2.4375   -1.0738 C   0  0  0  0  0  0  0  0  0  0  0  0
    6.4588   -1.8125   -1.2338 O   0  0  0  0  0  0  0  0  0  0  0  0
    7.9114   -3.8807    1.6878 H   0  0  0  0  0  0  0  0  0  0  0  0
    7.6210   -2.3947    0.8554 H   0  0  0  0  0  0  0  0  0  0  0  0
    7.4868   -3.9560    0.0035 H   0  0  0  0  0  0  0  0  0  0  0  0
    5.9093   -5.7216    1.1273 H   0  0  0  0  0  0  0  0  0  0  0  0
    4.7292   -5.2590    2.3239 H   0  0  0  0  0  0  0  0  0  0  0  0
    6.3570   -5.0582    2.7074 H   0  0  0  0  0  0  0  0  0  0  0  0
    5.8142   -2.8273    3.3740 H   0  0  0  0  0  0  0  0  0  0  0  0
    4.5106   -2.0679    2.5193 H   0  0  0  0  0  0  0  0  0  0  0  0
    6.0726   -1.5030    2.2253 H   0  0  0  0  0  0  0  0  0  0  0  0
    3.1396   -3.3379    2.7110 H   0  0  0  0  0  0  0  0  0  0  0  0
    2.1021   -4.7709    4.2867 H   0  0  0  0  0  0  0  0  0  0  0  0
    1.9239   -5.9384   -0.5823 H   0  0  0  0  0  0  0  0  0  0  0  0
   -0.8803   -8.1667    2.6628 H   0  0  0  0  0  0  0  0  0  0  0  0
    0.7898   -8.8606    2.7391 H   0  0  0  0  0  0  0  0  0  0  0  0
    1.5277   -2.5728   -3.6787 H   0  0  0  0  0  0  0  0  0  0  0  0
    3.4194   -1.0388   -4.8939 H   0  0  0  0  0  0  0  0  0  0  0  0
  1  2  1  0
  1 24  1  0
  1 25  1  0
  1 26  1  0
  2  3  1  0
  2  4  1  0
  2  5  1  0
  3 27  1  0
  3 28  1  0
  3 29  1  0
  4 30  1  0
  4 31  1  0
  4 32  1  0
  5 22  2  0
  5  6  1  0
  6  7  1  0
  6 16  2  0
  7 12  1  0
  7  8  2  0
  8  9  1  0
  8 33  1  0
  9 10  2  0
  9 34  1  0
 10 15  1  0
 10 11  1  0
 11 12  2  0
 11 13  1  0
 12 35  1  0
 13 14  1  0
 14 15  1  0
 14 36  1  0
 14 37  1  0
 16 17  1  0
 17 21  1  0
 17 18  2  0
 18 19  1  0
 18 38  1  0
 19 20  2  0
 19 39  1  0
 20 21  1  0
 21 22  1  0
 22 23  1  0
M  CHG  1  23  -1
M  END
>  <i_m_ct_stereo_status>  (476) 
1

>  <s_m_source_file>  (476) 
/var/tmp/pbs.5102103.sched01/tmp7htwmlud/1762k52hbh7.sdf

>  <i_m_source_file_index>  (476) 
7

>  <i_lp_mmshare_version>  (476) 
48012

>  <i_f3d_flags>  (476) 
0

>  <s_epik_input>  (476) 
W2NIXTFbY0hdbm4oYzEyKWMoPU8pYyhDKFtDSDNdKShbQ0gzXSlbQ0gzXSljKFtuSF0yKS1jKFtjSF1bY0hdMylbY0hdYyhjMzQpT1tDSDJdTzQ=

>  <s_epik_cmdline>  (476) 
J2VwaWtfcHl0aG9uJywgJy1waHQnLCAnMi4wJywgJy1waCcsICc3LjAnLCAnLXRuJywgJzgnLCAnLW1hJywgJzIwMCcsICctaW1hZScsICc8aW5maWxlLm1hZT4nLCAnLW9tYWUnLCAnPG91dGZpbGUubWFlPic=

>  <r_lp_tautomer_probability>  (476) 
1

>  <r_epik_Ionization_Penalty>  (476) 
0.595438

>  <r_epik_Ionization_Penalty_Charging>  (476) 
7.78032e-10

>  <r_epik_Ionization_Penalty_Neutral>  (476) 
0.595438

>  <r_epik_State_Penalty>  (476) 
0.609359

>  <r_epik_Charging_Adjusted_Penalty>  (476) 
0.609359

>  <i_epik_Tot_Q>  (476) 
-1

>  <i_epik_Tot_abs_Q>  (476) 
1

>  <s_epik_Chemistry_Notes>  (476) 
This compound contains an acetal/aminal-like group ( X-CH(R)-Y where X, Y are N, S, or O) that may be acid/base labile, releasing an aldehyde.

>  <s_lp_Force_Field>  (476) 
OPLS3e

>  <r_lp_Energy>  (476) 
49.6698

>  <b_lp_Chiralities_Consistent>  (476) 
1

>  <s_lp_Variant>  (476) 
114:0-2

>  <s_i_glide_gridfile>  (476) 
pfpi4k_grid

>  <i_i_glide_lignum>  (476) 
7

>  <i_i_glide_rotatable_bonds>  (476) 
2

>  <r_i_docking_score>  (476) 
-2.84145

>  <r_i_glide_ligand_efficiency>  (476) 
-0.123541

>  <r_i_glide_ligand_efficiency_sa>  (476) 
-0.351335

>  <r_i_glide_ligand_efficiency_ln>  (476) 
-0.687088

>  <r_i_glide_gscore>  (476) 
-2.84145

>  <r_i_glide_lipo>  (476) 
-0.487402

>  <r_i_glide_hbond>  (476) 
-0.199022

>  <r_i_glide_metal>  (476) 
-0

>  <r_i_glide_rewards>  (476) 
-1.29354

>  <r_i_glide_evdw>  (476) 
-25.604

>  <r_i_glide_ecoul>  (476) 
2.04678

>  <r_i_glide_erotb>  (476) 
0.192405

>  <r_i_glide_esite>  (476) 
-0.0807101

>  <r_i_glide_emodel>  (476) 
-25.7424

>  <r_i_glide_energy>  (476) 
-23.5572

>  <r_i_glide_einternal>  (476) 
2.68274

>  <r_i_glide_intrahb_reward>  (476) 
-0

>  <i_i_glide_confnum>  (476) 
3

>  <i_i_glide_posenum>  (476) 
19

>  <r_i_glide_eff_state_penalty>  (476) 
0

>  <ligand_id>  (476) 
114

>  <original_smiles>  (476) 
CC(C)(C)c1c(-c2ccc3c(c2)OCO3)[nH]c2ccnn2c1=O

>  <smiles>  (476) 
[H]c1nn2c([O-])c(C(C([H])([H])[H])(C([H])([H])[H])C([H])([H])[H])c(-c3c([H])c([H])c4c(c3[H])OC([H])([H])O4)nc2c1[H]

$$$$
115:0:0
     RDKit          3D

 50 52  0  0  1  0  0  0  0  0999 V2000
    8.0232   -5.2669    0.5272 C   0  0  0  0  0  0  0  0  0  0  0  0
    8.2569   -3.8348    1.0440 C   0  0  0  0  0  0  0  0  0  0  0  0
    8.5425   -2.7607   -0.0400 C   0  0  2  0  0  0  0  0  0  0  0  0
    8.9225   -1.3844    0.5569 C   0  0  0  0  0  0  0  0  0  0  0  0
    7.5265   -2.7288   -1.1136 N   0  0  0  0  0  0  0  0  0  0  0  0
    6.1634   -2.3985   -0.8833 C   0  0  0  0  0  0  0  0  0  0  0  0
    5.7383   -1.7278    0.2804 C   0  0  0  0  0  0  0  0  0  0  0  0
    4.4322   -1.2654    0.4200 C   0  0  0  0  0  0  0  0  0  0  0  0
    4.0522   -0.4761    1.5452 N   0  0  0  0  0  0  0  0  0  0  0  0
    2.8400    0.3194    1.5019 C   0  0  0  0  0  0  0  0  0  0  0  0
    1.9567   -0.0323    2.7070 C   0  0  0  0  0  0  0  0  0  0  0  0
    2.7185    0.0727    3.9762 N   0  0  0  0  0  0  0  0  0  0  0  0
    1.8565   -0.1914    5.1484 C   0  0  0  0  0  0  0  0  0  0  0  0
    3.9283   -0.7835    3.9811 C   0  0  0  0  0  0  0  0  0  0  0  0
    4.8347   -0.4595    2.7857 C   0  0  0  0  0  0  0  0  0  0  0  0
    3.5101   -1.5619   -0.5231 N   0  0  0  0  0  0  0  0  0  0  0  0
    3.8208   -2.2765   -1.6272 C   0  0  0  0  0  0  0  0  0  0  0  0
    2.8159   -2.5914   -2.5394 C   0  0  0  0  0  0  0  0  0  0  0  0
    3.0989   -3.3273   -3.6916 C   0  0  0  0  0  0  0  0  0  0  0  0
    4.4121   -3.7637   -3.9248 C   0  0  0  0  0  0  0  0  0  0  0  0
    5.4392   -3.4463   -3.0176 C   0  0  0  0  0  0  0  0  0  0  0  0
    5.1757   -2.7034   -1.8453 C   0  0  0  0  0  0  0  0  0  0  0  0
    7.8555   -5.9624    1.3540 H   0  0  0  0  0  0  0  0  0  0  0  0
    8.8717   -5.6353   -0.0522 H   0  0  0  0  0  0  0  0  0  0  0  0
    7.1252   -5.2927   -0.0835 H   0  0  0  0  0  0  0  0  0  0  0  0
    7.4004   -3.5436    1.6502 H   0  0  0  0  0  0  0  0  0  0  0  0
    9.1094   -3.8776    1.7239 H   0  0  0  0  0  0  0  0  0  0  0  0
    9.4388   -3.1236   -0.5515 H   0  0  0  0  0  0  0  0  0  0  0  0
    9.8074   -1.4762    1.1860 H   0  0  0  0  0  0  0  0  0  0  0  0
    8.2108   -0.8950    1.1944 H   0  0  0  0  0  0  0  0  0  0  0  0
    9.0740   -0.6965   -0.2524 H   0  0  0  0  0  0  0  0  0  0  0  0
    6.4012   -1.5232    1.0647 H   0  0  0  0  0  0  0  0  0  0  0  0
    3.1284    1.3715    1.5488 H   0  0  0  0  0  0  0  0  0  0  0  0
    2.2660    0.1820    0.5828 H   0  0  0  0  0  0  0  0  0  0  0  0
    1.0832    0.6198    2.7184 H   0  0  0  0  0  0  0  0  0  0  0  0
    1.6020   -1.0583    2.5995 H   0  0  0  0  0  0  0  0  0  0  0  0
    1.5113   -1.2186    5.1210 H   0  0  0  0  0  0  0  0  0  0  0  0
    0.9859    0.4572    5.1460 H   0  0  0  0  0  0  0  0  0  0  0  0
    2.3962   -0.0389    6.0775 H   0  0  0  0  0  0  0  0  0  0  0  0
    4.4751   -0.6821    4.9250 H   0  0  0  0  0  0  0  0  0  0  0  0
    3.6163   -1.8258    3.9132 H   0  0  0  0  0  0  0  0  0  0  0  0
    5.6672   -1.1575    2.8473 H   0  0  0  0  0  0  0  0  0  0  0  0
    5.2674    0.5285    2.9357 H   0  0  0  0  0  0  0  0  0  0  0  0
    1.8099   -2.2685   -2.3399 H   0  0  0  0  0  0  0  0  0  0  0  0
    2.2841   -3.5612   -4.3373 H   0  0  0  0  0  0  0  0  0  0  0  0
    4.6342   -4.3760   -4.7877 H   0  0  0  0  0  0  0  0  0  0  0  0
    6.4450   -3.8058   -3.1926 H   0  0  0  0  0  0  0  0  0  0  0  0
    7.8163   -3.1500   -2.0003 H   0  0  0  0  0  0  0  0  0  0  0  0
    2.5042   -1.2781   -0.4340 H   0  0  0  0  0  0  0  0  0  0  0  0
    3.0335    1.0274    4.0506 H   0  0  0  0  0  0  0  0  0  0  0  0
  1  2  1  0
  1 23  1  0
  1 24  1  0
  1 25  1  0
  2  3  1  0
  2 26  1  0
  2 27  1  0
  3  4  1  0
  3  5  1  0
  3 28  1  6
  4 29  1  0
  4 30  1  0
  4 31  1  0
  5  6  1  0
  5 48  1  0
  6 22  2  0
  6  7  1  0
  7  8  2  0
  7 32  1  0
  8  9  1  0
  8 16  1  0
  9 15  1  0
  9 10  1  0
 10 11  1  0
 10 33  1  0
 10 34  1  0
 11 12  1  0
 11 35  1  0
 11 36  1  0
 12 13  1  0
 12 14  1  0
 12 50  1  0
 13 37  1  0
 13 38  1  0
 13 39  1  0
 14 15  1  0
 14 40  1  0
 14 41  1  0
 15 42  1  0
 15 43  1  0
 16 17  2  0
 16 49  1  0
 17 22  1  0
 17 18  1  0
 18 19  2  0
 18 44  1  0
 19 20  1  0
 19 45  1  0
 20 21  2  0
 20 46  1  0
 21 22  1  0
 21 47  1  0
M  CHG  2  12   1  16   1
M  END
>  <i_m_ct_stereo_status>  (477) 
1

>  <s_m_source_file>  (477) 
/var/tmp/pbs.5102103.sched01/tmp7htwmlud/1762k52hbh7.sdf

>  <i_m_source_file_index>  (477) 
8

>  <i_lp_mmshare_version>  (477) 
48012

>  <i_f3d_flags>  (477) 
0

>  <s_epik_input>  (477) 
W2NIXTFbY0hdW2NIXVtjSF1jKGMxMiljKD1OXFtDQEBIXShbQ0gzXSlbQ0gyXVtDSDNdKVxbY0hdYyhbbkhdMilOM1tDSDJdW0NIMl1OKFtDSDNdKVtDSDJdW0NIMl0z

>  <s_epik_cmdline>  (477) 
J2VwaWtfcHl0aG9uJywgJy1waHQnLCAnMi4wJywgJy1waCcsICc3LjAnLCAnLXRuJywgJzgnLCAnLW1hJywgJzIwMCcsICctaW1hZScsICc8aW5maWxlLm1hZT4nLCAnLW9tYWUnLCAnPG91dGZpbGUubWFlPic=

>  <r_epik_Ionization_Penalty>  (477) 
0.268008

>  <r_epik_Ionization_Penalty_Charging>  (477) 
0.268007

>  <r_epik_Ionization_Penalty_Neutral>  (477) 
6.13375e-07

>  <r_epik_State_Penalty>  (477) 
0.259441

>  <r_epik_Charging_Adjusted_Penalty>  (477) 
0.527448

>  <i_epik_Tot_Q>  (477) 
2

>  <i_epik_Tot_abs_Q>  (477) 
2

>  <s_lp_Force_Field>  (477) 
OPLS3e

>  <r_lp_Energy>  (477) 
52.3431

>  <b_lp_Chiralities_Consistent>  (477) 
1

>  <s_lp_Variant>  (477) 
115:0-1

>  <s_i_glide_gridfile>  (477) 
pfpi4k_grid

>  <i_i_glide_lignum>  (477) 
8

>  <i_i_glide_rotatable_bonds>  (477) 
4

>  <r_i_docking_score>  (477) 
-4.27509

>  <r_i_glide_ligand_efficiency>  (477) 
-0.194322

>  <r_i_glide_ligand_efficiency_sa>  (477) 
-0.544499

>  <r_i_glide_ligand_efficiency_ln>  (477) 
-1.04499

>  <r_i_glide_gscore>  (477) 
-4.27509

>  <r_i_glide_lipo>  (477) 
-0.845432

>  <r_i_glide_hbond>  (477) 
-0.2

>  <r_i_glide_metal>  (477) 
-0

>  <r_i_glide_rewards>  (477) 
-1.46177

>  <r_i_glide_evdw>  (477) 
-23.8955

>  <r_i_glide_ecoul>  (477) 
-6.93485

>  <r_i_glide_erotb>  (477) 
0.610925

>  <r_i_glide_esite>  (477) 
-0.143806

>  <r_i_glide_emodel>  (477) 
-37.4136

>  <r_i_glide_energy>  (477) 
-30.8304

>  <r_i_glide_einternal>  (477) 
2.32503

>  <r_i_glide_intrahb_reward>  (477) 
-0

>  <i_i_glide_confnum>  (477) 
6

>  <i_i_glide_posenum>  (477) 
15

>  <r_i_glide_eff_state_penalty>  (477) 
0

>  <ligand_id>  (477) 
115

>  <original_smiles>  (477) 
CCC(C)N=c1cc(N2CCN(C)CC2)[nH]c2ccccc12

>  <smiles>  (477) 
[H]c1c([H])c([H])c2c(c1[H])c(N([H])C([H])(C([H])([H])[H])C([H])([H])C([H])([H])[H])c([H])c(N1C([H])([H])C([H])([H])[N+]([H])(C([H])([H])[H])C([H])([H])C1([H])[H])[n+]2[H]

$$$$
115:0:1
     RDKit          3D

 50 52  0  0  1  0  0  0  0  0999 V2000
    3.4369   -8.8747    2.3359 C   0  0  0  0  0  0  0  0  0  0  0  0
    3.5028   -7.4771    1.7060 C   0  0  0  0  0  0  0  0  0  0  0  0
    4.7905   -7.2116    0.8753 C   0  0  2  0  0  0  0  0  0  0  0  0
    6.1265   -7.3453    1.6630 C   0  0  0  0  0  0  0  0  0  0  0  0
    4.7002   -5.9719    0.0933 N   0  0  0  0  0  0  0  0  0  0  0  0
    4.7106   -4.6693    0.6479 C   0  0  0  0  0  0  0  0  0  0  0  0
    4.7433   -4.4798    2.0447 C   0  0  0  0  0  0  0  0  0  0  0  0
    4.7974   -3.1917    2.6109 C   0  0  0  0  0  0  0  0  0  0  0  0
    4.8705   -2.9959    4.0087 N   0  0  0  0  0  0  0  0  0  0  0  0
    4.4883   -1.7179    4.5924 C   0  0  0  0  0  0  0  0  0  0  0  0
    3.4444   -1.9293    5.7032 C   0  0  0  0  0  0  0  0  0  0  0  0
    3.9026   -2.9316    6.6997 N   0  0  0  0  0  0  0  0  0  0  0  0
    2.9435   -3.0877    7.8109 C   0  0  0  0  0  0  0  0  0  0  0  0
    4.2259   -4.2307    6.0546 C   0  0  0  0  0  0  0  0  0  0  0  0
    5.2789   -4.0532    4.9444 C   0  0  0  0  0  0  0  0  0  0  0  0
    4.7767   -2.1246    1.7799 N   0  0  0  0  0  0  0  0  0  0  0  0
    4.7191   -2.2303    0.4347 C   0  0  0  0  0  0  0  0  0  0  0  0
    4.6818   -1.0555   -0.3311 C   0  0  0  0  0  0  0  0  0  0  0  0
    4.6186   -1.1433   -1.7365 C   0  0  0  0  0  0  0  0  0  0  0  0
    4.6053   -2.4029   -2.3630 C   0  0  0  0  0  0  0  0  0  0  0  0
    4.6457   -3.5836   -1.5915 C   0  0  0  0  0  0  0  0  0  0  0  0
    4.6940   -3.5101   -0.1772 C   0  0  0  0  0  0  0  0  0  0  0  0
    2.5432   -8.9593    2.9564 H   0  0  0  0  0  0  0  0  0  0  0  0
    4.2870   -9.0606    2.9932 H   0  0  0  0  0  0  0  0  0  0  0  0
    3.4082   -9.6594    1.5773 H   0  0  0  0  0  0  0  0  0  0  0  0
    2.6226   -7.3363    1.0715 H   0  0  0  0  0  0  0  0  0  0  0  0
    3.3712   -6.7792    2.5292 H   0  0  0  0  0  0  0  0  0  0  0  0
    4.8137   -7.9947    0.1174 H   0  0  0  0  0  0  0  0  0  0  0  0
    6.2198   -8.3334    2.1184 H   0  0  0  0  0  0  0  0  0  0  0  0
    6.2498   -6.6282    2.4745 H   0  0  0  0  0  0  0  0  0  0  0  0
    6.9829   -7.2306    0.9969 H   0  0  0  0  0  0  0  0  0  0  0  0
    4.7041   -5.3224    2.7002 H   0  0  0  0  0  0  0  0  0  0  0  0
    5.3862   -1.2449    4.9961 H   0  0  0  0  0  0  0  0  0  0  0  0
    4.0735   -1.0249    3.8580 H   0  0  0  0  0  0  0  0  0  0  0  0
    3.2302   -0.9763    6.1865 H   0  0  0  0  0  0  0  0  0  0  0  0
    2.5103   -2.2721    5.2535 H   0  0  0  0  0  0  0  0  0  0  0  0
    1.9991   -3.4946    7.4388 H   0  0  0  0  0  0  0  0  0  0  0  0
    2.7423   -2.1251    8.2856 H   0  0  0  0  0  0  0  0  0  0  0  0
    3.3380   -3.7661    8.5698 H   0  0  0  0  0  0  0  0  0  0  0  0
    4.5841   -4.9461    6.7954 H   0  0  0  0  0  0  0  0  0  0  0  0
    3.3175   -4.6590    5.6259 H   0  0  0  0  0  0  0  0  0  0  0  0
    5.4851   -5.0264    4.4994 H   0  0  0  0  0  0  0  0  0  0  0  0
    6.2296   -3.7575    5.3925 H   0  0  0  0  0  0  0  0  0  0  0  0
    4.6850   -0.0929    0.1573 H   0  0  0  0  0  0  0  0  0  0  0  0
    4.5793   -0.2418   -2.3194 H   0  0  0  0  0  0  0  0  0  0  0  0
    4.5519   -2.4637   -3.4386 H   0  0  0  0  0  0  0  0  0  0  0  0
    4.6272   -4.5281   -2.1034 H   0  0  0  0  0  0  0  0  0  0  0  0
    4.5991   -6.0754   -0.9090 H   0  0  0  0  0  0  0  0  0  0  0  0
    4.7960   -1.1870    2.1768 H   0  0  0  0  0  0  0  0  0  0  0  0
    4.7687   -2.5790    7.0890 H   0  0  0  0  0  0  0  0  0  0  0  0
  1  2  1  0
  1 23  1  0
  1 24  1  0
  1 25  1  0
  2  3  1  0
  2 26  1  0
  2 27  1  0
  3  4  1  0
  3  5  1  0
  3 28  1  6
  4 29  1  0
  4 30  1  0
  4 31  1  0
  5  6  1  0
  5 48  1  0
  6 22  2  0
  6  7  1  0
  7  8  2  0
  7 32  1  0
  8  9  1  0
  8 16  1  0
  9 15  1  0
  9 10  1  0
 10 11  1  0
 10 33  1  0
 10 34  1  0
 11 12  1  0
 11 35  1  0
 11 36  1  0
 12 13  1  0
 12 14  1  0
 12 50  1  0
 13 37  1  0
 13 38  1  0
 13 39  1  0
 14 15  1  0
 14 40  1  0
 14 41  1  0
 15 42  1  0
 15 43  1  0
 16 17  2  0
 16 49  1  0
 17 22  1  0
 17 18  1  0
 18 19  2  0
 18 44  1  0
 19 20  1  0
 19 45  1  0
 20 21  2  0
 20 46  1  0
 21 22  1  0
 21 47  1  0
M  CHG  2  12   1  16   1
M  END
>  <i_m_ct_stereo_status>  (478) 
1

>  <s_m_source_file>  (478) 
/var/tmp/pbs.5102103.sched01/tmp7htwmlud/1762k52hbh7.sdf

>  <i_m_source_file_index>  (478) 
8

>  <i_lp_mmshare_version>  (478) 
48012

>  <i_f3d_flags>  (478) 
0

>  <s_epik_input>  (478) 
W2NIXTFbY0hdW2NIXVtjSF1jKGMxMiljKD1OXFtDQEBIXShbQ0gzXSlbQ0gyXVtDSDNdKVxbY0hdYyhbbkhdMilOM1tDSDJdW0NIMl1OKFtDSDNdKVtDSDJdW0NIMl0z

>  <s_epik_cmdline>  (478) 
J2VwaWtfcHl0aG9uJywgJy1waHQnLCAnMi4wJywgJy1waCcsICc3LjAnLCAnLXRuJywgJzgnLCAnLW1hJywgJzIwMCcsICctaW1hZScsICc8aW5maWxlLm1hZT4nLCAnLW9tYWUnLCAnPG91dGZpbGUubWFlPic=

>  <r_epik_Ionization_Penalty>  (478) 
0.268008

>  <r_epik_Ionization_Penalty_Charging>  (478) 
0.268007

>  <r_epik_Ionization_Penalty_Neutral>  (478) 
6.13375e-07

>  <r_epik_State_Penalty>  (478) 
0.259441

>  <r_epik_Charging_Adjusted_Penalty>  (478) 
0.527448

>  <i_epik_Tot_Q>  (478) 
2

>  <i_epik_Tot_abs_Q>  (478) 
2

>  <s_lp_Force_Field>  (478) 
OPLS3e

>  <r_lp_Energy>  (478) 
52.3431

>  <b_lp_Chiralities_Consistent>  (478) 
1

>  <s_lp_Variant>  (478) 
115:0-1

>  <s_i_glide_gridfile>  (478) 
pfpi4k_grid

>  <i_i_glide_lignum>  (478) 
8

>  <i_i_glide_rotatable_bonds>  (478) 
4

>  <r_i_docking_score>  (478) 
-2.79084

>  <r_i_glide_ligand_efficiency>  (478) 
-0.126856

>  <r_i_glide_ligand_efficiency_sa>  (478) 
-0.355457

>  <r_i_glide_ligand_efficiency_ln>  (478) 
-0.682184

>  <r_i_glide_gscore>  (478) 
-2.79084

>  <r_i_glide_lipo>  (478) 
-0.466854

>  <r_i_glide_hbond>  (478) 
-0.0675832

>  <r_i_glide_metal>  (478) 
-0

>  <r_i_glide_rewards>  (478) 
-1.40821

>  <r_i_glide_evdw>  (478) 
-18.7803

>  <r_i_glide_ecoul>  (478) 
-3.46736

>  <r_i_glide_erotb>  (478) 
0.610925

>  <r_i_glide_esite>  (478) 
0

>  <r_i_glide_emodel>  (478) 
-27.4857

>  <r_i_glide_energy>  (478) 
-22.2476

>  <r_i_glide_einternal>  (478) 
0.287974

>  <r_i_glide_intrahb_reward>  (478) 
-0

>  <i_i_glide_confnum>  (478) 
6

>  <i_i_glide_posenum>  (478) 
1

>  <r_i_glide_eff_state_penalty>  (478) 
0

>  <ligand_id>  (478) 
115

>  <original_smiles>  (478) 
CCC(C)N=c1cc(N2CCN(C)CC2)[nH]c2ccccc12

>  <smiles>  (478) 
[H]c1c([H])c([H])c2c(c1[H])c(N([H])C([H])(C([H])([H])[H])C([H])([H])C([H])([H])[H])c([H])c(N1C([H])([H])C([H])([H])[N+]([H])(C([H])([H])[H])C([H])([H])C1([H])[H])[n+]2[H]

$$$$
115:0:2
     RDKit          3D

 50 52  0  0  1  0  0  0  0  0999 V2000
    6.7581    1.5747    7.8108 C   0  0  0  0  0  0  0  0  0  0  0  0
    6.6546    2.8531    6.9717 C   0  0  0  0  0  0  0  0  0  0  0  0
    6.3092    4.1305    7.7922 C   0  0  2  0  0  0  0  0  0  0  0  0
    5.0075    4.0578    8.6467 C   0  0  0  0  0  0  0  0  0  0  0  0
    6.3949    5.3538    6.9859 N   0  0  0  0  0  0  0  0  0  0  0  0
    5.5338    5.6726    5.9096 C   0  0  0  0  0  0  0  0  0  0  0  0
    4.4733    4.8052    5.5459 C   0  0  0  0  0  0  0  0  0  0  0  0
    3.5916    5.1262    4.4995 C   0  0  0  0  0  0  0  0  0  0  0  0
    2.5264    4.2677    4.1537 N   0  0  0  0  0  0  0  0  0  0  0  0
    2.0099    4.2582    2.7982 C   0  0  0  0  0  0  0  0  0  0  0  0
    1.9906    2.8169    2.2501 C   0  0  0  0  0  0  0  0  0  0  0  0
    1.2802    1.8929    3.1657 N   0  0  0  0  0  0  0  0  0  0  0  0
    1.1721    0.5264    2.5994 C   0  0  0  0  0  0  0  0  0  0  0  0
    1.8899    1.8998    4.5229 C   0  0  0  0  0  0  0  0  0  0  0  0
    1.9265    3.3268    5.1051 C   0  0  0  0  0  0  0  0  0  0  0  0
    3.7994    6.2647    3.8059 N   0  0  0  0  0  0  0  0  0  0  0  0
    4.7967    7.1238    4.0814 C   0  0  0  0  0  0  0  0  0  0  0  0
    4.9269    8.2783    3.2959 C   0  0  0  0  0  0  0  0  0  0  0  0
    5.9577    9.1935    3.5688 C   0  0  0  0  0  0  0  0  0  0  0  0
    6.8594    8.9541    4.6220 C   0  0  0  0  0  0  0  0  0  0  0  0
    6.7360    7.7882    5.4127 C   0  0  0  0  0  0  0  0  0  0  0  0
    5.6984    6.8610    5.1492 C   0  0  0  0  0  0  0  0  0  0  0  0
    6.9294    0.7180    7.1585 H   0  0  0  0  0  0  0  0  0  0  0  0
    5.8331    1.3670    8.3481 H   0  0  0  0  0  0  0  0  0  0  0  0
    7.5735    1.6324    8.5319 H   0  0  0  0  0  0  0  0  0  0  0  0
    7.6007    3.0058    6.4435 H   0  0  0  0  0  0  0  0  0  0  0  0
    5.9335    2.6310    6.1900 H   0  0  0  0  0  0  0  0  0  0  0  0
    7.1183    4.2442    8.5105 H   0  0  0  0  0  0  0  0  0  0  0  0
    5.0403    3.2173    9.3452 H   0  0  0  0  0  0  0  0  0  0  0  0
    4.0856    3.9370    8.0774 H   0  0  0  0  0  0  0  0  0  0  0  0
    4.8956    4.9598    9.2569 H   0  0  0  0  0  0  0  0  0  0  0  0
    4.3400    3.8594    6.0324 H   0  0  0  0  0  0  0  0  0  0  0  0
    1.0046    4.6789    2.8378 H   0  0  0  0  0  0  0  0  0  0  0  0
    2.5929    4.8805    2.1171 H   0  0  0  0  0  0  0  0  0  0  0  0
    1.5095    2.7910    1.2793 H   0  0  0  0  0  0  0  0  0  0  0  0
    3.0164    2.4659    2.1090 H   0  0  0  0  0  0  0  0  0  0  0  0
    2.1648    0.0817    2.4880 H   0  0  0  0  0  0  0  0  0  0  0  0
    0.6946    0.5360    1.6146 H   0  0  0  0  0  0  0  0  0  0  0  0
    0.5825   -0.1213    3.2509 H   0  0  0  0  0  0  0  0  0  0  0  0
    1.3438    1.2324    5.1892 H   0  0  0  0  0  0  0  0  0  0  0  0
    2.9071    1.5113    4.4542 H   0  0  0  0  0  0  0  0  0  0  0  0
    2.3972    3.3035    6.0868 H   0  0  0  0  0  0  0  0  0  0  0  0
    0.9066    3.6594    5.3026 H   0  0  0  0  0  0  0  0  0  0  0  0
    4.2371    8.4657    2.4852 H   0  0  0  0  0  0  0  0  0  0  0  0
    6.0451   10.0826    2.9542 H   0  0  0  0  0  0  0  0  0  0  0  0
    7.6483    9.6664    4.8194 H   0  0  0  0  0  0  0  0  0  0  0  0
    7.4488    7.6359    6.2032 H   0  0  0  0  0  0  0  0  0  0  0  0
    7.1433    5.9899    7.2147 H   0  0  0  0  0  0  0  0  0  0  0  0
    3.1726    6.4895    3.0323 H   0  0  0  0  0  0  0  0  0  0  0  0
    0.3393    2.2560    3.2442 H   0  0  0  0  0  0  0  0  0  0  0  0
  1  2  1  0
  1 23  1  0
  1 24  1  0
  1 25  1  0
  2  3  1  0
  2 26  1  0
  2 27  1  0
  3  4  1  0
  3  5  1  0
  3 28  1  1
  4 29  1  0
  4 30  1  0
  4 31  1  0
  5  6  1  0
  5 48  1  0
  6 22  2  0
  6  7  1  0
  7  8  2  0
  7 32  1  0
  8  9  1  0
  8 16  1  0
  9 15  1  0
  9 10  1  0
 10 11  1  0
 10 33  1  0
 10 34  1  0
 11 12  1  0
 11 35  1  0
 11 36  1  0
 12 13  1  0
 12 14  1  0
 12 50  1  0
 13 37  1  0
 13 38  1  0
 13 39  1  0
 14 15  1  0
 14 40  1  0
 14 41  1  0
 15 42  1  0
 15 43  1  0
 16 17  2  0
 16 49  1  0
 17 22  1  0
 17 18  1  0
 18 19  2  0
 18 44  1  0
 19 20  1  0
 19 45  1  0
 20 21  2  0
 20 46  1  0
 21 22  1  0
 21 47  1  0
M  CHG  2  12   1  16   1
M  END
>  <i_m_ct_stereo_status>  (479) 
1

>  <s_m_source_file>  (479) 
/var/tmp/pbs.5102103.sched01/tmp7htwmlud/1762k52hbh7.sdf

>  <i_m_source_file_index>  (479) 
8

>  <i_lp_mmshare_version>  (479) 
48012

>  <i_f3d_flags>  (479) 
0

>  <s_epik_input>  (479) 
W2NIXTFbY0hdW2NIXVtjSF1jKGMxMiljKD1OXFtDQEBIXShbQ0gzXSlbQ0gyXVtDSDNdKVxbY0hdYyhbbkhdMilOM1tDSDJdW0NIMl1OKFtDSDNdKVtDSDJdW0NIMl0z

>  <s_epik_cmdline>  (479) 
J2VwaWtfcHl0aG9uJywgJy1waHQnLCAnMi4wJywgJy1waCcsICc3LjAnLCAnLXRuJywgJzgnLCAnLW1hJywgJzIwMCcsICctaW1hZScsICc8aW5maWxlLm1hZT4nLCAnLW9tYWUnLCAnPG91dGZpbGUubWFlPic=

>  <r_epik_Ionization_Penalty>  (479) 
0.268008

>  <r_epik_Ionization_Penalty_Charging>  (479) 
0.268007

>  <r_epik_Ionization_Penalty_Neutral>  (479) 
6.13375e-07

>  <r_epik_State_Penalty>  (479) 
0.259441

>  <r_epik_Charging_Adjusted_Penalty>  (479) 
0.527448

>  <i_epik_Tot_Q>  (479) 
2

>  <i_epik_Tot_abs_Q>  (479) 
2

>  <s_lp_Force_Field>  (479) 
OPLS3e

>  <r_lp_Energy>  (479) 
52.3431

>  <b_lp_Chiralities_Consistent>  (479) 
1

>  <s_lp_Variant>  (479) 
115:0-1

>  <s_i_glide_gridfile>  (479) 
pfpi4k_grid

>  <i_i_glide_lignum>  (479) 
8

>  <i_i_glide_rotatable_bonds>  (479) 
4

>  <r_i_docking_score>  (479) 
-2.66187

>  <r_i_glide_ligand_efficiency>  (479) 
-0.120994

>  <r_i_glide_ligand_efficiency_sa>  (479) 
-0.33903

>  <r_i_glide_ligand_efficiency_ln>  (479) 
-0.650658

>  <r_i_glide_gscore>  (479) 
-2.66187

>  <r_i_glide_lipo>  (479) 
-0.318977

>  <r_i_glide_hbond>  (479) 
0

>  <r_i_glide_metal>  (479) 
-0

>  <r_i_glide_rewards>  (479) 
-1.36062

>  <r_i_glide_evdw>  (479) 
-16.0815

>  <r_i_glide_ecoul>  (479) 
-4.94671

>  <r_i_glide_erotb>  (479) 
0.610925

>  <r_i_glide_esite>  (479) 
-0.0471081

>  <r_i_glide_emodel>  (479) 
-25.9642

>  <r_i_glide_energy>  (479) 
-21.0283

>  <r_i_glide_einternal>  (479) 
0.398771

>  <r_i_glide_intrahb_reward>  (479) 
-0

>  <i_i_glide_confnum>  (479) 
4

>  <i_i_glide_posenum>  (479) 
37

>  <r_i_glide_eff_state_penalty>  (479) 
0

>  <ligand_id>  (479) 
115

>  <original_smiles>  (479) 
CCC(C)N=c1cc(N2CCN(C)CC2)[nH]c2ccccc12

>  <smiles>  (479) 
[H]c1c([H])c([H])c2c(c1[H])c(N([H])C([H])(C([H])([H])[H])C([H])([H])C([H])([H])[H])c([H])c(N1C([H])([H])C([H])([H])[N+]([H])(C([H])([H])[H])C([H])([H])C1([H])[H])[n+]2[H]

$$$$
115:1:0
     RDKit          3D

 49 51  0  0  1  0  0  0  0  0999 V2000
    6.0279   -2.7621   -2.0028 C   0  0  0  0  0  0  0  0  0  0  0  0
    4.8191   -2.2253   -2.7863 C   0  0  0  0  0  0  0  0  0  0  0  0
    3.4557   -2.8480   -2.3946 C   0  0  2  0  0  0  0  0  0  0  0  0
    2.3820   -2.4382   -3.4080 C   0  0  0  0  0  0  0  0  0  0  0  0
    3.0156   -2.4837   -1.0451 N   0  0  0  0  0  0  0  0  0  0  0  0
    3.6124   -3.0237    0.1139 C   0  0  0  0  0  0  0  0  0  0  0  0
    4.0673   -4.3603    0.1405 C   0  0  0  0  0  0  0  0  0  0  0  0
    4.6839   -4.8998    1.2890 C   0  0  0  0  0  0  0  0  0  0  0  0
    5.1348   -6.2276    1.3369 N   0  0  0  0  0  0  0  0  0  0  0  0
    4.4228   -7.3106    0.6680 C   0  0  0  0  0  0  0  0  0  0  0  0
    4.1688   -8.4633    1.6633 C   0  0  0  0  0  0  0  0  0  0  0  0
    5.4363   -8.8893    2.2667 N   0  0  0  0  0  0  0  0  0  0  0  0
    5.1769   -9.9912    3.1828 C   0  0  0  0  0  0  0  0  0  0  0  0
    6.0400   -7.7769    3.0064 C   0  0  0  0  0  0  0  0  0  0  0  0
    6.3468   -6.6132    2.0458 C   0  0  0  0  0  0  0  0  0  0  0  0
    4.8302   -4.1103    2.3742 N   0  0  0  0  0  0  0  0  0  0  0  0
    4.4174   -2.8258    2.4229 C   0  0  0  0  0  0  0  0  0  0  0  0
    4.6044   -2.0832    3.6036 C   0  0  0  0  0  0  0  0  0  0  0  0
    4.1887   -0.7414    3.6576 C   0  0  0  0  0  0  0  0  0  0  0  0
    3.5943   -0.1402    2.5334 C   0  0  0  0  0  0  0  0  0  0  0  0
    3.4016   -0.8818    1.3506 C   0  0  0  0  0  0  0  0  0  0  0  0
    3.7961   -2.2392    1.2837 C   0  0  0  0  0  0  0  0  0  0  0  0
    6.9680   -2.3361   -2.3519 H   0  0  0  0  0  0  0  0  0  0  0  0
    6.0936   -3.8473   -2.0951 H   0  0  0  0  0  0  0  0  0  0  0  0
    5.9595   -2.5088   -0.9477 H   0  0  0  0  0  0  0  0  0  0  0  0
    4.7711   -1.1397   -2.7075 H   0  0  0  0  0  0  0  0  0  0  0  0
    5.0024   -2.4371   -3.8420 H   0  0  0  0  0  0  0  0  0  0  0  0
    3.5424   -3.9271   -2.4795 H   0  0  0  0  0  0  0  0  0  0  0  0
    2.6459   -2.7565   -4.4184 H   0  0  0  0  0  0  0  0  0  0  0  0
    2.2449   -1.3587   -3.4212 H   0  0  0  0  0  0  0  0  0  0  0  0
    1.4232   -2.8936   -3.1631 H   0  0  0  0  0  0  0  0  0  0  0  0
    3.9635   -4.9873   -0.7207 H   0  0  0  0  0  0  0  0  0  0  0  0
    3.4707   -6.9503    0.2777 H   0  0  0  0  0  0  0  0  0  0  0  0
    5.0106   -7.6707   -0.1751 H   0  0  0  0  0  0  0  0  0  0  0  0
    3.4714   -8.1385    2.4376 H   0  0  0  0  0  0  0  0  0  0  0  0
    3.7035   -9.3052    1.1444 H   0  0  0  0  0  0  0  0  0  0  0  0
    6.1043  -10.3235    3.6511 H   0  0  0  0  0  0  0  0  0  0  0  0
    4.7477  -10.8432    2.6517 H   0  0  0  0  0  0  0  0  0  0  0  0
    4.4840   -9.6987    3.9749 H   0  0  0  0  0  0  0  0  0  0  0  0
    5.3703   -7.4405    3.7980 H   0  0  0  0  0  0  0  0  0  0  0  0
    6.9650   -8.1108    3.4786 H   0  0  0  0  0  0  0  0  0  0  0  0
    7.0936   -6.9236    1.3109 H   0  0  0  0  0  0  0  0  0  0  0  0
    6.7782   -5.7711    2.5848 H   0  0  0  0  0  0  0  0  0  0  0  0
    5.0597   -2.5375    4.4710 H   0  0  0  0  0  0  0  0  0  0  0  0
    4.3286   -0.1737    4.5661 H   0  0  0  0  0  0  0  0  0  0  0  0
    3.2815    0.8927    2.5761 H   0  0  0  0  0  0  0  0  0  0  0  0
    2.9503   -0.4012    0.5003 H   0  0  0  0  0  0  0  0  0  0  0  0
    2.3216   -1.7361   -0.9663 H   0  0  0  0  0  0  0  0  0  0  0  0
    5.2548   -4.5082    3.2097 H   0  0  0  0  0  0  0  0  0  0  0  0
  1  2  1  0
  1 23  1  0
  1 24  1  0
  1 25  1  0
  2  3  1  0
  2 26  1  0
  2 27  1  0
  3  4  1  0
  3  5  1  0
  3 28  1  1
  4 29  1  0
  4 30  1  0
  4 31  1  0
  5  6  1  0
  5 48  1  0
  6 22  2  0
  6  7  1  0
  7  8  2  0
  7 32  1  0
  8  9  1  0
  8 16  1  0
  9 15  1  0
  9 10  1  0
 10 11  1  0
 10 33  1  0
 10 34  1  0
 11 12  1  0
 11 35  1  0
 11 36  1  0
 12 13  1  0
 12 14  1  0
 13 37  1  0
 13 38  1  0
 13 39  1  0
 14 15  1  0
 14 40  1  0
 14 41  1  0
 15 42  1  0
 15 43  1  0
 16 17  2  0
 16 49  1  0
 17 22  1  0
 17 18  1  0
 18 19  2  0
 18 44  1  0
 19 20  1  0
 19 45  1  0
 20 21  2  0
 20 46  1  0
 21 22  1  0
 21 47  1  0
M  CHG  1  16   1
M  END
>  <i_m_ct_stereo_status>  (480) 
1

>  <s_m_source_file>  (480) 
/var/tmp/pbs.5102103.sched01/tmp7htwmlud/1762k52hbh7.sdf

>  <i_m_source_file_index>  (480) 
9

>  <i_lp_mmshare_version>  (480) 
48012

>  <i_f3d_flags>  (480) 
0

>  <s_epik_input>  (480) 
W2NIXTFbY0hdW2NIXVtjSF1jKGMxMiljKD1OXFtDQEBIXShbQ0gzXSlbQ0gyXVtDSDNdKVxbY0hdYyhbbkhdMilOM1tDSDJdW0NIMl1OKFtDSDNdKVtDSDJdW0NIMl0z

>  <s_epik_cmdline>  (480) 
J2VwaWtfcHl0aG9uJywgJy1waHQnLCAnMi4wJywgJy1waCcsICc3LjAnLCAnLXRuJywgJzgnLCAnLW1hJywgJzIwMCcsICctaW1hZScsICc8aW5maWxlLm1hZT4nLCAnLW9tYWUnLCAnPG91dGZpbGUubWFlPic=

>  <r_epik_Ionization_Penalty>  (480) 
0.600634

>  <r_epik_Ionization_Penalty_Charging>  (480) 
3.98385e-06

>  <r_epik_Ionization_Penalty_Neutral>  (480) 
0.60063

>  <r_epik_State_Penalty>  (480) 
0.615375

>  <r_epik_Charging_Adjusted_Penalty>  (480) 
0.615379

>  <i_epik_Tot_Q>  (480) 
1

>  <i_epik_Tot_abs_Q>  (480) 
1

>  <s_lp_Force_Field>  (480) 
OPLS3e

>  <r_lp_Energy>  (480) 
55.8995

>  <b_lp_Chiralities_Consistent>  (480) 
1

>  <s_lp_Variant>  (480) 
115:0-2

>  <s_i_glide_gridfile>  (480) 
pfpi4k_grid

>  <i_i_glide_lignum>  (480) 
9

>  <i_i_glide_rotatable_bonds>  (480) 
4

>  <r_i_docking_score>  (480) 
-3.68713

>  <r_i_glide_ligand_efficiency>  (480) 
-0.167597

>  <r_i_glide_ligand_efficiency_sa>  (480) 
-0.469613

>  <r_i_glide_ligand_efficiency_ln>  (480) 
-0.901269

>  <r_i_glide_gscore>  (480) 
-3.68713

>  <r_i_glide_lipo>  (480) 
-0.635144

>  <r_i_glide_hbond>  (480) 
-0.16

>  <r_i_glide_metal>  (480) 
-0

>  <r_i_glide_rewards>  (480) 
-1.4778

>  <r_i_glide_evdw>  (480) 
-20.8997

>  <r_i_glide_ecoul>  (480) 
-6.12515

>  <r_i_glide_erotb>  (480) 
0.614528

>  <r_i_glide_esite>  (480) 
-0.0649602

>  <r_i_glide_emodel>  (480) 
-31.0619

>  <r_i_glide_energy>  (480) 
-27.0248

>  <r_i_glide_einternal>  (480) 
4.61736

>  <r_i_glide_intrahb_reward>  (480) 
-0

>  <i_i_glide_confnum>  (480) 
1

>  <i_i_glide_posenum>  (480) 
28

>  <r_i_glide_eff_state_penalty>  (480) 
0

>  <ligand_id>  (480) 
115

>  <original_smiles>  (480) 
CCC(C)N=c1cc(N2CCN(C)CC2)[nH]c2ccccc12

>  <smiles>  (480) 
[H]c1c([H])c([H])c2c(c1[H])c(N([H])C([H])(C([H])([H])[H])C([H])([H])C([H])([H])[H])c([H])c(N1C([H])([H])C([H])([H])N(C([H])([H])[H])C([H])([H])C1([H])[H])[n+]2[H]

$$$$
115:1:1
     RDKit          3D

 49 51  0  0  1  0  0  0  0  0999 V2000
    2.5334   -2.2867   -3.5891 C   0  0  0  0  0  0  0  0  0  0  0  0
    3.8085   -3.0465   -3.1979 C   0  0  0  0  0  0  0  0  0  0  0  0
    4.9003   -2.1818   -2.5325 C   0  0  2  0  0  0  0  0  0  0  0  0
    6.3062   -2.8457   -2.5328 C   0  0  0  0  0  0  0  0  0  0  0  0
    4.4949   -1.6663   -1.2197 N   0  0  0  0  0  0  0  0  0  0  0  0
    4.4467   -2.4374   -0.0353 C   0  0  0  0  0  0  0  0  0  0  0  0
    4.6561   -3.8427   -0.0486 C   0  0  0  0  0  0  0  0  0  0  0  0
    4.7808   -4.5587    1.1513 C   0  0  0  0  0  0  0  0  0  0  0  0
    5.1094   -5.9216    1.1386 N   0  0  0  0  0  0  0  0  0  0  0  0
    4.3737   -6.8679    0.3195 C   0  0  0  0  0  0  0  0  0  0  0  0
    3.9346   -8.0503    1.2040 C   0  0  0  0  0  0  0  0  0  0  0  0
    5.0994   -8.6382    1.8780 N   0  0  0  0  0  0  0  0  0  0  0  0
    4.6597   -9.7606    2.6957 C   0  0  0  0  0  0  0  0  0  0  0  0
    5.7439   -7.6370    2.7372 C   0  0  0  0  0  0  0  0  0  0  0  0
    6.2330   -6.4507    1.8894 C   0  0  0  0  0  0  0  0  0  0  0  0
    4.5810   -3.9280    2.3266 N   0  0  0  0  0  0  0  0  0  0  0  0
    4.2729   -2.6167    2.4065 C   0  0  0  0  0  0  0  0  0  0  0  0
    4.0028   -2.0546    3.6656 C   0  0  0  0  0  0  0  0  0  0  0  0
    3.6811   -0.6899    3.7742 C   0  0  0  0  0  0  0  0  0  0  0  0
    3.6352    0.1192    2.6171 C   0  0  0  0  0  0  0  0  0  0  0  0
    3.9087   -0.4448    1.3523 C   0  0  0  0  0  0  0  0  0  0  0  0
    4.2138   -1.8214    1.2274 C   0  0  0  0  0  0  0  0  0  0  0  0
    1.8113   -2.9578   -4.0630 H   0  0  0  0  0  0  0  0  0  0  0  0
    2.7368   -1.4759   -4.2905 H   0  0  0  0  0  0  0  0  0  0  0  0
    2.0461   -1.8589   -2.7124 H   0  0  0  0  0  0  0  0  0  0  0  0
    3.5061   -3.8577   -2.5457 H   0  0  0  0  0  0  0  0  0  0  0  0
    4.2071   -3.5111   -4.0975 H   0  0  0  0  0  0  0  0  0  0  0  0
    4.9911   -1.2952   -3.1557 H   0  0  0  0  0  0  0  0  0  0  0  0
    6.5998   -3.0959   -3.5480 H   0  0  0  0  0  0  0  0  0  0  0  0
    6.4007   -3.7870   -1.9944 H   0  0  0  0  0  0  0  0  0  0  0  0
    7.0566   -2.1712   -2.1218 H   0  0  0  0  0  0  0  0  0  0  0  0
    4.7572   -4.4076   -0.9631 H   0  0  0  0  0  0  0  0  0  0  0  0
    3.5156   -6.3868   -0.1461 H   0  0  0  0  0  0  0  0  0  0  0  0
    5.0099   -7.2219   -0.4868 H   0  0  0  0  0  0  0  0  0  0  0  0
    3.2076   -7.7046    1.9406 H   0  0  0  0  0  0  0  0  0  0  0  0
    3.4435   -8.8129    0.5969 H   0  0  0  0  0  0  0  0  0  0  0  0
    5.5057  -10.2119    3.2157 H   0  0  0  0  0  0  0  0  0  0  0  0
    4.2011  -10.5361    2.0793 H   0  0  0  0  0  0  0  0  0  0  0  0
    3.9312   -9.4489    3.4473 H   0  0  0  0  0  0  0  0  0  0  0  0
    5.0419   -7.2824    3.4940 H   0  0  0  0  0  0  0  0  0  0  0  0
    6.5899   -8.0888    3.2587 H   0  0  0  0  0  0  0  0  0  0  0  0
    7.0090   -6.7853    1.1959 H   0  0  0  0  0  0  0  0  0  0  0  0
    6.6844   -5.6804    2.5145 H   0  0  0  0  0  0  0  0  0  0  0  0
    4.0346   -2.6707    4.5543 H   0  0  0  0  0  0  0  0  0  0  0  0
    3.4775   -0.2611    4.7436 H   0  0  0  0  0  0  0  0  0  0  0  0
    3.3891    1.1668    2.7104 H   0  0  0  0  0  0  0  0  0  0  0  0
    3.8535    0.2013    0.4926 H   0  0  0  0  0  0  0  0  0  0  0  0
    4.1262   -0.7243   -1.1963 H   0  0  0  0  0  0  0  0  0  0  0  0
    4.6143   -4.4787    3.1837 H   0  0  0  0  0  0  0  0  0  0  0  0
  1  2  1  0
  1 23  1  0
  1 24  1  0
  1 25  1  0
  2  3  1  0
  2 26  1  0
  2 27  1  0
  3  4  1  0
  3  5  1  0
  3 28  1  6
  4 29  1  0
  4 30  1  0
  4 31  1  0
  5  6  1  0
  5 48  1  0
  6 22  2  0
  6  7  1  0
  7  8  2  0
  7 32  1  0
  8  9  1  0
  8 16  1  0
  9 15  1  0
  9 10  1  0
 10 11  1  0
 10 33  1  0
 10 34  1  0
 11 12  1  0
 11 35  1  0
 11 36  1  0
 12 13  1  0
 12 14  1  0
 13 37  1  0
 13 38  1  0
 13 39  1  0
 14 15  1  0
 14 40  1  0
 14 41  1  0
 15 42  1  0
 15 43  1  0
 16 17  2  0
 16 49  1  0
 17 22  1  0
 17 18  1  0
 18 19  2  0
 18 44  1  0
 19 20  1  0
 19 45  1  0
 20 21  2  0
 20 46  1  0
 21 22  1  0
 21 47  1  0
M  CHG  1  16   1
M  END
>  <i_m_ct_stereo_status>  (481) 
1

>  <s_m_source_file>  (481) 
/var/tmp/pbs.5102103.sched01/tmp7htwmlud/1762k52hbh7.sdf

>  <i_m_source_file_index>  (481) 
9

>  <i_lp_mmshare_version>  (481) 
48012

>  <i_f3d_flags>  (481) 
0

>  <s_epik_input>  (481) 
W2NIXTFbY0hdW2NIXVtjSF1jKGMxMiljKD1OXFtDQEBIXShbQ0gzXSlbQ0gyXVtDSDNdKVxbY0hdYyhbbkhdMilOM1tDSDJdW0NIMl1OKFtDSDNdKVtDSDJdW0NIMl0z

>  <s_epik_cmdline>  (481) 
J2VwaWtfcHl0aG9uJywgJy1waHQnLCAnMi4wJywgJy1waCcsICc3LjAnLCAnLXRuJywgJzgnLCAnLW1hJywgJzIwMCcsICctaW1hZScsICc8aW5maWxlLm1hZT4nLCAnLW9tYWUnLCAnPG91dGZpbGUubWFlPic=

>  <r_epik_Ionization_Penalty>  (481) 
0.600634

>  <r_epik_Ionization_Penalty_Charging>  (481) 
3.98385e-06

>  <r_epik_Ionization_Penalty_Neutral>  (481) 
0.60063

>  <r_epik_State_Penalty>  (481) 
0.615375

>  <r_epik_Charging_Adjusted_Penalty>  (481) 
0.615379

>  <i_epik_Tot_Q>  (481) 
1

>  <i_epik_Tot_abs_Q>  (481) 
1

>  <s_lp_Force_Field>  (481) 
OPLS3e

>  <r_lp_Energy>  (481) 
55.8995

>  <b_lp_Chiralities_Consistent>  (481) 
1

>  <s_lp_Variant>  (481) 
115:0-2

>  <s_i_glide_gridfile>  (481) 
pfpi4k_grid

>  <i_i_glide_lignum>  (481) 
9

>  <i_i_glide_rotatable_bonds>  (481) 
4

>  <r_i_docking_score>  (481) 
-3.40861

>  <r_i_glide_ligand_efficiency>  (481) 
-0.154937

>  <r_i_glide_ligand_efficiency_sa>  (481) 
-0.434139

>  <r_i_glide_ligand_efficiency_ln>  (481) 
-0.833189

>  <r_i_glide_gscore>  (481) 
-3.40861

>  <r_i_glide_lipo>  (481) 
-0.866034

>  <r_i_glide_hbond>  (481) 
0

>  <r_i_glide_metal>  (481) 
-0

>  <r_i_glide_rewards>  (481) 
-1.48142

>  <r_i_glide_evdw>  (481) 
-23.1223

>  <r_i_glide_ecoul>  (481) 
-3.21214

>  <r_i_glide_erotb>  (481) 
0.614528

>  <r_i_glide_esite>  (481) 
-0.0377534

>  <r_i_glide_emodel>  (481) 
-29.749

>  <r_i_glide_energy>  (481) 
-26.3344

>  <r_i_glide_einternal>  (481) 
4.78273

>  <r_i_glide_intrahb_reward>  (481) 
-0

>  <i_i_glide_confnum>  (481) 
1

>  <i_i_glide_posenum>  (481) 
26

>  <r_i_glide_eff_state_penalty>  (481) 
0

>  <ligand_id>  (481) 
115

>  <original_smiles>  (481) 
CCC(C)N=c1cc(N2CCN(C)CC2)[nH]c2ccccc12

>  <smiles>  (481) 
[H]c1c([H])c([H])c2c(c1[H])c(N([H])C([H])(C([H])([H])[H])C([H])([H])C([H])([H])[H])c([H])c(N1C([H])([H])C([H])([H])N(C([H])([H])[H])C([H])([H])C1([H])[H])[n+]2[H]

$$$$
115:1:2
     RDKit          3D

 49 51  0  0  1  0  0  0  0  0999 V2000
    4.4219    5.0236    6.6808 C   0  0  0  0  0  0  0  0  0  0  0  0
    3.2199    5.8949    6.2996 C   0  0  0  0  0  0  0  0  0  0  0  0
    2.9590    5.9580    4.7615 C   0  0  2  0  0  0  0  0  0  0  0  0
    1.9303    7.0408    4.3583 C   0  0  0  0  0  0  0  0  0  0  0  0
    2.6825    4.6583    4.1345 N   0  0  0  0  0  0  0  0  0  0  0  0
    1.5507    3.8601    4.4251 C   0  0  0  0  0  0  0  0  0  0  0  0
    0.6076    4.2725    5.3917 C   0  0  0  0  0  0  0  0  0  0  0  0
   -0.4609    3.4390    5.7641 C   0  0  0  0  0  0  0  0  0  0  0  0
   -1.3446    3.8200    6.7871 N   0  0  0  0  0  0  0  0  0  0  0  0
   -1.0022    4.7847    7.8363 C   0  0  0  0  0  0  0  0  0  0  0  0
   -1.3392    4.1984    9.2162 C   0  0  0  0  0  0  0  0  0  0  0  0
   -2.7476    3.8064    9.2476 N   0  0  0  0  0  0  0  0  0  0  0  0
   -3.0614    3.2606   10.5630 C   0  0  0  0  0  0  0  0  0  0  0  0
   -2.9980    2.7847    8.2351 C   0  0  0  0  0  0  0  0  0  0  0  0
   -2.7048    3.3160    6.8287 C   0  0  0  0  0  0  0  0  0  0  0  0
   -0.6285    2.2622    5.1207 N   0  0  0  0  0  0  0  0  0  0  0  0
    0.2010    1.8292    4.1510 C   0  0  0  0  0  0  0  0  0  0  0  0
   -0.0589    0.6047    3.5160 C   0  0  0  0  0  0  0  0  0  0  0  0
    0.8097    0.1431    2.5090 C   0  0  0  0  0  0  0  0  0  0  0  0
    1.9323    0.9051    2.1360 C   0  0  0  0  0  0  0  0  0  0  0  0
    2.1837    2.1350    2.7764 C   0  0  0  0  0  0  0  0  0  0  0  0
    1.3283    2.6152    3.7866 C   0  0  0  0  0  0  0  0  0  0  0  0
    4.4998    4.9851    7.7679 H   0  0  0  0  0  0  0  0  0  0  0  0
    5.3661    5.3994    6.2744 H   0  0  0  0  0  0  0  0  0  0  0  0
    4.2785    3.9974    6.3374 H   0  0  0  0  0  0  0  0  0  0  0  0
    2.3765    5.5092    6.8775 H   0  0  0  0  0  0  0  0  0  0  0  0
    3.4008    6.9133    6.6599 H   0  0  0  0  0  0  0  0  0  0  0  0
    3.8912    6.2827    4.2921 H   0  0  0  0  0  0  0  0  0  0  0  0
    2.2094    8.0157    4.7532 H   0  0  0  0  0  0  0  0  0  0  0  0
    0.9137    6.8644    4.6937 H   0  0  0  0  0  0  0  0  0  0  0  0
    1.8580    7.1340    3.2775 H   0  0  0  0  0  0  0  0  0  0  0  0
    0.6937    5.2381    5.8613 H   0  0  0  0  0  0  0  0  0  0  0  0
    0.0544    5.0413    7.8517 H   0  0  0  0  0  0  0  0  0  0  0  0
   -1.5475    5.7172    7.6862 H   0  0  0  0  0  0  0  0  0  0  0  0
   -0.6955    3.3400    9.4208 H   0  0  0  0  0  0  0  0  0  0  0  0
   -1.1459    4.9405    9.9942 H   0  0  0  0  0  0  0  0  0  0  0  0
   -4.1039    2.9457   10.6120 H   0  0  0  0  0  0  0  0  0  0  0  0
   -2.9041    4.0120   11.3380 H   0  0  0  0  0  0  0  0  0  0  0  0
   -2.4381    2.3971   10.8032 H   0  0  0  0  0  0  0  0  0  0  0  0
   -2.4023    1.8908    8.4329 H   0  0  0  0  0  0  0  0  0  0  0  0
   -4.0601    2.5517    8.2779 H   0  0  0  0  0  0  0  0  0  0  0  0
   -3.3715    4.1333    6.5838 H   0  0  0  0  0  0  0  0  0  0  0  0
   -2.8907    2.5432    6.0829 H   0  0  0  0  0  0  0  0  0  0  0  0
   -0.9277    0.0287    3.7986 H   0  0  0  0  0  0  0  0  0  0  0  0
    0.6137   -0.8015    2.0111 H   0  0  0  0  0  0  0  0  0  0  0  0
    2.5803    0.5429    1.3457 H   0  0  0  0  0  0  0  0  0  0  0  0
    3.0159    2.7288    2.4696 H   0  0  0  0  0  0  0  0  0  0  0  0
    3.3143    4.3648    3.3971 H   0  0  0  0  0  0  0  0  0  0  0  0
   -1.4301    1.6698    5.3508 H   0  0  0  0  0  0  0  0  0  0  0  0
  1  2  1  0
  1 23  1  0
  1 24  1  0
  1 25  1  0
  2  3  1  0
  2 26  1  0
  2 27  1  0
  3  4  1  0
  3  5  1  0
  3 28  1  6
  4 29  1  0
  4 30  1  0
  4 31  1  0
  5  6  1  0
  5 48  1  0
  6 22  2  0
  6  7  1  0
  7  8  2  0
  7 32  1  0
  8  9  1  0
  8 16  1  0
  9 15  1  0
  9 10  1  0
 10 11  1  0
 10 33  1  0
 10 34  1  0
 11 12  1  0
 11 35  1  0
 11 36  1  0
 12 13  1  0
 12 14  1  0
 13 37  1  0
 13 38  1  0
 13 39  1  0
 14 15  1  0
 14 40  1  0
 14 41  1  0
 15 42  1  0
 15 43  1  0
 16 17  2  0
 16 49  1  0
 17 22  1  0
 17 18  1  0
 18 19  2  0
 18 44  1  0
 19 20  1  0
 19 45  1  0
 20 21  2  0
 20 46  1  0
 21 22  1  0
 21 47  1  0
M  CHG  1  16   1
M  END
>  <i_m_ct_stereo_status>  (482) 
1

>  <s_m_source_file>  (482) 
/var/tmp/pbs.5102103.sched01/tmp7htwmlud/1762k52hbh7.sdf

>  <i_m_source_file_index>  (482) 
9

>  <i_lp_mmshare_version>  (482) 
48012

>  <i_f3d_flags>  (482) 
0

>  <s_epik_input>  (482) 
W2NIXTFbY0hdW2NIXVtjSF1jKGMxMiljKD1OXFtDQEBIXShbQ0gzXSlbQ0gyXVtDSDNdKVxbY0hdYyhbbkhdMilOM1tDSDJdW0NIMl1OKFtDSDNdKVtDSDJdW0NIMl0z

>  <s_epik_cmdline>  (482) 
J2VwaWtfcHl0aG9uJywgJy1waHQnLCAnMi4wJywgJy1waCcsICc3LjAnLCAnLXRuJywgJzgnLCAnLW1hJywgJzIwMCcsICctaW1hZScsICc8aW5maWxlLm1hZT4nLCAnLW9tYWUnLCAnPG91dGZpbGUubWFlPic=

>  <r_epik_Ionization_Penalty>  (482) 
0.600634

>  <r_epik_Ionization_Penalty_Charging>  (482) 
3.98385e-06

>  <r_epik_Ionization_Penalty_Neutral>  (482) 
0.60063

>  <r_epik_State_Penalty>  (482) 
0.615375

>  <r_epik_Charging_Adjusted_Penalty>  (482) 
0.615379

>  <i_epik_Tot_Q>  (482) 
1

>  <i_epik_Tot_abs_Q>  (482) 
1

>  <s_lp_Force_Field>  (482) 
OPLS3e

>  <r_lp_Energy>  (482) 
55.8995

>  <b_lp_Chiralities_Consistent>  (482) 
1

>  <s_lp_Variant>  (482) 
115:0-2

>  <s_i_glide_gridfile>  (482) 
pfpi4k_grid

>  <i_i_glide_lignum>  (482) 
9

>  <i_i_glide_rotatable_bonds>  (482) 
4

>  <r_i_docking_score>  (482) 
-2.41562

>  <r_i_glide_ligand_efficiency>  (482) 
-0.109801

>  <r_i_glide_ligand_efficiency_sa>  (482) 
-0.307667

>  <r_i_glide_ligand_efficiency_ln>  (482) 
-0.590467

>  <r_i_glide_gscore>  (482) 
-2.41562

>  <r_i_glide_lipo>  (482) 
-0.235877

>  <r_i_glide_hbond>  (482) 
0

>  <r_i_glide_metal>  (482) 
-0

>  <r_i_glide_rewards>  (482) 
-1.39539

>  <r_i_glide_evdw>  (482) 
-20.2736

>  <r_i_glide_ecoul>  (482) 
-2.44672

>  <r_i_glide_erotb>  (482) 
0.614528

>  <r_i_glide_esite>  (482) 
-0.0181919

>  <r_i_glide_emodel>  (482) 
-26.078

>  <r_i_glide_energy>  (482) 
-22.7204

>  <r_i_glide_einternal>  (482) 
1.12217

>  <r_i_glide_intrahb_reward>  (482) 
-0

>  <i_i_glide_confnum>  (482) 
1

>  <i_i_glide_posenum>  (482) 
7

>  <r_i_glide_eff_state_penalty>  (482) 
0

>  <ligand_id>  (482) 
115

>  <original_smiles>  (482) 
CCC(C)N=c1cc(N2CCN(C)CC2)[nH]c2ccccc12

>  <smiles>  (482) 
[H]c1c([H])c([H])c2c(c1[H])c(N([H])C([H])(C([H])([H])[H])C([H])([H])C([H])([H])[H])c([H])c(N1C([H])([H])C([H])([H])N(C([H])([H])[H])C([H])([H])C1([H])[H])[n+]2[H]

$$$$
116:0:0
     RDKit          3D

 26 28  0  0  1  0  0  0  0  0999 V2000
   -7.8614   -9.1879   -8.9985 O   0  0  0  0  0  0  0  0  0  0  0  0
   -7.2969   -9.2191   -7.8976 C   0  0  0  0  0  0  0  0  0  0  0  0
   -6.8043  -10.5493   -7.3676 C   0  0  0  0  0  0  0  0  0  0  0  0
   -5.4853  -10.7235   -6.8846 C   0  0  0  0  0  0  0  0  0  0  0  0
   -5.1220  -11.9653   -6.3278 C   0  0  0  0  0  0  0  0  0  0  0  0
   -5.9454  -13.0367   -6.3014 N   0  0  0  0  0  0  0  0  0  0  0  0
   -7.1763  -12.8965   -6.8328 C   0  0  0  0  0  0  0  0  0  0  0  0
   -7.6537  -11.6819   -7.3700 C   0  0  0  0  0  0  0  0  0  0  0  0
   -7.1641   -8.1211   -7.1268 N   0  0  0  0  0  0  0  0  0  0  0  0
   -6.4669   -8.0571   -5.8136 C   0  0  0  0  0  0  0  0  0  0  0  0
   -6.6801   -6.6649   -5.3937 C   0  0  0  0  0  0  0  0  0  0  0  0
   -6.3734   -5.7684   -4.4197 C   0  0  0  0  0  0  0  0  0  0  0  0
   -6.9557   -4.5843   -4.8462 N   0  0  0  0  0  0  0  0  0  0  0  0
   -7.6138   -4.6832   -6.0361 N   0  0  0  0  0  0  0  0  0  0  0  0
   -7.4190   -5.9561   -6.3208 C   0  0  0  0  0  0  0  0  0  0  0  0
   -7.7927   -6.8123   -7.4771 C   0  0  0  0  0  0  0  0  0  0  0  0
   -6.9234   -3.7128   -4.3337 H   0  0  0  0  0  0  0  0  0  0  0  0
   -4.7568   -9.9274   -6.9057 H   0  0  0  0  0  0  0  0  0  0  0  0
   -4.1399  -12.0930   -5.9023 H   0  0  0  0  0  0  0  0  0  0  0  0
   -7.7952  -13.7838   -6.8267 H   0  0  0  0  0  0  0  0  0  0  0  0
   -8.6567  -11.6276   -7.7685 H   0  0  0  0  0  0  0  0  0  0  0  0
   -6.8905   -8.7790   -5.1285 H   0  0  0  0  0  0  0  0  0  0  0  0
   -5.3961   -8.2377   -5.9114 H   0  0  0  0  0  0  0  0  0  0  0  0
   -5.7900   -5.8655   -3.5180 H   0  0  0  0  0  0  0  0  0  0  0  0
   -7.4075   -6.4340   -8.4292 H   0  0  0  0  0  0  0  0  0  0  0  0
   -8.8777   -6.9032   -7.5697 H   0  0  0  0  0  0  0  0  0  0  0  0
  1  2  2  0
  2  3  1  0
  2  9  1  0
  3  8  1  0
  3  4  2  0
  4  5  1  0
  4 18  1  0
  5  6  2  0
  5 19  1  0
  6  7  1  0
  7  8  2  0
  7 20  1  0
  8 21  1  0
  9 16  1  0
  9 10  1  0
 10 11  1  0
 10 22  1  0
 10 23  1  0
 11 15  1  0
 11 12  2  0
 12 13  1  0
 12 24  1  0
 13 17  1  0
 13 14  1  0
 14 15  2  0
 15 16  1  0
 16 25  1  0
 16 26  1  0
M  END
>  <i_m_ct_stereo_status>  (483) 
1

>  <s_m_source_file>  (483) 
/var/tmp/pbs.5102103.sched01/tmp7htwmlud/1762k52hbh7.sdf

>  <i_m_source_file_index>  (483) 
10

>  <i_lp_mmshare_version>  (483) 
48012

>  <i_f3d_flags>  (483) 
0

>  <s_epik_input>  (483) 
W2NIXTFbbkhdbmMoYzEyKVtDSDJdTihbQ0gyXTIpQyg9TyljM1tjSF1bY0hdbltjSF1bY0hdMw==

>  <s_epik_cmdline>  (483) 
J2VwaWtfcHl0aG9uJywgJy1waHQnLCAnMi4wJywgJy1waCcsICc3LjAnLCAnLXRuJywgJzgnLCAnLW1hJywgJzIwMCcsICctaW1hZScsICc8aW5maWxlLm1hZT4nLCAnLW9tYWUnLCAnPG91dGZpbGUubWFlPic=

>  <r_lp_tautomer_probability>  (483) 
0.5

>  <r_epik_Ionization_Penalty>  (483) 
0.000128443

>  <r_epik_Ionization_Penalty_Charging>  (483) 
0

>  <r_epik_Ionization_Penalty_Neutral>  (483) 
0.000128443

>  <r_epik_State_Penalty>  (483) 
0.41068

>  <r_epik_Charging_Adjusted_Penalty>  (483) 
0.41068

>  <i_epik_Tot_Q>  (483) 
0

>  <i_epik_Tot_abs_Q>  (483) 
0

>  <s_lp_Force_Field>  (483) 
OPLS3e

>  <r_lp_Energy>  (483) 
24.7075

>  <b_lp_Chiralities_Consistent>  (483) 
1

>  <s_lp_Variant>  (483) 
116:0-1

>  <s_i_glide_gridfile>  (483) 
pfpi4k_grid

>  <i_i_glide_lignum>  (483) 
10

>  <i_i_glide_rotatable_bonds>  (483) 
2

>  <r_i_docking_score>  (483) 
-5.52193

>  <r_i_glide_ligand_efficiency>  (483) 
-0.345121

>  <r_i_glide_ligand_efficiency_sa>  (483) 
-0.869649

>  <r_i_glide_ligand_efficiency_ln>  (483) 
-1.4637

>  <r_i_glide_gscore>  (483) 
-5.52193

>  <r_i_glide_lipo>  (483) 
-1.74236

>  <r_i_glide_hbond>  (483) 
0

>  <r_i_glide_metal>  (483) 
-0

>  <r_i_glide_rewards>  (483) 
-2.88336

>  <r_i_glide_evdw>  (483) 
-27.4523

>  <r_i_glide_ecoul>  (483) 
-1.67685

>  <r_i_glide_erotb>  (483) 
0.727932

>  <r_i_glide_esite>  (483) 
0

>  <r_i_glide_emodel>  (483) 
-39.4603

>  <r_i_glide_energy>  (483) 
-29.1292

>  <r_i_glide_einternal>  (483) 
0.385114

>  <r_i_glide_intrahb_reward>  (483) 
-0

>  <i_i_glide_confnum>  (483) 
5

>  <i_i_glide_posenum>  (483) 
2

>  <r_i_glide_eff_state_penalty>  (483) 
0

>  <ligand_id>  (483) 
116

>  <original_smiles>  (483) 
O=C(c1ccncc1)N1Cc2c[nH]nc2C1

>  <smiles>  (483) 
[H]c1nc([H])c([H])c(C(=O)N2C([H])([H])c3nn([H])c([H])c3C2([H])[H])c1[H]

$$$$
116:0:1
     RDKit          3D

 26 28  0  0  1  0  0  0  0  0999 V2000
    6.1506   -3.1320   -0.0099 O   0  0  0  0  0  0  0  0  0  0  0  0
    5.0284   -3.2998   -0.4941 C   0  0  0  0  0  0  0  0  0  0  0  0
    4.5923   -2.4695   -1.6730 C   0  0  0  0  0  0  0  0  0  0  0  0
    4.6544   -1.0614   -1.6531 C   0  0  0  0  0  0  0  0  0  0  0  0
    4.2145   -0.3566   -2.7948 C   0  0  0  0  0  0  0  0  0  0  0  0
    3.7616   -0.9542   -3.9163 N   0  0  0  0  0  0  0  0  0  0  0  0
    3.7054   -2.2990   -3.9193 C   0  0  0  0  0  0  0  0  0  0  0  0
    4.1422   -3.0939   -2.8553 C   0  0  0  0  0  0  0  0  0  0  0  0
    4.1613   -4.2342   -0.0449 N   0  0  0  0  0  0  0  0  0  0  0  0
    4.5735   -5.3450    0.8586 C   0  0  0  0  0  0  0  0  0  0  0  0
    3.2868   -6.0582    1.0922 C   0  0  0  0  0  0  0  0  0  0  0  0
    2.7089   -7.1286    1.7067 C   0  0  0  0  0  0  0  0  0  0  0  0
    1.3640   -7.0545    1.3533 N   0  0  0  0  0  0  0  0  0  0  0  0
    1.0622   -6.0067    0.5425 N   0  0  0  0  0  0  0  0  0  0  0  0
    2.2467   -5.4288    0.4340 C   0  0  0  0  0  0  0  0  0  0  0  0
    2.6949   -4.2253   -0.3096 C   0  0  0  0  0  0  0  0  0  0  0  0
    0.6528   -7.7169    1.6399 H   0  0  0  0  0  0  0  0  0  0  0  0
    5.0089   -0.5230   -0.7870 H   0  0  0  0  0  0  0  0  0  0  0  0
    4.2288    0.7219   -2.8197 H   0  0  0  0  0  0  0  0  0  0  0  0
    3.3172   -2.7613   -4.8138 H   0  0  0  0  0  0  0  0  0  0  0  0
    4.1043   -4.1666   -2.9456 H   0  0  0  0  0  0  0  0  0  0  0  0
    5.3177   -5.9756    0.3693 H   0  0  0  0  0  0  0  0  0  0  0  0
    5.0218   -4.9711    1.7803 H   0  0  0  0  0  0  0  0  0  0  0  0
    3.1085   -7.9141    2.3312 H   0  0  0  0  0  0  0  0  0  0  0  0
    2.2403   -3.3091    0.0662 H   0  0  0  0  0  0  0  0  0  0  0  0
    2.4291   -4.2903   -1.3624 H   0  0  0  0  0  0  0  0  0  0  0  0
  1  2  2  0
  2  3  1  0
  2  9  1  0
  3  8  1  0
  3  4  2  0
  4  5  1  0
  4 18  1  0
  5  6  2  0
  5 19  1  0
  6  7  1  0
  7  8  2  0
  7 20  1  0
  8 21  1  0
  9 16  1  0
  9 10  1  0
 10 11  1  0
 10 22  1  0
 10 23  1  0
 11 15  1  0
 11 12  2  0
 12 13  1  0
 12 24  1  0
 13 17  1  0
 13 14  1  0
 14 15  2  0
 15 16  1  0
 16 25  1  0
 16 26  1  0
M  END
>  <i_m_ct_stereo_status>  (484) 
1

>  <s_m_source_file>  (484) 
/var/tmp/pbs.5102103.sched01/tmp7htwmlud/1762k52hbh7.sdf

>  <i_m_source_file_index>  (484) 
10

>  <i_lp_mmshare_version>  (484) 
48012

>  <i_f3d_flags>  (484) 
0

>  <s_epik_input>  (484) 
W2NIXTFbbkhdbmMoYzEyKVtDSDJdTihbQ0gyXTIpQyg9TyljM1tjSF1bY0hdbltjSF1bY0hdMw==

>  <s_epik_cmdline>  (484) 
J2VwaWtfcHl0aG9uJywgJy1waHQnLCAnMi4wJywgJy1waCcsICc3LjAnLCAnLXRuJywgJzgnLCAnLW1hJywgJzIwMCcsICctaW1hZScsICc8aW5maWxlLm1hZT4nLCAnLW9tYWUnLCAnPG91dGZpbGUubWFlPic=

>  <r_lp_tautomer_probability>  (484) 
0.5

>  <r_epik_Ionization_Penalty>  (484) 
0.000128443

>  <r_epik_Ionization_Penalty_Charging>  (484) 
0

>  <r_epik_Ionization_Penalty_Neutral>  (484) 
0.000128443

>  <r_epik_State_Penalty>  (484) 
0.41068

>  <r_epik_Charging_Adjusted_Penalty>  (484) 
0.41068

>  <i_epik_Tot_Q>  (484) 
0

>  <i_epik_Tot_abs_Q>  (484) 
0

>  <s_lp_Force_Field>  (484) 
OPLS3e

>  <r_lp_Energy>  (484) 
24.7075

>  <b_lp_Chiralities_Consistent>  (484) 
1

>  <s_lp_Variant>  (484) 
116:0-1

>  <s_i_glide_gridfile>  (484) 
pfpi4k_grid

>  <i_i_glide_lignum>  (484) 
10

>  <i_i_glide_rotatable_bonds>  (484) 
2

>  <r_i_docking_score>  (484) 
-4.11697

>  <r_i_glide_ligand_efficiency>  (484) 
-0.257311

>  <r_i_glide_ligand_efficiency_sa>  (484) 
-0.648383

>  <r_i_glide_ligand_efficiency_ln>  (484) 
-1.09129

>  <r_i_glide_gscore>  (484) 
-4.11697

>  <r_i_glide_lipo>  (484) 
-0.337498

>  <r_i_glide_hbond>  (484) 
-0.16

>  <r_i_glide_metal>  (484) 
-0

>  <r_i_glide_rewards>  (484) 
-2.00789

>  <r_i_glide_evdw>  (484) 
-22.432

>  <r_i_glide_ecoul>  (484) 
-7.74583

>  <r_i_glide_erotb>  (484) 
0.727932

>  <r_i_glide_esite>  (484) 
-0.0560408

>  <r_i_glide_emodel>  (484) 
-37.121

>  <r_i_glide_energy>  (484) 
-30.1779

>  <r_i_glide_einternal>  (484) 
1.78395

>  <r_i_glide_intrahb_reward>  (484) 
-0

>  <i_i_glide_confnum>  (484) 
2

>  <i_i_glide_posenum>  (484) 
21

>  <r_i_glide_eff_state_penalty>  (484) 
0

>  <ligand_id>  (484) 
116

>  <original_smiles>  (484) 
O=C(c1ccncc1)N1Cc2c[nH]nc2C1

>  <smiles>  (484) 
[H]c1nc([H])c([H])c(C(=O)N2C([H])([H])c3nn([H])c([H])c3C2([H])[H])c1[H]

$$$$
116:0:2
     RDKit          3D

 26 28  0  0  1  0  0  0  0  0999 V2000
    5.4005   -5.6116    0.0889 O   0  0  0  0  0  0  0  0  0  0  0  0
    4.4814   -4.7925    0.1695 C   0  0  0  0  0  0  0  0  0  0  0  0
    3.5067   -4.8877    1.3218 C   0  0  0  0  0  0  0  0  0  0  0  0
    2.9115   -6.1268    1.6541 C   0  0  0  0  0  0  0  0  0  0  0  0
    1.9757   -6.1751    2.7067 C   0  0  0  0  0  0  0  0  0  0  0  0
    1.5926   -5.0839    3.4024 N   0  0  0  0  0  0  0  0  0  0  0  0
    2.1933   -3.9105    3.1153 C   0  0  0  0  0  0  0  0  0  0  0  0
    3.1705   -3.7640    2.1170 C   0  0  0  0  0  0  0  0  0  0  0  0
    4.2780   -3.8473   -0.7794 N   0  0  0  0  0  0  0  0  0  0  0  0
    3.2673   -2.7533   -0.7159 C   0  0  0  0  0  0  0  0  0  0  0  0
    3.4337   -2.0892   -2.0101 C   0  0  0  0  0  0  0  0  0  0  0  0
    3.0142   -1.0258   -2.7367 C   0  0  0  0  0  0  0  0  0  0  0  0
    3.7486   -1.0891   -3.9068 N   0  0  0  0  0  0  0  0  0  0  0  0
    4.6119   -2.1232   -3.9194 N   0  0  0  0  0  0  0  0  0  0  0  0
    4.4122   -2.6889   -2.7619 C   0  0  0  0  0  0  0  0  0  0  0  0
    5.0239   -3.8421   -2.0716 C   0  0  0  0  0  0  0  0  0  0  0  0
    3.6522   -0.4466   -4.6739 H   0  0  0  0  0  0  0  0  0  0  0  0
    3.1675   -7.0322    1.1174 H   0  0  0  0  0  0  0  0  0  0  0  0
    1.5149   -7.1071    3.0000 H   0  0  0  0  0  0  0  0  0  0  0  0
    1.8922   -3.0494    3.6905 H   0  0  0  0  0  0  0  0  0  0  0  0
    3.6300   -2.7972    1.9679 H   0  0  0  0  0  0  0  0  0  0  0  0
    2.2580   -3.1359   -0.5777 H   0  0  0  0  0  0  0  0  0  0  0  0
    3.4991   -2.0425    0.0738 H   0  0  0  0  0  0  0  0  0  0  0  0
    2.2737   -0.2684   -2.5358 H   0  0  0  0  0  0  0  0  0  0  0  0
    6.0987   -3.7287   -1.9214 H   0  0  0  0  0  0  0  0  0  0  0  0
    4.8623   -4.7593   -2.6335 H   0  0  0  0  0  0  0  0  0  0  0  0
  1  2  2  0
  2  3  1  0
  2  9  1  0
  3  8  1  0
  3  4  2  0
  4  5  1  0
  4 18  1  0
  5  6  2  0
  5 19  1  0
  6  7  1  0
  7  8  2  0
  7 20  1  0
  8 21  1  0
  9 16  1  0
  9 10  1  0
 10 11  1  0
 10 22  1  0
 10 23  1  0
 11 15  1  0
 11 12  2  0
 12 13  1  0
 12 24  1  0
 13 17  1  0
 13 14  1  0
 14 15  2  0
 15 16  1  0
 16 25  1  0
 16 26  1  0
M  END
>  <i_m_ct_stereo_status>  (485) 
1

>  <s_m_source_file>  (485) 
/var/tmp/pbs.5102103.sched01/tmp7htwmlud/1762k52hbh7.sdf

>  <i_m_source_file_index>  (485) 
10

>  <i_lp_mmshare_version>  (485) 
48012

>  <i_f3d_flags>  (485) 
0

>  <s_epik_input>  (485) 
W2NIXTFbbkhdbmMoYzEyKVtDSDJdTihbQ0gyXTIpQyg9TyljM1tjSF1bY0hdbltjSF1bY0hdMw==

>  <s_epik_cmdline>  (485) 
J2VwaWtfcHl0aG9uJywgJy1waHQnLCAnMi4wJywgJy1waCcsICc3LjAnLCAnLXRuJywgJzgnLCAnLW1hJywgJzIwMCcsICctaW1hZScsICc8aW5maWxlLm1hZT4nLCAnLW9tYWUnLCAnPG91dGZpbGUubWFlPic=

>  <r_lp_tautomer_probability>  (485) 
0.5

>  <r_epik_Ionization_Penalty>  (485) 
0.000128443

>  <r_epik_Ionization_Penalty_Charging>  (485) 
0

>  <r_epik_Ionization_Penalty_Neutral>  (485) 
0.000128443

>  <r_epik_State_Penalty>  (485) 
0.41068

>  <r_epik_Charging_Adjusted_Penalty>  (485) 
0.41068

>  <i_epik_Tot_Q>  (485) 
0

>  <i_epik_Tot_abs_Q>  (485) 
0

>  <s_lp_Force_Field>  (485) 
OPLS3e

>  <r_lp_Energy>  (485) 
24.7075

>  <b_lp_Chiralities_Consistent>  (485) 
1

>  <s_lp_Variant>  (485) 
116:0-1

>  <s_i_glide_gridfile>  (485) 
pfpi4k_grid

>  <i_i_glide_lignum>  (485) 
10

>  <i_i_glide_rotatable_bonds>  (485) 
2

>  <r_i_docking_score>  (485) 
-3.09644

>  <r_i_glide_ligand_efficiency>  (485) 
-0.193528

>  <r_i_glide_ligand_efficiency_sa>  (485) 
-0.487659

>  <r_i_glide_ligand_efficiency_ln>  (485) 
-0.820774

>  <r_i_glide_gscore>  (485) 
-3.09644

>  <r_i_glide_lipo>  (485) 
-0.107642

>  <r_i_glide_hbond>  (485) 
-0.1275

>  <r_i_glide_metal>  (485) 
-0

>  <r_i_glide_rewards>  (485) 
-1.97368

>  <r_i_glide_evdw>  (485) 
-19.7258

>  <r_i_glide_ecoul>  (485) 
-4.1345

>  <r_i_glide_erotb>  (485) 
0.727932

>  <r_i_glide_esite>  (485) 
-0.00908998

>  <r_i_glide_emodel>  (485) 
-29.0898

>  <r_i_glide_energy>  (485) 
-23.8603

>  <r_i_glide_einternal>  (485) 
0.850568

>  <r_i_glide_intrahb_reward>  (485) 
-0

>  <i_i_glide_confnum>  (485) 
4

>  <i_i_glide_posenum>  (485) 
15

>  <r_i_glide_eff_state_penalty>  (485) 
0

>  <ligand_id>  (485) 
116

>  <original_smiles>  (485) 
O=C(c1ccncc1)N1Cc2c[nH]nc2C1

>  <smiles>  (485) 
[H]c1nc([H])c([H])c(C(=O)N2C([H])([H])c3nn([H])c([H])c3C2([H])[H])c1[H]

$$$$
116:1:0
     RDKit          3D

 26 28  0  0  1  0  0  0  0  0999 V2000
   -7.9028   -9.2736   -9.0273 O   0  0  0  0  0  0  0  0  0  0  0  0
   -7.3545   -9.3279   -7.9325 C   0  0  0  0  0  0  0  0  0  0  0  0
   -6.9147  -10.6579   -7.3774 C   0  0  0  0  0  0  0  0  0  0  0  0
   -7.8082  -11.7530   -7.3647 C   0  0  0  0  0  0  0  0  0  0  0  0
   -7.3850  -12.9773   -6.8161 C   0  0  0  0  0  0  0  0  0  0  0  0
   -6.1541  -13.1675   -6.2869 N   0  0  0  0  0  0  0  0  0  0  0  0
   -5.2898  -12.1258   -6.3272 C   0  0  0  0  0  0  0  0  0  0  0  0
   -5.6059  -10.8793   -6.8937 C   0  0  0  0  0  0  0  0  0  0  0  0
   -7.2015   -8.2210   -7.1498 N   0  0  0  0  0  0  0  0  0  0  0  0
   -6.5053   -8.1668   -5.8351 C   0  0  0  0  0  0  0  0  0  0  0  0
   -6.7042   -6.7577   -5.4389 C   0  0  0  0  0  0  0  0  0  0  0  0
   -6.3743   -5.8144   -4.4324 C   0  0  0  0  0  0  0  0  0  0  0  0
   -6.8646   -4.6101   -4.7441 N   0  0  0  0  0  0  0  0  0  0  0  0
   -7.5129   -4.7789   -5.9317 N   0  0  0  0  0  0  0  0  0  0  0  0
   -7.3977   -6.0842   -6.3470 C   0  0  0  0  0  0  0  0  0  0  0  0
   -7.7976   -6.9045   -7.5061 C   0  0  0  0  0  0  0  0  0  0  0  0
   -7.9952   -4.0257   -6.4037 H   0  0  0  0  0  0  0  0  0  0  0  0
   -8.8139  -11.6589   -7.7583 H   0  0  0  0  0  0  0  0  0  0  0  0
   -8.0402  -13.8397   -6.7953 H   0  0  0  0  0  0  0  0  0  0  0  0
   -4.3126  -12.2946   -5.9022 H   0  0  0  0  0  0  0  0  0  0  0  0
   -4.8487  -10.1069   -6.9182 H   0  0  0  0  0  0  0  0  0  0  0  0
   -6.9511   -8.8607   -5.1229 H   0  0  0  0  0  0  0  0  0  0  0  0
   -5.4390   -8.3604   -5.9294 H   0  0  0  0  0  0  0  0  0  0  0  0
   -5.7898   -5.9529   -3.5353 H   0  0  0  0  0  0  0  0  0  0  0  0
   -7.3881   -6.5227   -8.4427 H   0  0  0  0  0  0  0  0  0  0  0  0
   -8.8851   -6.9651   -7.5847 H   0  0  0  0  0  0  0  0  0  0  0  0
  1  2  2  0
  2  3  1  0
  2  9  1  0
  3  8  1  0
  3  4  2  0
  4  5  1  0
  4 18  1  0
  5  6  2  0
  5 19  1  0
  6  7  1  0
  7  8  2  0
  7 20  1  0
  8 21  1  0
  9 16  1  0
  9 10  1  0
 10 22  1  0
 10 23  1  0
 10 11  1  0
 11 15  2  0
 11 12  1  0
 12 24  1  0
 12 13  2  0
 13 14  1  0
 14 17  1  0
 14 15  1  0
 15 16  1  0
 16 25  1  0
 16 26  1  0
M  END
>  <i_m_ct_stereo_status>  (486) 
1

>  <s_m_source_file>  (486) 
/var/tmp/pbs.5102103.sched01/tmp7htwmlud/1762k52hbh7.sdf

>  <i_m_source_file_index>  (486) 
11

>  <i_lp_mmshare_version>  (486) 
48012

>  <i_f3d_flags>  (486) 
0

>  <s_epik_input>  (486) 
W2NIXTFbbkhdbmMoYzEyKVtDSDJdTihbQ0gyXTIpQyg9TyljM1tjSF1bY0hdbltjSF1bY0hdMw==

>  <s_epik_cmdline>  (486) 
J2VwaWtfcHl0aG9uJywgJy1waHQnLCAnMi4wJywgJy1waCcsICc3LjAnLCAnLXRuJywgJzgnLCAnLW1hJywgJzIwMCcsICctaW1hZScsICc8aW5maWxlLm1hZT4nLCAnLW9tYWUnLCAnPG91dGZpbGUubWFlPic=

>  <r_lp_tautomer_probability>  (486) 
0.5

>  <r_epik_Ionization_Penalty>  (486) 
0.000120046

>  <r_epik_Ionization_Penalty_Charging>  (486) 
0

>  <r_epik_Ionization_Penalty_Neutral>  (486) 
0.000120046

>  <r_epik_State_Penalty>  (486) 
0.41068

>  <r_epik_Charging_Adjusted_Penalty>  (486) 
0.41068

>  <i_epik_Tot_Q>  (486) 
0

>  <i_epik_Tot_abs_Q>  (486) 
0

>  <s_lp_Force_Field>  (486) 
OPLS3e

>  <r_lp_Energy>  (486) 
25.4664

>  <b_lp_Chiralities_Consistent>  (486) 
1

>  <s_lp_Variant>  (486) 
116:0-2

>  <s_i_glide_gridfile>  (486) 
pfpi4k_grid

>  <i_i_glide_lignum>  (486) 
11

>  <i_i_glide_rotatable_bonds>  (486) 
2

>  <r_i_docking_score>  (486) 
-4.99574

>  <r_i_glide_ligand_efficiency>  (486) 
-0.312234

>  <r_i_glide_ligand_efficiency_sa>  (486) 
-0.78678

>  <r_i_glide_ligand_efficiency_ln>  (486) 
-1.32422

>  <r_i_glide_gscore>  (486) 
-4.99574

>  <r_i_glide_lipo>  (486) 
-1.72091

>  <r_i_glide_hbond>  (486) 
0

>  <r_i_glide_metal>  (486) 
-0

>  <r_i_glide_rewards>  (486) 
-2.64105

>  <r_i_glide_evdw>  (486) 
-27.3371

>  <r_i_glide_ecoul>  (486) 
0.0342589

>  <r_i_glide_erotb>  (486) 
0.727932

>  <r_i_glide_esite>  (486) 
0

>  <r_i_glide_emodel>  (486) 
-35.9547

>  <r_i_glide_energy>  (486) 
-27.3028

>  <r_i_glide_einternal>  (486) 
0.546043

>  <r_i_glide_intrahb_reward>  (486) 
-0

>  <i_i_glide_confnum>  (486) 
3

>  <i_i_glide_posenum>  (486) 
3

>  <r_i_glide_eff_state_penalty>  (486) 
0

>  <ligand_id>  (486) 
116

>  <original_smiles>  (486) 
O=C(c1ccncc1)N1Cc2c[nH]nc2C1

>  <smiles>  (486) 
[H]c1nc([H])c([H])c(C(=O)N2C([H])([H])c3c([H])nn([H])c3C2([H])[H])c1[H]

$$$$
116:1:1
     RDKit          3D

 26 28  0  0  1  0  0  0  0  0999 V2000
    0.6266   -1.7075    4.7831 O   0  0  0  0  0  0  0  0  0  0  0  0
    0.9121   -0.7723    4.0360 C   0  0  0  0  0  0  0  0  0  0  0  0
    2.2055   -0.8052    3.2614 C   0  0  0  0  0  0  0  0  0  0  0  0
    3.4364   -1.0596    3.9138 C   0  0  0  0  0  0  0  0  0  0  0  0
    4.6283   -1.0300    3.1613 C   0  0  0  0  0  0  0  0  0  0  0  0
    4.6618   -0.7660    1.8379 N   0  0  0  0  0  0  0  0  0  0  0  0
    3.4849   -0.5585    1.2089 C   0  0  0  0  0  0  0  0  0  0  0  0
    2.2424   -0.5964    1.8644 C   0  0  0  0  0  0  0  0  0  0  0  0
    0.1304    0.3276    3.9268 N   0  0  0  0  0  0  0  0  0  0  0  0
   -1.0817    0.5689    4.7683 C   0  0  0  0  0  0  0  0  0  0  0  0
   -1.5205    1.9153    4.2938 C   0  0  0  0  0  0  0  0  0  0  0  0
   -2.5134    2.9308    4.4268 C   0  0  0  0  0  0  0  0  0  0  0  0
   -2.2751    3.9438    3.5843 N   0  0  0  0  0  0  0  0  0  0  0  0
   -1.1570    3.5801    2.9047 N   0  0  0  0  0  0  0  0  0  0  0  0
   -0.7040    2.3779    3.3584 C   0  0  0  0  0  0  0  0  0  0  0  0
    0.3930    1.4778    3.0177 C   0  0  0  0  0  0  0  0  0  0  0  0
   -0.7288    4.1201    2.1468 H   0  0  0  0  0  0  0  0  0  0  0  0
    3.4753   -1.2568    4.9742 H   0  0  0  0  0  0  0  0  0  0  0  0
    5.5869   -1.2293    3.6270 H   0  0  0  0  0  0  0  0  0  0  0  0
    3.5312   -0.3570    0.1494 H   0  0  0  0  0  0  0  0  0  0  0  0
    1.3416   -0.4412    1.2844 H   0  0  0  0  0  0  0  0  0  0  0  0
   -1.8271   -0.2136    4.6055 H   0  0  0  0  0  0  0  0  0  0  0  0
   -0.8190    0.5760    5.8278 H   0  0  0  0  0  0  0  0  0  0  0  0
   -3.3781    2.9527    5.0784 H   0  0  0  0  0  0  0  0  0  0  0  0
    1.3589    1.9491    3.2170 H   0  0  0  0  0  0  0  0  0  0  0  0
    0.3039    1.2041    1.9648 H   0  0  0  0  0  0  0  0  0  0  0  0
  1  2  2  0
  2  3  1  0
  2  9  1  0
  3  8  1  0
  3  4  2  0
  4  5  1  0
  4 18  1  0
  5  6  2  0
  5 19  1  0
  6  7  1  0
  7  8  2  0
  7 20  1  0
  8 21  1  0
  9 16  1  0
  9 10  1  0
 10 22  1  0
 10 23  1  0
 10 11  1  0
 11 15  2  0
 11 12  1  0
 12 24  1  0
 12 13  2  0
 13 14  1  0
 14 17  1  0
 14 15  1  0
 15 16  1  0
 16 25  1  0
 16 26  1  0
M  END
>  <i_m_ct_stereo_status>  (487) 
1

>  <s_m_source_file>  (487) 
/var/tmp/pbs.5102103.sched01/tmp7htwmlud/1762k52hbh7.sdf

>  <i_m_source_file_index>  (487) 
11

>  <i_lp_mmshare_version>  (487) 
48012

>  <i_f3d_flags>  (487) 
0

>  <s_epik_input>  (487) 
W2NIXTFbbkhdbmMoYzEyKVtDSDJdTihbQ0gyXTIpQyg9TyljM1tjSF1bY0hdbltjSF1bY0hdMw==

>  <s_epik_cmdline>  (487) 
J2VwaWtfcHl0aG9uJywgJy1waHQnLCAnMi4wJywgJy1waCcsICc3LjAnLCAnLXRuJywgJzgnLCAnLW1hJywgJzIwMCcsICctaW1hZScsICc8aW5maWxlLm1hZT4nLCAnLW9tYWUnLCAnPG91dGZpbGUubWFlPic=

>  <r_lp_tautomer_probability>  (487) 
0.5

>  <r_epik_Ionization_Penalty>  (487) 
0.000120046

>  <r_epik_Ionization_Penalty_Charging>  (487) 
0

>  <r_epik_Ionization_Penalty_Neutral>  (487) 
0.000120046

>  <r_epik_State_Penalty>  (487) 
0.41068

>  <r_epik_Charging_Adjusted_Penalty>  (487) 
0.41068

>  <i_epik_Tot_Q>  (487) 
0

>  <i_epik_Tot_abs_Q>  (487) 
0

>  <s_lp_Force_Field>  (487) 
OPLS3e

>  <r_lp_Energy>  (487) 
25.4664

>  <b_lp_Chiralities_Consistent>  (487) 
1

>  <s_lp_Variant>  (487) 
116:0-2

>  <s_i_glide_gridfile>  (487) 
pfpi4k_grid

>  <i_i_glide_lignum>  (487) 
11

>  <i_i_glide_rotatable_bonds>  (487) 
2

>  <r_i_docking_score>  (487) 
-3.47683

>  <r_i_glide_ligand_efficiency>  (487) 
-0.217302

>  <r_i_glide_ligand_efficiency_sa>  (487) 
-0.547566

>  <r_i_glide_ligand_efficiency_ln>  (487) 
-0.921603

>  <r_i_glide_gscore>  (487) 
-3.47683

>  <r_i_glide_lipo>  (487) 
-0.0653625

>  <r_i_glide_hbond>  (487) 
-0.171871

>  <r_i_glide_metal>  (487) 
-0

>  <r_i_glide_rewards>  (487) 
-1.94848

>  <r_i_glide_evdw>  (487) 
-16.064

>  <r_i_glide_ecoul>  (487) 
-7.29483

>  <r_i_glide_erotb>  (487) 
0.727932

>  <r_i_glide_esite>  (487) 
-0.121627

>  <r_i_glide_emodel>  (487) 
-29.0967

>  <r_i_glide_energy>  (487) 
-23.3588

>  <r_i_glide_einternal>  (487) 
0.56716

>  <r_i_glide_intrahb_reward>  (487) 
-0

>  <i_i_glide_confnum>  (487) 
5

>  <i_i_glide_posenum>  (487) 
7

>  <r_i_glide_eff_state_penalty>  (487) 
0

>  <ligand_id>  (487) 
116

>  <original_smiles>  (487) 
O=C(c1ccncc1)N1Cc2c[nH]nc2C1

>  <smiles>  (487) 
[H]c1nc([H])c([H])c(C(=O)N2C([H])([H])c3c([H])nn([H])c3C2([H])[H])c1[H]

$$$$
116:1:2
     RDKit          3D

 26 28  0  0  1  0  0  0  0  0999 V2000
    0.7917   -1.9953    4.5129 O   0  0  0  0  0  0  0  0  0  0  0  0
    1.0205   -1.0426    3.7384 C   0  0  0  0  0  0  0  0  0  0  0  0
    2.1335   -1.1928    2.7096 C   0  0  0  0  0  0  0  0  0  0  0  0
    3.0820   -0.1566    2.5141 C   0  0  0  0  0  0  0  0  0  0  0  0
    4.0253   -0.3034    1.4670 C   0  0  0  0  0  0  0  0  0  0  0  0
    4.1300   -1.4105    0.7069 N   0  0  0  0  0  0  0  0  0  0  0  0
    3.2809   -2.4251    0.9572 C   0  0  0  0  0  0  0  0  0  0  0  0
    2.2623   -2.3659    1.9472 C   0  0  0  0  0  0  0  0  0  0  0  0
    0.2964    0.0718    3.7469 N   0  0  0  0  0  0  0  0  0  0  0  0
   -0.8308    0.3301    4.7043 C   0  0  0  0  0  0  0  0  0  0  0  0
   -1.3121    1.6726    4.2731 C   0  0  0  0  0  0  0  0  0  0  0  0
   -2.2167    2.7348    4.5455 C   0  0  0  0  0  0  0  0  0  0  0  0
   -2.0349    3.7649    3.7019 N   0  0  0  0  0  0  0  0  0  0  0  0
   -1.0322    3.3509    2.8844 N   0  0  0  0  0  0  0  0  0  0  0  0
   -0.6235    2.1049    3.2088 C   0  0  0  0  0  0  0  0  0  0  0  0
    0.4399    1.2097    2.7827 C   0  0  0  0  0  0  0  0  0  0  0  0
   -0.6239    3.9208    2.1236 H   0  0  0  0  0  0  0  0  0  0  0  0
    3.0871    0.7369    3.1033 H   0  0  0  0  0  0  0  0  0  0  0  0
    4.7027    0.5057    1.2559 H   0  0  0  0  0  0  0  0  0  0  0  0
    3.4164   -3.3188    0.3587 H   0  0  0  0  0  0  0  0  0  0  0  0
    1.6067   -3.2063    2.0871 H   0  0  0  0  0  0  0  0  0  0  0  0
   -1.6122   -0.4268    4.6024 H   0  0  0  0  0  0  0  0  0  0  0  0
   -0.4673    0.3140    5.7378 H   0  0  0  0  0  0  0  0  0  0  0  0
   -2.9838    2.7969    5.3053 H   0  0  0  0  0  0  0  0  0  0  0  0
    1.3791    1.7412    2.8923 H   0  0  0  0  0  0  0  0  0  0  0  0
    0.2828    0.8872    1.7466 H   0  0  0  0  0  0  0  0  0  0  0  0
  1  2  2  0
  2  3  1  0
  2  9  1  0
  3  8  1  0
  3  4  2  0
  4  5  1  0
  4 18  1  0
  5  6  2  0
  5 19  1  0
  6  7  1  0
  7  8  2  0
  7 20  1  0
  8 21  1  0
  9 16  1  0
  9 10  1  0
 10 22  1  0
 10 23  1  0
 10 11  1  0
 11 15  2  0
 11 12  1  0
 12 24  1  0
 12 13  2  0
 13 14  1  0
 14 17  1  0
 14 15  1  0
 15 16  1  0
 16 25  1  0
 16 26  1  0
M  END
>  <i_m_ct_stereo_status>  (488) 
1

>  <s_m_source_file>  (488) 
/var/tmp/pbs.5102103.sched01/tmp7htwmlud/1762k52hbh7.sdf

>  <i_m_source_file_index>  (488) 
11

>  <i_lp_mmshare_version>  (488) 
48012

>  <i_f3d_flags>  (488) 
0

>  <s_epik_input>  (488) 
W2NIXTFbbkhdbmMoYzEyKVtDSDJdTihbQ0gyXTIpQyg9TyljM1tjSF1bY0hdbltjSF1bY0hdMw==

>  <s_epik_cmdline>  (488) 
J2VwaWtfcHl0aG9uJywgJy1waHQnLCAnMi4wJywgJy1waCcsICc3LjAnLCAnLXRuJywgJzgnLCAnLW1hJywgJzIwMCcsICctaW1hZScsICc8aW5maWxlLm1hZT4nLCAnLW9tYWUnLCAnPG91dGZpbGUubWFlPic=

>  <r_lp_tautomer_probability>  (488) 
0.5

>  <r_epik_Ionization_Penalty>  (488) 
0.000120046

>  <r_epik_Ionization_Penalty_Charging>  (488) 
0

>  <r_epik_Ionization_Penalty_Neutral>  (488) 
0.000120046

>  <r_epik_State_Penalty>  (488) 
0.41068

>  <r_epik_Charging_Adjusted_Penalty>  (488) 
0.41068

>  <i_epik_Tot_Q>  (488) 
0

>  <i_epik_Tot_abs_Q>  (488) 
0

>  <s_lp_Force_Field>  (488) 
OPLS3e

>  <r_lp_Energy>  (488) 
25.4664

>  <b_lp_Chiralities_Consistent>  (488) 
1

>  <s_lp_Variant>  (488) 
116:0-2

>  <s_i_glide_gridfile>  (488) 
pfpi4k_grid

>  <i_i_glide_lignum>  (488) 
11

>  <i_i_glide_rotatable_bonds>  (488) 
2

>  <r_i_docking_score>  (488) 
-3.44983

>  <r_i_glide_ligand_efficiency>  (488) 
-0.215615

>  <r_i_glide_ligand_efficiency_sa>  (488) 
-0.543315

>  <r_i_glide_ligand_efficiency_ln>  (488) 
-0.914447

>  <r_i_glide_gscore>  (488) 
-3.44983

>  <r_i_glide_lipo>  (488) 
-0.0789049

>  <r_i_glide_hbond>  (488) 
-0.16

>  <r_i_glide_metal>  (488) 
-0

>  <r_i_glide_rewards>  (488) 
-1.94848

>  <r_i_glide_evdw>  (488) 
-17.3583

>  <r_i_glide_ecoul>  (488) 
-6.66414

>  <r_i_glide_erotb>  (488) 
0.727932

>  <r_i_glide_esite>  (488) 
-0.12285

>  <r_i_glide_emodel>  (488) 
-29.5034

>  <r_i_glide_energy>  (488) 
-24.0224

>  <r_i_glide_einternal>  (488) 
0.504531

>  <r_i_glide_intrahb_reward>  (488) 
-0

>  <i_i_glide_confnum>  (488) 
5

>  <i_i_glide_posenum>  (488) 
1

>  <r_i_glide_eff_state_penalty>  (488) 
0

>  <ligand_id>  (488) 
116

>  <original_smiles>  (488) 
O=C(c1ccncc1)N1Cc2c[nH]nc2C1

>  <smiles>  (488) 
[H]c1nc([H])c([H])c(C(=O)N2C([H])([H])c3c([H])nn([H])c3C2([H])[H])c1[H]

$$$$
117:0:0
     RDKit          3D

 24 27  0  0  1  0  0  0  0  0999 V2000
    8.2597   -4.0207    0.1650 C   0  0  0  0  0  0  0  0  0  0  0  0
    8.1122   -2.9040   -0.6732 C   0  0  0  0  0  0  0  0  0  0  0  0
    6.9076   -2.4680   -1.0965 N   0  0  0  0  0  0  0  0  0  0  0  0
    5.8086   -3.1650   -0.7148 C   0  0  0  0  0  0  0  0  0  0  0  0
    5.8397   -4.3202    0.1134 C   0  0  0  0  0  0  0  0  0  0  0  0
    4.6025   -5.0544    0.5116 C   0  0  0  0  0  0  0  0  0  0  0  0
    3.4522   -4.3732    0.3091 N   0  0  0  0  0  0  0  0  0  0  0  0
    2.2456   -4.8943    0.6267 N   0  0  0  0  0  0  0  0  0  0  0  0
    2.2550   -6.1097    1.1614 C   0  0  0  0  0  0  0  0  0  0  0  0
    3.5094   -6.7826    1.3534 C   0  0  0  0  0  0  0  0  0  0  0  0
    4.7187   -6.2912    1.0444 N   0  0  0  0  0  0  0  0  0  0  0  0
    3.3014   -8.4181    2.0736 S   0  0  0  0  0  0  0  0  0  0  0  0
    1.5722   -8.0554    2.0783 C   0  0  0  0  0  0  0  0  0  0  0  0
    0.4344   -8.7620    2.4981 C   0  0  0  0  0  0  0  0  0  0  0  0
   -0.5559   -7.7668    2.1355 C   0  0  0  0  0  0  0  0  0  0  0  0
   -0.0731   -6.6225    1.5775 N   0  0  0  0  0  0  0  0  0  0  0  0
    1.2443   -6.8584    1.5718 N   0  0  0  0  0  0  0  0  0  0  0  0
    7.1126   -4.7361    0.5642 C   0  0  0  0  0  0  0  0  0  0  0  0
    9.2382   -4.3247    0.5088 H   0  0  0  0  0  0  0  0  0  0  0  0
    8.9771   -2.3380   -0.9963 H   0  0  0  0  0  0  0  0  0  0  0  0
    4.8902   -2.7605   -1.1135 H   0  0  0  0  0  0  0  0  0  0  0  0
    0.4223   -9.7576    2.9350 H   0  0  0  0  0  0  0  0  0  0  0  0
   -1.6271   -7.7987    2.2404 H   0  0  0  0  0  0  0  0  0  0  0  0
    7.2227   -5.5904    1.2151 H   0  0  0  0  0  0  0  0  0  0  0  0
  1 18  2  0
  1  2  1  0
  1 19  1  0
  2  3  2  0
  2 20  1  0
  3  4  1  0
  4  5  2  0
  4 21  1  0
  5  6  1  0
  5 18  1  0
  6 11  1  0
  6  7  2  0
  7  8  1  0
  8  9  2  0
  9 17  1  0
  9 10  1  0
 10 11  2  0
 10 12  1  0
 12 13  1  0
 13 17  1  0
 13 14  2  0
 14 15  1  0
 14 22  1  0
 15 16  2  0
 15 23  1  0
 16 17  1  0
 18 24  1  0
M  END
>  <i_m_ct_stereo_status>  (489) 
1

>  <s_m_source_file>  (489) 
/var/tmp/pbs.5102103.sched01/tmp7htwmlud/1762k52hbh7.sdf

>  <i_m_source_file_index>  (489) 
12

>  <i_lp_mmshare_version>  (489) 
48012

>  <i_f3d_flags>  (489) 
0

>  <s_epik_input>  (489) 
W2NIXTFbY0hdW2NIXW5bY0hdYzEtYyhubjIpbmMoYzIzKXNjNG4zbltjSF1bY0hdNA==

>  <s_epik_cmdline>  (489) 
J2VwaWtfcHl0aG9uJywgJy1waHQnLCAnMi4wJywgJy1waCcsICc3LjAnLCAnLXRuJywgJzgnLCAnLW1hJywgJzIwMCcsICctaW1hZScsICc8aW5maWxlLm1hZT4nLCAnLW9tYWUnLCAnPG91dGZpbGUubWFlPic=

>  <r_epik_Ionization_Penalty>  (489) 
0.00422793

>  <r_epik_Ionization_Penalty_Charging>  (489) 
0

>  <r_epik_Ionization_Penalty_Neutral>  (489) 
0.00422793

>  <r_epik_State_Penalty>  (489) 
0.00303862

>  <r_epik_Charging_Adjusted_Penalty>  (489) 
0.00303862

>  <i_epik_Tot_Q>  (489) 
0

>  <i_epik_Tot_abs_Q>  (489) 
0

>  <s_lp_Force_Field>  (489) 
OPLS3e

>  <r_lp_Energy>  (489) 
31.9009

>  <b_lp_Chiralities_Consistent>  (489) 
1

>  <s_lp_Variant>  (489) 
117:0-1

>  <s_i_glide_gridfile>  (489) 
pfpi4k_grid

>  <i_i_glide_lignum>  (489) 
12

>  <i_i_glide_rotatable_bonds>  (489) 
1

>  <r_i_docking_score>  (489) 
-4.27776

>  <r_i_glide_ligand_efficiency>  (489) 
-0.237653

>  <r_i_glide_ligand_efficiency_sa>  (489) 
-0.622828

>  <r_i_glide_ligand_efficiency_ln>  (489) 
-1.09958

>  <r_i_glide_gscore>  (489) 
-4.27776

>  <r_i_glide_lipo>  (489) 
-0.463085

>  <r_i_glide_hbond>  (489) 
-0.350066

>  <r_i_glide_metal>  (489) 
-0

>  <r_i_glide_rewards>  (489) 
-1.75477

>  <r_i_glide_evdw>  (489) 
-25.0205

>  <r_i_glide_ecoul>  (489) 
-3.92404

>  <r_i_glide_erotb>  (489) 
0.271977

>  <r_i_glide_esite>  (489) 
-0.142192

>  <r_i_glide_emodel>  (489) 
-37.7739

>  <r_i_glide_energy>  (489) 
-28.9446

>  <r_i_glide_einternal>  (489) 
0.258646

>  <r_i_glide_intrahb_reward>  (489) 
-0

>  <i_i_glide_confnum>  (489) 
4

>  <i_i_glide_posenum>  (489) 
6

>  <r_i_glide_eff_state_penalty>  (489) 
0

>  <ligand_id>  (489) 
117

>  <original_smiles>  (489) 
c1cncc(-c2nnc3c(n2)sc2ccnn23)c1

>  <smiles>  (489) 
[H]c1nc([H])c(-c2nnc3c(n2)sc2c([H])c([H])nn23)c([H])c1[H]

$$$$
117:0:1
     RDKit          3D

 24 27  0  0  1  0  0  0  0  0999 V2000
    8.0817   -5.8683    1.0038 C   0  0  0  0  0  0  0  0  0  0  0  0
    8.1576   -4.5609    0.4924 C   0  0  0  0  0  0  0  0  0  0  0  0
    7.0648   -3.8080    0.2626 N   0  0  0  0  0  0  0  0  0  0  0  0
    5.8496   -4.3404    0.5420 C   0  0  0  0  0  0  0  0  0  0  0  0
    5.6462   -5.6491    1.0644 C   0  0  0  0  0  0  0  0  0  0  0  0
    4.2889   -6.1890    1.3596 C   0  0  0  0  0  0  0  0  0  0  0  0
    3.2806   -5.3100    1.1702 N   0  0  0  0  0  0  0  0  0  0  0  0
    1.9840   -5.6242    1.3963 N   0  0  0  0  0  0  0  0  0  0  0  0
    1.7615   -6.8551    1.8221 C   0  0  0  0  0  0  0  0  0  0  0  0
    2.8786   -7.7563    2.0056 C   0  0  0  0  0  0  0  0  0  0  0  0
    4.1722   -7.4629    1.7857 N   0  0  0  0  0  0  0  0  0  0  0  0
    2.3728   -9.3913    2.5848 S   0  0  0  0  0  0  0  0  0  0  0  0
    0.7320   -8.7226    2.5496 C   0  0  0  0  0  0  0  0  0  0  0  0
   -0.5203   -9.2689    2.8744 C   0  0  0  0  0  0  0  0  0  0  0  0
   -1.3014   -8.0791    2.5531 C   0  0  0  0  0  0  0  0  0  0  0  0
   -0.6105   -6.9867    2.1181 N   0  0  0  0  0  0  0  0  0  0  0  0
    0.6297   -7.4558    2.1359 N   0  0  0  0  0  0  0  0  0  0  0  0
    6.8114   -6.4153    1.2973 C   0  0  0  0  0  0  0  0  0  0  0  0
    8.9839   -6.4502    1.1682 H   0  0  0  0  0  0  0  0  0  0  0  0
    9.1161   -4.1181    0.2472 H   0  0  0  0  0  0  0  0  0  0  0  0
    5.0418   -3.6562    0.3252 H   0  0  0  0  0  0  0  0  0  0  0  0
   -0.7135  -10.2787    3.2370 H   0  0  0  0  0  0  0  0  0  0  0  0
   -2.3775   -7.9385    2.6128 H   0  0  0  0  0  0  0  0  0  0  0  0
    6.7513   -7.4193    1.6970 H   0  0  0  0  0  0  0  0  0  0  0  0
  1 18  2  0
  1  2  1  0
  1 19  1  0
  2  3  2  0
  2 20  1  0
  3  4  1  0
  4  5  2  0
  4 21  1  0
  5  6  1  0
  5 18  1  0
  6 11  1  0
  6  7  2  0
  7  8  1  0
  8  9  2  0
  9 17  1  0
  9 10  1  0
 10 11  2  0
 10 12  1  0
 12 13  1  0
 13 17  1  0
 13 14  2  0
 14 15  1  0
 14 22  1  0
 15 16  2  0
 15 23  1  0
 16 17  1  0
 18 24  1  0
M  END
>  <i_m_ct_stereo_status>  (490) 
1

>  <s_m_source_file>  (490) 
/var/tmp/pbs.5102103.sched01/tmp7htwmlud/1762k52hbh7.sdf

>  <i_m_source_file_index>  (490) 
12

>  <i_lp_mmshare_version>  (490) 
48012

>  <i_f3d_flags>  (490) 
0

>  <s_epik_input>  (490) 
W2NIXTFbY0hdW2NIXW5bY0hdYzEtYyhubjIpbmMoYzIzKXNjNG4zbltjSF1bY0hdNA==

>  <s_epik_cmdline>  (490) 
J2VwaWtfcHl0aG9uJywgJy1waHQnLCAnMi4wJywgJy1waCcsICc3LjAnLCAnLXRuJywgJzgnLCAnLW1hJywgJzIwMCcsICctaW1hZScsICc8aW5maWxlLm1hZT4nLCAnLW9tYWUnLCAnPG91dGZpbGUubWFlPic=

>  <r_epik_Ionization_Penalty>  (490) 
0.00422793

>  <r_epik_Ionization_Penalty_Charging>  (490) 
0

>  <r_epik_Ionization_Penalty_Neutral>  (490) 
0.00422793

>  <r_epik_State_Penalty>  (490) 
0.00303862

>  <r_epik_Charging_Adjusted_Penalty>  (490) 
0.00303862

>  <i_epik_Tot_Q>  (490) 
0

>  <i_epik_Tot_abs_Q>  (490) 
0

>  <s_lp_Force_Field>  (490) 
OPLS3e

>  <r_lp_Energy>  (490) 
31.9009

>  <b_lp_Chiralities_Consistent>  (490) 
1

>  <s_lp_Variant>  (490) 
117:0-1

>  <s_i_glide_gridfile>  (490) 
pfpi4k_grid

>  <i_i_glide_lignum>  (490) 
12

>  <i_i_glide_rotatable_bonds>  (490) 
1

>  <r_i_docking_score>  (490) 
-3.9229

>  <r_i_glide_ligand_efficiency>  (490) 
-0.217939

>  <r_i_glide_ligand_efficiency_sa>  (490) 
-0.571162

>  <r_i_glide_ligand_efficiency_ln>  (490) 
-1.00836

>  <r_i_glide_gscore>  (490) 
-3.9229

>  <r_i_glide_lipo>  (490) 
-0.429524

>  <r_i_glide_hbond>  (490) 
-0.16

>  <r_i_glide_metal>  (490) 
-0

>  <r_i_glide_rewards>  (490) 
-1.76232

>  <r_i_glide_evdw>  (490) 
-25.3204

>  <r_i_glide_ecoul>  (490) 
-2.9578

>  <r_i_glide_erotb>  (490) 
0.271977

>  <r_i_glide_esite>  (490) 
-0.133347

>  <r_i_glide_emodel>  (490) 
-36.4548

>  <r_i_glide_energy>  (490) 
-28.2782

>  <r_i_glide_einternal>  (490) 
0.014404

>  <r_i_glide_intrahb_reward>  (490) 
-0

>  <i_i_glide_confnum>  (490) 
2

>  <i_i_glide_posenum>  (490) 
4

>  <r_i_glide_eff_state_penalty>  (490) 
0

>  <ligand_id>  (490) 
117

>  <original_smiles>  (490) 
c1cncc(-c2nnc3c(n2)sc2ccnn23)c1

>  <smiles>  (490) 
[H]c1nc([H])c(-c2nnc3c(n2)sc2c([H])c([H])nn23)c([H])c1[H]

$$$$
117:0:2
     RDKit          3D

 24 27  0  0  1  0  0  0  0  0999 V2000
    3.6082   -2.2028   -1.3339 C   0  0  0  0  0  0  0  0  0  0  0  0
    5.0013   -2.1946   -1.4967 C   0  0  0  0  0  0  0  0  0  0  0  0
    5.7916   -3.1887   -1.0541 N   0  0  0  0  0  0  0  0  0  0  0  0
    5.2158   -4.2411   -0.4313 C   0  0  0  0  0  0  0  0  0  0  0  0
    3.8247   -4.3663   -0.2030 C   0  0  0  0  0  0  0  0  0  0  0  0
    3.2426   -5.5588    0.4959 C   0  0  0  0  0  0  0  0  0  0  0  0
    1.9122   -5.4612    0.7434 N   0  0  0  0  0  0  0  0  0  0  0  0
    1.2386   -6.4443    1.3822 N   0  0  0  0  0  0  0  0  0  0  0  0
    1.9530   -7.5103    1.7400 C   0  0  0  0  0  0  0  0  0  0  0  0
    3.3521   -7.5478    1.4354 C   0  0  0  0  0  0  0  0  0  0  0  0
    4.0541   -6.5918    0.8175 N   0  0  0  0  0  0  0  0  0  0  0  0
    4.1224   -9.0817    1.9773 S   0  0  0  0  0  0  0  0  0  0  0  0
    2.5167   -9.5196    2.5751 C   0  0  0  0  0  0  0  0  0  0  0  0
    2.0160  -10.6417    3.2574 C   0  0  0  0  0  0  0  0  0  0  0  0
    0.6455  -10.1897    3.3774 C   0  0  0  0  0  0  0  0  0  0  0  0
    0.3742   -8.9536    2.8526 N   0  0  0  0  0  0  0  0  0  0  0  0
    1.5707   -8.6070    2.3672 N   0  0  0  0  0  0  0  0  0  0  0  0
    3.0113   -3.2996   -0.6805 C   0  0  0  0  0  0  0  0  0  0  0  0
    3.0131   -1.3759   -1.6984 H   0  0  0  0  0  0  0  0  0  0  0  0
    5.4978   -1.3666   -1.9875 H   0  0  0  0  0  0  0  0  0  0  0  0
    5.9025   -5.0029   -0.1048 H   0  0  0  0  0  0  0  0  0  0  0  0
    2.5750  -11.5240    3.5455 H   0  0  0  0  0  0  0  0  0  0  0  0
   -0.1919  -10.6786    3.8246 H   0  0  0  0  0  0  0  0  0  0  0  0
    1.9386   -3.2882   -0.5667 H   0  0  0  0  0  0  0  0  0  0  0  0
  1 18  2  0
  1  2  1  0
  1 19  1  0
  2  3  2  0
  2 20  1  0
  3  4  1  0
  4  5  2  0
  4 21  1  0
  5  6  1  0
  5 18  1  0
  6 11  1  0
  6  7  2  0
  7  8  1  0
  8  9  2  0
  9 17  1  0
  9 10  1  0
 10 11  2  0
 10 12  1  0
 12 13  1  0
 13 17  1  0
 13 14  2  0
 14 15  1  0
 14 22  1  0
 15 16  2  0
 15 23  1  0
 16 17  1  0
 18 24  1  0
M  END
>  <i_m_ct_stereo_status>  (491) 
1

>  <s_m_source_file>  (491) 
/var/tmp/pbs.5102103.sched01/tmp7htwmlud/1762k52hbh7.sdf

>  <i_m_source_file_index>  (491) 
12

>  <i_lp_mmshare_version>  (491) 
48012

>  <i_f3d_flags>  (491) 
0

>  <s_epik_input>  (491) 
W2NIXTFbY0hdW2NIXW5bY0hdYzEtYyhubjIpbmMoYzIzKXNjNG4zbltjSF1bY0hdNA==

>  <s_epik_cmdline>  (491) 
J2VwaWtfcHl0aG9uJywgJy1waHQnLCAnMi4wJywgJy1waCcsICc3LjAnLCAnLXRuJywgJzgnLCAnLW1hJywgJzIwMCcsICctaW1hZScsICc8aW5maWxlLm1hZT4nLCAnLW9tYWUnLCAnPG91dGZpbGUubWFlPic=

>  <r_epik_Ionization_Penalty>  (491) 
0.00422793

>  <r_epik_Ionization_Penalty_Charging>  (491) 
0

>  <r_epik_Ionization_Penalty_Neutral>  (491) 
0.00422793

>  <r_epik_State_Penalty>  (491) 
0.00303862

>  <r_epik_Charging_Adjusted_Penalty>  (491) 
0.00303862

>  <i_epik_Tot_Q>  (491) 
0

>  <i_epik_Tot_abs_Q>  (491) 
0

>  <s_lp_Force_Field>  (491) 
OPLS3e

>  <r_lp_Energy>  (491) 
31.9009

>  <b_lp_Chiralities_Consistent>  (491) 
1

>  <s_lp_Variant>  (491) 
117:0-1

>  <s_i_glide_gridfile>  (491) 
pfpi4k_grid

>  <i_i_glide_lignum>  (491) 
12

>  <i_i_glide_rotatable_bonds>  (491) 
1

>  <r_i_docking_score>  (491) 
-3.5754

>  <r_i_glide_ligand_efficiency>  (491) 
-0.198634

>  <r_i_glide_ligand_efficiency_sa>  (491) 
-0.520567

>  <r_i_glide_ligand_efficiency_ln>  (491) 
-0.919039

>  <r_i_glide_gscore>  (491) 
-3.5754

>  <r_i_glide_lipo>  (491) 
-0.223376

>  <r_i_glide_hbond>  (491) 
0

>  <r_i_glide_metal>  (491) 
-0

>  <r_i_glide_rewards>  (491) 
-1.67542

>  <r_i_glide_evdw>  (491) 
-25.4218

>  <r_i_glide_ecoul>  (491) 
-3.20151

>  <r_i_glide_erotb>  (491) 
0.271977

>  <r_i_glide_esite>  (491) 
-0.19727

>  <r_i_glide_emodel>  (491) 
-36.0001

>  <r_i_glide_energy>  (491) 
-28.6233

>  <r_i_glide_einternal>  (491) 
0.044387

>  <r_i_glide_intrahb_reward>  (491) 
-0

>  <i_i_glide_confnum>  (491) 
1

>  <i_i_glide_posenum>  (491) 
14

>  <r_i_glide_eff_state_penalty>  (491) 
0

>  <ligand_id>  (491) 
117

>  <original_smiles>  (491) 
c1cncc(-c2nnc3c(n2)sc2ccnn23)c1

>  <smiles>  (491) 
[H]c1nc([H])c(-c2nnc3c(n2)sc2c([H])c([H])nn23)c([H])c1[H]

$$$$
118:0:0
     RDKit          3D

 61 65  0  0  1  0  0  0  0  0999 V2000
   -2.5423    1.3737    7.2791 O   0  0  0  0  0  0  0  0  0  0  0  0
   -1.7660    1.8082    6.4279 C   0  0  0  0  0  0  0  0  0  0  0  0
   -1.4729    3.3205    6.3234 C   0  0  0  0  0  0  0  0  0  0  0  0
   -0.1517    3.5757    5.8266 O   0  0  0  0  0  0  0  0  0  0  0  0
    0.2599    2.8004    4.7649 C   0  0  0  0  0  0  0  0  0  0  0  0
    1.2277    3.2821    3.8642 C   0  0  0  0  0  0  0  0  0  0  0  0
    1.6531    2.4562    2.8129 C   0  0  0  0  0  0  0  0  0  0  0  0
    1.0732    1.1765    2.6856 C   0  0  0  0  0  0  0  0  0  0  0  0
    1.4621    0.2649    1.5364 C   0  0  0  0  0  0  0  0  0  0  0  0
    2.7954   -0.3868    1.7710 N   0  0  0  0  0  0  0  0  0  0  0  0
    2.8082   -1.7942    2.2425 C   0  0  1  0  0  0  0  0  0  0  0  0
    4.1459   -2.1201    2.9476 C   0  0  0  0  0  0  0  0  0  0  0  0
    4.1769   -3.6246    3.3513 C   0  0  0  0  0  0  0  0  0  0  0  0
    2.8356   -4.3074    3.0208 C   0  0  1  0  0  0  0  0  0  0  0  0
    2.8677   -5.7966    3.4546 C   0  0  0  0  0  0  0  0  0  0  0  0
    1.6729   -6.8175    3.2276 C   0  0  0  0  0  0  0  0  0  0  0  0
    2.2112   -8.2937    3.5145 C   0  0  0  0  0  0  0  0  0  0  0  0
    1.5481   -8.8828    4.5092 F   0  0  0  0  0  0  0  0  0  0  0  0
    2.1123   -9.0944    2.4506 F   0  0  0  0  0  0  0  0  0  0  0  0
    3.4940   -8.3199    3.8797 F   0  0  0  0  0  0  0  0  0  0  0  0
    0.4661   -6.4950    4.1904 C   0  0  0  0  0  0  0  0  0  0  0  0
   -0.8023   -7.3019    3.8366 C   0  0  0  0  0  0  0  0  0  0  0  0
   -1.1520   -7.0167    2.4887 O   0  0  0  0  0  0  0  0  0  0  0  0
   -0.1769   -7.4844    1.5580 C   0  0  0  0  0  0  0  0  0  0  0  0
    1.1375   -6.7066    1.7739 C   0  0  0  0  0  0  0  0  0  0  0  0
    1.6968   -3.5241    3.6925 C   0  0  0  0  0  0  0  0  0  0  0  0
    1.6690   -2.0658    3.2413 C   0  0  0  0  0  0  0  0  0  0  0  0
    2.6982   -4.1747    1.5798 O   0  0  0  0  0  0  0  0  0  0  0  0
    2.7106   -2.7989    1.0816 C   0  0  0  0  0  0  0  0  0  0  0  0
    0.1542    0.7046    3.5585 N   0  0  0  0  0  0  0  0  0  0  0  0
   -0.2492    1.4916    4.5781 C   0  0  0  0  0  0  0  0  0  0  0  0
   -1.1742    1.0228    5.5362 N   0  0  0  0  0  0  0  0  0  0  0  0
   -2.1856    3.7728    5.6366 H   0  0  0  0  0  0  0  0  0  0  0  0
   -1.6156    3.8054    7.2869 H   0  0  0  0  0  0  0  0  0  0  0  0
    1.6346    4.2846    3.9748 H   0  0  0  0  0  0  0  0  0  0  0  0
    2.3538    2.8295    2.0845 H   0  0  0  0  0  0  0  0  0  0  0  0
    0.6692   -0.4521    1.3245 H   0  0  0  0  0  0  0  0  0  0  0  0
    1.5311    0.8588    0.6362 H   0  0  0  0  0  0  0  0  0  0  0  0
    3.3081   -0.3426    0.8963 H   0  0  0  0  0  0  0  0  0  0  0  0
    5.0104   -1.9050    2.2997 H   0  0  0  0  0  0  0  0  0  0  0  0
    4.2573   -1.5050    3.8549 H   0  0  0  0  0  0  0  0  0  0  0  0
    5.0081   -4.1302    2.8453 H   0  0  0  0  0  0  0  0  0  0  0  0
    4.3683   -3.7097    4.4202 H   0  0  0  0  0  0  0  0  0  0  0  0
    3.7772   -6.2197    3.0129 H   0  0  0  0  0  0  0  0  0  0  0  0
    3.0547   -5.7996    4.5331 H   0  0  0  0  0  0  0  0  0  0  0  0
    0.7755   -6.6832    5.2238 H   0  0  0  0  0  0  0  0  0  0  0  0
    0.1335   -5.4814    4.1770 H   0  0  0  0  0  0  0  0  0  0  0  0
   -0.7213   -8.3806    3.9927 H   0  0  0  0  0  0  0  0  0  0  0  0
   -1.6134   -6.9581    4.4778 H   0  0  0  0  0  0  0  0  0  0  0  0
   -0.0531   -8.5607    1.6880 H   0  0  0  0  0  0  0  0  0  0  0  0
   -0.5277   -7.3346    0.5306 H   0  0  0  0  0  0  0  0  0  0  0  0
    0.9104   -5.6696    1.5232 H   0  0  0  0  0  0  0  0  0  0  0  0
    1.9025   -7.0078    1.0600 H   0  0  0  0  0  0  0  0  0  0  0  0
    0.7396   -3.8973    3.3933 H   0  0  0  0  0  0  0  0  0  0  0  0
    1.8164   -3.5627    4.7748 H   0  0  0  0  0  0  0  0  0  0  0  0
    1.7031   -1.3905    4.1042 H   0  0  0  0  0  0  0  0  0  0  0  0
    0.6959   -1.9655    2.7686 H   0  0  0  0  0  0  0  0  0  0  0  0
    1.8162   -2.6696    0.4975 H   0  0  0  0  0  0  0  0  0  0  0  0
    3.5428   -2.7089    0.3958 H   0  0  0  0  0  0  0  0  0  0  0  0
   -1.4013    0.0294    5.5000 H   0  0  0  0  0  0  0  0  0  0  0  0
    3.2821    0.1882    2.4577 H   0  0  0  0  0  0  0  0  0  0  0  0
  1  2  2  0
  2 32  1  0
  2  3  1  0
  3  4  1  0
  3 33  1  0
  3 34  1  0
  4  5  1  0
  5 31  2  0
  5  6  1  0
  6  7  2  0
  6 35  1  0
  7  8  1  0
  7 36  1  0
  8  9  1  0
  8 30  2  0
  9 10  1  0
  9 37  1  0
  9 38  1  0
 11 10  1  6
 10 39  1  0
 10 61  1  0
 11 27  1  0
 11 29  1  0
 11 12  1  0
 12 13  1  0
 12 40  1  0
 12 41  1  0
 13 14  1  0
 13 42  1  0
 13 43  1  0
 14 15  1  6
 14 26  1  0
 14 28  1  0
 15 16  1  0
 15 44  1  0
 15 45  1  0
 16 25  1  0
 16 17  1  0
 16 21  1  0
 17 18  1  0
 17 19  1  0
 17 20  1  0
 21 22  1  0
 21 46  1  0
 21 47  1  0
 22 23  1  0
 22 48  1  0
 22 49  1  0
 23 24  1  0
 24 25  1  0
 24 50  1  0
 24 51  1  0
 25 52  1  0
 25 53  1  0
 26 27  1  0
 26 54  1  0
 26 55  1  0
 27 56  1  0
 27 57  1  0
 28 29  1  0
 29 58  1  0
 29 59  1  0
 30 31  1  0
 31 32  1  0
 32 60  1  0
M  CHG  1  10   1
M  END
>  <i_m_ct_stereo_status>  (492) 
1

>  <s_m_source_file>  (492) 
/var/tmp/pbs.5102103.sched01/tmp7htwmlud/1762k52hbh7.sdf

>  <i_m_source_file_index>  (492) 
13

>  <i_lp_mmshare_version>  (492) 
48012

>  <i_f3d_flags>  (492) 
0

>  <s_epik_input>  (492) 
TzFbQ0gyXUMoPU8pW05IXWMoYzEyKW5jKFtjSF1bY0hdMilbQ0gyXVtOSF1bQ0BdMzRbQ0gyXVtDSDJdW0NAXShbQ0gyXVtDSDJdMykoT1tDSDJdNClbQ0gyXUM1KEMoRikoRilGKVtDSDJdW0NIMl1PW0NIMl1bQ0gyXTU=

>  <s_epik_cmdline>  (492) 
J2VwaWtfcHl0aG9uJywgJy1waHQnLCAnMi4wJywgJy1waCcsICc3LjAnLCAnLXRuJywgJzgnLCAnLW1hJywgJzIwMCcsICctaW1hZScsICc8aW5maWxlLm1hZT4nLCAnLW9tYWUnLCAnPG91dGZpbGUubWFlPic=

>  <r_lp_tautomer_probability>  (492) 
1

>  <r_epik_Ionization_Penalty>  (492) 
0.0830552

>  <r_epik_Ionization_Penalty_Charging>  (492) 
0.0829729

>  <r_epik_Ionization_Penalty_Neutral>  (492) 
8.23319e-05

>  <r_epik_State_Penalty>  (492) 
0.073658

>  <r_epik_Charging_Adjusted_Penalty>  (492) 
0.156631

>  <i_epik_Tot_Q>  (492) 
1

>  <i_epik_Tot_abs_Q>  (492) 
1

>  <s_lp_Force_Field>  (492) 
OPLS3e

>  <r_lp_Energy>  (492) 
73.0227

>  <b_lp_Chiralities_Consistent>  (492) 
1

>  <s_lp_Variant>  (492) 
118:0-1

>  <s_i_glide_gridfile>  (492) 
pfpi4k_grid

>  <i_i_glide_lignum>  (492) 
13

>  <i_i_glide_rotatable_bonds>  (492) 
6

>  <r_i_docking_score>  (492) 
-2.76478

>  <r_i_glide_ligand_efficiency>  (492) 
-0.0863993

>  <r_i_glide_ligand_efficiency_sa>  (492) 
-0.274301

>  <r_i_glide_ligand_efficiency_ln>  (492) 
-0.619109

>  <r_i_glide_gscore>  (492) 
-2.76478

>  <r_i_glide_lipo>  (492) 
-0.0668119

>  <r_i_glide_hbond>  (492) 
-0.313537

>  <r_i_glide_metal>  (492) 
-0

>  <r_i_glide_rewards>  (492) 
-0.343158

>  <r_i_glide_evdw>  (492) 
-25.0357

>  <r_i_glide_ecoul>  (492) 
-7.79824

>  <r_i_glide_erotb>  (492) 
0.482244

>  <r_i_glide_esite>  (492) 
-0.101994

>  <r_i_glide_emodel>  (492) 
-31.1529

>  <r_i_glide_energy>  (492) 
-32.834

>  <r_i_glide_einternal>  (492) 
13.4788

>  <r_i_glide_intrahb_reward>  (492) 
-0

>  <i_i_glide_confnum>  (492) 
3

>  <i_i_glide_posenum>  (492) 
23

>  <r_i_glide_eff_state_penalty>  (492) 
0

>  <ligand_id>  (492) 
118

>  <original_smiles>  (492) 
O=C1COc2ccc(CNC34CCC(CC5(C(F)(F)F)CCOCC5)(CC3)OC4)nc2N1

>  <smiles>  (492) 
[H]c1c(C([H])([H])[N+]([H])([H])C23C([H])([H])OC(C([H])([H])C4(C(F)(F)F)C([H])([H])C([H])([H])OC([H])([H])C4([H])[H])(C([H])([H])C2([H])[H])C([H])([H])C3([H])[H])nc2c(c1[H])OC([H])([H])C(=O)N2[H]

$$$$
118:0:1
     RDKit          3D

 61 65  0  0  1  0  0  0  0  0999 V2000
    3.5733    6.5633    4.0240 O   0  0  0  0  0  0  0  0  0  0  0  0
    2.7420    5.6621    3.9859 C   0  0  0  0  0  0  0  0  0  0  0  0
    1.5875    5.6230    5.0095 C   0  0  0  0  0  0  0  0  0  0  0  0
    0.4171    4.9692    4.4916 O   0  0  0  0  0  0  0  0  0  0  0  0
    0.6525    3.8093    3.7954 C   0  0  0  0  0  0  0  0  0  0  0  0
   -0.3474    2.8192    3.7228 C   0  0  0  0  0  0  0  0  0  0  0  0
   -0.0854    1.6413    3.0088 C   0  0  0  0  0  0  0  0  0  0  0  0
    1.1654    1.5215    2.3803 C   0  0  0  0  0  0  0  0  0  0  0  0
    1.4917    0.3262    1.5126 C   0  0  0  0  0  0  0  0  0  0  0  0
    2.8055   -0.2656    1.8803 N   0  0  0  0  0  0  0  0  0  0  0  0
    2.8382   -1.6854    2.3414 C   0  0  1  0  0  0  0  0  0  0  0  0
    4.1873   -2.0362    3.0096 C   0  0  0  0  0  0  0  0  0  0  0  0
    4.2305   -3.5454    3.3882 C   0  0  0  0  0  0  0  0  0  0  0  0
    2.8787   -4.2269    3.0694 C   0  0  1  0  0  0  0  0  0  0  0  0
    2.9093   -5.7423    3.4801 C   0  0  0  0  0  0  0  0  0  0  0  0
    1.6958   -6.7486    3.2408 C   0  0  0  0  0  0  0  0  0  0  0  0
    2.2662   -8.2052    3.5219 C   0  0  0  0  0  0  0  0  0  0  0  0
    1.3969   -9.2122    3.3527 F   0  0  0  0  0  0  0  0  0  0  0  0
    3.3109   -8.4541    2.7256 F   0  0  0  0  0  0  0  0  0  0  0  0
    2.6816   -8.2521    4.7906 F   0  0  0  0  0  0  0  0  0  0  0  0
    0.5026   -6.4818    4.2180 C   0  0  0  0  0  0  0  0  0  0  0  0
   -0.7738   -7.2542    3.8535 C   0  0  0  0  0  0  0  0  0  0  0  0
   -1.0975   -6.9619    2.4878 O   0  0  0  0  0  0  0  0  0  0  0  0
   -0.1265   -7.4063    1.5333 C   0  0  0  0  0  0  0  0  0  0  0  0
    1.1902   -6.6463    1.7809 C   0  0  0  0  0  0  0  0  0  0  0  0
    1.7680   -3.4322    3.7808 C   0  0  0  0  0  0  0  0  0  0  0  0
    1.7196   -1.9710    3.3634 C   0  0  0  0  0  0  0  0  0  0  0  0
    2.7331   -4.0675    1.6422 O   0  0  0  0  0  0  0  0  0  0  0  0
    2.7153   -2.6920    1.1671 C   0  0  0  0  0  0  0  0  0  0  0  0
    2.1421    2.4418    2.4641 N   0  0  0  0  0  0  0  0  0  0  0  0
    1.8744    3.5896    3.1063 C   0  0  0  0  0  0  0  0  0  0  0  0
    2.8175    4.6411    3.1139 N   0  0  0  0  0  0  0  0  0  0  0  0
    1.9244    5.0896    5.9023 H   0  0  0  0  0  0  0  0  0  0  0  0
    1.3567    6.6404    5.3407 H   0  0  0  0  0  0  0  0  0  0  0  0
   -1.2926    2.9648    4.2215 H   0  0  0  0  0  0  0  0  0  0  0  0
   -0.8386    0.8730    2.9371 H   0  0  0  0  0  0  0  0  0  0  0  0
    0.6282   -0.3486    1.4871 H   0  0  0  0  0  0  0  0  0  0  0  0
    1.5684    0.6694    0.4770 H   0  0  0  0  0  0  0  0  0  0  0  0
    3.4412   -0.1718    1.0845 H   0  0  0  0  0  0  0  0  0  0  0  0
    5.0409   -1.8142    2.3539 H   0  0  0  0  0  0  0  0  0  0  0  0
    4.3093   -1.4438    3.9256 H   0  0  0  0  0  0  0  0  0  0  0  0
    5.0486   -4.0495    2.8575 H   0  0  0  0  0  0  0  0  0  0  0  0
    4.4275   -3.6539    4.4507 H   0  0  0  0  0  0  0  0  0  0  0  0
    3.8140   -6.1940    3.0478 H   0  0  0  0  0  0  0  0  0  0  0  0
    3.1021   -5.7559    4.5501 H   0  0  0  0  0  0  0  0  0  0  0  0
    0.8152   -6.6657    5.2461 H   0  0  0  0  0  0  0  0  0  0  0  0
    0.1314   -5.4559    4.2056 H   0  0  0  0  0  0  0  0  0  0  0  0
   -0.7287   -8.3291    4.0632 H   0  0  0  0  0  0  0  0  0  0  0  0
   -1.5823   -6.8648    4.4793 H   0  0  0  0  0  0  0  0  0  0  0  0
    0.0050   -8.4887    1.5861 H   0  0  0  0  0  0  0  0  0  0  0  0
   -0.4714   -7.2043    0.5124 H   0  0  0  0  0  0  0  0  0  0  0  0
    0.9629   -5.6065    1.5434 H   0  0  0  0  0  0  0  0  0  0  0  0
    1.9706   -6.9423    1.0726 H   0  0  0  0  0  0  0  0  0  0  0  0
    0.7891   -3.7883    3.4605 H   0  0  0  0  0  0  0  0  0  0  0  0
    1.8873   -3.5082    4.8541 H   0  0  0  0  0  0  0  0  0  0  0  0
    1.7559   -1.2931    4.2257 H   0  0  0  0  0  0  0  0  0  0  0  0
    0.7232   -1.8912    2.9203 H   0  0  0  0  0  0  0  0  0  0  0  0
    1.8066   -2.5661    0.5958 H   0  0  0  0  0  0  0  0  0  0  0  0
    3.5452   -2.5959    0.4664 H   0  0  0  0  0  0  0  0  0  0  0  0
    3.6079    4.5629    2.4838 H   0  0  0  0  0  0  0  0  0  0  0  0
    3.1763    0.3161    2.6314 H   0  0  0  0  0  0  0  0  0  0  0  0
  1  2  2  0
  2 32  1  0
  2  3  1  0
  3  4  1  0
  3 33  1  0
  3 34  1  0
  4  5  1  0
  5 31  2  0
  5  6  1  0
  6  7  2  0
  6 35  1  0
  7  8  1  0
  7 36  1  0
  8  9  1  0
  8 30  2  0
  9 10  1  0
  9 37  1  0
  9 38  1  0
 11 10  1  6
 10 39  1  0
 10 61  1  0
 11 27  1  0
 11 29  1  0
 11 12  1  0
 12 13  1  0
 12 40  1  0
 12 41  1  0
 13 14  1  0
 13 42  1  0
 13 43  1  0
 14 15  1  6
 14 26  1  0
 14 28  1  0
 15 16  1  0
 15 44  1  0
 15 45  1  0
 16 25  1  0
 16 17  1  0
 16 21  1  0
 17 18  1  0
 17 19  1  0
 17 20  1  0
 21 22  1  0
 21 46  1  0
 21 47  1  0
 22 23  1  0
 22 48  1  0
 22 49  1  0
 23 24  1  0
 24 25  1  0
 24 50  1  0
 24 51  1  0
 25 52  1  0
 25 53  1  0
 26 27  1  0
 26 54  1  0
 26 55  1  0
 27 56  1  0
 27 57  1  0
 28 29  1  0
 29 58  1  0
 29 59  1  0
 30 31  1  0
 31 32  1  0
 32 60  1  0
M  CHG  1  10   1
M  END
>  <i_m_ct_stereo_status>  (493) 
1

>  <s_m_source_file>  (493) 
/var/tmp/pbs.5102103.sched01/tmp7htwmlud/1762k52hbh7.sdf

>  <i_m_source_file_index>  (493) 
13

>  <i_lp_mmshare_version>  (493) 
48012

>  <i_f3d_flags>  (493) 
0

>  <s_epik_input>  (493) 
TzFbQ0gyXUMoPU8pW05IXWMoYzEyKW5jKFtjSF1bY0hdMilbQ0gyXVtOSF1bQ0BdMzRbQ0gyXVtDSDJdW0NAXShbQ0gyXVtDSDJdMykoT1tDSDJdNClbQ0gyXUM1KEMoRikoRilGKVtDSDJdW0NIMl1PW0NIMl1bQ0gyXTU=

>  <s_epik_cmdline>  (493) 
J2VwaWtfcHl0aG9uJywgJy1waHQnLCAnMi4wJywgJy1waCcsICc3LjAnLCAnLXRuJywgJzgnLCAnLW1hJywgJzIwMCcsICctaW1hZScsICc8aW5maWxlLm1hZT4nLCAnLW9tYWUnLCAnPG91dGZpbGUubWFlPic=

>  <r_lp_tautomer_probability>  (493) 
1

>  <r_epik_Ionization_Penalty>  (493) 
0.0830552

>  <r_epik_Ionization_Penalty_Charging>  (493) 
0.0829729

>  <r_epik_Ionization_Penalty_Neutral>  (493) 
8.23319e-05

>  <r_epik_State_Penalty>  (493) 
0.073658

>  <r_epik_Charging_Adjusted_Penalty>  (493) 
0.156631

>  <i_epik_Tot_Q>  (493) 
1

>  <i_epik_Tot_abs_Q>  (493) 
1

>  <s_lp_Force_Field>  (493) 
OPLS3e

>  <r_lp_Energy>  (493) 
73.0227

>  <b_lp_Chiralities_Consistent>  (493) 
1

>  <s_lp_Variant>  (493) 
118:0-1

>  <s_i_glide_gridfile>  (493) 
pfpi4k_grid

>  <i_i_glide_lignum>  (493) 
13

>  <i_i_glide_rotatable_bonds>  (493) 
6

>  <r_i_docking_score>  (493) 
-2.53477

>  <r_i_glide_ligand_efficiency>  (493) 
-0.0792115

>  <r_i_glide_ligand_efficiency_sa>  (493) 
-0.251481

>  <r_i_glide_ligand_efficiency_ln>  (493) 
-0.567603

>  <r_i_glide_gscore>  (493) 
-2.53477

>  <r_i_glide_lipo>  (493) 
-0.0381205

>  <r_i_glide_hbond>  (493) 
-0.16

>  <r_i_glide_metal>  (493) 
-0

>  <r_i_glide_rewards>  (493) 
-0.296737

>  <r_i_glide_evdw>  (493) 
-25.992

>  <r_i_glide_ecoul>  (493) 
-7.81096

>  <r_i_glide_erotb>  (493) 
0.482244

>  <r_i_glide_esite>  (493) 
-0.0509098

>  <r_i_glide_emodel>  (493) 
-35.4734

>  <r_i_glide_energy>  (493) 
-33.803

>  <r_i_glide_einternal>  (493) 
5.3293

>  <r_i_glide_intrahb_reward>  (493) 
-0

>  <i_i_glide_confnum>  (493) 
3

>  <i_i_glide_posenum>  (493) 
1

>  <r_i_glide_eff_state_penalty>  (493) 
0

>  <ligand_id>  (493) 
118

>  <original_smiles>  (493) 
O=C1COc2ccc(CNC34CCC(CC5(C(F)(F)F)CCOCC5)(CC3)OC4)nc2N1

>  <smiles>  (493) 
[H]c1c(C([H])([H])[N+]([H])([H])C23C([H])([H])OC(C([H])([H])C4(C(F)(F)F)C([H])([H])C([H])([H])OC([H])([H])C4([H])[H])(C([H])([H])C2([H])[H])C([H])([H])C3([H])[H])nc2c(c1[H])OC([H])([H])C(=O)N2[H]

$$$$
118:0:2
     RDKit          3D

 61 65  0  0  1  0  0  0  0  0999 V2000
   -4.5460    3.5428    2.1885 O   0  0  0  0  0  0  0  0  0  0  0  0
   -3.3326    3.6119    2.4868 C   0  0  0  0  0  0  0  0  0  0  0  0
   -2.6476    4.9659    2.6151 C   0  0  0  0  0  0  0  0  0  0  0  0
   -1.5733    4.9082    3.5816 O   0  0  0  0  0  0  0  0  0  0  0  0
   -0.7374    3.8267    3.4947 C   0  0  0  0  0  0  0  0  0  0  0  0
    0.6258    3.9233    3.8625 C   0  0  0  0  0  0  0  0  0  0  0  0
    1.4548    2.7950    3.7560 C   0  0  0  0  0  0  0  0  0  0  0  0
    0.8809    1.6001    3.2823 C   0  0  0  0  0  0  0  0  0  0  0  0
    1.7226    0.3607    3.1059 C   0  0  0  0  0  0  0  0  0  0  0  0
    2.2015   -0.1638    4.4250 N   0  0  0  0  0  0  0  0  0  0  0  0
    2.9862   -1.4291    4.4005 C   0  0  1  0  0  0  0  0  0  0  0  0
    3.4387   -1.8108    5.8331 C   0  0  0  0  0  0  0  0  0  0  0  0
    4.3301   -3.0821    5.7745 C   0  0  0  0  0  0  0  0  0  0  0  0
    4.3904   -3.6579    4.3484 C   0  0  1  0  0  0  0  0  0  0  0  0
    5.2575   -4.9572    4.3189 C   0  0  0  0  0  0  0  0  0  0  0  0
    5.4055   -5.8776    3.0401 C   0  0  0  0  0  0  0  0  0  0  0  0
    6.6415   -6.8200    3.2850 C   0  0  0  0  0  0  0  0  0  0  0  0
    6.9297   -7.6640    2.2812 F   0  0  0  0  0  0  0  0  0  0  0  0
    7.7459   -6.0993    3.5124 F   0  0  0  0  0  0  0  0  0  0  0  0
    6.4093   -7.5670    4.3714 F   0  0  0  0  0  0  0  0  0  0  0  0
    4.1140   -6.7484    2.8326 C   0  0  0  0  0  0  0  0  0  0  0  0
    4.1240   -7.4857    1.4794 C   0  0  0  0  0  0  0  0  0  0  0  0
    4.3027   -6.5355    0.4240 O   0  0  0  0  0  0  0  0  0  0  0  0
    5.5459   -5.8251    0.4696 C   0  0  0  0  0  0  0  0  0  0  0  0
    5.6233   -5.0064    1.7707 C   0  0  0  0  0  0  0  0  0  0  0  0
    2.9556   -3.8751    3.8413 C   0  0  0  0  0  0  0  0  0  0  0  0
    2.1234   -2.5831    3.8479 C   0  0  0  0  0  0  0  0  0  0  0  0
    4.9899   -2.6149    3.5552 O   0  0  0  0  0  0  0  0  0  0  0  0
    4.2846   -1.3390    3.5589 C   0  0  0  0  0  0  0  0  0  0  0  0
   -0.4291    1.4864    2.9424 N   0  0  0  0  0  0  0  0  0  0  0  0
   -1.2088    2.5826    3.0188 C   0  0  0  0  0  0  0  0  0  0  0  0
   -2.5827    2.5594    2.6551 N   0  0  0  0  0  0  0  0  0  0  0  0
   -2.2045    5.3424    1.6974 H   0  0  0  0  0  0  0  0  0  0  0  0
   -3.4009    5.6970    2.8702 H   0  0  0  0  0  0  0  0  0  0  0  0
    1.0256    4.8691    4.2039 H   0  0  0  0  0  0  0  0  0  0  0  0
    2.5064    2.8654    3.9834 H   0  0  0  0  0  0  0  0  0  0  0  0
    1.1262   -0.3880    2.5850 H   0  0  0  0  0  0  0  0  0  0  0  0
    2.5572    0.5991    2.4565 H   0  0  0  0  0  0  0  0  0  0  0  0
    2.7573    0.5661    4.8634 H   0  0  0  0  0  0  0  0  0  0  0  0
    4.0163   -0.9984    6.2913 H   0  0  0  0  0  0  0  0  0  0  0  0
    2.5759   -2.0061    6.4743 H   0  0  0  0  0  0  0  0  0  0  0  0
    5.3362   -2.8591    6.1438 H   0  0  0  0  0  0  0  0  0  0  0  0
    3.9164   -3.8414    6.4513 H   0  0  0  0  0  0  0  0  0  0  0  0
    6.2609   -4.6984    4.6892 H   0  0  0  0  0  0  0  0  0  0  0  0
    4.8640   -5.6125    5.1099 H   0  0  0  0  0  0  0  0  0  0  0  0
    4.0273   -7.4643    3.6557 H   0  0  0  0  0  0  0  0  0  0  0  0
    3.1980   -6.1509    2.8387 H   0  0  0  0  0  0  0  0  0  0  0  0
    4.8568   -8.2921    1.4295 H   0  0  0  0  0  0  0  0  0  0  0  0
    3.1460   -7.9683    1.3451 H   0  0  0  0  0  0  0  0  0  0  0  0
    6.3945   -6.4998    0.3855 H   0  0  0  0  0  0  0  0  0  0  0  0
    5.6134   -5.1530   -0.3932 H   0  0  0  0  0  0  0  0  0  0  0  0
    4.8618   -4.2339    1.6817 H   0  0  0  0  0  0  0  0  0  0  0  0
    6.5732   -4.4664    1.8366 H   0  0  0  0  0  0  0  0  0  0  0  0
    2.9450   -4.2367    2.8113 H   0  0  0  0  0  0  0  0  0  0  0  0
    2.4681   -4.6197    4.4675 H   0  0  0  0  0  0  0  0  0  0  0  0
    1.1985   -2.7208    4.4117 H   0  0  0  0  0  0  0  0  0  0  0  0
    1.8642   -2.4154    2.8062 H   0  0  0  0  0  0  0  0  0  0  0  0
    4.1014   -1.0961    2.5237 H   0  0  0  0  0  0  0  0  0  0  0  0
    4.9527   -0.5968    3.9689 H   0  0  0  0  0  0  0  0  0  0  0  0
   -2.9763    1.6263    2.5041 H   0  0  0  0  0  0  0  0  0  0  0  0
    1.3771   -0.3231    5.0035 H   0  0  0  0  0  0  0  0  0  0  0  0
  1  2  2  0
  2 32  1  0
  2  3  1  0
  3  4  1  0
  3 33  1  0
  3 34  1  0
  4  5  1  0
  5 31  2  0
  5  6  1  0
  6  7  2  0
  6 35  1  0
  7  8  1  0
  7 36  1  0
  8  9  1  0
  8 30  2  0
  9 10  1  0
  9 37  1  0
  9 38  1  0
 11 10  1  1
 10 39  1  0
 10 61  1  0
 11 27  1  0
 11 29  1  0
 11 12  1  0
 12 13  1  0
 12 40  1  0
 12 41  1  0
 13 14  1  0
 13 42  1  0
 13 43  1  0
 14 15  1  1
 14 26  1  0
 14 28  1  0
 15 16  1  0
 15 44  1  0
 15 45  1  0
 16 25  1  0
 16 17  1  0
 16 21  1  0
 17 18  1  0
 17 19  1  0
 17 20  1  0
 21 22  1  0
 21 46  1  0
 21 47  1  0
 22 23  1  0
 22 48  1  0
 22 49  1  0
 23 24  1  0
 24 25  1  0
 24 50  1  0
 24 51  1  0
 25 52  1  0
 25 53  1  0
 26 27  1  0
 26 54  1  0
 26 55  1  0
 27 56  1  0
 27 57  1  0
 28 29  1  0
 29 58  1  0
 29 59  1  0
 30 31  1  0
 31 32  1  0
 32 60  1  0
M  CHG  1  10   1
M  END
>  <i_m_ct_stereo_status>  (494) 
1

>  <s_m_source_file>  (494) 
/var/tmp/pbs.5102103.sched01/tmp7htwmlud/1762k52hbh7.sdf

>  <i_m_source_file_index>  (494) 
13

>  <i_lp_mmshare_version>  (494) 
48012

>  <i_f3d_flags>  (494) 
0

>  <s_epik_input>  (494) 
TzFbQ0gyXUMoPU8pW05IXWMoYzEyKW5jKFtjSF1bY0hdMilbQ0gyXVtOSF1bQ0BdMzRbQ0gyXVtDSDJdW0NAXShbQ0gyXVtDSDJdMykoT1tDSDJdNClbQ0gyXUM1KEMoRikoRilGKVtDSDJdW0NIMl1PW0NIMl1bQ0gyXTU=

>  <s_epik_cmdline>  (494) 
J2VwaWtfcHl0aG9uJywgJy1waHQnLCAnMi4wJywgJy1waCcsICc3LjAnLCAnLXRuJywgJzgnLCAnLW1hJywgJzIwMCcsICctaW1hZScsICc8aW5maWxlLm1hZT4nLCAnLW9tYWUnLCAnPG91dGZpbGUubWFlPic=

>  <r_lp_tautomer_probability>  (494) 
1

>  <r_epik_Ionization_Penalty>  (494) 
0.0830552

>  <r_epik_Ionization_Penalty_Charging>  (494) 
0.0829729

>  <r_epik_Ionization_Penalty_Neutral>  (494) 
8.23319e-05

>  <r_epik_State_Penalty>  (494) 
0.073658

>  <r_epik_Charging_Adjusted_Penalty>  (494) 
0.156631

>  <i_epik_Tot_Q>  (494) 
1

>  <i_epik_Tot_abs_Q>  (494) 
1

>  <s_lp_Force_Field>  (494) 
OPLS3e

>  <r_lp_Energy>  (494) 
73.0227

>  <b_lp_Chiralities_Consistent>  (494) 
1

>  <s_lp_Variant>  (494) 
118:0-1

>  <s_i_glide_gridfile>  (494) 
pfpi4k_grid

>  <i_i_glide_lignum>  (494) 
13

>  <i_i_glide_rotatable_bonds>  (494) 
6

>  <r_i_docking_score>  (494) 
-2.42572

>  <r_i_glide_ligand_efficiency>  (494) 
-0.0758036

>  <r_i_glide_ligand_efficiency_sa>  (494) 
-0.240661

>  <r_i_glide_ligand_efficiency_ln>  (494) 
-0.543184

>  <r_i_glide_gscore>  (494) 
-2.42572

>  <r_i_glide_lipo>  (494) 
-0.242647

>  <r_i_glide_hbond>  (494) 
-0.48

>  <r_i_glide_metal>  (494) 
-0

>  <r_i_glide_rewards>  (494) 
-0.438053

>  <r_i_glide_evdw>  (494) 
-18.7171

>  <r_i_glide_ecoul>  (494) 
-5.40324

>  <r_i_glide_erotb>  (494) 
0.482244

>  <r_i_glide_esite>  (494) 
-0.000920897

>  <r_i_glide_emodel>  (494) 
-28.1974

>  <r_i_glide_energy>  (494) 
-24.1203

>  <r_i_glide_einternal>  (494) 
1.84126

>  <r_i_glide_intrahb_reward>  (494) 
-0

>  <i_i_glide_confnum>  (494) 
5

>  <i_i_glide_posenum>  (494) 
15

>  <r_i_glide_eff_state_penalty>  (494) 
0

>  <ligand_id>  (494) 
118

>  <original_smiles>  (494) 
O=C1COc2ccc(CNC34CCC(CC5(C(F)(F)F)CCOCC5)(CC3)OC4)nc2N1

>  <smiles>  (494) 
[H]c1c(C([H])([H])[N+]([H])([H])C23C([H])([H])OC(C([H])([H])C4(C(F)(F)F)C([H])([H])C([H])([H])OC([H])([H])C4([H])[H])(C([H])([H])C2([H])[H])C([H])([H])C3([H])[H])nc2c(c1[H])OC([H])([H])C(=O)N2[H]

$$$$
118:1:0
     RDKit          3D

 60 64  0  0  1  0  0  0  0  0999 V2000
    0.0097    1.2712    2.1392 O   0  0  0  0  0  0  0  0  0  0  0  0
    1.2093    0.9822    2.2323 C   0  0  0  0  0  0  0  0  0  0  0  0
    2.0940    1.5877    3.3375 C   0  0  0  0  0  0  0  0  0  0  0  0
    3.1063    0.6667    3.7850 O   0  0  0  0  0  0  0  0  0  0  0  0
    3.8005    0.0505    2.7761 C   0  0  0  0  0  0  0  0  0  0  0  0
    5.1405   -0.3352    2.9741 C   0  0  0  0  0  0  0  0  0  0  0  0
    5.8126   -0.9702    1.9199 C   0  0  0  0  0  0  0  0  0  0  0  0
    5.1205   -1.2066    0.7205 C   0  0  0  0  0  0  0  0  0  0  0  0
    5.7897   -1.9682   -0.4121 C   0  0  0  0  0  0  0  0  0  0  0  0
    6.5871   -3.1401    0.0102 N   0  0  0  0  0  0  0  0  0  0  0  0
    5.8800   -4.3084    0.5921 C   0  0  1  0  0  0  0  0  0  0  0  0
    4.8876   -4.9101   -0.4204 C   0  0  0  0  0  0  0  0  0  0  0  0
    4.0924   -6.0203    0.2740 C   0  0  0  0  0  0  0  0  0  0  0  0
    4.6418   -6.3555    1.6890 C   0  0  1  0  0  0  0  0  0  0  0  0
    3.9070   -7.5522    2.3709 C   0  0  0  0  0  0  0  0  0  0  0  0
    2.3561   -7.5467    2.6755 C   0  0  0  0  0  0  0  0  0  0  0  0
    2.0848   -8.7605    3.6440 C   0  0  0  0  0  0  0  0  0  0  0  0
    0.8034   -8.9107    3.9966 F   0  0  0  0  0  0  0  0  0  0  0  0
    2.4825   -9.8909    3.0610 F   0  0  0  0  0  0  0  0  0  0  0  0
    2.7956   -8.6307    4.7653 F   0  0  0  0  0  0  0  0  0  0  0  0
    1.9103   -6.2177    3.3463 C   0  0  0  0  0  0  0  0  0  0  0  0
    0.3837   -6.1008    3.4692 C   0  0  0  0  0  0  0  0  0  0  0  0
   -0.1967   -6.2538    2.1709 O   0  0  0  0  0  0  0  0  0  0  0  0
    0.0161   -7.5521    1.5763 C   0  0  0  0  0  0  0  0  0  0  0  0
    1.5273   -7.7446    1.3690 C   0  0  0  0  0  0  0  0  0  0  0  0
    6.1666   -6.6316    1.5706 C   0  0  0  0  0  0  0  0  0  0  0  0
    6.9052   -5.4084    0.9573 C   0  0  0  0  0  0  0  0  0  0  0  0
    4.5773   -5.2004    2.5366 O   0  0  0  0  0  0  0  0  0  0  0  0
    5.1008   -4.0092    1.9167 C   0  0  0  0  0  0  0  0  0  0  0  0
    3.8345   -0.8361    0.5246 N   0  0  0  0  0  0  0  0  0  0  0  0
    3.1820   -0.2304    1.5354 C   0  0  0  0  0  0  0  0  0  0  0  0
    1.8235    0.1462    1.3888 N   0  0  0  0  0  0  0  0  0  0  0  0
    2.5669    2.4934    2.9528 H   0  0  0  0  0  0  0  0  0  0  0  0
    1.4747    1.8966    4.1754 H   0  0  0  0  0  0  0  0  0  0  0  0
    5.6178   -0.1819    3.9272 H   0  0  0  0  0  0  0  0  0  0  0  0
    6.8454   -1.2583    2.0326 H   0  0  0  0  0  0  0  0  0  0  0  0
    5.0462   -2.2452   -1.1571 H   0  0  0  0  0  0  0  0  0  0  0  0
    6.4405   -1.2587   -0.9274 H   0  0  0  0  0  0  0  0  0  0  0  0
    7.1342   -3.4504   -0.7894 H   0  0  0  0  0  0  0  0  0  0  0  0
    4.1647   -4.1633   -0.7567 H   0  0  0  0  0  0  0  0  0  0  0  0
    5.3917   -5.2831   -1.3216 H   0  0  0  0  0  0  0  0  0  0  0  0
    3.0807   -5.6303    0.3469 H   0  0  0  0  0  0  0  0  0  0  0  0
    4.1080   -6.9131   -0.3460 H   0  0  0  0  0  0  0  0  0  0  0  0
    4.1117   -8.4258    1.7588 H   0  0  0  0  0  0  0  0  0  0  0  0
    4.4373   -7.7450    3.3051 H   0  0  0  0  0  0  0  0  0  0  0  0
    2.3918   -6.0994    4.3192 H   0  0  0  0  0  0  0  0  0  0  0  0
    2.2324   -5.3652    2.7501 H   0  0  0  0  0  0  0  0  0  0  0  0
   -0.0333   -6.8164    4.1848 H   0  0  0  0  0  0  0  0  0  0  0  0
    0.1499   -5.0992    3.8506 H   0  0  0  0  0  0  0  0  0  0  0  0
   -0.4492   -8.3492    2.1669 H   0  0  0  0  0  0  0  0  0  0  0  0
   -0.4715   -7.5430    0.5957 H   0  0  0  0  0  0  0  0  0  0  0  0
    1.7858   -7.0284    0.5962 H   0  0  0  0  0  0  0  0  0  0  0  0
    1.7362   -8.7347    0.9533 H   0  0  0  0  0  0  0  0  0  0  0  0
    6.5823   -6.8481    2.5593 H   0  0  0  0  0  0  0  0  0  0  0  0
    6.3210   -7.5102    0.9461 H   0  0  0  0  0  0  0  0  0  0  0  0
    7.4854   -5.7314    0.0821 H   0  0  0  0  0  0  0  0  0  0  0  0
    7.6228   -5.0109    1.6865 H   0  0  0  0  0  0  0  0  0  0  0  0
    5.7743   -3.5324    2.6315 H   0  0  0  0  0  0  0  0  0  0  0  0
    4.2466   -3.3542    1.7218 H   0  0  0  0  0  0  0  0  0  0  0  0
    1.3191   -0.2491    0.5954 H   0  0  0  0  0  0  0  0  0  0  0  0
  1  2  2  0
  2 32  1  0
  2  3  1  0
  3  4  1  0
  3 33  1  0
  3 34  1  0
  4  5  1  0
  5 31  2  0
  5  6  1  0
  6  7  2  0
  6 35  1  0
  7  8  1  0
  7 36  1  0
  8  9  1  0
  8 30  2  0
  9 10  1  0
  9 37  1  0
  9 38  1  0
 11 10  1  6
 10 39  1  0
 11 27  1  0
 11 29  1  0
 11 12  1  0
 12 13  1  0
 12 40  1  0
 12 41  1  0
 13 14  1  0
 13 42  1  0
 13 43  1  0
 14 15  1  1
 14 26  1  0
 14 28  1  0
 15 16  1  0
 15 44  1  0
 15 45  1  0
 16 25  1  0
 16 17  1  0
 16 21  1  0
 17 18  1  0
 17 19  1  0
 17 20  1  0
 21 22  1  0
 21 46  1  0
 21 47  1  0
 22 23  1  0
 22 48  1  0
 22 49  1  0
 23 24  1  0
 24 25  1  0
 24 50  1  0
 24 51  1  0
 25 52  1  0
 25 53  1  0
 26 27  1  0
 26 54  1  0
 26 55  1  0
 27 56  1  0
 27 57  1  0
 28 29  1  0
 29 58  1  0
 29 59  1  0
 30 31  1  0
 31 32  1  0
 32 60  1  0
M  END
>  <i_m_ct_stereo_status>  (495) 
1

>  <s_m_source_file>  (495) 
/var/tmp/pbs.5102103.sched01/tmp7htwmlud/1762k52hbh7.sdf

>  <i_m_source_file_index>  (495) 
14

>  <i_lp_mmshare_version>  (495) 
48012

>  <i_f3d_flags>  (495) 
0

>  <s_epik_input>  (495) 
TzFbQ0gyXUMoPU8pW05IXWMoYzEyKW5jKFtjSF1bY0hdMilbQ0gyXVtOSF1bQ0BdMzRbQ0gyXVtDSDJdW0NAXShbQ0gyXVtDSDJdMykoT1tDSDJdNClbQ0gyXUM1KEMoRikoRilGKVtDSDJdW0NIMl1PW0NIMl1bQ0gyXTU=

>  <s_epik_cmdline>  (495) 
J2VwaWtfcHl0aG9uJywgJy1waHQnLCAnMi4wJywgJy1waCcsICc3LjAnLCAnLXRuJywgJzgnLCAnLW1hJywgJzIwMCcsICctaW1hZScsICc8aW5maWxlLm1hZT4nLCAnLW9tYWUnLCAnPG91dGZpbGUubWFlPic=

>  <r_lp_tautomer_probability>  (495) 
1

>  <r_epik_Ionization_Penalty>  (495) 
1.20578

>  <r_epik_Ionization_Penalty_Charging>  (495) 
0

>  <r_epik_Ionization_Penalty_Neutral>  (495) 
1.20578

>  <r_epik_State_Penalty>  (495) 
1.27172

>  <r_epik_Charging_Adjusted_Penalty>  (495) 
1.27172

>  <i_epik_Tot_Q>  (495) 
0

>  <i_epik_Tot_abs_Q>  (495) 
0

>  <s_lp_Force_Field>  (495) 
OPLS3e

>  <r_lp_Energy>  (495) 
72.4778

>  <b_lp_Chiralities_Consistent>  (495) 
1

>  <s_lp_Variant>  (495) 
118:0-2

>  <s_i_glide_gridfile>  (495) 
pfpi4k_grid

>  <i_i_glide_lignum>  (495) 
14

>  <i_i_glide_rotatable_bonds>  (495) 
6

>  <r_i_docking_score>  (495) 
-3.27741

>  <r_i_glide_ligand_efficiency>  (495) 
-0.102419

>  <r_i_glide_ligand_efficiency_sa>  (495) 
-0.32516

>  <r_i_glide_ligand_efficiency_ln>  (495) 
-0.733901

>  <r_i_glide_gscore>  (495) 
-3.27741

>  <r_i_glide_lipo>  (495) 
-0.78513

>  <r_i_glide_hbond>  (495) 
-0.39509

>  <r_i_glide_metal>  (495) 
-0

>  <r_i_glide_rewards>  (495) 
-0.303609

>  <r_i_glide_evdw>  (495) 
-26.5048

>  <r_i_glide_ecoul>  (495) 
-5.23088

>  <r_i_glide_erotb>  (495) 
0.484189

>  <r_i_glide_esite>  (495) 
-0.167895

>  <r_i_glide_emodel>  (495) 
-37.3629

>  <r_i_glide_energy>  (495) 
-31.7357

>  <r_i_glide_einternal>  (495) 
2.04787

>  <r_i_glide_intrahb_reward>  (495) 
-0

>  <i_i_glide_confnum>  (495) 
5

>  <i_i_glide_posenum>  (495) 
23

>  <r_i_glide_eff_state_penalty>  (495) 
0

>  <ligand_id>  (495) 
118

>  <original_smiles>  (495) 
O=C1COc2ccc(CNC34CCC(CC5(C(F)(F)F)CCOCC5)(CC3)OC4)nc2N1

>  <smiles>  (495) 
[H]c1c(C([H])([H])N([H])C23C([H])([H])OC(C([H])([H])C4(C(F)(F)F)C([H])([H])C([H])([H])OC([H])([H])C4([H])[H])(C([H])([H])C2([H])[H])C([H])([H])C3([H])[H])nc2c(c1[H])OC([H])([H])C(=O)N2[H]

$$$$
118:1:1
     RDKit          3D

 60 64  0  0  1  0  0  0  0  0999 V2000
    0.5963   -0.2159    2.9127 O   0  0  0  0  0  0  0  0  0  0  0  0
    1.7503   -0.4054    2.5754 C   0  0  0  0  0  0  0  0  0  0  0  0
    2.8192    0.6840    2.6685 C   0  0  0  0  0  0  0  0  0  0  0  0
    4.1174    0.1460    2.9335 O   0  0  0  0  0  0  0  0  0  0  0  0
    4.4866   -0.9184    2.1065 C   0  0  0  0  0  0  0  0  0  0  0  0
    5.8294   -1.1421    1.8376 C   0  0  0  0  0  0  0  0  0  0  0  0
    6.1698   -2.2629    1.0263 C   0  0  0  0  0  0  0  0  0  0  0  0
    5.1179   -3.0632    0.5483 C   0  0  0  0  0  0  0  0  0  0  0  0
    5.4335   -4.3201   -0.2605 C   0  0  0  0  0  0  0  0  0  0  0  0
    6.0776   -5.4097    0.5018 N   0  0  0  0  0  0  0  0  0  0  0  0
    5.2378   -6.3100    1.3208 C   0  0  1  0  0  0  0  0  0  0  0  0
    4.1870   -7.0280    0.4495 C   0  0  0  0  0  0  0  0  0  0  0  0
    3.2300   -7.8202    1.3522 C   0  0  0  0  0  0  0  0  0  0  0  0
    3.7193   -7.8601    2.8274 C   0  0  1  0  0  0  0  0  0  0  0  0
    2.8222   -8.7471    3.7518 C   0  0  0  0  0  0  0  0  0  0  0  0
    1.2821   -8.4575    4.0001 C   0  0  0  0  0  0  0  0  0  0  0  0
    0.8879   -9.2940    5.2842 C   0  0  0  0  0  0  0  0  0  0  0  0
   -0.3725   -9.1199    5.6716 F   0  0  0  0  0  0  0  0  0  0  0  0
    1.0947  -10.5868    5.0293 F   0  0  0  0  0  0  0  0  0  0  0  0
    1.6605   -8.9509    6.3195 F   0  0  0  0  0  0  0  0  0  0  0  0
    1.0142   -6.9457    4.2501 C   0  0  0  0  0  0  0  0  0  0  0  0
   -0.4821   -6.5875    4.2839 C   0  0  0  0  0  0  0  0  0  0  0  0
   -1.0977   -7.0363    3.0662 O   0  0  0  0  0  0  0  0  0  0  0  0
   -1.0571   -8.4570    2.8692 C   0  0  0  0  0  0  0  0  0  0  0  0
    0.4166   -8.9100    2.7713 C   0  0  0  0  0  0  0  0  0  0  0  0
    5.1980   -8.3365    2.8515 C   0  0  0  0  0  0  0  0  0  0  0  0
    6.1000   -7.4044    1.9969 C   0  0  0  0  0  0  0  0  0  0  0  0
    3.8261   -6.5319    3.3716 O   0  0  0  0  0  0  0  0  0  0  0  0
    4.4842   -5.5935    2.4862 C   0  0  0  0  0  0  0  0  0  0  0  0
    3.8192   -2.8377    0.7990 N   0  0  0  0  0  0  0  0  0  0  0  0
    3.4987   -1.7723    1.6044 C   0  0  0  0  0  0  0  0  0  0  0  0
    2.1732   -1.6030    2.0292 N   0  0  0  0  0  0  0  0  0  0  0  0
    2.8361    1.2509    1.7328 H   0  0  0  0  0  0  0  0  0  0  0  0
    2.5362    1.3997    3.4465 H   0  0  0  0  0  0  0  0  0  0  0  0
    6.6070   -0.5020    2.2254 H   0  0  0  0  0  0  0  0  0  0  0  0
    7.1947   -2.4927    0.8116 H   0  0  0  0  0  0  0  0  0  0  0  0
    4.5354   -4.6421   -0.7833 H   0  0  0  0  0  0  0  0  0  0  0  0
    6.1094   -3.9891   -1.0523 H   0  0  0  0  0  0  0  0  0  0  0  0
    6.6058   -5.9796   -0.1502 H   0  0  0  0  0  0  0  0  0  0  0  0
    3.5488   -6.3228   -0.0824 H   0  0  0  0  0  0  0  0  0  0  0  0
    4.6403   -7.6796   -0.3100 H   0  0  0  0  0  0  0  0  0  0  0  0
    2.2874   -7.3045    1.2789 H   0  0  0  0  0  0  0  0  0  0  0  0
    3.1374   -8.8387    0.9783 H   0  0  0  0  0  0  0  0  0  0  0  0
    2.8977   -9.7563    3.3632 H   0  0  0  0  0  0  0  0  0  0  0  0
    3.3211   -8.7870    4.7168 H   0  0  0  0  0  0  0  0  0  0  0  0
    1.5259   -6.6174    5.1555 H   0  0  0  0  0  0  0  0  0  0  0  0
    1.4308   -6.3532    3.4361 H   0  0  0  0  0  0  0  0  0  0  0  0
   -0.9965   -6.9793    5.1612 H   0  0  0  0  0  0  0  0  0  0  0  0
   -0.5525   -5.4965    4.3592 H   0  0  0  0  0  0  0  0  0  0  0  0
   -1.6166   -8.9934    3.6498 H   0  0  0  0  0  0  0  0  0  0  0  0
   -1.5415   -8.6945    1.9193 H   0  0  0  0  0  0  0  0  0  0  0  0
    0.7679   -8.5098    1.8391 H   0  0  0  0  0  0  0  0  0  0  0  0
    0.4797  -10.0031    2.6719 H   0  0  0  0  0  0  0  0  0  0  0  0
    5.5552   -8.3478    3.8834 H   0  0  0  0  0  0  0  0  0  0  0  0
    5.2335   -9.3493    2.4677 H   0  0  0  0  0  0  0  0  0  0  0  0
    6.6440   -8.0023    1.2590 H   0  0  0  0  0  0  0  0  0  0  0  0
    6.8426   -6.9265    2.6442 H   0  0  0  0  0  0  0  0  0  0  0  0
    5.1932   -4.9988    3.0768 H   0  0  0  0  0  0  0  0  0  0  0  0
    3.6863   -4.9676    2.1103 H   0  0  0  0  0  0  0  0  0  0  0  0
    1.5013   -2.3066    1.8623 H   0  0  0  0  0  0  0  0  0  0  0  0
  1  2  2  0
  2 32  1  0
  2  3  1  0
  3  4  1  0
  3 33  1  0
  3 34  1  0
  4  5  1  0
  5 31  2  0
  5  6  1  0
  6  7  2  0
  6 35  1  0
  7  8  1  0
  7 36  1  0
  8  9  1  0
  8 30  2  0
  9 10  1  0
  9 37  1  0
  9 38  1  0
 11 10  1  6
 10 39  1  0
 11 27  1  0
 11 29  1  0
 11 12  1  0
 12 13  1  0
 12 40  1  0
 12 41  1  0
 13 14  1  0
 13 42  1  0
 13 43  1  0
 14 15  1  1
 14 26  1  0
 14 28  1  0
 15 16  1  0
 15 44  1  0
 15 45  1  0
 16 25  1  0
 16 17  1  0
 16 21  1  0
 17 18  1  0
 17 19  1  0
 17 20  1  0
 21 22  1  0
 21 46  1  0
 21 47  1  0
 22 23  1  0
 22 48  1  0
 22 49  1  0
 23 24  1  0
 24 25  1  0
 24 50  1  0
 24 51  1  0
 25 52  1  0
 25 53  1  0
 26 27  1  0
 26 54  1  0
 26 55  1  0
 27 56  1  0
 27 57  1  0
 28 29  1  0
 29 58  1  0
 29 59  1  0
 30 31  1  0
 31 32  1  0
 32 60  1  0
M  END
>  <i_m_ct_stereo_status>  (496) 
1

>  <s_m_source_file>  (496) 
/var/tmp/pbs.5102103.sched01/tmp7htwmlud/1762k52hbh7.sdf

>  <i_m_source_file_index>  (496) 
14

>  <i_lp_mmshare_version>  (496) 
48012

>  <i_f3d_flags>  (496) 
0

>  <s_epik_input>  (496) 
TzFbQ0gyXUMoPU8pW05IXWMoYzEyKW5jKFtjSF1bY0hdMilbQ0gyXVtOSF1bQ0BdMzRbQ0gyXVtDSDJdW0NAXShbQ0gyXVtDSDJdMykoT1tDSDJdNClbQ0gyXUM1KEMoRikoRilGKVtDSDJdW0NIMl1PW0NIMl1bQ0gyXTU=

>  <s_epik_cmdline>  (496) 
J2VwaWtfcHl0aG9uJywgJy1waHQnLCAnMi4wJywgJy1waCcsICc3LjAnLCAnLXRuJywgJzgnLCAnLW1hJywgJzIwMCcsICctaW1hZScsICc8aW5maWxlLm1hZT4nLCAnLW9tYWUnLCAnPG91dGZpbGUubWFlPic=

>  <r_lp_tautomer_probability>  (496) 
1

>  <r_epik_Ionization_Penalty>  (496) 
1.20578

>  <r_epik_Ionization_Penalty_Charging>  (496) 
0

>  <r_epik_Ionization_Penalty_Neutral>  (496) 
1.20578

>  <r_epik_State_Penalty>  (496) 
1.27172

>  <r_epik_Charging_Adjusted_Penalty>  (496) 
1.27172

>  <i_epik_Tot_Q>  (496) 
0

>  <i_epik_Tot_abs_Q>  (496) 
0

>  <s_lp_Force_Field>  (496) 
OPLS3e

>  <r_lp_Energy>  (496) 
72.4778

>  <b_lp_Chiralities_Consistent>  (496) 
1

>  <s_lp_Variant>  (496) 
118:0-2

>  <s_i_glide_gridfile>  (496) 
pfpi4k_grid

>  <i_i_glide_lignum>  (496) 
14

>  <i_i_glide_rotatable_bonds>  (496) 
6

>  <r_i_docking_score>  (496) 
-2.72909

>  <r_i_glide_ligand_efficiency>  (496) 
-0.0852841

>  <r_i_glide_ligand_efficiency_sa>  (496) 
-0.27076

>  <r_i_glide_ligand_efficiency_ln>  (496) 
-0.611118

>  <r_i_glide_gscore>  (496) 
-2.72909

>  <r_i_glide_lipo>  (496) 
-0.749059

>  <r_i_glide_hbond>  (496) 
-0.16

>  <r_i_glide_metal>  (496) 
-0

>  <r_i_glide_rewards>  (496) 
-0.303609

>  <r_i_glide_evdw>  (496) 
-27.8528

>  <r_i_glide_ecoul>  (496) 
-2.28835

>  <r_i_glide_erotb>  (496) 
0.484189

>  <r_i_glide_esite>  (496) 
-0.264721

>  <r_i_glide_emodel>  (496) 
-34.725

>  <r_i_glide_energy>  (496) 
-30.1411

>  <r_i_glide_einternal>  (496) 
1.711

>  <r_i_glide_intrahb_reward>  (496) 
-0

>  <i_i_glide_confnum>  (496) 
5

>  <i_i_glide_posenum>  (496) 
16

>  <r_i_glide_eff_state_penalty>  (496) 
0

>  <ligand_id>  (496) 
118

>  <original_smiles>  (496) 
O=C1COc2ccc(CNC34CCC(CC5(C(F)(F)F)CCOCC5)(CC3)OC4)nc2N1

>  <smiles>  (496) 
[H]c1c(C([H])([H])N([H])C23C([H])([H])OC(C([H])([H])C4(C(F)(F)F)C([H])([H])C([H])([H])OC([H])([H])C4([H])[H])(C([H])([H])C2([H])[H])C([H])([H])C3([H])[H])nc2c(c1[H])OC([H])([H])C(=O)N2[H]

$$$$
118:1:2
     RDKit          3D

 60 64  0  0  1  0  0  0  0  0999 V2000
   -2.1216   -1.4443    5.5639 O   0  0  0  0  0  0  0  0  0  0  0  0
   -1.3186   -0.6321    5.0880 C   0  0  0  0  0  0  0  0  0  0  0  0
   -1.5869    0.8916    5.1443 C   0  0  0  0  0  0  0  0  0  0  0  0
   -0.3556    1.6315    5.0626 O   0  0  0  0  0  0  0  0  0  0  0  0
    0.5068    1.2055    4.0695 C   0  0  0  0  0  0  0  0  0  0  0  0
    1.4049    2.1395    3.4898 C   0  0  0  0  0  0  0  0  0  0  0  0
    2.2970    1.6205    2.5099 C   0  0  0  0  0  0  0  0  0  0  0  0
    2.2348    0.2734    2.1552 C   0  0  0  0  0  0  0  0  0  0  0  0
    3.2135   -0.3127    1.1389 C   0  0  0  0  0  0  0  0  0  0  0  0
    4.3233   -1.1240    1.6897 N   0  0  0  0  0  0  0  0  0  0  0  0
    4.0888   -2.5793    1.9213 C   0  0  1  0  0  0  0  0  0  0  0  0
    3.6402   -3.2891    0.6175 C   0  0  0  0  0  0  0  0  0  0  0  0
    3.2652   -4.7518    0.9251 C   0  0  0  0  0  0  0  0  0  0  0  0
    3.6275   -5.1309    2.4117 C   0  0  1  0  0  0  0  0  0  0  0  0
    3.3434   -6.6439    2.7176 C   0  0  0  0  0  0  0  0  0  0  0  0
    1.8751   -7.2042    2.9177 C   0  0  0  0  0  0  0  0  0  0  0  0
    2.0253   -8.6486    3.5716 C   0  0  0  0  0  0  0  0  0  0  0  0
    0.8516   -9.2637    3.7949 F   0  0  0  0  0  0  0  0  0  0  0  0
    2.7653   -9.4173    2.7547 F   0  0  0  0  0  0  0  0  0  0  0  0
    2.6756   -8.5384    4.7436 F   0  0  0  0  0  0  0  0  0  0  0  0
    1.0091   -6.2874    3.8452 C   0  0  0  0  0  0  0  0  0  0  0  0
   -0.4625   -6.7406    3.8999 C   0  0  0  0  0  0  0  0  0  0  0  0
   -0.9747   -6.7411    2.5588 O   0  0  0  0  0  0  0  0  0  0  0  0
   -0.3430   -7.7177    1.7127 C   0  0  0  0  0  0  0  0  0  0  0  0
    1.1439   -7.3233    1.5397 C   0  0  0  0  0  0  0  0  0  0  0  0
    5.1321   -4.7799    2.6470 C   0  0  0  0  0  0  0  0  0  0  0  0
    5.3946   -3.2709    2.4117 C   0  0  0  0  0  0  0  0  0  0  0  0
    2.9913   -4.2901    3.3806 O   0  0  0  0  0  0  0  0  0  0  0  0
    3.0117   -2.9089    3.0191 C   0  0  0  0  0  0  0  0  0  0  0  0
    1.3596   -0.5903    2.6995 N   0  0  0  0  0  0  0  0  0  0  0  0
    0.5370   -0.1324    3.6705 C   0  0  0  0  0  0  0  0  0  0  0  0
   -0.2658   -1.0329    4.3615 N   0  0  0  0  0  0  0  0  0  0  0  0
   -2.2208    1.1333    4.2764 H   0  0  0  0  0  0  0  0  0  0  0  0
   -2.1561    1.1382    6.0531 H   0  0  0  0  0  0  0  0  0  0  0  0
    1.4019    3.2136    3.7453 H   0  0  0  0  0  0  0  0  0  0  0  0
    3.0138    2.3139    2.0478 H   0  0  0  0  0  0  0  0  0  0  0  0
    2.6416   -0.8246    0.3837 H   0  0  0  0  0  0  0  0  0  0  0  0
    3.6720    0.5317    0.6091 H   0  0  0  0  0  0  0  0  0  0  0  0
    5.1385   -1.0295    1.0909 H   0  0  0  0  0  0  0  0  0  0  0  0
    2.7286   -2.8548    0.2083 H   0  0  0  0  0  0  0  0  0  0  0  0
    4.4112   -3.2395   -0.1573 H   0  0  0  0  0  0  0  0  0  0  0  0
    2.2016   -4.8444    0.7340 H   0  0  0  0  0  0  0  0  0  0  0  0
    3.8160   -5.4171    0.2454 H   0  0  0  0  0  0  0  0  0  0  0  0
    3.7981   -7.1971    1.9058 H   0  0  0  0  0  0  0  0  0  0  0  0
    3.9276   -6.8912    3.5947 H   0  0  0  0  0  0  0  0  0  0  0  0
    1.4547   -6.2524    4.8461 H   0  0  0  0  0  0  0  0  0  0  0  0
    0.9897   -5.2648    3.4676 H   0  0  0  0  0  0  0  0  0  0  0  0
   -0.5771   -7.7143    4.3917 H   0  0  0  0  0  0  0  0  0  0  0  0
   -1.0103   -6.0075    4.4970 H   0  0  0  0  0  0  0  0  0  0  0  0
   -0.4569   -8.7431    2.1032 H   0  0  0  0  0  0  0  0  0  0  0  0
   -0.8100   -7.6918    0.7237 H   0  0  0  0  0  0  0  0  0  0  0  0
    1.1487   -6.3880    0.9969 H   0  0  0  0  0  0  0  0  0  0  0  0
    1.6659   -8.0679    0.9169 H   0  0  0  0  0  0  0  0  0  0  0  0
    5.3857   -5.0449    3.6743 H   0  0  0  0  0  0  0  0  0  0  0  0
    5.7338   -5.3836    1.9753 H   0  0  0  0  0  0  0  0  0  0  0  0
    6.1989   -3.1436    1.6863 H   0  0  0  0  0  0  0  0  0  0  0  0
    5.7011   -2.8062    3.3512 H   0  0  0  0  0  0  0  0  0  0  0  0
    3.2178   -2.2731    3.8964 H   0  0  0  0  0  0  0  0  0  0  0  0
    2.0308   -2.6692    2.6202 H   0  0  0  0  0  0  0  0  0  0  0  0
   -0.1176   -2.0092    4.2371 H   0  0  0  0  0  0  0  0  0  0  0  0
  1  2  2  0
  2 32  1  0
  2  3  1  0
  3  4  1  0
  3 33  1  0
  3 34  1  0
  4  5  1  0
  5 31  2  0
  5  6  1  0
  6  7  2  0
  6 35  1  0
  7  8  1  0
  7 36  1  0
  8  9  1  0
  8 30  2  0
  9 10  1  0
  9 37  1  0
  9 38  1  0
 11 10  1  6
 10 39  1  0
 11 27  1  0
 11 29  1  0
 11 12  1  0
 12 13  1  0
 12 40  1  0
 12 41  1  0
 13 14  1  0
 13 42  1  0
 13 43  1  0
 14 15  1  1
 14 26  1  0
 14 28  1  0
 15 16  1  0
 15 44  1  0
 15 45  1  0
 16 25  1  0
 16 17  1  0
 16 21  1  0
 17 18  1  0
 17 19  1  0
 17 20  1  0
 21 22  1  0
 21 46  1  0
 21 47  1  0
 22 23  1  0
 22 48  1  0
 22 49  1  0
 23 24  1  0
 24 25  1  0
 24 50  1  0
 24 51  1  0
 25 52  1  0
 25 53  1  0
 26 27  1  0
 26 54  1  0
 26 55  1  0
 27 56  1  0
 27 57  1  0
 28 29  1  0
 29 58  1  0
 29 59  1  0
 30 31  1  0
 31 32  1  0
 32 60  1  0
M  END
>  <i_m_ct_stereo_status>  (497) 
1

>  <s_m_source_file>  (497) 
/var/tmp/pbs.5102103.sched01/tmp7htwmlud/1762k52hbh7.sdf

>  <i_m_source_file_index>  (497) 
14

>  <i_lp_mmshare_version>  (497) 
48012

>  <i_f3d_flags>  (497) 
0

>  <s_epik_input>  (497) 
TzFbQ0gyXUMoPU8pW05IXWMoYzEyKW5jKFtjSF1bY0hdMilbQ0gyXVtOSF1bQ0BdMzRbQ0gyXVtDSDJdW0NAXShbQ0gyXVtDSDJdMykoT1tDSDJdNClbQ0gyXUM1KEMoRikoRilGKVtDSDJdW0NIMl1PW0NIMl1bQ0gyXTU=

>  <s_epik_cmdline>  (497) 
J2VwaWtfcHl0aG9uJywgJy1waHQnLCAnMi4wJywgJy1waCcsICc3LjAnLCAnLXRuJywgJzgnLCAnLW1hJywgJzIwMCcsICctaW1hZScsICc8aW5maWxlLm1hZT4nLCAnLW9tYWUnLCAnPG91dGZpbGUubWFlPic=

>  <r_lp_tautomer_probability>  (497) 
1

>  <r_epik_Ionization_Penalty>  (497) 
1.20578

>  <r_epik_Ionization_Penalty_Charging>  (497) 
0

>  <r_epik_Ionization_Penalty_Neutral>  (497) 
1.20578

>  <r_epik_State_Penalty>  (497) 
1.27172

>  <r_epik_Charging_Adjusted_Penalty>  (497) 
1.27172

>  <i_epik_Tot_Q>  (497) 
0

>  <i_epik_Tot_abs_Q>  (497) 
0

>  <s_lp_Force_Field>  (497) 
OPLS3e

>  <r_lp_Energy>  (497) 
72.4778

>  <b_lp_Chiralities_Consistent>  (497) 
1

>  <s_lp_Variant>  (497) 
118:0-2

>  <s_i_glide_gridfile>  (497) 
pfpi4k_grid

>  <i_i_glide_lignum>  (497) 
14

>  <i_i_glide_rotatable_bonds>  (497) 
6

>  <r_i_docking_score>  (497) 
-2.52039

>  <r_i_glide_ligand_efficiency>  (497) 
-0.078762

>  <r_i_glide_ligand_efficiency_sa>  (497) 
-0.250054

>  <r_i_glide_ligand_efficiency_ln>  (497) 
-0.564383

>  <r_i_glide_gscore>  (497) 
-2.52039

>  <r_i_glide_lipo>  (497) 
-0.104803

>  <r_i_glide_hbond>  (497) 
-0.162367

>  <r_i_glide_metal>  (497) 
-0

>  <r_i_glide_rewards>  (497) 
-0.303609

>  <r_i_glide_evdw>  (497) 
-26.4991

>  <r_i_glide_ecoul>  (497) 
-6.72828

>  <r_i_glide_erotb>  (497) 
0.484189

>  <r_i_glide_esite>  (497) 
-0.0995957

>  <r_i_glide_emodel>  (497) 
-34.8894

>  <r_i_glide_energy>  (497) 
-33.2274

>  <r_i_glide_einternal>  (497) 
3.75613

>  <r_i_glide_intrahb_reward>  (497) 
-0

>  <i_i_glide_confnum>  (497) 
5

>  <i_i_glide_posenum>  (497) 
1

>  <r_i_glide_eff_state_penalty>  (497) 
0

>  <ligand_id>  (497) 
118

>  <original_smiles>  (497) 
O=C1COc2ccc(CNC34CCC(CC5(C(F)(F)F)CCOCC5)(CC3)OC4)nc2N1

>  <smiles>  (497) 
[H]c1c(C([H])([H])N([H])C23C([H])([H])OC(C([H])([H])C4(C(F)(F)F)C([H])([H])C([H])([H])OC([H])([H])C4([H])[H])(C([H])([H])C2([H])[H])C([H])([H])C3([H])[H])nc2c(c1[H])OC([H])([H])C(=O)N2[H]

$$$$
119:0:0
     RDKit          3D

 29 31  0  0  1  0  0  0  0  0999 V2000
   -1.7098   -8.6605    3.0964 C   0  0  0  0  0  0  0  0  0  0  0  0
   -0.6558   -7.6106    3.0273 C   0  0  0  0  0  0  0  0  0  0  0  0
   -0.4162   -6.6850    4.0035 C   0  0  0  0  0  0  0  0  0  0  0  0
    0.6934   -5.8058    3.6760 C   0  0  0  0  0  0  0  0  0  0  0  0
    1.3156   -4.7126    4.3379 C   0  0  0  0  0  0  0  0  0  0  0  0
    0.9324   -4.2989    5.6263 N   0  0  0  0  0  0  0  0  0  0  0  0
    0.7474   -2.8974    5.9683 C   0  0  0  0  0  0  0  0  0  0  0  0
   -0.6908   -2.6791    6.4859 C   0  0  0  0  0  0  0  0  0  0  0  0
   -0.9827   -3.5881    7.5475 O   0  0  0  0  0  0  0  0  0  0  0  0
   -0.8889   -4.9519    7.1353 C   0  0  0  0  0  0  0  0  0  0  0  0
    0.5523   -5.2506    6.6614 C   0  0  0  0  0  0  0  0  0  0  0  0
    2.3091   -4.0382    3.7221 N   0  0  0  0  0  0  0  0  0  0  0  0
    2.7210   -4.4433    2.5183 C   0  0  0  0  0  0  0  0  0  0  0  0
    2.2630   -5.4599    1.7858 N   0  0  0  0  0  0  0  0  0  0  0  0
    1.2429   -6.1177    2.4001 C   0  0  0  0  0  0  0  0  0  0  0  0
    0.4009   -7.4578    1.6537 S   0  0  0  0  0  0  0  0  0  0  0  0
   -2.2466   -8.6014    4.0419 H   0  0  0  0  0  0  0  0  0  0  0  0
   -1.2699   -9.6538    3.0410 H   0  0  0  0  0  0  0  0  0  0  0  0
   -2.4308   -8.5447    2.2914 H   0  0  0  0  0  0  0  0  0  0  0  0
   -0.9961   -6.6360    4.9063 H   0  0  0  0  0  0  0  0  0  0  0  0
    1.4575   -2.6224    6.7500 H   0  0  0  0  0  0  0  0  0  0  0  0
    0.9456   -2.2407    5.1233 H   0  0  0  0  0  0  0  0  0  0  0  0
   -0.8110   -1.6629    6.8621 H   0  0  0  0  0  0  0  0  0  0  0  0
   -1.4153   -2.8016    5.6815 H   0  0  0  0  0  0  0  0  0  0  0  0
   -1.1541   -5.6127    7.9606 H   0  0  0  0  0  0  0  0  0  0  0  0
   -1.6291   -5.1317    6.3572 H   0  0  0  0  0  0  0  0  0  0  0  0
    0.6595   -6.2789    6.3170 H   0  0  0  0  0  0  0  0  0  0  0  0
    1.2450   -5.1478    7.5019 H   0  0  0  0  0  0  0  0  0  0  0  0
    3.5452   -3.8867    2.0973 H   0  0  0  0  0  0  0  0  0  0  0  0
  1  2  1  0
  1 17  1  0
  1 18  1  0
  1 19  1  0
  2 16  1  0
  2  3  2  0
  3  4  1  0
  3 20  1  0
  4 15  2  0
  4  5  1  0
  5  6  1  0
  5 12  2  0
  6 11  1  0
  6  7  1  0
  7  8  1  0
  7 21  1  0
  7 22  1  0
  8  9  1  0
  8 23  1  0
  8 24  1  0
  9 10  1  0
 10 11  1  0
 10 25  1  0
 10 26  1  0
 11 27  1  0
 11 28  1  0
 12 13  1  0
 13 14  2  0
 13 29  1  0
 14 15  1  0
 15 16  1  0
M  END
>  <i_m_ct_stereo_status>  (498) 
1

>  <s_m_source_file>  (498) 
/var/tmp/pbs.5102103.sched01/tmp7htwmlud/1762k52hbh7.sdf

>  <i_m_source_file_index>  (498) 
15

>  <i_lp_mmshare_version>  (498) 
48012

>  <i_f3d_flags>  (498) 
0

>  <s_epik_input>  (498) 
W0NIM11jKFtjSF0xKXNjKGMxMiluW2NIXW5jMk4zW0NIMl1bQ0gyXU9bQ0gyXVtDSDJdMw==

>  <s_epik_cmdline>  (498) 
J2VwaWtfcHl0aG9uJywgJy1waHQnLCAnMi4wJywgJy1waCcsICc3LjAnLCAnLXRuJywgJzgnLCAnLW1hJywgJzIwMCcsICctaW1hZScsICc8aW5maWxlLm1hZT4nLCAnLW9tYWUnLCAnPG91dGZpbGUubWFlPic=

>  <r_lp_tautomer_probability>  (498) 
1

>  <r_epik_Ionization_Penalty>  (498) 
9.27792e-06

>  <r_epik_Ionization_Penalty_Charging>  (498) 
0

>  <r_epik_Ionization_Penalty_Neutral>  (498) 
9.27792e-06

>  <r_epik_State_Penalty>  (498) 
-0

>  <r_epik_Charging_Adjusted_Penalty>  (498) 
0

>  <i_epik_Tot_Q>  (498) 
0

>  <i_epik_Tot_abs_Q>  (498) 
0

>  <s_lp_Force_Field>  (498) 
OPLS3e

>  <r_lp_Energy>  (498) 
39.2384

>  <b_lp_Chiralities_Consistent>  (498) 
1

>  <s_lp_Variant>  (498) 
119:0-1

>  <s_i_glide_gridfile>  (498) 
pfpi4k_grid

>  <i_i_glide_lignum>  (498) 
15

>  <i_i_glide_rotatable_bonds>  (498) 
1

>  <r_i_docking_score>  (498) 
-2.5934

>  <r_i_glide_ligand_efficiency>  (498) 
-0.162088

>  <r_i_glide_ligand_efficiency_sa>  (498) 
-0.408435

>  <r_i_glide_ligand_efficiency_ln>  (498) 
-0.687433

>  <r_i_glide_gscore>  (498) 
-2.5934

>  <r_i_glide_lipo>  (498) 
-0.0483424

>  <r_i_glide_hbond>  (498) 
-0.0123586

>  <r_i_glide_metal>  (498) 
-0

>  <r_i_glide_rewards>  (498) 
-1.80473

>  <r_i_glide_evdw>  (498) 
-17.5006

>  <r_i_glide_ecoul>  (498) 
-1.05564

>  <r_i_glide_erotb>  (498) 
0.310521

>  <r_i_glide_esite>  (498) 
-0.00511527

>  <r_i_glide_emodel>  (498) 
-21.0622

>  <r_i_glide_energy>  (498) 
-18.5563

>  <r_i_glide_einternal>  (498) 
0.874405

>  <r_i_glide_intrahb_reward>  (498) 
-0

>  <i_i_glide_confnum>  (498) 
3

>  <i_i_glide_posenum>  (498) 
23

>  <r_i_glide_eff_state_penalty>  (498) 
0

>  <ligand_id>  (498) 
119

>  <original_smiles>  (498) 
Cc1cc2c(N3CCOCC3)ncnc2s1

>  <smiles>  (498) 
[H]c1nc(N2C([H])([H])C([H])([H])OC([H])([H])C2([H])[H])c2c([H])c(C([H])([H])[H])sc2n1

$$$$
119:0:1
     RDKit          3D

 29 31  0  0  1  0  0  0  0  0999 V2000
    4.5221    7.0458    3.3595 C   0  0  0  0  0  0  0  0  0  0  0  0
    3.3613    6.7212    4.2308 C   0  0  0  0  0  0  0  0  0  0  0  0
    2.4180    5.7669    3.9548 C   0  0  0  0  0  0  0  0  0  0  0  0
    1.4221    5.6636    5.0032 C   0  0  0  0  0  0  0  0  0  0  0  0
    0.2757    4.8452    5.1858 C   0  0  0  0  0  0  0  0  0  0  0  0
   -0.0933    3.8447    4.2725 N   0  0  0  0  0  0  0  0  0  0  0  0
    0.8972    3.0368    3.5725 C   0  0  0  0  0  0  0  0  0  0  0  0
    0.5866    1.5467    3.7657 C   0  0  0  0  0  0  0  0  0  0  0  0
   -0.7592    1.2734    3.3800 O   0  0  0  0  0  0  0  0  0  0  0  0
   -1.7046    2.0178    4.1457 C   0  0  0  0  0  0  0  0  0  0  0  0
   -1.4788    3.5280    3.9681 C   0  0  0  0  0  0  0  0  0  0  0  0
   -0.5032    5.0274    6.2756 N   0  0  0  0  0  0  0  0  0  0  0  0
   -0.1587    5.9499    7.1785 C   0  0  0  0  0  0  0  0  0  0  0  0
    0.8762    6.7870    7.1541 N   0  0  0  0  0  0  0  0  0  0  0  0
    1.6506    6.6163    6.0435 C   0  0  0  0  0  0  0  0  0  0  0  0
    3.0845    7.5816    5.7197 S   0  0  0  0  0  0  0  0  0  0  0  0
    4.5343    6.3929    2.4876 H   0  0  0  0  0  0  0  0  0  0  0  0
    5.4589    6.9008    3.8929 H   0  0  0  0  0  0  0  0  0  0  0  0
    4.4646    8.0752    3.0115 H   0  0  0  0  0  0  0  0  0  0  0  0
    2.4151    5.1701    3.0549 H   0  0  0  0  0  0  0  0  0  0  0  0
    0.8891    3.2961    2.5113 H   0  0  0  0  0  0  0  0  0  0  0  0
    1.9004    3.2127    3.9561 H   0  0  0  0  0  0  0  0  0  0  0  0
    1.2780    0.9501    3.1682 H   0  0  0  0  0  0  0  0  0  0  0  0
    0.7446    1.2703    4.8091 H   0  0  0  0  0  0  0  0  0  0  0  0
   -2.7053    1.7495    3.8177 H   0  0  0  0  0  0  0  0  0  0  0  0
   -1.6218    1.7460    5.1977 H   0  0  0  0  0  0  0  0  0  0  0  0
   -2.1763    4.0976    4.5801 H   0  0  0  0  0  0  0  0  0  0  0  0
   -1.6684    3.8094    2.9314 H   0  0  0  0  0  0  0  0  0  0  0  0
   -0.8143    6.0276    8.0338 H   0  0  0  0  0  0  0  0  0  0  0  0
  1  2  1  0
  1 17  1  0
  1 18  1  0
  1 19  1  0
  2 16  1  0
  2  3  2  0
  3  4  1  0
  3 20  1  0
  4 15  2  0
  4  5  1  0
  5  6  1  0
  5 12  2  0
  6 11  1  0
  6  7  1  0
  7  8  1  0
  7 21  1  0
  7 22  1  0
  8  9  1  0
  8 23  1  0
  8 24  1  0
  9 10  1  0
 10 11  1  0
 10 25  1  0
 10 26  1  0
 11 27  1  0
 11 28  1  0
 12 13  1  0
 13 14  2  0
 13 29  1  0
 14 15  1  0
 15 16  1  0
M  END
>  <i_m_ct_stereo_status>  (499) 
1

>  <s_m_source_file>  (499) 
/var/tmp/pbs.5102103.sched01/tmp7htwmlud/1762k52hbh7.sdf

>  <i_m_source_file_index>  (499) 
15

>  <i_lp_mmshare_version>  (499) 
48012

>  <i_f3d_flags>  (499) 
0

>  <s_epik_input>  (499) 
W0NIM11jKFtjSF0xKXNjKGMxMiluW2NIXW5jMk4zW0NIMl1bQ0gyXU9bQ0gyXVtDSDJdMw==

>  <s_epik_cmdline>  (499) 
J2VwaWtfcHl0aG9uJywgJy1waHQnLCAnMi4wJywgJy1waCcsICc3LjAnLCAnLXRuJywgJzgnLCAnLW1hJywgJzIwMCcsICctaW1hZScsICc8aW5maWxlLm1hZT4nLCAnLW9tYWUnLCAnPG91dGZpbGUubWFlPic=

>  <r_lp_tautomer_probability>  (499) 
1

>  <r_epik_Ionization_Penalty>  (499) 
9.27792e-06

>  <r_epik_Ionization_Penalty_Charging>  (499) 
0

>  <r_epik_Ionization_Penalty_Neutral>  (499) 
9.27792e-06

>  <r_epik_State_Penalty>  (499) 
-0

>  <r_epik_Charging_Adjusted_Penalty>  (499) 
0

>  <i_epik_Tot_Q>  (499) 
0

>  <i_epik_Tot_abs_Q>  (499) 
0

>  <s_lp_Force_Field>  (499) 
OPLS3e

>  <r_lp_Energy>  (499) 
39.2384

>  <b_lp_Chiralities_Consistent>  (499) 
1

>  <s_lp_Variant>  (499) 
119:0-1

>  <s_i_glide_gridfile>  (499) 
pfpi4k_grid

>  <i_i_glide_lignum>  (499) 
15

>  <i_i_glide_rotatable_bonds>  (499) 
1

>  <r_i_docking_score>  (499) 
-2.49809

>  <r_i_glide_ligand_efficiency>  (499) 
-0.156131

>  <r_i_glide_ligand_efficiency_sa>  (499) 
-0.393425

>  <r_i_glide_ligand_efficiency_ln>  (499) 
-0.662169

>  <r_i_glide_gscore>  (499) 
-2.49809

>  <r_i_glide_lipo>  (499) 
-0.151355

>  <r_i_glide_hbond>  (499) 
0

>  <r_i_glide_metal>  (499) 
-0

>  <r_i_glide_rewards>  (499) 
-1.80473

>  <r_i_glide_evdw>  (499) 
-14.5356

>  <r_i_glide_ecoul>  (499) 
-0.452135

>  <r_i_glide_erotb>  (499) 
0.310521

>  <r_i_glide_esite>  (499) 
-0.0579298

>  <r_i_glide_emodel>  (499) 
-17.9034

>  <r_i_glide_energy>  (499) 
-14.9877

>  <r_i_glide_einternal>  (499) 
5.00858e-07

>  <r_i_glide_intrahb_reward>  (499) 
-0

>  <i_i_glide_confnum>  (499) 
3

>  <i_i_glide_posenum>  (499) 
22

>  <r_i_glide_eff_state_penalty>  (499) 
0

>  <ligand_id>  (499) 
119

>  <original_smiles>  (499) 
Cc1cc2c(N3CCOCC3)ncnc2s1

>  <smiles>  (499) 
[H]c1nc(N2C([H])([H])C([H])([H])OC([H])([H])C2([H])[H])c2c([H])c(C([H])([H])[H])sc2n1

$$$$
119:0:2
     RDKit          3D

 29 31  0  0  1  0  0  0  0  0999 V2000
    0.0054   -6.9422    1.9899 C   0  0  0  0  0  0  0  0  0  0  0  0
    0.2301   -7.3934    3.3860 C   0  0  0  0  0  0  0  0  0  0  0  0
    0.0666   -6.6084    4.4979 C   0  0  0  0  0  0  0  0  0  0  0  0
    0.3843   -7.3122    5.7259 C   0  0  0  0  0  0  0  0  0  0  0  0
    0.3827   -6.9585    7.1037 C   0  0  0  0  0  0  0  0  0  0  0  0
   -0.0509   -5.7036    7.5709 N   0  0  0  0  0  0  0  0  0  0  0  0
    0.7747   -4.8910    8.4525 C   0  0  0  0  0  0  0  0  0  0  0  0
    1.0562   -3.5260    7.7861 C   0  0  0  0  0  0  0  0  0  0  0  0
   -0.1773   -2.9106    7.4141 O   0  0  0  0  0  0  0  0  0  0  0  0
   -0.8669   -3.6759    6.4339 C   0  0  0  0  0  0  0  0  0  0  0  0
   -1.2359   -5.0535    7.0313 C   0  0  0  0  0  0  0  0  0  0  0  0
    0.7558   -7.8631    8.0318 N   0  0  0  0  0  0  0  0  0  0  0  0
    1.1117   -9.0901    7.6249 C   0  0  0  0  0  0  0  0  0  0  0  0
    1.1642   -9.5669    6.3833 N   0  0  0  0  0  0  0  0  0  0  0  0
    0.7936   -8.6505    5.4524 C   0  0  0  0  0  0  0  0  0  0  0  0
    0.7564   -9.0134    3.7348 S   0  0  0  0  0  0  0  0  0  0  0  0
   -0.2865   -5.8969    1.9761 H   0  0  0  0  0  0  0  0  0  0  0  0
   -0.7712   -7.5405    1.5179 H   0  0  0  0  0  0  0  0  0  0  0  0
    0.9198   -7.0216    1.4087 H   0  0  0  0  0  0  0  0  0  0  0  0
   -0.2494   -5.5801    4.4542 H   0  0  0  0  0  0  0  0  0  0  0  0
    0.2516   -4.7270    9.3971 H   0  0  0  0  0  0  0  0  0  0  0  0
    1.7072   -5.3978    8.6955 H   0  0  0  0  0  0  0  0  0  0  0  0
    1.5767   -2.8593    8.4707 H   0  0  0  0  0  0  0  0  0  0  0  0
    1.7040   -3.6425    6.9164 H   0  0  0  0  0  0  0  0  0  0  0  0
   -1.7710   -3.1540    6.1204 H   0  0  0  0  0  0  0  0  0  0  0  0
   -0.2351   -3.7493    5.5491 H   0  0  0  0  0  0  0  0  0  0  0  0
   -1.7208   -5.6940    6.2974 H   0  0  0  0  0  0  0  0  0  0  0  0
   -1.9600   -4.9253    7.8415 H   0  0  0  0  0  0  0  0  0  0  0  0
    1.3684   -9.7861    8.4093 H   0  0  0  0  0  0  0  0  0  0  0  0
  1  2  1  0
  1 17  1  0
  1 18  1  0
  1 19  1  0
  2 16  1  0
  2  3  2  0
  3  4  1  0
  3 20  1  0
  4 15  2  0
  4  5  1  0
  5  6  1  0
  5 12  2  0
  6 11  1  0
  6  7  1  0
  7  8  1  0
  7 21  1  0
  7 22  1  0
  8  9  1  0
  8 23  1  0
  8 24  1  0
  9 10  1  0
 10 11  1  0
 10 25  1  0
 10 26  1  0
 11 27  1  0
 11 28  1  0
 12 13  1  0
 13 14  2  0
 13 29  1  0
 14 15  1  0
 15 16  1  0
M  END
>  <i_m_ct_stereo_status>  (500) 
1

>  <s_m_source_file>  (500) 
/var/tmp/pbs.5102103.sched01/tmp7htwmlud/1762k52hbh7.sdf

>  <i_m_source_file_index>  (500) 
15

>  <i_lp_mmshare_version>  (500) 
48012

>  <i_f3d_flags>  (500) 
0

>  <s_epik_input>  (500) 
W0NIM11jKFtjSF0xKXNjKGMxMiluW2NIXW5jMk4zW0NIMl1bQ0gyXU9bQ0gyXVtDSDJdMw==

>  <s_epik_cmdline>  (500) 
J2VwaWtfcHl0aG9uJywgJy1waHQnLCAnMi4wJywgJy1waCcsICc3LjAnLCAnLXRuJywgJzgnLCAnLW1hJywgJzIwMCcsICctaW1hZScsICc8aW5maWxlLm1hZT4nLCAnLW9tYWUnLCAnPG91dGZpbGUubWFlPic=

>  <r_lp_tautomer_probability>  (500) 
1

>  <r_epik_Ionization_Penalty>  (500) 
9.27792e-06

>  <r_epik_Ionization_Penalty_Charging>  (500) 
0

>  <r_epik_Ionization_Penalty_Neutral>  (500) 
9.27792e-06

>  <r_epik_State_Penalty>  (500) 
-0

>  <r_epik_Charging_Adjusted_Penalty>  (500) 
0

>  <i_epik_Tot_Q>  (500) 
0

>  <i_epik_Tot_abs_Q>  (500) 
0

>  <s_lp_Force_Field>  (500) 
OPLS3e

>  <r_lp_Energy>  (500) 
39.2384

>  <b_lp_Chiralities_Consistent>  (500) 
1

>  <s_lp_Variant>  (500) 
119:0-1

>  <s_i_glide_gridfile>  (500) 
pfpi4k_grid

>  <i_i_glide_lignum>  (500) 
15

>  <i_i_glide_rotatable_bonds>  (500) 
1

>  <r_i_docking_score>  (500) 
-2.44621

>  <r_i_glide_ligand_efficiency>  (500) 
-0.152888

>  <r_i_glide_ligand_efficiency_sa>  (500) 
-0.385254

>  <r_i_glide_ligand_efficiency_ln>  (500) 
-0.648417

>  <r_i_glide_gscore>  (500) 
-2.44621

>  <r_i_glide_lipo>  (500) 
-0.0523473

>  <r_i_glide_hbond>  (500) 
0

>  <r_i_glide_metal>  (500) 
-0

>  <r_i_glide_rewards>  (500) 
-1.80634

>  <r_i_glide_evdw>  (500) 
-15.4719

>  <r_i_glide_ecoul>  (500) 
-0.345792

>  <r_i_glide_erotb>  (500) 
0.310521

>  <r_i_glide_esite>  (500) 
-0.0725827

>  <r_i_glide_emodel>  (500) 
-18.0395

>  <r_i_glide_energy>  (500) 
-15.8176

>  <r_i_glide_einternal>  (500) 
1.05906

>  <r_i_glide_intrahb_reward>  (500) 
-0

>  <i_i_glide_confnum>  (500) 
3

>  <i_i_glide_posenum>  (500) 
15

>  <r_i_glide_eff_state_penalty>  (500) 
0

>  <ligand_id>  (500) 
119

>  <original_smiles>  (500) 
Cc1cc2c(N3CCOCC3)ncnc2s1

>  <smiles>  (500) 
[H]c1nc(N2C([H])([H])C([H])([H])OC([H])([H])C2([H])[H])c2c([H])c(C([H])([H])[H])sc2n1

$$$$
120:0:0
     RDKit          3D

 70 75  0  0  1  0  0  0  0  0999 V2000
    0.1839   -6.1715    4.2257 C   0  0  0  0  0  0  0  0  0  0  0  0
    1.5137   -5.8937    4.9511 C   0  0  0  0  0  0  0  0  0  0  0  0
    2.2104   -4.5641    4.5794 C   0  0  2  0  0  0  0  0  0  0  0  0
    3.5743   -4.4814    5.3037 C   0  0  0  0  0  0  0  0  0  0  0  0
    1.3225   -3.3277    4.8861 C   0  0  0  0  0  0  0  0  0  0  0  0
    0.8086   -3.2977    6.0021 O   0  0  0  0  0  0  0  0  0  0  0  0
    1.0689   -2.3706    3.9670 N   0  0  0  0  0  0  0  0  0  0  0  0
    1.6583   -2.2946    2.6022 C   0  0  0  0  0  0  0  0  0  0  0  0
    3.0449   -1.6367    2.5996 C   0  0  1  0  0  0  0  0  0  0  0  0
    3.2085   -0.4198    3.5210 C   0  0  0  0  0  0  0  0  0  0  0  0
    1.9546    0.4879    3.6354 C   0  0  0  0  0  0  0  0  0  0  0  0
    0.8793    0.0654    4.6775 C   0  0  1  0  0  0  0  0  0  0  0  0
    1.5233   -0.1737    5.9158 O   0  0  0  0  0  0  0  0  0  0  0  0
   -0.1636    1.2003    4.8545 C   0  0  0  0  0  0  0  0  0  0  0  0
   -0.7767    1.8001    3.7521 C   0  0  0  0  0  0  0  0  0  0  0  0
   -1.6775    2.8604    3.8776 C   0  0  0  0  0  0  0  0  0  0  0  0
   -2.0012    3.3401    5.1673 C   0  0  0  0  0  0  0  0  0  0  0  0
   -1.4135    2.7631    6.2845 C   0  0  0  0  0  0  0  0  0  0  0  0
   -0.5064    1.6986    6.1481 C   0  0  0  0  0  0  0  0  0  0  0  0
    0.1553   -1.2477    4.2897 C   0  0  0  0  0  0  0  0  0  0  0  0
    4.0119   -2.5614    3.1016 O   0  0  0  0  0  0  0  0  0  0  0  0
    5.2187   -2.2571    2.3307 O   0  0  0  0  0  0  0  0  0  0  0  0
    4.6936   -2.0065    1.0597 C   0  0  2  0  0  0  0  0  0  0  0  0
    3.4328   -1.2852    1.2638 O   0  0  0  0  0  0  0  0  0  0  0  0
    4.4109   -3.3688    0.3791 C   0  0  2  0  0  0  0  0  0  0  0  0
    5.7312   -4.1843    0.2419 C   0  0  0  0  0  0  0  0  0  0  0  0
    6.7325   -3.3724   -0.6125 C   0  0  1  0  0  0  0  0  0  0  0  0
    6.1332   -3.1507   -2.0176 C   0  0  0  0  0  0  0  0  0  0  0  0
    4.8354   -2.3451   -1.8864 C   0  0  1  0  0  0  0  0  0  0  0  0
    3.8212   -3.1522   -1.0320 C   0  0  0  0  0  0  0  0  0  0  0  0
    5.1129   -0.9855   -1.2077 C   0  0  0  0  0  0  0  0  0  0  0  0
    5.6866   -1.2151    0.2057 C   0  0  2  0  0  0  0  0  0  0  0  0
    7.0150   -2.0227    0.0881 C   0  0  0  0  0  0  0  0  0  0  0  0
   -0.2069   -7.1573    4.4933 H   0  0  0  0  0  0  0  0  0  0  0  0
    0.3113   -6.1586    3.1397 H   0  0  0  0  0  0  0  0  0  0  0  0
   -0.5817   -5.4390    4.4834 H   0  0  0  0  0  0  0  0  0  0  0  0
    1.3561   -5.9789    6.0296 H   0  0  0  0  0  0  0  0  0  0  0  0
    2.1902   -6.7042    4.6882 H   0  0  0  0  0  0  0  0  0  0  0  0
    2.3692   -4.6334    3.5048 H   0  0  0  0  0  0  0  0  0  0  0  0
    4.0986   -3.5394    5.1469 H   0  0  0  0  0  0  0  0  0  0  0  0
    4.2148   -5.2652    4.9103 H   0  0  0  0  0  0  0  0  0  0  0  0
    3.4933   -4.6399    6.3840 H   0  0  0  0  0  0  0  0  0  0  0  0
    1.6840   -3.2659    2.1112 H   0  0  0  0  0  0  0  0  0  0  0  0
    1.0052   -1.6742    1.9924 H   0  0  0  0  0  0  0  0  0  0  0  0
    3.4645   -0.7932    4.5109 H   0  0  0  0  0  0  0  0  0  0  0  0
    4.0611    0.1943    3.2578 H   0  0  0  0  0  0  0  0  0  0  0  0
    2.2944    1.4807    3.9028 H   0  0  0  0  0  0  0  0  0  0  0  0
    1.5064    0.5727    2.6414 H   0  0  0  0  0  0  0  0  0  0  0  0
    2.0000    0.6003    6.1858 H   0  0  0  0  0  0  0  0  0  0  0  0
   -0.5505    1.4594    2.7454 H   0  0  0  0  0  0  0  0  0  0  0  0
   -2.1158    3.3152    3.0037 H   0  0  0  0  0  0  0  0  0  0  0  0
   -2.6966    4.1585    5.2727 H   0  0  0  0  0  0  0  0  0  0  0  0
   -1.6484    3.1431    7.2789 H   0  0  0  0  0  0  0  0  0  0  0  0
   -0.0761    1.2866    7.0385 H   0  0  0  0  0  0  0  0  0  0  0  0
   -0.4508   -1.0453    3.4168 H   0  0  0  0  0  0  0  0  0  0  0  0
   -0.5775   -1.5234    5.0514 H   0  0  0  0  0  0  0  0  0  0  0  0
    3.7126   -3.9691    0.9558 H   0  0  0  0  0  0  0  0  0  0  0  0
    6.1594   -4.3866    1.2240 H   0  0  0  0  0  0  0  0  0  0  0  0
    5.5418   -5.1568   -0.2236 H   0  0  0  0  0  0  0  0  0  0  0  0
    7.6643   -3.9252   -0.6945 H   0  0  0  0  0  0  0  0  0  0  0  0
    6.8590   -2.6448   -2.6554 H   0  0  0  0  0  0  0  0  0  0  0  0
    5.9283   -4.1082   -2.4969 H   0  0  0  0  0  0  0  0  0  0  0  0
    4.4170   -2.1814   -2.8793 H   0  0  0  0  0  0  0  0  0  0  0  0
    3.5949   -4.1096   -1.5081 H   0  0  0  0  0  0  0  0  0  0  0  0
    2.8733   -2.6123   -0.9657 H   0  0  0  0  0  0  0  0  0  0  0  0
    5.8036   -0.4084   -1.8337 H   0  0  0  0  0  0  0  0  0  0  0  0
    4.1948   -0.3990   -1.1560 H   0  0  0  0  0  0  0  0  0  0  0  0
    5.8927   -0.2507    0.6663 H   0  0  0  0  0  0  0  0  0  0  0  0
    7.4241   -2.2078    1.0794 H   0  0  0  0  0  0  0  0  0  0  0  0
    7.7753   -1.4667   -0.4653 H   0  0  0  0  0  0  0  0  0  0  0  0
  1  2  1  0
  1 34  1  0
  1 35  1  0
  1 36  1  0
  2  3  1  0
  2 37  1  0
  2 38  1  0
  3  4  1  0
  3  5  1  0
  3 39  1  6
  4 40  1  0
  4 41  1  0
  4 42  1  0
  5  6  2  0
  5  7  1  0
  7 20  1  0
  7  8  1  0
  8  9  1  0
  8 43  1  0
  8 44  1  0
  9 24  1  6
  9 10  1  0
  9 21  1  0
 10 11  1  0
 10 45  1  0
 10 46  1  0
 11 12  1  0
 11 47  1  0
 11 48  1  0
 12 13  1  1
 12 14  1  0
 12 20  1  0
 13 49  1  0
 14 19  1  0
 14 15  2  0
 15 16  1  0
 15 50  1  0
 16 17  2  0
 16 51  1  0
 17 18  1  0
 17 52  1  0
 18 19  2  0
 18 53  1  0
 19 54  1  0
 20 55  1  0
 20 56  1  0
 21 22  1  0
 23 22  1  1
 23 32  1  0
 23 24  1  0
 23 25  1  0
 25 30  1  0
 25 26  1  0
 25 57  1  1
 26 27  1  0
 26 58  1  0
 26 59  1  0
 27 33  1  0
 27 28  1  0
 27 60  1  6
 28 29  1  0
 28 61  1  0
 28 62  1  0
 29 30  1  0
 29 31  1  0
 29 63  1  6
 30 64  1  0
 30 65  1  0
 31 32  1  0
 31 66  1  0
 31 67  1  0
 32 33  1  0
 32 68  1  1
 33 69  1  0
 33 70  1  0
M  END
>  <i_m_ct_stereo_status>  (501) 
1

>  <s_m_source_file>  (501) 
/var/tmp/pbs.5102103.sched01/tmp7htwmlud/1762k52hbh7.sdf

>  <i_m_source_file_index>  (501) 
16

>  <i_lp_mmshare_version>  (501) 
48012

>  <i_f3d_flags>  (501) 
0

>  <s_epik_input>  (501) 
W2NIXTFbY0hdW2NIXVtjSF1bY0hdYzFbQ0BdKFtPSF0pKFtDSDJdW0NIMl0yKVtDSDJdTihDKD1PKVtDQEBIXShbQ0gzXSlbQ0gyXVtDSDNdKVtDSDJdW0NAXTIzT09bQ0BdNChPMylbQ0BIXTVbQ0gyXVtDQEBIXTZbQ0gyXVtDQEhdKFtDSDJdNSlbQ0gyXVtDQEhdNFtDSDJdNg==

>  <s_epik_cmdline>  (501) 
J2VwaWtfcHl0aG9uJywgJy1waHQnLCAnMi4wJywgJy1waCcsICc3LjAnLCAnLXRuJywgJzgnLCAnLW1hJywgJzIwMCcsICctaW1hZScsICc8aW5maWxlLm1hZT4nLCAnLW9tYWUnLCAnPG91dGZpbGUubWFlPic=

>  <r_lp_tautomer_probability>  (501) 
1

>  <r_epik_Ionization_Penalty>  (501) 
9.06254e-08

>  <r_epik_Ionization_Penalty_Charging>  (501) 
0

>  <r_epik_Ionization_Penalty_Neutral>  (501) 
9.06254e-08

>  <r_epik_State_Penalty>  (501) 
-0

>  <r_epik_Charging_Adjusted_Penalty>  (501) 
0

>  <i_epik_Tot_Q>  (501) 
0

>  <i_epik_Tot_abs_Q>  (501) 
0

>  <s_lp_Force_Field>  (501) 
OPLS3e

>  <r_lp_Energy>  (501) 
22.9748

>  <b_lp_Chiralities_Consistent>  (501) 
1

>  <s_lp_Variant>  (501) 
120:0-1

>  <s_i_glide_gridfile>  (501) 
pfpi4k_grid

>  <i_i_glide_lignum>  (501) 
16

>  <i_i_glide_rotatable_bonds>  (501) 
5

>  <r_i_docking_score>  (501) 
-2.1708

>  <r_i_glide_ligand_efficiency>  (501) 
-0.065782

>  <r_i_glide_ligand_efficiency_sa>  (501) 
-0.210998

>  <r_i_glide_ligand_efficiency_ln>  (501) 
-0.482776

>  <r_i_glide_gscore>  (501) 
-2.1708

>  <r_i_glide_lipo>  (501) 
-0.486729

>  <r_i_glide_hbond>  (501) 
0

>  <r_i_glide_metal>  (501) 
-0

>  <r_i_glide_rewards>  (501) 
-0.38757

>  <r_i_glide_evdw>  (501) 
-26.5821

>  <r_i_glide_ecoul>  (501) 
-1.69752

>  <r_i_glide_erotb>  (501) 
0.290379

>  <r_i_glide_esite>  (501) 
-0.00315021

>  <r_i_glide_emodel>  (501) 
-30.701

>  <r_i_glide_energy>  (501) 
-28.2796

>  <r_i_glide_einternal>  (501) 
1.39305

>  <r_i_glide_intrahb_reward>  (501) 
-0

>  <i_i_glide_confnum>  (501) 
4

>  <i_i_glide_posenum>  (501) 
31

>  <r_i_glide_eff_state_penalty>  (501) 
0

>  <ligand_id>  (501) 
120

>  <original_smiles>  (501) 
CCC(C)C(=O)N1CC2(CCC(O)(c3ccccc3)C1)OOC1(O2)C2CC3CC(C2)CC1C3

>  <smiles>  (501) 
[H]OC1(c2c([H])c([H])c([H])c([H])c2[H])C([H])([H])N(C(=O)C([H])(C([H])([H])[H])C([H])([H])C([H])([H])[H])C([H])([H])C2(OOC3(O2)C2([H])C([H])([H])C4([H])C([H])([H])C([H])(C2([H])[H])C([H])([H])C3([H])C4([H])[H])C([H])([H])C1([H])[H]

$$$$
120:0:1
     RDKit          3D

 70 75  0  0  1  0  0  0  0  0999 V2000
    0.3389   -6.4819    7.3448 C   0  0  0  0  0  0  0  0  0  0  0  0
    0.7035   -6.2052    5.8766 C   0  0  0  0  0  0  0  0  0  0  0  0
    1.5117   -4.9181    5.5672 C   0  0  2  0  0  0  0  0  0  0  0  0
    2.8965   -4.9231    6.2597 C   0  0  0  0  0  0  0  0  0  0  0  0
    0.7197   -3.6017    5.8658 C   0  0  0  0  0  0  0  0  0  0  0  0
    0.3450   -3.3899    7.0332 O   0  0  0  0  0  0  0  0  0  0  0  0
    0.4197   -2.7141    4.8838 N   0  0  0  0  0  0  0  0  0  0  0  0
    0.9371   -2.7456    3.5053 C   0  0  0  0  0  0  0  0  0  0  0  0
    2.3351   -2.0739    3.4236 C   0  0  1  0  0  0  0  0  0  0  0  0
    2.5187   -0.7898    4.2637 C   0  0  0  0  0  0  0  0  0  0  0  0
    1.2673    0.0928    4.3581 C   0  0  0  0  0  0  0  0  0  0  0  0
    0.2372   -0.2541    5.4848 C   0  0  1  0  0  0  0  0  0  0  0  0
    0.9774   -0.4210    6.6947 O   0  0  0  0  0  0  0  0  0  0  0  0
   -0.8089    0.8762    5.6852 C   0  0  0  0  0  0  0  0  0  0  0  0
   -1.3316    1.1475    6.9803 C   0  0  0  0  0  0  0  0  0  0  0  0
   -2.2406    2.1990    7.2002 C   0  0  0  0  0  0  0  0  0  0  0  0
   -2.6539    2.9938    6.1223 C   0  0  0  0  0  0  0  0  0  0  0  0
   -2.1617    2.7434    4.8212 C   0  0  0  0  0  0  0  0  0  0  0  0
   -1.2539    1.6860    4.6067 C   0  0  0  0  0  0  0  0  0  0  0  0
   -0.4924   -1.5884    5.1856 C   0  0  0  0  0  0  0  0  0  0  0  0
    3.3222   -2.9606    3.9447 O   0  0  0  0  0  0  0  0  0  0  0  0
    4.4834   -2.7129    3.0938 O   0  0  0  0  0  0  0  0  0  0  0  0
    3.9033   -2.5426    1.8206 C   0  0  2  0  0  0  0  0  0  0  0  0
    2.6630   -1.8142    2.0348 O   0  0  0  0  0  0  0  0  0  0  0  0
    3.5955   -3.9358    1.2199 C   0  0  2  0  0  0  0  0  0  0  0  0
    4.9019   -4.7193    1.0633 C   0  0  0  0  0  0  0  0  0  0  0  0
    5.8569   -3.9515    0.1188 C   0  0  1  0  0  0  0  0  0  0  0  0
    5.2047   -3.8111   -1.2686 C   0  0  0  0  0  0  0  0  0  0  0  0
    3.8972   -3.0108   -1.1125 C   0  0  1  0  0  0  0  0  0  0  0  0
    2.9366   -3.7671   -0.1679 C   0  0  0  0  0  0  0  0  0  0  0  0
    4.1983   -1.6141   -0.5217 C   0  0  0  0  0  0  0  0  0  0  0  0
    4.8561   -1.7534    0.8705 C   0  0  2  0  0  0  0  0  0  0  0  0
    6.1545   -2.5515    0.7165 C   0  0  0  0  0  0  0  0  0  0  0  0
   -0.1695   -7.4423    7.4377 H   0  0  0  0  0  0  0  0  0  0  0  0
   -0.3339   -5.7302    7.7530 H   0  0  0  0  0  0  0  0  0  0  0  0
    1.2373   -6.5114    7.9608 H   0  0  0  0  0  0  0  0  0  0  0  0
    1.2899   -7.0451    5.5087 H   0  0  0  0  0  0  0  0  0  0  0  0
   -0.2033   -6.1941    5.2719 H   0  0  0  0  0  0  0  0  0  0  0  0
    1.7066   -5.0091    4.5018 H   0  0  0  0  0  0  0  0  0  0  0  0
    3.4817   -4.0398    6.0180 H   0  0  0  0  0  0  0  0  0  0  0  0
    3.4548   -5.7707    5.8738 H   0  0  0  0  0  0  0  0  0  0  0  0
    2.8593   -4.9704    7.3518 H   0  0  0  0  0  0  0  0  0  0  0  0
    0.9235   -3.7336    3.0452 H   0  0  0  0  0  0  0  0  0  0  0  0
    0.2583   -2.1320    2.9153 H   0  0  0  0  0  0  0  0  0  0  0  0
    2.8398   -1.0923    5.2463 H   0  0  0  0  0  0  0  0  0  0  0  0
    3.3628   -0.1974    3.9053 H   0  0  0  0  0  0  0  0  0  0  0  0
    1.6186    1.1000    4.5558 H   0  0  0  0  0  0  0  0  0  0  0  0
    0.7821    0.1305    3.3748 H   0  0  0  0  0  0  0  0  0  0  0  0
    1.6012   -1.1172    6.5799 H   0  0  0  0  0  0  0  0  0  0  0  0
   -1.0144    0.5752    7.8380 H   0  0  0  0  0  0  0  0  0  0  0  0
   -2.5979    2.3867    8.2079 H   0  0  0  0  0  0  0  0  0  0  0  0
   -3.3667    3.7878    6.2940 H   0  0  0  0  0  0  0  0  0  0  0  0
   -2.4795    3.3569    3.9888 H   0  0  0  0  0  0  0  0  0  0  0  0
   -0.8872    1.5239    3.6000 H   0  0  0  0  0  0  0  0  0  0  0  0
   -1.1530   -1.4379    4.3427 H   0  0  0  0  0  0  0  0  0  0  0  0
   -1.1946   -1.8137    5.9967 H   0  0  0  0  0  0  0  0  0  0  0  0
    2.9233   -4.4934    1.8661 H   0  0  0  0  0  0  0  0  0  0  0  0
    5.3944   -4.8708    2.0258 H   0  0  0  0  0  0  0  0  0  0  0  0
    4.7101   -5.7108    0.6591 H   0  0  0  0  0  0  0  0  0  0  0  0
    6.7951   -4.5160    0.0165 H   0  0  0  0  0  0  0  0  0  0  0  0
    5.8790   -3.3108   -1.9639 H   0  0  0  0  0  0  0  0  0  0  0  0
    5.0065   -4.7957   -1.6887 H   0  0  0  0  0  0  0  0  0  0  0  0
    3.4346   -2.9024   -2.0943 H   0  0  0  0  0  0  0  0  0  0  0  0
    2.6924   -4.7496   -0.5845 H   0  0  0  0  0  0  0  0  0  0  0  0
    1.9950   -3.2192   -0.0953 H   0  0  0  0  0  0  0  0  0  0  0  0
    4.8628   -1.0701   -1.1912 H   0  0  0  0  0  0  0  0  0  0  0  0
    3.2741   -1.0364   -0.4648 H   0  0  0  0  0  0  0  0  0  0  0  0
    5.0584   -0.7569    1.2798 H   0  0  0  0  0  0  0  0  0  0  0  0
    6.6488   -2.6873    1.6795 H   0  0  0  0  0  0  0  0  0  0  0  0
    6.8577   -2.0366    0.0735 H   0  0  0  0  0  0  0  0  0  0  0  0
  1  2  1  0
  1 34  1  0
  1 35  1  0
  1 36  1  0
  2  3  1  0
  2 37  1  0
  2 38  1  0
  3  4  1  0
  3  5  1  0
  3 39  1  6
  4 40  1  0
  4 41  1  0
  4 42  1  0
  5  6  2  0
  5  7  1  0
  7 20  1  0
  7  8  1  0
  8  9  1  0
  8 43  1  0
  8 44  1  0
  9 24  1  6
  9 10  1  0
  9 21  1  0
 10 11  1  0
 10 45  1  0
 10 46  1  0
 11 12  1  0
 11 47  1  0
 11 48  1  0
 12 13  1  1
 12 14  1  0
 12 20  1  0
 13 49  1  0
 14 19  1  0
 14 15  2  0
 15 16  1  0
 15 50  1  0
 16 17  2  0
 16 51  1  0
 17 18  1  0
 17 52  1  0
 18 19  2  0
 18 53  1  0
 19 54  1  0
 20 55  1  0
 20 56  1  0
 21 22  1  0
 23 22  1  1
 23 32  1  0
 23 24  1  0
 23 25  1  0
 25 30  1  0
 25 26  1  0
 25 57  1  1
 26 27  1  0
 26 58  1  0
 26 59  1  0
 27 33  1  0
 27 28  1  0
 27 60  1  6
 28 29  1  0
 28 61  1  0
 28 62  1  0
 29 30  1  0
 29 31  1  0
 29 63  1  6
 30 64  1  0
 30 65  1  0
 31 32  1  0
 31 66  1  0
 31 67  1  0
 32 33  1  0
 32 68  1  1
 33 69  1  0
 33 70  1  0
M  END
>  <i_m_ct_stereo_status>  (502) 
1

>  <s_m_source_file>  (502) 
/var/tmp/pbs.5102103.sched01/tmp7htwmlud/1762k52hbh7.sdf

>  <i_m_source_file_index>  (502) 
16

>  <i_lp_mmshare_version>  (502) 
48012

>  <i_f3d_flags>  (502) 
0

>  <s_epik_input>  (502) 
W2NIXTFbY0hdW2NIXVtjSF1bY0hdYzFbQ0BdKFtPSF0pKFtDSDJdW0NIMl0yKVtDSDJdTihDKD1PKVtDQEBIXShbQ0gzXSlbQ0gyXVtDSDNdKVtDSDJdW0NAXTIzT09bQ0BdNChPMylbQ0BIXTVbQ0gyXVtDQEBIXTZbQ0gyXVtDQEhdKFtDSDJdNSlbQ0gyXVtDQEhdNFtDSDJdNg==

>  <s_epik_cmdline>  (502) 
J2VwaWtfcHl0aG9uJywgJy1waHQnLCAnMi4wJywgJy1waCcsICc3LjAnLCAnLXRuJywgJzgnLCAnLW1hJywgJzIwMCcsICctaW1hZScsICc8aW5maWxlLm1hZT4nLCAnLW9tYWUnLCAnPG91dGZpbGUubWFlPic=

>  <r_lp_tautomer_probability>  (502) 
1

>  <r_epik_Ionization_Penalty>  (502) 
9.06254e-08

>  <r_epik_Ionization_Penalty_Charging>  (502) 
0

>  <r_epik_Ionization_Penalty_Neutral>  (502) 
9.06254e-08

>  <r_epik_State_Penalty>  (502) 
-0

>  <r_epik_Charging_Adjusted_Penalty>  (502) 
0

>  <i_epik_Tot_Q>  (502) 
0

>  <i_epik_Tot_abs_Q>  (502) 
0

>  <s_lp_Force_Field>  (502) 
OPLS3e

>  <r_lp_Energy>  (502) 
22.9748

>  <b_lp_Chiralities_Consistent>  (502) 
1

>  <s_lp_Variant>  (502) 
120:0-1

>  <s_i_glide_gridfile>  (502) 
pfpi4k_grid

>  <i_i_glide_lignum>  (502) 
16

>  <i_i_glide_rotatable_bonds>  (502) 
5

>  <r_i_docking_score>  (502) 
-2.06484

>  <r_i_glide_ligand_efficiency>  (502) 
-0.0625709

>  <r_i_glide_ligand_efficiency_sa>  (502) 
-0.200698

>  <r_i_glide_ligand_efficiency_ln>  (502) 
-0.45921

>  <r_i_glide_gscore>  (502) 
-2.06484

>  <r_i_glide_lipo>  (502) 
-0.41262

>  <r_i_glide_hbond>  (502) 
0

>  <r_i_glide_metal>  (502) 
-0

>  <r_i_glide_rewards>  (502) 
-0.321107

>  <r_i_glide_evdw>  (502) 
-25.043

>  <r_i_glide_ecoul>  (502) 
-2.43191

>  <r_i_glide_erotb>  (502) 
0.290379

>  <r_i_glide_esite>  (502) 
-0.00455454

>  <r_i_glide_emodel>  (502) 
-29.5116

>  <r_i_glide_energy>  (502) 
-27.4749

>  <r_i_glide_einternal>  (502) 
1.92043

>  <r_i_glide_intrahb_reward>  (502) 
-0

>  <i_i_glide_confnum>  (502) 
4

>  <i_i_glide_posenum>  (502) 
29

>  <r_i_glide_eff_state_penalty>  (502) 
0

>  <ligand_id>  (502) 
120

>  <original_smiles>  (502) 
CCC(C)C(=O)N1CC2(CCC(O)(c3ccccc3)C1)OOC1(O2)C2CC3CC(C2)CC1C3

>  <smiles>  (502) 
[H]OC1(c2c([H])c([H])c([H])c([H])c2[H])C([H])([H])N(C(=O)C([H])(C([H])([H])[H])C([H])([H])C([H])([H])[H])C([H])([H])C2(OOC3(O2)C2([H])C([H])([H])C4([H])C([H])([H])C([H])(C2([H])[H])C([H])([H])C3([H])C4([H])[H])C([H])([H])C1([H])[H]

$$$$
120:0:2
     RDKit          3D

 70 75  0  0  1  0  0  0  0  0999 V2000
    1.6793   -6.5984    4.0454 C   0  0  0  0  0  0  0  0  0  0  0  0
    1.0768   -5.3257    4.6587 C   0  0  0  0  0  0  0  0  0  0  0  0
    2.0086   -4.1002    4.5189 C   0  0  2  0  0  0  0  0  0  0  0  0
    3.2477   -4.1908    5.4353 C   0  0  0  0  0  0  0  0  0  0  0  0
    1.2072   -2.7979    4.7894 C   0  0  0  0  0  0  0  0  0  0  0  0
    0.7224   -2.6572    5.9207 O   0  0  0  0  0  0  0  0  0  0  0  0
    1.0028   -1.8862    3.8060 N   0  0  0  0  0  0  0  0  0  0  0  0
    1.5911   -1.9450    2.4596 C   0  0  0  0  0  0  0  0  0  0  0  0
    3.0281   -1.3361    2.4293 C   0  0  1  0  0  0  0  0  0  0  0  0
    3.1849   -0.0286    3.2479 C   0  0  0  0  0  0  0  0  0  0  0  0
    1.9560    0.8984    3.2540 C   0  0  0  0  0  0  0  0  0  0  0  0
    0.8696    0.5965    4.3347 C   0  0  1  0  0  0  0  0  0  0  0  0
    1.5223    0.4308    5.5813 O   0  0  0  0  0  0  0  0  0  0  0  0
   -0.1344    1.7630    4.4199 C   0  0  0  0  0  0  0  0  0  0  0  0
   -0.7613    2.2511    3.2523 C   0  0  0  0  0  0  0  0  0  0  0  0
   -1.6419    3.3444    3.3000 C   0  0  0  0  0  0  0  0  0  0  0  0
   -1.9073    3.9518    4.5345 C   0  0  0  0  0  0  0  0  0  0  0  0
   -1.3096    3.4943    5.7127 C   0  0  0  0  0  0  0  0  0  0  0  0
   -0.4282    2.3996    5.6589 C   0  0  0  0  0  0  0  0  0  0  0  0
    0.1144   -0.7256    4.0428 C   0  0  0  0  0  0  0  0  0  0  0  0
    3.9503   -2.2186    3.0347 O   0  0  0  0  0  0  0  0  0  0  0  0
    5.1699   -2.0450    2.2303 O   0  0  0  0  0  0  0  0  0  0  0  0
    4.6372   -1.8539    0.9352 C   0  0  2  0  0  0  0  0  0  0  0  0
    3.4333   -1.1060    1.0774 O   0  0  0  0  0  0  0  0  0  0  0  0
    4.3320   -3.2547    0.3277 C   0  0  2  0  0  0  0  0  0  0  0  0
    5.6283   -4.0909    0.2465 C   0  0  0  0  0  0  0  0  0  0  0  0
    6.6447   -3.3677   -0.6587 C   0  0  1  0  0  0  0  0  0  0  0  0
    6.0668   -3.2321   -2.0756 C   0  0  0  0  0  0  0  0  0  0  0  0
    4.7785   -2.3889   -2.0055 C   0  0  1  0  0  0  0  0  0  0  0  0
    3.7520   -3.0984   -1.1008 C   0  0  0  0  0  0  0  0  0  0  0  0
    5.0991   -0.9973   -1.4250 C   0  0  0  0  0  0  0  0  0  0  0  0
    5.6715   -1.1335    0.0112 C   0  0  2  0  0  0  0  0  0  0  0  0
    6.9618   -1.9776   -0.0604 C   0  0  0  0  0  0  0  0  0  0  0  0
    0.9933   -7.4416    4.1376 H   0  0  0  0  0  0  0  0  0  0  0  0
    2.6082   -6.8810    4.5419 H   0  0  0  0  0  0  0  0  0  0  0  0
    1.9015   -6.4642    2.9832 H   0  0  0  0  0  0  0  0  0  0  0  0
    0.1425   -5.1226    4.1351 H   0  0  0  0  0  0  0  0  0  0  0  0
    0.8016   -5.5066    5.7023 H   0  0  0  0  0  0  0  0  0  0  0  0
    2.3804   -4.1162    3.4971 H   0  0  0  0  0  0  0  0  0  0  0  0
    3.8901   -3.3237    5.2950 H   0  0  0  0  0  0  0  0  0  0  0  0
    3.8472   -5.0508    5.1466 H   0  0  0  0  0  0  0  0  0  0  0  0
    3.0196   -4.2712    6.5037 H   0  0  0  0  0  0  0  0  0  0  0  0
    1.5851   -2.9527    2.0468 H   0  0  0  0  0  0  0  0  0  0  0  0
    0.9768   -1.3413    1.7905 H   0  0  0  0  0  0  0  0  0  0  0  0
    3.4394   -0.3055    4.2617 H   0  0  0  0  0  0  0  0  0  0  0  0
    4.0618    0.5374    2.9172 H   0  0  0  0  0  0  0  0  0  0  0  0
    2.3184    1.9106    3.4455 H   0  0  0  0  0  0  0  0  0  0  0  0
    1.5160    0.9354    2.2538 H   0  0  0  0  0  0  0  0  0  0  0  0
    1.9866    1.2267    5.7930 H   0  0  0  0  0  0  0  0  0  0  0  0
   -0.5666    1.8135    2.2849 H   0  0  0  0  0  0  0  0  0  0  0  0
   -2.0964    3.7216    2.3977 H   0  0  0  0  0  0  0  0  0  0  0  0
   -2.5635    4.7909    4.5588 H   0  0  0  0  0  0  0  0  0  0  0  0
   -1.5150    3.9768    6.6623 H   0  0  0  0  0  0  0  0  0  0  0  0
    0.0161    2.0729    6.5811 H   0  0  0  0  0  0  0  0  0  0  0  0
   -0.4828   -0.5672    3.1568 H   0  0  0  0  0  0  0  0  0  0  0  0
   -0.6355   -0.9115    4.8204 H   0  0  0  0  0  0  0  0  0  0  0  0
    3.6090   -3.7868    0.9415 H   0  0  0  0  0  0  0  0  0  0  0  0
    6.0588   -4.2328    1.2425 H   0  0  0  0  0  0  0  0  0  0  0  0
    5.4195   -5.0873   -0.1501 H   0  0  0  0  0  0  0  0  0  0  0  0
    7.5739   -3.9458   -0.7024 H   0  0  0  0  0  0  0  0  0  0  0  0
    6.7990   -2.7728   -2.7360 H   0  0  0  0  0  0  0  0  0  0  0  0
    5.8363   -4.2116   -2.4926 H   0  0  0  0  0  0  0  0  0  0  0  0
    4.3788   -2.2892   -3.0144 H   0  0  0  0  0  0  0  0  0  0  0  0
    3.5035   -4.0833   -1.5115 H   0  0  0  0  0  0  0  0  0  0  0  0
    2.8164   -2.5334   -1.0843 H   0  0  0  0  0  0  0  0  0  0  0  0
    5.8100   -0.4935   -2.0755 H   0  0  0  0  0  0  0  0  0  0  0  0
    4.1982   -0.3801   -1.4293 H   0  0  0  0  0  0  0  0  0  0  0  0
    5.8844   -0.1389    0.4019 H   0  0  0  0  0  0  0  0  0  0  0  0
    7.3919   -2.0997    0.9390 H   0  0  0  0  0  0  0  0  0  0  0  0
    7.7256   -1.5017   -0.6611 H   0  0  0  0  0  0  0  0  0  0  0  0
  1  2  1  0
  1 34  1  0
  1 35  1  0
  1 36  1  0
  2  3  1  0
  2 37  1  0
  2 38  1  0
  3  4  1  0
  3  5  1  0
  3 39  1  6
  4 40  1  0
  4 41  1  0
  4 42  1  0
  5  6  2  0
  5  7  1  0
  7 20  1  0
  7  8  1  0
  8  9  1  0
  8 43  1  0
  8 44  1  0
  9 24  1  6
  9 10  1  0
  9 21  1  0
 10 11  1  0
 10 45  1  0
 10 46  1  0
 11 12  1  0
 11 47  1  0
 11 48  1  0
 12 13  1  1
 12 14  1  0
 12 20  1  0
 13 49  1  0
 14 19  1  0
 14 15  2  0
 15 16  1  0
 15 50  1  0
 16 17  2  0
 16 51  1  0
 17 18  1  0
 17 52  1  0
 18 19  2  0
 18 53  1  0
 19 54  1  0
 20 55  1  0
 20 56  1  0
 21 22  1  0
 23 22  1  1
 23 32  1  0
 23 24  1  0
 23 25  1  0
 25 30  1  0
 25 26  1  0
 25 57  1  1
 26 27  1  0
 26 58  1  0
 26 59  1  0
 27 33  1  0
 27 28  1  0
 27 60  1  6
 28 29  1  0
 28 61  1  0
 28 62  1  0
 29 30  1  0
 29 31  1  0
 29 63  1  6
 30 64  1  0
 30 65  1  0
 31 32  1  0
 31 66  1  0
 31 67  1  0
 32 33  1  0
 32 68  1  1
 33 69  1  0
 33 70  1  0
M  END
>  <i_m_ct_stereo_status>  (503) 
1

>  <s_m_source_file>  (503) 
/var/tmp/pbs.5102103.sched01/tmp7htwmlud/1762k52hbh7.sdf

>  <i_m_source_file_index>  (503) 
16

>  <i_lp_mmshare_version>  (503) 
48012

>  <i_f3d_flags>  (503) 
0

>  <s_epik_input>  (503) 
W2NIXTFbY0hdW2NIXVtjSF1bY0hdYzFbQ0BdKFtPSF0pKFtDSDJdW0NIMl0yKVtDSDJdTihDKD1PKVtDQEBIXShbQ0gzXSlbQ0gyXVtDSDNdKVtDSDJdW0NAXTIzT09bQ0BdNChPMylbQ0BIXTVbQ0gyXVtDQEBIXTZbQ0gyXVtDQEhdKFtDSDJdNSlbQ0gyXVtDQEhdNFtDSDJdNg==

>  <s_epik_cmdline>  (503) 
J2VwaWtfcHl0aG9uJywgJy1waHQnLCAnMi4wJywgJy1waCcsICc3LjAnLCAnLXRuJywgJzgnLCAnLW1hJywgJzIwMCcsICctaW1hZScsICc8aW5maWxlLm1hZT4nLCAnLW9tYWUnLCAnPG91dGZpbGUubWFlPic=

>  <r_lp_tautomer_probability>  (503) 
1

>  <r_epik_Ionization_Penalty>  (503) 
9.06254e-08

>  <r_epik_Ionization_Penalty_Charging>  (503) 
0

>  <r_epik_Ionization_Penalty_Neutral>  (503) 
9.06254e-08

>  <r_epik_State_Penalty>  (503) 
-0

>  <r_epik_Charging_Adjusted_Penalty>  (503) 
0

>  <i_epik_Tot_Q>  (503) 
0

>  <i_epik_Tot_abs_Q>  (503) 
0

>  <s_lp_Force_Field>  (503) 
OPLS3e

>  <r_lp_Energy>  (503) 
22.9748

>  <b_lp_Chiralities_Consistent>  (503) 
1

>  <s_lp_Variant>  (503) 
120:0-1

>  <s_i_glide_gridfile>  (503) 
pfpi4k_grid

>  <i_i_glide_lignum>  (503) 
16

>  <i_i_glide_rotatable_bonds>  (503) 
5

>  <r_i_docking_score>  (503) 
-1.98619

>  <r_i_glide_ligand_efficiency>  (503) 
-0.0601875

>  <r_i_glide_ligand_efficiency_sa>  (503) 
-0.193053

>  <r_i_glide_ligand_efficiency_ln>  (503) 
-0.441717

>  <r_i_glide_gscore>  (503) 
-1.98619

>  <r_i_glide_lipo>  (503) 
-0.445098

>  <r_i_glide_hbond>  (503) 
0

>  <r_i_glide_metal>  (503) 
-0

>  <r_i_glide_rewards>  (503) 
-0.348816

>  <r_i_glide_evdw>  (503) 
-25.6121

>  <r_i_glide_ecoul>  (503) 
-1.31091

>  <r_i_glide_erotb>  (503) 
0.290379

>  <r_i_glide_esite>  (503) 
-0.00541144

>  <r_i_glide_emodel>  (503) 
-28.2973

>  <r_i_glide_energy>  (503) 
-26.923

>  <r_i_glide_einternal>  (503) 
3.40163

>  <r_i_glide_intrahb_reward>  (503) 
-0

>  <i_i_glide_confnum>  (503) 
2

>  <i_i_glide_posenum>  (503) 
11

>  <r_i_glide_eff_state_penalty>  (503) 
0

>  <ligand_id>  (503) 
120

>  <original_smiles>  (503) 
CCC(C)C(=O)N1CC2(CCC(O)(c3ccccc3)C1)OOC1(O2)C2CC3CC(C2)CC1C3

>  <smiles>  (503) 
[H]OC1(c2c([H])c([H])c([H])c([H])c2[H])C([H])([H])N(C(=O)C([H])(C([H])([H])[H])C([H])([H])C([H])([H])[H])C([H])([H])C2(OOC3(O2)C2([H])C([H])([H])C4([H])C([H])([H])C([H])(C2([H])[H])C([H])([H])C3([H])C4([H])[H])C([H])([H])C1([H])[H]

$$$$
121:0:0
     RDKit          3D

 28 30  0  0  1  0  0  0  0  0999 V2000
    6.3044   -3.1850   -0.1784 O   0  0  0  0  0  0  0  0  0  0  0  0
    5.1653   -3.4120   -0.5979 C   0  0  0  0  0  0  0  0  0  0  0  0
    4.5895   -2.5873   -1.7029 C   0  0  0  0  0  0  0  0  0  0  0  0
    4.0015   -3.1898   -2.8349 C   0  0  0  0  0  0  0  0  0  0  0  0
    3.5177   -2.4169   -3.9050 C   0  0  0  0  0  0  0  0  0  0  0  0
    3.6284   -1.0187   -3.8681 C   0  0  0  0  0  0  0  0  0  0  0  0
    4.2161   -0.4065   -2.7460 C   0  0  0  0  0  0  0  0  0  0  0  0
    4.6917   -1.1785   -1.6634 C   0  0  0  0  0  0  0  0  0  0  0  0
    4.3277   -4.5156   -0.0280 C   0  0  0  0  0  0  0  0  0  0  0  0
    2.9654   -4.3228    0.2918 C   0  0  0  0  0  0  0  0  0  0  0  0
    2.2296   -5.2933    0.8841 N   0  0  0  0  0  0  0  0  0  0  0  0
    2.8363   -6.4710    1.1740 C   0  0  0  0  0  0  0  0  0  0  0  0
    2.1137   -7.5212    1.7892 C   0  0  0  0  0  0  0  0  0  0  0  0
    2.7119   -8.7669    2.0615 C   0  0  0  0  0  0  0  0  0  0  0  0
    4.0627   -8.9749    1.7242 C   0  0  0  0  0  0  0  0  0  0  0  0
    4.7979   -7.9297    1.1298 C   0  0  0  0  0  0  0  0  0  0  0  0
    4.2087   -6.6778    0.8423 C   0  0  0  0  0  0  0  0  0  0  0  0
    4.9340   -5.6953    0.2551 N   0  0  0  0  0  0  0  0  0  0  0  0
    3.9451   -4.2560   -2.9075 H   0  0  0  0  0  0  0  0  0  0  0  0
    3.0718   -2.9095   -4.7535 H   0  0  0  0  0  0  0  0  0  0  0  0
    3.2684   -0.4127   -4.6908 H   0  0  0  0  0  0  0  0  0  0  0  0
    4.2843    0.6673   -2.7171 H   0  0  0  0  0  0  0  0  0  0  0  0
    5.1401   -0.7018   -0.8042 H   0  0  0  0  0  0  0  0  0  0  0  0
    2.4640   -3.3779    0.1270 H   0  0  0  0  0  0  0  0  0  0  0  0
    1.0782   -7.3836    2.0393 H   0  0  0  0  0  0  0  0  0  0  0  0
    2.1394   -9.5670    2.5151 H   0  0  0  0  0  0  0  0  0  0  0  0
    4.5276   -9.9364    1.9172 H   0  0  0  0  0  0  0  0  0  0  0  0
    5.8316   -8.0962    0.8820 H   0  0  0  0  0  0  0  0  0  0  0  0
  1  2  2  0
  2  3  1  0
  2  9  1  0
  3  8  1  0
  3  4  2  0
  4  5  1  0
  4 19  1  0
  5  6  2  0
  5 20  1  0
  6  7  1  0
  6 21  1  0
  7  8  2  0
  7 22  1  0
  8 23  1  0
  9 18  1  0
  9 10  2  0
 10 11  1  0
 10 24  1  0
 11 12  2  0
 12 17  1  0
 12 13  1  0
 13 14  2  0
 13 25  1  0
 14 15  1  0
 14 26  1  0
 15 16  2  0
 15 27  1  0
 16 17  1  0
 16 28  1  0
 17 18  2  0
M  END
>  <i_m_ct_stereo_status>  (504) 
1

>  <s_m_source_file>  (504) 
/var/tmp/pbs.5102103.sched01/tmp7htwmlud/1762k52hbh7.sdf

>  <i_m_source_file_index>  (504) 
17

>  <i_lp_mmshare_version>  (504) 
48012

>  <i_f3d_flags>  (504) 
0

>  <s_epik_input>  (504) 
W2NIXTFbY0hdW2NIXVtjSF1bY0hdYzFDKD1PKWMoW2NIXW4yKW5jKGMyMylbY0hdW2NIXVtjSF1bY0hdMw==

>  <s_epik_cmdline>  (504) 
J2VwaWtfcHl0aG9uJywgJy1waHQnLCAnMi4wJywgJy1waCcsICc3LjAnLCAnLXRuJywgJzgnLCAnLW1hJywgJzIwMCcsICctaW1hZScsICc8aW5maWxlLm1hZT4nLCAnLW9tYWUnLCAnPG91dGZpbGUubWFlPic=

>  <r_lp_tautomer_probability>  (504) 
1

>  <r_epik_Ionization_Penalty>  (504) 
2.1524e-10

>  <r_epik_Ionization_Penalty_Charging>  (504) 
0

>  <r_epik_Ionization_Penalty_Neutral>  (504) 
2.1524e-10

>  <r_epik_State_Penalty>  (504) 
-0

>  <r_epik_Charging_Adjusted_Penalty>  (504) 
0

>  <i_epik_Tot_Q>  (504) 
0

>  <i_epik_Tot_abs_Q>  (504) 
0

>  <s_lp_Force_Field>  (504) 
OPLS3e

>  <r_lp_Energy>  (504) 
35.7406

>  <b_lp_Chiralities_Consistent>  (504) 
1

>  <s_lp_Variant>  (504) 
121:0-1

>  <s_i_glide_gridfile>  (504) 
pfpi4k_grid

>  <i_i_glide_lignum>  (504) 
17

>  <i_i_glide_rotatable_bonds>  (504) 
2

>  <r_i_docking_score>  (504) 
-3.6329

>  <r_i_glide_ligand_efficiency>  (504) 
-0.201828

>  <r_i_glide_ligand_efficiency_sa>  (504) 
-0.528939

>  <r_i_glide_ligand_efficiency_ln>  (504) 
-0.933819

>  <r_i_glide_gscore>  (504) 
-3.6329

>  <r_i_glide_lipo>  (504) 
-0.600025

>  <r_i_glide_hbond>  (504) 
-0.0101095

>  <r_i_glide_metal>  (504) 
-0

>  <r_i_glide_rewards>  (504) 
-1.88432

>  <r_i_glide_evdw>  (504) 
-26.2928

>  <r_i_glide_ecoul>  (504) 
-2.99739

>  <r_i_glide_erotb>  (504) 
0.625801

>  <r_i_glide_esite>  (504) 
0

>  <r_i_glide_emodel>  (504) 
-33.5009

>  <r_i_glide_energy>  (504) 
-29.2902

>  <r_i_glide_einternal>  (504) 
5.01962

>  <r_i_glide_intrahb_reward>  (504) 
-0

>  <i_i_glide_confnum>  (504) 
5

>  <i_i_glide_posenum>  (504) 
14

>  <r_i_glide_eff_state_penalty>  (504) 
0

>  <ligand_id>  (504) 
121

>  <original_smiles>  (504) 
O=C(c1ccccc1)c1cnc2ccccc2n1

>  <smiles>  (504) 
[H]c1nc2c([H])c([H])c([H])c([H])c2nc1C(=O)c1c([H])c([H])c([H])c([H])c1[H]

$$$$
121:0:1
     RDKit          3D

 28 30  0  0  1  0  0  0  0  0999 V2000
    5.5322   -6.2363    0.5290 O   0  0  0  0  0  0  0  0  0  0  0  0
    4.4927   -5.5817    0.5122 C   0  0  0  0  0  0  0  0  0  0  0  0
    4.5526   -4.1158    0.2156 C   0  0  0  0  0  0  0  0  0  0  0  0
    5.4887   -3.3064    0.9047 C   0  0  0  0  0  0  0  0  0  0  0  0
    5.5622   -1.9160    0.6642 C   0  0  0  0  0  0  0  0  0  0  0  0
    4.6850   -1.3152   -0.2606 C   0  0  0  0  0  0  0  0  0  0  0  0
    3.7663   -2.1142   -0.9644 C   0  0  0  0  0  0  0  0  0  0  0  0
    3.7423   -3.5081   -0.7758 C   0  0  0  0  0  0  0  0  0  0  0  0
    3.1814   -6.2076    0.9297 C   0  0  0  0  0  0  0  0  0  0  0  0
    1.9205   -5.7071    0.5097 C   0  0  0  0  0  0  0  0  0  0  0  0
    0.7611   -6.2785    0.8883 N   0  0  0  0  0  0  0  0  0  0  0  0
    0.8088   -7.3562    1.6915 C   0  0  0  0  0  0  0  0  0  0  0  0
   -0.3927   -7.9520    2.0985 C   0  0  0  0  0  0  0  0  0  0  0  0
   -0.3957   -9.0610    2.9623 C   0  0  0  0  0  0  0  0  0  0  0  0
    0.8337   -9.5734    3.4215 C   0  0  0  0  0  0  0  0  0  0  0  0
    2.0513   -8.9844    3.0145 C   0  0  0  0  0  0  0  0  0  0  0  0
    2.0620   -7.8784    2.1450 C   0  0  0  0  0  0  0  0  0  0  0  0
    3.2253   -7.2981    1.7395 N   0  0  0  0  0  0  0  0  0  0  0  0
    6.1634   -3.7581    1.6198 H   0  0  0  0  0  0  0  0  0  0  0  0
    6.2928   -1.3158    1.1830 H   0  0  0  0  0  0  0  0  0  0  0  0
    4.7180   -0.2528   -0.4390 H   0  0  0  0  0  0  0  0  0  0  0  0
    3.0779   -1.6631   -1.6649 H   0  0  0  0  0  0  0  0  0  0  0  0
    3.0889   -4.0935   -1.4074 H   0  0  0  0  0  0  0  0  0  0  0  0
    1.7735   -4.8642   -0.1273 H   0  0  0  0  0  0  0  0  0  0  0  0
   -1.3259   -7.5583    1.7323 H   0  0  0  0  0  0  0  0  0  0  0  0
   -1.3312   -9.5179    3.2617 H   0  0  0  0  0  0  0  0  0  0  0  0
    0.8354  -10.4307    4.0849 H   0  0  0  0  0  0  0  0  0  0  0  0
    2.9905   -9.3894    3.3774 H   0  0  0  0  0  0  0  0  0  0  0  0
  1  2  2  0
  2  3  1  0
  2  9  1  0
  3  8  1  0
  3  4  2  0
  4  5  1  0
  4 19  1  0
  5  6  2  0
  5 20  1  0
  6  7  1  0
  6 21  1  0
  7  8  2  0
  7 22  1  0
  8 23  1  0
  9 18  1  0
  9 10  2  0
 10 11  1  0
 10 24  1  0
 11 12  2  0
 12 17  1  0
 12 13  1  0
 13 14  2  0
 13 25  1  0
 14 15  1  0
 14 26  1  0
 15 16  2  0
 15 27  1  0
 16 17  1  0
 16 28  1  0
 17 18  2  0
M  END
>  <i_m_ct_stereo_status>  (505) 
1

>  <s_m_source_file>  (505) 
/var/tmp/pbs.5102103.sched01/tmp7htwmlud/1762k52hbh7.sdf

>  <i_m_source_file_index>  (505) 
17

>  <i_lp_mmshare_version>  (505) 
48012

>  <i_f3d_flags>  (505) 
0

>  <s_epik_input>  (505) 
W2NIXTFbY0hdW2NIXVtjSF1bY0hdYzFDKD1PKWMoW2NIXW4yKW5jKGMyMylbY0hdW2NIXVtjSF1bY0hdMw==

>  <s_epik_cmdline>  (505) 
J2VwaWtfcHl0aG9uJywgJy1waHQnLCAnMi4wJywgJy1waCcsICc3LjAnLCAnLXRuJywgJzgnLCAnLW1hJywgJzIwMCcsICctaW1hZScsICc8aW5maWxlLm1hZT4nLCAnLW9tYWUnLCAnPG91dGZpbGUubWFlPic=

>  <r_lp_tautomer_probability>  (505) 
1

>  <r_epik_Ionization_Penalty>  (505) 
2.1524e-10

>  <r_epik_Ionization_Penalty_Charging>  (505) 
0

>  <r_epik_Ionization_Penalty_Neutral>  (505) 
2.1524e-10

>  <r_epik_State_Penalty>  (505) 
-0

>  <r_epik_Charging_Adjusted_Penalty>  (505) 
0

>  <i_epik_Tot_Q>  (505) 
0

>  <i_epik_Tot_abs_Q>  (505) 
0

>  <s_lp_Force_Field>  (505) 
OPLS3e

>  <r_lp_Energy>  (505) 
35.7406

>  <b_lp_Chiralities_Consistent>  (505) 
1

>  <s_lp_Variant>  (505) 
121:0-1

>  <s_i_glide_gridfile>  (505) 
pfpi4k_grid

>  <i_i_glide_lignum>  (505) 
17

>  <i_i_glide_rotatable_bonds>  (505) 
2

>  <r_i_docking_score>  (505) 
-3.58659

>  <r_i_glide_ligand_efficiency>  (505) 
-0.199255

>  <r_i_glide_ligand_efficiency_sa>  (505) 
-0.522196

>  <r_i_glide_ligand_efficiency_ln>  (505) 
-0.921914

>  <r_i_glide_gscore>  (505) 
-3.58659

>  <r_i_glide_lipo>  (505) 
-0.183411

>  <r_i_glide_hbond>  (505) 
-0.16

>  <r_i_glide_metal>  (505) 
-0

>  <r_i_glide_rewards>  (505) 
-1.92113

>  <r_i_glide_evdw>  (505) 
-22.7432

>  <r_i_glide_ecoul>  (505) 
-5.40459

>  <r_i_glide_erotb>  (505) 
0.625801

>  <r_i_glide_esite>  (505) 
0

>  <r_i_glide_emodel>  (505) 
-32.957

>  <r_i_glide_energy>  (505) 
-28.1478

>  <r_i_glide_einternal>  (505) 
3.03751

>  <r_i_glide_intrahb_reward>  (505) 
-0

>  <i_i_glide_confnum>  (505) 
3

>  <i_i_glide_posenum>  (505) 
39

>  <r_i_glide_eff_state_penalty>  (505) 
0

>  <ligand_id>  (505) 
121

>  <original_smiles>  (505) 
O=C(c1ccccc1)c1cnc2ccccc2n1

>  <smiles>  (505) 
[H]c1nc2c([H])c([H])c([H])c([H])c2nc1C(=O)c1c([H])c([H])c([H])c([H])c1[H]

$$$$
121:0:2
     RDKit          3D

 28 30  0  0  1  0  0  0  0  0999 V2000
    5.4460   -6.1383    0.4836 O   0  0  0  0  0  0  0  0  0  0  0  0
    4.3976   -5.4887    0.4838 C   0  0  0  0  0  0  0  0  0  0  0  0
    4.4060   -4.0430    0.0743 C   0  0  0  0  0  0  0  0  0  0  0  0
    5.4100   -3.5824   -0.8143 C   0  0  0  0  0  0  0  0  0  0  0  0
    5.4649   -2.2343   -1.2158 C   0  0  0  0  0  0  0  0  0  0  0  0
    4.5155   -1.3159   -0.7340 C   0  0  0  0  0  0  0  0  0  0  0  0
    3.5149   -1.7529    0.1531 C   0  0  0  0  0  0  0  0  0  0  0  0
    3.4693   -3.0995    0.5656 C   0  0  0  0  0  0  0  0  0  0  0  0
    3.1069   -6.1323    0.9063 C   0  0  0  0  0  0  0  0  0  0  0  0
    1.8545   -5.7099    0.4123 C   0  0  0  0  0  0  0  0  0  0  0  0
    0.6954   -6.2737    0.8071 N   0  0  0  0  0  0  0  0  0  0  0  0
    0.7625   -7.3123    1.6734 C   0  0  0  0  0  0  0  0  0  0  0  0
   -0.4236   -7.9348    2.1151 C   0  0  0  0  0  0  0  0  0  0  0  0
   -0.3813   -9.0225    3.0084 C   0  0  0  0  0  0  0  0  0  0  0  0
    0.8588   -9.4924    3.4724 C   0  0  0  0  0  0  0  0  0  0  0  0
    2.0493   -8.8726    3.0425 C   0  0  0  0  0  0  0  0  0  0  0  0
    2.0228   -7.7822    2.1500 C   0  0  0  0  0  0  0  0  0  0  0  0
    3.1754   -7.1839    1.7598 N   0  0  0  0  0  0  0  0  0  0  0  0
    6.1575   -4.2561   -1.1947 H   0  0  0  0  0  0  0  0  0  0  0  0
    6.2422   -1.9129   -1.8917 H   0  0  0  0  0  0  0  0  0  0  0  0
    4.5534   -0.2800   -1.0388 H   0  0  0  0  0  0  0  0  0  0  0  0
    2.7728   -1.0567    0.5118 H   0  0  0  0  0  0  0  0  0  0  0  0
    2.6998   -3.3849    1.2645 H   0  0  0  0  0  0  0  0  0  0  0  0
    1.7614   -4.9148   -0.3122 H   0  0  0  0  0  0  0  0  0  0  0  0
   -1.3748   -7.5961    1.7446 H   0  0  0  0  0  0  0  0  0  0  0  0
   -1.2953   -9.5070    3.3275 H   0  0  0  0  0  0  0  0  0  0  0  0
    0.8953  -10.3292    4.1573 H   0  0  0  0  0  0  0  0  0  0  0  0
    2.9977   -9.2348    3.4069 H   0  0  0  0  0  0  0  0  0  0  0  0
  1  2  2  0
  2  3  1  0
  2  9  1  0
  3  8  1  0
  3  4  2  0
  4  5  1  0
  4 19  1  0
  5  6  2  0
  5 20  1  0
  6  7  1  0
  6 21  1  0
  7  8  2  0
  7 22  1  0
  8 23  1  0
  9 18  1  0
  9 10  2  0
 10 11  1  0
 10 24  1  0
 11 12  2  0
 12 17  1  0
 12 13  1  0
 13 14  2  0
 13 25  1  0
 14 15  1  0
 14 26  1  0
 15 16  2  0
 15 27  1  0
 16 17  1  0
 16 28  1  0
 17 18  2  0
M  END
>  <i_m_ct_stereo_status>  (506) 
1

>  <s_m_source_file>  (506) 
/var/tmp/pbs.5102103.sched01/tmp7htwmlud/1762k52hbh7.sdf

>  <i_m_source_file_index>  (506) 
17

>  <i_lp_mmshare_version>  (506) 
48012

>  <i_f3d_flags>  (506) 
0

>  <s_epik_input>  (506) 
W2NIXTFbY0hdW2NIXVtjSF1bY0hdYzFDKD1PKWMoW2NIXW4yKW5jKGMyMylbY0hdW2NIXVtjSF1bY0hdMw==

>  <s_epik_cmdline>  (506) 
J2VwaWtfcHl0aG9uJywgJy1waHQnLCAnMi4wJywgJy1waCcsICc3LjAnLCAnLXRuJywgJzgnLCAnLW1hJywgJzIwMCcsICctaW1hZScsICc8aW5maWxlLm1hZT4nLCAnLW9tYWUnLCAnPG91dGZpbGUubWFlPic=

>  <r_lp_tautomer_probability>  (506) 
1

>  <r_epik_Ionization_Penalty>  (506) 
2.1524e-10

>  <r_epik_Ionization_Penalty_Charging>  (506) 
0

>  <r_epik_Ionization_Penalty_Neutral>  (506) 
2.1524e-10

>  <r_epik_State_Penalty>  (506) 
-0

>  <r_epik_Charging_Adjusted_Penalty>  (506) 
0

>  <i_epik_Tot_Q>  (506) 
0

>  <i_epik_Tot_abs_Q>  (506) 
0

>  <s_lp_Force_Field>  (506) 
OPLS3e

>  <r_lp_Energy>  (506) 
35.7406

>  <b_lp_Chiralities_Consistent>  (506) 
1

>  <s_lp_Variant>  (506) 
121:0-1

>  <s_i_glide_gridfile>  (506) 
pfpi4k_grid

>  <i_i_glide_lignum>  (506) 
17

>  <i_i_glide_rotatable_bonds>  (506) 
2

>  <r_i_docking_score>  (506) 
-3.36186

>  <r_i_glide_ligand_efficiency>  (506) 
-0.18677

>  <r_i_glide_ligand_efficiency_sa>  (506) 
-0.489476

>  <r_i_glide_ligand_efficiency_ln>  (506) 
-0.86415

>  <r_i_glide_gscore>  (506) 
-3.36186

>  <r_i_glide_lipo>  (506) 
-0.0783642

>  <r_i_glide_hbond>  (506) 
-0.16

>  <r_i_glide_metal>  (506) 
-0

>  <r_i_glide_rewards>  (506) 
-1.90619

>  <r_i_glide_evdw>  (506) 
-22.6478

>  <r_i_glide_ecoul>  (506) 
-4.73813

>  <r_i_glide_erotb>  (506) 
0.625801

>  <r_i_glide_esite>  (506) 
0

>  <r_i_glide_emodel>  (506) 
-33.3266

>  <r_i_glide_energy>  (506) 
-27.386

>  <r_i_glide_einternal>  (506) 
0.653432

>  <r_i_glide_intrahb_reward>  (506) 
-0

>  <i_i_glide_confnum>  (506) 
3

>  <i_i_glide_posenum>  (506) 
24

>  <r_i_glide_eff_state_penalty>  (506) 
0

>  <ligand_id>  (506) 
121

>  <original_smiles>  (506) 
O=C(c1ccccc1)c1cnc2ccccc2n1

>  <smiles>  (506) 
[H]c1nc2c([H])c([H])c([H])c([H])c2nc1C(=O)c1c([H])c([H])c([H])c([H])c1[H]

$$$$
122:0:0
     RDKit          3D

 31 33  0  0  1  0  0  0  0  0999 V2000
    2.7075   -2.4304    3.2122 O   0  0  0  0  0  0  0  0  0  0  0  0
    2.9315   -1.1055    2.6102 S   0  0  0  0  0  0  0  0  0  0  0  0
    3.9712   -0.1826    3.0932 O   0  0  0  0  0  0  0  0  0  0  0  0
    3.2023   -1.3712    0.9065 N   0  0  0  0  0  0  0  0  0  0  0  0
    4.3834   -1.7666    0.2581 C   0  0  0  0  0  0  0  0  0  0  0  0
    5.6204   -1.5971    0.9259 C   0  0  0  0  0  0  0  0  0  0  0  0
    6.8255   -1.9333    0.3034 C   0  0  0  0  0  0  0  0  0  0  0  0
    6.8279   -2.4636   -0.9946 C   0  0  0  0  0  0  0  0  0  0  0  0
    8.0450   -2.7553   -1.5395 O   0  0  0  0  0  0  0  0  0  0  0  0
    5.6086   -2.6555   -1.6855 C   0  0  0  0  0  0  0  0  0  0  0  0
    5.6053   -3.1900   -2.9928 C   0  0  0  0  0  0  0  0  0  0  0  0
    4.4020   -3.3936   -3.6871 C   0  0  0  0  0  0  0  0  0  0  0  0
    3.1836   -3.0527   -3.0853 C   0  0  0  0  0  0  0  0  0  0  0  0
    3.1731   -2.5147   -1.7819 C   0  0  0  0  0  0  0  0  0  0  0  0
    4.3794   -2.3073   -1.0614 C   0  0  0  0  0  0  0  0  0  0  0  0
    1.4167   -0.2124    2.7079 C   0  0  0  0  0  0  0  0  0  0  0  0
    1.0842    0.8479    1.9126 C   0  0  0  0  0  0  0  0  0  0  0  0
   -0.1896    1.3816    2.2399 C   0  0  0  0  0  0  0  0  0  0  0  0
   -0.7856    0.7388    3.2916 C   0  0  0  0  0  0  0  0  0  0  0  0
    0.2134   -0.5408    3.9269 S   0  0  0  0  0  0  0  0  0  0  0  0
    2.3736   -1.2924    0.3213 H   0  0  0  0  0  0  0  0  0  0  0  0
    5.6883   -1.1904    1.9230 H   0  0  0  0  0  0  0  0  0  0  0  0
    7.7500   -1.7660    0.8374 H   0  0  0  0  0  0  0  0  0  0  0  0
    8.0310   -3.0536   -2.4397 H   0  0  0  0  0  0  0  0  0  0  0  0
    6.5323   -3.4568   -3.4732 H   0  0  0  0  0  0  0  0  0  0  0  0
    4.4232   -3.8210   -4.6784 H   0  0  0  0  0  0  0  0  0  0  0  0
    2.2524   -3.2136   -3.6102 H   0  0  0  0  0  0  0  0  0  0  0  0
    2.2214   -2.2772   -1.3452 H   0  0  0  0  0  0  0  0  0  0  0  0
    1.7014    1.2315    1.1121 H   0  0  0  0  0  0  0  0  0  0  0  0
   -0.6054    2.2022    1.6772 H   0  0  0  0  0  0  0  0  0  0  0  0
   -1.7523    0.9419    3.7201 H   0  0  0  0  0  0  0  0  0  0  0  0
  1  2  2  0
  2  3  2  0
  2  4  1  0
  2 16  1  0
  4  5  1  0
  4 21  1  0
  5 15  1  0
  5  6  2  0
  6  7  1  0
  6 22  1  0
  7  8  2  0
  7 23  1  0
  8  9  1  0
  8 10  1  0
  9 24  1  0
 10 15  2  0
 10 11  1  0
 11 12  2  0
 11 25  1  0
 12 13  1  0
 12 26  1  0
 13 14  2  0
 13 27  1  0
 14 15  1  0
 14 28  1  0
 16 20  1  0
 16 17  2  0
 17 18  1  0
 17 29  1  0
 18 19  2  0
 18 30  1  0
 19 20  1  0
 19 31  1  0
M  END
>  <i_m_ct_stereo_status>  (507) 
1

>  <s_m_source_file>  (507) 
/var/tmp/pbs.5102103.sched01/tmp7htwmlud/1762k52hbh7.sdf

>  <i_m_source_file_index>  (507) 
18

>  <i_lp_mmshare_version>  (507) 
48012

>  <i_f3d_flags>  (507) 
0

>  <s_epik_input>  (507) 
czFbY0hdW2NIXVtjSF1jMVMoPU8pKD1PKVtOSF1jKFtjSF1bY0hdYzJbT0hdKWMoYzIzKVtjSF1bY0hdW2NIXVtjSF0z

>  <s_epik_cmdline>  (507) 
J2VwaWtfcHl0aG9uJywgJy1waHQnLCAnMi4wJywgJy1waCcsICc3LjAnLCAnLXRuJywgJzgnLCAnLW1hJywgJzIwMCcsICctaW1hZScsICc8aW5maWxlLm1hZT4nLCAnLW9tYWUnLCAnPG91dGZpbGUubWFlPic=

>  <r_epik_Ionization_Penalty>  (507) 
0.0494819

>  <r_epik_Ionization_Penalty_Charging>  (507) 
0

>  <r_epik_Ionization_Penalty_Neutral>  (507) 
0.0494819

>  <r_epik_State_Penalty>  (507) 
0.0406892

>  <r_epik_Charging_Adjusted_Penalty>  (507) 
0.0406892

>  <i_epik_Tot_Q>  (507) 
0

>  <i_epik_Tot_abs_Q>  (507) 
0

>  <s_lp_Force_Field>  (507) 
OPLS3e

>  <r_lp_Energy>  (507) 
22.6058

>  <b_lp_Chiralities_Consistent>  (507) 
1

>  <s_lp_Variant>  (507) 
122:0-1

>  <s_i_glide_gridfile>  (507) 
pfpi4k_grid

>  <i_i_glide_lignum>  (507) 
18

>  <i_i_glide_rotatable_bonds>  (507) 
4

>  <r_i_docking_score>  (507) 
-4.28737

>  <r_i_glide_ligand_efficiency>  (507) 
-0.214368

>  <r_i_glide_ligand_efficiency_sa>  (507) 
-0.581885

>  <r_i_glide_ligand_efficiency_ln>  (507) 
-1.07299

>  <r_i_glide_gscore>  (507) 
-4.28737

>  <r_i_glide_lipo>  (507) 
-0.537315

>  <r_i_glide_hbond>  (507) 
-0.543828

>  <r_i_glide_metal>  (507) 
-0

>  <r_i_glide_rewards>  (507) 
-1.327

>  <r_i_glide_evdw>  (507) 
-28.2872

>  <r_i_glide_ecoul>  (507) 
-6.60882

>  <r_i_glide_erotb>  (507) 
0.593744

>  <r_i_glide_esite>  (507) 
-0.0672906

>  <r_i_glide_emodel>  (507) 
-43.3225

>  <r_i_glide_energy>  (507) 
-34.896

>  <r_i_glide_einternal>  (507) 
3.22907

>  <r_i_glide_intrahb_reward>  (507) 
-0

>  <i_i_glide_confnum>  (507) 
6

>  <i_i_glide_posenum>  (507) 
13

>  <r_i_glide_eff_state_penalty>  (507) 
0

>  <ligand_id>  (507) 
122

>  <original_smiles>  (507) 
O=S(=O)(Nc1ccc(O)c2ccccc12)c1cccs1

>  <smiles>  (507) 
[H]Oc1c([H])c([H])c(N([H])S(=O)(=O)c2sc([H])c([H])c2[H])c2c([H])c([H])c([H])c([H])c12

$$$$
122:0:1
     RDKit          3D

 31 33  0  0  1  0  0  0  0  0999 V2000
    7.7066   -2.2511   -1.2554 O   0  0  0  0  0  0  0  0  0  0  0  0
    6.4185   -2.7270   -0.7508 S   0  0  0  0  0  0  0  0  0  0  0  0
    6.2187   -4.1521   -0.4084 O   0  0  0  0  0  0  0  0  0  0  0  0
    6.0765   -1.7920    0.6983 N   0  0  0  0  0  0  0  0  0  0  0  0
    4.8158   -1.5176    1.2651 C   0  0  0  0  0  0  0  0  0  0  0  0
    4.2478   -0.2328    1.1197 C   0  0  0  0  0  0  0  0  0  0  0  0
    2.9305    0.0164    1.5609 C   0  0  0  0  0  0  0  0  0  0  0  0
    2.1984   -1.0044    2.2051 C   0  0  0  0  0  0  0  0  0  0  0  0
    0.9298   -0.7259    2.6303 O   0  0  0  0  0  0  0  0  0  0  0  0
    2.7792   -2.2807    2.4061 C   0  0  0  0  0  0  0  0  0  0  0  0
    2.0687   -3.2984    3.0765 C   0  0  0  0  0  0  0  0  0  0  0  0
    2.6503   -4.5710    3.2754 C   0  0  0  0  0  0  0  0  0  0  0  0
    3.9586   -4.8279    2.8038 C   0  0  0  0  0  0  0  0  0  0  0  0
    4.6836   -3.7990    2.1735 C   0  0  0  0  0  0  0  0  0  0  0  0
    4.0996   -2.5329    1.9378 C   0  0  0  0  0  0  0  0  0  0  0  0
    5.1709   -2.2873   -1.9696 C   0  0  0  0  0  0  0  0  0  0  0  0
    4.5366   -1.0726   -2.0579 C   0  0  0  0  0  0  0  0  0  0  0  0
    3.4933   -1.0934   -3.0189 C   0  0  0  0  0  0  0  0  0  0  0  0
    3.4239   -2.2669   -3.7277 C   0  0  0  0  0  0  0  0  0  0  0  0
    4.6081   -3.4294   -3.1630 S   0  0  0  0  0  0  0  0  0  0  0  0
    6.8380   -1.2033    1.0173 H   0  0  0  0  0  0  0  0  0  0  0  0
    4.7906    0.5567    0.6503 H   0  0  0  0  0  0  0  0  0  0  0  0
    2.4632    0.9655    1.3568 H   0  0  0  0  0  0  0  0  0  0  0  0
    0.6299    0.1053    2.3254 H   0  0  0  0  0  0  0  0  0  0  0  0
    1.0804   -3.0979    3.4567 H   0  0  0  0  0  0  0  0  0  0  0  0
    2.1257   -5.3332    3.8019 H   0  0  0  0  0  0  0  0  0  0  0  0
    4.4320   -5.7713    2.9403 H   0  0  0  0  0  0  0  0  0  0  0  0
    5.7064   -4.0034    1.9031 H   0  0  0  0  0  0  0  0  0  0  0  0
    4.7183   -0.1992   -1.4481 H   0  0  0  0  0  0  0  0  0  0  0  0
    2.8419   -0.2365   -3.1259 H   0  0  0  0  0  0  0  0  0  0  0  0
    2.7300   -2.5153   -4.5188 H   0  0  0  0  0  0  0  0  0  0  0  0
  1  2  2  0
  2  3  2  0
  2  4  1  0
  2 16  1  0
  4  5  1  0
  4 21  1  0
  5 15  1  0
  5  6  2  0
  6  7  1  0
  6 22  1  0
  7  8  2  0
  7 23  1  0
  8  9  1  0
  8 10  1  0
  9 24  1  0
 10 15  2  0
 10 11  1  0
 11 12  2  0
 11 25  1  0
 12 13  1  0
 12 26  1  0
 13 14  2  0
 13 27  1  0
 14 15  1  0
 14 28  1  0
 16 20  1  0
 16 17  2  0
 17 18  1  0
 17 29  1  0
 18 19  2  0
 18 30  1  0
 19 20  1  0
 19 31  1  0
M  END
>  <i_m_ct_stereo_status>  (508) 
1

>  <s_m_source_file>  (508) 
/var/tmp/pbs.5102103.sched01/tmp7htwmlud/1762k52hbh7.sdf

>  <i_m_source_file_index>  (508) 
18

>  <i_lp_mmshare_version>  (508) 
48012

>  <i_f3d_flags>  (508) 
0

>  <s_epik_input>  (508) 
czFbY0hdW2NIXVtjSF1jMVMoPU8pKD1PKVtOSF1jKFtjSF1bY0hdYzJbT0hdKWMoYzIzKVtjSF1bY0hdW2NIXVtjSF0z

>  <s_epik_cmdline>  (508) 
J2VwaWtfcHl0aG9uJywgJy1waHQnLCAnMi4wJywgJy1waCcsICc3LjAnLCAnLXRuJywgJzgnLCAnLW1hJywgJzIwMCcsICctaW1hZScsICc8aW5maWxlLm1hZT4nLCAnLW9tYWUnLCAnPG91dGZpbGUubWFlPic=

>  <r_epik_Ionization_Penalty>  (508) 
0.0494819

>  <r_epik_Ionization_Penalty_Charging>  (508) 
0

>  <r_epik_Ionization_Penalty_Neutral>  (508) 
0.0494819

>  <r_epik_State_Penalty>  (508) 
0.0406892

>  <r_epik_Charging_Adjusted_Penalty>  (508) 
0.0406892

>  <i_epik_Tot_Q>  (508) 
0

>  <i_epik_Tot_abs_Q>  (508) 
0

>  <s_lp_Force_Field>  (508) 
OPLS3e

>  <r_lp_Energy>  (508) 
22.6058

>  <b_lp_Chiralities_Consistent>  (508) 
1

>  <s_lp_Variant>  (508) 
122:0-1

>  <s_i_glide_gridfile>  (508) 
pfpi4k_grid

>  <i_i_glide_lignum>  (508) 
18

>  <i_i_glide_rotatable_bonds>  (508) 
4

>  <r_i_docking_score>  (508) 
-3.2315

>  <r_i_glide_ligand_efficiency>  (508) 
-0.161575

>  <r_i_glide_ligand_efficiency_sa>  (508) 
-0.438582

>  <r_i_glide_ligand_efficiency_ln>  (508) 
-0.808737

>  <r_i_glide_gscore>  (508) 
-3.2315

>  <r_i_glide_lipo>  (508) 
-0.499352

>  <r_i_glide_hbond>  (508) 
0

>  <r_i_glide_metal>  (508) 
-0

>  <r_i_glide_rewards>  (508) 
-1.327

>  <r_i_glide_evdw>  (508) 
-28.7512

>  <r_i_glide_ecoul>  (508) 
-3.03976

>  <r_i_glide_erotb>  (508) 
0.593744

>  <r_i_glide_esite>  (508) 
-0.105368

>  <r_i_glide_emodel>  (508) 
-34.5625

>  <r_i_glide_energy>  (508) 
-31.791

>  <r_i_glide_einternal>  (508) 
7.52439

>  <r_i_glide_intrahb_reward>  (508) 
-0

>  <i_i_glide_confnum>  (508) 
5

>  <i_i_glide_posenum>  (508) 
40

>  <r_i_glide_eff_state_penalty>  (508) 
0

>  <ligand_id>  (508) 
122

>  <original_smiles>  (508) 
O=S(=O)(Nc1ccc(O)c2ccccc12)c1cccs1

>  <smiles>  (508) 
[H]Oc1c([H])c([H])c(N([H])S(=O)(=O)c2sc([H])c([H])c2[H])c2c([H])c([H])c([H])c([H])c12

$$$$
122:0:2
     RDKit          3D

 31 33  0  0  1  0  0  0  0  0999 V2000
    6.0256   -2.2641   -0.2627 O   0  0  0  0  0  0  0  0  0  0  0  0
    4.8867   -2.9887   -0.8555 S   0  0  0  0  0  0  0  0  0  0  0  0
    5.0229   -4.3475   -1.3940 O   0  0  0  0  0  0  0  0  0  0  0  0
    3.6160   -2.9992    0.3442 N   0  0  0  0  0  0  0  0  0  0  0  0
    3.4748   -3.8355    1.4650 C   0  0  0  0  0  0  0  0  0  0  0  0
    4.1565   -5.0729    1.4856 C   0  0  0  0  0  0  0  0  0  0  0  0
    4.0084   -5.9653    2.5532 C   0  0  0  0  0  0  0  0  0  0  0  0
    3.1844   -5.6335    3.6400 C   0  0  0  0  0  0  0  0  0  0  0  0
    3.0814   -6.5344    4.6596 O   0  0  0  0  0  0  0  0  0  0  0  0
    2.4975   -4.3954    3.6577 C   0  0  0  0  0  0  0  0  0  0  0  0
    1.6756   -4.0609    4.7575 C   0  0  0  0  0  0  0  0  0  0  0  0
    0.9921   -2.8346    4.7884 C   0  0  0  0  0  0  0  0  0  0  0  0
    1.1214   -1.9312    3.7168 C   0  0  0  0  0  0  0  0  0  0  0  0
    1.9368   -2.2537    2.6137 C   0  0  0  0  0  0  0  0  0  0  0  0
    2.6376   -3.4870    2.5663 C   0  0  0  0  0  0  0  0  0  0  0  0
    4.2665   -2.0018   -2.1816 C   0  0  0  0  0  0  0  0  0  0  0  0
    4.4531   -0.6584   -2.3371 C   0  0  0  0  0  0  0  0  0  0  0  0
    3.8153   -0.1669   -3.5123 C   0  0  0  0  0  0  0  0  0  0  0  0
    3.1783   -1.1422   -4.2240 C   0  0  0  0  0  0  0  0  0  0  0  0
    3.3232   -2.7052   -3.4654 S   0  0  0  0  0  0  0  0  0  0  0  0
    2.9443   -2.2486    0.2522 H   0  0  0  0  0  0  0  0  0  0  0  0
    4.7952   -5.3816    0.6741 H   0  0  0  0  0  0  0  0  0  0  0  0
    4.5404   -6.9051    2.5092 H   0  0  0  0  0  0  0  0  0  0  0  0
    3.5825   -7.3187    4.4923 H   0  0  0  0  0  0  0  0  0  0  0  0
    1.5787   -4.7465    5.5863 H   0  0  0  0  0  0  0  0  0  0  0  0
    0.3736   -2.5893    5.6385 H   0  0  0  0  0  0  0  0  0  0  0  0
    0.5978   -0.9871    3.7450 H   0  0  0  0  0  0  0  0  0  0  0  0
    2.0154   -1.5340    1.8119 H   0  0  0  0  0  0  0  0  0  0  0  0
    4.9979   -0.0392   -1.6460 H   0  0  0  0  0  0  0  0  0  0  0  0
    3.8365    0.8827   -3.7725 H   0  0  0  0  0  0  0  0  0  0  0  0
    2.6013   -1.0287   -5.1215 H   0  0  0  0  0  0  0  0  0  0  0  0
  1  2  2  0
  2  3  2  0
  2  4  1  0
  2 16  1  0
  4  5  1  0
  4 21  1  0
  5 15  1  0
  5  6  2  0
  6  7  1  0
  6 22  1  0
  7  8  2  0
  7 23  1  0
  8  9  1  0
  8 10  1  0
  9 24  1  0
 10 15  2  0
 10 11  1  0
 11 12  2  0
 11 25  1  0
 12 13  1  0
 12 26  1  0
 13 14  2  0
 13 27  1  0
 14 15  1  0
 14 28  1  0
 16 20  1  0
 16 17  2  0
 17 18  1  0
 17 29  1  0
 18 19  2  0
 18 30  1  0
 19 20  1  0
 19 31  1  0
M  END
>  <i_m_ct_stereo_status>  (509) 
1

>  <s_m_source_file>  (509) 
/var/tmp/pbs.5102103.sched01/tmp7htwmlud/1762k52hbh7.sdf

>  <i_m_source_file_index>  (509) 
18

>  <i_lp_mmshare_version>  (509) 
48012

>  <i_f3d_flags>  (509) 
0

>  <s_epik_input>  (509) 
czFbY0hdW2NIXVtjSF1jMVMoPU8pKD1PKVtOSF1jKFtjSF1bY0hdYzJbT0hdKWMoYzIzKVtjSF1bY0hdW2NIXVtjSF0z

>  <s_epik_cmdline>  (509) 
J2VwaWtfcHl0aG9uJywgJy1waHQnLCAnMi4wJywgJy1waCcsICc3LjAnLCAnLXRuJywgJzgnLCAnLW1hJywgJzIwMCcsICctaW1hZScsICc8aW5maWxlLm1hZT4nLCAnLW9tYWUnLCAnPG91dGZpbGUubWFlPic=

>  <r_epik_Ionization_Penalty>  (509) 
0.0494819

>  <r_epik_Ionization_Penalty_Charging>  (509) 
0

>  <r_epik_Ionization_Penalty_Neutral>  (509) 
0.0494819

>  <r_epik_State_Penalty>  (509) 
0.0406892

>  <r_epik_Charging_Adjusted_Penalty>  (509) 
0.0406892

>  <i_epik_Tot_Q>  (509) 
0

>  <i_epik_Tot_abs_Q>  (509) 
0

>  <s_lp_Force_Field>  (509) 
OPLS3e

>  <r_lp_Energy>  (509) 
22.6058

>  <b_lp_Chiralities_Consistent>  (509) 
1

>  <s_lp_Variant>  (509) 
122:0-1

>  <s_i_glide_gridfile>  (509) 
pfpi4k_grid

>  <i_i_glide_lignum>  (509) 
18

>  <i_i_glide_rotatable_bonds>  (509) 
4

>  <r_i_docking_score>  (509) 
-2.81101

>  <r_i_glide_ligand_efficiency>  (509) 
-0.140551

>  <r_i_glide_ligand_efficiency_sa>  (509) 
-0.381513

>  <r_i_glide_ligand_efficiency_ln>  (509) 
-0.703503

>  <r_i_glide_gscore>  (509) 
-2.81101

>  <r_i_glide_lipo>  (509) 
-0.453275

>  <r_i_glide_hbond>  (509) 
0

>  <r_i_glide_metal>  (509) 
-0

>  <r_i_glide_rewards>  (509) 
-1.34565

>  <r_i_glide_evdw>  (509) 
-24.0751

>  <r_i_glide_ecoul>  (509) 
-2.33915

>  <r_i_glide_erotb>  (509) 
0.593744

>  <r_i_glide_esite>  (509) 
-0.0512052

>  <r_i_glide_emodel>  (509) 
-31.7615

>  <r_i_glide_energy>  (509) 
-26.4143

>  <r_i_glide_einternal>  (509) 
2.40274

>  <r_i_glide_intrahb_reward>  (509) 
-0

>  <i_i_glide_confnum>  (509) 
3

>  <i_i_glide_posenum>  (509) 
9

>  <r_i_glide_eff_state_penalty>  (509) 
0

>  <ligand_id>  (509) 
122

>  <original_smiles>  (509) 
O=S(=O)(Nc1ccc(O)c2ccccc12)c1cccs1

>  <smiles>  (509) 
[H]Oc1c([H])c([H])c(N([H])S(=O)(=O)c2sc([H])c([H])c2[H])c2c([H])c([H])c([H])c([H])c12

$$$$
122:1:0
     RDKit          3D

 30 32  0  0  1  0  0  0  0  0999 V2000
    2.5911   -2.3555    3.3182 O   0  0  0  0  0  0  0  0  0  0  0  0
    2.8477   -1.0323    2.7277 S   0  0  0  0  0  0  0  0  0  0  0  0
    3.8792   -0.1211    3.2526 O   0  0  0  0  0  0  0  0  0  0  0  0
    3.1489   -1.2895    1.0274 N   0  0  0  0  0  0  0  0  0  0  0  0
    4.3527   -1.6431    0.3910 C   0  0  0  0  0  0  0  0  0  0  0  0
    5.5758   -1.3998    1.0531 C   0  0  0  0  0  0  0  0  0  0  0  0
    6.7941   -1.6984    0.4444 C   0  0  0  0  0  0  0  0  0  0  0  0
    6.8194   -2.2596   -0.8378 C   0  0  0  0  0  0  0  0  0  0  0  0
    8.0380   -2.5298   -1.3788 O   0  0  0  0  0  0  0  0  0  0  0  0
    5.6167   -2.5235   -1.5280 C   0  0  0  0  0  0  0  0  0  0  0  0
    5.6397   -3.0986   -2.8167 C   0  0  0  0  0  0  0  0  0  0  0  0
    4.4506   -3.3648   -3.5174 C   0  0  0  0  0  0  0  0  0  0  0  0
    3.2131   -3.0534   -2.9273 C   0  0  0  0  0  0  0  0  0  0  0  0
    3.1828   -2.4875   -1.6337 C   0  0  0  0  0  0  0  0  0  0  0  0
    4.3744   -2.2114   -0.9158 C   0  0  0  0  0  0  0  0  0  0  0  0
    1.3490   -0.1156    2.7919 C   0  0  0  0  0  0  0  0  0  0  0  0
    1.0329    0.9239    1.9639 C   0  0  0  0  0  0  0  0  0  0  0  0
   -0.2364    1.4790    2.2683 C   0  0  0  0  0  0  0  0  0  0  0  0
   -0.8494    0.8698    3.3313 C   0  0  0  0  0  0  0  0  0  0  0  0
    0.1364   -0.3988    4.0083 S   0  0  0  0  0  0  0  0  0  0  0  0
    2.3260   -1.2524    0.4300 H   0  0  0  0  0  0  0  0  0  0  0  0
    5.6273   -0.9627    2.0337 H   0  0  0  0  0  0  0  0  0  0  0  0
    7.7043   -1.4818    0.9793 H   0  0  0  0  0  0  0  0  0  0  0  0
    6.5870   -3.3485   -3.2679 H   0  0  0  0  0  0  0  0  0  0  0  0
    4.4868   -3.8162   -4.4932 H   0  0  0  0  0  0  0  0  0  0  0  0
    2.2908   -3.2624   -3.4501 H   0  0  0  0  0  0  0  0  0  0  0  0
    2.2210   -2.2750   -1.2081 H   0  0  0  0  0  0  0  0  0  0  0  0
    1.6599    1.2816    1.1591 H   0  0  0  0  0  0  0  0  0  0  0  0
   -0.6432    2.2929    1.6894 H   0  0  0  0  0  0  0  0  0  0  0  0
   -1.8181    1.0948    3.7443 H   0  0  0  0  0  0  0  0  0  0  0  0
  1  2  2  0
  2  3  2  0
  2  4  1  0
  2 16  1  0
  4  5  1  0
  4 21  1  0
  5 15  1  0
  5  6  2  0
  6  7  1  0
  6 22  1  0
  7  8  2  0
  7 23  1  0
  8  9  1  0
  8 10  1  0
 10 15  2  0
 10 11  1  0
 11 12  2  0
 11 24  1  0
 12 13  1  0
 12 25  1  0
 13 14  2  0
 13 26  1  0
 14 15  1  0
 14 27  1  0
 16 20  1  0
 16 17  2  0
 17 18  1  0
 17 28  1  0
 18 19  2  0
 18 29  1  0
 19 20  1  0
 19 30  1  0
M  CHG  1   9  -1
M  END
>  <i_m_ct_stereo_status>  (510) 
1

>  <s_m_source_file>  (510) 
/var/tmp/pbs.5102103.sched01/tmp7htwmlud/1762k52hbh7.sdf

>  <i_m_source_file_index>  (510) 
19

>  <i_lp_mmshare_version>  (510) 
48012

>  <i_f3d_flags>  (510) 
0

>  <s_epik_input>  (510) 
czFbY0hdW2NIXVtjSF1jMVMoPU8pKD1PKVtOSF1jKFtjSF1bY0hdYzJbT0hdKWMoYzIzKVtjSF1bY0hdW2NIXVtjSF0z

>  <s_epik_cmdline>  (510) 
J2VwaWtfcHl0aG9uJywgJy1waHQnLCAnMi4wJywgJy1waCcsICc3LjAnLCAnLXRuJywgJzgnLCAnLW1hJywgJzIwMCcsICctaW1hZScsICc8aW5maWxlLm1hZT4nLCAnLW9tYWUnLCAnPG91dGZpbGUubWFlPic=

>  <r_epik_Ionization_Penalty>  (510) 
1.59287

>  <r_epik_Ionization_Penalty_Charging>  (510) 
1.59169

>  <r_epik_Ionization_Penalty_Neutral>  (510) 
0.0011788

>  <r_epik_State_Penalty>  (510) 
1.69454

>  <r_epik_Charging_Adjusted_Penalty>  (510) 
3.28623

>  <i_epik_Tot_Q>  (510) 
-1

>  <i_epik_Tot_abs_Q>  (510) 
1

>  <s_lp_Force_Field>  (510) 
OPLS3e

>  <r_lp_Energy>  (510) 
25.9432

>  <b_lp_Chiralities_Consistent>  (510) 
1

>  <s_lp_Variant>  (510) 
122:0-2

>  <s_i_glide_gridfile>  (510) 
pfpi4k_grid

>  <i_i_glide_lignum>  (510) 
19

>  <i_i_glide_rotatable_bonds>  (510) 
3

>  <r_i_docking_score>  (510) 
-3.60733

>  <r_i_glide_ligand_efficiency>  (510) 
-0.180367

>  <r_i_glide_ligand_efficiency_sa>  (510) 
-0.48959

>  <r_i_glide_ligand_efficiency_ln>  (510) 
-0.902796

>  <r_i_glide_gscore>  (510) 
-3.60733

>  <r_i_glide_lipo>  (510) 
-0.535086

>  <r_i_glide_hbond>  (510) 
-0.359271

>  <r_i_glide_metal>  (510) 
-0

>  <r_i_glide_rewards>  (510) 
-1.33387

>  <r_i_glide_evdw>  (510) 
-26.4594

>  <r_i_glide_ecoul>  (510) 
-3.93675

>  <r_i_glide_erotb>  (510) 
0.597195

>  <r_i_glide_esite>  (510) 
-0.0628181

>  <r_i_glide_emodel>  (510) 
-38.2914

>  <r_i_glide_energy>  (510) 
-30.3962

>  <r_i_glide_einternal>  (510) 
3.30338

>  <r_i_glide_intrahb_reward>  (510) 
-0

>  <i_i_glide_confnum>  (510) 
3

>  <i_i_glide_posenum>  (510) 
1

>  <r_i_glide_eff_state_penalty>  (510) 
0

>  <ligand_id>  (510) 
122

>  <original_smiles>  (510) 
O=S(=O)(Nc1ccc(O)c2ccccc12)c1cccs1

>  <smiles>  (510) 
[H]c1sc(S(=O)(=O)N([H])c2c([H])c([H])c([O-])c3c([H])c([H])c([H])c([H])c23)c([H])c1[H]

$$$$
122:1:1
     RDKit          3D

 30 32  0  0  1  0  0  0  0  0999 V2000
    0.9473   -2.0973    2.8488 O   0  0  0  0  0  0  0  0  0  0  0  0
    2.2904   -1.5423    2.6421 S   0  0  0  0  0  0  0  0  0  0  0  0
    3.4034   -2.0225    3.4721 O   0  0  0  0  0  0  0  0  0  0  0  0
    2.6984   -1.8045    0.9610 N   0  0  0  0  0  0  0  0  0  0  0  0
    3.9619   -1.8610    0.3536 C   0  0  0  0  0  0  0  0  0  0  0  0
    5.1039   -1.4457    1.0766 C   0  0  0  0  0  0  0  0  0  0  0  0
    6.3922   -1.6203    0.5560 C   0  0  0  0  0  0  0  0  0  0  0  0
    6.5687   -2.1586   -0.7272 C   0  0  0  0  0  0  0  0  0  0  0  0
    7.8477   -2.2813   -1.2043 O   0  0  0  0  0  0  0  0  0  0  0  0
    5.4351   -2.5223   -1.4976 C   0  0  0  0  0  0  0  0  0  0  0  0
    5.6082   -3.0540   -2.7919 C   0  0  0  0  0  0  0  0  0  0  0  0
    4.4975   -3.4150   -3.5755 C   0  0  0  0  0  0  0  0  0  0  0  0
    3.1970   -3.2390   -3.0646 C   0  0  0  0  0  0  0  0  0  0  0  0
    3.0147   -2.7402   -1.7598 C   0  0  0  0  0  0  0  0  0  0  0  0
    4.1238   -2.3628   -0.9617 C   0  0  0  0  0  0  0  0  0  0  0  0
    2.1710    0.2099    2.8747 C   0  0  0  0  0  0  0  0  0  0  0  0
    2.9870    1.0056    3.6342 C   0  0  0  0  0  0  0  0  0  0  0  0
    2.5957    2.3796    3.6050 C   0  0  0  0  0  0  0  0  0  0  0  0
    1.4949    2.6015    2.8225 C   0  0  0  0  0  0  0  0  0  0  0  0
    0.9132    1.1278    2.0959 S   0  0  0  0  0  0  0  0  0  0  0  0
    1.9426   -1.5977    0.3048 H   0  0  0  0  0  0  0  0  0  0  0  0
    5.0517   -0.9980    2.0515 H   0  0  0  0  0  0  0  0  0  0  0  0
    7.2466   -1.3355    1.1607 H   0  0  0  0  0  0  0  0  0  0  0  0
    6.6051   -3.1850   -3.1880 H   0  0  0  0  0  0  0  0  0  0  0  0
    4.6432   -3.8378   -4.5606 H   0  0  0  0  0  0  0  0  0  0  0  0
    2.3360   -3.5479   -3.6491 H   0  0  0  0  0  0  0  0  0  0  0  0
    2.0106   -2.6629   -1.3889 H   0  0  0  0  0  0  0  0  0  0  0  0
    3.8426    0.6590    4.1944 H   0  0  0  0  0  0  0  0  0  0  0  0
    3.1449    3.1471    4.1330 H   0  0  0  0  0  0  0  0  0  0  0  0
    1.0142    3.5417    2.5814 H   0  0  0  0  0  0  0  0  0  0  0  0
  1  2  2  0
  2  3  2  0
  2  4  1  0
  2 16  1  0
  4  5  1  0
  4 21  1  0
  5 15  1  0
  5  6  2  0
  6  7  1  0
  6 22  1  0
  7  8  2  0
  7 23  1  0
  8  9  1  0
  8 10  1  0
 10 15  2  0
 10 11  1  0
 11 12  2  0
 11 24  1  0
 12 13  1  0
 12 25  1  0
 13 14  2  0
 13 26  1  0
 14 15  1  0
 14 27  1  0
 16 20  1  0
 16 17  2  0
 17 18  1  0
 17 28  1  0
 18 19  2  0
 18 29  1  0
 19 20  1  0
 19 30  1  0
M  CHG  1   9  -1
M  END
>  <i_m_ct_stereo_status>  (511) 
1

>  <s_m_source_file>  (511) 
/var/tmp/pbs.5102103.sched01/tmp7htwmlud/1762k52hbh7.sdf

>  <i_m_source_file_index>  (511) 
19

>  <i_lp_mmshare_version>  (511) 
48012

>  <i_f3d_flags>  (511) 
0

>  <s_epik_input>  (511) 
czFbY0hdW2NIXVtjSF1jMVMoPU8pKD1PKVtOSF1jKFtjSF1bY0hdYzJbT0hdKWMoYzIzKVtjSF1bY0hdW2NIXVtjSF0z

>  <s_epik_cmdline>  (511) 
J2VwaWtfcHl0aG9uJywgJy1waHQnLCAnMi4wJywgJy1waCcsICc3LjAnLCAnLXRuJywgJzgnLCAnLW1hJywgJzIwMCcsICctaW1hZScsICc8aW5maWxlLm1hZT4nLCAnLW9tYWUnLCAnPG91dGZpbGUubWFlPic=

>  <r_epik_Ionization_Penalty>  (511) 
1.59287

>  <r_epik_Ionization_Penalty_Charging>  (511) 
1.59169

>  <r_epik_Ionization_Penalty_Neutral>  (511) 
0.0011788

>  <r_epik_State_Penalty>  (511) 
1.69454

>  <r_epik_Charging_Adjusted_Penalty>  (511) 
3.28623

>  <i_epik_Tot_Q>  (511) 
-1

>  <i_epik_Tot_abs_Q>  (511) 
1

>  <s_lp_Force_Field>  (511) 
OPLS3e

>  <r_lp_Energy>  (511) 
25.9432

>  <b_lp_Chiralities_Consistent>  (511) 
1

>  <s_lp_Variant>  (511) 
122:0-2

>  <s_i_glide_gridfile>  (511) 
pfpi4k_grid

>  <i_i_glide_lignum>  (511) 
19

>  <i_i_glide_rotatable_bonds>  (511) 
3

>  <r_i_docking_score>  (511) 
-3.54955

>  <r_i_glide_ligand_efficiency>  (511) 
-0.177478

>  <r_i_glide_ligand_efficiency_sa>  (511) 
-0.481748

>  <r_i_glide_ligand_efficiency_ln>  (511) 
-0.888335

>  <r_i_glide_gscore>  (511) 
-3.54955

>  <r_i_glide_lipo>  (511) 
-0.562317

>  <r_i_glide_hbond>  (511) 
-0.36

>  <r_i_glide_metal>  (511) 
-0

>  <r_i_glide_rewards>  (511) 
-1.33387

>  <r_i_glide_evdw>  (511) 
-24.4338

>  <r_i_glide_ecoul>  (511) 
-3.98219

>  <r_i_glide_erotb>  (511) 
0.597195

>  <r_i_glide_esite>  (511) 
-0.071541

>  <r_i_glide_emodel>  (511) 
-35.8978

>  <r_i_glide_energy>  (511) 
-28.416

>  <r_i_glide_einternal>  (511) 
2.55999

>  <r_i_glide_intrahb_reward>  (511) 
-0

>  <i_i_glide_confnum>  (511) 
3

>  <i_i_glide_posenum>  (511) 
33

>  <r_i_glide_eff_state_penalty>  (511) 
0

>  <ligand_id>  (511) 
122

>  <original_smiles>  (511) 
O=S(=O)(Nc1ccc(O)c2ccccc12)c1cccs1

>  <smiles>  (511) 
[H]c1sc(S(=O)(=O)N([H])c2c([H])c([H])c([O-])c3c([H])c([H])c([H])c([H])c23)c([H])c1[H]

$$$$
122:1:2
     RDKit          3D

 30 32  0  0  1  0  0  0  0  0999 V2000
    5.5013   -0.6608    0.1386 O   0  0  0  0  0  0  0  0  0  0  0  0
    4.3783   -1.6085    0.0339 S   0  0  0  0  0  0  0  0  0  0  0  0
    4.4900   -2.9938    0.5142 O   0  0  0  0  0  0  0  0  0  0  0  0
    3.0398   -0.8903    0.8736 N   0  0  0  0  0  0  0  0  0  0  0  0
    2.8792   -0.7086    2.2563 C   0  0  0  0  0  0  0  0  0  0  0  0
    3.8195   -1.2878    3.1359 C   0  0  0  0  0  0  0  0  0  0  0  0
    3.6889   -1.1393    4.5229 C   0  0  0  0  0  0  0  0  0  0  0  0
    2.6175   -0.4030    5.0639 C   0  0  0  0  0  0  0  0  0  0  0  0
    2.5358   -0.2814    6.4269 O   0  0  0  0  0  0  0  0  0  0  0  0
    1.6628    0.1865    4.1986 C   0  0  0  0  0  0  0  0  0  0  0  0
    0.5827    0.9333    4.7264 C   0  0  0  0  0  0  0  0  0  0  0  0
   -0.3727    1.5201    3.8762 C   0  0  0  0  0  0  0  0  0  0  0  0
   -0.2562    1.3673    2.4825 C   0  0  0  0  0  0  0  0  0  0  0  0
    0.8219    0.6323    1.9515 C   0  0  0  0  0  0  0  0  0  0  0  0
    1.7903    0.0318    2.7910 C   0  0  0  0  0  0  0  0  0  0  0  0
    3.9105   -1.6827   -1.6719 C   0  0  0  0  0  0  0  0  0  0  0  0
    4.1505   -0.7328   -2.6273 C   0  0  0  0  0  0  0  0  0  0  0  0
    3.6138   -1.0926   -3.8965 C   0  0  0  0  0  0  0  0  0  0  0  0
    2.9929   -2.3154   -3.8827 C   0  0  0  0  0  0  0  0  0  0  0  0
    3.0273   -3.0435   -2.3019 S   0  0  0  0  0  0  0  0  0  0  0  0
    2.2576   -0.6335    0.2762 H   0  0  0  0  0  0  0  0  0  0  0  0
    4.6494   -1.8624    2.7513 H   0  0  0  0  0  0  0  0  0  0  0  0
    4.4229   -1.5985    5.1681 H   0  0  0  0  0  0  0  0  0  0  0  0
    0.4939    1.0619    5.7932 H   0  0  0  0  0  0  0  0  0  0  0  0
   -1.1877    2.0946    4.2918 H   0  0  0  0  0  0  0  0  0  0  0  0
   -0.9805    1.8231    1.8221 H   0  0  0  0  0  0  0  0  0  0  0  0
    0.8771    0.5477    0.8802 H   0  0  0  0  0  0  0  0  0  0  0  0
    4.6572    0.2013   -2.4422 H   0  0  0  0  0  0  0  0  0  0  0  0
    3.6844   -0.4368   -4.7512 H   0  0  0  0  0  0  0  0  0  0  0  0
    2.4801   -2.8201   -4.6860 H   0  0  0  0  0  0  0  0  0  0  0  0
  1  2  2  0
  2  3  2  0
  2  4  1  0
  2 16  1  0
  4  5  1  0
  4 21  1  0
  5 15  1  0
  5  6  2  0
  6  7  1  0
  6 22  1  0
  7  8  2  0
  7 23  1  0
  8  9  1  0
  8 10  1  0
 10 15  2  0
 10 11  1  0
 11 12  2  0
 11 24  1  0
 12 13  1  0
 12 25  1  0
 13 14  2  0
 13 26  1  0
 14 15  1  0
 14 27  1  0
 16 20  1  0
 16 17  2  0
 17 18  1  0
 17 28  1  0
 18 19  2  0
 18 29  1  0
 19 20  1  0
 19 30  1  0
M  CHG  1   9  -1
M  END
>  <i_m_ct_stereo_status>  (512) 
1

>  <s_m_source_file>  (512) 
/var/tmp/pbs.5102103.sched01/tmp7htwmlud/1762k52hbh7.sdf

>  <i_m_source_file_index>  (512) 
19

>  <i_lp_mmshare_version>  (512) 
48012

>  <i_f3d_flags>  (512) 
0

>  <s_epik_input>  (512) 
czFbY0hdW2NIXVtjSF1jMVMoPU8pKD1PKVtOSF1jKFtjSF1bY0hdYzJbT0hdKWMoYzIzKVtjSF1bY0hdW2NIXVtjSF0z

>  <s_epik_cmdline>  (512) 
J2VwaWtfcHl0aG9uJywgJy1waHQnLCAnMi4wJywgJy1waCcsICc3LjAnLCAnLXRuJywgJzgnLCAnLW1hJywgJzIwMCcsICctaW1hZScsICc8aW5maWxlLm1hZT4nLCAnLW9tYWUnLCAnPG91dGZpbGUubWFlPic=

>  <r_epik_Ionization_Penalty>  (512) 
1.59287

>  <r_epik_Ionization_Penalty_Charging>  (512) 
1.59169

>  <r_epik_Ionization_Penalty_Neutral>  (512) 
0.0011788

>  <r_epik_State_Penalty>  (512) 
1.69454

>  <r_epik_Charging_Adjusted_Penalty>  (512) 
3.28623

>  <i_epik_Tot_Q>  (512) 
-1

>  <i_epik_Tot_abs_Q>  (512) 
1

>  <s_lp_Force_Field>  (512) 
OPLS3e

>  <r_lp_Energy>  (512) 
25.9432

>  <b_lp_Chiralities_Consistent>  (512) 
1

>  <s_lp_Variant>  (512) 
122:0-2

>  <s_i_glide_gridfile>  (512) 
pfpi4k_grid

>  <i_i_glide_lignum>  (512) 
19

>  <i_i_glide_rotatable_bonds>  (512) 
3

>  <r_i_docking_score>  (512) 
-3.04674

>  <r_i_glide_ligand_efficiency>  (512) 
-0.152337

>  <r_i_glide_ligand_efficiency_sa>  (512) 
-0.413506

>  <r_i_glide_ligand_efficiency_ln>  (512) 
-0.762497

>  <r_i_glide_gscore>  (512) 
-3.04674

>  <r_i_glide_lipo>  (512) 
-0.372339

>  <r_i_glide_hbond>  (512) 
-0.16

>  <r_i_glide_metal>  (512) 
-0

>  <r_i_glide_rewards>  (512) 
-1.33387

>  <r_i_glide_evdw>  (512) 
-26.8137

>  <r_i_glide_ecoul>  (512) 
-2.34457

>  <r_i_glide_erotb>  (512) 
0.597195

>  <r_i_glide_esite>  (512) 
-0.085355

>  <r_i_glide_emodel>  (512) 
-36.6035

>  <r_i_glide_energy>  (512) 
-29.1582

>  <r_i_glide_einternal>  (512) 
1.58481

>  <r_i_glide_intrahb_reward>  (512) 
-0

>  <i_i_glide_confnum>  (512) 
5

>  <i_i_glide_posenum>  (512) 
18

>  <r_i_glide_eff_state_penalty>  (512) 
0

>  <ligand_id>  (512) 
122

>  <original_smiles>  (512) 
O=S(=O)(Nc1ccc(O)c2ccccc12)c1cccs1

>  <smiles>  (512) 
[H]c1sc(S(=O)(=O)N([H])c2c([H])c([H])c([O-])c3c([H])c([H])c([H])c([H])c23)c([H])c1[H]

$$$$
