0:0:0
     RDKit          3D

 98103  0  0  1  0  0  0  0  0999 V2000
    5.4836   -9.7106    1.7760 C   0  0  0  0  0  0  0  0  0  0  0  0
    4.9725   -8.3479    1.3617 C   0  0  0  0  0  0  0  0  0  0  0  0
    4.6176   -8.1356    0.1987 O   0  0  0  0  0  0  0  0  0  0  0  0
    4.9019   -7.4776    2.3951 O   0  0  0  0  0  0  0  0  0  0  0  0
    4.2672   -6.1985    2.2487 C   0  0  2  0  0  0  0  0  0  0  0  0
    5.1177   -5.2846    1.3793 C   0  0  0  0  0  0  0  0  0  0  0  0
    4.5794   -3.8704    1.5957 C   0  0  0  0  0  0  0  0  0  0  0  0
    5.8041   -2.9410    1.5564 C   0  0  0  0  0  0  0  0  0  0  0  0
    3.6545   -3.4961    0.4184 C   0  0  0  0  0  0  0  0  0  0  0  0
    3.7714   -3.9234    2.9463 C   0  0  2  0  0  0  0  0  0  0  0  0
    4.0513   -2.6241    3.8799 C   0  0  2  0  0  0  0  0  0  0  0  0
    4.0045   -3.1704    5.1327 O   0  0  0  0  0  0  0  0  0  0  0  0
    2.7903   -3.3341    5.5014 C   0  0  0  0  0  0  0  0  0  0  0  0
    1.8717   -3.7592    4.7955 O   0  0  0  0  0  0  0  0  0  0  0  0
    2.4595   -2.4151    6.5307 C   0  0  1  0  0  0  0  0  0  0  0  0
    3.5628   -1.9467    7.2947 O   0  0  0  0  0  0  0  0  0  0  0  0
    2.1388   -1.1986    5.4631 C   0  0  1  0  0  0  0  0  0  0  0  0
    2.4043    0.0257    6.1650 O   0  0  0  0  0  0  0  0  0  0  0  0
    3.0652   -1.2897    4.0405 C   0  0  1  0  0  0  0  0  0  0  0  0
    3.6619   -0.0298    3.8014 O   0  0  0  0  0  0  0  0  0  0  0  0
    4.7447    0.3615    4.4698 C   0  0  0  0  0  0  0  0  0  0  0  0
    4.6109    1.8090    4.9136 C   0  0  0  0  0  0  0  0  0  0  0  0
    5.7285   -0.3076    4.7332 O   0  0  0  0  0  0  0  0  0  0  0  0
    0.6232   -0.9977    5.0441 C   0  0  2  0  0  0  0  0  0  0  0  0
    0.2937    0.2763    4.2632 C   0  0  0  0  0  0  0  0  0  0  0  0
   -0.7947    0.9261    4.7012 C   0  0  0  0  0  0  0  0  0  0  0  0
   -1.4817    2.1629    4.1407 C   0  0  0  0  0  0  0  0  0  0  0  0
   -1.2956    0.2396    5.8668 C   0  0  0  0  0  0  0  0  0  0  0  0
   -2.3008    0.5551    6.5170 O   0  0  0  0  0  0  0  0  0  0  0  0
   -0.3752   -0.9211    6.2552 C   0  0  2  0  0  0  0  0  0  0  0  0
    0.1895   -0.5546    7.5142 O   0  0  0  0  0  0  0  0  0  0  0  0
   -1.1923   -2.0379    6.3795 O   0  0  0  0  0  0  0  0  0  0  0  0
   -0.7329   -3.3555    6.1153 C   0  0  0  0  0  0  0  0  0  0  0  0
    0.2407   -4.1015    7.0645 C   0  0  1  0  0  0  0  0  0  0  0  0
   -0.5879   -4.2123    8.2237 O   0  0  0  0  0  0  0  0  0  0  0  0
    0.4159   -5.7959    6.2523 S   0  0  0  0  0  0  0  0  0  0  0  0
   -0.4716   -5.9007    5.0005 O   0  0  0  0  0  0  0  0  0  0  0  0
    2.2452   -6.2190    5.9771 C   0  0  2  0  0  0  0  0  0  0  0  0
    2.2929   -7.6587    6.5324 C   0  0  0  0  0  0  0  0  0  0  0  0
    3.1034   -5.5696    6.9260 O   0  0  0  0  0  0  0  0  0  0  0  0
    2.5990   -4.7220    7.9884 C   0  0  0  0  0  0  0  0  0  0  0  0
    1.9586   -5.6111    9.1023 C   0  0  0  0  0  0  0  0  0  0  0  0
    3.9569   -4.3292    8.6303 C   0  0  0  0  0  0  0  0  0  0  0  0
    1.6448   -3.4618    7.4961 C   0  0  1  0  0  0  0  0  0  0  0  0
    1.3948   -2.6764    8.6421 O   0  0  0  0  0  0  0  0  0  0  0  0
    2.7702   -6.2884    4.3953 C   0  0  1  0  0  0  0  0  0  0  0  0
    1.6615   -6.3455    3.4895 O   0  0  0  0  0  0  0  0  0  0  0  0
    1.1340   -7.4263    2.8664 C   0  0  0  0  0  0  0  0  0  0  0  0
    1.8084   -8.7864    3.0924 C   0  0  0  0  0  0  0  0  0  0  0  0
    0.1561   -7.3104    2.1300 O   0  0  0  0  0  0  0  0  0  0  0  0
    3.9664   -5.4417    3.5935 C   0  0  1  0  0  0  0  0  0  0  0  0
    5.2609   -5.5747    4.4425 C   0  0  0  0  0  0  0  0  0  0  0  0
    4.7413  -10.2069    2.4035 H   0  0  0  0  0  0  0  0  0  0  0  0
    6.4208   -9.6174    2.3245 H   0  0  0  0  0  0  0  0  0  0  0  0
    5.6397  -10.3366    0.8960 H   0  0  0  0  0  0  0  0  0  0  0  0
    3.3319   -6.3537    1.7062 H   0  0  0  0  0  0  0  0  0  0  0  0
    6.1528   -5.3652    1.7148 H   0  0  0  0  0  0  0  0  0  0  0  0
    5.0966   -5.5760    0.3300 H   0  0  0  0  0  0  0  0  0  0  0  0
    5.5239   -1.8887    1.6201 H   0  0  0  0  0  0  0  0  0  0  0  0
    6.3613   -3.0813    0.6300 H   0  0  0  0  0  0  0  0  0  0  0  0
    6.4906   -3.1724    2.3707 H   0  0  0  0  0  0  0  0  0  0  0  0
    3.2344   -2.4962    0.5615 H   0  0  0  0  0  0  0  0  0  0  0  0
    2.8358   -4.2110    0.3116 H   0  0  0  0  0  0  0  0  0  0  0  0
    4.2145   -3.4980   -0.5209 H   0  0  0  0  0  0  0  0  0  0  0  0
    2.7258   -3.8930    2.6315 H   0  0  0  0  0  0  0  0  0  0  0  0
    5.0852   -2.3320    3.7350 H   0  0  0  0  0  0  0  0  0  0  0  0
    3.3011   -1.1261    7.7043 H   0  0  0  0  0  0  0  0  0  0  0  0
    1.6331    0.1818    6.6974 H   0  0  0  0  0  0  0  0  0  0  0  0
    2.3677   -1.4011    3.2154 H   0  0  0  0  0  0  0  0  0  0  0  0
    3.7410    1.9364    5.5635 H   0  0  0  0  0  0  0  0  0  0  0  0
    4.4858    2.4700    4.0572 H   0  0  0  0  0  0  0  0  0  0  0  0
    5.5054    2.0950    5.4452 H   0  0  0  0  0  0  0  0  0  0  0  0
    0.2812   -1.7443    4.3158 H   0  0  0  0  0  0  0  0  0  0  0  0
    0.8584    0.5893    3.3945 H   0  0  0  0  0  0  0  0  0  0  0  0
   -1.5611    2.9306    4.9076 H   0  0  0  0  0  0  0  0  0  0  0  0
   -2.4893    1.9187    3.8038 H   0  0  0  0  0  0  0  0  0  0  0  0
   -0.9332    2.5752    3.2939 H   0  0  0  0  0  0  0  0  0  0  0  0
    0.6902   -1.2780    7.8814 H   0  0  0  0  0  0  0  0  0  0  0  0
   -1.6623   -3.9187    6.1786 H   0  0  0  0  0  0  0  0  0  0  0  0
   -0.4684   -3.4882    5.0739 H   0  0  0  0  0  0  0  0  0  0  0  0
   -0.0608   -4.5787    8.9293 H   0  0  0  0  0  0  0  0  0  0  0  0
    3.2993   -8.0876    6.4239 H   0  0  0  0  0  0  0  0  0  0  0  0
    1.5769   -8.3196    6.0243 H   0  0  0  0  0  0  0  0  0  0  0  0
    2.0843   -7.6847    7.6039 H   0  0  0  0  0  0  0  0  0  0  0  0
    1.7067   -5.0093    9.9800 H   0  0  0  0  0  0  0  0  0  0  0  0
    2.6673   -6.3873    9.4364 H   0  0  0  0  0  0  0  0  0  0  0  0
    1.0566   -6.1469    8.7989 H   0  0  0  0  0  0  0  0  0  0  0  0
    3.8432   -3.5622    9.4034 H   0  0  0  0  0  0  0  0  0  0  0  0
    4.6728   -3.9892    7.8794 H   0  0  0  0  0  0  0  0  0  0  0  0
    4.4446   -5.1932    9.0990 H   0  0  0  0  0  0  0  0  0  0  0  0
    2.2354   -2.6250    9.0899 H   0  0  0  0  0  0  0  0  0  0  0  0
    3.2751   -7.2530    4.3990 H   0  0  0  0  0  0  0  0  0  0  0  0
    2.8883   -8.7354    2.9194 H   0  0  0  0  0  0  0  0  0  0  0  0
    1.4265   -9.5547    2.3894 H   0  0  0  0  0  0  0  0  0  0  0  0
    1.6478   -9.2021    4.0998 H   0  0  0  0  0  0  0  0  0  0  0  0
    5.1194   -5.2444    5.4684 H   0  0  0  0  0  0  0  0  0  0  0  0
    6.0951   -5.0177    4.0140 H   0  0  0  0  0  0  0  0  0  0  0  0
    5.5693   -6.6189    4.5381 H   0  0  0  0  0  0  0  0  0  0  0  0
  1  2  1  0
  1 53  1  0
  1 54  1  0
  1 55  1  0
  2  3  2  0
  2  4  1  0
  4  5  1  0
  5 51  1  0
  5  6  1  0
  5 56  1  6
  6  7  1  0
  6 57  1  0
  6 58  1  0
  7  8  1  0
  7  9  1  0
  7 10  1  0
  8 59  1  0
  8 60  1  0
  8 61  1  0
  9 62  1  0
  9 63  1  0
  9 64  1  0
 10 51  1  0
 10 11  1  0
 10 65  1  6
 11 19  1  0
 11 12  1  0
 11 66  1  6
 12 13  1  0
 13 14  2  0
 13 15  1  0
 15 44  1  0
 15 16  1  1
 15 17  1  0
 16 67  1  0
 17 18  1  1
 17 19  1  0
 17 24  1  0
 18 68  1  0
 19 20  1  0
 19 69  1  6
 20 21  1  0
 21 22  1  0
 21 23  2  0
 22 70  1  0
 22 71  1  0
 22 72  1  0
 24 30  1  0
 24 25  1  0
 24 73  1  6
 25 26  2  0
 25 74  1  0
 26 27  1  0
 26 28  1  0
 27 75  1  0
 27 76  1  0
 27 77  1  0
 28 29  2  0
 28 30  1  0
 30 31  1  1
 30 32  1  0
 31 78  1  0
 32 33  1  0
 33 34  1  0
 33 79  1  0
 33 80  1  0
 34 44  1  0
 34 35  1  1
 36 34  1  6
 35 81  1  0
 36 37  2  0
 36 38  1  0
 38 39  1  1
 38 40  1  0
 38 46  1  0
 39 82  1  0
 39 83  1  0
 39 84  1  0
 40 41  1  0
 41 42  1  0
 41 43  1  0
 41 44  1  0
 42 85  1  0
 42 86  1  0
 42 87  1  0
 43 88  1  0
 43 89  1  0
 43 90  1  0
 44 45  1  1
 45 91  1  0
 46 47  1  0
 46 51  1  0
 46 92  1  1
 47 48  1  0
 48 49  1  0
 48 50  2  0
 49 93  1  0
 49 94  1  0
 49 95  1  0
 51 52  1  1
 52 96  1  0
 52 97  1  0
 52 98  1  0
M  END
>  <i_m_ct_stereo_status>  (1) 
1

>  <s_m_source_file>  (1) 
/var/tmp/pbs.5075288.sched01/tmp54n0lgpy/0in2gyumd.sdf

>  <i_m_source_file_index>  (1) 
1

>  <i_lp_mmshare_version>  (1) 
48012

>  <i_f3d_flags>  (1) 
0

>  <s_epik_input>  (1) 
W0NIM11DKD1PKU9bQ0BASF0xW0NIMl1DKFtDSDNdKShbQ0gzXSlbQ0BIXShbQ0BIXShPQzI9TylbQ0BASF0zT0MoPU8pW0NIM10pW0NAQF0xKFtDSDNdKVtDQEhdKE9DKD1PKVtDSDNdKVtDQEBdKFtTK100W08tXSkoW0NIM10pT0MoW0NIM10pKFtDSDNdKVtDQF01KFtPSF0pW0NAQF00KFtPSF0pW0NIMl1PW0NAXShbT0hdKShDKD1PKUMoPVtDSF02KVtDSDNdKVtDQEBIXTZbQ0BAXTMoW09IXSlbQ0BdMjVbT0hd

>  <s_epik_cmdline>  (1) 
J2VwaWtfcHl0aG9uJywgJy1waHQnLCAnMi4wJywgJy1waCcsICc3LjAnLCAnLXRuJywgJzgnLCAnLW1hJywgJzIwMCcsICctaW1hZScsICc8aW5maWxlLm1hZT4nLCAnLW9tYWUnLCAnPG91dGZpbGUubWFlPic=

>  <r_epik_Ionization_Penalty>  (1) 
0.000417897

>  <r_epik_Ionization_Penalty_Charging>  (1) 
0

>  <r_epik_Ionization_Penalty_Neutral>  (1) 
0.000417897

>  <r_epik_State_Penalty>  (1) 
0.000198492

>  <r_epik_Charging_Adjusted_Penalty>  (1) 
0.000198492

>  <i_epik_Tot_Q>  (1) 
0

>  <i_epik_Tot_abs_Q>  (1) 
2

>  <s_epik_Chemistry_Notes>  (1) 
This compound has an ester and may undergo hydrolysis at high or low pH.

>  <s_lp_Force_Field>  (1) 
OPLS3e

>  <r_lp_Energy>  (1) 
251.345

>  <b_lp_Chiralities_Consistent>  (1) 
1

>  <s_lp_Variant>  (1) 
0:0-1

>  <s_i_glide_gridfile>  (1) 
pfpi4k_grid

>  <i_i_glide_lignum>  (1) 
1

>  <i_i_glide_rotatable_bonds>  (1) 
11

>  <r_i_docking_score>  (1) 
-4.33257

>  <r_i_glide_ligand_efficiency>  (1) 
-0.0833186

>  <r_i_glide_ligand_efficiency_sa>  (1) 
-0.310988

>  <r_i_glide_ligand_efficiency_ln>  (1) 
-0.875046

>  <r_i_glide_gscore>  (1) 
-4.33257

>  <r_i_glide_lipo>  (1) 
-0.150185

>  <r_i_glide_hbond>  (1) 
-0.16

>  <r_i_glide_metal>  (1) 
-0

>  <r_i_glide_rewards>  (1) 
-1.15317

>  <r_i_glide_evdw>  (1) 
-31.8714

>  <r_i_glide_ecoul>  (1) 
-8.38502

>  <r_i_glide_erotb>  (1) 
0.112794

>  <r_i_glide_esite>  (1) 
-0.130684

>  <r_i_glide_emodel>  (1) 
-52.0103

>  <r_i_glide_energy>  (1) 
-40.2564

>  <r_i_glide_einternal>  (1) 
17.5385

>  <r_i_glide_intrahb_reward>  (1) 
-1

>  <i_i_glide_confnum>  (1) 
3

>  <i_i_glide_posenum>  (1) 
5

>  <r_i_glide_eff_state_penalty>  (1) 
0

>  <ligand_id>  (1) 
0

>  <original_smiles>  (1) 
CC(=O)OC1CC(C)(C)C2C3OC(=O)C4(O)C(O)(C3OC(C)=O)C3C=C(C)C(=O)C3(O)OCC3(O)[S+]([O-])C(C)(OC(C)(C)C34O)C(OC(C)=O)C12C

>  <smiles>  (1) 
[H]OC12OC([H])([H])C3(O[H])S(=O)C4(C([H])([H])[H])OC(C([H])([H])[H])(C([H])([H])[H])C3(O[H])C3(O[H])C(=O)OC([H])(C([H])(OC(=O)C([H])([H])[H])C3(O[H])C1([H])C([H])=C(C([H])([H])[H])C2=O)C1([H])C(C([H])([H])[H])(C([H])([H])[H])C([H])([H])C([H])(OC(=O)C([H])([H])[H])C1(C([H])([H])[H])C4([H])OC(=O)C([H])([H])[H]

$$$$
0:0:1
     RDKit          3D

 98103  0  0  1  0  0  0  0  0999 V2000
    4.6086   -6.6431   -0.3104 C   0  0  0  0  0  0  0  0  0  0  0  0
    4.9427   -7.3419    1.0138 C   0  0  0  0  0  0  0  0  0  0  0  0
    5.2172   -8.5360    1.0362 O   0  0  0  0  0  0  0  0  0  0  0  0
    4.8972   -6.5572    2.1231 O   0  0  0  0  0  0  0  0  0  0  0  0
    4.3433   -5.2456    2.1503 C   0  0  2  0  0  0  0  0  0  0  0  0
    5.2862   -4.2386    1.4770 C   0  0  0  0  0  0  0  0  0  0  0  0
    4.7107   -2.8756    1.8169 C   0  0  0  0  0  0  0  0  0  0  0  0
    5.9304   -1.9342    1.9647 C   0  0  0  0  0  0  0  0  0  0  0  0
    3.8821   -2.3453    0.6421 C   0  0  0  0  0  0  0  0  0  0  0  0
    3.7754   -3.1031    3.0825 C   0  0  2  0  0  0  0  0  0  0  0  0
    3.9358   -1.9477    4.1628 C   0  0  2  0  0  0  0  0  0  0  0  0
    3.8609   -2.6142    5.3906 O   0  0  0  0  0  0  0  0  0  0  0  0
    2.6365   -2.8379    5.6517 C   0  0  0  0  0  0  0  0  0  0  0  0
    1.7605   -3.1625    4.8478 O   0  0  0  0  0  0  0  0  0  0  0  0
    2.1942   -2.0469    6.7902 C   0  0  1  0  0  0  0  0  0  0  0  0
    3.2369   -1.6736    7.6944 O   0  0  0  0  0  0  0  0  0  0  0  0
    1.9734   -0.7168    5.7970 C   0  0  1  0  0  0  0  0  0  0  0  0
    2.2740    0.4235    6.5985 O   0  0  0  0  0  0  0  0  0  0  0  0
    2.9735   -0.6614    4.4423 C   0  0  1  0  0  0  0  0  0  0  0  0
    3.7850    0.5202    4.3751 O   0  0  0  0  0  0  0  0  0  0  0  0
    4.7968    0.8645    5.1969 C   0  0  0  0  0  0  0  0  0  0  0  0
    5.4347   -0.2200    6.0818 C   0  0  0  0  0  0  0  0  0  0  0  0
    5.1041    2.0195    5.3389 O   0  0  0  0  0  0  0  0  0  0  0  0
    0.5166   -0.4307    5.3274 C   0  0  2  0  0  0  0  0  0  0  0  0
    0.2364    0.9321    4.7010 C   0  0  0  0  0  0  0  0  0  0  0  0
   -0.8928    1.5264    5.1303 C   0  0  0  0  0  0  0  0  0  0  0  0
   -1.5365    2.8162    4.7029 C   0  0  0  0  0  0  0  0  0  0  0  0
   -1.4804    0.6913    6.1757 C   0  0  0  0  0  0  0  0  0  0  0  0
   -2.5274    0.8932    6.7909 O   0  0  0  0  0  0  0  0  0  0  0  0
   -0.5705   -0.4938    6.4554 C   0  0  2  0  0  0  0  0  0  0  0  0
   -0.0984   -0.2987    7.7698 O   0  0  0  0  0  0  0  0  0  0  0  0
   -1.3521   -1.6269    6.3753 O   0  0  0  0  0  0  0  0  0  0  0  0
   -0.8662   -2.9091    5.9950 C   0  0  0  0  0  0  0  0  0  0  0  0
   -0.0014   -3.8143    6.9066 C   0  0  1  0  0  0  0  0  0  0  0  0
   -0.9000   -4.0891    7.9786 O   0  0  0  0  0  0  0  0  0  0  0  0
    0.2729   -5.4179    5.9126 S   0  0  0  0  0  0  0  0  0  0  0  0
   -0.5405   -5.5099    4.6211 O   0  0  0  0  0  0  0  0  0  0  0  0
    2.1082   -5.7875    5.7063 C   0  0  2  0  0  0  0  0  0  0  0  0
    2.1334   -7.3014    6.0388 C   0  0  0  0  0  0  0  0  0  0  0  0
    2.9099   -5.2485    6.7676 O   0  0  0  0  0  0  0  0  0  0  0  0
    2.3113   -4.5607    7.9155 C   0  0  0  0  0  0  0  0  0  0  0  0
    1.5967   -5.5849    8.8480 C   0  0  0  0  0  0  0  0  0  0  0  0
    3.6362   -4.2748    8.6853 C   0  0  0  0  0  0  0  0  0  0  0  0
    1.3798   -3.2545    7.5356 C   0  0  1  0  0  0  0  0  0  0  0  0
    1.0260   -2.6707    8.7843 O   0  0  0  0  0  0  0  0  0  0  0  0
    2.7247   -5.6144    4.1467 C   0  0  1  0  0  0  0  0  0  0  0  0
    1.6614   -5.5153    3.1724 O   0  0  0  0  0  0  0  0  0  0  0  0
    1.2051   -6.5358    2.3801 C   0  0  0  0  0  0  0  0  0  0  0  0
    1.8840   -7.9233    2.5834 C   0  0  0  0  0  0  0  0  0  0  0  0
    0.2961   -6.3739    1.5709 O   0  0  0  0  0  0  0  0  0  0  0  0
    3.9603   -4.6836    3.5554 C   0  0  1  0  0  0  0  0  0  0  0  0
    5.1997   -4.9461    4.4689 C   0  0  0  0  0  0  0  0  0  0  0  0
    5.4119   -5.9322   -0.5525 H   0  0  0  0  0  0  0  0  0  0  0  0
    3.6635   -6.1221   -0.2868 H   0  0  0  0  0  0  0  0  0  0  0  0
    4.5429   -7.3878   -1.1017 H   0  0  0  0  0  0  0  0  0  0  0  0
    3.4268   -5.2447    1.5735 H   0  0  0  0  0  0  0  0  0  0  0  0
    6.2918   -4.3839    1.8996 H   0  0  0  0  0  0  0  0  0  0  0  0
    5.3703   -4.3376    0.4046 H   0  0  0  0  0  0  0  0  0  0  0  0
    5.6723   -0.8894    2.1289 H   0  0  0  0  0  0  0  0  0  0  0  0
    6.5726   -1.9760    1.0736 H   0  0  0  0  0  0  0  0  0  0  0  0
    6.5595   -2.2646    2.7800 H   0  0  0  0  0  0  0  0  0  0  0  0
    3.4414   -1.3730    0.8725 H   0  0  0  0  0  0  0  0  0  0  0  0
    3.0796   -3.0366    0.3784 H   0  0  0  0  0  0  0  0  0  0  0  0
    4.5022   -2.2201   -0.2472 H   0  0  0  0  0  0  0  0  0  0  0  0
    2.7406   -3.0675    2.6723 H   0  0  0  0  0  0  0  0  0  0  0  0
    4.9574   -1.5812    4.0811 H   0  0  0  0  0  0  0  0  0  0  0  0
    2.9018   -0.9795    8.2369 H   0  0  0  0  0  0  0  0  0  0  0  0
    2.2509    1.1779    6.0458 H   0  0  0  0  0  0  0  0  0  0  0  0
    2.3140   -0.6070    3.5525 H   0  0  0  0  0  0  0  0  0  0  0  0
    5.9053   -1.0747    5.5369 H   0  0  0  0  0  0  0  0  0  0  0  0
    4.5578   -0.5081    6.5796 H   0  0  0  0  0  0  0  0  0  0  0  0
    6.0483    0.2178    6.8584 H   0  0  0  0  0  0  0  0  0  0  0  0
    0.2567   -1.0881    4.5077 H   0  0  0  0  0  0  0  0  0  0  0  0
    0.8630    1.3505    3.9318 H   0  0  0  0  0  0  0  0  0  0  0  0
   -1.6785    3.4752    5.5633 H   0  0  0  0  0  0  0  0  0  0  0  0
   -2.5215    2.6217    4.2705 H   0  0  0  0  0  0  0  0  0  0  0  0
   -0.9361    3.3379    3.9614 H   0  0  0  0  0  0  0  0  0  0  0  0
    0.6428   -0.8450    7.9480 H   0  0  0  0  0  0  0  0  0  0  0  0
   -1.7986   -3.4362    5.9754 H   0  0  0  0  0  0  0  0  0  0  0  0
   -0.5515   -2.9238    4.9475 H   0  0  0  0  0  0  0  0  0  0  0  0
   -0.3886   -4.4321    8.6817 H   0  0  0  0  0  0  0  0  0  0  0  0
    3.1482   -7.6955    5.9780 H   0  0  0  0  0  0  0  0  0  0  0  0
    1.4716   -7.8641    5.4039 H   0  0  0  0  0  0  0  0  0  0  0  0
    1.7989   -7.4677    7.0652 H   0  0  0  0  0  0  0  0  0  0  0  0
    1.2746   -5.1015    9.7683 H   0  0  0  0  0  0  0  0  0  0  0  0
    2.2689   -6.3953    9.1218 H   0  0  0  0  0  0  0  0  0  0  0  0
    0.7190   -6.0618    8.4135 H   0  0  0  0  0  0  0  0  0  0  0  0
    3.4831   -3.6119    9.5277 H   0  0  0  0  0  0  0  0  0  0  0  0
    4.3970   -3.8523    8.0315 H   0  0  0  0  0  0  0  0  0  0  0  0
    4.0908   -5.1870    9.0735 H   0  0  0  0  0  0  0  0  0  0  0  0
    1.8382   -2.4747    9.1917 H   0  0  0  0  0  0  0  0  0  0  0  0
    3.1969   -6.5747    4.0363 H   0  0  0  0  0  0  0  0  0  0  0  0
    2.9784   -7.8011    2.5700 H   0  0  0  0  0  0  0  0  0  0  0  0
    1.6087   -8.6153    1.7822 H   0  0  0  0  0  0  0  0  0  0  0  0
    1.6163   -8.3453    3.5441 H   0  0  0  0  0  0  0  0  0  0  0  0
    5.0067   -4.7542    5.5242 H   0  0  0  0  0  0  0  0  0  0  0  0
    6.0536   -4.3380    4.1815 H   0  0  0  0  0  0  0  0  0  0  0  0
    5.5248   -5.9904    4.4351 H   0  0  0  0  0  0  0  0  0  0  0  0
  1  2  1  0
  1 53  1  0
  1 54  1  0
  1 55  1  0
  2  3  2  0
  2  4  1  0
  4  5  1  0
  5 51  1  0
  5  6  1  0
  5 56  1  6
  6  7  1  0
  6 57  1  0
  6 58  1  0
  7  8  1  0
  7  9  1  0
  7 10  1  0
  8 59  1  0
  8 60  1  0
  8 61  1  0
  9 62  1  0
  9 63  1  0
  9 64  1  0
 10 51  1  0
 10 11  1  0
 10 65  1  6
 11 19  1  0
 11 12  1  0
 11 66  1  6
 12 13  1  0
 13 14  2  0
 13 15  1  0
 15 44  1  0
 15 16  1  1
 15 17  1  0
 16 67  1  0
 17 18  1  1
 17 19  1  0
 17 24  1  0
 18 68  1  0
 19 20  1  0
 19 69  1  6
 20 21  1  0
 21 22  1  0
 21 23  2  0
 22 70  1  0
 22 71  1  0
 22 72  1  0
 24 30  1  0
 24 25  1  0
 24 73  1  6
 25 26  2  0
 25 74  1  0
 26 27  1  0
 26 28  1  0
 27 75  1  0
 27 76  1  0
 27 77  1  0
 28 29  2  0
 28 30  1  0
 30 31  1  1
 30 32  1  0
 31 78  1  0
 32 33  1  0
 33 34  1  0
 33 79  1  0
 33 80  1  0
 34 44  1  0
 34 35  1  1
 36 34  1  6
 35 81  1  0
 36 37  2  0
 36 38  1  0
 38 39  1  1
 38 40  1  0
 38 46  1  0
 39 82  1  0
 39 83  1  0
 39 84  1  0
 40 41  1  0
 41 42  1  0
 41 43  1  0
 41 44  1  0
 42 85  1  0
 42 86  1  0
 42 87  1  0
 43 88  1  0
 43 89  1  0
 43 90  1  0
 44 45  1  1
 45 91  1  0
 46 47  1  0
 46 51  1  0
 46 92  1  6
 47 48  1  0
 48 49  1  0
 48 50  2  0
 49 93  1  0
 49 94  1  0
 49 95  1  0
 51 52  1  1
 52 96  1  0
 52 97  1  0
 52 98  1  0
M  END
>  <i_m_ct_stereo_status>  (2) 
1

>  <s_m_source_file>  (2) 
/var/tmp/pbs.5075288.sched01/tmp54n0lgpy/0in2gyumd.sdf

>  <i_m_source_file_index>  (2) 
1

>  <i_lp_mmshare_version>  (2) 
48012

>  <i_f3d_flags>  (2) 
0

>  <s_epik_input>  (2) 
W0NIM11DKD1PKU9bQ0BASF0xW0NIMl1DKFtDSDNdKShbQ0gzXSlbQ0BIXShbQ0BIXShPQzI9TylbQ0BASF0zT0MoPU8pW0NIM10pW0NAQF0xKFtDSDNdKVtDQEhdKE9DKD1PKVtDSDNdKVtDQEBdKFtTK100W08tXSkoW0NIM10pT0MoW0NIM10pKFtDSDNdKVtDQF01KFtPSF0pW0NAQF00KFtPSF0pW0NIMl1PW0NAXShbT0hdKShDKD1PKUMoPVtDSF02KVtDSDNdKVtDQEBIXTZbQ0BAXTMoW09IXSlbQ0BdMjVbT0hd

>  <s_epik_cmdline>  (2) 
J2VwaWtfcHl0aG9uJywgJy1waHQnLCAnMi4wJywgJy1waCcsICc3LjAnLCAnLXRuJywgJzgnLCAnLW1hJywgJzIwMCcsICctaW1hZScsICc8aW5maWxlLm1hZT4nLCAnLW9tYWUnLCAnPG91dGZpbGUubWFlPic=

>  <r_epik_Ionization_Penalty>  (2) 
0.000417897

>  <r_epik_Ionization_Penalty_Charging>  (2) 
0

>  <r_epik_Ionization_Penalty_Neutral>  (2) 
0.000417897

>  <r_epik_State_Penalty>  (2) 
0.000198492

>  <r_epik_Charging_Adjusted_Penalty>  (2) 
0.000198492

>  <i_epik_Tot_Q>  (2) 
0

>  <i_epik_Tot_abs_Q>  (2) 
2

>  <s_epik_Chemistry_Notes>  (2) 
This compound has an ester and may undergo hydrolysis at high or low pH.

>  <s_lp_Force_Field>  (2) 
OPLS3e

>  <r_lp_Energy>  (2) 
251.345

>  <b_lp_Chiralities_Consistent>  (2) 
1

>  <s_lp_Variant>  (2) 
0:0-1

>  <s_i_glide_gridfile>  (2) 
pfpi4k_grid

>  <i_i_glide_lignum>  (2) 
1

>  <i_i_glide_rotatable_bonds>  (2) 
11

>  <r_i_docking_score>  (2) 
-3.14072

>  <r_i_glide_ligand_efficiency>  (2) 
-0.0603985

>  <r_i_glide_ligand_efficiency_sa>  (2) 
-0.225438

>  <r_i_glide_ligand_efficiency_ln>  (2) 
-0.63433

>  <r_i_glide_gscore>  (2) 
-3.14072

>  <r_i_glide_lipo>  (2) 
-0.204876

>  <r_i_glide_hbond>  (2) 
-0.3883

>  <r_i_glide_metal>  (2) 
-0

>  <r_i_glide_rewards>  (2) 
-0.642412

>  <r_i_glide_evdw>  (2) 
-19.8703

>  <r_i_glide_ecoul>  (2) 
-10.3155

>  <r_i_glide_erotb>  (2) 
0.112794

>  <r_i_glide_esite>  (2) 
-0.166222

>  <r_i_glide_emodel>  (2) 
-30.268

>  <r_i_glide_energy>  (2) 
-30.1857

>  <r_i_glide_einternal>  (2) 
18.617

>  <r_i_glide_intrahb_reward>  (2) 
-0.5

>  <i_i_glide_confnum>  (2) 
4

>  <i_i_glide_posenum>  (2) 
8

>  <r_i_glide_eff_state_penalty>  (2) 
0

>  <ligand_id>  (2) 
0

>  <original_smiles>  (2) 
CC(=O)OC1CC(C)(C)C2C3OC(=O)C4(O)C(O)(C3OC(C)=O)C3C=C(C)C(=O)C3(O)OCC3(O)[S+]([O-])C(C)(OC(C)(C)C34O)C(OC(C)=O)C12C

>  <smiles>  (2) 
[H]OC12OC([H])([H])C3(O[H])S(=O)C4(C([H])([H])[H])OC(C([H])([H])[H])(C([H])([H])[H])C3(O[H])C3(O[H])C(=O)OC([H])(C([H])(OC(=O)C([H])([H])[H])C3(O[H])C1([H])C([H])=C(C([H])([H])[H])C2=O)C1([H])C(C([H])([H])[H])(C([H])([H])[H])C([H])([H])C([H])(OC(=O)C([H])([H])[H])C1(C([H])([H])[H])C4([H])OC(=O)C([H])([H])[H]

$$$$
0:0:2
     RDKit          3D

 98103  0  0  1  0  0  0  0  0999 V2000
    5.3689   -9.7287    1.6663 C   0  0  0  0  0  0  0  0  0  0  0  0
    4.8719   -8.3395    1.2844 C   0  0  0  0  0  0  0  0  0  0  0  0
    4.6272   -8.0580    0.1362 O   0  0  0  0  0  0  0  0  0  0  0  0
    4.7324   -7.5382    2.3709 O   0  0  0  0  0  0  0  0  0  0  0  0
    4.1722   -6.2229    2.2467 C   0  0  2  0  0  0  0  0  0  0  0  0
    5.0972   -5.3164    1.4392 C   0  0  0  0  0  0  0  0  0  0  0  0
    4.6004   -3.8965    1.6792 C   0  0  0  0  0  0  0  0  0  0  0  0
    5.8708   -2.9936    1.6749 C   0  0  0  0  0  0  0  0  0  0  0  0
    3.7310   -3.4267    0.5094 C   0  0  0  0  0  0  0  0  0  0  0  0
    3.7364   -3.9713    3.0075 C   0  0  2  0  0  0  0  0  0  0  0  0
    4.0332   -2.7050    3.9863 C   0  0  2  0  0  0  0  0  0  0  0  0
    3.9599   -3.2757    5.2543 O   0  0  0  0  0  0  0  0  0  0  0  0
    2.7321   -3.4368    5.6206 C   0  0  0  0  0  0  0  0  0  0  0  0
    1.8130   -3.7882    4.8779 O   0  0  0  0  0  0  0  0  0  0  0  0
    2.4001   -2.5376    6.7000 C   0  0  1  0  0  0  0  0  0  0  0  0
    3.4787   -2.1328    7.5312 O   0  0  0  0  0  0  0  0  0  0  0  0
    2.1659   -1.2794    5.6286 C   0  0  1  0  0  0  0  0  0  0  0  0
    2.5649   -0.0975    6.3507 O   0  0  0  0  0  0  0  0  0  0  0  0
    3.1056   -1.3699    4.2135 C   0  0  1  0  0  0  0  0  0  0  0  0
    3.9151   -0.2170    4.0111 O   0  0  0  0  0  0  0  0  0  0  0  0
    4.9724    0.1602    4.7681 C   0  0  0  0  0  0  0  0  0  0  0  0
    5.6680   -0.8929    5.6433 C   0  0  0  0  0  0  0  0  0  0  0  0
    5.3347    1.3493    4.8832 O   0  0  0  0  0  0  0  0  0  0  0  0
    0.6871   -0.9924    5.1938 C   0  0  2  0  0  0  0  0  0  0  0  0
    0.4214    0.3282    4.4640 C   0  0  0  0  0  0  0  0  0  0  0  0
   -0.6545    0.9861    4.8919 C   0  0  0  0  0  0  0  0  0  0  0  0
   -1.3005    2.2607    4.3864 C   0  0  0  0  0  0  0  0  0  0  0  0
   -1.2130    0.2720    6.0070 C   0  0  0  0  0  0  0  0  0  0  0  0
   -2.2512    0.5593    6.6256 O   0  0  0  0  0  0  0  0  0  0  0  0
   -0.3355   -0.9314    6.3675 C   0  0  2  0  0  0  0  0  0  0  0  0
    0.2369   -0.6490    7.6376 O   0  0  0  0  0  0  0  0  0  0  0  0
   -1.1896   -2.0292    6.4143 O   0  0  0  0  0  0  0  0  0  0  0  0
   -0.7701   -3.3660    6.1211 C   0  0  0  0  0  0  0  0  0  0  0  0
    0.1244   -4.1985    7.0793 C   0  0  1  0  0  0  0  0  0  0  0  0
   -0.7182   -4.3394    8.2231 O   0  0  0  0  0  0  0  0  0  0  0  0
    0.2867   -5.8715    6.1946 S   0  0  0  0  0  0  0  0  0  0  0  0
   -0.5458   -5.9008    4.9199 O   0  0  0  0  0  0  0  0  0  0  0  0
    2.1169   -6.3357    5.9432 C   0  0  2  0  0  0  0  0  0  0  0  0
    2.1130   -7.8149    6.4204 C   0  0  0  0  0  0  0  0  0  0  0  0
    2.9883   -5.7393    6.9236 O   0  0  0  0  0  0  0  0  0  0  0  0
    2.4748   -4.9421    8.0322 C   0  0  0  0  0  0  0  0  0  0  0  0
    1.7880   -5.8499    9.0861 C   0  0  0  0  0  0  0  0  0  0  0  0
    3.8459   -4.6326    8.7077 C   0  0  0  0  0  0  0  0  0  0  0  0
    1.5530   -3.6419    7.5800 C   0  0  1  0  0  0  0  0  0  0  0  0
    1.2861   -2.9290    8.7783 O   0  0  0  0  0  0  0  0  0  0  0  0
    2.6630   -6.3343    4.3594 C   0  0  1  0  0  0  0  0  0  0  0  0
    1.5663   -6.2869    3.4311 O   0  0  0  0  0  0  0  0  0  0  0  0
    1.0345   -7.3459    2.7806 C   0  0  0  0  0  0  0  0  0  0  0  0
    1.6392   -8.7363    3.0658 C   0  0  0  0  0  0  0  0  0  0  0  0
    0.0582   -7.2009    2.0056 O   0  0  0  0  0  0  0  0  0  0  0  0
    3.8865   -5.5115    3.6145 C   0  0  1  0  0  0  0  0  0  0  0  0
    5.1696   -5.7167    4.4763 C   0  0  0  0  0  0  0  0  0  0  0  0
    4.6142  -10.2716    2.2403 H   0  0  0  0  0  0  0  0  0  0  0  0
    6.2860   -9.6352    2.2401 H   0  0  0  0  0  0  0  0  0  0  0  0
    5.5687  -10.2867    0.7515 H   0  0  0  0  0  0  0  0  0  0  0  0
    3.2462   -6.2805    1.6768 H   0  0  0  0  0  0  0  0  0  0  0  0
    6.1200   -5.4603    1.7954 H   0  0  0  0  0  0  0  0  0  0  0  0
    5.1085   -5.5646    0.3746 H   0  0  0  0  0  0  0  0  0  0  0  0
    5.6389   -1.9341    1.7922 H   0  0  0  0  0  0  0  0  0  0  0  0
    6.4431   -3.0965    0.7399 H   0  0  0  0  0  0  0  0  0  0  0  0
    6.5650   -3.2933    2.4530 H   0  0  0  0  0  0  0  0  0  0  0  0
    3.3483   -2.4235    0.7009 H   0  0  0  0  0  0  0  0  0  0  0  0
    2.8904   -4.1022    0.3529 H   0  0  0  0  0  0  0  0  0  0  0  0
    4.3105   -3.3933   -0.4163 H   0  0  0  0  0  0  0  0  0  0  0  0
    2.6752   -3.9286    2.6541 H   0  0  0  0  0  0  0  0  0  0  0  0
    5.0294   -2.4031    3.8379 H   0  0  0  0  0  0  0  0  0  0  0  0
    3.2039   -1.3663    7.9971 H   0  0  0  0  0  0  0  0  0  0  0  0
    1.9275    0.0951    7.0252 H   0  0  0  0  0  0  0  0  0  0  0  0
    2.3934   -1.3696    3.3698 H   0  0  0  0  0  0  0  0  0  0  0  0
    6.1601   -1.6386    5.0444 H   0  0  0  0  0  0  0  0  0  0  0  0
    4.8686   -1.2369    6.1720 H   0  0  0  0  0  0  0  0  0  0  0  0
    6.3336   -0.3834    6.3922 H   0  0  0  0  0  0  0  0  0  0  0  0
    0.3601   -1.7070    4.4356 H   0  0  0  0  0  0  0  0  0  0  0  0
    1.0215    0.6587    3.6248 H   0  0  0  0  0  0  0  0  0  0  0  0
   -1.3791    2.9930    5.1920 H   0  0  0  0  0  0  0  0  0  0  0  0
   -2.3121    2.0619    4.0243 H   0  0  0  0  0  0  0  0  0  0  0  0
   -0.7252    2.7004    3.5695 H   0  0  0  0  0  0  0  0  0  0  0  0
    0.7716   -1.3702    7.9397 H   0  0  0  0  0  0  0  0  0  0  0  0
   -1.7170   -3.8950    6.1327 H   0  0  0  0  0  0  0  0  0  0  0  0
   -0.4779   -3.4705    5.0783 H   0  0  0  0  0  0  0  0  0  0  0  0
   -0.1349   -4.4658    8.9620 H   0  0  0  0  0  0  0  0  0  0  0  0
    3.1179   -8.2507    6.3455 H   0  0  0  0  0  0  0  0  0  0  0  0
    1.4040   -8.4104    5.8974 H   0  0  0  0  0  0  0  0  0  0  0  0
    1.8691   -7.8674    7.4961 H   0  0  0  0  0  0  0  0  0  0  0  0
    1.5339   -5.2809    9.9808 H   0  0  0  0  0  0  0  0  0  0  0  0
    2.4526   -6.6582    9.3990 H   0  0  0  0  0  0  0  0  0  0  0  0
    0.8767   -6.3298    8.7437 H   0  0  0  0  0  0  0  0  0  0  0  0
    3.7614   -3.8977    9.5042 H   0  0  0  0  0  0  0  0  0  0  0  0
    4.5885   -4.2957    7.9903 H   0  0  0  0  0  0  0  0  0  0  0  0
    4.2979   -5.5272    9.1543 H   0  0  0  0  0  0  0  0  0  0  0  0
    2.1373   -2.7635    9.1509 H   0  0  0  0  0  0  0  0  0  0  0  0
    3.1061   -7.3201    4.3132 H   0  0  0  0  0  0  0  0  0  0  0  0
    2.7428   -8.6929    2.9485 H   0  0  0  0  0  0  0  0  0  0  0  0
    1.2854   -9.5018    2.3355 H   0  0  0  0  0  0  0  0  0  0  0  0
    1.4260   -9.0594    4.0537 H   0  0  0  0  0  0  0  0  0  0  0  0
    5.0366   -5.4312    5.5164 H   0  0  0  0  0  0  0  0  0  0  0  0
    6.0323   -5.1657    4.1008 H   0  0  0  0  0  0  0  0  0  0  0  0
    5.4657   -6.7688    4.5353 H   0  0  0  0  0  0  0  0  0  0  0  0
  1  2  1  0
  1 53  1  0
  1 54  1  0
  1 55  1  0
  2  3  2  0
  2  4  1  0
  4  5  1  0
  5 51  1  0
  5  6  1  0
  5 56  1  6
  6  7  1  0
  6 57  1  0
  6 58  1  0
  7  8  1  0
  7  9  1  0
  7 10  1  0
  8 59  1  0
  8 60  1  0
  8 61  1  0
  9 62  1  0
  9 63  1  0
  9 64  1  0
 10 51  1  0
 10 11  1  0
 10 65  1  6
 11 19  1  0
 11 12  1  0
 11 66  1  6
 12 13  1  0
 13 14  2  0
 13 15  1  0
 15 44  1  0
 15 16  1  1
 15 17  1  0
 16 67  1  0
 17 18  1  1
 17 19  1  0
 17 24  1  0
 18 68  1  0
 19 20  1  0
 19 69  1  6
 20 21  1  0
 21 22  1  0
 21 23  2  0
 22 70  1  0
 22 71  1  0
 22 72  1  0
 24 30  1  0
 24 25  1  0
 24 73  1  6
 25 26  2  0
 25 74  1  0
 26 27  1  0
 26 28  1  0
 27 75  1  0
 27 76  1  0
 27 77  1  0
 28 29  2  0
 28 30  1  0
 30 31  1  1
 30 32  1  0
 31 78  1  0
 32 33  1  0
 33 34  1  0
 33 79  1  0
 33 80  1  0
 34 44  1  0
 34 35  1  1
 36 34  1  6
 35 81  1  0
 36 37  2  0
 36 38  1  0
 38 39  1  1
 38 40  1  0
 38 46  1  0
 39 82  1  0
 39 83  1  0
 39 84  1  0
 40 41  1  0
 41 42  1  0
 41 43  1  0
 41 44  1  0
 42 85  1  0
 42 86  1  0
 42 87  1  0
 43 88  1  0
 43 89  1  0
 43 90  1  0
 44 45  1  1
 45 91  1  0
 46 47  1  0
 46 51  1  0
 46 92  1  6
 47 48  1  0
 48 49  1  0
 48 50  2  0
 49 93  1  0
 49 94  1  0
 49 95  1  0
 51 52  1  1
 52 96  1  0
 52 97  1  0
 52 98  1  0
M  END
>  <i_m_ct_stereo_status>  (3) 
1

>  <s_m_source_file>  (3) 
/var/tmp/pbs.5075288.sched01/tmp54n0lgpy/0in2gyumd.sdf

>  <i_m_source_file_index>  (3) 
1

>  <i_lp_mmshare_version>  (3) 
48012

>  <i_f3d_flags>  (3) 
0

>  <s_epik_input>  (3) 
W0NIM11DKD1PKU9bQ0BASF0xW0NIMl1DKFtDSDNdKShbQ0gzXSlbQ0BIXShbQ0BIXShPQzI9TylbQ0BASF0zT0MoPU8pW0NIM10pW0NAQF0xKFtDSDNdKVtDQEhdKE9DKD1PKVtDSDNdKVtDQEBdKFtTK100W08tXSkoW0NIM10pT0MoW0NIM10pKFtDSDNdKVtDQF01KFtPSF0pW0NAQF00KFtPSF0pW0NIMl1PW0NAXShbT0hdKShDKD1PKUMoPVtDSF02KVtDSDNdKVtDQEBIXTZbQ0BAXTMoW09IXSlbQ0BdMjVbT0hd

>  <s_epik_cmdline>  (3) 
J2VwaWtfcHl0aG9uJywgJy1waHQnLCAnMi4wJywgJy1waCcsICc3LjAnLCAnLXRuJywgJzgnLCAnLW1hJywgJzIwMCcsICctaW1hZScsICc8aW5maWxlLm1hZT4nLCAnLW9tYWUnLCAnPG91dGZpbGUubWFlPic=

>  <r_epik_Ionization_Penalty>  (3) 
0.000417897

>  <r_epik_Ionization_Penalty_Charging>  (3) 
0

>  <r_epik_Ionization_Penalty_Neutral>  (3) 
0.000417897

>  <r_epik_State_Penalty>  (3) 
0.000198492

>  <r_epik_Charging_Adjusted_Penalty>  (3) 
0.000198492

>  <i_epik_Tot_Q>  (3) 
0

>  <i_epik_Tot_abs_Q>  (3) 
2

>  <s_epik_Chemistry_Notes>  (3) 
This compound has an ester and may undergo hydrolysis at high or low pH.

>  <s_lp_Force_Field>  (3) 
OPLS3e

>  <r_lp_Energy>  (3) 
251.345

>  <b_lp_Chiralities_Consistent>  (3) 
1

>  <s_lp_Variant>  (3) 
0:0-1

>  <s_i_glide_gridfile>  (3) 
pfpi4k_grid

>  <i_i_glide_lignum>  (3) 
1

>  <i_i_glide_rotatable_bonds>  (3) 
11

>  <r_i_docking_score>  (3) 
-2.69517

>  <r_i_glide_ligand_efficiency>  (3) 
-0.0518303

>  <r_i_glide_ligand_efficiency_sa>  (3) 
-0.193457

>  <r_i_glide_ligand_efficiency_ln>  (3) 
-0.544343

>  <r_i_glide_gscore>  (3) 
-2.69517

>  <r_i_glide_lipo>  (3) 
-0.165814

>  <r_i_glide_hbond>  (3) 
-0.16

>  <r_i_glide_metal>  (3) 
-0

>  <r_i_glide_rewards>  (3) 
-0.631957

>  <r_i_glide_evdw>  (3) 
-28.7933

>  <r_i_glide_ecoul>  (3) 
-8.51666

>  <r_i_glide_erotb>  (3) 
0.112794

>  <r_i_glide_esite>  (3) 
-0.137967

>  <r_i_glide_emodel>  (3) 
-37.5454

>  <r_i_glide_energy>  (3) 
-37.31

>  <r_i_glide_einternal>  (3) 
15.0291

>  <r_i_glide_intrahb_reward>  (3) 
-0.5

>  <i_i_glide_confnum>  (3) 
4

>  <i_i_glide_posenum>  (3) 
2

>  <r_i_glide_eff_state_penalty>  (3) 
0

>  <ligand_id>  (3) 
0

>  <original_smiles>  (3) 
CC(=O)OC1CC(C)(C)C2C3OC(=O)C4(O)C(O)(C3OC(C)=O)C3C=C(C)C(=O)C3(O)OCC3(O)[S+]([O-])C(C)(OC(C)(C)C34O)C(OC(C)=O)C12C

>  <smiles>  (3) 
[H]OC12OC([H])([H])C3(O[H])S(=O)C4(C([H])([H])[H])OC(C([H])([H])[H])(C([H])([H])[H])C3(O[H])C3(O[H])C(=O)OC([H])(C([H])(OC(=O)C([H])([H])[H])C3(O[H])C1([H])C([H])=C(C([H])([H])[H])C2=O)C1([H])C(C([H])([H])[H])(C([H])([H])[H])C([H])([H])C([H])(OC(=O)C([H])([H])[H])C1(C([H])([H])[H])C4([H])OC(=O)C([H])([H])[H]

$$$$
0:1:0
     RDKit          3D

 98103  0  0  1  0  0  0  0  0999 V2000
    5.6736   -0.9538   -0.0177 C   0  0  0  0  0  0  0  0  0  0  0  0
    6.6685   -1.1552    1.1163 C   0  0  0  0  0  0  0  0  0  0  0  0
    7.8783   -1.1314    0.8854 O   0  0  0  0  0  0  0  0  0  0  0  0
    6.1800   -1.4602    2.3346 O   0  0  0  0  0  0  0  0  0  0  0  0
    4.8970   -2.0760    2.5315 C   0  0  2  0  0  0  0  0  0  0  0  0
    3.9025   -1.1001    3.1107 C   0  0  0  0  0  0  0  0  0  0  0  0
    2.6731   -1.9705    3.4591 C   0  0  0  0  0  0  0  0  0  0  0  0
    2.0757   -1.4199    4.7709 C   0  0  0  0  0  0  0  0  0  0  0  0
    1.6188   -1.8312    2.3489 C   0  0  0  0  0  0  0  0  0  0  0  0
    3.1894   -3.4639    3.5042 C   0  0  2  0  0  0  0  0  0  0  0  0
    2.5551   -4.3393    4.7121 C   0  0  2  0  0  0  0  0  0  0  0  0
    3.5974   -5.1286    5.1353 O   0  0  0  0  0  0  0  0  0  0  0  0
    3.7670   -6.1221    4.3372 C   0  0  0  0  0  0  0  0  0  0  0  0
    3.6312   -6.0749    3.1146 O   0  0  0  0  0  0  0  0  0  0  0  0
    3.4136   -7.3469    4.9883 C   0  0  1  0  0  0  0  0  0  0  0  0
    3.5171   -7.2773    6.4063 O   0  0  0  0  0  0  0  0  0  0  0  0
    1.7978   -7.0811    4.6915 C   0  0  1  0  0  0  0  0  0  0  0  0
    1.0291   -7.6814    5.7398 O   0  0  0  0  0  0  0  0  0  0  0  0
    1.3450   -5.4439    4.6029 C   0  0  1  0  0  0  0  0  0  0  0  0
    0.2783   -5.0614    5.4751 O   0  0  0  0  0  0  0  0  0  0  0  0
    0.4583   -4.9502    6.8109 C   0  0  0  0  0  0  0  0  0  0  0  0
   -0.7583   -4.3943    7.5214 C   0  0  0  0  0  0  0  0  0  0  0  0
    1.4761   -5.2305    7.4408 O   0  0  0  0  0  0  0  0  0  0  0  0
    1.2611   -7.7994    3.4195 C   0  0  2  0  0  0  0  0  0  0  0  0
   -0.2519   -7.8062    3.2869 C   0  0  0  0  0  0  0  0  0  0  0  0
   -0.7396   -8.9608    2.9266 C   0  0  0  0  0  0  0  0  0  0  0  0
   -2.1780   -9.3351    2.6489 C   0  0  0  0  0  0  0  0  0  0  0  0
    0.3132   -9.9596    2.8479 C   0  0  0  0  0  0  0  0  0  0  0  0
    0.2645  -11.1148    2.4723 O   0  0  0  0  0  0  0  0  0  0  0  0
    1.6064   -9.3311    3.3018 C   0  0  2  0  0  0  0  0  0  0  0  0
    1.9067   -9.9624    4.5224 O   0  0  0  0  0  0  0  0  0  0  0  0
    2.5433   -9.6396    2.3162 O   0  0  0  0  0  0  0  0  0  0  0  0
    3.5874   -8.7629    1.9177 C   0  0  0  0  0  0  0  0  0  0  0  0
    4.8220   -8.6020    2.8449 C   0  0  1  0  0  0  0  0  0  0  0  0
    5.4019   -9.9034    2.7531 O   0  0  0  0  0  0  0  0  0  0  0  0
    5.8364   -7.3465    1.8478 S   0  0  0  0  0  0  0  0  0  0  0  0
    7.0636   -8.0645    1.2776 O   0  0  0  0  0  0  0  0  0  0  0  0
    6.4655   -5.9497    2.9562 C   0  0  2  0  0  0  0  0  0  0  0  0
    8.0297   -5.9111    2.7553 C   0  0  0  0  0  0  0  0  0  0  0  0
    6.4217   -6.2613    4.3545 O   0  0  0  0  0  0  0  0  0  0  0  0
    6.1589   -7.6041    4.8606 C   0  0  0  0  0  0  0  0  0  0  0  0
    7.3669   -8.5434    4.5552 C   0  0  0  0  0  0  0  0  0  0  0  0
    6.3233   -7.3073    6.3751 C   0  0  0  0  0  0  0  0  0  0  0  0
    4.6920   -8.2116    4.4137 C   0  0  1  0  0  0  0  0  0  0  0  0
    4.5943   -9.4339    5.1290 O   0  0  0  0  0  0  0  0  0  0  0  0
    5.7430   -4.5094    2.5140 C   0  0  1  0  0  0  0  0  0  0  0  0
    5.1363   -4.6232    1.2030 O   0  0  0  0  0  0  0  0  0  0  0  0
    5.7284   -4.3226    0.0022 C   0  0  0  0  0  0  0  0  0  0  0  0
    7.2419   -4.0325    0.0251 C   0  0  0  0  0  0  0  0  0  0  0  0
    5.0989   -4.3093   -1.0530 O   0  0  0  0  0  0  0  0  0  0  0  0
    4.8270   -3.4014    3.3673 C   0  0  1  0  0  0  0  0  0  0  0  0
    5.3999   -3.1692    4.7944 C   0  0  0  0  0  0  0  0  0  0  0  0
    4.9967   -0.1185    0.1867 H   0  0  0  0  0  0  0  0  0  0  0  0
    5.1204   -1.8815   -0.1660 H   0  0  0  0  0  0  0  0  0  0  0  0
    6.2388   -0.7847   -0.9424 H   0  0  0  0  0  0  0  0  0  0  0  0
    4.4744   -2.3484    1.5767 H   0  0  0  0  0  0  0  0  0  0  0  0
    4.3204   -0.6083    3.9920 H   0  0  0  0  0  0  0  0  0  0  0  0
    3.6639   -0.3068    2.3959 H   0  0  0  0  0  0  0  0  0  0  0  0
    1.1523   -1.9292    5.0369 H   0  0  0  0  0  0  0  0  0  0  0  0
    1.8399   -0.3601    4.6703 H   0  0  0  0  0  0  0  0  0  0  0  0
    2.7736   -1.5090    5.6039 H   0  0  0  0  0  0  0  0  0  0  0  0
    0.7741   -2.4865    2.5463 H   0  0  0  0  0  0  0  0  0  0  0  0
    2.0219   -2.0908    1.3682 H   0  0  0  0  0  0  0  0  0  0  0  0
    1.2363   -0.8141    2.2745 H   0  0  0  0  0  0  0  0  0  0  0  0
    2.8643   -3.9115    2.5615 H   0  0  0  0  0  0  0  0  0  0  0  0
    2.3854   -3.6842    5.5570 H   0  0  0  0  0  0  0  0  0  0  0  0
    3.2962   -8.1323    6.7377 H   0  0  0  0  0  0  0  0  0  0  0  0
    1.1595   -8.6227    5.6974 H   0  0  0  0  0  0  0  0  0  0  0  0
    0.9373   -5.3000    3.6020 H   0  0  0  0  0  0  0  0  0  0  0  0
   -1.6230   -5.0399    7.3726 H   0  0  0  0  0  0  0  0  0  0  0  0
   -0.9676   -3.3958    7.1431 H   0  0  0  0  0  0  0  0  0  0  0  0
   -0.5462   -4.3279    8.5876 H   0  0  0  0  0  0  0  0  0  0  0  0
    1.5050   -7.2662    2.5035 H   0  0  0  0  0  0  0  0  0  0  0  0
   -0.8869   -6.9407    3.4306 H   0  0  0  0  0  0  0  0  0  0  0  0
   -2.4377  -10.1027    3.2868 H   0  0  0  0  0  0  0  0  0  0  0  0
   -2.2757   -9.7757    1.6765 H   0  0  0  0  0  0  0  0  0  0  0  0
   -2.8538   -8.5022    2.7776 H   0  0  0  0  0  0  0  0  0  0  0  0
    1.8374  -10.8991    4.3854 H   0  0  0  0  0  0  0  0  0  0  0  0
    3.9387   -9.1951    0.9735 H   0  0  0  0  0  0  0  0  0  0  0  0
    3.2007   -7.8122    1.5645 H   0  0  0  0  0  0  0  0  0  0  0  0
    4.8908  -10.4239    2.1448 H   0  0  0  0  0  0  0  0  0  0  0  0
    8.4863   -5.0851    3.3357 H   0  0  0  0  0  0  0  0  0  0  0  0
    8.3414   -5.8232    1.7160 H   0  0  0  0  0  0  0  0  0  0  0  0
    8.4805   -6.8632    3.0585 H   0  0  0  0  0  0  0  0  0  0  0  0
    7.2413   -9.5194    5.0176 H   0  0  0  0  0  0  0  0  0  0  0  0
    8.3046   -8.1325    4.9338 H   0  0  0  0  0  0  0  0  0  0  0  0
    7.5397   -8.7304    3.5012 H   0  0  0  0  0  0  0  0  0  0  0  0
    5.9985   -8.1406    6.9953 H   0  0  0  0  0  0  0  0  0  0  0  0
    5.7811   -6.4134    6.6775 H   0  0  0  0  0  0  0  0  0  0  0  0
    7.3596   -7.0980    6.6358 H   0  0  0  0  0  0  0  0  0  0  0  0
    5.1572  -10.0506    4.6769 H   0  0  0  0  0  0  0  0  0  0  0  0
    6.6328   -3.9045    2.4356 H   0  0  0  0  0  0  0  0  0  0  0  0
    7.5315   -3.3909    0.8546 H   0  0  0  0  0  0  0  0  0  0  0  0
    7.5883   -3.5579   -0.9055 H   0  0  0  0  0  0  0  0  0  0  0  0
    7.7595   -4.9699    0.1469 H   0  0  0  0  0  0  0  0  0  0  0  0
    5.6838   -4.0894    5.3248 H   0  0  0  0  0  0  0  0  0  0  0  0
    4.8614   -2.4400    5.4082 H   0  0  0  0  0  0  0  0  0  0  0  0
    6.3200   -2.6782    4.7350 H   0  0  0  0  0  0  0  0  0  0  0  0
  1  2  1  0
  1 53  1  0
  1 54  1  0
  1 55  1  0
  2  3  2  0
  2  4  1  0
  4  5  1  0
  5 51  1  0
  5  6  1  0
  5 56  1  6
  6  7  1  0
  6 57  1  0
  6 58  1  0
  7  8  1  0
  7  9  1  0
  7 10  1  0
  8 59  1  0
  8 60  1  0
  8 61  1  0
  9 62  1  0
  9 63  1  0
  9 64  1  0
 10 51  1  0
 10 11  1  0
 10 65  1  6
 11 19  1  0
 11 12  1  0
 11 66  1  1
 12 13  1  0
 13 14  2  0
 13 15  1  0
 15 44  1  0
 15 16  1  1
 15 17  1  0
 16 67  1  0
 17 18  1  1
 17 19  1  0
 17 24  1  0
 18 68  1  0
 19 20  1  0
 19 69  1  6
 20 21  1  0
 21 22  1  0
 21 23  2  0
 22 70  1  0
 22 71  1  0
 22 72  1  0
 24 30  1  0
 24 25  1  0
 24 73  1  6
 25 26  2  0
 25 74  1  0
 26 27  1  0
 26 28  1  0
 27 75  1  0
 27 76  1  0
 27 77  1  0
 28 29  2  0
 28 30  1  0
 30 31  1  1
 30 32  1  0
 31 78  1  0
 32 33  1  0
 33 34  1  0
 33 79  1  0
 33 80  1  0
 34 44  1  0
 34 35  1  1
 36 34  1  1
 35 81  1  0
 36 37  2  0
 36 38  1  0
 38 39  1  6
 38 40  1  0
 38 46  1  0
 39 82  1  0
 39 83  1  0
 39 84  1  0
 40 41  1  0
 41 42  1  0
 41 43  1  0
 41 44  1  0
 42 85  1  0
 42 86  1  0
 42 87  1  0
 43 88  1  0
 43 89  1  0
 43 90  1  0
 44 45  1  1
 45 91  1  0
 46 47  1  0
 46 51  1  0
 46 92  1  6
 47 48  1  0
 48 49  1  0
 48 50  2  0
 49 93  1  0
 49 94  1  0
 49 95  1  0
 51 52  1  1
 52 96  1  0
 52 97  1  0
 52 98  1  0
M  END
>  <i_m_ct_stereo_status>  (4) 
1

>  <s_m_source_file>  (4) 
/var/tmp/pbs.5075288.sched01/tmp54n0lgpy/0in2gyumd.sdf

>  <i_m_source_file_index>  (4) 
2

>  <i_lp_mmshare_version>  (4) 
48012

>  <i_f3d_flags>  (4) 
0

>  <s_epik_input>  (4) 
W0NIM11DKD1PKU9bQ0BASF0xW0NIMl1DKFtDSDNdKShbQ0gzXSlbQ0BIXShbQ0BIXShPQzI9TylbQ0BASF0zT0MoPU8pW0NIM10pW0NAQF0xKFtDSDNdKVtDQEhdKE9DKD1PKVtDSDNdKVtDQEBdKFtTK100W08tXSkoW0NIM10pT0MoW0NIM10pKFtDSDNdKVtDQF01KFtPSF0pW0NAQF00KFtPSF0pW0NIMl1PW0NAXShbT0hdKShDKD1PKUMoPVtDSF02KVtDSDNdKVtDQEBIXTZbQ0BAXTMoW09IXSlbQ0BdMjVbT0hd

>  <s_epik_cmdline>  (4) 
J2VwaWtfcHl0aG9uJywgJy1waHQnLCAnMi4wJywgJy1waCcsICc3LjAnLCAnLXRuJywgJzgnLCAnLW1hJywgJzIwMCcsICctaW1hZScsICc8aW5maWxlLm1hZT4nLCAnLW9tYWUnLCAnPG91dGZpbGUubWFlPic=

>  <r_epik_Ionization_Penalty>  (4) 
0.000417897

>  <r_epik_Ionization_Penalty_Charging>  (4) 
0

>  <r_epik_Ionization_Penalty_Neutral>  (4) 
0.000417897

>  <r_epik_State_Penalty>  (4) 
0.000198492

>  <r_epik_Charging_Adjusted_Penalty>  (4) 
0.000198492

>  <i_epik_Tot_Q>  (4) 
0

>  <i_epik_Tot_abs_Q>  (4) 
2

>  <s_epik_Chemistry_Notes>  (4) 
This compound has an ester and may undergo hydrolysis at high or low pH.

>  <s_lp_Force_Field>  (4) 
OPLS3e

>  <r_lp_Energy>  (4) 
247.879

>  <b_lp_Chiralities_Consistent>  (4) 
1

>  <s_lp_Variant>  (4) 
0:0-2

>  <s_i_glide_gridfile>  (4) 
pfpi4k_grid

>  <i_i_glide_lignum>  (4) 
2

>  <i_i_glide_rotatable_bonds>  (4) 
11

>  <r_i_docking_score>  (4) 
-1.88751

>  <r_i_glide_ligand_efficiency>  (4) 
-0.0362982

>  <r_i_glide_ligand_efficiency_sa>  (4) 
-0.135483

>  <r_i_glide_ligand_efficiency_ln>  (4) 
-0.381219

>  <r_i_glide_gscore>  (4) 
-1.88751

>  <r_i_glide_lipo>  (4) 
-0.370858

>  <r_i_glide_hbond>  (4) 
0

>  <r_i_glide_metal>  (4) 
-0

>  <r_i_glide_rewards>  (4) 
-0.745572

>  <r_i_glide_evdw>  (4) 
-23.1926

>  <r_i_glide_ecoul>  (4) 
-0.969017

>  <r_i_glide_erotb>  (4) 
0.112794

>  <r_i_glide_esite>  (4) 
-0.0109763

>  <r_i_glide_emodel>  (4) 
-17.433

>  <r_i_glide_energy>  (4) 
-24.1617

>  <r_i_glide_einternal>  (4) 
16.2101

>  <r_i_glide_intrahb_reward>  (4) 
-0.5

>  <i_i_glide_confnum>  (4) 
5

>  <i_i_glide_posenum>  (4) 
29

>  <r_i_glide_eff_state_penalty>  (4) 
0

>  <ligand_id>  (4) 
0

>  <original_smiles>  (4) 
CC(=O)OC1CC(C)(C)C2C3OC(=O)C4(O)C(O)(C3OC(C)=O)C3C=C(C)C(=O)C3(O)OCC3(O)[S+]([O-])C(C)(OC(C)(C)C34O)C(OC(C)=O)C12C

>  <smiles>  (4) 
[H]OC12OC([H])([H])C3(O[H])S(=O)C4(C([H])([H])[H])OC(C([H])([H])[H])(C([H])([H])[H])C3(O[H])C3(O[H])C(=O)OC([H])(C([H])(OC(=O)C([H])([H])[H])C3(O[H])C1([H])C([H])=C(C([H])([H])[H])C2=O)C1([H])C(C([H])([H])[H])(C([H])([H])[H])C([H])([H])C([H])(OC(=O)C([H])([H])[H])C1(C([H])([H])[H])C4([H])OC(=O)C([H])([H])[H]

$$$$
3:34:0
     RDKit          3D

139149  0  0  1  0  0  0  0  0999 V2000
    9.5184    1.6605    7.6875 C   0  0  0  0  0  0  0  0  0  0  0  0
    9.7516    0.3427    8.4405 C   0  0  0  0  0  0  0  0  0  0  0  0
    9.0501   -0.8212    8.4632 C   0  0  0  0  0  0  0  0  0  0  0  0
    9.5483   -1.9791    9.3288 C   0  0  0  0  0  0  0  0  0  0  0  0
    7.7951   -1.0300    7.6570 C   0  0  0  0  0  0  0  0  0  0  0  0
    7.5247   -0.3430    6.6813 O   0  0  0  0  0  0  0  0  0  0  0  0
    6.8086   -2.2234    7.9676 C   0  0  0  0  0  0  0  0  0  0  0  0
    7.2080   -3.1940    8.6017 O   0  0  0  0  0  0  0  0  0  0  0  0
    5.5480   -2.0739    7.4206 N   0  0  0  0  0  0  0  0  0  0  0  0
    4.8172   -0.9047    7.0947 C   0  0  1  0  0  0  0  0  0  0  0  0
    4.3644   -0.8163    5.7113 C   0  0  0  0  0  0  0  0  0  0  0  0
    5.1374   -0.9499    4.6226 C   0  0  0  0  0  0  0  0  0  0  0  0
    4.6998   -0.7209    3.1852 C   0  0  0  0  0  0  0  0  0  0  0  0
    3.1165   -0.3187    5.5947 O   0  0  0  0  0  0  0  0  0  0  0  0
    1.9537   -0.9414    6.1695 C   0  0  1  0  0  0  0  0  0  0  0  0
    2.2466   -2.4821    6.4788 C   0  0  0  0  0  0  0  0  0  0  0  0
    3.1688   -2.9333    7.4202 C   0  0  0  0  0  0  0  0  0  0  0  0
    3.3993   -4.4444    7.8732 C   0  0  1  0  0  0  0  0  0  0  0  0
    3.6917   -4.5185    9.1530 O   0  0  0  0  0  0  0  0  0  0  0  0
    2.1575   -5.4188    7.7860 C   0  0  2  0  0  0  0  0  0  0  0  0
    1.7972   -5.7579    6.3393 C   0  0  1  0  0  0  0  0  0  0  0  0
    1.1981   -7.0390    6.2433 O   0  0  0  0  0  0  0  0  0  0  0  0
    0.7978   -4.6550    5.9615 C   0  0  2  0  0  0  0  0  0  0  0  0
   -0.0898   -5.0509    4.9226 O   0  0  0  0  0  0  0  0  0  0  0  0
    1.6144   -3.4341    5.5104 C   0  0  0  0  0  0  0  0  0  0  0  0
    1.8478   -3.3310    4.3048 O   0  0  0  0  0  0  0  0  0  0  0  0
    0.0267   -4.3788    7.2474 C   0  0  0  0  0  0  0  0  0  0  0  0
   -1.0692   -3.7997    7.3060 O   0  0  0  0  0  0  0  0  0  0  0  0
    0.8024   -4.9474    8.4328 C   0  0  1  0  0  0  0  0  0  0  0  0
    0.0156   -6.1310    9.0431 C   0  0  0  0  0  0  0  0  0  0  0  0
    0.8112   -3.9988    9.4950 O   0  0  0  0  0  0  0  0  0  0  0  0
    4.2389   -1.9778    8.0303 C   0  0  1  0  0  0  0  0  0  0  0  0
    4.2744   -1.5737    9.5151 C   0  0  0  0  0  0  0  0  0  0  0  0
    1.3658   -0.1796    7.4945 C   0  0  2  0  0  0  0  0  0  0  0  0
    1.1239   -0.7425    8.9189 C   0  0  0  0  0  0  0  0  0  0  0  0
    1.1877    0.3958   10.0295 C   0  0  0  0  0  0  0  0  0  0  0  0
    0.3415    2.0838    9.6837 S   0  0  0  0  0  0  0  0  0  0  0  0
   -1.1724    1.9339    9.8598 O   0  0  0  0  0  0  0  0  0  0  0  0
    0.7078    2.2864    7.8537 C   0  0  2  0  0  0  0  0  0  0  0  0
    2.1878    2.4960    7.9302 C   0  0  0  0  0  0  0  0  0  0  0  0
    3.3412    2.6534    7.9950 N   0  0  0  0  0  0  0  0  0  0  0  0
    0.0408    3.5563    7.1292 C   0  0  0  0  0  0  0  0  0  0  0  0
    0.6210    4.4534    5.8541 C   0  0  2  0  0  0  0  0  0  0  0  0
    1.0005    3.8548    4.2960 C   0  0  1  0  0  0  0  0  0  0  0  0
    0.0429    4.3034    3.3262 O   0  0  0  0  0  0  0  0  0  0  0  0
    2.3186    4.5474    3.9593 C   0  0  0  0  0  0  0  0  0  0  0  0
    2.2482    5.9544    3.9905 O   0  0  0  0  0  0  0  0  0  0  0  0
    1.3118    6.7011    4.7168 C   0  0  2  0  0  0  0  0  0  0  0  0
    0.0991    6.8156    4.0079 O   0  0  0  0  0  0  0  0  0  0  0  0
    1.9986    8.0824    4.5301 C   0  0  1  0  0  0  0  0  0  0  0  0
    1.2047    9.2502    4.6417 O   0  0  0  0  0  0  0  0  0  0  0  0
    3.3085    8.1225    5.3035 C   0  0  0  0  0  0  0  0  0  0  0  0
    3.0445    7.8592    6.7694 C   0  0  1  0  0  0  0  0  0  0  0  0
    2.3087    8.9777    7.2547 O   0  0  0  0  0  0  0  0  0  0  0  0
    2.3897    6.4581    7.1383 C   0  0  1  0  0  0  0  0  0  0  0  0
    3.3968    5.5120    6.8764 O   0  0  0  0  0  0  0  0  0  0  0  0
    2.2088    6.5171    8.7447 C   0  0  0  0  0  0  0  0  0  0  0  0
    2.1368    5.1969    9.5214 C   0  0  0  0  0  0  0  0  0  0  0  0
    3.3323    7.2596    9.5277 C   0  0  0  0  0  0  0  0  0  0  0  0
    1.0430    7.2965    9.0401 O   0  0  0  0  0  0  0  0  0  0  0  0
   -0.1549    6.8156    8.5337 C   0  0  1  0  0  0  0  0  0  0  0  0
   -1.2298    7.5783    9.0086 O   0  0  0  0  0  0  0  0  0  0  0  0
   -0.1386    6.8081    6.9646 C   0  0  1  0  0  0  0  0  0  0  0  0
   -0.4436    8.1075    6.5031 O   0  0  0  0  0  0  0  0  0  0  0  0
    1.0831    6.0602    6.2123 C   0  0  2  0  0  0  0  0  0  0  0  0
    1.0387    2.2799    3.7214 C   0  0  1  0  0  0  0  0  0  0  0  0
    2.1963    1.9452    2.9551 O   0  0  0  0  0  0  0  0  0  0  0  0
    0.7540    1.1790    4.7646 C   0  0  1  0  0  0  0  0  0  0  0  0
    1.8064    1.7496    5.4914 O   0  0  0  0  0  0  0  0  0  0  0  0
   -0.7526    1.3877    5.0935 C   0  0  2  0  0  0  0  0  0  0  0  0
   -1.5290    2.5454    4.8737 O   0  0  0  0  0  0  0  0  0  0  0  0
   -1.0176    0.6838    6.3892 C   0  0  1  0  0  0  0  0  0  0  0  0
   -1.2015   -0.7454    5.9255 C   0  0  0  0  0  0  0  0  0  0  0  0
   -0.2742   -1.2299    5.0913 C   0  0  0  0  0  0  0  0  0  0  0  0
    1.0409   -0.4577    4.8940 C   0  0  2  0  0  0  0  0  0  0  0  0
    0.1726    0.8616    7.3966 C   0  0  1  0  0  0  0  0  0  0  0  0
   10.4360    1.9494    7.1628 H   0  0  0  0  0  0  0  0  0  0  0  0
    9.2795    2.4516    8.3978 H   0  0  0  0  0  0  0  0  0  0  0  0
    8.7332    1.6799    6.9274 H   0  0  0  0  0  0  0  0  0  0  0  0
   10.6563    0.3842    9.0309 H   0  0  0  0  0  0  0  0  0  0  0  0
    9.8849   -2.7893    8.6847 H   0  0  0  0  0  0  0  0  0  0  0  0
    8.7314   -2.3816    9.9407 H   0  0  0  0  0  0  0  0  0  0  0  0
   10.4376   -1.6933    9.9241 H   0  0  0  0  0  0  0  0  0  0  0  0
    5.0991    0.0496    7.5235 H   0  0  0  0  0  0  0  0  0  0  0  0
    6.1899   -1.1919    4.7488 H   0  0  0  0  0  0  0  0  0  0  0  0
    4.8361   -1.6311    2.6059 H   0  0  0  0  0  0  0  0  0  0  0  0
    5.2857    0.0695    2.7153 H   0  0  0  0  0  0  0  0  0  0  0  0
    3.6516   -0.4398    3.1265 H   0  0  0  0  0  0  0  0  0  0  0  0
    4.1341   -4.8287    7.1184 H   0  0  0  0  0  0  0  0  0  0  0  0
    2.4623   -6.3484    8.2750 H   0  0  0  0  0  0  0  0  0  0  0  0
    2.6488   -5.7779    5.6496 H   0  0  0  0  0  0  0  0  0  0  0  0
    1.8621   -7.6864    6.4330 H   0  0  0  0  0  0  0  0  0  0  0  0
    0.4336   -5.2021    4.1471 H   0  0  0  0  0  0  0  0  0  0  0  0
   -0.1817   -6.9299    8.3284 H   0  0  0  0  0  0  0  0  0  0  0  0
   -0.9570   -5.8035    9.4220 H   0  0  0  0  0  0  0  0  0  0  0  0
    0.5587   -6.5753    9.8763 H   0  0  0  0  0  0  0  0  0  0  0  0
    1.4043   -4.3384   10.1538 H   0  0  0  0  0  0  0  0  0  0  0  0
    3.6185   -2.1754   10.1318 H   0  0  0  0  0  0  0  0  0  0  0  0
    3.9833   -0.5328    9.5580 H   0  0  0  0  0  0  0  0  0  0  0  0
    5.2710   -1.6224    9.9397 H   0  0  0  0  0  0  0  0  0  0  0  0
    2.2948    0.2921    7.7198 H   0  0  0  0  0  0  0  0  0  0  0  0
    0.1720   -1.2548    8.9685 H   0  0  0  0  0  0  0  0  0  0  0  0
    1.8247   -1.5213    9.1558 H   0  0  0  0  0  0  0  0  0  0  0  0
    0.8173    0.0103   10.9864 H   0  0  0  0  0  0  0  0  0  0  0  0
    2.2307    0.6383   10.2129 H   0  0  0  0  0  0  0  0  0  0  0  0
   -1.0084    3.3131    7.0071 H   0  0  0  0  0  0  0  0  0  0  0  0
   -0.1435    4.2389    7.9226 H   0  0  0  0  0  0  0  0  0  0  0  0
   -0.3897    4.7244    5.5376 H   0  0  0  0  0  0  0  0  0  0  0  0
    0.3204    4.1439    2.4163 H   0  0  0  0  0  0  0  0  0  0  0  0
    3.0853    4.2281    4.6621 H   0  0  0  0  0  0  0  0  0  0  0  0
    2.7018    4.3115    2.9646 H   0  0  0  0  0  0  0  0  0  0  0  0
    0.2095    7.4779    3.3217 H   0  0  0  0  0  0  0  0  0  0  0  0
    2.2884    8.1435    3.4790 H   0  0  0  0  0  0  0  0  0  0  0  0
    0.6304    9.2756    3.8822 H   0  0  0  0  0  0  0  0  0  0  0  0
    3.9975    7.3780    4.9147 H   0  0  0  0  0  0  0  0  0  0  0  0
    3.8157    9.0797    5.1546 H   0  0  0  0  0  0  0  0  0  0  0  0
    4.0325    7.9204    7.2237 H   0  0  0  0  0  0  0  0  0  0  0  0
    2.8295    9.7646    7.1415 H   0  0  0  0  0  0  0  0  0  0  0  0
    3.5465    5.4974    5.9415 H   0  0  0  0  0  0  0  0  0  0  0  0
    3.1067    4.7089    9.5638 H   0  0  0  0  0  0  0  0  0  0  0  0
    1.4337    4.5195    9.1082 H   0  0  0  0  0  0  0  0  0  0  0  0
    1.8193    5.3657   10.5526 H   0  0  0  0  0  0  0  0  0  0  0  0
    4.3197    6.8711    9.2826 H   0  0  0  0  0  0  0  0  0  0  0  0
    3.2022    7.1471   10.6058 H   0  0  0  0  0  0  0  0  0  0  0  0
    3.3373    8.3374    9.3750 H   0  0  0  0  0  0  0  0  0  0  0  0
   -0.3383    5.8546    8.9760 H   0  0  0  0  0  0  0  0  0  0  0  0
   -1.2372    7.5194    9.9560 H   0  0  0  0  0  0  0  0  0  0  0  0
   -1.0159    6.2529    6.7126 H   0  0  0  0  0  0  0  0  0  0  0  0
    0.3068    8.6655    6.6976 H   0  0  0  0  0  0  0  0  0  0  0  0
    0.2633    2.1307    2.9574 H   0  0  0  0  0  0  0  0  0  0  0  0
    2.1876    2.4736    2.1679 H   0  0  0  0  0  0  0  0  0  0  0  0
    1.7544    2.6904    5.4278 H   0  0  0  0  0  0  0  0  0  0  0  0
   -1.2618    0.8688    4.2785 H   0  0  0  0  0  0  0  0  0  0  0  0
   -1.1318    3.2702    5.3353 H   0  0  0  0  0  0  0  0  0  0  0  0
   -1.9685    1.0371    6.7977 H   0  0  0  0  0  0  0  0  0  0  0  0
   -2.1445   -1.2513    6.0734 H   0  0  0  0  0  0  0  0  0  0  0  0
   -0.4279   -2.1693    4.5878 H   0  0  0  0  0  0  0  0  0  0  0  0
    1.4784   -0.8009    3.9642 H   0  0  0  0  0  0  0  0  0  0  0  0
   -0.5420    0.5344    8.1423 H   0  0  0  0  0  0  0  0  0  0  0  0
  1  2  1  0
  1 77  1  0
  1 78  1  0
  1 79  1  0
  2  3  2  3
  2 80  1  0
  3  4  1  0
  3  5  1  0
  4 81  1  0
  4 82  1  0
  4 83  1  0
  5  6  2  0
  5  7  1  0
  7  8  2  0
  7  9  1  0
  9 32  1  0
  9 10  1  0
 10 32  1  0
 10 11  1  0
 10 84  1  1
 11 12  2  3
 11 14  1  0
 12 13  1  0
 12 85  1  0
 13 86  1  0
 13 87  1  0
 13 88  1  0
 15 14  1  6
 15 75  1  0
 15 16  1  0
 15 34  1  0
 16 25  1  0
 16 17  2  0
 17 18  1  0
 17 32  1  0
 18 19  1  0
 18 20  1  0
 18 89  1  6
 20 29  1  0
 20 21  1  0
 20 90  1  1
 21 22  1  0
 21 23  1  0
 21 91  1  6
 22 92  1  0
 23 24  1  6
 23 25  1  0
 23 27  1  0
 24 93  1  0
 25 26  2  0
 27 28  2  0
 27 29  1  0
 29 30  1  0
 29 31  1  1
 30 94  1  0
 30 95  1  0
 30 96  1  0
 31 97  1  0
 32 33  1  1
 33 98  1  0
 33 99  1  0
 33100  1  0
 34 76  1  0
 34 35  1  0
 34101  1  1
 35 36  1  0
 35102  1  0
 35103  1  0
 37 36  1  6
 36104  1  0
 36105  1  0
 37 38  2  0
 37 39  1  0
 39 76  1  0
 39 40  1  1
 39 42  1  0
 40 41  3  0
 42 43  1  0
 42106  1  0
 42107  1  0
 43 65  1  0
 43 44  1  0
 43108  1  6
 44 45  1  6
 44 46  1  0
 44 66  1  0
 45109  1  0
 46 47  1  0
 46110  1  0
 46111  1  0
 47 48  1  0
 65 48  1  6
 48 49  1  6
 48 50  1  0
 49112  1  0
 50 51  1  0
 50 52  1  0
 50113  1  6
 51114  1  0
 52 53  1  0
 52115  1  0
 52116  1  0
 53 54  1  0
 53 55  1  0
 53117  1  1
 54118  1  0
 55 65  1  0
 55 56  1  1
 55 57  1  0
 56119  1  0
 57 58  1  0
 57 59  1  0
 57 60  1  0
 58120  1  0
 58121  1  0
 58122  1  0
 59123  1  0
 59124  1  0
 59125  1  0
 60 61  1  0
 61 62  1  0
 61 63  1  0
 61126  1  1
 62127  1  0
 63 64  1  0
 63 65  1  0
 63128  1  6
 64129  1  0
 66 67  1  0
 66 68  1  0
 66130  1  6
 67131  1  0
 68 75  1  0
 68 69  1  1
 68 70  1  0
 69132  1  0
 70 71  1  0
 70 72  1  0
 70133  1  6
 71134  1  0
 72 73  1  0
 72 76  1  0
 72135  1  1
 73 74  2  0
 73136  1  0
 74 75  1  0
 74137  1  0
 75138  1  6
 76139  1  1
M  CHG  1  19  -1
M  END
>  <i_m_ct_stereo_status>  (5) 
1

>  <s_m_source_file>  (5) 
/var/tmp/pbs.5075288.sched01/tmp54n0lgpy/0in2gyumd.sdf

>  <i_m_source_file_index>  (5) 
38

>  <i_lp_mmshare_version>  (5) 
48012

>  <i_f3d_flags>  (5) 
0

>  <s_epik_input>  (5) 
W0NIM10vW0NIXT1DKC9bQ0gzXSlDKD1PKUMoPU8pTjFbQ0hdKC9DKE8yKT1bQ0hdXFtDSDNdKUMxKFtDSDNdKUMoW0NAQEhdKFtPSF0pW0NAQEhdM1tDQEBIXShbT0hdKVtDQF0oW09IXSkoQzQ9TylDKD1PKVtDQF0zKFtDSDNdKVtPSF0pPUM0W0NAQF0yNVtDQEhdNltDQEhdN1tDQF0oQyNOKShbUytdKFtPLV0pW0NIMl1bQ0gyXTYpW0NIMl1bQ0BIXThbQ0BAXTE5W0NAQF0oW09IXSkoW0NAQEhdKFtPSF0pW0NIMl1bQ0BASF0oW09IXSlbQ0BAXTkoW09IXSlDKFtDSDNdKShbQ0gzXSlPW0NAQEhdKFtPSF0pW0NASF0xW09IXSlPW0NIMl1bQ0BAXTgoW09IXSlbQ0BASF0oW09IXSlbQ0BdMShbT0hdKVtDQEBIXTVbQ0hdPVtDSF1bQ0BASF03W0NAQEhdMVtPSF0=

>  <s_epik_cmdline>  (5) 
J2VwaWtfcHl0aG9uJywgJy1waHQnLCAnMi4wJywgJy1waCcsICc3LjAnLCAnLXRuJywgJzgnLCAnLW1hJywgJzIwMCcsICctaW1hZScsICc8aW5maWxlLm1hZT4nLCAnLW9tYWUnLCAnPG91dGZpbGUubWFlPic=

>  <r_epik_Ionization_Penalty>  (5) 
2.37901

>  <r_epik_Ionization_Penalty_Charging>  (5) 
2.37893

>  <r_epik_Ionization_Penalty_Neutral>  (5) 
8.00408e-05

>  <r_epik_State_Penalty>  (5) 
2.54323

>  <r_epik_Charging_Adjusted_Penalty>  (5) 
4.92217

>  <i_epik_Tot_Q>  (5) 
-1

>  <i_epik_Tot_abs_Q>  (5) 
3

>  <s_epik_Chemistry_Notes>  (5) 
This compound contains an acetal/aminal-like group ( X-CH(R)-Y where X, Y are N, S, or O) that may be acid/base labile, releasing an aldehyde.

>  <s_lp_Force_Field>  (5) 
OPLS3e

>  <r_lp_Energy>  (5) 
422.219

>  <b_lp_Chiralities_Consistent>  (5) 
1

>  <s_lp_Variant>  (5) 
3:0-35

>  <s_i_glide_gridfile>  (5) 
pfpi4k_grid

>  <i_i_glide_lignum>  (5) 
38

>  <i_i_glide_rotatable_bonds>  (5) 
17

>  <r_i_docking_score>  (5) 
-5.84304

>  <r_i_glide_ligand_efficiency>  (5) 
-0.0768822

>  <r_i_glide_ligand_efficiency_sa>  (5) 
-0.325659

>  <r_i_glide_ligand_efficiency_ln>  (5) 
-1.09611

>  <r_i_glide_gscore>  (5) 
-5.84304

>  <r_i_glide_lipo>  (5) 
-0.70587

>  <r_i_glide_hbond>  (5) 
0

>  <r_i_glide_metal>  (5) 
-0

>  <r_i_glide_rewards>  (5) 
-0.655912

>  <r_i_glide_evdw>  (5) 
-35.6612

>  <r_i_glide_ecoul>  (5) 
-17.991

>  <r_i_glide_erotb>  (5) 
0.0568534

>  <r_i_glide_esite>  (5) 
-0.0563993

>  <r_i_glide_emodel>  (5) 
-74.2462

>  <r_i_glide_energy>  (5) 
-53.6523

>  <r_i_glide_einternal>  (5) 
12.0518

>  <r_i_glide_intrahb_reward>  (5) 
-0.5

>  <i_i_glide_confnum>  (5) 
1

>  <i_i_glide_posenum>  (5) 
25

>  <r_i_glide_eff_state_penalty>  (5) 
0

>  <ligand_id>  (5) 
3

>  <original_smiles>  (5) 
CC=C(C)C(=O)C(=O)N1C2C(=CC)OC3(C4=C(C(O)C5C(O)C(O)(C4=O)C(=O)C5(C)O)C21C)C1CC[S+]([O-])C2(C#N)CC4C(O)(COC5(O)C(O)CC(O)C6(O)C(C)(C)OC(O)C(O)C456)C(O)C4(O)C(O)C(C=CC34)C12

>  <smiles>  (5) 
[H]OC1([H])OC(C([H])([H])[H])(C([H])([H])[H])C2(O[H])C([H])(O[H])C([H])([H])C([H])(O[H])C3(O[H])OC([H])([H])C4(O[H])C([H])(O[H])C5(O[H])C([H])(O[H])C6([H])C([H])=C([H])C5([H])C5(OC(=C([H])C([H])([H])[H])C7([H])N(C(=O)C(=O)C(=C([H])C([H])([H])[H])C([H])([H])[H])C7(C([H])([H])[H])C7=C5C(=O)C5(O[H])C(=O)C(O[H])(C([H])([H])[H])C([H])(C7([H])[O-])C5([H])O[H])C5([H])C([H])([H])C([H])([H])S(=O)C(C#N)(C([H])([H])C4([H])C32C1([H])O[H])C65[H]

$$$$
6:0:0
     RDKit          3D

126136  0  0  1  0  0  0  0  0999 V2000
    1.3912   -4.7368   10.9303 C   0  0  0  0  0  0  0  0  0  0  0  0
    1.3071   -5.2434    9.6055 O   0  0  0  0  0  0  0  0  0  0  0  0
    1.5437   -4.4143    8.5622 C   0  0  0  0  0  0  0  0  0  0  0  0
    1.7869   -3.2269    8.7319 O   0  0  0  0  0  0  0  0  0  0  0  0
    1.3554   -5.0836    7.1591 C   0  0  1  0  0  0  0  0  0  0  0  0
   -0.0259   -5.3410    7.3418 O   0  0  0  0  0  0  0  0  0  0  0  0
    1.3097   -4.1111    5.8727 C   0  0  1  0  0  0  0  0  0  0  0  0
    1.9593   -2.8420    6.0222 O   0  0  0  0  0  0  0  0  0  0  0  0
    1.2603   -1.7318    6.3851 C   0  0  0  0  0  0  0  0  0  0  0  0
    2.1572   -0.5073    6.4770 C   0  0  0  0  0  0  0  0  0  0  0  0
    0.0568   -1.6916    6.6649 O   0  0  0  0  0  0  0  0  0  0  0  0
    1.8280   -4.6842    4.4930 C   0  0  0  0  0  0  0  0  0  0  0  0
    2.9167   -5.8020    4.5179 C   0  0  2  0  0  0  0  0  0  0  0  0
    2.7275   -7.2106    3.7267 C   0  0  1  0  0  0  0  0  0  0  0  0
    3.7269   -7.2201    2.7000 O   0  0  0  0  0  0  0  0  0  0  0  0
    3.5112   -6.7103    1.4557 C   0  0  0  0  0  0  0  0  0  0  0  0
    2.4645   -6.2002    1.0542 O   0  0  0  0  0  0  0  0  0  0  0  0
    4.7443   -6.7955    0.5507 C   0  0  0  0  0  0  0  0  0  0  0  0
    5.6067   -5.5165    0.5699 C   0  0  2  0  0  0  0  0  0  0  0  0
    6.2757   -5.2762    1.9260 C   0  0  0  0  0  0  0  0  0  0  0  0
    7.2315   -6.2673    2.1121 O   0  0  0  0  0  0  0  0  0  0  0  0
    4.8323   -4.3092    0.0705 C   0  0  2  0  0  0  0  0  0  0  0  0
    4.8388   -3.9361   -1.3910 C   0  0  0  0  0  0  0  0  0  0  0  0
    5.6223   -3.2176   -0.4236 O   0  0  0  0  0  0  0  0  0  0  0  0
    2.4961   -8.7257    4.4094 C   0  0  1  0  0  0  0  0  0  0  0  0
    1.8525   -8.6557    5.6626 O   0  0  0  0  0  0  0  0  0  0  0  0
    1.1766   -7.5308    6.1437 C   0  0  2  0  0  0  0  0  0  0  0  0
    0.2335   -8.2765    7.1398 C   0  0  0  0  0  0  0  0  0  0  0  0
    0.1305   -7.0358    5.1009 C   0  0  0  0  0  0  0  0  0  0  0  0
   -0.3829   -7.6388    4.0183 C   0  0  0  0  0  0  0  0  0  0  0  0
   -0.0341   -8.9404    3.4722 C   0  0  0  0  0  0  0  0  0  0  0  0
   -0.9089   -9.5875    2.8920 O   0  0  0  0  0  0  0  0  0  0  0  0
    1.4217   -9.4833    3.4543 C   0  0  1  0  0  0  0  0  0  0  0  0
    1.7917   -9.4741    1.9529 C   0  0  0  0  0  0  0  0  0  0  0  0
    1.3078  -10.8762    3.7050 O   0  0  0  0  0  0  0  0  0  0  0  0
    2.2403   -6.4411    6.8280 C   0  0  2  0  0  0  0  0  0  0  0  0
    3.1249   -7.0839    7.9966 C   0  0  1  0  0  0  0  0  0  0  0  0
    4.2229   -5.9282    8.9601 S   0  0  0  0  0  0  0  0  0  0  0  0
    5.2973   -6.7158    9.6906 O   0  0  0  0  0  0  0  0  0  0  0  0
    4.7863   -4.6791    7.6475 C   0  0  1  0  0  0  0  0  0  0  0  0
    4.5323   -3.4166    8.2056 O   0  0  0  0  0  0  0  0  0  0  0  0
    6.3634   -4.6334    7.3630 C   0  0  2  0  0  0  0  0  0  0  0  0
    6.8594   -4.6543    5.9437 C   0  0  0  0  0  0  0  0  0  0  0  0
    7.9382   -5.4352    5.8494 C   0  0  0  0  0  0  0  0  0  0  0  0
    8.8412   -5.7749    4.6837 C   0  0  0  0  0  0  0  0  0  0  0  0
    8.2965   -5.9649    7.0420 O   0  0  0  0  0  0  0  0  0  0  0  0
    7.2786   -5.7361    7.9774 C   0  0  1  0  0  0  0  0  0  0  0  0
    7.7884   -5.3182    9.2149 O   0  0  0  0  0  0  0  0  0  0  0  0
    4.0622   -4.7404    6.4249 O   0  0  0  0  0  0  0  0  0  0  0  0
    3.4854   -5.9613    5.8982 C   0  0  2  0  0  0  0  0  0  0  0  0
    4.7981   -6.7380    5.5362 C   0  0  0  0  0  0  0  0  0  0  0  0
    2.8598   -8.4455    8.6274 C   0  0  2  0  0  0  0  0  0  0  0  0
    1.9315   -8.4110    9.8369 C   0  0  0  0  0  0  0  0  0  0  0  0
    3.9484   -9.3136    8.8937 O   0  0  0  0  0  0  0  0  0  0  0  0
    3.1620   -9.6883    7.7546 C   0  0  2  0  0  0  0  0  0  0  0  0
    4.1118   -9.9403    6.5311 C   0  0  2  0  0  0  0  0  0  0  0  0
    4.4020  -11.3064    6.7295 O   0  0  0  0  0  0  0  0  0  0  0  0
    5.6492  -11.7199    6.1717 C   0  0  2  0  0  0  0  0  0  0  0  0
    6.8147  -11.0594    6.9175 C   0  0  0  0  0  0  0  0  0  0  0  0
    6.4236   -9.8261    6.1014 C   0  0  2  0  0  0  0  0  0  0  0  0
    7.4893   -8.8671    5.7889 N   0  0  0  0  0  0  0  0  0  0  0  0
    8.5275   -9.2830    5.2789 N   0  0  0  0  0  0  0  0  0  0  0  0
    9.5385   -9.5273    4.7913 N   0  0  0  0  0  0  0  0  0  0  0  0
    5.2941   -9.2082    6.7129 O   0  0  0  0  0  0  0  0  0  0  0  0
    5.9851  -10.8049    4.9865 C   0  0  2  0  0  0  0  0  0  0  0  0
    4.8342  -10.4002    4.0574 C   0  0  0  0  0  0  0  0  0  0  0  0
    5.4605   -9.4784    2.9983 C   0  0  0  0  0  0  0  0  0  0  0  0
    4.3683  -11.6835    3.3177 C   0  0  0  0  0  0  0  0  0  0  0  0
    3.6477   -9.8154    4.9626 C   0  0  2  0  0  0  0  0  0  0  0  0
    1.2469   -5.5425   11.6545 H   0  0  0  0  0  0  0  0  0  0  0  0
    0.6202   -3.9791   11.0758 H   0  0  0  0  0  0  0  0  0  0  0  0
    2.3628   -4.2696   11.1073 H   0  0  0  0  0  0  0  0  0  0  0  0
   -0.4811   -4.5094    7.3597 H   0  0  0  0  0  0  0  0  0  0  0  0
    0.2621   -3.8882    5.6522 H   0  0  0  0  0  0  0  0  0  0  0  0
    2.9581   -0.6973    7.1880 H   0  0  0  0  0  0  0  0  0  0  0  0
    1.5977    0.3566    6.8265 H   0  0  0  0  0  0  0  0  0  0  0  0
    2.6011   -0.2711    5.5087 H   0  0  0  0  0  0  0  0  0  0  0  0
    1.0071   -4.9779    3.8440 H   0  0  0  0  0  0  0  0  0  0  0  0
    2.2543   -3.8422    3.9368 H   0  0  0  0  0  0  0  0  0  0  0  0
    3.6836   -5.2848    3.9479 H   0  0  0  0  0  0  0  0  0  0  0  0
    1.8149   -7.0215    3.1697 H   0  0  0  0  0  0  0  0  0  0  0  0
    5.3540   -7.6475    0.8458 H   0  0  0  0  0  0  0  0  0  0  0  0
    4.4233   -7.0013   -0.4725 H   0  0  0  0  0  0  0  0  0  0  0  0
    6.4190   -5.6663   -0.1382 H   0  0  0  0  0  0  0  0  0  0  0  0
    6.7497   -4.2937    1.9462 H   0  0  0  0  0  0  0  0  0  0  0  0
    5.5556   -5.2694    2.7426 H   0  0  0  0  0  0  0  0  0  0  0  0
    6.7852   -7.1187    2.1290 H   0  0  0  0  0  0  0  0  0  0  0  0
    3.9747   -3.9907    0.6710 H   0  0  0  0  0  0  0  0  0  0  0  0
    5.4043   -4.5651   -2.0779 H   0  0  0  0  0  0  0  0  0  0  0  0
    3.9636   -3.4149   -1.7825 H   0  0  0  0  0  0  0  0  0  0  0  0
   -0.2138   -7.6418    7.8971 H   0  0  0  0  0  0  0  0  0  0  0  0
    0.6854   -9.1182    7.6526 H   0  0  0  0  0  0  0  0  0  0  0  0
   -0.5882   -8.7650    6.6131 H   0  0  0  0  0  0  0  0  0  0  0  0
   -0.3271   -6.0805    5.2452 H   0  0  0  0  0  0  0  0  0  0  0  0
   -1.1592   -7.1095    3.4893 H   0  0  0  0  0  0  0  0  0  0  0  0
    1.5544   -8.5258    1.4777 H   0  0  0  0  0  0  0  0  0  0  0  0
    1.1959  -10.2126    1.4242 H   0  0  0  0  0  0  0  0  0  0  0  0
    2.8211   -9.7227    1.7349 H   0  0  0  0  0  0  0  0  0  0  0  0
    2.1686  -11.2757    3.6433 H   0  0  0  0  0  0  0  0  0  0  0  0
    3.9639   -7.4979    7.5101 H   0  0  0  0  0  0  0  0  0  0  0  0
    4.5487   -2.7704    7.5051 H   0  0  0  0  0  0  0  0  0  0  0  0
    6.7429   -3.6622    7.7096 H   0  0  0  0  0  0  0  0  0  0  0  0
    6.3970   -4.0891    5.1461 H   0  0  0  0  0  0  0  0  0  0  0  0
    8.5463   -5.2651    3.7778 H   0  0  0  0  0  0  0  0  0  0  0  0
    8.8064   -6.8342    4.4884 H   0  0  0  0  0  0  0  0  0  0  0  0
    9.8743   -5.5255    4.9408 H   0  0  0  0  0  0  0  0  0  0  0  0
    6.8068   -6.7189    8.0825 H   0  0  0  0  0  0  0  0  0  0  0  0
    8.0866   -4.4206    9.1065 H   0  0  0  0  0  0  0  0  0  0  0  0
    4.6638   -7.7036    5.1100 H   0  0  0  0  0  0  0  0  0  0  0  0
    5.4906   -6.8642    6.3544 H   0  0  0  0  0  0  0  0  0  0  0  0
    5.3660   -6.2221    4.7674 H   0  0  0  0  0  0  0  0  0  0  0  0
    1.0387   -7.8224    9.6593 H   0  0  0  0  0  0  0  0  0  0  0  0
    2.4515   -7.9811   10.6913 H   0  0  0  0  0  0  0  0  0  0  0  0
    1.6292   -9.4268   10.0980 H   0  0  0  0  0  0  0  0  0  0  0  0
    2.4909  -10.5311    7.9280 H   0  0  0  0  0  0  0  0  0  0  0  0
    5.7593  -12.7927    6.0035 H   0  0  0  0  0  0  0  0  0  0  0  0
    6.6921  -10.9638    7.9946 H   0  0  0  0  0  0  0  0  0  0  0  0
    7.7828  -11.4846    6.6517 H   0  0  0  0  0  0  0  0  0  0  0  0
    6.8410  -11.2234    4.4429 H   0  0  0  0  0  0  0  0  0  0  0  0
    4.8151   -9.3333    2.1423 H   0  0  0  0  0  0  0  0  0  0  0  0
    6.3744   -9.9127    2.5863 H   0  0  0  0  0  0  0  0  0  0  0  0
    5.7548   -8.5158    3.4061 H   0  0  0  0  0  0  0  0  0  0  0  0
    3.6027  -11.5039    2.5678 H   0  0  0  0  0  0  0  0  0  0  0  0
    3.9660  -12.4234    4.0134 H   0  0  0  0  0  0  0  0  0  0  0  0
    5.1942  -12.1694    2.7923 H   0  0  0  0  0  0  0  0  0  0  0  0
    3.0317  -10.6886    5.0837 H   0  0  0  0  0  0  0  0  0  0  0  0
  1  2  1  0
  1 70  1  0
  1 71  1  0
  1 72  1  0
  2  3  1  0
  3  4  2  0
  3  5  1  0
  5 36  1  0
  5  6  1  1
  5  7  1  0
  6 73  1  0
  7  8  1  0
  7 12  1  0
  7 74  1  6
  8  9  1  0
  9 10  1  0
  9 11  2  0
 10 75  1  0
 10 76  1  0
 10 77  1  0
 12 13  1  0
 12 78  1  0
 12 79  1  0
 13 50  1  0
 13 14  1  0
 13 80  1  6
 14 15  1  0
 14 25  1  0
 14 81  1  6
 15 16  1  0
 16 17  2  0
 16 18  1  0
 18 19  1  0
 18 82  1  0
 18 83  1  0
 19 20  1  0
 19 22  1  0
 19 84  1  6
 20 21  1  0
 20 85  1  0
 20 86  1  0
 21 87  1  0
 22 24  1  0
 22 23  1  0
 22 88  1  1
 23 24  1  0
 23 89  1  0
 23 90  1  0
 25 33  1  0
 25 69  1  0
 25 26  1  1
 26 27  1  0
 27 28  1  1
 27 29  1  0
 36 27  1  6
 28 91  1  0
 28 92  1  0
 28 93  1  0
 29 30  2  0
 29 94  1  0
 30 31  1  0
 30 95  1  0
 31 32  2  0
 31 33  1  0
 33 34  1  0
 33 35  1  1
 34 96  1  0
 34 97  1  0
 34 98  1  0
 35 99  1  0
 36 50  1  0
 36 37  1  0
 37 38  1  0
 37 52  1  0
 37100  1  6
 38 39  2  0
 38 40  1  6
 40 41  1  1
 40 42  1  0
 40 49  1  0
 41101  1  0
 42 47  1  0
 42 43  1  0
 42102  1  1
 43 44  2  0
 43103  1  0
 44 45  1  0
 44 46  1  0
 45104  1  0
 45105  1  0
 45106  1  0
 46 47  1  0
 47 48  1  0
 47107  1  1
 48108  1  0
 49 50  1  0
 50 51  1  6
 51109  1  0
 51110  1  0
 51111  1  0
 52 55  1  0
 52 53  1  1
 52 54  1  0
 53112  1  0
 53113  1  0
 53114  1  0
 54 55  1  0
 55 56  1  0
 55115  1  1
 56 64  1  1
 56 69  1  0
 56 57  1  0
 57 58  1  0
 58 65  1  0
 58 59  1  0
 58116  1  6
 59 60  1  0
 59117  1  0
 59118  1  0
 60 61  1  6
 60 64  1  0
 60 65  1  0
 61 62  2  0
 62 63  2  0
 65 66  1  0
 65119  1  6
 66 67  1  0
 66 68  1  0
 66 69  1  0
 67120  1  0
 67121  1  0
 67122  1  0
 68123  1  0
 68124  1  0
 68125  1  0
 69126  1  1
M  CHG  2  62   1  63  -1
M  END
>  <i_m_ct_stereo_status>  (6) 
1

>  <s_m_source_file>  (6) 
/var/tmp/pbs.5075288.sched01/tmpg6npxhsy/83n53gbz8q.sdf

>  <i_m_source_file_index>  (6) 
24

>  <i_lp_mmshare_version>  (6) 
48012

>  <i_f3d_flags>  (6) 
0

>  <s_epik_input>  (6) 
TzFbQ0gyXVtDQEhdMVtDQEBIXShbQ0gyXVtPSF0pW0NIMl1DKD1PKU9bQ0BASF0yW0NAQEhdKFtDSDJdW0NASF0oT0MoPU8pW0NIM10pW0NAXTMoW09IXSlDKD1PKU9bQ0gzXSlbQ0BAXShbQ0gzXSkoT1tDQF0oW1MrXTRbTy1dKShbT0hdKVtDQEBIXTVbQ0hdPUMoW0NIM10pT1tDQEhdNVtPSF0pW0NAQF0zKFtDQEBdKE82KShbQ0gzXSlbQ0hdPVtDSF1DKD1PKVtDQF03KFtDSDNdKVtPSF0pW0NAQEhdNFtDQEBdKE84KShbQ0gzXSlbQ0BIXThbQ0BdOShbQ0BIXTFbQ0BdMjY3KU9bQ0BIXTJbQ0BASF0oQzEoW0NIM10pW0NIM10pW0NAQF0oTzkpKFtDSDJdMilOPVtOK109W04tXQ==

>  <s_epik_cmdline>  (6) 
J2VwaWtfcHl0aG9uJywgJy1waHQnLCAnMi4wJywgJy1waCcsICc3LjAnLCAnLXRuJywgJzgnLCAnLW1hJywgJzIwMCcsICctaW1hZScsICc8aW5maWxlLm1hZT4nLCAnLW9tYWUnLCAnPG91dGZpbGUubWFlPic=

>  <r_lp_tautomer_probability>  (6) 
1

>  <r_epik_Ionization_Penalty>  (6) 
2.5996e-05

>  <r_epik_Ionization_Penalty_Charging>  (6) 
0

>  <r_epik_Ionization_Penalty_Neutral>  (6) 
2.5996e-05

>  <r_epik_State_Penalty>  (6) 
-0

>  <r_epik_Charging_Adjusted_Penalty>  (6) 
0

>  <i_epik_Tot_Q>  (6) 
0

>  <i_epik_Tot_abs_Q>  (6) 
4

>  <s_epik_Chemistry_Notes>  (6) 
This compound has an ester and may undergo hydrolysis at high or low pH. This compound contains an acetal/aminal-like group ( X-CH(R)-Y where X, Y are N, S, or O) that may be acid/base labile, releasing an aldehyde.

>  <s_lp_Force_Field>  (6) 
OPLS3e

>  <r_lp_Energy>  (6) 
277.555

>  <b_lp_Chiralities_Consistent>  (6) 
1

>  <s_lp_Variant>  (6) 
6:0-1

>  <s_i_glide_gridfile>  (6) 
pfpi4k_grid

>  <i_i_glide_lignum>  (6) 
24

>  <i_i_glide_rotatable_bonds>  (6) 
17

>  <r_i_docking_score>  (6) 
-2.35645

>  <r_i_glide_ligand_efficiency>  (6) 
-0.0341514

>  <r_i_glide_ligand_efficiency_sa>  (6) 
-0.140074

>  <r_i_glide_ligand_efficiency_ln>  (6) 
-0.45021

>  <r_i_glide_gscore>  (6) 
-2.35645

>  <r_i_glide_lipo>  (6) 
-0.456063

>  <r_i_glide_hbond>  (6) 
0

>  <r_i_glide_metal>  (6) 
-0

>  <r_i_glide_rewards>  (6) 
-0.0827986

>  <r_i_glide_evdw>  (6) 
-33.7061

>  <r_i_glide_ecoul>  (6) 
-1.80992

>  <r_i_glide_erotb>  (6) 
0.203548

>  <r_i_glide_esite>  (6) 
-0.0643411

>  <r_i_glide_emodel>  (6) 
-31.2077

>  <r_i_glide_energy>  (6) 
-35.516

>  <r_i_glide_einternal>  (6) 
13.191

>  <r_i_glide_intrahb_reward>  (6) 
-0

>  <i_i_glide_confnum>  (6) 
6

>  <i_i_glide_posenum>  (6) 
2

>  <r_i_glide_eff_state_penalty>  (6) 
0

>  <ligand_id>  (6) 
6

>  <original_smiles>  (6) 
COC(=O)C1(O)C(OC(C)=O)CC2C(OC(=O)CC(CO)C3CO3)C34OC(C)(C=CC(=O)C3(C)O)C13C([S+]([O-])C(O)(C1C=C(C)OC1O)OC23C)C1(C)OC1C12OC3CC(N=[N+]=[N-])(O1)C3C(C)(C)C24

>  <smiles>  (6) 
[H]OC([H])([H])C([H])(C([H])([H])C(=O)OC1([H])C2([H])C([H])([H])C([H])(OC(=O)C([H])([H])[H])C(O[H])(C(=O)OC([H])([H])[H])C34C5(C([H])([H])[H])OC1(C(O[H])(C([H])([H])[H])C(=O)C([H])=C5[H])C1([H])C5(OC6([H])C([H])([H])C(N=[N+]=[N-])(O5)C6([H])C1(C([H])([H])[H])C([H])([H])[H])C1([H])OC1(C([H])([H])[H])C3([H])S(=O)C(O[H])(C1([H])C([H])=C(C([H])([H])[H])OC1([H])O[H])OC24C([H])([H])[H])C1([H])OC1([H])[H]

$$$$
9:0:0
     RDKit          3D

 91 98  0  0  1  0  0  0  0  0999 V2000
    1.9226    5.8457    7.1109 C   0  0  0  0  0  0  0  0  0  0  0  0
    2.2139    4.5452    7.6250 O   0  0  0  0  0  0  0  0  0  0  0  0
    1.4071    3.3978    7.2748 C   0  0  2  0  0  0  0  0  0  0  0  0
    0.0179    3.6694    7.8580 C   0  0  1  0  0  0  0  0  0  0  0  0
    0.0480    4.5391    8.9817 O   0  0  0  0  0  0  0  0  0  0  0  0
   -0.7151    4.1826    6.7215 O   0  0  0  0  0  0  0  0  0  0  0  0
   -1.3660    2.9110    6.5275 C   0  0  2  0  0  0  0  0  0  0  0  0
   -2.8225    3.4476    6.4207 C   0  0  0  0  0  0  0  0  0  0  0  0
   -0.9808    2.6004    8.0142 C   0  0  1  0  0  0  0  0  0  0  0  0
   -0.7276    1.3719    8.8826 C   0  0  0  0  0  0  0  0  0  0  0  0
    0.7286    0.8594    9.0687 C   0  0  2  0  0  0  0  0  0  0  0  0
    0.6026   -0.3680    9.8035 O   0  0  0  0  0  0  0  0  0  0  0  0
    0.0913   -0.3317   11.1346 C   0  0  0  0  0  0  0  0  0  0  0  0
    1.7263    1.7972    9.7923 C   0  0  0  0  0  0  0  0  0  0  0  0
    2.8206    2.2023    8.7909 C   0  0  0  0  0  0  0  0  0  0  0  0
    2.1948    2.0104    7.3719 C   0  0  2  0  0  0  0  0  0  0  0  0
    3.2382    1.9814    6.1080 C   0  0  2  0  0  0  0  0  0  0  0  0
    4.6037    1.3092    6.4916 C   0  0  0  0  0  0  0  0  0  0  0  0
    3.7310    3.4011    5.6012 C   0  0  0  0  0  0  0  0  0  0  0  0
    4.5491    3.9988    6.3057 O   0  0  0  0  0  0  0  0  0  0  0  0
    3.3894    4.0406    4.2400 C   0  0  2  0  0  0  0  0  0  0  0  0
    2.7911    5.3342    4.4293 O   0  0  0  0  0  0  0  0  0  0  0  0
    2.0510    4.4588    3.6031 C   0  0  1  0  0  0  0  0  0  0  0  0
    2.2748    4.6539    2.2137 O   0  0  0  0  0  0  0  0  0  0  0  0
    0.6086    4.0107    3.9830 C   0  0  1  0  0  0  0  0  0  0  0  0
   -0.3455    4.7941    3.2844 O   0  0  0  0  0  0  0  0  0  0  0  0
    0.2569    2.4453    3.9864 C   0  0  1  0  0  0  0  0  0  0  0  0
   -0.4324    2.1694    2.5654 C   0  0  0  0  0  0  0  0  0  0  0  0
    1.6128    1.5437    3.8063 C   0  0  2  0  0  0  0  0  0  0  0  0
    2.2105    1.9506    2.5930 O   0  0  0  0  0  0  0  0  0  0  0  0
    1.6025   -0.0065    3.7137 C   0  0  1  0  0  0  0  0  0  0  0  0
    2.1612   -0.8214    2.5214 C   0  0  0  0  0  0  0  0  0  0  0  0
    3.6945   -0.7326    2.3146 C   0  0  0  0  0  0  0  0  0  0  0  0
    4.1986   -1.3000    0.9859 C   0  0  2  0  0  0  0  0  0  0  0  0
    4.3713   -2.8163    1.0429 C   0  0  0  0  0  0  0  0  0  0  0  0
    5.4593   -0.7137    0.7172 O   0  0  0  0  0  0  0  0  0  0  0  0
    2.4671   -0.1279    4.8668 O   0  0  0  0  0  0  0  0  0  0  0  0
    2.7610    1.2725    4.8160 C   0  0  2  0  0  0  0  0  0  0  0  0
   -0.8789    2.0755    5.1902 C   0  0  2  0  0  0  0  0  0  0  0  0
   -2.0668    2.1978    4.4299 O   0  0  0  0  0  0  0  0  0  0  0  0
   -0.9246    0.3189    5.7354 S   0  0  0  0  0  0  0  0  0  0  0  0
   -2.2548    0.1205    6.4772 O   0  0  0  0  0  0  0  0  0  0  0  0
    0.4760   -0.2869    6.8012 C   0  0  0  0  0  0  0  0  0  0  0  0
    1.4295    0.5938    7.7103 C   0  0  2  0  0  0  0  0  0  0  0  0
    2.4873   -0.5558    7.9838 C   0  0  0  0  0  0  0  0  0  0  0  0
    1.3984    6.4818    7.8219 H   0  0  0  0  0  0  0  0  0  0  0  0
    1.3108    5.8414    6.2207 H   0  0  0  0  0  0  0  0  0  0  0  0
    2.8790    6.3171    6.8630 H   0  0  0  0  0  0  0  0  0  0  0  0
    1.2875    3.3730    6.2254 H   0  0  0  0  0  0  0  0  0  0  0  0
   -0.8428    4.7608    9.2069 H   0  0  0  0  0  0  0  0  0  0  0  0
   -3.5651    2.6485    6.4168 H   0  0  0  0  0  0  0  0  0  0  0  0
   -2.9486    4.0557    5.5249 H   0  0  0  0  0  0  0  0  0  0  0  0
   -3.0757    4.1194    7.2370 H   0  0  0  0  0  0  0  0  0  0  0  0
   -1.7991    3.0835    8.5429 H   0  0  0  0  0  0  0  0  0  0  0  0
   -1.1030    1.6172    9.8782 H   0  0  0  0  0  0  0  0  0  0  0  0
   -1.3758    0.5616    8.5811 H   0  0  0  0  0  0  0  0  0  0  0  0
    0.2845   -1.2962   11.5984 H   0  0  0  0  0  0  0  0  0  0  0  0
   -0.9864   -0.1753   11.1590 H   0  0  0  0  0  0  0  0  0  0  0  0
    0.5544    0.4259   11.7621 H   0  0  0  0  0  0  0  0  0  0  0  0
    1.2271    2.6602   10.2227 H   0  0  0  0  0  0  0  0  0  0  0  0
    2.2196    1.2938   10.6195 H   0  0  0  0  0  0  0  0  0  0  0  0
    3.2245    3.1810    9.0368 H   0  0  0  0  0  0  0  0  0  0  0  0
    3.6802    1.5719    8.9731 H   0  0  0  0  0  0  0  0  0  0  0  0
    4.5777    0.2305    6.5785 H   0  0  0  0  0  0  0  0  0  0  0  0
    5.0550    1.7025    7.4013 H   0  0  0  0  0  0  0  0  0  0  0  0
    5.3651    1.4795    5.7302 H   0  0  0  0  0  0  0  0  0  0  0  0
    4.1755    4.0290    3.5198 H   0  0  0  0  0  0  0  0  0  0  0  0
    1.4603    4.6101    1.7115 H   0  0  0  0  0  0  0  0  0  0  0  0
    0.4198    4.4769    4.9159 H   0  0  0  0  0  0  0  0  0  0  0  0
   -0.2391    4.6586    2.3501 H   0  0  0  0  0  0  0  0  0  0  0  0
   -0.6170    1.1070    2.3942 H   0  0  0  0  0  0  0  0  0  0  0  0
    0.1560    2.5007    1.7224 H   0  0  0  0  0  0  0  0  0  0  0  0
   -1.3453    2.7269    2.3357 H   0  0  0  0  0  0  0  0  0  0  0  0
    1.5189    2.1895    2.0007 H   0  0  0  0  0  0  0  0  0  0  0  0
    0.6050   -0.3695    3.8886 H   0  0  0  0  0  0  0  0  0  0  0  0
    1.8936   -1.8723    2.6398 H   0  0  0  0  0  0  0  0  0  0  0  0
    1.6340   -0.5217    1.6152 H   0  0  0  0  0  0  0  0  0  0  0  0
    4.0120    0.3009    2.2844 H   0  0  0  0  0  0  0  0  0  0  0  0
    4.2016   -1.1832    3.1733 H   0  0  0  0  0  0  0  0  0  0  0  0
    3.5295   -1.0121    0.1700 H   0  0  0  0  0  0  0  0  0  0  0  0
    3.4250   -3.3035    1.2782 H   0  0  0  0  0  0  0  0  0  0  0  0
    5.0982   -3.1006    1.8070 H   0  0  0  0  0  0  0  0  0  0  0  0
    4.7197   -3.1885    0.0802 H   0  0  0  0  0  0  0  0  0  0  0  0
    5.3159    0.1884    0.4683 H   0  0  0  0  0  0  0  0  0  0  0  0
    3.6474    1.3254    4.1904 H   0  0  0  0  0  0  0  0  0  0  0  0
   -1.8503    2.0258    3.5280 H   0  0  0  0  0  0  0  0  0  0  0  0
   -0.0251   -0.9814    7.4776 H   0  0  0  0  0  0  0  0  0  0  0  0
    0.9942   -1.0351    6.2113 H   0  0  0  0  0  0  0  0  0  0  0  0
    2.9702   -0.9045    7.0781 H   0  0  0  0  0  0  0  0  0  0  0  0
    2.0223   -1.4703    8.3527 H   0  0  0  0  0  0  0  0  0  0  0  0
    3.2692   -0.3609    8.7084 H   0  0  0  0  0  0  0  0  0  0  0  0
  1  2  1  0
  1 46  1  0
  1 47  1  0
  1 48  1  0
  2  3  1  0
  3 16  1  0
  3  4  1  0
  3 49  1  6
  4  9  1  0
  4  5  1  1
  4  6  1  0
  5 50  1  0
  6  7  1  0
  7 39  1  0
  7  8  1  1
  7  9  1  0
  8 51  1  0
  8 52  1  0
  8 53  1  0
  9 10  1  0
  9 54  1  1
 10 11  1  0
 10 55  1  0
 10 56  1  0
 11 44  1  0
 11 12  1  1
 11 14  1  0
 12 13  1  0
 13 57  1  0
 13 58  1  0
 13 59  1  0
 14 15  1  0
 14 60  1  0
 14 61  1  0
 16 15  1  1
 15 62  1  0
 15 63  1  0
 16 44  1  0
 16 17  1  0
 17 38  1  0
 17 18  1  1
 17 19  1  0
 18 64  1  0
 18 65  1  0
 18 66  1  0
 19 20  2  0
 19 21  1  0
 21 23  1  0
 21 22  1  0
 21 67  1  6
 22 23  1  0
 23 24  1  6
 23 25  1  0
 24 68  1  0
 25 26  1  0
 25 27  1  0
 25 69  1  1
 26 70  1  0
 27 28  1  6
 27 29  1  0
 27 39  1  0
 28 71  1  0
 28 72  1  0
 28 73  1  0
 29 38  1  0
 29 30  1  6
 29 31  1  0
 30 74  1  0
 31 32  1  0
 31 37  1  0
 31 75  1  1
 32 33  1  0
 32 76  1  0
 32 77  1  0
 33 34  1  0
 33 78  1  0
 33 79  1  0
 34 35  1  0
 34 36  1  0
 34 80  1  6
 35 81  1  0
 35 82  1  0
 35 83  1  0
 36 84  1  0
 37 38  1  0
 38 85  1  6
 39 40  1  6
 39 41  1  0
 40 86  1  0
 41 42  2  0
 41 43  1  1
 43 44  1  0
 43 87  1  0
 43 88  1  0
 44 45  1  1
 45 89  1  0
 45 90  1  0
 45 91  1  0
M  END
>  <i_m_ct_stereo_status>  (7) 
1

>  <s_m_source_file>  (7) 
/var/tmp/pbs.5075288.sched01/tmpg6npxhsy/83n53gbz8q.sdf

>  <i_m_source_file_index>  (7) 
27

>  <i_lp_mmshare_version>  (7) 
48012

>  <i_f3d_flags>  (7) 
0

>  <s_epik_input>  (7) 
W08tXVtTK10xW0NIMl1bQ0BdMihbQ0gzXSlbQ0BAXShPW0NIM10pKFtDSDJdW0NIMl0zKVtDSDJdW0NAQEhdKFtDQEBdKE80KShbT0hdKVtDQEhdNU9bQ0gzXSlbQ0BdNChbQ0gzXSlbQ0BAXTEoW09IXSlbQ0BAXShbQ0gzXSkoW0NASF0oW09IXSlbQ0BdNihbT0hdKVtDQEBIXShPNilDNz1PKVtDQEBdKFtPSF0pKFtDSF04W0NAQF03KFtDQEBdMjM1KVtDSDNdKVtDQEhdKE84KVtDSDJdW0NIMl1bQ0BIXShbQ0gzXSlbT0hd

>  <s_epik_cmdline>  (7) 
J2VwaWtfcHl0aG9uJywgJy1waHQnLCAnMi4wJywgJy1waCcsICc3LjAnLCAnLXRuJywgJzgnLCAnLW1hJywgJzIwMCcsICctaW1hZScsICc8aW5maWxlLm1hZT4nLCAnLW9tYWUnLCAnPG91dGZpbGUubWFlPic=

>  <r_lp_tautomer_probability>  (7) 
1

>  <r_epik_Ionization_Penalty>  (7) 
7.19537e-05

>  <r_epik_Ionization_Penalty_Charging>  (7) 
0

>  <r_epik_Ionization_Penalty_Neutral>  (7) 
7.19537e-05

>  <r_epik_State_Penalty>  (7) 
-0

>  <r_epik_Charging_Adjusted_Penalty>  (7) 
0

>  <i_epik_Tot_Q>  (7) 
0

>  <i_epik_Tot_abs_Q>  (7) 
2

>  <s_lp_Force_Field>  (7) 
OPLS3e

>  <r_lp_Energy>  (7) 
276.431

>  <b_lp_Chiralities_Consistent>  (7) 
1

>  <s_lp_Variant>  (7) 
9:0-1

>  <s_i_glide_gridfile>  (7) 
pfpi4k_grid

>  <i_i_glide_lignum>  (7) 
27

>  <i_i_glide_rotatable_bonds>  (7) 
11

>  <r_i_docking_score>  (7) 
-4.33332

>  <r_i_glide_ligand_efficiency>  (7) 
-0.096296

>  <r_i_glide_ligand_efficiency_sa>  (7) 
-0.342515

>  <r_i_glide_ligand_efficiency_ln>  (7) 
-0.901524

>  <r_i_glide_gscore>  (7) 
-4.33332

>  <r_i_glide_lipo>  (7) 
-0.181042

>  <r_i_glide_hbond>  (7) 
-0.178472

>  <r_i_glide_metal>  (7) 
-0

>  <r_i_glide_rewards>  (7) 
0

>  <r_i_glide_evdw>  (7) 
-22.0767

>  <r_i_glide_ecoul>  (7) 
-19.5778

>  <r_i_glide_erotb>  (7) 
0.147049

>  <r_i_glide_esite>  (7) 
-0.0803516

>  <r_i_glide_emodel>  (7) 
-49.6727

>  <r_i_glide_energy>  (7) 
-41.6545

>  <r_i_glide_einternal>  (7) 
9.28342

>  <r_i_glide_intrahb_reward>  (7) 
-0

>  <i_i_glide_confnum>  (7) 
3

>  <i_i_glide_posenum>  (7) 
35

>  <r_i_glide_eff_state_penalty>  (7) 
0

>  <ligand_id>  (7) 
9

>  <original_smiles>  (7) 
COC1C2(O)OC3(C)C2CC2(OC)CCC14C1(C)C(=O)C5OC5(O)C(O)C(C)(C5(O)C(CCC(C)O)OC15)C3(O)[S+]([O-])CC24C

>  <smiles>  (7) 
[H]OC([H])(C([H])([H])[H])C([H])([H])C([H])([H])C1([H])OC2([H])C1(O[H])C1(C([H])([H])[H])C([H])(O[H])C3(O[H])OC3([H])C(=O)C2(C([H])([H])[H])C23C([H])([H])C([H])([H])C4(OC([H])([H])[H])C([H])([H])C5([H])C(O[H])(OC5(C([H])([H])[H])C1(O[H])S(=O)C([H])([H])C42C([H])([H])[H])C3([H])OC([H])([H])[H]

$$$$
9:0:1
     RDKit          3D

 91 98  0  0  1  0  0  0  0  0999 V2000
    1.9706    5.8320    7.1057 C   0  0  0  0  0  0  0  0  0  0  0  0
    2.2277    4.5324    7.6375 O   0  0  0  0  0  0  0  0  0  0  0  0
    1.4222    3.3853    7.2741 C   0  0  2  0  0  0  0  0  0  0  0  0
    0.0468    3.6748    7.8588 C   0  0  1  0  0  0  0  0  0  0  0  0
    0.0720    4.5448    8.9676 O   0  0  0  0  0  0  0  0  0  0  0  0
   -0.6880    4.2008    6.7214 O   0  0  0  0  0  0  0  0  0  0  0  0
   -1.3598    2.9371    6.5242 C   0  0  2  0  0  0  0  0  0  0  0  0
   -2.8107    3.4940    6.4250 C   0  0  0  0  0  0  0  0  0  0  0  0
   -0.9810    2.6281    8.0181 C   0  0  1  0  0  0  0  0  0  0  0  0
   -0.7413    1.3912    8.8849 C   0  0  0  0  0  0  0  0  0  0  0  0
    0.7048    0.8606    9.0688 C   0  0  2  0  0  0  0  0  0  0  0  0
    0.5646   -0.3663    9.8052 O   0  0  0  0  0  0  0  0  0  0  0  0
    0.0789   -0.3208   11.1461 C   0  0  0  0  0  0  0  0  0  0  0  0
    1.7188    1.7854    9.7912 C   0  0  0  0  0  0  0  0  0  0  0  0
    2.8183    2.1733    8.7895 C   0  0  0  0  0  0  0  0  0  0  0  0
    2.1890    1.9893    7.3704 C   0  0  2  0  0  0  0  0  0  0  0  0
    3.2295    1.9511    6.0997 C   0  0  2  0  0  0  0  0  0  0  0  0
    4.5820    1.2527    6.4885 C   0  0  0  0  0  0  0  0  0  0  0  0
    3.7386    3.3530    5.5899 C   0  0  0  0  0  0  0  0  0  0  0  0
    4.5579    3.9509    6.2979 O   0  0  0  0  0  0  0  0  0  0  0  0
    3.3944    3.9985    4.2376 C   0  0  2  0  0  0  0  0  0  0  0  0
    2.8192    5.2964    4.4154 O   0  0  0  0  0  0  0  0  0  0  0  0
    2.0542    4.4268    3.5861 C   0  0  1  0  0  0  0  0  0  0  0  0
    2.2337    4.6341    2.1970 O   0  0  0  0  0  0  0  0  0  0  0  0
    0.6105    4.0134    3.9807 C   0  0  1  0  0  0  0  0  0  0  0  0
   -0.3343    4.7970    3.2782 O   0  0  0  0  0  0  0  0  0  0  0  0
    0.2529    2.4501    3.9840 C   0  0  1  0  0  0  0  0  0  0  0  0
   -0.4384    2.1806    2.5622 C   0  0  0  0  0  0  0  0  0  0  0  0
    1.6034    1.5278    3.8064 C   0  0  2  0  0  0  0  0  0  0  0  0
    2.2122    1.9177    2.5953 O   0  0  0  0  0  0  0  0  0  0  0  0
    1.5573   -0.0196    3.7161 C   0  0  1  0  0  0  0  0  0  0  0  0
    2.1052   -0.8427    2.5213 C   0  0  0  0  0  0  0  0  0  0  0  0
    3.6427   -0.8437    2.3653 C   0  0  0  0  0  0  0  0  0  0  0  0
    4.1674   -1.4125    1.0481 C   0  0  2  0  0  0  0  0  0  0  0  0
    3.9375   -2.9172    0.9076 C   0  0  0  0  0  0  0  0  0  0  0  0
    5.5570   -1.1562    1.0065 O   0  0  0  0  0  0  0  0  0  0  0  0
    2.4282   -0.1583    4.8724 O   0  0  0  0  0  0  0  0  0  0  0  0
    2.7385    1.2429    4.8169 C   0  0  2  0  0  0  0  0  0  0  0  0
   -0.8849    2.0990    5.1878 C   0  0  2  0  0  0  0  0  0  0  0  0
   -2.0745    2.2336    4.4325 O   0  0  0  0  0  0  0  0  0  0  0  0
   -0.9614    0.3353    5.7297 S   0  0  0  0  0  0  0  0  0  0  0  0
   -2.3000    0.1399    6.4699 O   0  0  0  0  0  0  0  0  0  0  0  0
    0.4284   -0.2839    6.8019 C   0  0  0  0  0  0  0  0  0  0  0  0
    1.3984    0.5834    7.7116 C   0  0  2  0  0  0  0  0  0  0  0  0
    2.4419   -0.5816    7.9824 C   0  0  0  0  0  0  0  0  0  0  0  0
    1.4627    6.4874    7.8130 H   0  0  0  0  0  0  0  0  0  0  0  0
    1.3532    5.8311    6.2169 H   0  0  0  0  0  0  0  0  0  0  0  0
    2.9344    6.2802    6.8559 H   0  0  0  0  0  0  0  0  0  0  0  0
    1.3018    3.3652    6.2234 H   0  0  0  0  0  0  0  0  0  0  0  0
    0.5039    5.3418    8.6840 H   0  0  0  0  0  0  0  0  0  0  0  0
   -3.5617    2.7054    6.4122 H   0  0  0  0  0  0  0  0  0  0  0  0
   -2.9386    4.1125    5.5361 H   0  0  0  0  0  0  0  0  0  0  0  0
   -3.0509    4.1440    7.2548 H   0  0  0  0  0  0  0  0  0  0  0  0
   -1.7781    3.1293    8.5533 H   0  0  0  0  0  0  0  0  0  0  0  0
   -1.1166    1.6397    9.8798 H   0  0  0  0  0  0  0  0  0  0  0  0
   -1.3903    0.5900    8.5725 H   0  0  0  0  0  0  0  0  0  0  0  0
    0.2547   -1.2940   11.6016 H   0  0  0  0  0  0  0  0  0  0  0  0
   -0.9915   -0.1307   11.1938 H   0  0  0  0  0  0  0  0  0  0  0  0
    0.5757    0.4187   11.7720 H   0  0  0  0  0  0  0  0  0  0  0  0
    1.2297    2.6550   10.2210 H   0  0  0  0  0  0  0  0  0  0  0  0
    2.2149    1.2764   10.6143 H   0  0  0  0  0  0  0  0  0  0  0  0
    3.2368    3.1446    9.0317 H   0  0  0  0  0  0  0  0  0  0  0  0
    3.6661    1.5305    8.9686 H   0  0  0  0  0  0  0  0  0  0  0  0
    4.5427    0.1748    6.5759 H   0  0  0  0  0  0  0  0  0  0  0  0
    5.0425    1.6401    7.3985 H   0  0  0  0  0  0  0  0  0  0  0  0
    5.3441    1.4134    5.7261 H   0  0  0  0  0  0  0  0  0  0  0  0
    4.2101    3.9661    3.4957 H   0  0  0  0  0  0  0  0  0  0  0  0
    1.3994    4.6026    1.7193 H   0  0  0  0  0  0  0  0  0  0  0  0
    0.4385    4.4803    4.9139 H   0  0  0  0  0  0  0  0  0  0  0  0
   -0.2246    4.6439    2.3172 H   0  0  0  0  0  0  0  0  0  0  0  0
   -0.6433    1.1223    2.3961 H   0  0  0  0  0  0  0  0  0  0  0  0
    0.1585    2.5022    1.7265 H   0  0  0  0  0  0  0  0  0  0  0  0
   -1.3435    2.7501    2.3333 H   0  0  0  0  0  0  0  0  0  0  0  0
    1.5260    2.1718    1.9940 H   0  0  0  0  0  0  0  0  0  0  0  0
    0.5581   -0.3672    3.8875 H   0  0  0  0  0  0  0  0  0  0  0  0
    1.7698   -1.8759    2.6204 H   0  0  0  0  0  0  0  0  0  0  0  0
    1.6251   -0.5004    1.6016 H   0  0  0  0  0  0  0  0  0  0  0  0
    4.0180    0.1724    2.3537 H   0  0  0  0  0  0  0  0  0  0  0  0
    4.0863   -1.3487    3.2274 H   0  0  0  0  0  0  0  0  0  0  0  0
    3.7056   -0.8779    0.2141 H   0  0  0  0  0  0  0  0  0  0  0  0
    2.8742   -3.1556    0.9574 H   0  0  0  0  0  0  0  0  0  0  0  0
    4.4477   -3.4698    1.7002 H   0  0  0  0  0  0  0  0  0  0  0  0
    4.3096   -3.2641   -0.0574 H   0  0  0  0  0  0  0  0  0  0  0  0
    5.9565   -1.5609    1.7657 H   0  0  0  0  0  0  0  0  0  0  0  0
    3.6255    1.2876    4.1955 H   0  0  0  0  0  0  0  0  0  0  0  0
   -1.8578    2.0752    3.5216 H   0  0  0  0  0  0  0  0  0  0  0  0
   -0.0799   -0.9709    7.4799 H   0  0  0  0  0  0  0  0  0  0  0  0
    0.9379   -1.0388    6.2167 H   0  0  0  0  0  0  0  0  0  0  0  0
    2.9202   -0.9372    7.0762 H   0  0  0  0  0  0  0  0  0  0  0  0
    1.9636   -1.4902    8.3526 H   0  0  0  0  0  0  0  0  0  0  0  0
    3.2283   -0.3980    8.7085 H   0  0  0  0  0  0  0  0  0  0  0  0
  1  2  1  0
  1 46  1  0
  1 47  1  0
  1 48  1  0
  2  3  1  0
  3 16  1  0
  3  4  1  0
  3 49  1  6
  4  9  1  0
  4  5  1  1
  4  6  1  0
  5 50  1  0
  6  7  1  0
  7 39  1  0
  7  8  1  1
  7  9  1  0
  8 51  1  0
  8 52  1  0
  8 53  1  0
  9 10  1  0
  9 54  1  1
 10 11  1  0
 10 55  1  0
 10 56  1  0
 11 44  1  0
 11 12  1  1
 11 14  1  0
 12 13  1  0
 13 57  1  0
 13 58  1  0
 13 59  1  0
 14 15  1  0
 14 60  1  0
 14 61  1  0
 16 15  1  1
 15 62  1  0
 15 63  1  0
 16 44  1  0
 16 17  1  0
 17 38  1  0
 17 18  1  1
 17 19  1  0
 18 64  1  0
 18 65  1  0
 18 66  1  0
 19 20  2  0
 19 21  1  0
 21 23  1  0
 21 22  1  0
 21 67  1  6
 22 23  1  0
 23 24  1  6
 23 25  1  0
 24 68  1  0
 25 26  1  0
 25 27  1  0
 25 69  1  1
 26 70  1  0
 27 28  1  6
 27 29  1  0
 27 39  1  0
 28 71  1  0
 28 72  1  0
 28 73  1  0
 29 38  1  0
 29 30  1  6
 29 31  1  0
 30 74  1  0
 31 32  1  0
 31 37  1  0
 31 75  1  1
 32 33  1  0
 32 76  1  0
 32 77  1  0
 33 34  1  0
 33 78  1  0
 33 79  1  0
 34 35  1  0
 34 36  1  0
 34 80  1  6
 35 81  1  0
 35 82  1  0
 35 83  1  0
 36 84  1  0
 37 38  1  0
 38 85  1  6
 39 40  1  6
 39 41  1  0
 40 86  1  0
 41 42  2  0
 41 43  1  1
 43 44  1  0
 43 87  1  0
 43 88  1  0
 44 45  1  1
 45 89  1  0
 45 90  1  0
 45 91  1  0
M  END
>  <i_m_ct_stereo_status>  (8) 
1

>  <s_m_source_file>  (8) 
/var/tmp/pbs.5075288.sched01/tmpg6npxhsy/83n53gbz8q.sdf

>  <i_m_source_file_index>  (8) 
27

>  <i_lp_mmshare_version>  (8) 
48012

>  <i_f3d_flags>  (8) 
0

>  <s_epik_input>  (8) 
W08tXVtTK10xW0NIMl1bQ0BdMihbQ0gzXSlbQ0BAXShPW0NIM10pKFtDSDJdW0NIMl0zKVtDSDJdW0NAQEhdKFtDQEBdKE80KShbT0hdKVtDQEhdNU9bQ0gzXSlbQ0BdNChbQ0gzXSlbQ0BAXTEoW09IXSlbQ0BAXShbQ0gzXSkoW0NASF0oW09IXSlbQ0BdNihbT0hdKVtDQEBIXShPNilDNz1PKVtDQEBdKFtPSF0pKFtDSF04W0NAQF03KFtDQEBdMjM1KVtDSDNdKVtDQEhdKE84KVtDSDJdW0NIMl1bQ0BIXShbQ0gzXSlbT0hd

>  <s_epik_cmdline>  (8) 
J2VwaWtfcHl0aG9uJywgJy1waHQnLCAnMi4wJywgJy1waCcsICc3LjAnLCAnLXRuJywgJzgnLCAnLW1hJywgJzIwMCcsICctaW1hZScsICc8aW5maWxlLm1hZT4nLCAnLW9tYWUnLCAnPG91dGZpbGUubWFlPic=

>  <r_lp_tautomer_probability>  (8) 
1

>  <r_epik_Ionization_Penalty>  (8) 
7.19537e-05

>  <r_epik_Ionization_Penalty_Charging>  (8) 
0

>  <r_epik_Ionization_Penalty_Neutral>  (8) 
7.19537e-05

>  <r_epik_State_Penalty>  (8) 
-0

>  <r_epik_Charging_Adjusted_Penalty>  (8) 
0

>  <i_epik_Tot_Q>  (8) 
0

>  <i_epik_Tot_abs_Q>  (8) 
2

>  <s_lp_Force_Field>  (8) 
OPLS3e

>  <r_lp_Energy>  (8) 
276.431

>  <b_lp_Chiralities_Consistent>  (8) 
1

>  <s_lp_Variant>  (8) 
9:0-1

>  <s_i_glide_gridfile>  (8) 
pfpi4k_grid

>  <i_i_glide_lignum>  (8) 
27

>  <i_i_glide_rotatable_bonds>  (8) 
11

>  <r_i_docking_score>  (8) 
-4.24257

>  <r_i_glide_ligand_efficiency>  (8) 
-0.0942793

>  <r_i_glide_ligand_efficiency_sa>  (8) 
-0.335341

>  <r_i_glide_ligand_efficiency_ln>  (8) 
-0.882643

>  <r_i_glide_gscore>  (8) 
-4.24257

>  <r_i_glide_lipo>  (8) 
-0.161627

>  <r_i_glide_hbond>  (8) 
-0.152

>  <r_i_glide_metal>  (8) 
-0

>  <r_i_glide_rewards>  (8) 
0

>  <r_i_glide_evdw>  (8) 
-21.4856

>  <r_i_glide_ecoul>  (8) 
-19.4683

>  <r_i_glide_erotb>  (8) 
0.147049

>  <r_i_glide_esite>  (8) 
-0.0814701

>  <r_i_glide_emodel>  (8) 
-49.2672

>  <r_i_glide_energy>  (8) 
-40.9539

>  <r_i_glide_einternal>  (8) 
8.44083

>  <r_i_glide_intrahb_reward>  (8) 
-0

>  <i_i_glide_confnum>  (8) 
3

>  <i_i_glide_posenum>  (8) 
5

>  <r_i_glide_eff_state_penalty>  (8) 
0

>  <ligand_id>  (8) 
9

>  <original_smiles>  (8) 
COC1C2(O)OC3(C)C2CC2(OC)CCC14C1(C)C(=O)C5OC5(O)C(O)C(C)(C5(O)C(CCC(C)O)OC15)C3(O)[S+]([O-])CC24C

>  <smiles>  (8) 
[H]OC([H])(C([H])([H])[H])C([H])([H])C([H])([H])C1([H])OC2([H])C1(O[H])C1(C([H])([H])[H])C([H])(O[H])C3(O[H])OC3([H])C(=O)C2(C([H])([H])[H])C23C([H])([H])C([H])([H])C4(OC([H])([H])[H])C([H])([H])C5([H])C(O[H])(OC5(C([H])([H])[H])C1(O[H])S(=O)C([H])([H])C42C([H])([H])[H])C3([H])OC([H])([H])[H]

$$$$
9:0:2
     RDKit          3D

 91 98  0  0  1  0  0  0  0  0999 V2000
    1.8490    5.8675    7.1467 C   0  0  0  0  0  0  0  0  0  0  0  0
    2.1710    4.5727    7.6522 O   0  0  0  0  0  0  0  0  0  0  0  0
    1.3959    3.4076    7.2939 C   0  0  2  0  0  0  0  0  0  0  0  0
   -0.0063    3.6479    7.8602 C   0  0  1  0  0  0  0  0  0  0  0  0
   -0.0159    4.5084    8.9874 O   0  0  0  0  0  0  0  0  0  0  0  0
   -0.7402    4.1492    6.7083 O   0  0  0  0  0  0  0  0  0  0  0  0
   -1.3541    2.8569    6.4986 C   0  0  2  0  0  0  0  0  0  0  0  0
   -2.8236    3.3620    6.3802 C   0  0  0  0  0  0  0  0  0  0  0  0
   -0.9867    2.5611    7.9998 C   0  0  1  0  0  0  0  0  0  0  0  0
   -0.7147    1.3343    8.8609 C   0  0  0  0  0  0  0  0  0  0  0  0
    0.7472    0.8472    9.0614 C   0  0  2  0  0  0  0  0  0  0  0  0
    0.6478   -0.3885    9.7934 O   0  0  0  0  0  0  0  0  0  0  0  0
    0.0994   -0.3742   11.1111 C   0  0  0  0  0  0  0  0  0  0  0  0
    1.7162    1.8026    9.8076 C   0  0  0  0  0  0  0  0  0  0  0  0
    2.8169    2.2388    8.8186 C   0  0  0  0  0  0  0  0  0  0  0  0
    2.2195    2.0376    7.3844 C   0  0  2  0  0  0  0  0  0  0  0  0
    3.2855    2.0376    6.1221 C   0  0  2  0  0  0  0  0  0  0  0  0
    4.6559    1.4021    6.5403 C   0  0  0  0  0  0  0  0  0  0  0  0
    3.7383    3.4708    5.6488 C   0  0  0  0  0  0  0  0  0  0  0  0
    4.5297    4.0987    6.3561 O   0  0  0  0  0  0  0  0  0  0  0  0
    3.3998    4.1093    4.2869 C   0  0  2  0  0  0  0  0  0  0  0  0
    2.7519    5.3911    4.4636 O   0  0  0  0  0  0  0  0  0  0  0  0
    2.0406    4.4748    3.6190 C   0  0  1  0  0  0  0  0  0  0  0  0
    2.2702    4.6705    2.2366 O   0  0  0  0  0  0  0  0  0  0  0  0
    0.6235    4.0046    3.9918 C   0  0  1  0  0  0  0  0  0  0  0  0
   -0.3391    4.7744    3.2826 O   0  0  0  0  0  0  0  0  0  0  0  0
    0.3203    2.4313    3.9781 C   0  0  1  0  0  0  0  0  0  0  0  0
   -0.3325    2.1536    2.5471 C   0  0  0  0  0  0  0  0  0  0  0  0
    1.7054    1.5502    3.8102 C   0  0  2  0  0  0  0  0  0  0  0  0
    2.3223    1.9574    2.6020 O   0  0  0  0  0  0  0  0  0  0  0  0
    1.7000    0.0053    3.7291 C   0  0  1  0  0  0  0  0  0  0  0  0
    2.2955   -0.7721    2.5379 C   0  0  0  0  0  0  0  0  0  0  0  0
    2.3440   -2.2943    2.7731 C   0  0  0  0  0  0  0  0  0  0  0  0
    3.1585   -3.0911    1.7314 C   0  0  2  0  0  0  0  0  0  0  0  0
    4.6189   -2.6434    1.5831 C   0  0  0  0  0  0  0  0  0  0  0  0
    2.5391   -3.0560    0.4623 O   0  0  0  0  0  0  0  0  0  0  0  0
    2.5928   -0.0979    4.8723 O   0  0  0  0  0  0  0  0  0  0  0  0
    2.8583    1.3114    4.8143 C   0  0  2  0  0  0  0  0  0  0  0  0
   -0.8225    2.0334    5.1692 C   0  0  2  0  0  0  0  0  0  0  0  0
   -2.0043    2.1170    4.3961 O   0  0  0  0  0  0  0  0  0  0  0  0
   -0.8576    0.2696    5.7211 S   0  0  0  0  0  0  0  0  0  0  0  0
   -2.1796    0.0120    6.4423 O   0  0  0  0  0  0  0  0  0  0  0  0
    0.5658   -0.2982    6.7856 C   0  0  0  0  0  0  0  0  0  0  0  0
    1.4779    0.6047    7.7129 C   0  0  2  0  0  0  0  0  0  0  0  0
    2.5633   -0.5208    7.9985 C   0  0  0  0  0  0  0  0  0  0  0  0
    1.3026    6.4868    7.8573 H   0  0  0  0  0  0  0  0  0  0  0  0
    1.2514    5.8509    6.2446 H   0  0  0  0  0  0  0  0  0  0  0  0
    2.7916    6.3650    6.9165 H   0  0  0  0  0  0  0  0  0  0  0  0
    1.2930    3.3844    6.2414 H   0  0  0  0  0  0  0  0  0  0  0  0
   -0.9150    4.7000    9.1943 H   0  0  0  0  0  0  0  0  0  0  0  0
   -3.5444    2.5447    6.3682 H   0  0  0  0  0  0  0  0  0  0  0  0
   -2.9640    3.9606    5.4831 H   0  0  0  0  0  0  0  0  0  0  0  0
   -3.1107    4.0162    7.1941 H   0  0  0  0  0  0  0  0  0  0  0  0
   -1.8243    3.0085    8.5191 H   0  0  0  0  0  0  0  0  0  0  0  0
   -1.1032    1.5661    9.8522 H   0  0  0  0  0  0  0  0  0  0  0  0
   -1.3559    0.5334    8.5440 H   0  0  0  0  0  0  0  0  0  0  0  0
    0.3157   -1.3342   11.5774 H   0  0  0  0  0  0  0  0  0  0  0  0
   -0.9845   -0.2564   11.1094 H   0  0  0  0  0  0  0  0  0  0  0  0
    0.5275    0.3977   11.7502 H   0  0  0  0  0  0  0  0  0  0  0  0
    1.1882    2.6535   10.2343 H   0  0  0  0  0  0  0  0  0  0  0  0
    2.2097    1.3045   10.6439 H   0  0  0  0  0  0  0  0  0  0  0  0
    3.1905    3.2244    9.0788 H   0  0  0  0  0  0  0  0  0  0  0  0
    3.6887    1.6337    9.0146 H   0  0  0  0  0  0  0  0  0  0  0  0
    4.6535    0.3251    6.6274 H   0  0  0  0  0  0  0  0  0  0  0  0
    5.0762    1.8073    7.4609 H   0  0  0  0  0  0  0  0  0  0  0  0
    5.4235    1.5969    5.7920 H   0  0  0  0  0  0  0  0  0  0  0  0
    4.1926    4.1309    3.5581 H   0  0  0  0  0  0  0  0  0  0  0  0
    1.4693    4.6567    1.7432 H   0  0  0  0  0  0  0  0  0  0  0  0
    0.4198    4.4686    4.9190 H   0  0  0  0  0  0  0  0  0  0  0  0
   -0.2246    4.6356    2.3424 H   0  0  0  0  0  0  0  0  0  0  0  0
   -0.5015    1.0929    2.3725 H   0  0  0  0  0  0  0  0  0  0  0  0
    0.2731    2.5034    1.7275 H   0  0  0  0  0  0  0  0  0  0  0  0
   -1.2539    2.6881    2.3094 H   0  0  0  0  0  0  0  0  0  0  0  0
    1.6495    2.2072    1.9934 H   0  0  0  0  0  0  0  0  0  0  0  0
    0.7202   -0.3919    3.9142 H   0  0  0  0  0  0  0  0  0  0  0  0
    1.6880   -0.5932    1.6495 H   0  0  0  0  0  0  0  0  0  0  0  0
    3.2893   -0.3938    2.3008 H   0  0  0  0  0  0  0  0  0  0  0  0
    2.7777   -2.4821    3.7552 H   0  0  0  0  0  0  0  0  0  0  0  0
    1.3272   -2.6928    2.8222 H   0  0  0  0  0  0  0  0  0  0  0  0
    3.1670   -4.1354    2.0470 H   0  0  0  0  0  0  0  0  0  0  0  0
    5.1316   -2.6406    2.5464 H   0  0  0  0  0  0  0  0  0  0  0  0
    4.6967   -1.6466    1.1510 H   0  0  0  0  0  0  0  0  0  0  0  0
    5.1612   -3.3169    0.9195 H   0  0  0  0  0  0  0  0  0  0  0  0
    2.3625   -2.1594    0.2058 H   0  0  0  0  0  0  0  0  0  0  0  0
    3.7536    1.3713    4.1930 H   0  0  0  0  0  0  0  0  0  0  0  0
   -1.7665    2.0081    3.4845 H   0  0  0  0  0  0  0  0  0  0  0  0
    0.0732   -1.0071    7.4530 H   0  0  0  0  0  0  0  0  0  0  0  0
    1.1124   -1.0249    6.1971 H   0  0  0  0  0  0  0  0  0  0  0  0
    3.0705   -0.8526    7.0977 H   0  0  0  0  0  0  0  0  0  0  0  0
    2.1162   -1.4504    8.3581 H   0  0  0  0  0  0  0  0  0  0  0  0
    3.3305   -0.3097    8.7381 H   0  0  0  0  0  0  0  0  0  0  0  0
  1  2  1  0
  1 46  1  0
  1 47  1  0
  1 48  1  0
  2  3  1  0
  3 16  1  0
  3  4  1  0
  3 49  1  6
  4  9  1  0
  4  5  1  1
  4  6  1  0
  5 50  1  0
  6  7  1  0
  7 39  1  0
  7  8  1  1
  7  9  1  0
  8 51  1  0
  8 52  1  0
  8 53  1  0
  9 10  1  0
  9 54  1  1
 10 11  1  0
 10 55  1  0
 10 56  1  0
 11 44  1  0
 11 12  1  1
 11 14  1  0
 12 13  1  0
 13 57  1  0
 13 58  1  0
 13 59  1  0
 14 15  1  0
 14 60  1  0
 14 61  1  0
 16 15  1  1
 15 62  1  0
 15 63  1  0
 16 44  1  0
 16 17  1  0
 17 38  1  0
 17 18  1  1
 17 19  1  0
 18 64  1  0
 18 65  1  0
 18 66  1  0
 19 20  2  0
 19 21  1  0
 21 23  1  0
 21 22  1  0
 21 67  1  6
 22 23  1  0
 23 24  1  6
 23 25  1  0
 24 68  1  0
 25 26  1  0
 25 27  1  0
 25 69  1  1
 26 70  1  0
 27 28  1  6
 27 29  1  0
 27 39  1  0
 28 71  1  0
 28 72  1  0
 28 73  1  0
 29 38  1  0
 29 30  1  6
 29 31  1  0
 30 74  1  0
 31 32  1  0
 31 37  1  0
 31 75  1  1
 32 33  1  0
 32 76  1  0
 32 77  1  0
 33 34  1  0
 33 78  1  0
 33 79  1  0
 34 35  1  0
 34 36  1  0
 34 80  1  1
 35 81  1  0
 35 82  1  0
 35 83  1  0
 36 84  1  0
 37 38  1  0
 38 85  1  6
 39 40  1  6
 39 41  1  0
 40 86  1  0
 41 42  2  0
 41 43  1  1
 43 44  1  0
 43 87  1  0
 43 88  1  0
 44 45  1  1
 45 89  1  0
 45 90  1  0
 45 91  1  0
M  END
>  <i_m_ct_stereo_status>  (9) 
1

>  <s_m_source_file>  (9) 
/var/tmp/pbs.5075288.sched01/tmpg6npxhsy/83n53gbz8q.sdf

>  <i_m_source_file_index>  (9) 
27

>  <i_lp_mmshare_version>  (9) 
48012

>  <i_f3d_flags>  (9) 
0

>  <s_epik_input>  (9) 
W08tXVtTK10xW0NIMl1bQ0BdMihbQ0gzXSlbQ0BAXShPW0NIM10pKFtDSDJdW0NIMl0zKVtDSDJdW0NAQEhdKFtDQEBdKE80KShbT0hdKVtDQEhdNU9bQ0gzXSlbQ0BdNChbQ0gzXSlbQ0BAXTEoW09IXSlbQ0BAXShbQ0gzXSkoW0NASF0oW09IXSlbQ0BdNihbT0hdKVtDQEBIXShPNilDNz1PKVtDQEBdKFtPSF0pKFtDSF04W0NAQF03KFtDQEBdMjM1KVtDSDNdKVtDQEhdKE84KVtDSDJdW0NIMl1bQ0BIXShbQ0gzXSlbT0hd

>  <s_epik_cmdline>  (9) 
J2VwaWtfcHl0aG9uJywgJy1waHQnLCAnMi4wJywgJy1waCcsICc3LjAnLCAnLXRuJywgJzgnLCAnLW1hJywgJzIwMCcsICctaW1hZScsICc8aW5maWxlLm1hZT4nLCAnLW9tYWUnLCAnPG91dGZpbGUubWFlPic=

>  <r_lp_tautomer_probability>  (9) 
1

>  <r_epik_Ionization_Penalty>  (9) 
7.19537e-05

>  <r_epik_Ionization_Penalty_Charging>  (9) 
0

>  <r_epik_Ionization_Penalty_Neutral>  (9) 
7.19537e-05

>  <r_epik_State_Penalty>  (9) 
-0

>  <r_epik_Charging_Adjusted_Penalty>  (9) 
0

>  <i_epik_Tot_Q>  (9) 
0

>  <i_epik_Tot_abs_Q>  (9) 
2

>  <s_lp_Force_Field>  (9) 
OPLS3e

>  <r_lp_Energy>  (9) 
276.431

>  <b_lp_Chiralities_Consistent>  (9) 
1

>  <s_lp_Variant>  (9) 
9:0-1

>  <s_i_glide_gridfile>  (9) 
pfpi4k_grid

>  <i_i_glide_lignum>  (9) 
27

>  <i_i_glide_rotatable_bonds>  (9) 
11

>  <r_i_docking_score>  (9) 
-4.15442

>  <r_i_glide_ligand_efficiency>  (9) 
-0.0923204

>  <r_i_glide_ligand_efficiency_sa>  (9) 
-0.328374

>  <r_i_glide_ligand_efficiency_ln>  (9) 
-0.864304

>  <r_i_glide_gscore>  (9) 
-4.15442

>  <r_i_glide_lipo>  (9) 
-0.190597

>  <r_i_glide_hbond>  (9) 
-0.20189

>  <r_i_glide_metal>  (9) 
-0

>  <r_i_glide_rewards>  (9) 
0

>  <r_i_glide_evdw>  (9) 
-19.6365

>  <r_i_glide_ecoul>  (9) 
-18.9899

>  <r_i_glide_erotb>  (9) 
0.147049

>  <r_i_glide_esite>  (9) 
-0.0786745

>  <r_i_glide_emodel>  (9) 
-48.8076

>  <r_i_glide_energy>  (9) 
-38.6263

>  <r_i_glide_einternal>  (9) 
4.58722

>  <r_i_glide_intrahb_reward>  (9) 
-0

>  <i_i_glide_confnum>  (9) 
2

>  <i_i_glide_posenum>  (9) 
12

>  <r_i_glide_eff_state_penalty>  (9) 
0

>  <ligand_id>  (9) 
9

>  <original_smiles>  (9) 
COC1C2(O)OC3(C)C2CC2(OC)CCC14C1(C)C(=O)C5OC5(O)C(O)C(C)(C5(O)C(CCC(C)O)OC15)C3(O)[S+]([O-])CC24C

>  <smiles>  (9) 
[H]OC([H])(C([H])([H])[H])C([H])([H])C([H])([H])C1([H])OC2([H])C1(O[H])C1(C([H])([H])[H])C([H])(O[H])C3(O[H])OC3([H])C(=O)C2(C([H])([H])[H])C23C([H])([H])C([H])([H])C4(OC([H])([H])[H])C([H])([H])C5([H])C(O[H])(OC5(C([H])([H])[H])C1(O[H])S(=O)C([H])([H])C42C([H])([H])[H])C3([H])OC([H])([H])[H]

$$$$
9:1:0
     RDKit          3D

 91 98  0  0  1  0  0  0  0  0999 V2000
    6.3762   -9.1932    5.0018 C   0  0  0  0  0  0  0  0  0  0  0  0
    6.1924   -7.7996    4.7847 O   0  0  0  0  0  0  0  0  0  0  0  0
    4.9526   -7.2942    4.2401 C   0  0  2  0  0  0  0  0  0  0  0  0
    4.7744   -7.9262    2.8566 C   0  0  1  0  0  0  0  0  0  0  0  0
    5.9960   -8.2790    2.2472 O   0  0  0  0  0  0  0  0  0  0  0  0
    3.8742   -9.0453    3.1083 O   0  0  0  0  0  0  0  0  0  0  0  0
    2.7276   -8.3086    2.5908 C   0  0  2  0  0  0  0  0  0  0  0  0
    2.2010   -9.4092    1.6287 C   0  0  0  0  0  0  0  0  0  0  0  0
    3.7994   -7.3953    1.8729 C   0  0  1  0  0  0  0  0  0  0  0  0
    3.9187   -5.9570    1.3465 C   0  0  0  0  0  0  0  0  0  0  0  0
    4.5578   -4.8540    2.2503 C   0  0  2  0  0  0  0  0  0  0  0  0
    4.4196   -3.6173    1.5243 O   0  0  0  0  0  0  0  0  0  0  0  0
    5.0381   -3.4962    0.2461 C   0  0  0  0  0  0  0  0  0  0  0  0
    6.0413   -4.9833    2.7011 C   0  0  0  0  0  0  0  0  0  0  0  0
    6.0849   -5.1769    4.2480 C   0  0  0  0  0  0  0  0  0  0  0  0
    4.7004   -5.7547    4.6111 C   0  0  2  0  0  0  0  0  0  0  0  0
    4.1969   -5.7741    6.1913 C   0  0  2  0  0  0  0  0  0  0  0  0
    4.5460   -4.4751    6.9750 C   0  0  0  0  0  0  0  0  0  0  0  0
    4.8528   -6.9039    7.1040 C   0  0  0  0  0  0  0  0  0  0  0  0
    6.0495   -6.7709    7.3543 O   0  0  0  0  0  0  0  0  0  0  0  0
    4.1184   -8.0840    7.7972 C   0  0  2  0  0  0  0  0  0  0  0  0
    4.6369   -9.3452    7.3619 O   0  0  0  0  0  0  0  0  0  0  0  0
    3.2328   -9.2305    7.2231 C   0  0  1  0  0  0  0  0  0  0  0  0
    2.4681   -9.8296    8.2414 O   0  0  0  0  0  0  0  0  0  0  0  0
    2.5389   -9.3259    5.8178 C   0  0  1  0  0  0  0  0  0  0  0  0
    2.0369  -10.6303    5.5693 O   0  0  0  0  0  0  0  0  0  0  0  0
    1.4984   -8.1768    5.3803 C   0  0  1  0  0  0  0  0  0  0  0  0
    0.0811   -8.7160    5.7937 C   0  0  0  0  0  0  0  0  0  0  0  0
    1.5948   -6.9331    6.4240 C   0  0  2  0  0  0  0  0  0  0  0  0
    1.4315   -7.2979    7.7760 O   0  0  0  0  0  0  0  0  0  0  0  0
    0.6563   -5.7115    6.3103 C   0  0  1  0  0  0  0  0  0  0  0  0
   -0.3651   -5.3319    7.4214 C   0  0  0  0  0  0  0  0  0  0  0  0
   -1.2914   -4.1449    7.0884 C   0  0  0  0  0  0  0  0  0  0  0  0
   -0.5938   -2.9735    6.3639 C   0  0  2  0  0  0  0  0  0  0  0  0
    0.4705   -2.2509    7.2149 C   0  0  0  0  0  0  0  0  0  0  0  0
   -1.5517   -2.0132    5.9908 O   0  0  0  0  0  0  0  0  0  0  0  0
    1.7908   -4.8003    6.3700 O   0  0  0  0  0  0  0  0  0  0  0  0
    2.6650   -5.9192    6.1179 C   0  0  1  0  0  0  0  0  0  0  0  0
    1.5775   -7.8587    3.6832 C   0  0  2  0  0  0  0  0  0  0  0  0
    0.4570   -8.6306    3.2740 O   0  0  0  0  0  0  0  0  0  0  0  0
    1.1018   -6.1594    3.0456 S   0  0  0  0  0  0  0  0  0  0  0  0
    0.6838   -6.1918    1.5625 O   0  0  0  0  0  0  0  0  0  0  0  0
    2.2444   -4.7078    3.3590 C   0  0  0  0  0  0  0  0  0  0  0  0
    3.8277   -4.7583    3.6073 C   0  0  2  0  0  0  0  0  0  0  0  0
    3.9556   -3.2446    4.0747 C   0  0  0  0  0  0  0  0  0  0  0  0
    6.8867   -9.2992    5.9598 H   0  0  0  0  0  0  0  0  0  0  0  0
    6.9986   -9.6611    4.2383 H   0  0  0  0  0  0  0  0  0  0  0  0
    5.4497   -9.7514    5.0367 H   0  0  0  0  0  0  0  0  0  0  0  0
    4.1766   -7.7151    4.8245 H   0  0  0  0  0  0  0  0  0  0  0  0
    5.8065   -8.9660    1.6228 H   0  0  0  0  0  0  0  0  0  0  0  0
    1.4191   -8.9927    0.9986 H   0  0  0  0  0  0  0  0  0  0  0  0
    1.8080  -10.2767    2.1652 H   0  0  0  0  0  0  0  0  0  0  0  0
    2.9640   -9.8247    0.9752 H   0  0  0  0  0  0  0  0  0  0  0  0
    4.0058   -7.9640    0.9746 H   0  0  0  0  0  0  0  0  0  0  0  0
    4.5521   -6.0294    0.4589 H   0  0  0  0  0  0  0  0  0  0  0  0
    2.9703   -5.6224    0.9350 H   0  0  0  0  0  0  0  0  0  0  0  0
    4.9947   -2.4516   -0.0592 H   0  0  0  0  0  0  0  0  0  0  0  0
    4.5130   -4.0689   -0.5193 H   0  0  0  0  0  0  0  0  0  0  0  0
    6.0859   -3.7982    0.2542 H   0  0  0  0  0  0  0  0  0  0  0  0
    6.5515   -5.7939    2.1849 H   0  0  0  0  0  0  0  0  0  0  0  0
    6.5945   -4.0774    2.4525 H   0  0  0  0  0  0  0  0  0  0  0  0
    6.9710   -5.7405    4.5350 H   0  0  0  0  0  0  0  0  0  0  0  0
    6.2541   -4.2456    4.7708 H   0  0  0  0  0  0  0  0  0  0  0  0
    3.8830   -3.6387    6.8014 H   0  0  0  0  0  0  0  0  0  0  0  0
    5.5652   -4.1360    6.8131 H   0  0  0  0  0  0  0  0  0  0  0  0
    4.4522   -4.6384    8.0475 H   0  0  0  0  0  0  0  0  0  0  0  0
    4.1326   -7.9976    8.8986 H   0  0  0  0  0  0  0  0  0  0  0  0
    2.3236  -10.7605    8.0651 H   0  0  0  0  0  0  0  0  0  0  0  0
    3.3467   -9.4322    5.1457 H   0  0  0  0  0  0  0  0  0  0  0  0
    1.6680  -11.0204    6.3587 H   0  0  0  0  0  0  0  0  0  0  0  0
   -0.6840   -7.9741    5.5887 H   0  0  0  0  0  0  0  0  0  0  0  0
    0.0137   -8.9576    6.8504 H   0  0  0  0  0  0  0  0  0  0  0  0
   -0.2304   -9.6425    5.3125 H   0  0  0  0  0  0  0  0  0  0  0  0
    2.1499   -7.8550    8.0381 H   0  0  0  0  0  0  0  0  0  0  0  0
    0.1719   -5.7241    5.3502 H   0  0  0  0  0  0  0  0  0  0  0  0
   -0.9897   -6.1976    7.6199 H   0  0  0  0  0  0  0  0  0  0  0  0
    0.1357   -5.1434    8.3715 H   0  0  0  0  0  0  0  0  0  0  0  0
   -2.1209   -4.5116    6.4791 H   0  0  0  0  0  0  0  0  0  0  0  0
   -1.7619   -3.8054    8.0126 H   0  0  0  0  0  0  0  0  0  0  0  0
   -0.1787   -3.3302    5.4218 H   0  0  0  0  0  0  0  0  0  0  0  0
    1.2147   -2.9085    7.6562 H   0  0  0  0  0  0  0  0  0  0  0  0
    0.0212   -1.7295    8.0597 H   0  0  0  0  0  0  0  0  0  0  0  0
    1.0141   -1.5336    6.5991 H   0  0  0  0  0  0  0  0  0  0  0  0
   -1.1311   -1.4118    5.3857 H   0  0  0  0  0  0  0  0  0  0  0  0
    2.5973   -6.1762    5.1026 H   0  0  0  0  0  0  0  0  0  0  0  0
    0.7421   -9.5341    3.1513 H   0  0  0  0  0  0  0  0  0  0  0  0
    2.0759   -4.0433    2.5040 H   0  0  0  0  0  0  0  0  0  0  0  0
    1.7523   -4.1470    4.1522 H   0  0  0  0  0  0  0  0  0  0  0  0
    3.3753   -3.0327    4.9643 H   0  0  0  0  0  0  0  0  0  0  0  0
    3.5214   -2.5482    3.3532 H   0  0  0  0  0  0  0  0  0  0  0  0
    4.9517   -2.8441    4.2306 H   0  0  0  0  0  0  0  0  0  0  0  0
  1  2  1  0
  1 46  1  0
  1 47  1  0
  1 48  1  0
  2  3  1  0
  3 16  1  0
  3  4  1  0
  3 49  1  1
  4  9  1  0
  4  5  1  6
  4  6  1  0
  5 50  1  0
  6  7  1  0
  7 39  1  0
  7  8  1  6
  7  9  1  0
  8 51  1  0
  8 52  1  0
  8 53  1  0
  9 10  1  0
  9 54  1  6
 10 11  1  0
 10 55  1  0
 10 56  1  0
 11 44  1  0
 11 12  1  6
 11 14  1  0
 12 13  1  0
 13 57  1  0
 13 58  1  0
 13 59  1  0
 14 15  1  0
 14 60  1  0
 14 61  1  0
 16 15  1  1
 15 62  1  0
 15 63  1  0
 16 44  1  0
 16 17  1  0
 17 38  1  0
 17 18  1  1
 17 19  1  0
 18 64  1  0
 18 65  1  0
 18 66  1  0
 19 20  2  0
 19 21  1  0
 21 23  1  0
 21 22  1  0
 21 67  1  1
 22 23  1  0
 23 24  1  1
 23 25  1  0
 24 68  1  0
 25 26  1  0
 25 27  1  0
 25 69  1  6
 26 70  1  0
 27 28  1  6
 27 29  1  0
 27 39  1  0
 28 71  1  0
 28 72  1  0
 28 73  1  0
 29 38  1  0
 29 30  1  1
 29 31  1  0
 30 74  1  0
 31 32  1  0
 31 37  1  0
 31 75  1  6
 32 33  1  0
 32 76  1  0
 32 77  1  0
 33 34  1  0
 33 78  1  0
 33 79  1  0
 34 35  1  0
 34 36  1  0
 34 80  1  6
 35 81  1  0
 35 82  1  0
 35 83  1  0
 36 84  1  0
 37 38  1  0
 38 85  1  6
 39 40  1  6
 39 41  1  0
 40 86  1  0
 41 42  2  0
 41 43  1  6
 43 44  1  0
 43 87  1  0
 43 88  1  0
 44 45  1  1
 45 89  1  0
 45 90  1  0
 45 91  1  0
M  END
>  <i_m_ct_stereo_status>  (10) 
1

>  <s_m_source_file>  (10) 
/var/tmp/pbs.5075288.sched01/tmpg6npxhsy/83n53gbz8q.sdf

>  <i_m_source_file_index>  (10) 
28

>  <i_lp_mmshare_version>  (10) 
48012

>  <i_f3d_flags>  (10) 
0

>  <s_epik_input>  (10) 
W08tXVtTK10xW0NIMl1bQ0BdMihbQ0gzXSlbQ0BAXShPW0NIM10pKFtDSDJdW0NIMl0zKVtDSDJdW0NAQEhdKFtDQEBdKE80KShbT0hdKVtDQEhdNU9bQ0gzXSlbQ0BdNChbQ0gzXSlbQ0BAXTEoW09IXSlbQ0BAXShbQ0gzXSkoW0NASF0oW09IXSlbQ0BdNihbT0hdKVtDQEBIXShPNilDNz1PKVtDQEBdKFtPSF0pKFtDSF04W0NAQF03KFtDQEBdMjM1KVtDSDNdKVtDQEhdKE84KVtDSDJdW0NIMl1bQ0BIXShbQ0gzXSlbT0hd

>  <s_epik_cmdline>  (10) 
J2VwaWtfcHl0aG9uJywgJy1waHQnLCAnMi4wJywgJy1waCcsICc3LjAnLCAnLXRuJywgJzgnLCAnLW1hJywgJzIwMCcsICctaW1hZScsICc8aW5maWxlLm1hZT4nLCAnLW9tYWUnLCAnPG91dGZpbGUubWFlPic=

>  <r_lp_tautomer_probability>  (10) 
1

>  <r_epik_Ionization_Penalty>  (10) 
7.19537e-05

>  <r_epik_Ionization_Penalty_Charging>  (10) 
0

>  <r_epik_Ionization_Penalty_Neutral>  (10) 
7.19537e-05

>  <r_epik_State_Penalty>  (10) 
-0

>  <r_epik_Charging_Adjusted_Penalty>  (10) 
0

>  <i_epik_Tot_Q>  (10) 
0

>  <i_epik_Tot_abs_Q>  (10) 
2

>  <s_lp_Force_Field>  (10) 
OPLS3e

>  <r_lp_Energy>  (10) 
291.315

>  <b_lp_Chiralities_Consistent>  (10) 
1

>  <s_lp_Variant>  (10) 
9:0-2

>  <s_i_glide_gridfile>  (10) 
pfpi4k_grid

>  <i_i_glide_lignum>  (10) 
28

>  <i_i_glide_rotatable_bonds>  (10) 
11

>  <r_i_docking_score>  (10) 
-3.31945

>  <r_i_glide_ligand_efficiency>  (10) 
-0.0737655

>  <r_i_glide_ligand_efficiency_sa>  (10) 
-0.262376

>  <r_i_glide_ligand_efficiency_ln>  (10) 
-0.690593

>  <r_i_glide_gscore>  (10) 
-3.31945

>  <r_i_glide_lipo>  (10) 
-0.30557

>  <r_i_glide_hbond>  (10) 
-0.152

>  <r_i_glide_metal>  (10) 
-0

>  <r_i_glide_rewards>  (10) 
0

>  <r_i_glide_evdw>  (10) 
-21.9084

>  <r_i_glide_ecoul>  (10) 
-12.3267

>  <r_i_glide_erotb>  (10) 
0.147049

>  <r_i_glide_esite>  (10) 
-0.0644971

>  <r_i_glide_emodel>  (10) 
-41.7926

>  <r_i_glide_energy>  (10) 
-34.2352

>  <r_i_glide_einternal>  (10) 
3.55257

>  <r_i_glide_intrahb_reward>  (10) 
-0

>  <i_i_glide_confnum>  (10) 
4

>  <i_i_glide_posenum>  (10) 
11

>  <r_i_glide_eff_state_penalty>  (10) 
0

>  <ligand_id>  (10) 
9

>  <original_smiles>  (10) 
COC1C2(O)OC3(C)C2CC2(OC)CCC14C1(C)C(=O)C5OC5(O)C(O)C(C)(C5(O)C(CCC(C)O)OC15)C3(O)[S+]([O-])CC24C

>  <smiles>  (10) 
[H]OC([H])(C([H])([H])[H])C([H])([H])C([H])([H])C1([H])OC2([H])C1(O[H])C1(C([H])([H])[H])C([H])(O[H])C3(O[H])OC3([H])C(=O)C2(C([H])([H])[H])C23C([H])([H])C([H])([H])C4(OC([H])([H])[H])C([H])([H])C5([H])C(O[H])(OC5(C([H])([H])[H])C1(O[H])S(=O)C([H])([H])C42C([H])([H])[H])C3([H])OC([H])([H])[H]

$$$$
9:1:1
     RDKit          3D

 91 98  0  0  1  0  0  0  0  0999 V2000
    2.0075    5.8011    7.1220 C   0  0  0  0  0  0  0  0  0  0  0  0
    2.2422    4.5121    7.6855 O   0  0  0  0  0  0  0  0  0  0  0  0
    1.3920    3.3906    7.3627 C   0  0  2  0  0  0  0  0  0  0  0  0
   -0.0259    3.7061    7.8755 C   0  0  1  0  0  0  0  0  0  0  0  0
   -0.0220    4.5833    8.9845 O   0  0  0  0  0  0  0  0  0  0  0  0
   -0.7193    4.2262    6.7091 O   0  0  0  0  0  0  0  0  0  0  0  0
   -1.3885    2.9539    6.4857 C   0  0  2  0  0  0  0  0  0  0  0  0
   -2.8386    3.4965    6.3183 C   0  0  0  0  0  0  0  0  0  0  0  0
   -1.0679    2.6630    8.0125 C   0  0  1  0  0  0  0  0  0  0  0  0
   -0.8187    1.4551    8.9268 C   0  0  0  0  0  0  0  0  0  0  0  0
    0.6321    0.9385    9.2152 C   0  0  2  0  0  0  0  0  0  0  0  0
    0.4494   -0.2629    9.9814 O   0  0  0  0  0  0  0  0  0  0  0  0
   -0.1006   -0.1711   11.2928 C   0  0  0  0  0  0  0  0  0  0  0  0
    1.6773    1.8542    9.9169 C   0  0  0  0  0  0  0  0  0  0  0  0
    2.8158    2.1804    8.9132 C   0  0  0  0  0  0  0  0  0  0  0  0
    2.1668    1.9860    7.5103 C   0  0  2  0  0  0  0  0  0  0  0  0
    3.1342    1.8890    6.1497 C   0  0  2  0  0  0  0  0  0  0  0  0
    4.4343    1.0333    6.3535 C   0  0  0  0  0  0  0  0  0  0  0  0
    3.7188    3.2778    5.6373 C   0  0  0  0  0  0  0  0  0  0  0  0
    4.5756    3.8025    6.3533 O   0  0  0  0  0  0  0  0  0  0  0  0
    3.3886    4.0060    4.3188 C   0  0  2  0  0  0  0  0  0  0  0  0
    2.7797    5.2842    4.5119 O   0  0  0  0  0  0  0  0  0  0  0  0
    2.0590    4.4311    3.6506 C   0  0  1  0  0  0  0  0  0  0  0  0
    2.2366    4.6574    2.2678 O   0  0  0  0  0  0  0  0  0  0  0  0
    0.6040    4.0104    3.9812 C   0  0  1  0  0  0  0  0  0  0  0  0
   -0.3355    4.8215    3.2972 O   0  0  0  0  0  0  0  0  0  0  0  0
    0.2412    2.4535    3.9242 C   0  0  1  0  0  0  0  0  0  0  0  0
   -0.3650    2.1832    2.4838 C   0  0  0  0  0  0  0  0  0  0  0  0
    1.6019    1.5679    3.7659 C   0  0  2  0  0  0  0  0  0  0  0  0
    2.4962    1.9723    2.7398 O   0  0  0  0  0  0  0  0  0  0  0  0
    1.5333    0.0443    3.5449 C   0  0  1  0  0  0  0  0  0  0  0  0
    1.9608   -0.7313    2.2832 C   0  0  0  0  0  0  0  0  0  0  0  0
    2.2267   -2.2517    2.4994 C   0  0  0  0  0  0  0  0  0  0  0  0
    1.2042   -3.0644    3.3544 C   0  0  2  0  0  0  0  0  0  0  0  0
    1.2686   -2.7883    4.8581 C   0  0  0  0  0  0  0  0  0  0  0  0
    1.4527   -4.4523    3.2284 O   0  0  0  0  0  0  0  0  0  0  0  0
    2.5221   -0.1607    4.6032 O   0  0  0  0  0  0  0  0  0  0  0  0
    2.2748    1.1796    5.0655 C   0  0  1  0  0  0  0  0  0  0  0  0
   -0.8993    2.0621    5.1718 C   0  0  2  0  0  0  0  0  0  0  0  0
   -2.0676    2.0999    4.3692 O   0  0  0  0  0  0  0  0  0  0  0  0
   -0.9700    0.3116    5.8192 S   0  0  0  0  0  0  0  0  0  0  0  0
   -2.3442    0.1515    6.4638 O   0  0  0  0  0  0  0  0  0  0  0  0
    0.3437   -0.2781    7.0258 C   0  0  0  0  0  0  0  0  0  0  0  0
    1.3453    0.5935    7.9023 C   0  0  2  0  0  0  0  0  0  0  0  0
    2.3746   -0.5870    8.2138 C   0  0  0  0  0  0  0  0  0  0  0  0
    2.9765    6.2529    6.8869 H   0  0  0  0  0  0  0  0  0  0  0  0
    1.4900    6.4681    7.8044 H   0  0  0  0  0  0  0  0  0  0  0  0
    1.4136    5.7842    6.2167 H   0  0  0  0  0  0  0  0  0  0  0  0
    1.2785    3.3733    6.3094 H   0  0  0  0  0  0  0  0  0  0  0  0
   -0.9214    4.7529    9.2184 H   0  0  0  0  0  0  0  0  0  0  0  0
   -3.5791    2.6989    6.3241 H   0  0  0  0  0  0  0  0  0  0  0  0
   -2.9809    4.0782    5.4037 H   0  0  0  0  0  0  0  0  0  0  0  0
   -3.1186    4.1589    7.1288 H   0  0  0  0  0  0  0  0  0  0  0  0
   -1.9101    3.1375    8.5215 H   0  0  0  0  0  0  0  0  0  0  0  0
   -1.2162    1.7392    9.9005 H   0  0  0  0  0  0  0  0  0  0  0  0
   -1.4645    0.6391    8.6328 H   0  0  0  0  0  0  0  0  0  0  0  0
    0.0461   -1.1211   11.8037 H   0  0  0  0  0  0  0  0  0  0  0  0
   -1.1705    0.0145   11.2744 H   0  0  0  0  0  0  0  0  0  0  0  0
    0.3667    0.6003   11.9003 H   0  0  0  0  0  0  0  0  0  0  0  0
    1.2028    2.7458   10.3114 H   0  0  0  0  0  0  0  0  0  0  0  0
    2.1262    1.3446   10.7653 H   0  0  0  0  0  0  0  0  0  0  0  0
    3.2550    3.1484    9.1253 H   0  0  0  0  0  0  0  0  0  0  0  0
    3.6704    1.5320    9.0729 H   0  0  0  0  0  0  0  0  0  0  0  0
    4.2977   -0.0414    6.3015 H   0  0  0  0  0  0  0  0  0  0  0  0
    4.9538    1.2469    7.2864 H   0  0  0  0  0  0  0  0  0  0  0  0
    5.1647    1.2102    5.5594 H   0  0  0  0  0  0  0  0  0  0  0  0
    4.2371    4.0277    3.6687 H   0  0  0  0  0  0  0  0  0  0  0  0
    1.3935    4.5877    1.8241 H   0  0  0  0  0  0  0  0  0  0  0  0
    0.4477    4.4331    4.9340 H   0  0  0  0  0  0  0  0  0  0  0  0
   -0.2172    4.7056    2.3437 H   0  0  0  0  0  0  0  0  0  0  0  0
   -0.6076    1.1312    2.3131 H   0  0  0  0  0  0  0  0  0  0  0  0
    0.3359    2.4473    1.6922 H   0  0  0  0  0  0  0  0  0  0  0  0
   -1.2563    2.7642    2.2419 H   0  0  0  0  0  0  0  0  0  0  0  0
    1.9932    2.3461    2.0352 H   0  0  0  0  0  0  0  0  0  0  0  0
    0.5316   -0.2677    3.8075 H   0  0  0  0  0  0  0  0  0  0  0  0
    1.1816   -0.6157    1.5302 H   0  0  0  0  0  0  0  0  0  0  0  0
    2.8605   -0.2998    1.8461 H   0  0  0  0  0  0  0  0  0  0  0  0
    2.2719   -2.7125    1.5106 H   0  0  0  0  0  0  0  0  0  0  0  0
    3.2281   -2.3697    2.9194 H   0  0  0  0  0  0  0  0  0  0  0  0
    0.2021   -2.8209    2.9975 H   0  0  0  0  0  0  0  0  0  0  0  0
    1.0187   -1.7782    4.8768 H   0  0  0  0  0  0  0  0  0  0  0  0
    2.2595   -2.9119    5.3258 H   0  0  0  0  0  0  0  0  0  0  0  0
    0.4544   -3.2259    5.4456 H   0  0  0  0  0  0  0  0  0  0  0  0
    2.2845   -4.5997    3.6564 H   0  0  0  0  0  0  0  0  0  0  0  0
    1.3619    1.1760    5.5683 H   0  0  0  0  0  0  0  0  0  0  0  0
   -1.8192    1.9117    3.4779 H   0  0  0  0  0  0  0  0  0  0  0  0
   -0.1664   -1.0228    7.6438 H   0  0  0  0  0  0  0  0  0  0  0  0
    0.9805   -0.8727    6.4373 H   0  0  0  0  0  0  0  0  0  0  0  0
    2.8549   -0.9898    7.3295 H   0  0  0  0  0  0  0  0  0  0  0  0
    1.8821   -1.4778    8.6037 H   0  0  0  0  0  0  0  0  0  0  0  0
    3.1616   -0.4001    8.9329 H   0  0  0  0  0  0  0  0  0  0  0  0
  1  2  1  0
  1 46  1  0
  1 47  1  0
  1 48  1  0
  2  3  1  0
  3 16  1  0
  3  4  1  0
  3 49  1  6
  4  9  1  0
  4  5  1  1
  4  6  1  0
  5 50  1  0
  6  7  1  0
  7 39  1  0
  7  8  1  1
  7  9  1  0
  8 51  1  0
  8 52  1  0
  8 53  1  0
  9 10  1  0
  9 54  1  1
 10 11  1  0
 10 55  1  0
 10 56  1  0
 11 44  1  0
 11 12  1  1
 11 14  1  0
 12 13  1  0
 13 57  1  0
 13 58  1  0
 13 59  1  0
 14 15  1  0
 14 60  1  0
 14 61  1  0
 16 15  1  1
 15 62  1  0
 15 63  1  0
 16 44  1  0
 16 17  1  0
 17 38  1  0
 17 18  1  1
 17 19  1  0
 18 64  1  0
 18 65  1  0
 18 66  1  0
 19 20  2  0
 19 21  1  0
 21 23  1  0
 21 22  1  0
 21 67  1  6
 22 23  1  0
 23 24  1  6
 23 25  1  0
 24 68  1  0
 25 26  1  0
 25 27  1  0
 25 69  1  1
 26 70  1  0
 27 28  1  6
 27 29  1  0
 27 39  1  0
 28 71  1  0
 28 72  1  0
 28 73  1  0
 29 38  1  0
 29 30  1  6
 29 31  1  0
 30 74  1  0
 31 32  1  0
 31 37  1  0
 31 75  1  1
 32 33  1  0
 32 76  1  0
 32 77  1  0
 33 34  1  0
 33 78  1  0
 33 79  1  0
 34 35  1  0
 34 36  1  0
 34 80  1  6
 35 81  1  0
 35 82  1  0
 35 83  1  0
 36 84  1  0
 37 38  1  0
 38 85  1  1
 39 40  1  6
 39 41  1  0
 40 86  1  0
 41 42  2  0
 41 43  1  1
 43 44  1  0
 43 87  1  0
 43 88  1  0
 44 45  1  1
 45 89  1  0
 45 90  1  0
 45 91  1  0
M  END
>  <i_m_ct_stereo_status>  (11) 
1

>  <s_m_source_file>  (11) 
/var/tmp/pbs.5075288.sched01/tmpg6npxhsy/83n53gbz8q.sdf

>  <i_m_source_file_index>  (11) 
28

>  <i_lp_mmshare_version>  (11) 
48012

>  <i_f3d_flags>  (11) 
0

>  <s_epik_input>  (11) 
W08tXVtTK10xW0NIMl1bQ0BdMihbQ0gzXSlbQ0BAXShPW0NIM10pKFtDSDJdW0NIMl0zKVtDSDJdW0NAQEhdKFtDQEBdKE80KShbT0hdKVtDQEhdNU9bQ0gzXSlbQ0BdNChbQ0gzXSlbQ0BAXTEoW09IXSlbQ0BAXShbQ0gzXSkoW0NASF0oW09IXSlbQ0BdNihbT0hdKVtDQEBIXShPNilDNz1PKVtDQEBdKFtPSF0pKFtDSF04W0NAQF03KFtDQEBdMjM1KVtDSDNdKVtDQEhdKE84KVtDSDJdW0NIMl1bQ0BIXShbQ0gzXSlbT0hd

>  <s_epik_cmdline>  (11) 
J2VwaWtfcHl0aG9uJywgJy1waHQnLCAnMi4wJywgJy1waCcsICc3LjAnLCAnLXRuJywgJzgnLCAnLW1hJywgJzIwMCcsICctaW1hZScsICc8aW5maWxlLm1hZT4nLCAnLW9tYWUnLCAnPG91dGZpbGUubWFlPic=

>  <r_lp_tautomer_probability>  (11) 
1

>  <r_epik_Ionization_Penalty>  (11) 
7.19537e-05

>  <r_epik_Ionization_Penalty_Charging>  (11) 
0

>  <r_epik_Ionization_Penalty_Neutral>  (11) 
7.19537e-05

>  <r_epik_State_Penalty>  (11) 
-0

>  <r_epik_Charging_Adjusted_Penalty>  (11) 
0

>  <i_epik_Tot_Q>  (11) 
0

>  <i_epik_Tot_abs_Q>  (11) 
2

>  <s_lp_Force_Field>  (11) 
OPLS3e

>  <r_lp_Energy>  (11) 
291.315

>  <b_lp_Chiralities_Consistent>  (11) 
1

>  <s_lp_Variant>  (11) 
9:0-2

>  <s_i_glide_gridfile>  (11) 
pfpi4k_grid

>  <i_i_glide_lignum>  (11) 
28

>  <i_i_glide_rotatable_bonds>  (11) 
11

>  <r_i_docking_score>  (11) 
-3.13013

>  <r_i_glide_ligand_efficiency>  (11) 
-0.0695584

>  <r_i_glide_ligand_efficiency_sa>  (11) 
-0.247412

>  <r_i_glide_ligand_efficiency_ln>  (11) 
-0.651206

>  <r_i_glide_gscore>  (11) 
-3.13013

>  <r_i_glide_lipo>  (11) 
-0.204693

>  <r_i_glide_hbond>  (11) 
-0.152

>  <r_i_glide_metal>  (11) 
-0

>  <r_i_glide_rewards>  (11) 
0

>  <r_i_glide_evdw>  (11) 
-19.5009

>  <r_i_glide_ecoul>  (11) 
-18.1537

>  <r_i_glide_erotb>  (11) 
0.147049

>  <r_i_glide_esite>  (11) 
-0.0822894

>  <r_i_glide_emodel>  (11) 
-40.427

>  <r_i_glide_energy>  (11) 
-37.6546

>  <r_i_glide_einternal>  (11) 
5.48869

>  <r_i_glide_intrahb_reward>  (11) 
-0

>  <i_i_glide_confnum>  (11) 
4

>  <i_i_glide_posenum>  (11) 
40

>  <r_i_glide_eff_state_penalty>  (11) 
0

>  <ligand_id>  (11) 
9

>  <original_smiles>  (11) 
COC1C2(O)OC3(C)C2CC2(OC)CCC14C1(C)C(=O)C5OC5(O)C(O)C(C)(C5(O)C(CCC(C)O)OC15)C3(O)[S+]([O-])CC24C

>  <smiles>  (11) 
[H]OC([H])(C([H])([H])[H])C([H])([H])C([H])([H])C1([H])OC2([H])C1(O[H])C1(C([H])([H])[H])C([H])(O[H])C3(O[H])OC3([H])C(=O)C2(C([H])([H])[H])C23C([H])([H])C([H])([H])C4(OC([H])([H])[H])C([H])([H])C5([H])C(O[H])(OC5(C([H])([H])[H])C1(O[H])S(=O)C([H])([H])C42C([H])([H])[H])C3([H])OC([H])([H])[H]

$$$$
9:1:2
     RDKit          3D

 91 98  0  0  1  0  0  0  0  0999 V2000
    1.9538    5.8732    7.1267 C   0  0  0  0  0  0  0  0  0  0  0  0
    2.2311    4.5937    7.6911 O   0  0  0  0  0  0  0  0  0  0  0  0
    1.4198    3.4443    7.3652 C   0  0  2  0  0  0  0  0  0  0  0  0
   -0.0096    3.7107    7.8766 C   0  0  1  0  0  0  0  0  0  0  0  0
   -0.0367    4.5894    8.9847 O   0  0  0  0  0  0  0  0  0  0  0  0
   -0.7168    4.2047    6.7055 O   0  0  0  0  0  0  0  0  0  0  0  0
   -1.3432    2.9143    6.4842 C   0  0  2  0  0  0  0  0  0  0  0  0
   -2.8100    3.4104    6.3148 C   0  0  0  0  0  0  0  0  0  0  0  0
   -1.0138    2.6328    8.0107 C   0  0  1  0  0  0  0  0  0  0  0  0
   -0.7307    1.4315    8.9234 C   0  0  0  0  0  0  0  0  0  0  0  0
    0.7371    0.9662    9.2185 C   0  0  2  0  0  0  0  0  0  0  0  0
    0.5976   -0.2396    9.9846 O   0  0  0  0  0  0  0  0  0  0  0  0
    0.0285   -0.1678   11.2880 C   0  0  0  0  0  0  0  0  0  0  0  0
    1.7517    1.9185    9.9212 C   0  0  0  0  0  0  0  0  0  0  0  0
    2.8821    2.2838    8.9214 C   0  0  0  0  0  0  0  0  0  0  0  0
    2.2433    2.0655    7.5183 C   0  0  2  0  0  0  0  0  0  0  0  0
    3.2172    1.9992    6.1579 C   0  0  2  0  0  0  0  0  0  0  0  0
    4.5451    1.1904    6.3653 C   0  0  0  0  0  0  0  0  0  0  0  0
    3.7499    3.4065    5.6461 C   0  0  0  0  0  0  0  0  0  0  0  0
    4.5890    3.9606    6.3633 O   0  0  0  0  0  0  0  0  0  0  0  0
    3.4039    4.1263    4.3341 C   0  0  2  0  0  0  0  0  0  0  0  0
    2.7500    5.3809    4.5216 O   0  0  0  0  0  0  0  0  0  0  0  0
    2.0693    4.5081    3.6576 C   0  0  1  0  0  0  0  0  0  0  0  0
    2.2729    4.7511    2.2782 O   0  0  0  0  0  0  0  0  0  0  0  0
    0.6351    4.0269    3.9930 C   0  0  1  0  0  0  0  0  0  0  0  0
   -0.3516    4.8093    3.3635 O   0  0  0  0  0  0  0  0  0  0  0  0
    0.3191    2.4646    3.9240 C   0  0  1  0  0  0  0  0  0  0  0  0
   -0.2823    2.1785    2.4872 C   0  0  0  0  0  0  0  0  0  0  0  0
    1.7142    1.6340    3.7643 C   0  0  2  0  0  0  0  0  0  0  0  0
    2.5930    2.0670    2.7343 O   0  0  0  0  0  0  0  0  0  0  0  0
    1.6882    0.1207    3.5355 C   0  0  1  0  0  0  0  0  0  0  0  0
    2.1445   -0.6512    2.2815 C   0  0  0  0  0  0  0  0  0  0  0  0
    2.2948   -2.1947    2.4682 C   0  0  0  0  0  0  0  0  0  0  0  0
    1.2114   -2.9563    3.2986 C   0  0  2  0  0  0  0  0  0  0  0  0
    1.2074   -2.6584    4.7954 C   0  0  0  0  0  0  0  0  0  0  0  0
    1.4305   -4.3528    3.2164 O   0  0  0  0  0  0  0  0  0  0  0  0
    2.6457   -0.0809    4.6237 O   0  0  0  0  0  0  0  0  0  0  0  0
    2.3867    1.2600    5.0678 C   0  0  1  0  0  0  0  0  0  0  0  0
   -0.8147    2.0371    5.1690 C   0  0  2  0  0  0  0  0  0  0  0  0
   -1.9840    2.0358    4.3698 O   0  0  0  0  0  0  0  0  0  0  0  0
   -0.8212    0.2837    5.8218 S   0  0  0  0  0  0  0  0  0  0  0  0
   -2.1841    0.0579    6.4728 O   0  0  0  0  0  0  0  0  0  0  0  0
    0.5149   -0.2629    7.0258 C   0  0  0  0  0  0  0  0  0  0  0  0
    1.4704    0.6462    7.9085 C   0  0  2  0  0  0  0  0  0  0  0  0
    2.5397   -0.4964    8.2252 C   0  0  0  0  0  0  0  0  0  0  0  0
    2.9088    6.3580    6.8924 H   0  0  0  0  0  0  0  0  0  0  0  0
    1.4121    6.5243    7.8041 H   0  0  0  0  0  0  0  0  0  0  0  0
    1.3639    5.8365    6.2199 H   0  0  0  0  0  0  0  0  0  0  0  0
    1.3102    3.4218    6.3137 H   0  0  0  0  0  0  0  0  0  0  0  0
   -0.9433    4.7558    9.1942 H   0  0  0  0  0  0  0  0  0  0  0  0
   -3.5215    2.5841    6.3250 H   0  0  0  0  0  0  0  0  0  0  0  0
   -2.9638    3.9785    5.3938 H   0  0  0  0  0  0  0  0  0  0  0  0
   -3.1148    4.0823    7.1123 H   0  0  0  0  0  0  0  0  0  0  0  0
   -1.8739    3.0802    8.5155 H   0  0  0  0  0  0  0  0  0  0  0  0
   -1.1344    1.7055    9.8972 H   0  0  0  0  0  0  0  0  0  0  0  0
   -1.3556    0.5945    8.6351 H   0  0  0  0  0  0  0  0  0  0  0  0
    0.2072   -1.1101   11.8036 H   0  0  0  0  0  0  0  0  0  0  0  0
   -1.0480   -0.0296   11.2623 H   0  0  0  0  0  0  0  0  0  0  0  0
    0.4543    0.6250   11.8990 H   0  0  0  0  0  0  0  0  0  0  0  0
    1.2467    2.7936   10.3146 H   0  0  0  0  0  0  0  0  0  0  0  0
    2.2140    1.4246   10.7716 H   0  0  0  0  0  0  0  0  0  0  0  0
    3.2857    3.2660    9.1328 H   0  0  0  0  0  0  0  0  0  0  0  0
    3.7569    1.6652    9.0826 H   0  0  0  0  0  0  0  0  0  0  0  0
    4.4449    0.1112    6.3112 H   0  0  0  0  0  0  0  0  0  0  0  0
    5.0546    1.4233    7.2989 H   0  0  0  0  0  0  0  0  0  0  0  0
    5.2706    1.3941    5.5715 H   0  0  0  0  0  0  0  0  0  0  0  0
    4.2366    4.1880    3.6781 H   0  0  0  0  0  0  0  0  0  0  0  0
    1.4533    4.6277    1.8341 H   0  0  0  0  0  0  0  0  0  0  0  0
    0.4520    4.4472    4.9398 H   0  0  0  0  0  0  0  0  0  0  0  0
   -0.2462    4.6942    2.4129 H   0  0  0  0  0  0  0  0  0  0  0  0
   -0.4927    1.1208    2.3088 H   0  0  0  0  0  0  0  0  0  0  0  0
    0.4163    2.4637    1.7019 H   0  0  0  0  0  0  0  0  0  0  0  0
   -1.1911    2.7293    2.2408 H   0  0  0  0  0  0  0  0  0  0  0  0
    3.4597    1.7564    2.9603 H   0  0  0  0  0  0  0  0  0  0  0  0
    0.6698   -0.1778    3.7572 H   0  0  0  0  0  0  0  0  0  0  0  0
    1.4181   -0.4681    1.4849 H   0  0  0  0  0  0  0  0  0  0  0  0
    3.0936   -0.2637    1.9137 H   0  0  0  0  0  0  0  0  0  0  0  0
    2.3213   -2.6359    1.4660 H   0  0  0  0  0  0  0  0  0  0  0  0
    3.2800   -2.3961    2.8923 H   0  0  0  0  0  0  0  0  0  0  0  0
    0.2295   -2.7019    2.8862 H   0  0  0  0  0  0  0  0  0  0  0  0
    0.9558   -1.6378    4.8275 H   0  0  0  0  0  0  0  0  0  0  0  0
    2.1730   -2.8082    5.3045 H   0  0  0  0  0  0  0  0  0  0  0  0
    0.3587   -3.0755    5.3401 H   0  0  0  0  0  0  0  0  0  0  0  0
    2.2485   -4.5100    3.6666 H   0  0  0  0  0  0  0  0  0  0  0  0
    1.4711    1.2437    5.5683 H   0  0  0  0  0  0  0  0  0  0  0  0
   -1.7259    1.9448    3.4669 H   0  0  0  0  0  0  0  0  0  0  0  0
    0.0212   -1.0201    7.6401 H   0  0  0  0  0  0  0  0  0  0  0  0
    1.1836   -0.8417    6.4310 H   0  0  0  0  0  0  0  0  0  0  0  0
    3.0393   -0.8827    7.3453 H   0  0  0  0  0  0  0  0  0  0  0  0
    2.0762   -1.4033    8.6117 H   0  0  0  0  0  0  0  0  0  0  0  0
    3.3187   -0.2823    8.9464 H   0  0  0  0  0  0  0  0  0  0  0  0
  1  2  1  0
  1 46  1  0
  1 47  1  0
  1 48  1  0
  2  3  1  0
  3 16  1  0
  3  4  1  0
  3 49  1  6
  4  9  1  0
  4  5  1  1
  4  6  1  0
  5 50  1  0
  6  7  1  0
  7 39  1  0
  7  8  1  1
  7  9  1  0
  8 51  1  0
  8 52  1  0
  8 53  1  0
  9 10  1  0
  9 54  1  1
 10 11  1  0
 10 55  1  0
 10 56  1  0
 11 44  1  0
 11 12  1  1
 11 14  1  0
 12 13  1  0
 13 57  1  0
 13 58  1  0
 13 59  1  0
 14 15  1  0
 14 60  1  0
 14 61  1  0
 16 15  1  1
 15 62  1  0
 15 63  1  0
 16 44  1  0
 16 17  1  0
 17 38  1  0
 17 18  1  1
 17 19  1  0
 18 64  1  0
 18 65  1  0
 18 66  1  0
 19 20  2  0
 19 21  1  0
 21 23  1  0
 21 22  1  0
 21 67  1  6
 22 23  1  0
 23 24  1  6
 23 25  1  0
 24 68  1  0
 25 26  1  0
 25 27  1  0
 25 69  1  1
 26 70  1  0
 27 28  1  6
 27 29  1  0
 27 39  1  0
 28 71  1  0
 28 72  1  0
 28 73  1  0
 29 38  1  0
 29 30  1  6
 29 31  1  0
 30 74  1  0
 31 32  1  0
 31 37  1  0
 31 75  1  1
 32 33  1  0
 32 76  1  0
 32 77  1  0
 33 34  1  0
 33 78  1  0
 33 79  1  0
 34 35  1  0
 34 36  1  0
 34 80  1  6
 35 81  1  0
 35 82  1  0
 35 83  1  0
 36 84  1  0
 37 38  1  0
 38 85  1  1
 39 40  1  6
 39 41  1  0
 40 86  1  0
 41 42  2  0
 41 43  1  1
 43 44  1  0
 43 87  1  0
 43 88  1  0
 44 45  1  1
 45 89  1  0
 45 90  1  0
 45 91  1  0
M  END
>  <i_m_ct_stereo_status>  (12) 
1

>  <s_m_source_file>  (12) 
/var/tmp/pbs.5075288.sched01/tmpg6npxhsy/83n53gbz8q.sdf

>  <i_m_source_file_index>  (12) 
28

>  <i_lp_mmshare_version>  (12) 
48012

>  <i_f3d_flags>  (12) 
0

>  <s_epik_input>  (12) 
W08tXVtTK10xW0NIMl1bQ0BdMihbQ0gzXSlbQ0BAXShPW0NIM10pKFtDSDJdW0NIMl0zKVtDSDJdW0NAQEhdKFtDQEBdKE80KShbT0hdKVtDQEhdNU9bQ0gzXSlbQ0BdNChbQ0gzXSlbQ0BAXTEoW09IXSlbQ0BAXShbQ0gzXSkoW0NASF0oW09IXSlbQ0BdNihbT0hdKVtDQEBIXShPNilDNz1PKVtDQEBdKFtPSF0pKFtDSF04W0NAQF03KFtDQEBdMjM1KVtDSDNdKVtDQEhdKE84KVtDSDJdW0NIMl1bQ0BIXShbQ0gzXSlbT0hd

>  <s_epik_cmdline>  (12) 
J2VwaWtfcHl0aG9uJywgJy1waHQnLCAnMi4wJywgJy1waCcsICc3LjAnLCAnLXRuJywgJzgnLCAnLW1hJywgJzIwMCcsICctaW1hZScsICc8aW5maWxlLm1hZT4nLCAnLW9tYWUnLCAnPG91dGZpbGUubWFlPic=

>  <r_lp_tautomer_probability>  (12) 
1

>  <r_epik_Ionization_Penalty>  (12) 
7.19537e-05

>  <r_epik_Ionization_Penalty_Charging>  (12) 
0

>  <r_epik_Ionization_Penalty_Neutral>  (12) 
7.19537e-05

>  <r_epik_State_Penalty>  (12) 
-0

>  <r_epik_Charging_Adjusted_Penalty>  (12) 
0

>  <i_epik_Tot_Q>  (12) 
0

>  <i_epik_Tot_abs_Q>  (12) 
2

>  <s_lp_Force_Field>  (12) 
OPLS3e

>  <r_lp_Energy>  (12) 
291.315

>  <b_lp_Chiralities_Consistent>  (12) 
1

>  <s_lp_Variant>  (12) 
9:0-2

>  <s_i_glide_gridfile>  (12) 
pfpi4k_grid

>  <i_i_glide_lignum>  (12) 
28

>  <i_i_glide_rotatable_bonds>  (12) 
11

>  <r_i_docking_score>  (12) 
-2.9661

>  <r_i_glide_ligand_efficiency>  (12) 
-0.0659134

>  <r_i_glide_ligand_efficiency_sa>  (12) 
-0.234447

>  <r_i_glide_ligand_efficiency_ln>  (12) 
-0.617082

>  <r_i_glide_gscore>  (12) 
-2.9661

>  <r_i_glide_lipo>  (12) 
-0.204893

>  <r_i_glide_hbond>  (12) 
-0.151603

>  <r_i_glide_metal>  (12) 
-0

>  <r_i_glide_rewards>  (12) 
0

>  <r_i_glide_evdw>  (12) 
-19.7071

>  <r_i_glide_ecoul>  (12) 
-17.4205

>  <r_i_glide_erotb>  (12) 
0.147049

>  <r_i_glide_esite>  (12) 
-0.0777123

>  <r_i_glide_emodel>  (12) 
-39.937

>  <r_i_glide_energy>  (12) 
-37.1276

>  <r_i_glide_einternal>  (12) 
4.25979

>  <r_i_glide_intrahb_reward>  (12) 
-0

>  <i_i_glide_confnum>  (12) 
4

>  <i_i_glide_posenum>  (12) 
21

>  <r_i_glide_eff_state_penalty>  (12) 
0

>  <ligand_id>  (12) 
9

>  <original_smiles>  (12) 
COC1C2(O)OC3(C)C2CC2(OC)CCC14C1(C)C(=O)C5OC5(O)C(O)C(C)(C5(O)C(CCC(C)O)OC15)C3(O)[S+]([O-])CC24C

>  <smiles>  (12) 
[H]OC([H])(C([H])([H])[H])C([H])([H])C([H])([H])C1([H])OC2([H])C1(O[H])C1(C([H])([H])[H])C([H])(O[H])C3(O[H])OC3([H])C(=O)C2(C([H])([H])[H])C23C([H])([H])C([H])([H])C4(OC([H])([H])[H])C([H])([H])C5([H])C(O[H])(OC5(C([H])([H])[H])C1(O[H])S(=O)C([H])([H])C42C([H])([H])[H])C3([H])OC([H])([H])[H]

$$$$
14:0:0
     RDKit          3D

 84 89  0  0  1  0  0  0  0  0999 V2000
   -1.5233   -8.0055    3.7387 C   0  0  0  0  0  0  0  0  0  0  0  0
   -0.7447   -8.6455    4.6290 C   0  0  0  0  0  0  0  0  0  0  0  0
    0.7556   -8.9459    4.5303 C   0  0  1  0  0  0  0  0  0  0  0  0
    1.0388  -10.0318    5.5985 C   0  0  0  0  0  0  0  0  0  0  0  0
    1.1354   -9.5063    3.1083 C   0  0  0  0  0  0  0  0  0  0  0  0
    2.5895   -9.2263    2.6166 C   0  0  2  0  0  0  0  0  0  0  0  0
    2.6132   -9.5685    1.2577 O   0  0  0  0  0  0  0  0  0  0  0  0
    3.2749  -10.1255    3.4758 O   0  0  0  0  0  0  0  0  0  0  0  0
    4.2554   -9.1377    3.7803 C   0  0  1  0  0  0  0  0  0  0  0  0
    4.5659   -9.1115    5.2812 C   0  0  0  0  0  0  0  0  0  0  0  0
    5.5024   -9.6965    3.0015 C   0  0  1  0  0  0  0  0  0  0  0  0
    5.6491  -11.1036    3.0171 O   0  0  0  0  0  0  0  0  0  0  0  0
    5.5151   -8.8864    1.3192 S   0  0  0  0  0  0  0  0  0  0  0  0
    6.9881   -8.6786    0.9920 O   0  0  0  0  0  0  0  0  0  0  0  0
    4.7748   -7.3951    2.1472 C   0  0  1  0  0  0  0  0  0  0  0  0
    5.3546   -5.7659    1.8509 C   0  0  0  0  0  0  0  0  0  0  0  0
    6.8838   -5.8362    1.5531 C   0  0  0  0  0  0  0  0  0  0  0  0
    4.6961   -5.5600    0.4331 C   0  0  0  0  0  0  0  0  0  0  0  0
    5.2672   -4.3423    2.9709 C   0  0  2  0  0  0  0  0  0  0  0  0
    5.0498   -3.1906    1.9250 C   0  0  0  0  0  0  0  0  0  0  0  0
    5.4826   -1.7881    2.4045 C   0  0  1  0  0  0  0  0  0  0  0  0
    5.6778   -0.8197    1.2248 C   0  0  0  0  0  0  0  0  0  0  0  0
    4.6533   -1.2219    3.5834 C   0  0  1  0  0  0  0  0  0  0  0  0
    3.9965    0.0060    3.2492 O   0  0  0  0  0  0  0  0  0  0  0  0
    3.6944    0.9098    4.2044 C   0  0  0  0  0  0  0  0  0  0  0  0
    2.8622    2.0714    3.6709 C   0  0  0  0  0  0  0  0  0  0  0  0
    4.0149    0.8389    5.3908 O   0  0  0  0  0  0  0  0  0  0  0  0
    3.6424   -2.2675    4.1111 C   0  0  1  0  0  0  0  0  0  0  0  0
    2.5823   -2.3048    3.1569 O   0  0  0  0  0  0  0  0  0  0  0  0
    1.4322   -1.6527    3.3727 C   0  0  0  0  0  0  0  0  0  0  0  0
    0.9137   -1.0240    2.0900 C   0  0  0  0  0  0  0  0  0  0  0  0
    0.8826   -1.4810    4.4604 O   0  0  0  0  0  0  0  0  0  0  0  0
    4.3048   -3.6736    4.3659 C   0  0  2  0  0  0  0  0  0  0  0  0
    5.2524   -3.4429    5.5884 C   0  0  0  0  0  0  0  0  0  0  0  0
    3.0546   -4.4482    4.9831 O   0  0  0  0  0  0  0  0  0  0  0  0
    2.4345   -5.2894    3.9246 C   0  0  1  0  0  0  0  0  0  0  0  0
    3.2495   -5.1762    2.9211 O   0  0  0  0  0  0  0  0  0  0  0  0
    4.5123   -5.3327    3.4767 C   0  0  0  0  0  0  0  0  0  0  0  0
    4.9366   -6.0565    4.4299 O   0  0  0  0  0  0  0  0  0  0  0  0
    2.2980   -6.9163    3.7527 C   0  0  2  0  0  0  0  0  0  0  0  0
    1.3378   -6.8433    2.6858 O   0  0  0  0  0  0  0  0  0  0  0  0
    1.5433   -7.6420    4.8884 C   0  0  0  0  0  0  0  0  0  0  0  0
    1.5686   -7.1988    6.0379 O   0  0  0  0  0  0  0  0  0  0  0  0
    3.4569   -7.9595    3.0512 C   0  0  1  0  0  0  0  0  0  0  0  0
   -1.1409   -7.5888    2.8205 H   0  0  0  0  0  0  0  0  0  0  0  0
   -2.5802   -7.9002    3.9327 H   0  0  0  0  0  0  0  0  0  0  0  0
   -1.2365   -9.0183    5.5186 H   0  0  0  0  0  0  0  0  0  0  0  0
    0.7812   -9.6978    6.6047 H   0  0  0  0  0  0  0  0  0  0  0  0
    2.0781  -10.3445    5.6231 H   0  0  0  0  0  0  0  0  0  0  0  0
    0.4476  -10.9280    5.4075 H   0  0  0  0  0  0  0  0  0  0  0  0
    0.9174  -10.5749    3.0785 H   0  0  0  0  0  0  0  0  0  0  0  0
    0.4448   -9.1189    2.3579 H   0  0  0  0  0  0  0  0  0  0  0  0
    3.1144  -10.3679    1.1710 H   0  0  0  0  0  0  0  0  0  0  0  0
    5.3909   -8.4280    5.4969 H   0  0  0  0  0  0  0  0  0  0  0  0
    4.8536  -10.1048    5.6340 H   0  0  0  0  0  0  0  0  0  0  0  0
    3.7170   -8.7925    5.8789 H   0  0  0  0  0  0  0  0  0  0  0  0
    6.4096   -9.3439    3.4941 H   0  0  0  0  0  0  0  0  0  0  0  0
    5.1003  -11.4682    2.3346 H   0  0  0  0  0  0  0  0  0  0  0  0
    5.6089   -7.4840    2.8366 H   0  0  0  0  0  0  0  0  0  0  0  0
    7.3237   -4.8435    1.4432 H   0  0  0  0  0  0  0  0  0  0  0  0
    7.0990   -6.3553    0.6193 H   0  0  0  0  0  0  0  0  0  0  0  0
    7.4399   -6.3325    2.3514 H   0  0  0  0  0  0  0  0  0  0  0  0
    5.2095   -4.8455   -0.2079 H   0  0  0  0  0  0  0  0  0  0  0  0
    3.6445   -5.2773    0.4785 H   0  0  0  0  0  0  0  0  0  0  0  0
    4.7269   -6.4830   -0.1450 H   0  0  0  0  0  0  0  0  0  0  0  0
    5.7258   -3.3491    1.0939 H   0  0  0  0  0  0  0  0  0  0  0  0
    4.0489   -3.1790    1.5010 H   0  0  0  0  0  0  0  0  0  0  0  0
    6.4795   -1.9315    2.8071 H   0  0  0  0  0  0  0  0  0  0  0  0
    4.7371   -0.5896    0.7215 H   0  0  0  0  0  0  0  0  0  0  0  0
    6.3612   -1.2454    0.4882 H   0  0  0  0  0  0  0  0  0  0  0  0
    6.1222    0.1138    1.5626 H   0  0  0  0  0  0  0  0  0  0  0  0
    5.3638   -1.0040    4.3802 H   0  0  0  0  0  0  0  0  0  0  0  0
    3.3509    2.5411    2.8173 H   0  0  0  0  0  0  0  0  0  0  0  0
    2.7144    2.8313    4.4381 H   0  0  0  0  0  0  0  0  0  0  0  0
    1.8804    1.7193    3.3533 H   0  0  0  0  0  0  0  0  0  0  0  0
    3.2386   -1.9117    5.0621 H   0  0  0  0  0  0  0  0  0  0  0  0
    1.7126   -0.4364    1.6367 H   0  0  0  0  0  0  0  0  0  0  0  0
    0.0698   -0.3576    2.2756 H   0  0  0  0  0  0  0  0  0  0  0  0
    0.6288   -1.7952    1.3792 H   0  0  0  0  0  0  0  0  0  0  0  0
    6.1751   -2.9494    5.2821 H   0  0  0  0  0  0  0  0  0  0  0  0
    5.5380   -4.3690    6.0863 H   0  0  0  0  0  0  0  0  0  0  0  0
    4.7773   -2.8212    6.3479 H   0  0  0  0  0  0  0  0  0  0  0  0
    1.5056   -4.7798    3.6735 H   0  0  0  0  0  0  0  0  0  0  0  0
    1.1006   -7.7226    2.4304 H   0  0  0  0  0  0  0  0  0  0  0  0
  1  2  2  0
  1 45  1  0
  1 46  1  0
  2  3  1  0
  2 47  1  0
  3 42  1  0
  3  4  1  1
  3  5  1  0
  4 48  1  0
  4 49  1  0
  4 50  1  0
  5  6  1  0
  5 51  1  0
  5 52  1  0
 44  6  1  6
  6  7  1  6
  6  8  1  0
  7 53  1  0
  8  9  1  0
  9 44  1  0
  9 10  1  1
  9 11  1  0
 10 54  1  0
 10 55  1  0
 10 56  1  0
 11 12  1  0
 13 11  1  1
 11 57  1  1
 12 58  1  0
 13 14  2  0
 13 15  1  0
 15 44  1  0
 15 16  1  0
 15 59  1  1
 16 17  1  0
 16 18  1  0
 16 19  1  0
 17 60  1  0
 17 61  1  0
 17 62  1  0
 18 63  1  0
 18 64  1  0
 18 65  1  0
 19 33  1  0
 19 38  1  0
 19 20  1  1
 20 21  1  0
 20 66  1  0
 20 67  1  0
 21 22  1  0
 21 23  1  0
 21 68  1  1
 22 69  1  0
 22 70  1  0
 22 71  1  0
 23 24  1  0
 23 28  1  0
 23 72  1  1
 24 25  1  0
 25 26  1  0
 25 27  2  0
 26 73  1  0
 26 74  1  0
 26 75  1  0
 28 29  1  0
 28 33  1  0
 28 76  1  1
 29 30  1  0
 30 31  1  0
 30 32  2  0
 31 77  1  0
 31 78  1  0
 31 79  1  0
 33 34  1  1
 33 35  1  0
 34 80  1  0
 34 81  1  0
 34 82  1  0
 35 36  1  0
 36 37  1  0
 36 40  1  0
 36 83  1  6
 37 38  1  0
 38 39  2  0
 40 41  1  6
 40 42  1  0
 40 44  1  0
 41 84  1  0
 42 43  2  0
M  END
>  <i_m_ct_stereo_status>  (13) 
1

>  <s_m_source_file>  (13) 
/var/tmp/pbs.5075288.sched01/tmpg6npxhsy/83n53gbz8q.sdf

>  <i_m_source_file_index>  (13) 
35

>  <i_lp_mmshare_version>  (13) 
48012

>  <i_f3d_flags>  (13) 
0

>  <s_epik_input>  (13) 
W0NIM11DMShbQ0gzXSlbQ0BASF0yW1MrXShbTy1dKVtDQEhdKFtPSF0pW0NAXTMoW0NIM10pT1tDQEBdKFtPSF0pKFtDSDJdW0NAQF0oW0NIM10pKEM0PU8pW0NIXT1bQ0gyXSlbQ0BdMjNbQ0BdNChbT0hdKVtDQEhdKE9DNT1PKU9bQ0BdKFtDQEBdMTU2KShbQ0gzXSlbQ0BIXShPQyg9TylbQ0gzXSlbQ0BASF0oW0NAQEhdKFtDSDJdNilbQ0gzXSlPQyg9TylbQ0gzXQ==

>  <s_epik_cmdline>  (13) 
J2VwaWtfcHl0aG9uJywgJy1waHQnLCAnMi4wJywgJy1waCcsICc3LjAnLCAnLXRuJywgJzgnLCAnLW1hJywgJzIwMCcsICctaW1hZScsICc8aW5maWxlLm1hZT4nLCAnLW9tYWUnLCAnPG91dGZpbGUubWFlPic=

>  <r_lp_tautomer_probability>  (13) 
1

>  <r_epik_Ionization_Penalty>  (13) 
1.24318e-05

>  <r_epik_Ionization_Penalty_Charging>  (13) 
0

>  <r_epik_Ionization_Penalty_Neutral>  (13) 
1.24318e-05

>  <r_epik_State_Penalty>  (13) 
-0

>  <r_epik_Charging_Adjusted_Penalty>  (13) 
0

>  <i_epik_Tot_Q>  (13) 
0

>  <i_epik_Tot_abs_Q>  (13) 
2

>  <s_epik_Chemistry_Notes>  (13) 
This compound has an ester and may undergo hydrolysis at high or low pH. This compound contains an acetal/aminal-like group ( X-CH(R)-Y where X, Y are N, S, or O) that may be acid/base labile, releasing an aldehyde.

>  <s_lp_Force_Field>  (13) 
OPLS3e

>  <r_lp_Energy>  (13) 
481.441

>  <b_lp_Chiralities_Consistent>  (13) 
1

>  <s_lp_Variant>  (13) 
14:0-1

>  <s_i_glide_gridfile>  (13) 
pfpi4k_grid

>  <i_i_glide_lignum>  (13) 
35

>  <i_i_glide_rotatable_bonds>  (13) 
8

>  <r_i_docking_score>  (13) 
-2.95179

>  <r_i_glide_ligand_efficiency>  (13) 
-0.0670861

>  <r_i_glide_ligand_efficiency_sa>  (13) 
-0.236837

>  <r_i_glide_ligand_efficiency_ln>  (13) 
-0.616988

>  <r_i_glide_gscore>  (13) 
-2.95179

>  <r_i_glide_lipo>  (13) 
-0.573002

>  <r_i_glide_hbond>  (13) 
0

>  <r_i_glide_metal>  (13) 
-0

>  <r_i_glide_rewards>  (13) 
-0.00357447

>  <r_i_glide_evdw>  (13) 
-30.3351

>  <r_i_glide_ecoul>  (13) 
-5.69578

>  <r_i_glide_erotb>  (13) 
0.00960584

>  <r_i_glide_esite>  (13) 
-0.0136958

>  <r_i_glide_emodel>  (13) 
-36.3178

>  <r_i_glide_energy>  (13) 
-36.0309

>  <r_i_glide_einternal>  (13) 
11.4469

>  <r_i_glide_intrahb_reward>  (13) 
-0

>  <i_i_glide_confnum>  (13) 
3

>  <i_i_glide_posenum>  (13) 
22

>  <r_i_glide_eff_state_penalty>  (13) 
0

>  <ligand_id>  (13) 
14

>  <original_smiles>  (13) 
C=CC1(C)CC2(O)OC3(C)C(O)[S+]([O-])C4C(C)(C)C56CC(C)C(OC(C)=O)C(OC(C)=O)C5(C)OC(OC6=O)C(O)(C1=O)C423

>  <smiles>  (13) 
[H]OC1([H])S(=O)C2([H])C34C(O[H])(OC13C([H])([H])[H])C([H])([H])C(C([H])=C([H])[H])(C([H])([H])[H])C(=O)C4(O[H])C1([H])OC(=O)C3(C([H])([H])C([H])(C([H])([H])[H])C([H])(OC(=O)C([H])([H])[H])C([H])(OC(=O)C([H])([H])[H])C3(C([H])([H])[H])O1)C2(C([H])([H])[H])C([H])([H])[H]

$$$$
14:0:1
     RDKit          3D

 84 89  0  0  1  0  0  0  0  0999 V2000
   -1.7611   -8.8725    3.2991 C   0  0  0  0  0  0  0  0  0  0  0  0
   -0.8444   -8.7062    4.2752 C   0  0  0  0  0  0  0  0  0  0  0  0
    0.6615   -9.0344    4.2531 C   0  0  1  0  0  0  0  0  0  0  0  0
    0.8750  -10.0994    5.3629 C   0  0  0  0  0  0  0  0  0  0  0  0
    1.1253   -9.6297    2.8674 C   0  0  0  0  0  0  0  0  0  0  0  0
    2.5809   -9.3726    2.4381 C   0  0  2  0  0  0  0  0  0  0  0  0
    2.6595   -9.7213    1.1021 O   0  0  0  0  0  0  0  0  0  0  0  0
    3.2283  -10.2625    3.3523 O   0  0  0  0  0  0  0  0  0  0  0  0
    4.2098   -9.2498    3.6854 C   0  0  1  0  0  0  0  0  0  0  0  0
    4.4303   -9.2136    5.1846 C   0  0  0  0  0  0  0  0  0  0  0  0
    5.4631   -9.8471    2.9689 C   0  0  1  0  0  0  0  0  0  0  0  0
    5.5965  -11.2578    3.0112 O   0  0  0  0  0  0  0  0  0  0  0  0
    5.5342   -9.0698    1.2731 S   0  0  0  0  0  0  0  0  0  0  0  0
    7.0085   -8.8804    0.9730 O   0  0  0  0  0  0  0  0  0  0  0  0
    4.7845   -7.5713    2.0270 C   0  0  1  0  0  0  0  0  0  0  0  0
    5.3979   -5.9592    1.7139 C   0  0  0  0  0  0  0  0  0  0  0  0
    6.9343   -6.0312    1.4928 C   0  0  0  0  0  0  0  0  0  0  0  0
    4.7989   -5.7593    0.2733 C   0  0  0  0  0  0  0  0  0  0  0  0
    5.2890   -4.5056    2.7885 C   0  0  2  0  0  0  0  0  0  0  0  0
    5.1235   -3.3849    1.7210 C   0  0  0  0  0  0  0  0  0  0  0  0
    5.5351   -1.9756    2.1832 C   0  0  1  0  0  0  0  0  0  0  0  0
    5.7789   -1.0143    1.0066 C   0  0  0  0  0  0  0  0  0  0  0  0
    4.6514   -1.4037    3.3137 C   0  0  1  0  0  0  0  0  0  0  0  0
    4.0421   -0.1473    3.0080 O   0  0  0  0  0  0  0  0  0  0  0  0
    3.5931    0.7270    3.9328 C   0  0  0  0  0  0  0  0  0  0  0  0
    3.8937    0.3908    5.3978 C   0  0  0  0  0  0  0  0  0  0  0  0
    2.9542    1.7423    3.6519 O   0  0  0  0  0  0  0  0  0  0  0  0
    3.6106   -2.4388    3.8042 C   0  0  1  0  0  0  0  0  0  0  0  0
    2.5489   -2.5029    2.8357 O   0  0  0  0  0  0  0  0  0  0  0  0
    1.4486   -1.7472    2.9913 C   0  0  0  0  0  0  0  0  0  0  0  0
    0.7825   -1.7820    4.3782 C   0  0  0  0  0  0  0  0  0  0  0  0
    0.9875   -1.0561    2.0927 O   0  0  0  0  0  0  0  0  0  0  0  0
    4.2706   -3.8207    4.1394 C   0  0  2  0  0  0  0  0  0  0  0  0
    5.1554   -3.5479    5.3939 C   0  0  0  0  0  0  0  0  0  0  0  0
    2.9749   -4.5509    4.7298 O   0  0  0  0  0  0  0  0  0  0  0  0
    2.3898   -5.4132    3.6546 C   0  0  1  0  0  0  0  0  0  0  0  0
    3.2474   -5.3362    2.6670 O   0  0  0  0  0  0  0  0  0  0  0  0
    4.5204   -5.4812    3.2974 C   0  0  0  0  0  0  0  0  0  0  0  0
    4.8637   -6.1874    4.2858 O   0  0  0  0  0  0  0  0  0  0  0  0
    2.2453   -7.0347    3.5083 C   0  0  2  0  0  0  0  0  0  0  0  0
    1.3071   -6.9613    2.4071 O   0  0  0  0  0  0  0  0  0  0  0  0
    1.4328   -7.7324    4.6146 C   0  0  0  0  0  0  0  0  0  0  0  0
    1.4101   -7.2779    5.7553 O   0  0  0  0  0  0  0  0  0  0  0  0
    3.4323   -8.1074    2.8889 C   0  0  1  0  0  0  0  0  0  0  0  0
   -1.5423   -9.2971    2.3365 H   0  0  0  0  0  0  0  0  0  0  0  0
   -2.7814   -8.5969    3.4865 H   0  0  0  0  0  0  0  0  0  0  0  0
   -1.2070   -8.2972    5.2169 H   0  0  0  0  0  0  0  0  0  0  0  0
    0.5766   -9.7400    6.3454 H   0  0  0  0  0  0  0  0  0  0  0  0
    1.9098  -10.4170    5.4416 H   0  0  0  0  0  0  0  0  0  0  0  0
    0.2878  -10.9963    5.1664 H   0  0  0  0  0  0  0  0  0  0  0  0
    0.8711  -10.6924    2.8271 H   0  0  0  0  0  0  0  0  0  0  0  0
    0.5314   -9.2209    2.0692 H   0  0  0  0  0  0  0  0  0  0  0  0
    3.2120  -10.4845    0.9933 H   0  0  0  0  0  0  0  0  0  0  0  0
    5.2429   -8.5387    5.4154 H   0  0  0  0  0  0  0  0  0  0  0  0
    4.6949  -10.2033    5.5697 H   0  0  0  0  0  0  0  0  0  0  0  0
    3.5630   -8.8786    5.7331 H   0  0  0  0  0  0  0  0  0  0  0  0
    6.3491   -9.5010    3.4947 H   0  0  0  0  0  0  0  0  0  0  0  0
    5.0372  -11.6292    2.3339 H   0  0  0  0  0  0  0  0  0  0  0  0
    5.5934   -7.6480    2.7575 H   0  0  0  0  0  0  0  0  0  0  0  0
    7.3864   -5.0472    1.3832 H   0  0  0  0  0  0  0  0  0  0  0  0
    7.1900   -6.5670    0.5806 H   0  0  0  0  0  0  0  0  0  0  0  0
    7.4541   -6.5147    2.3219 H   0  0  0  0  0  0  0  0  0  0  0  0
    5.3470   -5.0632   -0.3591 H   0  0  0  0  0  0  0  0  0  0  0  0
    3.7486   -5.4657    0.2684 H   0  0  0  0  0  0  0  0  0  0  0  0
    4.8451   -6.6919   -0.2819 H   0  0  0  0  0  0  0  0  0  0  0  0
    5.8437   -3.5544    0.9091 H   0  0  0  0  0  0  0  0  0  0  0  0
    4.1448   -3.3567    1.2699 H   0  0  0  0  0  0  0  0  0  0  0  0
    6.5135   -2.1002    2.6227 H   0  0  0  0  0  0  0  0  0  0  0  0
    4.8606   -0.7992    0.4605 H   0  0  0  0  0  0  0  0  0  0  0  0
    6.5023   -1.4414    0.3124 H   0  0  0  0  0  0  0  0  0  0  0  0
    6.1966   -0.0693    1.3573 H   0  0  0  0  0  0  0  0  0  0  0  0
    5.3534   -1.1996    4.1123 H   0  0  0  0  0  0  0  0  0  0  0  0
    3.5166   -0.5959    5.6682 H   0  0  0  0  0  0  0  0  0  0  0  0
    3.4315    1.1358    6.0886 H   0  0  0  0  0  0  0  0  0  0  0  0
    4.9772    0.4342    5.5701 H   0  0  0  0  0  0  0  0  0  0  0  0
    3.1970   -2.1167    4.7501 H   0  0  0  0  0  0  0  0  0  0  0  0
    0.5817   -2.8057    4.6854 H   0  0  0  0  0  0  0  0  0  0  0  0
   -0.1676   -1.2457    4.3526 H   0  0  0  0  0  0  0  0  0  0  0  0
    1.3816   -1.2908    5.1421 H   0  0  0  0  0  0  0  0  0  0  0  0
    6.0892   -3.0587    5.1371 H   0  0  0  0  0  0  0  0  0  0  0  0
    5.4099   -4.4563    5.9327 H   0  0  0  0  0  0  0  0  0  0  0  0
    4.6447   -2.9115    6.1120 H   0  0  0  0  0  0  0  0  0  0  0  0
    1.4899   -4.8953    3.3567 H   0  0  0  0  0  0  0  0  0  0  0  0
    1.0949   -7.8530    2.1527 H   0  0  0  0  0  0  0  0  0  0  0  0
  1  2  2  0
  1 45  1  0
  1 46  1  0
  2  3  1  0
  2 47  1  0
  3 42  1  0
  3  4  1  1
  3  5  1  0
  4 48  1  0
  4 49  1  0
  4 50  1  0
  5  6  1  0
  5 51  1  0
  5 52  1  0
 44  6  1  6
  6  7  1  6
  6  8  1  0
  7 53  1  0
  8  9  1  0
  9 44  1  0
  9 10  1  1
  9 11  1  0
 10 54  1  0
 10 55  1  0
 10 56  1  0
 11 12  1  0
 13 11  1  1
 11 57  1  1
 12 58  1  0
 13 14  2  0
 13 15  1  0
 15 44  1  0
 15 16  1  0
 15 59  1  1
 16 17  1  0
 16 18  1  0
 16 19  1  0
 17 60  1  0
 17 61  1  0
 17 62  1  0
 18 63  1  0
 18 64  1  0
 18 65  1  0
 19 33  1  0
 19 38  1  0
 19 20  1  1
 20 21  1  0
 20 66  1  0
 20 67  1  0
 21 22  1  0
 21 23  1  0
 21 68  1  1
 22 69  1  0
 22 70  1  0
 22 71  1  0
 23 24  1  0
 23 28  1  0
 23 72  1  1
 24 25  1  0
 25 26  1  0
 25 27  2  0
 26 73  1  0
 26 74  1  0
 26 75  1  0
 28 29  1  0
 28 33  1  0
 28 76  1  1
 29 30  1  0
 30 31  1  0
 30 32  2  0
 31 77  1  0
 31 78  1  0
 31 79  1  0
 33 34  1  1
 33 35  1  0
 34 80  1  0
 34 81  1  0
 34 82  1  0
 35 36  1  0
 36 37  1  0
 36 40  1  0
 36 83  1  6
 37 38  1  0
 38 39  2  0
 40 41  1  6
 40 42  1  0
 40 44  1  0
 41 84  1  0
 42 43  2  0
M  END
>  <i_m_ct_stereo_status>  (14) 
1

>  <s_m_source_file>  (14) 
/var/tmp/pbs.5075288.sched01/tmpg6npxhsy/83n53gbz8q.sdf

>  <i_m_source_file_index>  (14) 
35

>  <i_lp_mmshare_version>  (14) 
48012

>  <i_f3d_flags>  (14) 
0

>  <s_epik_input>  (14) 
W0NIM11DMShbQ0gzXSlbQ0BASF0yW1MrXShbTy1dKVtDQEhdKFtPSF0pW0NAXTMoW0NIM10pT1tDQEBdKFtPSF0pKFtDSDJdW0NAQF0oW0NIM10pKEM0PU8pW0NIXT1bQ0gyXSlbQ0BdMjNbQ0BdNChbT0hdKVtDQEhdKE9DNT1PKU9bQ0BdKFtDQEBdMTU2KShbQ0gzXSlbQ0BIXShPQyg9TylbQ0gzXSlbQ0BASF0oW0NAQEhdKFtDSDJdNilbQ0gzXSlPQyg9TylbQ0gzXQ==

>  <s_epik_cmdline>  (14) 
J2VwaWtfcHl0aG9uJywgJy1waHQnLCAnMi4wJywgJy1waCcsICc3LjAnLCAnLXRuJywgJzgnLCAnLW1hJywgJzIwMCcsICctaW1hZScsICc8aW5maWxlLm1hZT4nLCAnLW9tYWUnLCAnPG91dGZpbGUubWFlPic=

>  <r_lp_tautomer_probability>  (14) 
1

>  <r_epik_Ionization_Penalty>  (14) 
1.24318e-05

>  <r_epik_Ionization_Penalty_Charging>  (14) 
0

>  <r_epik_Ionization_Penalty_Neutral>  (14) 
1.24318e-05

>  <r_epik_State_Penalty>  (14) 
-0

>  <r_epik_Charging_Adjusted_Penalty>  (14) 
0

>  <i_epik_Tot_Q>  (14) 
0

>  <i_epik_Tot_abs_Q>  (14) 
2

>  <s_epik_Chemistry_Notes>  (14) 
This compound has an ester and may undergo hydrolysis at high or low pH. This compound contains an acetal/aminal-like group ( X-CH(R)-Y where X, Y are N, S, or O) that may be acid/base labile, releasing an aldehyde.

>  <s_lp_Force_Field>  (14) 
OPLS3e

>  <r_lp_Energy>  (14) 
481.441

>  <b_lp_Chiralities_Consistent>  (14) 
1

>  <s_lp_Variant>  (14) 
14:0-1

>  <s_i_glide_gridfile>  (14) 
pfpi4k_grid

>  <i_i_glide_lignum>  (14) 
35

>  <i_i_glide_rotatable_bonds>  (14) 
8

>  <r_i_docking_score>  (14) 
-2.64705

>  <r_i_glide_ligand_efficiency>  (14) 
-0.0601603

>  <r_i_glide_ligand_efficiency_sa>  (14) 
-0.212387

>  <r_i_glide_ligand_efficiency_ln>  (14) 
-0.553292

>  <r_i_glide_gscore>  (14) 
-2.64705

>  <r_i_glide_lipo>  (14) 
-0.649398

>  <r_i_glide_hbond>  (14) 
0

>  <r_i_glide_metal>  (14) 
-0

>  <r_i_glide_rewards>  (14) 
0

>  <r_i_glide_evdw>  (14) 
-30.9945

>  <r_i_glide_ecoul>  (14) 
-2.84679

>  <r_i_glide_erotb>  (14) 
0.00960584

>  <r_i_glide_esite>  (14) 
-0.0305179

>  <r_i_glide_emodel>  (14) 
-27.1626

>  <r_i_glide_energy>  (14) 
-33.8413

>  <r_i_glide_einternal>  (14) 
21.5708

>  <r_i_glide_intrahb_reward>  (14) 
-0

>  <i_i_glide_confnum>  (14) 
3

>  <i_i_glide_posenum>  (14) 
7

>  <r_i_glide_eff_state_penalty>  (14) 
0

>  <ligand_id>  (14) 
14

>  <original_smiles>  (14) 
C=CC1(C)CC2(O)OC3(C)C(O)[S+]([O-])C4C(C)(C)C56CC(C)C(OC(C)=O)C(OC(C)=O)C5(C)OC(OC6=O)C(O)(C1=O)C423

>  <smiles>  (14) 
[H]OC1([H])S(=O)C2([H])C34C(O[H])(OC13C([H])([H])[H])C([H])([H])C(C([H])=C([H])[H])(C([H])([H])[H])C(=O)C4(O[H])C1([H])OC(=O)C3(C([H])([H])C([H])(C([H])([H])[H])C([H])(OC(=O)C([H])([H])[H])C([H])(OC(=O)C([H])([H])[H])C3(C([H])([H])[H])O1)C2(C([H])([H])[H])C([H])([H])[H]

$$$$
14:0:2
     RDKit          3D

 84 89  0  0  1  0  0  0  0  0999 V2000
    1.3304   -4.5861    3.3058 C   0  0  0  0  0  0  0  0  0  0  0  0
    1.8958   -3.4109    3.6567 C   0  0  0  0  0  0  0  0  0  0  0  0
    2.9630   -3.1825    4.7427 C   0  0  1  0  0  0  0  0  0  0  0  0
    3.4762   -4.5527    5.2500 C   0  0  0  0  0  0  0  0  0  0  0  0
    4.1604   -2.3706    4.1281 C   0  0  0  0  0  0  0  0  0  0  0  0
    4.9339   -1.4151    5.0996 C   0  0  2  0  0  0  0  0  0  0  0  0
    5.7448   -0.5857    4.2952 O   0  0  0  0  0  0  0  0  0  0  0  0
    5.6145   -2.4233    5.8384 O   0  0  0  0  0  0  0  0  0  0  0  0
    5.2884   -1.7855    7.0717 C   0  0  1  0  0  0  0  0  0  0  0  0
    4.8013   -2.7835    8.1285 C   0  0  0  0  0  0  0  0  0  0  0  0
    6.6880   -1.2215    7.5054 C   0  0  1  0  0  0  0  0  0  0  0  0
    7.7867   -2.0699    7.2766 O   0  0  0  0  0  0  0  0  0  0  0  0
    6.8152    0.5217    6.8528 S   0  0  0  0  0  0  0  0  0  0  0  0
    7.5623    1.3172    7.9255 O   0  0  0  0  0  0  0  0  0  0  0  0
    4.9802    0.6421    7.1195 C   0  0  1  0  0  0  0  0  0  0  0  0
    4.2205    2.0258    7.8867 C   0  0  0  0  0  0  0  0  0  0  0  0
    5.2114    2.6147    8.9369 C   0  0  0  0  0  0  0  0  0  0  0  0
    4.3106    3.0231    6.6697 C   0  0  0  0  0  0  0  0  0  0  0  0
    2.6668    2.0571    8.8077 C   0  0  2  0  0  0  0  0  0  0  0  0
    2.1403    3.4868    8.4151 C   0  0  0  0  0  0  0  0  0  0  0  0
    1.1398    4.1081    9.4157 C   0  0  1  0  0  0  0  0  0  0  0  0
    1.0289    5.6348    9.2216 C   0  0  0  0  0  0  0  0  0  0  0  0
   -0.2186    3.3582    9.4913 C   0  0  1  0  0  0  0  0  0  0  0  0
   -1.3290    4.1899    9.1522 O   0  0  0  0  0  0  0  0  0  0  0  0
   -2.5986    3.7543    9.2965 C   0  0  0  0  0  0  0  0  0  0  0  0
   -3.5925    4.8688    9.0845 C   0  0  0  0  0  0  0  0  0  0  0  0
   -2.9754    2.6137    9.5675 O   0  0  0  0  0  0  0  0  0  0  0  0
   -0.1856    2.0489    8.6722 C   0  0  1  0  0  0  0  0  0  0  0  0
   -0.3671    2.3717    7.2878 O   0  0  0  0  0  0  0  0  0  0  0  0
   -1.3466    1.8071    6.5466 C   0  0  0  0  0  0  0  0  0  0  0  0
   -1.3255    2.3005    5.1081 C   0  0  0  0  0  0  0  0  0  0  0  0
   -2.1521    0.9521    6.9197 O   0  0  0  0  0  0  0  0  0  0  0  0
    1.0844    1.1801    8.9634 C   0  0  2  0  0  0  0  0  0  0  0  0
    0.8952    0.6886   10.4369 C   0  0  0  0  0  0  0  0  0  0  0  0
    0.7223   -0.1009    8.0774 O   0  0  0  0  0  0  0  0  0  0  0  0
    1.4511   -0.0097    6.7836 C   0  0  1  0  0  0  0  0  0  0  0  0
    2.2188    1.0239    6.9298 O   0  0  0  0  0  0  0  0  0  0  0  0
    2.7740    0.8686    8.1950 C   0  0  0  0  0  0  0  0  0  0  0  0
    3.1348   -0.1645    8.8404 O   0  0  0  0  0  0  0  0  0  0  0  0
    2.6314   -0.9239    6.1316 C   0  0  2  0  0  0  0  0  0  0  0  0
    2.5085   -0.3477    4.8205 O   0  0  0  0  0  0  0  0  0  0  0  0
    2.2814   -2.4176    5.9270 C   0  0  0  0  0  0  0  0  0  0  0  0
    1.4762   -2.9768    6.6722 O   0  0  0  0  0  0  0  0  0  0  0  0
    4.3017   -0.7305    6.3888 C   0  0  1  0  0  0  0  0  0  0  0  0
    1.5693   -5.5181    3.7915 H   0  0  0  0  0  0  0  0  0  0  0  0
    0.6133   -4.6380    2.5122 H   0  0  0  0  0  0  0  0  0  0  0  0
    1.5733   -2.5310    3.1148 H   0  0  0  0  0  0  0  0  0  0  0  0
    2.6826   -5.1516    5.6942 H   0  0  0  0  0  0  0  0  0  0  0  0
    4.2538   -4.4678    5.9983 H   0  0  0  0  0  0  0  0  0  0  0  0
    3.8995   -5.1282    4.4289 H   0  0  0  0  0  0  0  0  0  0  0  0
    4.8498   -3.0558    3.6285 H   0  0  0  0  0  0  0  0  0  0  0  0
    3.7747   -1.7778    3.2958 H   0  0  0  0  0  0  0  0  0  0  0  0
    5.1801   -0.1494    3.6759 H   0  0  0  0  0  0  0  0  0  0  0  0
    4.6527   -2.2955    9.0971 H   0  0  0  0  0  0  0  0  0  0  0  0
    5.5319   -3.5819    8.2704 H   0  0  0  0  0  0  0  0  0  0  0  0
    3.8589   -3.2564    7.8646 H   0  0  0  0  0  0  0  0  0  0  0  0
    6.6993   -1.1073    8.5908 H   0  0  0  0  0  0  0  0  0  0  0  0
    7.9558   -2.5597    8.0653 H   0  0  0  0  0  0  0  0  0  0  0  0
    5.2000    0.3041    8.1268 H   0  0  0  0  0  0  0  0  0  0  0  0
    4.7644    3.4303    9.5086 H   0  0  0  0  0  0  0  0  0  0  0  0
    6.0980    3.0418    8.4687 H   0  0  0  0  0  0  0  0  0  0  0  0
    5.5337    1.8672    9.6656 H   0  0  0  0  0  0  0  0  0  0  0  0
    4.3317    4.0759    6.9461 H   0  0  0  0  0  0  0  0  0  0  0  0
    3.5209    2.8834    5.9316 H   0  0  0  0  0  0  0  0  0  0  0  0
    5.2487    2.8829    6.1337 H   0  0  0  0  0  0  0  0  0  0  0  0
    2.9653    4.1887    8.4668 H   0  0  0  0  0  0  0  0  0  0  0  0
    1.7613    3.5326    7.3965 H   0  0  0  0  0  0  0  0  0  0  0  0
    1.6069    3.9750   10.3941 H   0  0  0  0  0  0  0  0  0  0  0  0
    0.5713    5.8943    8.2646 H   0  0  0  0  0  0  0  0  0  0  0  0
    2.0155    6.1032    9.2494 H   0  0  0  0  0  0  0  0  0  0  0  0
    0.4420    6.0917   10.0195 H   0  0  0  0  0  0  0  0  0  0  0  0
   -0.3630    3.1026   10.5409 H   0  0  0  0  0  0  0  0  0  0  0  0
   -3.3617    5.6676    9.7903 H   0  0  0  0  0  0  0  0  0  0  0  0
   -4.5971    4.4944    9.2699 H   0  0  0  0  0  0  0  0  0  0  0  0
   -3.5544    5.2782    8.0814 H   0  0  0  0  0  0  0  0  0  0  0  0
   -1.0226    1.4288    8.9914 H   0  0  0  0  0  0  0  0  0  0  0  0
   -1.3682    3.3901    5.0774 H   0  0  0  0  0  0  0  0  0  0  0  0
   -2.1695    1.8949    4.5479 H   0  0  0  0  0  0  0  0  0  0  0  0
   -0.4026    1.9763    4.6267 H   0  0  0  0  0  0  0  0  0  0  0  0
    1.1464    1.4741   11.1522 H   0  0  0  0  0  0  0  0  0  0  0  0
    1.5112   -0.1770   10.6793 H   0  0  0  0  0  0  0  0  0  0  0  0
   -0.1361    0.3890   10.6318 H   0  0  0  0  0  0  0  0  0  0  0  0
    0.6920    0.2156    6.0398 H   0  0  0  0  0  0  0  0  0  0  0  0
    2.6589    0.5859    4.8874 H   0  0  0  0  0  0  0  0  0  0  0  0
  1  2  2  0
  1 45  1  0
  1 46  1  0
  2  3  1  0
  2 47  1  0
  3 42  1  0
  3  4  1  1
  3  5  1  0
  4 48  1  0
  4 49  1  0
  4 50  1  0
  5  6  1  0
  5 51  1  0
  5 52  1  0
 44  6  1  6
  6  7  1  6
  6  8  1  0
  7 53  1  0
  8  9  1  0
  9 44  1  0
  9 10  1  1
  9 11  1  0
 10 54  1  0
 10 55  1  0
 10 56  1  0
 11 12  1  0
 13 11  1  1
 11 57  1  1
 12 58  1  0
 13 14  2  0
 13 15  1  0
 15 44  1  0
 15 16  1  0
 15 59  1  1
 16 17  1  0
 16 18  1  0
 16 19  1  0
 17 60  1  0
 17 61  1  0
 17 62  1  0
 18 63  1  0
 18 64  1  0
 18 65  1  0
 19 33  1  0
 19 38  1  0
 19 20  1  1
 20 21  1  0
 20 66  1  0
 20 67  1  0
 21 22  1  0
 21 23  1  0
 21 68  1  1
 22 69  1  0
 22 70  1  0
 22 71  1  0
 23 24  1  0
 23 28  1  0
 23 72  1  1
 24 25  1  0
 25 26  1  0
 25 27  2  0
 26 73  1  0
 26 74  1  0
 26 75  1  0
 28 29  1  0
 28 33  1  0
 28 76  1  1
 29 30  1  0
 30 31  1  0
 30 32  2  0
 31 77  1  0
 31 78  1  0
 31 79  1  0
 33 34  1  1
 33 35  1  0
 34 80  1  0
 34 81  1  0
 34 82  1  0
 35 36  1  0
 36 37  1  0
 36 40  1  0
 36 83  1  6
 37 38  1  0
 38 39  2  0
 40 41  1  6
 40 42  1  0
 40 44  1  0
 41 84  1  0
 42 43  2  0
M  END
>  <i_m_ct_stereo_status>  (15) 
1

>  <s_m_source_file>  (15) 
/var/tmp/pbs.5075288.sched01/tmpg6npxhsy/83n53gbz8q.sdf

>  <i_m_source_file_index>  (15) 
35

>  <i_lp_mmshare_version>  (15) 
48012

>  <i_f3d_flags>  (15) 
0

>  <s_epik_input>  (15) 
W0NIM11DMShbQ0gzXSlbQ0BASF0yW1MrXShbTy1dKVtDQEhdKFtPSF0pW0NAXTMoW0NIM10pT1tDQEBdKFtPSF0pKFtDSDJdW0NAQF0oW0NIM10pKEM0PU8pW0NIXT1bQ0gyXSlbQ0BdMjNbQ0BdNChbT0hdKVtDQEhdKE9DNT1PKU9bQ0BdKFtDQEBdMTU2KShbQ0gzXSlbQ0BIXShPQyg9TylbQ0gzXSlbQ0BASF0oW0NAQEhdKFtDSDJdNilbQ0gzXSlPQyg9TylbQ0gzXQ==

>  <s_epik_cmdline>  (15) 
J2VwaWtfcHl0aG9uJywgJy1waHQnLCAnMi4wJywgJy1waCcsICc3LjAnLCAnLXRuJywgJzgnLCAnLW1hJywgJzIwMCcsICctaW1hZScsICc8aW5maWxlLm1hZT4nLCAnLW9tYWUnLCAnPG91dGZpbGUubWFlPic=

>  <r_lp_tautomer_probability>  (15) 
1

>  <r_epik_Ionization_Penalty>  (15) 
1.24318e-05

>  <r_epik_Ionization_Penalty_Charging>  (15) 
0

>  <r_epik_Ionization_Penalty_Neutral>  (15) 
1.24318e-05

>  <r_epik_State_Penalty>  (15) 
-0

>  <r_epik_Charging_Adjusted_Penalty>  (15) 
0

>  <i_epik_Tot_Q>  (15) 
0

>  <i_epik_Tot_abs_Q>  (15) 
2

>  <s_epik_Chemistry_Notes>  (15) 
This compound has an ester and may undergo hydrolysis at high or low pH. This compound contains an acetal/aminal-like group ( X-CH(R)-Y where X, Y are N, S, or O) that may be acid/base labile, releasing an aldehyde.

>  <s_lp_Force_Field>  (15) 
OPLS3e

>  <r_lp_Energy>  (15) 
481.441

>  <b_lp_Chiralities_Consistent>  (15) 
1

>  <s_lp_Variant>  (15) 
14:0-1

>  <s_i_glide_gridfile>  (15) 
pfpi4k_grid

>  <i_i_glide_lignum>  (15) 
35

>  <i_i_glide_rotatable_bonds>  (15) 
8

>  <r_i_docking_score>  (15) 
-2.18816

>  <r_i_glide_ligand_efficiency>  (15) 
-0.049731

>  <r_i_glide_ligand_efficiency_sa>  (15) 
-0.175568

>  <r_i_glide_ligand_efficiency_ln>  (15) 
-0.457374

>  <r_i_glide_gscore>  (15) 
-2.18816

>  <r_i_glide_lipo>  (15) 
-0.0825756

>  <r_i_glide_hbond>  (15) 
-0.16

>  <r_i_glide_metal>  (15) 
-0

>  <r_i_glide_rewards>  (15) 
-0.159033

>  <r_i_glide_evdw>  (15) 
-18.306

>  <r_i_glide_ecoul>  (15) 
-5.64973

>  <r_i_glide_erotb>  (15) 
0.00960584

>  <r_i_glide_esite>  (15) 
-0.0334019

>  <r_i_glide_emodel>  (15) 
-26.3315

>  <r_i_glide_energy>  (15) 
-23.9557

>  <r_i_glide_einternal>  (15) 
3.47849

>  <r_i_glide_intrahb_reward>  (15) 
-0

>  <i_i_glide_confnum>  (15) 
1

>  <i_i_glide_posenum>  (15) 
2

>  <r_i_glide_eff_state_penalty>  (15) 
0

>  <ligand_id>  (15) 
14

>  <original_smiles>  (15) 
C=CC1(C)CC2(O)OC3(C)C(O)[S+]([O-])C4C(C)(C)C56CC(C)C(OC(C)=O)C(OC(C)=O)C5(C)OC(OC6=O)C(O)(C1=O)C423

>  <smiles>  (15) 
[H]OC1([H])S(=O)C2([H])C34C(O[H])(OC13C([H])([H])[H])C([H])([H])C(C([H])=C([H])[H])(C([H])([H])[H])C(=O)C4(O[H])C1([H])OC(=O)C3(C([H])([H])C([H])(C([H])([H])[H])C([H])(OC(=O)C([H])([H])[H])C([H])(OC(=O)C([H])([H])[H])C3(C([H])([H])[H])O1)C2(C([H])([H])[H])C([H])([H])[H]

$$$$
21:0:0
     RDKit          3D

 96102  0  0  1  0  0  0  0  0999 V2000
    4.1279   -2.9747   -3.7605 C   0  0  0  0  0  0  0  0  0  0  0  0
    5.3675   -3.3486   -2.9372 C   0  0  0  0  0  0  0  0  0  0  0  0
    5.4157   -2.6687   -1.5603 C   0  0  0  0  0  0  0  0  0  0  0  0
    4.3192   -3.1650   -0.6002 C   0  0  0  0  0  0  0  0  0  0  0  0
    4.4809   -2.5960    0.8181 C   0  0  0  0  0  0  0  0  0  0  0  0
    3.5755   -3.2467    1.8697 C   0  0  0  0  0  0  0  0  0  0  0  0
    2.6663   -4.0250    1.5644 O   0  0  0  0  0  0  0  0  0  0  0  0
    3.8508   -2.8406    3.3296 C   0  0  2  0  0  0  0  0  0  0  0  0
    3.2673   -3.7181    4.2808 O   0  0  0  0  0  0  0  0  0  0  0  0
    3.6760   -5.0768    4.3960 C   0  0  1  0  0  0  0  0  0  0  0  0
    5.2462   -5.2836    4.5420 C   0  0  1  0  0  0  0  0  0  0  0  0
    5.8358   -4.9007    5.8681 C   0  0  0  0  0  0  0  0  0  0  0  0
    5.9051   -5.8989    6.8008 C   0  0  0  0  0  0  0  0  0  0  0  0
    6.6348   -5.7597    8.1112 C   0  0  0  0  0  0  0  0  0  0  0  0
    5.4128   -7.2464    6.3121 C   0  0  1  0  0  0  0  0  0  0  0  0
    3.8993   -7.6733    6.5805 C   0  0  1  0  0  0  0  0  0  0  0  0
    3.2675   -7.2737    7.9393 C   0  0  1  0  0  0  0  0  0  0  0  0
    4.0123   -7.8451    8.9983 O   0  0  0  0  0  0  0  0  0  0  0  0
    2.9229   -5.7659    8.1794 C   0  0  1  0  0  0  0  0  0  0  0  0
    3.7964   -5.1482    9.1109 O   0  0  0  0  0  0  0  0  0  0  0  0
    2.6067   -4.8818    6.8871 C   0  0  2  0  0  0  0  0  0  0  0  0
    3.5316   -3.8315    6.9248 O   0  0  0  0  0  0  0  0  0  0  0  0
    1.1627   -4.1643    6.9724 C   0  0  2  0  0  0  0  0  0  0  0  0
    1.1224   -3.4135    8.1824 O   0  0  0  0  0  0  0  0  0  0  0  0
   -0.0128   -3.4679    8.8806 C   0  0  0  0  0  0  0  0  0  0  0  0
   -0.3177   -2.7860    9.8429 O   0  0  0  0  0  0  0  0  0  0  0  0
   -0.9182   -4.5439    8.2836 C   0  0  1  0  0  0  0  0  0  0  0  0
   -2.0366   -3.9430    7.6848 O   0  0  0  0  0  0  0  0  0  0  0  0
    0.0081   -5.1869    7.2577 C   0  0  1  0  0  0  0  0  0  0  0  0
   -0.6443   -5.7276    6.1229 O   0  0  0  0  0  0  0  0  0  0  0  0
    0.7708   -3.1473    5.7794 C   0  0  1  0  0  0  0  0  0  0  0  0
   -0.5960   -3.0094    5.6093 O   0  0  0  0  0  0  0  0  0  0  0  0
    1.4533   -1.7220    5.6063 C   0  0  2  0  0  0  0  0  0  0  0  0
    2.3808   -1.4399    6.6172 O   0  0  0  0  0  0  0  0  0  0  0  0
    0.5230   -0.4633    5.5907 C   0  0  0  0  0  0  0  0  0  0  0  0
   -0.4475   -0.0890    6.2642 O   0  0  0  0  0  0  0  0  0  0  0  0
    1.2775    0.1336    4.3822 C   0  0  1  0  0  0  0  0  0  0  0  0
    0.3835    0.7707    3.3002 C   0  0  0  0  0  0  0  0  0  0  0  0
    2.1536    1.1360    4.8384 O   0  0  0  0  0  0  0  0  0  0  0  0
    1.8477   -1.3037    4.1310 C   0  0  2  0  0  0  0  0  0  0  0  0
    1.0773   -1.9801    3.1635 O   0  0  0  0  0  0  0  0  0  0  0  0
    3.3335   -1.4116    3.6561 C   0  0  1  0  0  0  0  0  0  0  0  0
    4.1984   -0.8680    4.6460 O   0  0  0  0  0  0  0  0  0  0  0  0
    5.3514   -0.2752    4.3187 C   0  0  0  0  0  0  0  0  0  0  0  0
    6.0690    0.3108    5.5240 C   0  0  0  0  0  0  0  0  0  0  0  0
    5.8155   -0.2030    3.1774 O   0  0  0  0  0  0  0  0  0  0  0  0
    2.8442   -5.7124    5.5557 C   0  0  1  0  0  0  0  0  0  0  0  0
    1.7419   -6.5824    5.4558 O   0  0  0  0  0  0  0  0  0  0  0  0
    2.9792   -7.2394    5.4403 C   0  0  2  0  0  0  0  0  0  0  0  0
    2.9000   -8.2193    4.2451 C   0  0  0  0  0  0  0  0  0  0  0  0
    5.7176   -7.0855    4.4713 S   0  0  0  0  0  0  0  0  0  0  0  0
    7.2083   -7.1616    4.2608 O   0  0  0  0  0  0  0  0  0  0  0  0
    4.1360   -3.4843   -4.7206 H   0  0  0  0  0  0  0  0  0  0  0  0
    4.0852   -1.8985   -3.9408 H   0  0  0  0  0  0  0  0  0  0  0  0
    3.2078   -3.2680   -3.2512 H   0  0  0  0  0  0  0  0  0  0  0  0
    5.4057   -4.4310   -2.8135 H   0  0  0  0  0  0  0  0  0  0  0  0
    6.2585   -3.0792   -3.5040 H   0  0  0  0  0  0  0  0  0  0  0  0
    6.3921   -2.8659   -1.1168 H   0  0  0  0  0  0  0  0  0  0  0  0
    5.3478   -1.5866   -1.6795 H   0  0  0  0  0  0  0  0  0  0  0  0
    3.3371   -2.8838   -0.9830 H   0  0  0  0  0  0  0  0  0  0  0  0
    4.3386   -4.2554   -0.5698 H   0  0  0  0  0  0  0  0  0  0  0  0
    5.5117   -2.7205    1.1510 H   0  0  0  0  0  0  0  0  0  0  0  0
    4.2877   -1.5229    0.8043 H   0  0  0  0  0  0  0  0  0  0  0  0
    4.9348   -2.8649    3.4623 H   0  0  0  0  0  0  0  0  0  0  0  0
    3.3799   -5.5743    3.4675 H   0  0  0  0  0  0  0  0  0  0  0  0
    5.7928   -4.8036    3.7304 H   0  0  0  0  0  0  0  0  0  0  0  0
    6.2079   -3.9134    6.0369 H   0  0  0  0  0  0  0  0  0  0  0  0
    6.0866   -6.2020    8.9448 H   0  0  0  0  0  0  0  0  0  0  0  0
    6.8380   -4.7151    8.3496 H   0  0  0  0  0  0  0  0  0  0  0  0
    7.5922   -6.2778    8.0516 H   0  0  0  0  0  0  0  0  0  0  0  0
    6.0767   -8.0200    6.7070 H   0  0  0  0  0  0  0  0  0  0  0  0
    3.8884   -8.7642    6.5608 H   0  0  0  0  0  0  0  0  0  0  0  0
    2.3080   -7.7893    7.9699 H   0  0  0  0  0  0  0  0  0  0  0  0
    4.0470   -8.7894    8.8700 H   0  0  0  0  0  0  0  0  0  0  0  0
    2.0501   -5.7830    8.8219 H   0  0  0  0  0  0  0  0  0  0  0  0
    4.6599   -5.0746    8.7101 H   0  0  0  0  0  0  0  0  0  0  0  0
    3.4012   -3.2715    6.1647 H   0  0  0  0  0  0  0  0  0  0  0  0
   -1.2176   -5.2622    9.0541 H   0  0  0  0  0  0  0  0  0  0  0  0
   -2.5076   -4.6263    7.1936 H   0  0  0  0  0  0  0  0  0  0  0  0
    0.3974   -6.0750    7.7467 H   0  0  0  0  0  0  0  0  0  0  0  0
    0.0223   -6.1861    5.6102 H   0  0  0  0  0  0  0  0  0  0  0  0
    1.0013   -3.7345    4.8919 H   0  0  0  0  0  0  0  0  0  0  0  0
   -0.7392   -2.5458    4.7581 H   0  0  0  0  0  0  0  0  0  0  0  0
    2.7028   -0.5515    6.4655 H   0  0  0  0  0  0  0  0  0  0  0  0
   -0.4850    0.1562    3.0573 H   0  0  0  0  0  0  0  0  0  0  0  0
    0.9468    0.9081    2.3689 H   0  0  0  0  0  0  0  0  0  0  0  0
    0.0136    1.7546    3.6011 H   0  0  0  0  0  0  0  0  0  0  0  0
    2.6104    1.4758    4.0748 H   0  0  0  0  0  0  0  0  0  0  0  0
    1.2291   -1.5586    2.3231 H   0  0  0  0  0  0  0  0  0  0  0  0
    3.4366   -0.8042    2.7551 H   0  0  0  0  0  0  0  0  0  0  0  0
    5.4199    1.0047    6.0646 H   0  0  0  0  0  0  0  0  0  0  0  0
    6.9628    0.8486    5.2101 H   0  0  0  0  0  0  0  0  0  0  0  0
    6.3656   -0.4836    6.2112 H   0  0  0  0  0  0  0  0  0  0  0  0
    3.7495   -8.8982    4.1755 H   0  0  0  0  0  0  0  0  0  0  0  0
    2.8052   -7.6877    3.2946 H   0  0  0  0  0  0  0  0  0  0  0  0
    2.0164   -8.8472    4.3492 H   0  0  0  0  0  0  0  0  0  0  0  0
  1  2  1  0
  1 53  1  0
  1 54  1  0
  1 55  1  0
  2  3  1  0
  2 56  1  0
  2 57  1  0
  3  4  1  0
  3 58  1  0
  3 59  1  0
  4  5  1  0
  4 60  1  0
  4 61  1  0
  5  6  1  0
  5 62  1  0
  5 63  1  0
  6  7  2  0
  6  8  1  0
  8 42  1  0
  8  9  1  0
  8 64  1  6
  9 10  1  0
 10 47  1  0
 10 11  1  0
 10 65  1  6
 51 11  1  1
 11 12  1  0
 11 66  1  6
 12 13  2  0
 12 67  1  0
 13 14  1  0
 13 15  1  0
 14 68  1  0
 14 69  1  0
 14 70  1  0
 15 16  1  0
 15 51  1  0
 15 71  1  1
 16 49  1  0
 16 17  1  0
 16 72  1  1
 17 18  1  0
 17 19  1  0
 17 73  1  6
 18 74  1  0
 19 20  1  0
 19 21  1  0
 19 75  1  1
 20 76  1  0
 21 22  1  6
 21 23  1  0
 21 47  1  0
 22 77  1  0
 23 29  1  0
 23 24  1  1
 23 31  1  0
 24 25  1  0
 25 26  2  0
 25 27  1  0
 27 28  1  0
 27 29  1  0
 27 78  1  1
 28 79  1  0
 29 30  1  0
 29 80  1  1
 30 81  1  0
 31 32  1  0
 31 33  1  0
 31 82  1  6
 32 83  1  0
 33 40  1  0
 33 34  1  1
 33 35  1  0
 34 84  1  0
 35 36  2  0
 35 37  1  0
 37 38  1  0
 37 39  1  1
 37 40  1  0
 38 85  1  0
 38 86  1  0
 38 87  1  0
 39 88  1  0
 40 41  1  6
 40 42  1  0
 41 89  1  0
 42 43  1  0
 42 90  1  6
 43 44  1  0
 44 45  1  0
 44 46  2  0
 45 91  1  0
 45 92  1  0
 45 93  1  0
 47 49  1  0
 47 48  1  6
 48 49  1  0
 49 50  1  6
 50 94  1  0
 50 95  1  0
 50 96  1  0
 51 52  2  0
M  END
>  <i_m_ct_stereo_status>  (16) 
1

>  <s_m_source_file>  (16) 
/var/tmp/pbs.5075288.sched01/tmpg6npxhsy/83n53gbz8q.sdf

>  <i_m_source_file_index>  (16) 
48

>  <i_lp_mmshare_version>  (16) 
48012

>  <i_f3d_flags>  (16) 
0

>  <s_epik_input>  (16) 
W0NIM11bQ0gyXVtDSDJdW0NIMl1bQ0gyXUMoPU8pW0NAQEhdKFtDQEhdKE9DKD1PKVtDSDNdKVtDQEBdMShbT0hdKVtDQF0oW09IXSkoW0NAQEhdMltPSF0pQyg9TylbQ0BAXTEoW0NIM10pW09IXSlPW0NAQEhdKFtDQEhdM1tDSF09QyhbQ0gzXSlbQ0BIXShbUytdM1tPLV0pW0NASF0oW0NAXTQoTzUpW0NIM10pW0NAQEhdKFtPSF0pW0NASF02W09IXSlbQ0BdNDVbQ0BAXTYoW09IXSlbQ0BAXTI3T0MoPU8pW0NAQEhdKFtPSF0pW0NASF03W09IXQ==

>  <s_epik_cmdline>  (16) 
J2VwaWtfcHl0aG9uJywgJy1waHQnLCAnMi4wJywgJy1waCcsICc3LjAnLCAnLXRuJywgJzgnLCAnLW1hJywgJzIwMCcsICctaW1hZScsICc8aW5maWxlLm1hZT4nLCAnLW9tYWUnLCAnPG91dGZpbGUubWFlPic=

>  <r_lp_tautomer_probability>  (16) 
1

>  <r_epik_Ionization_Penalty>  (16) 
0.00346819

>  <r_epik_Ionization_Penalty_Charging>  (16) 
0

>  <r_epik_Ionization_Penalty_Neutral>  (16) 
0.00346819

>  <r_epik_State_Penalty>  (16) 
-0

>  <r_epik_Charging_Adjusted_Penalty>  (16) 
0

>  <i_epik_Tot_Q>  (16) 
0

>  <i_epik_Tot_abs_Q>  (16) 
2

>  <s_epik_Chemistry_Notes>  (16) 
This compound has an ester and may undergo hydrolysis at high or low pH.

>  <s_lp_Force_Field>  (16) 
OPLS3e

>  <r_lp_Energy>  (16) 
102.351

>  <b_lp_Chiralities_Consistent>  (16) 
1

>  <s_lp_Variant>  (16) 
21:0-1

>  <s_i_glide_gridfile>  (16) 
pfpi4k_grid

>  <i_i_glide_lignum>  (16) 
48

>  <i_i_glide_rotatable_bonds>  (16) 
16

>  <r_i_docking_score>  (16) 
-4.67185

>  <r_i_glide_ligand_efficiency>  (16) 
-0.0898432

>  <r_i_glide_ligand_efficiency_sa>  (16) 
-0.335341

>  <r_i_glide_ligand_efficiency_ln>  (16) 
-0.94357

>  <r_i_glide_gscore>  (16) 
-4.67185

>  <r_i_glide_lipo>  (16) 
-0.520961

>  <r_i_glide_hbond>  (16) 
-0.181172

>  <r_i_glide_metal>  (16) 
-0

>  <r_i_glide_rewards>  (16) 
-1.60559

>  <r_i_glide_evdw>  (16) 
-28.4484

>  <r_i_glide_ecoul>  (16) 
-7.23075

>  <r_i_glide_erotb>  (16) 
0.187072

>  <r_i_glide_esite>  (16) 
-0.0441599

>  <r_i_glide_emodel>  (16) 
-59.1851

>  <r_i_glide_energy>  (16) 
-35.6792

>  <r_i_glide_einternal>  (16) 
7.0465

>  <r_i_glide_intrahb_reward>  (16) 
-1.5

>  <i_i_glide_confnum>  (16) 
1

>  <i_i_glide_posenum>  (16) 
2

>  <r_i_glide_eff_state_penalty>  (16) 
0

>  <ligand_id>  (16) 
21

>  <original_smiles>  (16) 
CCCCCC(=O)C1OC2C3C=C(C)C(C4C(O)C(O)C(O)(C5(OC(=O)C(O)C5O)C(O)C5(O)C(=O)C(C)(O)C5(O)C1OC(C)=O)C21OC41C)[S+]3[O-]

>  <smiles>  (16) 
[H]OC1([H])C(=O)OC2(C1([H])O[H])C([H])(O[H])C1(O[H])C(=O)C(O[H])(C([H])([H])[H])C1(O[H])C([H])(OC(=O)C([H])([H])[H])C([H])(C(=O)C([H])([H])C([H])([H])C([H])([H])C([H])([H])C([H])([H])[H])OC1([H])C3([H])C([H])=C(C([H])([H])[H])C([H])(S3=O)C3([H])C([H])(O[H])C([H])(O[H])C2(O[H])C12OC32C([H])([H])[H]

$$$$
21:0:1
     RDKit          3D

 96102  0  0  1  0  0  0  0  0999 V2000
    5.3394   -3.8680   -2.5081 C   0  0  0  0  0  0  0  0  0  0  0  0
    4.0299   -3.0886   -2.3855 C   0  0  0  0  0  0  0  0  0  0  0  0
    3.5182   -2.9918   -0.9411 C   0  0  0  0  0  0  0  0  0  0  0  0
    4.5340   -2.3553    0.0254 C   0  0  0  0  0  0  0  0  0  0  0  0
    3.8874   -1.6714    1.2378 C   0  0  0  0  0  0  0  0  0  0  0  0
    3.4355   -2.6249    2.3455 C   0  0  0  0  0  0  0  0  0  0  0  0
    2.9495   -3.7330    2.0970 O   0  0  0  0  0  0  0  0  0  0  0  0
    3.5749   -2.0878    3.7816 C   0  0  2  0  0  0  0  0  0  0  0  0
    3.1862   -3.0200    4.7820 O   0  0  0  0  0  0  0  0  0  0  0  0
    3.8842   -4.2441    4.9972 C   0  0  1  0  0  0  0  0  0  0  0  0
    5.4534   -4.0768    5.1751 C   0  0  1  0  0  0  0  0  0  0  0  0
    5.9062   -3.4912    6.4791 C   0  0  0  0  0  0  0  0  0  0  0  0
    6.1786   -4.3937    7.4759 C   0  0  0  0  0  0  0  0  0  0  0  0
    6.8192   -4.0122    8.7829 C   0  0  0  0  0  0  0  0  0  0  0  0
    6.0172   -5.8430    7.0665 C   0  0  1  0  0  0  0  0  0  0  0  0
    4.6317   -6.5887    7.3387 C   0  0  1  0  0  0  0  0  0  0  0  0
    3.8873   -6.2673    8.6599 C   0  0  1  0  0  0  0  0  0  0  0  0
    4.6957   -6.6121    9.7677 O   0  0  0  0  0  0  0  0  0  0  0  0
    3.2054   -4.8681    8.7991 C   0  0  1  0  0  0  0  0  0  0  0  0
    3.9096   -4.0249    9.7001 O   0  0  0  0  0  0  0  0  0  0  0  0
    2.7287   -4.1553    7.4522 C   0  0  2  0  0  0  0  0  0  0  0  0
    3.3845   -2.9151    7.4429 O   0  0  0  0  0  0  0  0  0  0  0  0
    1.1541   -3.7936    7.4644 C   0  0  2  0  0  0  0  0  0  0  0  0
    0.9156   -2.9925    8.6131 O   0  0  0  0  0  0  0  0  0  0  0  0
   -0.1822   -3.2695    9.3161 C   0  0  0  0  0  0  0  0  0  0  0  0
   -0.6397   -2.6250   10.2394 O   0  0  0  0  0  0  0  0  0  0  0  0
   -0.8149   -4.5546    8.7828 C   0  0  1  0  0  0  0  0  0  0  0  0
   -2.0248   -4.2603    8.1267 O   0  0  0  0  0  0  0  0  0  0  0  0
    0.2505   -5.0354    7.8046 C   0  0  1  0  0  0  0  0  0  0  0  0
   -0.3110   -5.7053    6.6874 O   0  0  0  0  0  0  0  0  0  0  0  0
    0.5768   -2.9584    6.2006 C   0  0  1  0  0  0  0  0  0  0  0  0
   -0.7828   -3.1565    5.9999 O   0  0  0  0  0  0  0  0  0  0  0  0
    0.9089   -1.4164    5.9472 C   0  0  2  0  0  0  0  0  0  0  0  0
    1.7274   -0.8676    6.9434 O   0  0  0  0  0  0  0  0  0  0  0  0
   -0.3005   -0.4217    5.8230 C   0  0  0  0  0  0  0  0  0  0  0  0
   -1.3652   -0.2525    6.4428 O   0  0  0  0  0  0  0  0  0  0  0  0
    0.3423    0.2715    4.6059 C   0  0  1  0  0  0  0  0  0  0  0  0
   -0.6305    0.6170    3.4618 C   0  0  0  0  0  0  0  0  0  0  0  0
    0.9117    1.4831    5.0388 O   0  0  0  0  0  0  0  0  0  0  0  0
    1.2527   -0.9986    4.4610 C   0  0  2  0  0  0  0  0  0  0  0  0
    0.7011   -1.9051    3.5268 O   0  0  0  0  0  0  0  0  0  0  0  0
    2.7428   -0.7971    4.0099 C   0  0  1  0  0  0  0  0  0  0  0  0
    3.5266   -0.0530    4.9387 O   0  0  0  0  0  0  0  0  0  0  0  0
    3.8408    1.2313    4.7015 C   0  0  0  0  0  0  0  0  0  0  0  0
    4.7916    1.7991    5.7510 C   0  0  0  0  0  0  0  0  0  0  0  0
    3.4067    1.9027    3.7757 O   0  0  0  0  0  0  0  0  0  0  0  0
    3.1870   -4.9834    6.1827 C   0  0  1  0  0  0  0  0  0  0  0  0
    2.3109   -6.0820    6.1248 O   0  0  0  0  0  0  0  0  0  0  0  0
    3.6650   -6.4467    6.1641 C   0  0  2  0  0  0  0  0  0  0  0  0
    3.8526   -7.4813    5.0264 C   0  0  0  0  0  0  0  0  0  0  0  0
    6.3350   -5.7210    5.2253 S   0  0  0  0  0  0  0  0  0  0  0  0
    7.8116   -5.4786    5.0621 O   0  0  0  0  0  0  0  0  0  0  0  0
    5.6607   -3.9303   -3.5474 H   0  0  0  0  0  0  0  0  0  0  0  0
    5.1998   -4.8801   -2.1282 H   0  0  0  0  0  0  0  0  0  0  0  0
    6.1473   -3.4034   -1.9425 H   0  0  0  0  0  0  0  0  0  0  0  0
    4.1595   -2.0886   -2.7997 H   0  0  0  0  0  0  0  0  0  0  0  0
    3.2675   -3.5744   -2.9969 H   0  0  0  0  0  0  0  0  0  0  0  0
    2.6142   -2.3862   -0.9593 H   0  0  0  0  0  0  0  0  0  0  0  0
    3.2230   -3.9797   -0.5816 H   0  0  0  0  0  0  0  0  0  0  0  0
    5.2538   -3.1090    0.3534 H   0  0  0  0  0  0  0  0  0  0  0  0
    5.1090   -1.5973   -0.5073 H   0  0  0  0  0  0  0  0  0  0  0  0
    4.5962   -0.9600    1.6688 H   0  0  0  0  0  0  0  0  0  0  0  0
    3.0262   -1.0828    0.9148 H   0  0  0  0  0  0  0  0  0  0  0  0
    4.6307   -1.8431    3.9284 H   0  0  0  0  0  0  0  0  0  0  0  0
    3.7456   -4.8559    4.1021 H   0  0  0  0  0  0  0  0  0  0  0  0
    5.8740   -3.5294    4.3345 H   0  0  0  0  0  0  0  0  0  0  0  0
    6.0400   -2.4381    6.5899 H   0  0  0  0  0  0  0  0  0  0  0  0
    6.3651   -4.5128    9.6394 H   0  0  0  0  0  0  0  0  0  0  0  0
    6.7719   -2.9356    8.9528 H   0  0  0  0  0  0  0  0  0  0  0  0
    7.8705   -4.3009    8.7677 H   0  0  0  0  0  0  0  0  0  0  0  0
    6.8300   -6.4224    7.5144 H   0  0  0  0  0  0  0  0  0  0  0  0
    4.8714   -7.6520    7.3895 H   0  0  0  0  0  0  0  0  0  0  0  0
    3.0669   -6.9849    8.6990 H   0  0  0  0  0  0  0  0  0  0  0  0
    5.4237   -5.9976    9.8093 H   0  0  0  0  0  0  0  0  0  0  0  0
    2.3339   -5.0453    9.4177 H   0  0  0  0  0  0  0  0  0  0  0  0
    4.6969   -3.7014    9.2647 H   0  0  0  0  0  0  0  0  0  0  0  0
    3.1355   -2.4282    6.6615 H   0  0  0  0  0  0  0  0  0  0  0  0
   -0.9605   -5.2782    9.5905 H   0  0  0  0  0  0  0  0  0  0  0  0
   -2.3621   -5.0715    7.7262 H   0  0  0  0  0  0  0  0  0  0  0  0
    0.8267   -5.8042    8.3231 H   0  0  0  0  0  0  0  0  0  0  0  0
   -0.6361   -5.0286    6.0893 H   0  0  0  0  0  0  0  0  0  0  0  0
    0.9800   -3.5210    5.3575 H   0  0  0  0  0  0  0  0  0  0  0  0
   -1.0063   -2.7383    5.1436 H   0  0  0  0  0  0  0  0  0  0  0  0
    1.8851    0.0507    6.7239 H   0  0  0  0  0  0  0  0  0  0  0  0
   -1.3362   -0.1936    3.2621 H   0  0  0  0  0  0  0  0  0  0  0  0
   -0.0789    0.8235    2.5343 H   0  0  0  0  0  0  0  0  0  0  0  0
   -1.2207    1.5077    3.6903 H   0  0  0  0  0  0  0  0  0  0  0  0
    1.3891    1.8533    4.3047 H   0  0  0  0  0  0  0  0  0  0  0  0
    0.8082   -1.5279    2.6587 H   0  0  0  0  0  0  0  0  0  0  0  0
    2.7255   -0.2578    3.0618 H   0  0  0  0  0  0  0  0  0  0  0  0
    4.3631    1.7050    6.7495 H   0  0  0  0  0  0  0  0  0  0  0  0
    4.9791    2.8541    5.5548 H   0  0  0  0  0  0  0  0  0  0  0  0
    5.7425    1.2643    5.7236 H   0  0  0  0  0  0  0  0  0  0  0  0
    4.8350   -7.9568    5.0086 H   0  0  0  0  0  0  0  0  0  0  0  0
    3.6677   -7.0459    4.0406 H   0  0  0  0  0  0  0  0  0  0  0  0
    3.1314   -8.2849    5.1586 H   0  0  0  0  0  0  0  0  0  0  0  0
  1  2  1  0
  1 53  1  0
  1 54  1  0
  1 55  1  0
  2  3  1  0
  2 56  1  0
  2 57  1  0
  3  4  1  0
  3 58  1  0
  3 59  1  0
  4  5  1  0
  4 60  1  0
  4 61  1  0
  5  6  1  0
  5 62  1  0
  5 63  1  0
  6  7  2  0
  6  8  1  0
  8 42  1  0
  8  9  1  0
  8 64  1  1
  9 10  1  0
 10 47  1  0
 10 11  1  0
 10 65  1  6
 51 11  1  1
 11 12  1  0
 11 66  1  6
 12 13  2  0
 12 67  1  0
 13 14  1  0
 13 15  1  0
 14 68  1  0
 14 69  1  0
 14 70  1  0
 15 16  1  0
 15 51  1  0
 15 71  1  1
 16 49  1  0
 16 17  1  0
 16 72  1  1
 17 18  1  0
 17 19  1  0
 17 73  1  1
 18 74  1  0
 19 20  1  0
 19 21  1  0
 19 75  1  1
 20 76  1  0
 21 22  1  6
 21 23  1  0
 21 47  1  0
 22 77  1  0
 23 29  1  0
 23 24  1  1
 23 31  1  0
 24 25  1  0
 25 26  2  0
 25 27  1  0
 27 28  1  0
 27 29  1  0
 27 78  1  1
 28 79  1  0
 29 30  1  0
 29 80  1  1
 30 81  1  0
 31 32  1  0
 31 33  1  0
 31 82  1  6
 32 83  1  0
 33 40  1  0
 33 34  1  1
 33 35  1  0
 34 84  1  0
 35 36  2  0
 35 37  1  0
 37 38  1  0
 37 39  1  1
 37 40  1  0
 38 85  1  0
 38 86  1  0
 38 87  1  0
 39 88  1  0
 40 41  1  6
 40 42  1  0
 41 89  1  0
 42 43  1  0
 42 90  1  6
 43 44  1  0
 44 45  1  0
 44 46  2  0
 45 91  1  0
 45 92  1  0
 45 93  1  0
 47 49  1  0
 47 48  1  6
 48 49  1  0
 49 50  1  6
 50 94  1  0
 50 95  1  0
 50 96  1  0
 51 52  2  0
M  END
>  <i_m_ct_stereo_status>  (17) 
1

>  <s_m_source_file>  (17) 
/var/tmp/pbs.5075288.sched01/tmpg6npxhsy/83n53gbz8q.sdf

>  <i_m_source_file_index>  (17) 
48

>  <i_lp_mmshare_version>  (17) 
48012

>  <i_f3d_flags>  (17) 
0

>  <s_epik_input>  (17) 
W0NIM11bQ0gyXVtDSDJdW0NIMl1bQ0gyXUMoPU8pW0NAQEhdKFtDQEhdKE9DKD1PKVtDSDNdKVtDQEBdMShbT0hdKVtDQF0oW09IXSkoW0NAQEhdMltPSF0pQyg9TylbQ0BAXTEoW0NIM10pW09IXSlPW0NAQEhdKFtDQEhdM1tDSF09QyhbQ0gzXSlbQ0BIXShbUytdM1tPLV0pW0NASF0oW0NAXTQoTzUpW0NIM10pW0NAQEhdKFtPSF0pW0NASF02W09IXSlbQ0BdNDVbQ0BAXTYoW09IXSlbQ0BAXTI3T0MoPU8pW0NAQEhdKFtPSF0pW0NASF03W09IXQ==

>  <s_epik_cmdline>  (17) 
J2VwaWtfcHl0aG9uJywgJy1waHQnLCAnMi4wJywgJy1waCcsICc3LjAnLCAnLXRuJywgJzgnLCAnLW1hJywgJzIwMCcsICctaW1hZScsICc8aW5maWxlLm1hZT4nLCAnLW9tYWUnLCAnPG91dGZpbGUubWFlPic=

>  <r_lp_tautomer_probability>  (17) 
1

>  <r_epik_Ionization_Penalty>  (17) 
0.00346819

>  <r_epik_Ionization_Penalty_Charging>  (17) 
0

>  <r_epik_Ionization_Penalty_Neutral>  (17) 
0.00346819

>  <r_epik_State_Penalty>  (17) 
-0

>  <r_epik_Charging_Adjusted_Penalty>  (17) 
0

>  <i_epik_Tot_Q>  (17) 
0

>  <i_epik_Tot_abs_Q>  (17) 
2

>  <s_epik_Chemistry_Notes>  (17) 
This compound has an ester and may undergo hydrolysis at high or low pH.

>  <s_lp_Force_Field>  (17) 
OPLS3e

>  <r_lp_Energy>  (17) 
102.351

>  <b_lp_Chiralities_Consistent>  (17) 
1

>  <s_lp_Variant>  (17) 
21:0-1

>  <s_i_glide_gridfile>  (17) 
pfpi4k_grid

>  <i_i_glide_lignum>  (17) 
48

>  <i_i_glide_rotatable_bonds>  (17) 
16

>  <r_i_docking_score>  (17) 
-4.58004

>  <r_i_glide_ligand_efficiency>  (17) 
-0.0880776

>  <r_i_glide_ligand_efficiency_sa>  (17) 
-0.328751

>  <r_i_glide_ligand_efficiency_ln>  (17) 
-0.925027

>  <r_i_glide_gscore>  (17) 
-4.58004

>  <r_i_glide_lipo>  (17) 
-0.0757457

>  <r_i_glide_hbond>  (17) 
-0.287979

>  <r_i_glide_metal>  (17) 
-0

>  <r_i_glide_rewards>  (17) 
-2.00392

>  <r_i_glide_evdw>  (17) 
-25.6706

>  <r_i_glide_ecoul>  (17) 
-6.85243

>  <r_i_glide_erotb>  (17) 
0.187072

>  <r_i_glide_esite>  (17) 
-0.0880666

>  <r_i_glide_emodel>  (17) 
-58.3299

>  <r_i_glide_energy>  (17) 
-32.523

>  <r_i_glide_einternal>  (17) 
10.7371

>  <r_i_glide_intrahb_reward>  (17) 
-2

>  <i_i_glide_confnum>  (17) 
1

>  <i_i_glide_posenum>  (17) 
23

>  <r_i_glide_eff_state_penalty>  (17) 
0

>  <ligand_id>  (17) 
21

>  <original_smiles>  (17) 
CCCCCC(=O)C1OC2C3C=C(C)C(C4C(O)C(O)C(O)(C5(OC(=O)C(O)C5O)C(O)C5(O)C(=O)C(C)(O)C5(O)C1OC(C)=O)C21OC41C)[S+]3[O-]

>  <smiles>  (17) 
[H]OC1([H])C(=O)OC2(C1([H])O[H])C([H])(O[H])C1(O[H])C(=O)C(O[H])(C([H])([H])[H])C1(O[H])C([H])(OC(=O)C([H])([H])[H])C([H])(C(=O)C([H])([H])C([H])([H])C([H])([H])C([H])([H])C([H])([H])[H])OC1([H])C3([H])C([H])=C(C([H])([H])[H])C([H])(S3=O)C3([H])C([H])(O[H])C([H])(O[H])C2(O[H])C12OC32C([H])([H])[H]

$$$$
21:0:2
     RDKit          3D

 96102  0  0  1  0  0  0  0  0999 V2000
    5.0088   -3.5962   -3.7054 C   0  0  0  0  0  0  0  0  0  0  0  0
    4.2529   -2.2893   -3.4280 C   0  0  0  0  0  0  0  0  0  0  0  0
    4.4296   -1.7833   -1.9861 C   0  0  0  0  0  0  0  0  0  0  0  0
    3.7840   -2.7027   -0.9325 C   0  0  0  0  0  0  0  0  0  0  0  0
    4.1127   -2.2654    0.4986 C   0  0  0  0  0  0  0  0  0  0  0  0
    3.4504   -3.1204    1.5851 C   0  0  0  0  0  0  0  0  0  0  0  0
    2.6716   -4.0427    1.3141 O   0  0  0  0  0  0  0  0  0  0  0  0
    3.7925   -2.7261    3.0357 C   0  0  2  0  0  0  0  0  0  0  0  0
    3.2643   -3.6123    4.0126 O   0  0  0  0  0  0  0  0  0  0  0  0
    3.6852   -4.9701    4.1076 C   0  0  1  0  0  0  0  0  0  0  0  0
    5.2597   -5.1544    4.1944 C   0  0  1  0  0  0  0  0  0  0  0  0
    5.8838   -4.7720    5.4997 C   0  0  0  0  0  0  0  0  0  0  0  0
    6.0098   -5.7821    6.4205 C   0  0  0  0  0  0  0  0  0  0  0  0
    6.7952   -5.6389    7.6945 C   0  0  0  0  0  0  0  0  0  0  0  0
    5.5217   -7.1310    5.9406 C   0  0  1  0  0  0  0  0  0  0  0  0
    4.0273   -7.5833    6.2689 C   0  0  1  0  0  0  0  0  0  0  0  0
    3.4450   -7.1888    7.6506 C   0  0  1  0  0  0  0  0  0  0  0  0
    4.2159   -7.7752    8.6795 O   0  0  0  0  0  0  0  0  0  0  0  0
    3.0969   -5.6834    7.9080 C   0  0  1  0  0  0  0  0  0  0  0  0
    4.0205   -5.0640    8.7922 O   0  0  0  0  0  0  0  0  0  0  0  0
    2.6971   -4.7956    6.6361 C   0  0  2  0  0  0  0  0  0  0  0  0
    3.5688   -3.6961    6.5909 O   0  0  0  0  0  0  0  0  0  0  0  0
    1.2432   -4.1106    6.7815 C   0  0  2  0  0  0  0  0  0  0  0  0
    1.2481   -3.3628    7.9913 O   0  0  0  0  0  0  0  0  0  0  0  0
    0.1452   -3.4302    8.7431 C   0  0  0  0  0  0  0  0  0  0  0  0
   -0.1290   -2.7574    9.7146 O   0  0  0  0  0  0  0  0  0  0  0  0
   -0.7668   -4.5182    8.1882 C   0  0  1  0  0  0  0  0  0  0  0  0
   -1.9074   -3.9205    7.6222 O   0  0  0  0  0  0  0  0  0  0  0  0
    0.1103   -5.1421    7.1126 C   0  0  1  0  0  0  0  0  0  0  0  0
   -0.5939   -5.6869    6.0074 O   0  0  0  0  0  0  0  0  0  0  0  0
    0.8158   -3.0844    5.6149 C   0  0  1  0  0  0  0  0  0  0  0  0
   -0.5525   -2.9754    5.4847 O   0  0  0  0  0  0  0  0  0  0  0  0
    1.4846   -1.6483    5.4439 C   0  0  2  0  0  0  0  0  0  0  0  0
    2.3968   -1.3112    6.4595 O   0  0  0  0  0  0  0  0  0  0  0  0
    0.5370   -0.4005    5.4422 C   0  0  0  0  0  0  0  0  0  0  0  0
   -0.4322   -0.0588    6.1318 O   0  0  0  0  0  0  0  0  0  0  0  0
    1.2327    0.2153    4.2061 C   0  0  1  0  0  0  0  0  0  0  0  0
    0.2798    0.8384    3.1629 C   0  0  0  0  0  0  0  0  0  0  0  0
    2.0942    1.2460    4.6244 O   0  0  0  0  0  0  0  0  0  0  0  0
    1.8213   -1.2153    3.9471 C   0  0  2  0  0  0  0  0  0  0  0  0
    1.0481   -1.9054    2.9893 O   0  0  0  0  0  0  0  0  0  0  0  0
    3.2824   -1.3022    3.4133 C   0  0  1  0  0  0  0  0  0  0  0  0
    4.1822   -0.7793    4.3759 O   0  0  0  0  0  0  0  0  0  0  0  0
    5.3480   -0.2535    4.0042 C   0  0  0  0  0  0  0  0  0  0  0  0
    6.1021    0.3599    5.1723 C   0  0  0  0  0  0  0  0  0  0  0  0
    5.7876   -0.2549    2.8532 O   0  0  0  0  0  0  0  0  0  0  0  0
    2.9115   -5.6251    5.3028 C   0  0  1  0  0  0  0  0  0  0  0  0
    1.8138   -6.4960    5.2480 O   0  0  0  0  0  0  0  0  0  0  0  0
    3.0557   -7.1439    5.1710 C   0  0  2  0  0  0  0  0  0  0  0  0
    2.9437   -8.1206    3.9702 C   0  0  0  0  0  0  0  0  0  0  0  0
    5.7499   -6.9480    4.0920 S   0  0  0  0  0  0  0  0  0  0  0  0
    7.2367   -7.0093    3.8167 O   0  0  0  0  0  0  0  0  0  0  0  0
    4.8826   -3.9164   -4.7388 H   0  0  0  0  0  0  0  0  0  0  0  0
    4.6606   -4.4146   -3.0766 H   0  0  0  0  0  0  0  0  0  0  0  0
    6.0781   -3.4669   -3.5222 H   0  0  0  0  0  0  0  0  0  0  0  0
    4.6138   -1.5218   -4.1153 H   0  0  0  0  0  0  0  0  0  0  0  0
    3.1920   -2.4208   -3.6465 H   0  0  0  0  0  0  0  0  0  0  0  0
    5.4920   -1.6566   -1.7756 H   0  0  0  0  0  0  0  0  0  0  0  0
    3.9883   -0.7873   -1.9058 H   0  0  0  0  0  0  0  0  0  0  0  0
    2.7029   -2.7099   -1.0848 H   0  0  0  0  0  0  0  0  0  0  0  0
    4.1244   -3.7301   -1.0559 H   0  0  0  0  0  0  0  0  0  0  0  0
    5.1917   -2.2959    0.6583 H   0  0  0  0  0  0  0  0  0  0  0  0
    3.8098   -1.2257    0.6263 H   0  0  0  0  0  0  0  0  0  0  0  0
    4.8806   -2.7570    3.1146 H   0  0  0  0  0  0  0  0  0  0  0  0
    3.3620   -5.4751    3.1942 H   0  0  0  0  0  0  0  0  0  0  0  0
    5.7731   -4.6635    3.3651 H   0  0  0  0  0  0  0  0  0  0  0  0
    6.2568   -3.7886    5.6577 H   0  0  0  0  0  0  0  0  0  0  0  0
    6.2972   -6.0892    8.5552 H   0  0  0  0  0  0  0  0  0  0  0  0
    6.9967   -4.5928    7.9254 H   0  0  0  0  0  0  0  0  0  0  0  0
    7.7551   -6.1449    7.5851 H   0  0  0  0  0  0  0  0  0  0  0  0
    6.2139   -7.8977    6.3020 H   0  0  0  0  0  0  0  0  0  0  0  0
    4.0269   -8.6761    6.2407 H   0  0  0  0  0  0  0  0  0  0  0  0
    2.4916   -7.7142    7.7059 H   0  0  0  0  0  0  0  0  0  0  0  0
    5.0713   -7.3609    8.6908 H   0  0  0  0  0  0  0  0  0  0  0  0
    2.2428   -5.7158    8.5752 H   0  0  0  0  0  0  0  0  0  0  0  0
    4.8470   -4.9297    8.3384 H   0  0  0  0  0  0  0  0  0  0  0  0
    3.5614   -3.3477    5.6929 H   0  0  0  0  0  0  0  0  0  0  0  0
   -1.0102   -5.2556    8.9618 H   0  0  0  0  0  0  0  0  0  0  0  0
   -2.3857   -4.6008    7.1426 H   0  0  0  0  0  0  0  0  0  0  0  0
    0.5454   -6.0192    7.5755 H   0  0  0  0  0  0  0  0  0  0  0  0
    0.0506   -6.1378    5.4591 H   0  0  0  0  0  0  0  0  0  0  0  0
    1.0197   -3.6551    4.7149 H   0  0  0  0  0  0  0  0  0  0  0  0
   -0.7294   -2.5122    4.6429 H   0  0  0  0  0  0  0  0  0  0  0  0
    3.0229   -2.0318    6.5667 H   0  0  0  0  0  0  0  0  0  0  0  0
   -0.5901    0.2107    2.9619 H   0  0  0  0  0  0  0  0  0  0  0  0
    0.8040    0.9931    2.2129 H   0  0  0  0  0  0  0  0  0  0  0  0
   -0.0875    1.8150    3.4949 H   0  0  0  0  0  0  0  0  0  0  0  0
    2.5459    1.5620    3.8493 H   0  0  0  0  0  0  0  0  0  0  0  0
    1.1392   -1.4439    2.1578 H   0  0  0  0  0  0  0  0  0  0  0  0
    3.3515   -0.6725    2.5221 H   0  0  0  0  0  0  0  0  0  0  0  0
    5.4917    1.1179    5.6698 H   0  0  0  0  0  0  0  0  0  0  0  0
    7.0219    0.8263    4.8246 H   0  0  0  0  0  0  0  0  0  0  0  0
    6.3531   -0.4096    5.9039 H   0  0  0  0  0  0  0  0  0  0  0  0
    3.7924   -8.7977    3.8593 H   0  0  0  0  0  0  0  0  0  0  0  0
    2.8036   -7.5903    3.0236 H   0  0  0  0  0  0  0  0  0  0  0  0
    2.0695   -8.7538    4.1144 H   0  0  0  0  0  0  0  0  0  0  0  0
  1  2  1  0
  1 53  1  0
  1 54  1  0
  1 55  1  0
  2  3  1  0
  2 56  1  0
  2 57  1  0
  3  4  1  0
  3 58  1  0
  3 59  1  0
  4  5  1  0
  4 60  1  0
  4 61  1  0
  5  6  1  0
  5 62  1  0
  5 63  1  0
  6  7  2  0
  6  8  1  0
  8 42  1  0
  8  9  1  0
  8 64  1  6
  9 10  1  0
 10 47  1  0
 10 11  1  0
 10 65  1  6
 51 11  1  1
 11 12  1  0
 11 66  1  6
 12 13  2  0
 12 67  1  0
 13 14  1  0
 13 15  1  0
 14 68  1  0
 14 69  1  0
 14 70  1  0
 15 16  1  0
 15 51  1  0
 15 71  1  1
 16 49  1  0
 16 17  1  0
 16 72  1  1
 17 18  1  0
 17 19  1  0
 17 73  1  6
 18 74  1  0
 19 20  1  0
 19 21  1  0
 19 75  1  1
 20 76  1  0
 21 22  1  6
 21 23  1  0
 21 47  1  0
 22 77  1  0
 23 29  1  0
 23 24  1  1
 23 31  1  0
 24 25  1  0
 25 26  2  0
 25 27  1  0
 27 28  1  0
 27 29  1  0
 27 78  1  1
 28 79  1  0
 29 30  1  0
 29 80  1  1
 30 81  1  0
 31 32  1  0
 31 33  1  0
 31 82  1  6
 32 83  1  0
 33 40  1  0
 33 34  1  1
 33 35  1  0
 34 84  1  0
 35 36  2  0
 35 37  1  0
 37 38  1  0
 37 39  1  1
 37 40  1  0
 38 85  1  0
 38 86  1  0
 38 87  1  0
 39 88  1  0
 40 41  1  6
 40 42  1  0
 41 89  1  0
 42 43  1  0
 42 90  1  6
 43 44  1  0
 44 45  1  0
 44 46  2  0
 45 91  1  0
 45 92  1  0
 45 93  1  0
 47 49  1  0
 47 48  1  6
 48 49  1  0
 49 50  1  6
 50 94  1  0
 50 95  1  0
 50 96  1  0
 51 52  2  0
M  END
>  <i_m_ct_stereo_status>  (18) 
1

>  <s_m_source_file>  (18) 
/var/tmp/pbs.5075288.sched01/tmpg6npxhsy/83n53gbz8q.sdf

>  <i_m_source_file_index>  (18) 
48

>  <i_lp_mmshare_version>  (18) 
48012

>  <i_f3d_flags>  (18) 
0

>  <s_epik_input>  (18) 
W0NIM11bQ0gyXVtDSDJdW0NIMl1bQ0gyXUMoPU8pW0NAQEhdKFtDQEhdKE9DKD1PKVtDSDNdKVtDQEBdMShbT0hdKVtDQF0oW09IXSkoW0NAQEhdMltPSF0pQyg9TylbQ0BAXTEoW0NIM10pW09IXSlPW0NAQEhdKFtDQEhdM1tDSF09QyhbQ0gzXSlbQ0BIXShbUytdM1tPLV0pW0NASF0oW0NAXTQoTzUpW0NIM10pW0NAQEhdKFtPSF0pW0NASF02W09IXSlbQ0BdNDVbQ0BAXTYoW09IXSlbQ0BAXTI3T0MoPU8pW0NAQEhdKFtPSF0pW0NASF03W09IXQ==

>  <s_epik_cmdline>  (18) 
J2VwaWtfcHl0aG9uJywgJy1waHQnLCAnMi4wJywgJy1waCcsICc3LjAnLCAnLXRuJywgJzgnLCAnLW1hJywgJzIwMCcsICctaW1hZScsICc8aW5maWxlLm1hZT4nLCAnLW9tYWUnLCAnPG91dGZpbGUubWFlPic=

>  <r_lp_tautomer_probability>  (18) 
1

>  <r_epik_Ionization_Penalty>  (18) 
0.00346819

>  <r_epik_Ionization_Penalty_Charging>  (18) 
0

>  <r_epik_Ionization_Penalty_Neutral>  (18) 
0.00346819

>  <r_epik_State_Penalty>  (18) 
-0

>  <r_epik_Charging_Adjusted_Penalty>  (18) 
0

>  <i_epik_Tot_Q>  (18) 
0

>  <i_epik_Tot_abs_Q>  (18) 
2

>  <s_epik_Chemistry_Notes>  (18) 
This compound has an ester and may undergo hydrolysis at high or low pH.

>  <s_lp_Force_Field>  (18) 
OPLS3e

>  <r_lp_Energy>  (18) 
102.351

>  <b_lp_Chiralities_Consistent>  (18) 
1

>  <s_lp_Variant>  (18) 
21:0-1

>  <s_i_glide_gridfile>  (18) 
pfpi4k_grid

>  <i_i_glide_lignum>  (18) 
48

>  <i_i_glide_rotatable_bonds>  (18) 
16

>  <r_i_docking_score>  (18) 
-4.24256

>  <r_i_glide_ligand_efficiency>  (18) 
-0.0815876

>  <r_i_glide_ligand_efficiency_sa>  (18) 
-0.304527

>  <r_i_glide_ligand_efficiency_ln>  (18) 
-0.856867

>  <r_i_glide_gscore>  (18) 
-4.24256

>  <r_i_glide_lipo>  (18) 
-0.461132

>  <r_i_glide_hbond>  (18) 
-0.218854

>  <r_i_glide_metal>  (18) 
-0

>  <r_i_glide_rewards>  (18) 
-1.13424

>  <r_i_glide_evdw>  (18) 
-30.7346

>  <r_i_glide_ecoul>  (18) 
-6.94323

>  <r_i_glide_erotb>  (18) 
0.187072

>  <r_i_glide_esite>  (18) 
-0.0371841

>  <r_i_glide_emodel>  (18) 
-56.306

>  <r_i_glide_energy>  (18) 
-37.6778

>  <r_i_glide_einternal>  (18) 
4.28953

>  <r_i_glide_intrahb_reward>  (18) 
-1

>  <i_i_glide_confnum>  (18) 
1

>  <i_i_glide_posenum>  (18) 
11

>  <r_i_glide_eff_state_penalty>  (18) 
0

>  <ligand_id>  (18) 
21

>  <original_smiles>  (18) 
CCCCCC(=O)C1OC2C3C=C(C)C(C4C(O)C(O)C(O)(C5(OC(=O)C(O)C5O)C(O)C5(O)C(=O)C(C)(O)C5(O)C1OC(C)=O)C21OC41C)[S+]3[O-]

>  <smiles>  (18) 
[H]OC1([H])C(=O)OC2(C1([H])O[H])C([H])(O[H])C1(O[H])C(=O)C(O[H])(C([H])([H])[H])C1(O[H])C([H])(OC(=O)C([H])([H])[H])C([H])(C(=O)C([H])([H])C([H])([H])C([H])([H])C([H])([H])C([H])([H])[H])OC1([H])C3([H])C([H])=C(C([H])([H])[H])C([H])(S3=O)C3([H])C([H])(O[H])C([H])(O[H])C2(O[H])C12OC32C([H])([H])[H]

$$$$
24:0:0
     RDKit          3D

107113  0  0  1  0  0  0  0  0999 V2000
    5.3758   -9.5818    4.8769 C   0  0  0  0  0  0  0  0  0  0  0  0
    5.4250   -8.2937    4.4477 C   0  0  0  0  0  0  0  0  0  0  0  0
    5.7494   -7.1502    5.4789 C   0  0  2  0  0  0  0  0  0  0  0  0
    6.9937   -7.4870    6.0878 O   0  0  0  0  0  0  0  0  0  0  0  0
    4.7216   -7.2546    6.6077 C   0  0  1  0  0  0  0  0  0  0  0  0
    4.9242   -6.6237    7.8518 O   0  0  0  0  0  0  0  0  0  0  0  0
    3.3001   -7.1272    6.0527 C   0  0  1  0  0  0  0  0  0  0  0  0
    2.6684   -7.9565    7.0316 O   0  0  0  0  0  0  0  0  0  0  0  0
    2.5349   -5.8757    5.4436 C   0  0  2  0  0  0  0  0  0  0  0  0
    1.0635   -6.1298    6.1220 C   0  0  1  0  0  0  0  0  0  0  0  0
    0.1200   -7.3782    5.7697 C   0  0  0  0  0  0  0  0  0  0  0  0
    0.5890   -8.8484    5.3212 C   0  0  1  0  0  0  0  0  0  0  0  0
   -0.2920   -9.2751    4.3576 O   0  0  0  0  0  0  0  0  0  0  0  0
    0.4645  -10.0584    3.4765 C   0  0  0  0  0  0  0  0  0  0  0  0
    0.5630  -11.5002    4.0452 C   0  0  0  0  0  0  0  0  0  0  0  0
   -0.3294  -10.1104    2.1738 C   0  0  0  0  0  0  0  0  0  0  0  0
    1.9124   -9.3929    3.4735 C   0  0  2  0  0  0  0  0  0  0  0  0
    2.8750  -10.3967    3.2421 O   0  0  0  0  0  0  0  0  0  0  0  0
    1.8914   -8.9832    4.7935 O   0  0  0  0  0  0  0  0  0  0  0  0
    2.3115   -8.1347    2.5417 C   0  0  1  0  0  0  0  0  0  0  0  0
    1.7642   -8.4211    1.2852 O   0  0  0  0  0  0  0  0  0  0  0  0
    1.4065   -6.9221    3.0041 C   0  0  2  0  0  0  0  0  0  0  0  0
    0.6362   -6.4396    1.8815 O   0  0  0  0  0  0  0  0  0  0  0  0
    2.1340   -5.7693    3.8007 C   0  0  1  0  0  0  0  0  0  0  0  0
    1.1796   -4.7096    3.7846 O   0  0  0  0  0  0  0  0  0  0  0  0
    3.0543   -5.2385    2.6426 C   0  0  1  0  0  0  0  0  0  0  0  0
    3.5279   -3.9149    2.6958 O   0  0  0  0  0  0  0  0  0  0  0  0
    3.8241   -6.2245    1.7512 C   0  0  0  0  0  0  0  0  0  0  0  0
    4.2576   -5.7579    0.5432 C   0  0  0  0  0  0  0  0  0  0  0  0
    3.9044   -7.7232    2.1522 C   0  0  2  0  0  0  0  0  0  0  0  0
    4.1727   -8.4254    0.9194 O   0  0  0  0  0  0  0  0  0  0  0  0
    5.3645   -8.0194    2.9356 C   0  0  2  0  0  0  0  0  0  0  0  0
    6.0577   -9.1416    2.3332 O   0  0  0  0  0  0  0  0  0  0  0  0
    6.4984   -6.9563    2.7497 C   0  0  1  0  0  0  0  0  0  0  0  0
    6.8985   -6.7394    1.4123 O   0  0  0  0  0  0  0  0  0  0  0  0
    6.2848   -5.6018    3.4306 C   0  0  0  0  0  0  0  0  0  0  0  0
    5.8735   -5.6722    4.9330 C   0  0  1  0  0  0  0  0  0  0  0  0
    5.0526   -4.4559    5.6548 C   0  0  1  0  0  0  0  0  0  0  0  0
    5.7766   -4.1705    7.0441 C   0  0  0  0  0  0  0  0  0  0  0  0
    5.4878   -3.1387    4.8964 C   0  0  0  0  0  0  0  0  0  0  0  0
    4.8743   -1.7583    5.2472 C   0  0  0  0  0  0  0  0  0  0  0  0
    5.2550   -0.6294    4.2846 C   0  0  0  0  0  0  0  0  0  0  0  0
    4.8213   -0.7404    2.8249 C   0  0  0  0  0  0  0  0  0  0  0  0
    5.8532    0.3614    4.6912 O   0  0  0  0  0  0  0  0  0  0  0  0
    3.4026   -4.5262    5.8022 C   0  0  2  0  0  0  0  0  0  0  0  0
    2.9286   -3.6594    7.0293 C   0  0  0  0  0  0  0  0  0  0  0  0
    1.7448   -2.6763    6.8938 C   0  0  0  0  0  0  0  0  0  0  0  0
    0.2697   -3.1096    7.0790 C   0  0  1  0  0  0  0  0  0  0  0  0
   -0.4220   -3.2682    5.8411 O   0  0  0  0  0  0  0  0  0  0  0  0
   -0.7408   -2.0589    5.1536 C   0  0  0  0  0  0  0  0  0  0  0  0
   -0.0519   -4.2428    8.0952 C   0  0  0  0  0  0  0  0  0  0  0  0
    0.9699   -5.8023    7.9755 S   0  0  0  0  0  0  0  0  0  0  0  0
    0.1727   -6.8901    8.6827 O   0  0  0  0  0  0  0  0  0  0  0  0
    5.2346  -10.4119    4.2030 H   0  0  0  0  0  0  0  0  0  0  0  0
    5.5114   -9.8399    5.9141 H   0  0  0  0  0  0  0  0  0  0  0  0
    7.6691   -7.3945    5.4401 H   0  0  0  0  0  0  0  0  0  0  0  0
    4.8609   -8.2653    6.9862 H   0  0  0  0  0  0  0  0  0  0  0  0
    4.8513   -5.6977    7.7147 H   0  0  0  0  0  0  0  0  0  0  0  0
    3.3721   -7.6180    5.1253 H   0  0  0  0  0  0  0  0  0  0  0  0
    3.0058   -8.8317    6.9437 H   0  0  0  0  0  0  0  0  0  0  0  0
    0.4152   -5.3415    5.8020 H   0  0  0  0  0  0  0  0  0  0  0  0
   -0.5157   -7.5863    6.6227 H   0  0  0  0  0  0  0  0  0  0  0  0
   -0.6465   -7.0314    5.0761 H   0  0  0  0  0  0  0  0  0  0  0  0
    0.5137   -9.5493    6.1498 H   0  0  0  0  0  0  0  0  0  0  0  0
    1.0350  -12.1817    3.3361 H   0  0  0  0  0  0  0  0  0  0  0  0
   -0.4119  -11.9113    4.2085 H   0  0  0  0  0  0  0  0  0  0  0  0
    1.0742  -11.5507    5.0055 H   0  0  0  0  0  0  0  0  0  0  0  0
    0.2204  -10.7852    1.5443 H   0  0  0  0  0  0  0  0  0  0  0  0
   -0.5298   -9.1346    1.7254 H   0  0  0  0  0  0  0  0  0  0  0  0
   -1.3181  -10.5670    2.2666 H   0  0  0  0  0  0  0  0  0  0  0  0
    3.7146  -10.0598    3.4687 H   0  0  0  0  0  0  0  0  0  0  0  0
    1.9368   -9.3372    1.1054 H   0  0  0  0  0  0  0  0  0  0  0  0
    0.5236   -7.2813    3.4584 H   0  0  0  0  0  0  0  0  0  0  0  0
    0.6812   -7.1923    1.2972 H   0  0  0  0  0  0  0  0  0  0  0  0
    1.6533   -3.9251    3.9977 H   0  0  0  0  0  0  0  0  0  0  0  0
    2.3673   -4.9297    1.8494 H   0  0  0  0  0  0  0  0  0  0  0  0
    3.7963   -3.6716    1.8248 H   0  0  0  0  0  0  0  0  0  0  0  0
    4.1322   -4.7238    0.2638 H   0  0  0  0  0  0  0  0  0  0  0  0
    4.7601   -6.3913   -0.1723 H   0  0  0  0  0  0  0  0  0  0  0  0
    4.0916   -9.3513    1.0382 H   0  0  0  0  0  0  0  0  0  0  0  0
    5.4781   -9.8763    2.2539 H   0  0  0  0  0  0  0  0  0  0  0  0
    7.3859   -7.3774    3.2163 H   0  0  0  0  0  0  0  0  0  0  0  0
    7.2825   -7.5412    1.0944 H   0  0  0  0  0  0  0  0  0  0  0  0
    7.2436   -5.0861    3.3379 H   0  0  0  0  0  0  0  0  0  0  0  0
    5.6379   -5.0005    2.8305 H   0  0  0  0  0  0  0  0  0  0  0  0
    6.8806   -5.3998    5.2539 H   0  0  0  0  0  0  0  0  0  0  0  0
    6.1613   -3.1533    7.1491 H   0  0  0  0  0  0  0  0  0  0  0  0
    6.6521   -4.7951    7.2158 H   0  0  0  0  0  0  0  0  0  0  0  0
    5.1697   -4.2723    7.9377 H   0  0  0  0  0  0  0  0  0  0  0  0
    6.5575   -3.0406    5.0923 H   0  0  0  0  0  0  0  0  0  0  0  0
    5.4501   -3.2343    3.8285 H   0  0  0  0  0  0  0  0  0  0  0  0
    3.7871   -1.7858    5.2214 H   0  0  0  0  0  0  0  0  0  0  0  0
    5.1583   -1.4563    6.2548 H   0  0  0  0  0  0  0  0  0  0  0  0
    5.2801   -1.6005    2.3401 H   0  0  0  0  0  0  0  0  0  0  0  0
    5.1155    0.1462    2.2673 H   0  0  0  0  0  0  0  0  0  0  0  0
    3.7387   -0.8382    2.7529 H   0  0  0  0  0  0  0  0  0  0  0  0
    3.1036   -3.8456    5.0250 H   0  0  0  0  0  0  0  0  0  0  0  0
    2.9486   -4.1907    7.9732 H   0  0  0  0  0  0  0  0  0  0  0  0
    3.6962   -2.9159    7.2093 H   0  0  0  0  0  0  0  0  0  0  0  0
    1.9065   -1.9130    7.6571 H   0  0  0  0  0  0  0  0  0  0  0  0
    1.8617   -2.1336    5.9613 H   0  0  0  0  0  0  0  0  0  0  0  0
   -0.2324   -2.2572    7.5420 H   0  0  0  0  0  0  0  0  0  0  0  0
   -1.0218   -2.2888    4.1265 H   0  0  0  0  0  0  0  0  0  0  0  0
    0.0904   -1.3589    5.0844 H   0  0  0  0  0  0  0  0  0  0  0  0
   -1.5749   -1.5488    5.6396 H   0  0  0  0  0  0  0  0  0  0  0  0
    0.1105   -3.8773    9.1118 H   0  0  0  0  0  0  0  0  0  0  0  0
   -1.1069   -4.5129    8.0244 H   0  0  0  0  0  0  0  0  0  0  0  0
  1  2  2  0
  1 54  1  0
  1 55  1  0
  2 32  1  0
  2  3  1  0
  3 37  1  0
  3  4  1  1
  3  5  1  0
  4 56  1  0
  5  6  1  0
  5  7  1  0
  5 57  1  1
  6 58  1  0
  7  8  1  0
  7  9  1  0
  7 59  1  6
  8 60  1  0
  9 24  1  6
  9 45  1  0
  9 10  1  0
 10 52  1  0
 10 11  1  0
 10 61  1  6
 11 12  1  0
 11 62  1  0
 11 63  1  0
 12 19  1  0
 12 13  1  0
 12 64  1  1
 13 14  1  0
 14 15  1  0
 14 16  1  0
 14 17  1  0
 15 65  1  0
 15 66  1  0
 15 67  1  0
 16 68  1  0
 16 69  1  0
 16 70  1  0
 17 18  1  1
 17 19  1  0
 17 20  1  0
 18 71  1  0
 20 30  1  0
 20 21  1  6
 20 22  1  0
 21 72  1  0
 22 23  1  0
 22 24  1  0
 22 73  1  1
 23 74  1  0
 24 25  1  1
 24 26  1  0
 25 75  1  0
 26 27  1  0
 26 28  1  0
 26 76  1  6
 27 77  1  0
 28 29  2  0
 28 30  1  0
 29 78  1  0
 29 79  1  0
 30 31  1  6
 30 32  1  0
 31 80  1  0
 32 33  1  6
 32 34  1  0
 33 81  1  0
 34 35  1  0
 34 36  1  0
 34 82  1  1
 35 83  1  0
 36 37  1  0
 36 84  1  0
 36 85  1  0
 37 38  1  0
 37 86  1  1
 38 39  1  1
 38 40  1  0
 38 45  1  0
 39 87  1  0
 39 88  1  0
 39 89  1  0
 40 41  1  0
 40 90  1  0
 40 91  1  0
 41 42  1  0
 41 92  1  0
 41 93  1  0
 42 43  1  0
 42 44  2  0
 43 94  1  0
 43 95  1  0
 43 96  1  0
 45 46  1  0
 45 97  1  6
 46 47  1  0
 46 98  1  0
 46 99  1  0
 47 48  1  0
 47100  1  0
 47101  1  0
 48 49  1  0
 48 51  1  0
 48102  1  1
 49 50  1  0
 50103  1  0
 50104  1  0
 50105  1  0
 52 51  1  6
 51106  1  0
 51107  1  0
 52 53  2  0
M  END
>  <i_m_ct_stereo_status>  (19) 
1

>  <s_m_source_file>  (19) 
/var/tmp/pbs.5075288.sched01/tmpg6npxhsy/83n53gbz8q.sdf

>  <i_m_source_file_index>  (19) 
53

>  <i_lp_mmshare_version>  (19) 
48012

>  <i_f3d_flags>  (19) 
0

>  <s_epik_input>  (19) 
W08tXVtTK10xW0NIMl1bQ0BIXShPW0NIM10pW0NIMl1bQ0gyXVtDQEhdMltDQF0oW0NIM10pKFtDSDJdW0NIMl1DKD1PKVtDSDNdKVtDQEhdKFtDSDJdW0NAQEhdM1tPSF0pW0NAQF0oW09IXSkoW0NAQEhdKFtPSF0pW0NASF00W09IXSlDKD1bQ0gyXSlbQ0BAXTMoW09IXSlbQ0BdKFtPSF0pKEMoPVtDSDJdKVtDQEhdKFtPSF0pW0NAQF01KFtPSF0pW0NAQEhdNltPSF0pW0NAQF02KFtPSF0pW0NAXShPNykoW09IXSlDKFtDSDNdKShbQ0gzXSlPW0NAQEhdN1tDSDJdW0NAQEhdMVtDQEBdMjQ1

>  <s_epik_cmdline>  (19) 
J2VwaWtfcHl0aG9uJywgJy1waHQnLCAnMi4wJywgJy1waCcsICc3LjAnLCAnLXRuJywgJzgnLCAnLW1hJywgJzIwMCcsICctaW1hZScsICc8aW5maWxlLm1hZT4nLCAnLW9tYWUnLCAnPG91dGZpbGUubWFlPic=

>  <r_lp_tautomer_probability>  (19) 
1

>  <r_epik_Ionization_Penalty>  (19) 
7.14931e-06

>  <r_epik_Ionization_Penalty_Charging>  (19) 
0

>  <r_epik_Ionization_Penalty_Neutral>  (19) 
7.14931e-06

>  <r_epik_State_Penalty>  (19) 
-0

>  <r_epik_Charging_Adjusted_Penalty>  (19) 
0

>  <i_epik_Tot_Q>  (19) 
0

>  <i_epik_Tot_abs_Q>  (19) 
2

>  <s_epik_Chemistry_Notes>  (19) 
This compound contains an acetal/aminal-like group ( X-CH(R)-Y where X, Y are N, S, or O) that may be acid/base labile, releasing an aldehyde.

>  <s_lp_Force_Field>  (19) 
OPLS3e

>  <r_lp_Energy>  (19) 
378.45

>  <b_lp_Chiralities_Consistent>  (19) 
1

>  <s_lp_Variant>  (19) 
24:0-1

>  <s_i_glide_gridfile>  (19) 
pfpi4k_grid

>  <i_i_glide_lignum>  (19) 
53

>  <i_i_glide_rotatable_bonds>  (19) 
15

>  <r_i_docking_score>  (19) 
-2.93053

>  <r_i_glide_ligand_efficiency>  (19) 
-0.055293

>  <r_i_glide_ligand_efficiency_sa>  (19) 
-0.207696

>  <r_i_glide_ligand_efficiency_ln>  (19) 
-0.589609

>  <r_i_glide_gscore>  (19) 
-2.93053

>  <r_i_glide_lipo>  (19) 
-0.386779

>  <r_i_glide_hbond>  (19) 
-0.131398

>  <r_i_glide_metal>  (19) 
-0

>  <r_i_glide_rewards>  (19) 
-0.600266

>  <r_i_glide_evdw>  (19) 
-19.9546

>  <r_i_glide_ecoul>  (19) 
-5.56403

>  <r_i_glide_erotb>  (19) 
0.0722809

>  <r_i_glide_esite>  (19) 
-0.0520305

>  <r_i_glide_emodel>  (19) 
-27.649

>  <r_i_glide_energy>  (19) 
-25.5187

>  <r_i_glide_einternal>  (19) 
8.24673

>  <r_i_glide_intrahb_reward>  (19) 
-0.5

>  <i_i_glide_confnum>  (19) 
3

>  <i_i_glide_posenum>  (19) 
19

>  <r_i_glide_eff_state_penalty>  (19) 
0

>  <ligand_id>  (19) 
24

>  <original_smiles>  (19) 
C=C1C2(O)C(O)C(O)C34C5CC6OC(C)(C)C(O)(O6)C6(O)C(O)C3(O)C(O)C(=C)C6(O)C1(O)C(O)CC2C(C)(CCC(C)=O)C4CCC(OC)C[S+]5[O-]

>  <smiles>  (19) 
[H]OC1([H])C(=C([H])[H])C2(O[H])C3(O[H])C(=C([H])[H])C4(O[H])C([H])(O[H])C([H])(O[H])C56C([H])(S(=O)C([H])([H])C([H])(OC([H])([H])[H])C([H])([H])C([H])([H])C5([H])C(C([H])([H])[H])(C([H])([H])C([H])([H])C(=O)C([H])([H])[H])C4([H])C([H])([H])C3([H])O[H])C([H])([H])C3([H])OC(O[H])(C(C([H])([H])[H])(C([H])([H])[H])O3)C2(O[H])C([H])(O[H])C16O[H]

$$$$
24:1:0
     RDKit          3D

107113  0  0  1  0  0  0  0  0999 V2000
    3.7393    3.4423    4.5359 C   0  0  0  0  0  0  0  0  0  0  0  0
    2.4792    3.3543    5.0088 C   0  0  0  0  0  0  0  0  0  0  0  0
    2.2382    3.6320    6.5232 C   0  0  2  0  0  0  0  0  0  0  0  0
    2.8091    4.9127    6.7929 O   0  0  0  0  0  0  0  0  0  0  0  0
    3.1430    2.6701    7.2795 C   0  0  1  0  0  0  0  0  0  0  0  0
    3.4630    2.9415    8.6134 O   0  0  0  0  0  0  0  0  0  0  0  0
    2.8476    1.2095    6.9283 C   0  0  1  0  0  0  0  0  0  0  0  0
    4.1649    0.7026    7.2061 O   0  0  0  0  0  0  0  0  0  0  0  0
    1.5515    0.3305    7.2368 C   0  0  2  0  0  0  0  0  0  0  0  0
    2.3458   -1.0978    7.5538 C   0  0  2  0  0  0  0  0  0  0  0  0
    3.2164   -1.9341    6.4685 C   0  0  0  0  0  0  0  0  0  0  0  0
    4.0137   -1.3486    5.1902 C   0  0  1  0  0  0  0  0  0  0  0  0
    3.8777   -2.2578    4.1504 O   0  0  0  0  0  0  0  0  0  0  0  0
    3.7473   -1.4864    2.9728 C   0  0  0  0  0  0  0  0  0  0  0  0
    5.2192   -1.2850    2.5068 C   0  0  0  0  0  0  0  0  0  0  0  0
    3.0154   -2.3185    1.9054 C   0  0  0  0  0  0  0  0  0  0  0  0
    3.0870   -0.1076    3.4321 C   0  0  2  0  0  0  0  0  0  0  0  0
    3.5906    0.9246    2.6239 O   0  0  0  0  0  0  0  0  0  0  0  0
    3.6153   -0.0852    4.7103 O   0  0  0  0  0  0  0  0  0  0  0  0
    1.4987    0.1473    3.5509 C   0  0  1  0  0  0  0  0  0  0  0  0
    0.9476   -0.4832    2.3918 O   0  0  0  0  0  0  0  0  0  0  0  0
    0.9755   -0.7977    4.7060 C   0  0  2  0  0  0  0  0  0  0  0  0
    0.0138   -1.7673    4.2617 O   0  0  0  0  0  0  0  0  0  0  0  0
    0.4777   -0.0982    6.0239 C   0  0  1  0  0  0  0  0  0  0  0  0
   -0.2910   -1.1184    6.6305 O   0  0  0  0  0  0  0  0  0  0  0  0
   -0.7266    0.7102    5.4317 C   0  0  1  0  0  0  0  0  0  0  0  0
   -1.8734    0.9273    6.2277 O   0  0  0  0  0  0  0  0  0  0  0  0
   -0.5971    1.5035    4.1197 C   0  0  0  0  0  0  0  0  0  0  0  0
   -1.7126    1.8743    3.4738 C   0  0  0  0  0  0  0  0  0  0  0  0
    0.8162    1.6940    3.5157 C   0  0  2  0  0  0  0  0  0  0  0  0
    0.6892    1.9049    2.0910 O   0  0  0  0  0  0  0  0  0  0  0  0
    1.3410    3.2152    3.9853 C   0  0  2  0  0  0  0  0  0  0  0  0
    1.8534    3.9382    2.8479 O   0  0  0  0  0  0  0  0  0  0  0  0
    0.3037    4.2677    4.5158 C   0  0  1  0  0  0  0  0  0  0  0  0
   -0.7856    4.5699    3.6546 O   0  0  0  0  0  0  0  0  0  0  0  0
   -0.2766    3.9540    5.9151 C   0  0  0  0  0  0  0  0  0  0  0  0
    0.7576    3.6492    7.0413 C   0  0  1  0  0  0  0  0  0  0  0  0
    0.3069    2.7649    8.3136 C   0  0  1  0  0  0  0  0  0  0  0  0
    0.7222    3.6289    9.5578 C   0  0  0  0  0  0  0  0  0  0  0  0
   -1.2596    2.9955    8.4684 C   0  0  0  0  0  0  0  0  0  0  0  0
   -1.9911    2.4172    9.7069 C   0  0  0  0  0  0  0  0  0  0  0  0
   -2.4315    3.4431   10.7407 C   0  0  0  0  0  0  0  0  0  0  0  0
   -3.8585    3.3547   11.1861 C   0  0  0  0  0  0  0  0  0  0  0  0
   -1.6906    4.3035   11.2063 O   0  0  0  0  0  0  0  0  0  0  0  0
    0.8105    1.1678    8.4476 C   0  0  2  0  0  0  0  0  0  0  0  0
    1.5777    0.8765    9.8062 C   0  0  0  0  0  0  0  0  0  0  0  0
    0.8330    0.2010   10.9803 C   0  0  0  0  0  0  0  0  0  0  0  0
    0.8582   -1.3333   10.9743 C   0  0  1  0  0  0  0  0  0  0  0  0
    0.0120   -1.7709   12.0273 O   0  0  0  0  0  0  0  0  0  0  0  0
    0.5006   -1.5562   13.3434 C   0  0  0  0  0  0  0  0  0  0  0  0
    0.2055   -1.8831    9.7001 C   0  0  0  0  0  0  0  0  0  0  0  0
    1.4898   -2.4816    8.5038 S   0  0  0  0  0  0  0  0  0  0  0  0
    0.8273   -3.4681    7.5297 O   0  0  0  0  0  0  0  0  0  0  0  0
    3.9092    3.3655    3.4959 H   0  0  0  0  0  0  0  0  0  0  0  0
    4.6034    3.6491    5.1405 H   0  0  0  0  0  0  0  0  0  0  0  0
    2.3255    5.5531    6.2986 H   0  0  0  0  0  0  0  0  0  0  0  0
    4.1509    2.8930    6.9259 H   0  0  0  0  0  0  0  0  0  0  0  0
    3.7361    3.8438    8.6372 H   0  0  0  0  0  0  0  0  0  0  0  0
    2.6758    1.2695    5.8967 H   0  0  0  0  0  0  0  0  0  0  0  0
    4.7916    1.2320    6.7483 H   0  0  0  0  0  0  0  0  0  0  0  0
    3.0935   -0.9292    8.3147 H   0  0  0  0  0  0  0  0  0  0  0  0
    3.9891   -2.4447    7.0449 H   0  0  0  0  0  0  0  0  0  0  0  0
    2.6352   -2.7899    6.1203 H   0  0  0  0  0  0  0  0  0  0  0  0
    5.0835   -1.2812    5.4071 H   0  0  0  0  0  0  0  0  0  0  0  0
    5.2660   -0.7870    1.5372 H   0  0  0  0  0  0  0  0  0  0  0  0
    5.7332   -2.2431    2.3982 H   0  0  0  0  0  0  0  0  0  0  0  0
    5.8089   -0.6881    3.2075 H   0  0  0  0  0  0  0  0  0  0  0  0
    2.8663   -1.7481    0.9895 H   0  0  0  0  0  0  0  0  0  0  0  0
    2.0570   -2.6910    2.2597 H   0  0  0  0  0  0  0  0  0  0  0  0
    3.6116   -3.1914    1.6430 H   0  0  0  0  0  0  0  0  0  0  0  0
    3.3048    1.7577    2.9503 H   0  0  0  0  0  0  0  0  0  0  0  0
    1.1449    0.1027    1.6652 H   0  0  0  0  0  0  0  0  0  0  0  0
    1.6618   -1.5872    4.8211 H   0  0  0  0  0  0  0  0  0  0  0  0
    0.3033   -1.9855    3.3837 H   0  0  0  0  0  0  0  0  0  0  0  0
   -0.4666   -1.7146    5.9080 H   0  0  0  0  0  0  0  0  0  0  0  0
   -1.3209   -0.0368    4.9012 H   0  0  0  0  0  0  0  0  0  0  0  0
   -2.4166    1.5228    5.7452 H   0  0  0  0  0  0  0  0  0  0  0  0
   -2.6874    1.6956    3.9237 H   0  0  0  0  0  0  0  0  0  0  0  0
   -1.7059    2.3705    2.5134 H   0  0  0  0  0  0  0  0  0  0  0  0
    0.2463    2.7190    1.8919 H   0  0  0  0  0  0  0  0  0  0  0  0
    1.2088    4.1795    2.1948 H   0  0  0  0  0  0  0  0  0  0  0  0
    0.8364    5.2170    4.6204 H   0  0  0  0  0  0  0  0  0  0  0  0
   -0.4813    4.7329    2.7719 H   0  0  0  0  0  0  0  0  0  0  0  0
   -0.8408    4.8394    6.2109 H   0  0  0  0  0  0  0  0  0  0  0  0
   -1.0572    3.2128    5.8645 H   0  0  0  0  0  0  0  0  0  0  0  0
    0.7171    4.6491    7.4800 H   0  0  0  0  0  0  0  0  0  0  0  0
    0.4592    3.1401   10.4900 H   0  0  0  0  0  0  0  0  0  0  0  0
    0.2174    4.5924    9.5589 H   0  0  0  0  0  0  0  0  0  0  0  0
    1.7482    3.9403    9.6659 H   0  0  0  0  0  0  0  0  0  0  0  0
   -1.4452    4.0702    8.4384 H   0  0  0  0  0  0  0  0  0  0  0  0
   -1.8552    2.6566    7.6453 H   0  0  0  0  0  0  0  0  0  0  0  0
   -2.8645    1.8390    9.3574 H   0  0  0  0  0  0  0  0  0  0  0  0
   -1.3735    1.7009   10.2204 H   0  0  0  0  0  0  0  0  0  0  0  0
   -4.1281    2.4256   11.6318 H   0  0  0  0  0  0  0  0  0  0  0  0
   -4.5272    3.3625   10.3281 H   0  0  0  0  0  0  0  0  0  0  0  0
   -4.0551    4.0671   11.9954 H   0  0  0  0  0  0  0  0  0  0  0  0
   -0.1422    0.6656    8.5536 H   0  0  0  0  0  0  0  0  0  0  0  0
    2.4999    0.3415    9.6788 H   0  0  0  0  0  0  0  0  0  0  0  0
    2.0318    1.7586   10.2231 H   0  0  0  0  0  0  0  0  0  0  0  0
    1.3322    0.5702   11.8852 H   0  0  0  0  0  0  0  0  0  0  0  0
   -0.2145    0.4766   11.0974 H   0  0  0  0  0  0  0  0  0  0  0  0
    1.8613   -1.7409   11.1088 H   0  0  0  0  0  0  0  0  0  0  0  0
   -0.1550   -2.0396   14.0670 H   0  0  0  0  0  0  0  0  0  0  0  0
    0.5334   -0.5012   13.6171 H   0  0  0  0  0  0  0  0  0  0  0  0
    1.4972   -1.9829   13.4534 H   0  0  0  0  0  0  0  0  0  0  0  0
   -0.3374   -2.7905    9.9653 H   0  0  0  0  0  0  0  0  0  0  0  0
   -0.5494   -1.2378    9.2568 H   0  0  0  0  0  0  0  0  0  0  0  0
  1  2  2  0
  1 54  1  0
  1 55  1  0
  2 32  1  0
  2  3  1  0
  3 37  1  0
  3  4  1  6
  3  5  1  0
  4 56  1  0
  5  6  1  0
  5  7  1  0
  5 57  1  6
  6 58  1  0
  7  8  1  0
  7  9  1  0
  7 59  1  6
  8 60  1  0
  9 24  1  6
  9 45  1  0
  9 10  1  0
 10 52  1  0
 10 11  1  0
 10 61  1  1
 11 12  1  0
 11 62  1  0
 11 63  1  0
 12 19  1  0
 12 13  1  0
 12 64  1  1
 13 14  1  0
 14 15  1  0
 14 16  1  0
 14 17  1  0
 15 65  1  0
 15 66  1  0
 15 67  1  0
 16 68  1  0
 16 69  1  0
 16 70  1  0
 17 18  1  6
 17 19  1  0
 17 20  1  0
 18 71  1  0
 20 30  1  0
 20 21  1  6
 20 22  1  0
 21 72  1  0
 22 23  1  0
 22 24  1  0
 22 73  1  1
 23 74  1  0
 24 25  1  1
 24 26  1  0
 25 75  1  0
 26 27  1  0
 26 28  1  0
 26 76  1  6
 27 77  1  0
 28 29  2  0
 28 30  1  0
 29 78  1  0
 29 79  1  0
 30 31  1  6
 30 32  1  0
 31 80  1  0
 32 33  1  6
 32 34  1  0
 33 81  1  0
 34 35  1  0
 34 36  1  0
 34 82  1  1
 35 83  1  0
 36 37  1  0
 36 84  1  0
 36 85  1  0
 37 38  1  0
 37 86  1  1
 38 39  1  1
 38 40  1  0
 38 45  1  0
 39 87  1  0
 39 88  1  0
 39 89  1  0
 40 41  1  0
 40 90  1  0
 40 91  1  0
 41 42  1  0
 41 92  1  0
 41 93  1  0
 42 43  1  0
 42 44  2  0
 43 94  1  0
 43 95  1  0
 43 96  1  0
 45 46  1  0
 45 97  1  1
 46 47  1  0
 46 98  1  0
 46 99  1  0
 47 48  1  0
 47100  1  0
 47101  1  0
 48 49  1  0
 48 51  1  0
 48102  1  1
 49 50  1  0
 50103  1  0
 50104  1  0
 50105  1  0
 52 51  1  1
 51106  1  0
 51107  1  0
 52 53  2  0
M  END
>  <i_m_ct_stereo_status>  (20) 
1

>  <s_m_source_file>  (20) 
/var/tmp/pbs.5075288.sched01/tmpg6npxhsy/83n53gbz8q.sdf

>  <i_m_source_file_index>  (20) 
54

>  <i_lp_mmshare_version>  (20) 
48012

>  <i_f3d_flags>  (20) 
0

>  <s_epik_input>  (20) 
W08tXVtTK10xW0NIMl1bQ0BIXShPW0NIM10pW0NIMl1bQ0gyXVtDQEhdMltDQF0oW0NIM10pKFtDSDJdW0NIMl1DKD1PKVtDSDNdKVtDQEhdKFtDSDJdW0NAQEhdM1tPSF0pW0NAQF0oW09IXSkoW0NAQEhdKFtPSF0pW0NASF00W09IXSlDKD1bQ0gyXSlbQ0BAXTMoW09IXSlbQ0BdKFtPSF0pKEMoPVtDSDJdKVtDQEhdKFtPSF0pW0NAQF01KFtPSF0pW0NAQEhdNltPSF0pW0NAQF02KFtPSF0pW0NAXShPNykoW09IXSlDKFtDSDNdKShbQ0gzXSlPW0NAQEhdN1tDSDJdW0NAQEhdMVtDQEBdMjQ1

>  <s_epik_cmdline>  (20) 
J2VwaWtfcHl0aG9uJywgJy1waHQnLCAnMi4wJywgJy1waCcsICc3LjAnLCAnLXRuJywgJzgnLCAnLW1hJywgJzIwMCcsICctaW1hZScsICc8aW5maWxlLm1hZT4nLCAnLW9tYWUnLCAnPG91dGZpbGUubWFlPic=

>  <r_lp_tautomer_probability>  (20) 
1

>  <r_epik_Ionization_Penalty>  (20) 
7.14931e-06

>  <r_epik_Ionization_Penalty_Charging>  (20) 
0

>  <r_epik_Ionization_Penalty_Neutral>  (20) 
7.14931e-06

>  <r_epik_State_Penalty>  (20) 
-0

>  <r_epik_Charging_Adjusted_Penalty>  (20) 
0

>  <i_epik_Tot_Q>  (20) 
0

>  <i_epik_Tot_abs_Q>  (20) 
2

>  <s_epik_Chemistry_Notes>  (20) 
This compound contains an acetal/aminal-like group ( X-CH(R)-Y where X, Y are N, S, or O) that may be acid/base labile, releasing an aldehyde.

>  <s_lp_Force_Field>  (20) 
OPLS3e

>  <r_lp_Energy>  (20) 
384.361

>  <b_lp_Chiralities_Consistent>  (20) 
1

>  <s_lp_Variant>  (20) 
24:0-2

>  <s_i_glide_gridfile>  (20) 
pfpi4k_grid

>  <i_i_glide_lignum>  (20) 
54

>  <i_i_glide_rotatable_bonds>  (20) 
15

>  <r_i_docking_score>  (20) 
-2.94243

>  <r_i_glide_ligand_efficiency>  (20) 
-0.0555175

>  <r_i_glide_ligand_efficiency_sa>  (20) 
-0.20854

>  <r_i_glide_ligand_efficiency_ln>  (20) 
-0.592003

>  <r_i_glide_gscore>  (20) 
-2.94243

>  <r_i_glide_lipo>  (20) 
-0.106232

>  <r_i_glide_hbond>  (20) 
0

>  <r_i_glide_metal>  (20) 
-0

>  <r_i_glide_rewards>  (20) 
0

>  <r_i_glide_evdw>  (20) 
-17.2888

>  <r_i_glide_ecoul>  (20) 
-12.9651

>  <r_i_glide_erotb>  (20) 
0.0722809

>  <r_i_glide_esite>  (20) 
-0.0992702

>  <r_i_glide_emodel>  (20) 
-31.916

>  <r_i_glide_energy>  (20) 
-30.2539

>  <r_i_glide_einternal>  (20) 
7.25943

>  <r_i_glide_intrahb_reward>  (20) 
-0

>  <i_i_glide_confnum>  (20) 
1

>  <i_i_glide_posenum>  (20) 
1

>  <r_i_glide_eff_state_penalty>  (20) 
0

>  <ligand_id>  (20) 
24

>  <original_smiles>  (20) 
C=C1C2(O)C(O)C(O)C34C5CC6OC(C)(C)C(O)(O6)C6(O)C(O)C3(O)C(O)C(=C)C6(O)C1(O)C(O)CC2C(C)(CCC(C)=O)C4CCC(OC)C[S+]5[O-]

>  <smiles>  (20) 
[H]OC1([H])C(=C([H])[H])C2(O[H])C3(O[H])C(=C([H])[H])C4(O[H])C([H])(O[H])C([H])(O[H])C56C([H])(S(=O)C([H])([H])C([H])(OC([H])([H])[H])C([H])([H])C([H])([H])C5([H])C(C([H])([H])[H])(C([H])([H])C([H])([H])C(=O)C([H])([H])[H])C4([H])C([H])([H])C3([H])O[H])C([H])([H])C3([H])OC(O[H])(C(C([H])([H])[H])(C([H])([H])[H])O3)C2(O[H])C([H])(O[H])C16O[H]

$$$$
24:1:1
     RDKit          3D

107113  0  0  1  0  0  0  0  0999 V2000
    2.3276  -11.0746    4.9676 C   0  0  0  0  0  0  0  0  0  0  0  0
    3.3239  -10.2417    5.3131 C   0  0  0  0  0  0  0  0  0  0  0  0
    3.6119   -9.9289    6.8420 C   0  0  2  0  0  0  0  0  0  0  0  0
    3.8445  -11.1827    7.4735 O   0  0  0  0  0  0  0  0  0  0  0  0
    2.3070   -9.4398    7.4632 C   0  0  1  0  0  0  0  0  0  0  0  0
    2.1323   -9.4379    8.8546 O   0  0  0  0  0  0  0  0  0  0  0  0
    1.7948   -8.1830    6.7441 C   0  0  1  0  0  0  0  0  0  0  0  0
    0.4028   -8.3932    7.0277 O   0  0  0  0  0  0  0  0  0  0  0  0
    2.4000   -6.7105    6.6760 C   0  0  2  0  0  0  0  0  0  0  0  0
    0.9460   -5.8878    6.7160 C   0  0  2  0  0  0  0  0  0  0  0  0
   -0.1800   -5.9626    5.5570 C   0  0  0  0  0  0  0  0  0  0  0  0
   -0.4765   -7.1938    4.5638 C   0  0  1  0  0  0  0  0  0  0  0  0
   -0.8011   -6.6638    3.3197 O   0  0  0  0  0  0  0  0  0  0  0  0
   -0.2305   -7.5421    2.3752 C   0  0  0  0  0  0  0  0  0  0  0  0
   -1.3528   -8.5973    2.1465 C   0  0  0  0  0  0  0  0  0  0  0  0
    0.0243   -6.7501    1.0723 C   0  0  0  0  0  0  0  0  0  0  0  0
    1.0495   -8.2056    3.0813 C   0  0  2  0  0  0  0  0  0  0  0  0
    1.1880   -9.5383    2.6472 O   0  0  0  0  0  0  0  0  0  0  0  0
    0.5612   -8.1279    4.3777 O   0  0  0  0  0  0  0  0  0  0  0  0
    2.5186   -7.5197    3.0686 C   0  0  1  0  0  0  0  0  0  0  0  0
    2.7000   -7.0591    1.7334 O   0  0  0  0  0  0  0  0  0  0  0  0
    2.4013   -6.1555    3.8755 C   0  0  2  0  0  0  0  0  0  0  0  0
    2.7198   -4.9938    3.0856 O   0  0  0  0  0  0  0  0  0  0  0  0
    3.1242   -6.1126    5.2861 C   0  0  1  0  0  0  0  0  0  0  0  0
    3.2102   -4.7428    5.6088 O   0  0  0  0  0  0  0  0  0  0  0  0
    4.6143   -6.2771    4.8146 C   0  0  1  0  0  0  0  0  0  0  0  0
    5.6458   -5.6499    5.5331 O   0  0  0  0  0  0  0  0  0  0  0  0
    5.0069   -7.3194    3.7536 C   0  0  0  0  0  0  0  0  0  0  0  0
    6.1813   -7.1506    3.1002 C   0  0  0  0  0  0  0  0  0  0  0  0
    3.9527   -8.3725    3.3414 C   0  0  2  0  0  0  0  0  0  0  0  0
    4.3404   -8.7996    2.0214 O   0  0  0  0  0  0  0  0  0  0  0  0
    4.2831   -9.7662    4.2141 C   0  0  2  0  0  0  0  0  0  0  0  0
    4.3912  -10.8622    3.2873 O   0  0  0  0  0  0  0  0  0  0  0  0
    5.6899   -9.9102    4.9164 C   0  0  1  0  0  0  0  0  0  0  0  0
    6.8170   -9.8543    4.0701 O   0  0  0  0  0  0  0  0  0  0  0  0
    5.9479   -8.9930    6.1311 C   0  0  0  0  0  0  0  0  0  0  0  0
    4.8452   -9.0097    7.2240 C   0  0  1  0  0  0  0  0  0  0  0  0
    4.6965   -7.7223    8.2138 C   0  0  1  0  0  0  0  0  0  0  0  0
    4.7899   -8.3051    9.6806 C   0  0  0  0  0  0  0  0  0  0  0  0
    6.1014   -6.9786    8.2872 C   0  0  0  0  0  0  0  0  0  0  0  0
    6.2961   -5.7687    9.2405 C   0  0  0  0  0  0  0  0  0  0  0  0
    7.7057   -5.1847    9.2130 C   0  0  0  0  0  0  0  0  0  0  0  0
    8.1438   -4.4232    7.9674 C   0  0  0  0  0  0  0  0  0  0  0  0
    8.4488   -5.2908   10.1860 O   0  0  0  0  0  0  0  0  0  0  0  0
    3.3996   -6.6860    7.9861 C   0  0  2  0  0  0  0  0  0  0  0  0
    2.5414   -6.5080    9.3066 C   0  0  0  0  0  0  0  0  0  0  0  0
    2.8560   -5.2751   10.1525 C   0  0  0  0  0  0  0  0  0  0  0  0
    2.0867   -3.9956    9.7716 C   0  0  1  0  0  0  0  0  0  0  0  0
    2.4392   -2.9550   10.6925 O   0  0  0  0  0  0  0  0  0  0  0  0
    3.7437   -2.3821   10.5946 C   0  0  0  0  0  0  0  0  0  0  0  0
    2.2771   -3.5448    8.3140 C   0  0  0  0  0  0  0  0  0  0  0  0
    0.8570   -4.0864    7.2346 S   0  0  0  0  0  0  0  0  0  0  0  0
    0.8411   -3.1766    5.9899 O   0  0  0  0  0  0  0  0  0  0  0  0
    2.1645  -11.3717    3.9370 H   0  0  0  0  0  0  0  0  0  0  0  0
    1.6399  -11.4970    5.6683 H   0  0  0  0  0  0  0  0  0  0  0  0
    3.0242  -11.6729    7.5209 H   0  0  0  0  0  0  0  0  0  0  0  0
    1.5978  -10.2425    7.2636 H   0  0  0  0  0  0  0  0  0  0  0  0
    2.8131   -8.8850    9.2341 H   0  0  0  0  0  0  0  0  0  0  0  0
    2.0401   -8.4192    5.7538 H   0  0  0  0  0  0  0  0  0  0  0  0
    0.1911   -9.2905    6.7891 H   0  0  0  0  0  0  0  0  0  0  0  0
    0.3796   -6.2155    7.5766 H   0  0  0  0  0  0  0  0  0  0  0  0
   -1.1271   -5.8012    6.0657 H   0  0  0  0  0  0  0  0  0  0  0  0
   -0.1272   -5.0664    4.9411 H   0  0  0  0  0  0  0  0  0  0  0  0
   -1.3310   -7.7795    4.9194 H   0  0  0  0  0  0  0  0  0  0  0  0
   -1.1426   -9.2668    1.3170 H   0  0  0  0  0  0  0  0  0  0  0  0
   -2.2968   -8.1048    1.9039 H   0  0  0  0  0  0  0  0  0  0  0  0
   -1.5441   -9.2040    3.0346 H   0  0  0  0  0  0  0  0  0  0  0  0
    0.4763   -7.3745    0.3117 H   0  0  0  0  0  0  0  0  0  0  0  0
    0.6492   -5.8770    1.2454 H   0  0  0  0  0  0  0  0  0  0  0  0
   -0.9144   -6.3764    0.6734 H   0  0  0  0  0  0  0  0  0  0  0  0
    0.3207   -9.9070    2.5600 H   0  0  0  0  0  0  0  0  0  0  0  0
    2.8389   -7.8435    1.2106 H   0  0  0  0  0  0  0  0  0  0  0  0
    1.4008   -5.8498    3.8951 H   0  0  0  0  0  0  0  0  0  0  0  0
    3.6270   -5.0884    2.8110 H   0  0  0  0  0  0  0  0  0  0  0  0
    3.9020   -4.6666    6.2620 H   0  0  0  0  0  0  0  0  0  0  0  0
    4.7275   -5.4794    4.0735 H   0  0  0  0  0  0  0  0  0  0  0  0
    6.4588   -5.7987    5.0660 H   0  0  0  0  0  0  0  0  0  0  0  0
    6.8730   -6.3551    3.3572 H   0  0  0  0  0  0  0  0  0  0  0  0
    6.4882   -7.8054    2.2892 H   0  0  0  0  0  0  0  0  0  0  0  0
    4.1040   -9.7227    1.9300 H   0  0  0  0  0  0  0  0  0  0  0  0
    3.5312  -11.0521    2.9178 H   0  0  0  0  0  0  0  0  0  0  0  0
    5.7378  -10.9311    5.3212 H   0  0  0  0  0  0  0  0  0  0  0  0
    6.7747   -9.0225    3.5986 H   0  0  0  0  0  0  0  0  0  0  0  0
    6.8798   -9.3366    6.5779 H   0  0  0  0  0  0  0  0  0  0  0  0
    6.2092   -8.0049    5.8181 H   0  0  0  0  0  0  0  0  0  0  0  0
    5.3994   -9.6745    7.8985 H   0  0  0  0  0  0  0  0  0  0  0  0
    4.7067   -7.5450   10.4505 H   0  0  0  0  0  0  0  0  0  0  0  0
    5.7482   -8.7877    9.8731 H   0  0  0  0  0  0  0  0  0  0  0  0
    4.1126   -9.0973    9.9499 H   0  0  0  0  0  0  0  0  0  0  0  0
    6.8752   -7.7052    8.5477 H   0  0  0  0  0  0  0  0  0  0  0  0
    6.4860   -6.6644    7.3439 H   0  0  0  0  0  0  0  0  0  0  0  0
    5.6204   -4.9612    8.9837 H   0  0  0  0  0  0  0  0  0  0  0  0
    6.1187   -6.0362   10.2785 H   0  0  0  0  0  0  0  0  0  0  0  0
    7.4410   -3.6197    7.7555 H   0  0  0  0  0  0  0  0  0  0  0  0
    8.1941   -5.0830    7.1025 H   0  0  0  0  0  0  0  0  0  0  0  0
    9.1296   -3.9859    8.1207 H   0  0  0  0  0  0  0  0  0  0  0  0
    3.9220   -5.7458    7.8699 H   0  0  0  0  0  0  0  0  0  0  0  0
    1.4750   -6.5416    9.1646 H   0  0  0  0  0  0  0  0  0  0  0  0
    2.6294   -7.3334    9.9942 H   0  0  0  0  0  0  0  0  0  0  0  0
    2.5999   -5.4873   11.1957 H   0  0  0  0  0  0  0  0  0  0  0  0
    3.9315   -5.1358   10.1498 H   0  0  0  0  0  0  0  0  0  0  0  0
    1.0277   -4.1747    9.9489 H   0  0  0  0  0  0  0  0  0  0  0  0
    3.8420   -1.5937   11.3470 H   0  0  0  0  0  0  0  0  0  0  0  0
    3.9109   -1.9099    9.6253 H   0  0  0  0  0  0  0  0  0  0  0  0
    4.5436   -3.1048   10.7743 H   0  0  0  0  0  0  0  0  0  0  0  0
    2.1429   -2.4672    8.2798 H   0  0  0  0  0  0  0  0  0  0  0  0
    3.2686   -3.7330    7.9199 H   0  0  0  0  0  0  0  0  0  0  0  0
  1  2  2  0
  1 54  1  0
  1 55  1  0
  2 32  1  0
  2  3  1  0
  3 37  1  0
  3  4  1  1
  3  5  1  0
  4 56  1  0
  5  6  1  0
  5  7  1  0
  5 57  1  6
  6 58  1  0
  7  8  1  0
  7  9  1  0
  7 59  1  6
  8 60  1  0
  9 24  1  6
  9 45  1  0
  9 10  1  0
 10 52  1  0
 10 11  1  0
 10 61  1  1
 11 12  1  0
 11 62  1  0
 11 63  1  0
 12 19  1  0
 12 13  1  0
 12 64  1  1
 13 14  1  0
 14 15  1  0
 14 16  1  0
 14 17  1  0
 15 65  1  0
 15 66  1  0
 15 67  1  0
 16 68  1  0
 16 69  1  0
 16 70  1  0
 17 18  1  6
 17 19  1  0
 17 20  1  0
 18 71  1  0
 20 30  1  0
 20 21  1  6
 20 22  1  0
 21 72  1  0
 22 23  1  0
 22 24  1  0
 22 73  1  1
 23 74  1  0
 24 25  1  1
 24 26  1  0
 25 75  1  0
 26 27  1  0
 26 28  1  0
 26 76  1  6
 27 77  1  0
 28 29  2  0
 28 30  1  0
 29 78  1  0
 29 79  1  0
 30 31  1  6
 30 32  1  0
 31 80  1  0
 32 33  1  6
 32 34  1  0
 33 81  1  0
 34 35  1  0
 34 36  1  0
 34 82  1  1
 35 83  1  0
 36 37  1  0
 36 84  1  0
 36 85  1  0
 37 38  1  0
 37 86  1  1
 38 39  1  1
 38 40  1  0
 38 45  1  0
 39 87  1  0
 39 88  1  0
 39 89  1  0
 40 41  1  0
 40 90  1  0
 40 91  1  0
 41 42  1  0
 41 92  1  0
 41 93  1  0
 42 43  1  0
 42 44  2  0
 43 94  1  0
 43 95  1  0
 43 96  1  0
 45 46  1  0
 45 97  1  6
 46 47  1  0
 46 98  1  0
 46 99  1  0
 47 48  1  0
 47100  1  0
 47101  1  0
 48 49  1  0
 48 51  1  0
 48102  1  6
 49 50  1  0
 50103  1  0
 50104  1  0
 50105  1  0
 52 51  1  1
 51106  1  0
 51107  1  0
 52 53  2  0
M  END
>  <i_m_ct_stereo_status>  (21) 
1

>  <s_m_source_file>  (21) 
/var/tmp/pbs.5075288.sched01/tmpg6npxhsy/83n53gbz8q.sdf

>  <i_m_source_file_index>  (21) 
54

>  <i_lp_mmshare_version>  (21) 
48012

>  <i_f3d_flags>  (21) 
0

>  <s_epik_input>  (21) 
W08tXVtTK10xW0NIMl1bQ0BIXShPW0NIM10pW0NIMl1bQ0gyXVtDQEhdMltDQF0oW0NIM10pKFtDSDJdW0NIMl1DKD1PKVtDSDNdKVtDQEhdKFtDSDJdW0NAQEhdM1tPSF0pW0NAQF0oW09IXSkoW0NAQEhdKFtPSF0pW0NASF00W09IXSlDKD1bQ0gyXSlbQ0BAXTMoW09IXSlbQ0BdKFtPSF0pKEMoPVtDSDJdKVtDQEhdKFtPSF0pW0NAQF01KFtPSF0pW0NAQEhdNltPSF0pW0NAQF02KFtPSF0pW0NAXShPNykoW09IXSlDKFtDSDNdKShbQ0gzXSlPW0NAQEhdN1tDSDJdW0NAQEhdMVtDQEBdMjQ1

>  <s_epik_cmdline>  (21) 
J2VwaWtfcHl0aG9uJywgJy1waHQnLCAnMi4wJywgJy1waCcsICc3LjAnLCAnLXRuJywgJzgnLCAnLW1hJywgJzIwMCcsICctaW1hZScsICc8aW5maWxlLm1hZT4nLCAnLW9tYWUnLCAnPG91dGZpbGUubWFlPic=

>  <r_lp_tautomer_probability>  (21) 
1

>  <r_epik_Ionization_Penalty>  (21) 
7.14931e-06

>  <r_epik_Ionization_Penalty_Charging>  (21) 
0

>  <r_epik_Ionization_Penalty_Neutral>  (21) 
7.14931e-06

>  <r_epik_State_Penalty>  (21) 
-0

>  <r_epik_Charging_Adjusted_Penalty>  (21) 
0

>  <i_epik_Tot_Q>  (21) 
0

>  <i_epik_Tot_abs_Q>  (21) 
2

>  <s_epik_Chemistry_Notes>  (21) 
This compound contains an acetal/aminal-like group ( X-CH(R)-Y where X, Y are N, S, or O) that may be acid/base labile, releasing an aldehyde.

>  <s_lp_Force_Field>  (21) 
OPLS3e

>  <r_lp_Energy>  (21) 
384.361

>  <b_lp_Chiralities_Consistent>  (21) 
1

>  <s_lp_Variant>  (21) 
24:0-2

>  <s_i_glide_gridfile>  (21) 
pfpi4k_grid

>  <i_i_glide_lignum>  (21) 
54

>  <i_i_glide_rotatable_bonds>  (21) 
15

>  <r_i_docking_score>  (21) 
-2.4465

>  <r_i_glide_ligand_efficiency>  (21) 
-0.0461604

>  <r_i_glide_ligand_efficiency_sa>  (21) 
-0.173392

>  <r_i_glide_ligand_efficiency_ln>  (21) 
-0.492225

>  <r_i_glide_gscore>  (21) 
-2.4465

>  <r_i_glide_lipo>  (21) 
-0.0504556

>  <r_i_glide_hbond>  (21) 
-0.147709

>  <r_i_glide_metal>  (21) 
-0

>  <r_i_glide_rewards>  (21) 
0

>  <r_i_glide_evdw>  (21) 
-24.6362

>  <r_i_glide_ecoul>  (21) 
-6.86646

>  <r_i_glide_erotb>  (21) 
0.0722809

>  <r_i_glide_esite>  (21) 
-0.0588355

>  <r_i_glide_emodel>  (21) 
-32.433

>  <r_i_glide_energy>  (21) 
-31.5027

>  <r_i_glide_einternal>  (21) 
7.52694

>  <r_i_glide_intrahb_reward>  (21) 
-0

>  <i_i_glide_confnum>  (21) 
1

>  <i_i_glide_posenum>  (21) 
13

>  <r_i_glide_eff_state_penalty>  (21) 
0

>  <ligand_id>  (21) 
24

>  <original_smiles>  (21) 
C=C1C2(O)C(O)C(O)C34C5CC6OC(C)(C)C(O)(O6)C6(O)C(O)C3(O)C(O)C(=C)C6(O)C1(O)C(O)CC2C(C)(CCC(C)=O)C4CCC(OC)C[S+]5[O-]

>  <smiles>  (21) 
[H]OC1([H])C(=C([H])[H])C2(O[H])C3(O[H])C(=C([H])[H])C4(O[H])C([H])(O[H])C([H])(O[H])C56C([H])(S(=O)C([H])([H])C([H])(OC([H])([H])[H])C([H])([H])C([H])([H])C5([H])C(C([H])([H])[H])(C([H])([H])C([H])([H])C(=O)C([H])([H])[H])C4([H])C([H])([H])C3([H])O[H])C([H])([H])C3([H])OC(O[H])(C(C([H])([H])[H])(C([H])([H])[H])O3)C2(O[H])C([H])(O[H])C16O[H]

$$$$
24:1:2
     RDKit          3D

107113  0  0  1  0  0  0  0  0999 V2000
    2.9650  -11.2560    4.8792 C   0  0  0  0  0  0  0  0  0  0  0  0
    3.9616  -10.3731    5.1002 C   0  0  0  0  0  0  0  0  0  0  0  0
    4.4290  -10.0878    6.5839 C   0  0  2  0  0  0  0  0  0  0  0  0
    4.7670  -11.3497    7.1397 O   0  0  0  0  0  0  0  0  0  0  0  0
    3.1947   -9.6410    7.3638 C   0  0  1  0  0  0  0  0  0  0  0  0
    3.1926   -9.6858    8.7659 O   0  0  0  0  0  0  0  0  0  0  0  0
    2.5493   -8.3961    6.7396 C   0  0  1  0  0  0  0  0  0  0  0  0
    1.2100   -8.6590    7.1964 O   0  0  0  0  0  0  0  0  0  0  0  0
    3.1070   -6.9054    6.6520 C   0  0  2  0  0  0  0  0  0  0  0  0
    1.6480   -6.1248    6.8905 C   0  0  2  0  0  0  0  0  0  0  0  0
    0.3908   -6.2095    5.8751 C   0  0  0  0  0  0  0  0  0  0  0  0
    0.0099   -7.4142    4.8729 C   0  0  1  0  0  0  0  0  0  0  0  0
   -0.4658   -6.8448    3.6969 O   0  0  0  0  0  0  0  0  0  0  0  0
   -0.0035   -7.6935    2.6645 C   0  0  0  0  0  0  0  0  0  0  0  0
   -1.1113   -8.7726    2.5305 C   0  0  0  0  0  0  0  0  0  0  0  0
    0.0572   -6.8644    1.3677 C   0  0  0  0  0  0  0  0  0  0  0  0
    1.3759   -8.3468    3.1867 C   0  0  2  0  0  0  0  0  0  0  0  0
    1.5060   -9.6492    2.6695 O   0  0  0  0  0  0  0  0  0  0  0  0
    1.0370   -8.3341    4.5297 O   0  0  0  0  0  0  0  0  0  0  0  0
    2.8078   -7.6092    3.0281 C   0  0  1  0  0  0  0  0  0  0  0  0
    2.8173   -7.1126    1.6916 O   0  0  0  0  0  0  0  0  0  0  0  0
    2.7492   -6.2743    3.8879 C   0  0  2  0  0  0  0  0  0  0  0  0
    2.9378   -5.0841    3.0998 O   0  0  0  0  0  0  0  0  0  0  0  0
    3.6392   -6.2496    5.1991 C   0  0  1  0  0  0  0  0  0  0  0  0
    3.7252   -4.8863    5.5527 O   0  0  0  0  0  0  0  0  0  0  0  0
    5.0624   -6.3589    4.5426 C   0  0  1  0  0  0  0  0  0  0  0  0
    6.1480   -5.7007    5.1506 O   0  0  0  0  0  0  0  0  0  0  0  0
    5.3544   -7.3666    3.4246 C   0  0  0  0  0  0  0  0  0  0  0  0
    6.4406   -7.1394    2.6390 C   0  0  0  0  0  0  0  0  0  0  0  0
    4.2816   -8.4375    3.1087 C   0  0  2  0  0  0  0  0  0  0  0  0
    4.5391   -8.8130    1.7397 O   0  0  0  0  0  0  0  0  0  0  0  0
    4.7516   -9.8437    3.8980 C   0  0  2  0  0  0  0  0  0  0  0  0
    4.8094  -10.9395    2.9616 O   0  0  0  0  0  0  0  0  0  0  0  0
    6.2361   -9.9527    4.4205 C   0  0  1  0  0  0  0  0  0  0  0  0
    7.2557   -9.8450    3.4523 O   0  0  0  0  0  0  0  0  0  0  0  0
    6.6210   -9.0641    5.6189 C   0  0  0  0  0  0  0  0  0  0  0  0
    5.6616   -9.1356    6.8347 C   0  0  1  0  0  0  0  0  0  0  0  0
    5.5974   -7.8789    7.8691 C   0  0  1  0  0  0  0  0  0  0  0  0
    5.8912   -8.4889    9.2972 C   0  0  0  0  0  0  0  0  0  0  0  0
    6.9847   -7.1020    7.7838 C   0  0  0  0  0  0  0  0  0  0  0  0
    7.2892   -5.9318    8.7491 C   0  0  0  0  0  0  0  0  0  0  0  0
    8.5565   -5.1292    8.4615 C   0  0  0  0  0  0  0  0  0  0  0  0
    8.9969   -4.1437    9.5384 C   0  0  0  0  0  0  0  0  0  0  0  0
    9.1837   -5.2358    7.4050 O   0  0  0  0  0  0  0  0  0  0  0  0
    4.2537   -6.8800    7.8348 C   0  0  2  0  0  0  0  0  0  0  0  0
    3.5581   -6.7614    9.2546 C   0  0  0  0  0  0  0  0  0  0  0  0
    3.9286   -5.5419   10.1030 C   0  0  0  0  0  0  0  0  0  0  0  0
    3.0976   -4.2712    9.8414 C   0  0  1  0  0  0  0  0  0  0  0  0
    3.5359   -3.2423   10.7361 O   0  0  0  0  0  0  0  0  0  0  0  0
    4.8055   -2.6334   10.4957 C   0  0  0  0  0  0  0  0  0  0  0  0
    3.1006   -3.7851    8.3837 C   0  0  0  0  0  0  0  0  0  0  0  0
    1.5731   -4.3343    7.4656 S   0  0  0  0  0  0  0  0  0  0  0  0
    1.3830   -3.4067    6.2566 O   0  0  0  0  0  0  0  0  0  0  0  0
    2.6504  -11.5308    3.8798 H   0  0  0  0  0  0  0  0  0  0  0  0
    2.4155  -11.7493    5.6629 H   0  0  0  0  0  0  0  0  0  0  0  0
    3.9737  -11.8758    7.2089 H   0  0  0  0  0  0  0  0  0  0  0  0
    2.4961  -10.4657    7.2387 H   0  0  0  0  0  0  0  0  0  0  0  0
    3.8059   -9.0227    9.0824 H   0  0  0  0  0  0  0  0  0  0  0  0
    2.6599   -8.6034    5.7184 H   0  0  0  0  0  0  0  0  0  0  0  0
    1.0543   -9.6004    7.1389 H   0  0  0  0  0  0  0  0  0  0  0  0
    1.1965   -6.4893    7.8025 H   0  0  0  0  0  0  0  0  0  0  0  0
   -0.4937   -6.0845    6.5024 H   0  0  0  0  0  0  0  0  0  0  0  0
    0.3450   -5.2906    5.2922 H   0  0  0  0  0  0  0  0  0  0  0  0
   -0.7936   -8.0209    5.3097 H   0  0  0  0  0  0  0  0  0  0  0  0
   -0.9442   -9.4315    1.6901 H   0  0  0  0  0  0  0  0  0  0  0  0
   -2.0867   -8.2985    2.3816 H   0  0  0  0  0  0  0  0  0  0  0  0
   -1.1912   -9.3803    3.4281 H   0  0  0  0  0  0  0  0  0  0  0  0
    0.4463   -7.4524    0.5469 H   0  0  0  0  0  0  0  0  0  0  0  0
    0.6698   -5.9763    1.4826 H   0  0  0  0  0  0  0  0  0  0  0  0
   -0.9704   -6.5303    1.0993 H   0  0  0  0  0  0  0  0  0  0  0  0
    0.7681   -9.7955    2.0777 H   0  0  0  0  0  0  0  0  0  0  0  0
    2.8543   -7.8785    1.1244 H   0  0  0  0  0  0  0  0  0  0  0  0
    1.7515   -5.9997    4.0378 H   0  0  0  0  0  0  0  0  0  0  0  0
    3.7799   -5.1956    2.6485 H   0  0  0  0  0  0  0  0  0  0  0  0
    4.5306   -4.8078    6.0616 H   0  0  0  0  0  0  0  0  0  0  0  0
    5.0631   -5.5410    3.8153 H   0  0  0  0  0  0  0  0  0  0  0  0
    6.8924   -5.7375    4.5589 H   0  0  0  0  0  0  0  0  0  0  0  0
    7.1367   -6.3292    2.8322 H   0  0  0  0  0  0  0  0  0  0  0  0
    6.6638   -7.7674    1.7841 H   0  0  0  0  0  0  0  0  0  0  0  0
    4.2376   -9.7098    1.5939 H   0  0  0  0  0  0  0  0  0  0  0  0
    3.9603  -11.0839    2.5412 H   0  0  0  0  0  0  0  0  0  0  0  0
    6.3602  -10.9753    4.7909 H   0  0  0  0  0  0  0  0  0  0  0  0
    7.1966   -8.9693    3.0724 H   0  0  0  0  0  0  0  0  0  0  0  0
    7.6078   -9.3987    5.9401 H   0  0  0  0  0  0  0  0  0  0  0  0
    6.8134   -8.0656    5.3010 H   0  0  0  0  0  0  0  0  0  0  0  0
    6.3124   -9.7956    7.4158 H   0  0  0  0  0  0  0  0  0  0  0  0
    5.8909   -7.7415   10.0883 H   0  0  0  0  0  0  0  0  0  0  0  0
    6.8746   -8.9588    9.3611 H   0  0  0  0  0  0  0  0  0  0  0  0
    5.2692   -9.2994    9.6330 H   0  0  0  0  0  0  0  0  0  0  0  0
    7.8066   -7.8146    7.9051 H   0  0  0  0  0  0  0  0  0  0  0  0
    7.2273   -6.7474    6.8092 H   0  0  0  0  0  0  0  0  0  0  0  0
    6.5058   -5.1925    8.6930 H   0  0  0  0  0  0  0  0  0  0  0  0
    7.3617   -6.2756    9.7784 H   0  0  0  0  0  0  0  0  0  0  0  0
    9.1709   -4.6601   10.4850 H   0  0  0  0  0  0  0  0  0  0  0  0
    8.2264   -3.3885    9.7045 H   0  0  0  0  0  0  0  0  0  0  0  0
    9.9179   -3.6346    9.2484 H   0  0  0  0  0  0  0  0  0  0  0  0
    4.7317   -5.9233    7.6799 H   0  0  0  0  0  0  0  0  0  0  0  0
    2.4842   -6.8393    9.2356 H   0  0  0  0  0  0  0  0  0  0  0  0
    3.7503   -7.6037    9.9004 H   0  0  0  0  0  0  0  0  0  0  0  0
    3.7706   -5.7950   11.1561 H   0  0  0  0  0  0  0  0  0  0  0  0
    4.9951   -5.3662   10.0061 H   0  0  0  0  0  0  0  0  0  0  0  0
    2.0661   -4.4747   10.1326 H   0  0  0  0  0  0  0  0  0  0  0  0
    4.9633   -1.8590   11.2502 H   0  0  0  0  0  0  0  0  0  0  0  0
    4.8362   -2.1327    9.5266 H   0  0  0  0  0  0  0  0  0  0  0  0
    5.6371   -3.3372   10.5600 H   0  0  0  0  0  0  0  0  0  0  0  0
    2.9344   -2.7116    8.3892 H   0  0  0  0  0  0  0  0  0  0  0  0
    4.0393   -3.9308    7.8604 H   0  0  0  0  0  0  0  0  0  0  0  0
  1  2  2  0
  1 54  1  0
  1 55  1  0
  2 32  1  0
  2  3  1  0
  3 37  1  0
  3  4  1  1
  3  5  1  0
  4 56  1  0
  5  6  1  0
  5  7  1  0
  5 57  1  6
  6 58  1  0
  7  8  1  0
  7  9  1  0
  7 59  1  6
  8 60  1  0
  9 24  1  6
  9 45  1  0
  9 10  1  0
 10 52  1  0
 10 11  1  0
 10 61  1  1
 11 12  1  0
 11 62  1  0
 11 63  1  0
 12 19  1  0
 12 13  1  0
 12 64  1  1
 13 14  1  0
 14 15  1  0
 14 16  1  0
 14 17  1  0
 15 65  1  0
 15 66  1  0
 15 67  1  0
 16 68  1  0
 16 69  1  0
 16 70  1  0
 17 18  1  6
 17 19  1  0
 17 20  1  0
 18 71  1  0
 20 30  1  0
 20 21  1  6
 20 22  1  0
 21 72  1  0
 22 23  1  0
 22 24  1  0
 22 73  1  1
 23 74  1  0
 24 25  1  1
 24 26  1  0
 25 75  1  0
 26 27  1  0
 26 28  1  0
 26 76  1  6
 27 77  1  0
 28 29  2  0
 28 30  1  0
 29 78  1  0
 29 79  1  0
 30 31  1  6
 30 32  1  0
 31 80  1  0
 32 33  1  6
 32 34  1  0
 33 81  1  0
 34 35  1  0
 34 36  1  0
 34 82  1  1
 35 83  1  0
 36 37  1  0
 36 84  1  0
 36 85  1  0
 37 38  1  0
 37 86  1  1
 38 39  1  1
 38 40  1  0
 38 45  1  0
 39 87  1  0
 39 88  1  0
 39 89  1  0
 40 41  1  0
 40 90  1  0
 40 91  1  0
 41 42  1  0
 41 92  1  0
 41 93  1  0
 42 43  1  0
 42 44  2  0
 43 94  1  0
 43 95  1  0
 43 96  1  0
 45 46  1  0
 45 97  1  6
 46 47  1  0
 46 98  1  0
 46 99  1  0
 47 48  1  0
 47100  1  0
 47101  1  0
 48 49  1  0
 48 51  1  0
 48102  1  1
 49 50  1  0
 50103  1  0
 50104  1  0
 50105  1  0
 52 51  1  6
 51106  1  0
 51107  1  0
 52 53  2  0
M  END
>  <i_m_ct_stereo_status>  (22) 
1

>  <s_m_source_file>  (22) 
/var/tmp/pbs.5075288.sched01/tmpg6npxhsy/83n53gbz8q.sdf

>  <i_m_source_file_index>  (22) 
54

>  <i_lp_mmshare_version>  (22) 
48012

>  <i_f3d_flags>  (22) 
0

>  <s_epik_input>  (22) 
W08tXVtTK10xW0NIMl1bQ0BIXShPW0NIM10pW0NIMl1bQ0gyXVtDQEhdMltDQF0oW0NIM10pKFtDSDJdW0NIMl1DKD1PKVtDSDNdKVtDQEhdKFtDSDJdW0NAQEhdM1tPSF0pW0NAQF0oW09IXSkoW0NAQEhdKFtPSF0pW0NASF00W09IXSlDKD1bQ0gyXSlbQ0BAXTMoW09IXSlbQ0BdKFtPSF0pKEMoPVtDSDJdKVtDQEhdKFtPSF0pW0NAQF01KFtPSF0pW0NAQEhdNltPSF0pW0NAQF02KFtPSF0pW0NAXShPNykoW09IXSlDKFtDSDNdKShbQ0gzXSlPW0NAQEhdN1tDSDJdW0NAQEhdMVtDQEBdMjQ1

>  <s_epik_cmdline>  (22) 
J2VwaWtfcHl0aG9uJywgJy1waHQnLCAnMi4wJywgJy1waCcsICc3LjAnLCAnLXRuJywgJzgnLCAnLW1hJywgJzIwMCcsICctaW1hZScsICc8aW5maWxlLm1hZT4nLCAnLW9tYWUnLCAnPG91dGZpbGUubWFlPic=

>  <r_lp_tautomer_probability>  (22) 
1

>  <r_epik_Ionization_Penalty>  (22) 
7.14931e-06

>  <r_epik_Ionization_Penalty_Charging>  (22) 
0

>  <r_epik_Ionization_Penalty_Neutral>  (22) 
7.14931e-06

>  <r_epik_State_Penalty>  (22) 
-0

>  <r_epik_Charging_Adjusted_Penalty>  (22) 
0

>  <i_epik_Tot_Q>  (22) 
0

>  <i_epik_Tot_abs_Q>  (22) 
2

>  <s_epik_Chemistry_Notes>  (22) 
This compound contains an acetal/aminal-like group ( X-CH(R)-Y where X, Y are N, S, or O) that may be acid/base labile, releasing an aldehyde.

>  <s_lp_Force_Field>  (22) 
OPLS3e

>  <r_lp_Energy>  (22) 
384.361

>  <b_lp_Chiralities_Consistent>  (22) 
1

>  <s_lp_Variant>  (22) 
24:0-2

>  <s_i_glide_gridfile>  (22) 
pfpi4k_grid

>  <i_i_glide_lignum>  (22) 
54

>  <i_i_glide_rotatable_bonds>  (22) 
15

>  <r_i_docking_score>  (22) 
-2.27255

>  <r_i_glide_ligand_efficiency>  (22) 
-0.0428783

>  <r_i_glide_ligand_efficiency_sa>  (22) 
-0.161063

>  <r_i_glide_ligand_efficiency_ln>  (22) 
-0.457227

>  <r_i_glide_gscore>  (22) 
-2.27255

>  <r_i_glide_lipo>  (22) 
-0.0437267

>  <r_i_glide_hbond>  (22) 
-0.0364073

>  <r_i_glide_metal>  (22) 
-0

>  <r_i_glide_rewards>  (22) 
-0.00374027

>  <r_i_glide_evdw>  (22) 
-26.5955

>  <r_i_glide_ecoul>  (22) 
-5.94202

>  <r_i_glide_erotb>  (22) 
0.0722809

>  <r_i_glide_esite>  (22) 
-0.0398798

>  <r_i_glide_emodel>  (22) 
-32.4004

>  <r_i_glide_energy>  (22) 
-32.5375

>  <r_i_glide_einternal>  (22) 
7.97659

>  <r_i_glide_intrahb_reward>  (22) 
-0

>  <i_i_glide_confnum>  (22) 
3

>  <i_i_glide_posenum>  (22) 
3

>  <r_i_glide_eff_state_penalty>  (22) 
0

>  <ligand_id>  (22) 
24

>  <original_smiles>  (22) 
C=C1C2(O)C(O)C(O)C34C5CC6OC(C)(C)C(O)(O6)C6(O)C(O)C3(O)C(O)C(=C)C6(O)C1(O)C(O)CC2C(C)(CCC(C)=O)C4CCC(OC)C[S+]5[O-]

>  <smiles>  (22) 
[H]OC1([H])C(=C([H])[H])C2(O[H])C3(O[H])C(=C([H])[H])C4(O[H])C([H])(O[H])C([H])(O[H])C56C([H])(S(=O)C([H])([H])C([H])(OC([H])([H])[H])C([H])([H])C([H])([H])C5([H])C(C([H])([H])[H])(C([H])([H])C([H])([H])C(=O)C([H])([H])[H])C4([H])C([H])([H])C3([H])O[H])C([H])([H])C3([H])OC(O[H])(C(C([H])([H])[H])(C([H])([H])[H])O3)C2(O[H])C([H])(O[H])C16O[H]

$$$$
26:0:0
     RDKit          3D

132140  0  0  1  0  0  0  0  0999 V2000
    6.6967    0.3940    3.9790 C   0  0  0  0  0  0  0  0  0  0  0  0
    5.4064    0.2361    4.3515 C   0  0  0  0  0  0  0  0  0  0  0  0
    4.3652   -0.9123    4.0771 C   0  0  2  0  0  0  0  0  0  0  0  0
    5.2293   -1.9084    3.1857 C   0  0  0  0  0  0  0  0  0  0  0  0
    5.5150   -1.5716    1.7112 C   0  0  0  0  0  0  0  0  0  0  0  0
    4.1890   -1.3819    1.0238 C   0  0  0  0  0  0  0  0  0  0  0  0
    3.5320   -0.1893    1.7005 C   0  0  0  0  0  0  0  0  0  0  0  0
    3.2801    0.8034    1.0357 O   0  0  0  0  0  0  0  0  0  0  0  0
    3.2090   -0.2104    3.2213 C   0  0  2  0  0  0  0  0  0  0  0  0
    3.1278    1.1779    3.5265 O   0  0  0  0  0  0  0  0  0  0  0  0
    1.7082   -0.6040    3.3689 C   0  0  1  0  0  0  0  0  0  0  0  0
    1.4353   -1.8549    2.7734 O   0  0  0  0  0  0  0  0  0  0  0  0
    0.9330   -0.4338    4.7461 C   0  0  2  0  0  0  0  0  0  0  0  0
   -0.2730    0.1611    4.2314 O   0  0  0  0  0  0  0  0  0  0  0  0
    1.3908    0.7168    5.7319 C   0  0  1  0  0  0  0  0  0  0  0  0
    0.4873    0.8852    6.8198 O   0  0  0  0  0  0  0  0  0  0  0  0
    1.0255    1.4391    7.8993 C   0  0  0  0  0  0  0  0  0  0  0  0
    0.4335    1.6405    8.9522 O   0  0  0  0  0  0  0  0  0  0  0  0
    2.4790    1.7941    7.6313 C   0  0  0  0  0  0  0  0  0  0  0  0
    2.5161    3.2714    7.1699 C   0  0  0  0  0  0  0  0  0  0  0  0
    3.3138    1.6956    8.9206 C   0  0  0  0  0  0  0  0  0  0  0  0
    2.7900    0.8283    6.4397 C   0  0  1  0  0  0  0  0  0  0  0  0
    3.7779   -0.4074    6.6126 C   0  0  1  0  0  0  0  0  0  0  0  0
    3.9087   -0.9445    7.9238 O   0  0  0  0  0  0  0  0  0  0  0  0
    3.8608   -1.5801    5.5119 C   0  0  2  0  0  0  0  0  0  0  0  0
    5.1286   -2.0466    5.9231 O   0  0  0  0  0  0  0  0  0  0  0  0
    2.8361   -2.9438    5.8252 C   0  0  1  0  0  0  0  0  0  0  0  0
    1.3026   -2.6159    6.3675 C   0  0  2  0  0  0  0  0  0  0  0  0
    1.5123   -1.7035    7.4093 O   0  0  0  0  0  0  0  0  0  0  0  0
    0.4503   -3.5534    7.4112 C   0  0  1  0  0  0  0  0  0  0  0  0
   -0.9107   -4.2214    7.1378 C   0  0  0  0  0  0  0  0  0  0  0  0
   -1.6864   -4.5696    8.4186 C   0  0  0  0  0  0  0  0  0  0  0  0
   -2.8648   -4.7466    8.3401 O   0  0  0  0  0  0  0  0  0  0  0  0
   -1.0256   -4.6075    9.6282 O   0  0  0  0  0  0  0  0  0  0  0  0
    0.3533   -4.2744    9.8299 C   0  0  0  0  0  0  0  0  0  0  0  0
    0.3741   -2.8548   10.4467 C   0  0  0  0  0  0  0  0  0  0  0  0
    0.8286   -5.2490   10.9334 C   0  0  0  0  0  0  0  0  0  0  0  0
    1.1870   -4.3835    8.4955 C   0  0  1  0  0  0  0  0  0  0  0  0
    1.3224   -5.8624    8.0650 C   0  0  0  0  0  0  0  0  0  0  0  0
    2.3705   -6.2366    7.0182 C   0  0  2  0  0  0  0  0  0  0  0  0
    4.0477   -6.1149    7.7844 S   0  0  0  0  0  0  0  0  0  0  0  0
    4.2423   -7.4272    8.5377 O   0  0  0  0  0  0  0  0  0  0  0  0
    4.9609   -6.2216    6.1733 C   0  0  2  0  0  0  0  0  0  0  0  0
    6.3417   -6.4658    6.3887 O   0  0  0  0  0  0  0  0  0  0  0  0
    4.6906   -4.8182    5.6265 C   0  0  1  0  0  0  0  0  0  0  0  0
    5.6824   -4.5413    4.6642 O   0  0  0  0  0  0  0  0  0  0  0  0
    3.1831   -4.4636    5.1632 C   0  0  2  0  0  0  0  0  0  0  0  0
    3.1272   -4.3753    3.5951 C   0  0  0  0  0  0  0  0  0  0  0  0
    2.1546   -5.0646    2.6292 C   0  0  0  0  0  0  0  0  0  0  0  0
    2.2328   -4.7650    1.4416 O   0  0  0  0  0  0  0  0  0  0  0  0
    1.1584   -6.1464    3.0788 C   0  0  1  0  0  0  0  0  0  0  0  0
    1.2921   -7.5110    2.2373 C   0  0  0  0  0  0  0  0  0  0  0  0
    2.7308   -7.9499    1.9668 C   0  0  0  0  0  0  0  0  0  0  0  0
    0.6046   -8.7909    2.7314 C   0  0  0  0  0  0  0  0  0  0  0  0
    0.6761   -7.3163    1.0030 O   0  0  0  0  0  0  0  0  0  0  0  0
    0.9850   -6.0147    4.6513 C   0  0  1  0  0  0  0  0  0  0  0  0
    0.2416   -4.8240    4.7156 O   0  0  0  0  0  0  0  0  0  0  0  0
    0.0245   -7.1398    5.1150 C   0  0  0  0  0  0  0  0  0  0  0  0
   -1.1909   -7.0730    4.8799 O   0  0  0  0  0  0  0  0  0  0  0  0
    0.6409   -8.1626    5.7207 O   0  0  0  0  0  0  0  0  0  0  0  0
   -0.0463   -9.3060    6.2096 C   0  0  0  0  0  0  0  0  0  0  0  0
    2.3502   -5.8129    5.4961 C   0  0  2  0  0  0  0  0  0  0  0  0
    3.0747   -6.8984    4.8475 O   0  0  0  0  0  0  0  0  0  0  0  0
    4.3906   -7.3015    5.2253 C   0  0  0  0  0  0  0  0  0  0  0  0
    5.2611   -7.4086    3.9450 C   0  0  0  0  0  0  0  0  0  0  0  0
    4.3155   -8.7423    5.7853 C   0  0  0  0  0  0  0  0  0  0  0  0
    0.3896   -1.7766    5.3866 C   0  0  1  0  0  0  0  0  0  0  0  0
   -0.8640   -1.4683    5.9881 O   0  0  0  0  0  0  0  0  0  0  0  0
    7.2309   -0.2647    3.3368 H   0  0  0  0  0  0  0  0  0  0  0  0
    7.2542    1.2455    4.3158 H   0  0  0  0  0  0  0  0  0  0  0  0
    5.0994    1.1008    4.9048 H   0  0  0  0  0  0  0  0  0  0  0  0
    6.1808   -2.1086    3.6564 H   0  0  0  0  0  0  0  0  0  0  0  0
    4.8232   -2.8721    3.1050 H   0  0  0  0  0  0  0  0  0  0  0  0
    6.1297   -0.6789    1.5622 H   0  0  0  0  0  0  0  0  0  0  0  0
    6.0650   -2.3956    1.2493 H   0  0  0  0  0  0  0  0  0  0  0  0
    4.3476   -1.1593   -0.0314 H   0  0  0  0  0  0  0  0  0  0  0  0
    3.5601   -2.2678    1.0951 H   0  0  0  0  0  0  0  0  0  0  0  0
    3.8653    1.6121    3.0984 H   0  0  0  0  0  0  0  0  0  0  0  0
    1.2260    0.0663    2.6367 H   0  0  0  0  0  0  0  0  0  0  0  0
    1.4885   -1.7573    1.8275 H   0  0  0  0  0  0  0  0  0  0  0  0
   -0.0273    0.9620    3.7845 H   0  0  0  0  0  0  0  0  0  0  0  0
    1.3002    1.6459    5.1547 H   0  0  0  0  0  0  0  0  0  0  0  0
    3.5249    3.5517    6.8514 H   0  0  0  0  0  0  0  0  0  0  0  0
    2.2354    3.9571    7.9733 H   0  0  0  0  0  0  0  0  0  0  0  0
    1.8421    3.4740    6.3365 H   0  0  0  0  0  0  0  0  0  0  0  0
    4.3861    1.6781    8.7052 H   0  0  0  0  0  0  0  0  0  0  0  0
    3.0517    0.8279    9.5329 H   0  0  0  0  0  0  0  0  0  0  0  0
    3.1443    2.5637    9.5694 H   0  0  0  0  0  0  0  0  0  0  0  0
    3.3624    1.5034    5.8191 H   0  0  0  0  0  0  0  0  0  0  0  0
    4.7445    0.1026    6.6731 H   0  0  0  0  0  0  0  0  0  0  0  0
    4.1218   -0.2282    8.5094 H   0  0  0  0  0  0  0  0  0  0  0  0
    5.0656   -2.1481    6.8718 H   0  0  0  0  0  0  0  0  0  0  0  0
    3.1971   -3.1840    6.8285 H   0  0  0  0  0  0  0  0  0  0  0  0
    2.1493   -1.0412    7.1532 H   0  0  0  0  0  0  0  0  0  0  0  0
   -0.1116   -2.8108    7.9813 H   0  0  0  0  0  0  0  0  0  0  0  0
   -1.5850   -3.6349    6.5234 H   0  0  0  0  0  0  0  0  0  0  0  0
   -0.8719   -5.1933    6.6921 H   0  0  0  0  0  0  0  0  0  0  0  0
    1.3791   -2.4385   10.4404 H   0  0  0  0  0  0  0  0  0  0  0  0
    0.0157   -2.8698   11.4785 H   0  0  0  0  0  0  0  0  0  0  0  0
   -0.2848   -2.1580    9.9319 H   0  0  0  0  0  0  0  0  0  0  0  0
    1.9098   -5.2151   11.0733 H   0  0  0  0  0  0  0  0  0  0  0  0
    0.5361   -6.2820   10.7271 H   0  0  0  0  0  0  0  0  0  0  0  0
    0.3612   -5.0152   11.8937 H   0  0  0  0  0  0  0  0  0  0  0  0
    2.1692   -3.9671    8.6830 H   0  0  0  0  0  0  0  0  0  0  0  0
    1.6469   -6.4448    8.9239 H   0  0  0  0  0  0  0  0  0  0  0  0
    0.3620   -6.3398    7.8439 H   0  0  0  0  0  0  0  0  0  0  0  0
    2.3072   -7.3227    7.0486 H   0  0  0  0  0  0  0  0  0  0  0  0
    6.4887   -7.3988    6.2636 H   0  0  0  0  0  0  0  0  0  0  0  0
    4.9867   -4.2301    6.4983 H   0  0  0  0  0  0  0  0  0  0  0  0
    5.6824   -3.5966    4.5421 H   0  0  0  0  0  0  0  0  0  0  0  0
    3.0161   -3.3351    3.3633 H   0  0  0  0  0  0  0  0  0  0  0  0
    4.0510   -4.7009    3.1281 H   0  0  0  0  0  0  0  0  0  0  0  0
    0.1831   -5.7884    2.7215 H   0  0  0  0  0  0  0  0  0  0  0  0
    3.2047   -8.2081    2.8923 H   0  0  0  0  0  0  0  0  0  0  0  0
    3.3132   -7.1953    1.4385 H   0  0  0  0  0  0  0  0  0  0  0  0
    2.7877   -8.8678    1.3731 H   0  0  0  0  0  0  0  0  0  0  0  0
    1.0884   -9.1342    3.6653 H   0  0  0  0  0  0  0  0  0  0  0  0
    0.6743   -9.6217    2.0088 H   0  0  0  0  0  0  0  0  0  0  0  0
   -0.4601   -8.6424    2.9023 H   0  0  0  0  0  0  0  0  0  0  0  0
    0.5950   -8.1725    0.5842 H   0  0  0  0  0  0  0  0  0  0  0  0
    0.7956   -4.1128    4.3751 H   0  0  0  0  0  0  0  0  0  0  0  0
    0.6846  -10.0031    6.6242 H   0  0  0  0  0  0  0  0  0  0  0  0
   -0.5248   -9.8129    5.3755 H   0  0  0  0  0  0  0  0  0  0  0  0
   -0.7822   -9.1065    6.9976 H   0  0  0  0  0  0  0  0  0  0  0  0
    6.3379   -7.4259    4.1549 H   0  0  0  0  0  0  0  0  0  0  0  0
    5.1143   -6.5685    3.2823 H   0  0  0  0  0  0  0  0  0  0  0  0
    5.0030   -8.2748    3.3526 H   0  0  0  0  0  0  0  0  0  0  0  0
    5.2972   -9.1134    6.0768 H   0  0  0  0  0  0  0  0  0  0  0  0
    3.9298   -9.4290    5.0260 H   0  0  0  0  0  0  0  0  0  0  0  0
    3.6612   -8.8692    6.6411 H   0  0  0  0  0  0  0  0  0  0  0  0
    0.0488   -2.4128    4.5810 H   0  0  0  0  0  0  0  0  0  0  0  0
   -1.2533   -0.8386    5.3785 H   0  0  0  0  0  0  0  0  0  0  0  0
  1  2  2  0
  1 69  1  0
  1 70  1  0
  3  2  1  1
  2 71  1  0
  3  9  1  0
  3 25  1  0
  3  4  1  0
  4  5  1  0
  4 72  1  0
  4 73  1  0
  5  6  1  0
  5 74  1  0
  5 75  1  0
  6  7  1  0
  6 76  1  0
  6 77  1  0
  7  8  2  0
  7  9  1  0
  9 10  1  1
  9 11  1  0
 10 78  1  0
 11 12  1  0
 11 13  1  0
 11 79  1  6
 12 80  1  0
 13 67  1  0
 13 14  1  6
 13 15  1  0
 14 81  1  0
 15 22  1  0
 15 16  1  0
 15 82  1  6
 16 17  1  0
 17 18  2  0
 17 19  1  0
 19 20  1  0
 19 21  1  0
 19 22  1  0
 20 83  1  0
 20 84  1  0
 20 85  1  0
 21 86  1  0
 21 87  1  0
 21 88  1  0
 22 23  1  0
 22 89  1  6
 23 24  1  0
 23 25  1  0
 23 90  1  6
 24 91  1  0
 25 26  1  1
 25 27  1  0
 26 92  1  0
 27 47  1  0
 27 28  1  0
 27 93  1  1
 28 29  1  1
 28 30  1  0
 28 67  1  0
 29 94  1  0
 30 38  1  0
 30 31  1  0
 30 95  1  1
 31 32  1  0
 31 96  1  0
 31 97  1  0
 32 33  2  0
 32 34  1  0
 34 35  1  0
 35 36  1  0
 35 37  1  0
 35 38  1  0
 36 98  1  0
 36 99  1  0
 36100  1  0
 37101  1  0
 37102  1  0
 37103  1  0
 38 39  1  0
 38104  1  1
 39 40  1  0
 39105  1  0
 39106  1  0
 40 62  1  0
 40 41  1  0
 40107  1  6
 41 42  2  0
 41 43  1  6
 43 64  1  0
 43 44  1  1
 43 45  1  0
 44108  1  0
 45 46  1  0
 45 47  1  0
 45109  1  1
 46110  1  0
 47 62  1  0
 47 48  1  6
 48 49  1  0
 48111  1  0
 48112  1  0
 49 50  2  0
 49 51  1  0
 51 52  1  0
 51 56  1  0
 51113  1  6
 52 53  1  0
 52 54  1  0
 52 55  1  0
 53114  1  0
 53115  1  0
 53116  1  0
 54117  1  0
 54118  1  0
 54119  1  0
 55120  1  0
 56 57  1  6
 56 58  1  0
 56 62  1  0
 57121  1  0
 58 59  2  0
 58 60  1  0
 60 61  1  0
 61122  1  0
 61123  1  0
 61124  1  0
 62 63  1  6
 63 64  1  0
 64 65  1  0
 64 66  1  0
 65125  1  0
 65126  1  0
 65127  1  0
 66128  1  0
 66129  1  0
 66130  1  0
 67 68  1  0
 67131  1  6
 68132  1  0
M  END
>  <i_m_ct_stereo_status>  (23) 
1

>  <s_m_source_file>  (23) 
/var/tmp/pbs.5075288.sched01/tmpg6npxhsy/83n53gbz8q.sdf

>  <i_m_source_file_index>  (23) 
59

>  <i_lp_mmshare_version>  (23) 
48012

>  <i_f3d_flags>  (23) 
0

>  <s_epik_input>  (23) 
TzFDKD1PKUMoW0NIM10pKFtDSDNdKVtDQEBIXShbQ0BIXTJbT0hdKVtDQEhdMVtDQF0oW09IXSkoW0NAQEhdM1tPSF0pW0NASF0oW09IXSlbQ0BdKFtPSF0pKEMoPU8pW0NIMl1bQ0gyXVtDSDJdNClbQ0BAXTQoW0NIXT1bQ0gyXSlbQ0BdMihbT0hdKVtDQEhdNVtDQF0zKFtPSF0pW0NAQEhdKFtDSDJdQyg9TylPQzYoW0NIM10pW0NIM10pW0NAQEhdNltDSDJdW0NASF0oW1MrXShbTy1dKVtDQF0oW09IXSkoW0NASF03W09IXSlDKE84KShbQ0gzXSlbQ0gzXSlbQ0BdOChbQ0BAXTU3OSlbQ0BAXShbT0hdKShbQ0BASF0oQyg9TylbQ0gyXTkpQyhbQ0gzXSkoW0NIM10pW09IXSlDKD1PKU9bQ0gzXQ==

>  <s_epik_cmdline>  (23) 
J2VwaWtfcHl0aG9uJywgJy1waHQnLCAnMi4wJywgJy1waCcsICc3LjAnLCAnLXRuJywgJzgnLCAnLW1hJywgJzIwMCcsICctaW1hZScsICc8aW5maWxlLm1hZT4nLCAnLW9tYWUnLCAnPG91dGZpbGUubWFlPic=

>  <r_lp_tautomer_probability>  (23) 
1

>  <r_epik_Ionization_Penalty>  (23) 
2.36719e-06

>  <r_epik_Ionization_Penalty_Charging>  (23) 
0

>  <r_epik_Ionization_Penalty_Neutral>  (23) 
2.36719e-06

>  <r_epik_State_Penalty>  (23) 
-0

>  <r_epik_Charging_Adjusted_Penalty>  (23) 
0

>  <i_epik_Tot_Q>  (23) 
0

>  <i_epik_Tot_abs_Q>  (23) 
2

>  <s_epik_Chemistry_Notes>  (23) 
This compound has an ester and may undergo hydrolysis at high or low pH.

>  <s_lp_Force_Field>  (23) 
OPLS3e

>  <r_lp_Energy>  (23) 
314.567

>  <b_lp_Chiralities_Consistent>  (23) 
1

>  <s_lp_Variant>  (23) 
26:0-1

>  <s_i_glide_gridfile>  (23) 
pfpi4k_grid

>  <i_i_glide_lignum>  (23) 
59

>  <i_i_glide_rotatable_bonds>  (23) 
15

>  <r_i_docking_score>  (23) 
-3.39723

>  <r_i_glide_ligand_efficiency>  (23) 
-0.0499593

>  <r_i_glide_ligand_efficiency_sa>  (23) 
-0.203916

>  <r_i_glide_ligand_efficiency_ln>  (23) 
-0.650872

>  <r_i_glide_gscore>  (23) 
-3.39723

>  <r_i_glide_lipo>  (23) 
-0.417642

>  <r_i_glide_hbond>  (23) 
-0.00347698

>  <r_i_glide_metal>  (23) 
-0

>  <r_i_glide_rewards>  (23) 
-0.501517

>  <r_i_glide_evdw>  (23) 
-30.9683

>  <r_i_glide_ecoul>  (23) 
-8.14351

>  <r_i_glide_erotb>  (23) 
0.0687664

>  <r_i_glide_esite>  (23) 
-0.0694171

>  <r_i_glide_emodel>  (23) 
-42.9726

>  <r_i_glide_energy>  (23) 
-39.1118

>  <r_i_glide_einternal>  (23) 
10.4931

>  <r_i_glide_intrahb_reward>  (23) 
-0.5

>  <i_i_glide_confnum>  (23) 
3

>  <i_i_glide_posenum>  (23) 
7

>  <r_i_glide_eff_state_penalty>  (23) 
0

>  <ligand_id>  (23) 
26

>  <original_smiles>  (23) 
C=CC12CCCC(=O)C1(O)C(O)C1(O)C3OC(=O)C(C)(C)C3C(O)C2(O)C2C(O)(C3CC(=O)OC(C)(C)C3CC3[S+]([O-])C4(O)C(O)C25CC(=O)C(C(C)(C)O)C(O)(C(=O)OC)C35OC4(C)C)C1O

>  <smiles>  (23) 
[H]OC1([H])C2(O[H])C(=O)C([H])([H])C([H])([H])C([H])([H])C2(C([H])=C([H])[H])C2(O[H])C([H])(O[H])C3([H])C([H])(OC(=O)C3(C([H])([H])[H])C([H])([H])[H])C1(O[H])C([H])(O[H])C1(O[H])C3([H])C([H])([H])C(=O)OC(C([H])([H])[H])(C([H])([H])[H])C3([H])C([H])([H])C3([H])S(=O)C4(O[H])C([H])(O[H])C5(C([H])([H])C(=O)C([H])(C(O[H])(C([H])([H])[H])C([H])([H])[H])C(O[H])(C(=O)OC([H])([H])[H])C35OC4(C([H])([H])[H])C([H])([H])[H])C12[H]

$$$$
26:0:1
     RDKit          3D

132140  0  0  1  0  0  0  0  0999 V2000
    2.5685    7.0497    7.0570 C   0  0  0  0  0  0  0  0  0  0  0  0
    1.7177    6.0003    6.9563 C   0  0  0  0  0  0  0  0  0  0  0  0
    1.8555    4.5802    6.2782 C   0  0  2  0  0  0  0  0  0  0  0  0
    3.2662    4.7348    5.5716 C   0  0  0  0  0  0  0  0  0  0  0  0
    3.3453    5.5891    4.2919 C   0  0  0  0  0  0  0  0  0  0  0  0
    2.3700    5.0397    3.2650 C   0  0  0  0  0  0  0  0  0  0  0  0
    0.9855    5.1988    3.8489 C   0  0  0  0  0  0  0  0  0  0  0  0
    0.1154    5.8504    3.2328 O   0  0  0  0  0  0  0  0  0  0  0  0
    0.6402    4.5340    5.1921 C   0  0  2  0  0  0  0  0  0  0  0  0
   -0.4469    5.3363    5.6399 O   0  0  0  0  0  0  0  0  0  0  0  0
   -0.1172    3.2061    4.8704 C   0  0  1  0  0  0  0  0  0  0  0  0
    0.6518    2.3270    4.0827 O   0  0  0  0  0  0  0  0  0  0  0  0
   -0.9071    2.3972    5.9837 C   0  0  2  0  0  0  0  0  0  0  0  0
   -2.1075    2.1803    5.2347 O   0  0  0  0  0  0  0  0  0  0  0  0
   -1.5307    3.2099    7.1897 C   0  0  1  0  0  0  0  0  0  0  0  0
   -2.3788    2.4321    8.0091 O   0  0  0  0  0  0  0  0  0  0  0  0
   -2.5483    2.8892    9.2395 C   0  0  0  0  0  0  0  0  0  0  0  0
   -3.2744    2.4452   10.0791 O   0  0  0  0  0  0  0  0  0  0  0  0
   -1.7524    4.1655    9.4190 C   0  0  0  0  0  0  0  0  0  0  0  0
   -2.7349    5.3120    9.1585 C   0  0  0  0  0  0  0  0  0  0  0  0
   -1.2836    4.2873   10.8936 C   0  0  0  0  0  0  0  0  0  0  0  0
   -0.7309    4.0438    8.2591 C   0  0  1  0  0  0  0  0  0  0  0  0
    0.7928    3.7972    8.5832 C   0  0  1  0  0  0  0  0  0  0  0  0
    1.0830    3.1534    9.8072 O   0  0  0  0  0  0  0  0  0  0  0  0
    1.8327    3.3735    7.4396 C   0  0  2  0  0  0  0  0  0  0  0  0
    2.9373    3.8125    8.2109 O   0  0  0  0  0  0  0  0  0  0  0  0
    2.0823    1.6639    7.2775 C   0  0  1  0  0  0  0  0  0  0  0  0
    0.7318    0.7034    7.3984 C   0  0  2  0  0  0  0  0  0  0  0  0
    0.0729    1.1653    8.5419 O   0  0  0  0  0  0  0  0  0  0  0  0
    0.7197   -0.8129    8.0506 C   0  0  1  0  0  0  0  0  0  0  0  0
    0.2939   -2.1342    7.3370 C   0  0  0  0  0  0  0  0  0  0  0  0
   -0.1809   -3.2403    8.3006 C   0  0  0  0  0  0  0  0  0  0  0  0
   -0.9104   -4.1264    7.8891 O   0  0  0  0  0  0  0  0  0  0  0  0
    0.2350   -3.1835    9.6003 O   0  0  0  0  0  0  0  0  0  0  0  0
    0.9063   -2.0751   10.2353 C   0  0  0  0  0  0  0  0  0  0  0  0
   -0.1531   -1.2473   11.0154 C   0  0  0  0  0  0  0  0  0  0  0  0
    1.8128   -2.7070   11.3187 C   0  0  0  0  0  0  0  0  0  0  0  0
    1.6981   -1.1968    9.1921 C   0  0  1  0  0  0  0  0  0  0  0  0
    2.9103   -1.9849    8.6364 C   0  0  0  0  0  0  0  0  0  0  0  0
    4.0225   -1.2654    7.8701 C   0  0  2  0  0  0  0  0  0  0  0  0
    4.9666   -0.2585    9.0886 S   0  0  0  0  0  0  0  0  0  0  0  0
    5.9672   -1.2178    9.7537 O   0  0  0  0  0  0  0  0  0  0  0  0
    5.8504    0.7609    7.8339 C   0  0  2  0  0  0  0  0  0  0  0  0
    6.9291    1.4772    8.3986 O   0  0  0  0  0  0  0  0  0  0  0  0
    4.7246    1.7248    7.3995 C   0  0  1  0  0  0  0  0  0  0  0  0
    5.3951    2.8697    6.8654 O   0  0  0  0  0  0  0  0  0  0  0  0
    3.4943    1.0634    6.5563 C   0  0  2  0  0  0  0  0  0  0  0  0
    3.5711    1.5145    5.0408 C   0  0  0  0  0  0  0  0  0  0  0  0
    3.3734    0.6185    3.7957 C   0  0  0  0  0  0  0  0  0  0  0  0
    3.0604    1.1579    2.7190 O   0  0  0  0  0  0  0  0  0  0  0  0
    3.5037   -0.9012    3.8207 C   0  0  1  0  0  0  0  0  0  0  0  0
    4.6827   -1.4785    2.8939 C   0  0  0  0  0  0  0  0  0  0  0  0
    5.9188   -0.5803    2.8539 C   0  0  0  0  0  0  0  0  0  0  0  0
    5.2534   -2.8838    3.1935 C   0  0  0  0  0  0  0  0  0  0  0  0
    4.1955   -1.5141    1.5544 O   0  0  0  0  0  0  0  0  0  0  0  0
    3.1468   -1.3766    5.2916 C   0  0  1  0  0  0  0  0  0  0  0  0
    1.7723   -1.0195    5.3071 O   0  0  0  0  0  0  0  0  0  0  0  0
    3.2218   -2.9279    5.3923 C   0  0  0  0  0  0  0  0  0  0  0  0
    4.0900   -3.5276    6.0418 O   0  0  0  0  0  0  0  0  0  0  0  0
    2.2462   -3.5741    4.7380 O   0  0  0  0  0  0  0  0  0  0  0  0
    2.2492   -4.9884    4.7392 C   0  0  0  0  0  0  0  0  0  0  0  0
    3.8630   -0.5275    6.4781 C   0  0  2  0  0  0  0  0  0  0  0  0
    5.2159   -0.5893    5.9441 O   0  0  0  0  0  0  0  0  0  0  0  0
    6.3663   -0.0869    6.6526 C   0  0  0  0  0  0  0  0  0  0  0  0
    7.2192    0.7750    5.6791 C   0  0  0  0  0  0  0  0  0  0  0  0
    7.2719   -1.2761    7.0376 C   0  0  0  0  0  0  0  0  0  0  0  0
   -0.3727    0.9374    6.2891 C   0  0  1  0  0  0  0  0  0  0  0  0
   -1.5181    0.1389    6.5341 O   0  0  0  0  0  0  0  0  0  0  0  0
    3.5608    7.0836    6.6461 H   0  0  0  0  0  0  0  0  0  0  0  0
    2.2378    7.9314    7.5812 H   0  0  0  0  0  0  0  0  0  0  0  0
    0.7884    6.2489    7.4302 H   0  0  0  0  0  0  0  0  0  0  0  0
    4.0120    5.1011    6.2760 H   0  0  0  0  0  0  0  0  0  0  0  0
    3.7005    3.8271    5.2586 H   0  0  0  0  0  0  0  0  0  0  0  0
    3.1397    6.6490    4.4606 H   0  0  0  0  0  0  0  0  0  0  0  0
    4.3603    5.5528    3.8983 H   0  0  0  0  0  0  0  0  0  0  0  0
    2.4633    5.5699    2.3223 H   0  0  0  0  0  0  0  0  0  0  0  0
    2.5770    3.9870    3.0622 H   0  0  0  0  0  0  0  0  0  0  0  0
   -0.7602    5.0179    6.4597 H   0  0  0  0  0  0  0  0  0  0  0  0
   -0.8493    3.5484    4.1227 H   0  0  0  0  0  0  0  0  0  0  0  0
    0.7626    2.6823    3.2080 H   0  0  0  0  0  0  0  0  0  0  0  0
   -1.8613    1.8063    4.3983 H   0  0  0  0  0  0  0  0  0  0  0  0
   -2.2113    3.9347    6.7284 H   0  0  0  0  0  0  0  0  0  0  0  0
   -2.2426    6.2833    9.1942 H   0  0  0  0  0  0  0  0  0  0  0  0
   -3.4660    5.3023    9.9557 H   0  0  0  0  0  0  0  0  0  0  0  0
   -3.2843    5.2089    8.2175 H   0  0  0  0  0  0  0  0  0  0  0  0
   -0.5153    5.0517   11.0007 H   0  0  0  0  0  0  0  0  0  0  0  0
   -0.9130    3.3430   11.2993 H   0  0  0  0  0  0  0  0  0  0  0  0
   -2.1086    4.5660   11.5531 H   0  0  0  0  0  0  0  0  0  0  0  0
   -0.7452    5.0694    7.9237 H   0  0  0  0  0  0  0  0  0  0  0  0
    1.0505    4.7895    8.9626 H   0  0  0  0  0  0  0  0  0  0  0  0
    1.9833    3.4003    9.9863 H   0  0  0  0  0  0  0  0  0  0  0  0
    3.7354    3.6760    7.7408 H   0  0  0  0  0  0  0  0  0  0  0  0
    2.3777    1.4638    8.3046 H   0  0  0  0  0  0  0  0  0  0  0  0
    0.0802    2.1080    8.6038 H   0  0  0  0  0  0  0  0  0  0  0  0
   -0.2558   -0.8687    8.5263 H   0  0  0  0  0  0  0  0  0  0  0  0
   -0.5225   -1.9950    6.6270 H   0  0  0  0  0  0  0  0  0  0  0  0
    1.0892   -2.6261    6.7933 H   0  0  0  0  0  0  0  0  0  0  0  0
    0.2307   -0.2730   11.3404 H   0  0  0  0  0  0  0  0  0  0  0  0
   -0.5153   -1.7790   11.8995 H   0  0  0  0  0  0  0  0  0  0  0  0
   -1.0342   -1.0636   10.4155 H   0  0  0  0  0  0  0  0  0  0  0  0
    2.5034   -1.9785   11.7580 H   0  0  0  0  0  0  0  0  0  0  0  0
    2.3840   -3.5487   10.9222 H   0  0  0  0  0  0  0  0  0  0  0  0
    1.2113   -3.1228   12.1289 H   0  0  0  0  0  0  0  0  0  0  0  0
    2.0425   -0.2921    9.6891 H   0  0  0  0  0  0  0  0  0  0  0  0
    3.4571   -2.3885    9.4786 H   0  0  0  0  0  0  0  0  0  0  0  0
    2.6114   -2.9011    8.1285 H   0  0  0  0  0  0  0  0  0  0  0  0
    4.7275   -2.0695    7.6980 H   0  0  0  0  0  0  0  0  0  0  0  0
    6.9268    2.3260    7.9718 H   0  0  0  0  0  0  0  0  0  0  0  0
    4.3672    2.0466    8.3798 H   0  0  0  0  0  0  0  0  0  0  0  0
    4.8034    3.4654    6.4346 H   0  0  0  0  0  0  0  0  0  0  0  0
    2.7677    2.2184    4.9324 H   0  0  0  0  0  0  0  0  0  0  0  0
    4.4924    2.0424    4.8275 H   0  0  0  0  0  0  0  0  0  0  0  0
    2.6248   -1.2278    3.2596 H   0  0  0  0  0  0  0  0  0  0  0  0
    6.2778   -0.4716    3.8390 H   0  0  0  0  0  0  0  0  0  0  0  0
    5.6893    0.3713    2.3625 H   0  0  0  0  0  0  0  0  0  0  0  0
    6.7024   -1.0337    2.2270 H   0  0  0  0  0  0  0  0  0  0  0  0
    5.7243   -2.8985    4.1939 H   0  0  0  0  0  0  0  0  0  0  0  0
    6.0223   -3.1804    2.4658 H   0  0  0  0  0  0  0  0  0  0  0  0
    4.4893   -3.6598    3.1643 H   0  0  0  0  0  0  0  0  0  0  0  0
    3.5230   -2.1824    1.4953 H   0  0  0  0  0  0  0  0  0  0  0  0
    1.7021   -0.1076    5.0761 H   0  0  0  0  0  0  0  0  0  0  0  0
    1.3738   -5.3620    4.2145 H   0  0  0  0  0  0  0  0  0  0  0  0
    2.2450   -5.3768    5.7577 H   0  0  0  0  0  0  0  0  0  0  0  0
    3.1431   -5.3627    4.2400 H   0  0  0  0  0  0  0  0  0  0  0  0
    7.8884    1.4747    6.2057 H   0  0  0  0  0  0  0  0  0  0  0  0
    6.5457    1.3720    5.0823 H   0  0  0  0  0  0  0  0  0  0  0  0
    7.7484    0.1702    4.9334 H   0  0  0  0  0  0  0  0  0  0  0  0
    8.1824   -0.9247    7.5293 H   0  0  0  0  0  0  0  0  0  0  0  0
    7.5713   -1.8034    6.1382 H   0  0  0  0  0  0  0  0  0  0  0  0
    6.8128   -2.0389    7.6598 H   0  0  0  0  0  0  0  0  0  0  0  0
   -0.0473    0.4993    5.3520 H   0  0  0  0  0  0  0  0  0  0  0  0
   -2.1417    0.4569    5.8837 H   0  0  0  0  0  0  0  0  0  0  0  0
  1  2  2  0
  1 69  1  0
  1 70  1  0
  3  2  1  1
  2 71  1  0
  3  9  1  0
  3 25  1  0
  3  4  1  0
  4  5  1  0
  4 72  1  0
  4 73  1  0
  5  6  1  0
  5 74  1  0
  5 75  1  0
  6  7  1  0
  6 76  1  0
  6 77  1  0
  7  8  2  0
  7  9  1  0
  9 10  1  1
  9 11  1  0
 10 78  1  0
 11 12  1  0
 11 13  1  0
 11 79  1  6
 12 80  1  0
 13 67  1  0
 13 14  1  6
 13 15  1  0
 14 81  1  0
 15 22  1  0
 15 16  1  0
 15 82  1  6
 16 17  1  0
 17 18  2  0
 17 19  1  0
 19 20  1  0
 19 21  1  0
 19 22  1  0
 20 83  1  0
 20 84  1  0
 20 85  1  0
 21 86  1  0
 21 87  1  0
 21 88  1  0
 22 23  1  0
 22 89  1  6
 23 24  1  0
 23 25  1  0
 23 90  1  1
 24 91  1  0
 25 26  1  1
 25 27  1  0
 26 92  1  0
 27 47  1  0
 27 28  1  0
 27 93  1  1
 28 29  1  1
 28 30  1  0
 28 67  1  0
 29 94  1  0
 30 38  1  0
 30 31  1  0
 30 95  1  1
 31 32  1  0
 31 96  1  0
 31 97  1  0
 32 33  2  0
 32 34  1  0
 34 35  1  0
 35 36  1  0
 35 37  1  0
 35 38  1  0
 36 98  1  0
 36 99  1  0
 36100  1  0
 37101  1  0
 37102  1  0
 37103  1  0
 38 39  1  0
 38104  1  1
 39 40  1  0
 39105  1  0
 39106  1  0
 40 62  1  0
 40 41  1  0
 40107  1  6
 41 42  2  0
 41 43  1  6
 43 64  1  0
 43 44  1  1
 43 45  1  0
 44108  1  0
 45 46  1  0
 45 47  1  0
 45109  1  1
 46110  1  0
 47 62  1  0
 47 48  1  6
 48 49  1  0
 48111  1  0
 48112  1  0
 49 50  2  0
 49 51  1  0
 51 52  1  0
 51 56  1  0
 51113  1  6
 52 53  1  0
 52 54  1  0
 52 55  1  0
 53114  1  0
 53115  1  0
 53116  1  0
 54117  1  0
 54118  1  0
 54119  1  0
 55120  1  0
 56 57  1  1
 56 58  1  0
 56 62  1  0
 57121  1  0
 58 59  2  0
 58 60  1  0
 60 61  1  0
 61122  1  0
 61123  1  0
 61124  1  0
 62 63  1  6
 63 64  1  0
 64 65  1  0
 64 66  1  0
 65125  1  0
 65126  1  0
 65127  1  0
 66128  1  0
 66129  1  0
 66130  1  0
 67 68  1  0
 67131  1  6
 68132  1  0
M  END
>  <i_m_ct_stereo_status>  (24) 
1

>  <s_m_source_file>  (24) 
/var/tmp/pbs.5075288.sched01/tmpg6npxhsy/83n53gbz8q.sdf

>  <i_m_source_file_index>  (24) 
59

>  <i_lp_mmshare_version>  (24) 
48012

>  <i_f3d_flags>  (24) 
0

>  <s_epik_input>  (24) 
TzFDKD1PKUMoW0NIM10pKFtDSDNdKVtDQEBIXShbQ0BIXTJbT0hdKVtDQEhdMVtDQF0oW09IXSkoW0NAQEhdM1tPSF0pW0NASF0oW09IXSlbQ0BdKFtPSF0pKEMoPU8pW0NIMl1bQ0gyXVtDSDJdNClbQ0BAXTQoW0NIXT1bQ0gyXSlbQ0BdMihbT0hdKVtDQEhdNVtDQF0zKFtPSF0pW0NAQEhdKFtDSDJdQyg9TylPQzYoW0NIM10pW0NIM10pW0NAQEhdNltDSDJdW0NASF0oW1MrXShbTy1dKVtDQF0oW09IXSkoW0NASF03W09IXSlDKE84KShbQ0gzXSlbQ0gzXSlbQ0BdOChbQ0BAXTU3OSlbQ0BAXShbT0hdKShbQ0BASF0oQyg9TylbQ0gyXTkpQyhbQ0gzXSkoW0NIM10pW09IXSlDKD1PKU9bQ0gzXQ==

>  <s_epik_cmdline>  (24) 
J2VwaWtfcHl0aG9uJywgJy1waHQnLCAnMi4wJywgJy1waCcsICc3LjAnLCAnLXRuJywgJzgnLCAnLW1hJywgJzIwMCcsICctaW1hZScsICc8aW5maWxlLm1hZT4nLCAnLW9tYWUnLCAnPG91dGZpbGUubWFlPic=

>  <r_lp_tautomer_probability>  (24) 
1

>  <r_epik_Ionization_Penalty>  (24) 
2.36719e-06

>  <r_epik_Ionization_Penalty_Charging>  (24) 
0

>  <r_epik_Ionization_Penalty_Neutral>  (24) 
2.36719e-06

>  <r_epik_State_Penalty>  (24) 
-0

>  <r_epik_Charging_Adjusted_Penalty>  (24) 
0

>  <i_epik_Tot_Q>  (24) 
0

>  <i_epik_Tot_abs_Q>  (24) 
2

>  <s_epik_Chemistry_Notes>  (24) 
This compound has an ester and may undergo hydrolysis at high or low pH.

>  <s_lp_Force_Field>  (24) 
OPLS3e

>  <r_lp_Energy>  (24) 
314.567

>  <b_lp_Chiralities_Consistent>  (24) 
1

>  <s_lp_Variant>  (24) 
26:0-1

>  <s_i_glide_gridfile>  (24) 
pfpi4k_grid

>  <i_i_glide_lignum>  (24) 
59

>  <i_i_glide_rotatable_bonds>  (24) 
15

>  <r_i_docking_score>  (24) 
-3.21504

>  <r_i_glide_ligand_efficiency>  (24) 
-0.0472799

>  <r_i_glide_ligand_efficiency_sa>  (24) 
-0.19298

>  <r_i_glide_ligand_efficiency_ln>  (24) 
-0.615965

>  <r_i_glide_gscore>  (24) 
-3.21504

>  <r_i_glide_lipo>  (24) 
-0.541887

>  <r_i_glide_hbond>  (24) 
0

>  <r_i_glide_metal>  (24) 
-0

>  <r_i_glide_rewards>  (24) 
0

>  <r_i_glide_evdw>  (24) 
-36.7807

>  <r_i_glide_ecoul>  (24) 
-4.98143

>  <r_i_glide_erotb>  (24) 
0.0687664

>  <r_i_glide_esite>  (24) 
-0.155665

>  <r_i_glide_emodel>  (24) 
-43.0716

>  <r_i_glide_energy>  (24) 
-41.7621

>  <r_i_glide_einternal>  (24) 
8.08041

>  <r_i_glide_intrahb_reward>  (24) 
-0

>  <i_i_glide_confnum>  (24) 
3

>  <i_i_glide_posenum>  (24) 
9

>  <r_i_glide_eff_state_penalty>  (24) 
0

>  <ligand_id>  (24) 
26

>  <original_smiles>  (24) 
C=CC12CCCC(=O)C1(O)C(O)C1(O)C3OC(=O)C(C)(C)C3C(O)C2(O)C2C(O)(C3CC(=O)OC(C)(C)C3CC3[S+]([O-])C4(O)C(O)C25CC(=O)C(C(C)(C)O)C(O)(C(=O)OC)C35OC4(C)C)C1O

>  <smiles>  (24) 
[H]OC1([H])C2(O[H])C(=O)C([H])([H])C([H])([H])C([H])([H])C2(C([H])=C([H])[H])C2(O[H])C([H])(O[H])C3([H])C([H])(OC(=O)C3(C([H])([H])[H])C([H])([H])[H])C1(O[H])C([H])(O[H])C1(O[H])C3([H])C([H])([H])C(=O)OC(C([H])([H])[H])(C([H])([H])[H])C3([H])C([H])([H])C3([H])S(=O)C4(O[H])C([H])(O[H])C5(C([H])([H])C(=O)C([H])(C(O[H])(C([H])([H])[H])C([H])([H])[H])C(O[H])(C(=O)OC([H])([H])[H])C35OC4(C([H])([H])[H])C([H])([H])[H])C12[H]

$$$$
26:0:2
     RDKit          3D

132140  0  0  1  0  0  0  0  0999 V2000
    2.5596    6.8966    6.9180 C   0  0  0  0  0  0  0  0  0  0  0  0
    1.6685    5.8845    6.8830 C   0  0  0  0  0  0  0  0  0  0  0  0
    1.6969    4.4549    6.2016 C   0  0  2  0  0  0  0  0  0  0  0  0
    3.0588    4.5490    5.4014 C   0  0  0  0  0  0  0  0  0  0  0  0
    3.1009    5.3782    4.1086 C   0  0  0  0  0  0  0  0  0  0  0  0
    2.0438    4.8661    3.1534 C   0  0  0  0  0  0  0  0  0  0  0  0
    0.7017    5.1065    3.8194 C   0  0  0  0  0  0  0  0  0  0  0  0
   -0.1758    5.7632    3.2478 O   0  0  0  0  0  0  0  0  0  0  0  0
    0.4221    4.4726    5.2009 C   0  0  2  0  0  0  0  0  0  0  0  0
   -0.5883    5.3377    5.6938 O   0  0  0  0  0  0  0  0  0  0  0  0
   -0.4074    3.1816    4.9368 C   0  0  1  0  0  0  0  0  0  0  0  0
    0.2661    2.2499    4.1215 O   0  0  0  0  0  0  0  0  0  0  0  0
   -1.1509    2.4212    6.1148 C   0  0  2  0  0  0  0  0  0  0  0  0
   -2.4069    2.2772    5.4585 O   0  0  0  0  0  0  0  0  0  0  0  0
   -1.6788    3.2494    7.3479 C   0  0  1  0  0  0  0  0  0  0  0  0
   -2.5088    2.4963    8.2212 O   0  0  0  0  0  0  0  0  0  0  0  0
   -2.6106    3.0057    9.4561 C   0  0  0  0  0  0  0  0  0  0  0  0
   -3.3401    2.6090   10.3414 O   0  0  0  0  0  0  0  0  0  0  0  0
   -1.7240    4.2370    9.5655 C   0  0  0  0  0  0  0  0  0  0  0  0
   -2.6451    5.4424    9.3534 C   0  0  0  0  0  0  0  0  0  0  0  0
   -1.1730    4.3415   11.0053 C   0  0  0  0  0  0  0  0  0  0  0  0
   -0.7735    4.0434    8.3519 C   0  0  1  0  0  0  0  0  0  0  0  0
    0.7599    3.7315    8.5905 C   0  0  1  0  0  0  0  0  0  0  0  0
    1.0883    3.1035    9.8304 O   0  0  0  0  0  0  0  0  0  0  0  0
    1.6978    3.2590    7.3740 C   0  0  2  0  0  0  0  0  0  0  0  0
    2.8968    3.6552    8.0037 O   0  0  0  0  0  0  0  0  0  0  0  0
    1.8486    1.5360    7.2251 C   0  0  1  0  0  0  0  0  0  0  0  0
    0.4793    0.6309    7.4326 C   0  0  2  0  0  0  0  0  0  0  0  0
   -0.0600    1.1608    8.6126 O   0  0  0  0  0  0  0  0  0  0  0  0
    0.4116   -0.8823    8.1029 C   0  0  1  0  0  0  0  0  0  0  0  0
   -0.0992   -2.1977    7.4250 C   0  0  0  0  0  0  0  0  0  0  0  0
   -0.5573   -3.2875    8.4190 C   0  0  0  0  0  0  0  0  0  0  0  0
   -1.3099   -4.1901    8.0571 O   0  0  0  0  0  0  0  0  0  0  0  0
   -0.0742   -3.2319    9.7058 O   0  0  0  0  0  0  0  0  0  0  0  0
    0.6724   -2.1287   10.2837 C   0  0  0  0  0  0  0  0  0  0  0  0
   -0.3076   -1.2577   11.1156 C   0  0  0  0  0  0  0  0  0  0  0  0
    1.6105   -2.7881   11.3199 C   0  0  0  0  0  0  0  0  0  0  0  0
    1.4398   -1.2943    9.1835 C   0  0  1  0  0  0  0  0  0  0  0  0
    2.5738   -2.1436    8.5601 C   0  0  0  0  0  0  0  0  0  0  0  0
    3.6558   -1.4897    7.7035 C   0  0  2  0  0  0  0  0  0  0  0  0
    4.7288   -0.5070    8.8554 S   0  0  0  0  0  0  0  0  0  0  0  0
    5.7263   -1.4829    9.4935 O   0  0  0  0  0  0  0  0  0  0  0  0
    5.5668    0.4797    7.5279 C   0  0  2  0  0  0  0  0  0  0  0  0
    6.7273    1.1533    7.9935 O   0  0  0  0  0  0  0  0  0  0  0  0
    4.4473    1.4722    7.1685 C   0  0  1  0  0  0  0  0  0  0  0  0
    4.9992    2.6291    6.5722 O   0  0  0  0  0  0  0  0  0  0  0  0
    3.1538    0.8613    6.4174 C   0  0  2  0  0  0  0  0  0  0  0  0
    3.1657    1.3208    4.9117 C   0  0  0  0  0  0  0  0  0  0  0  0
    2.9088    0.4674    3.6644 C   0  0  0  0  0  0  0  0  0  0  0  0
    2.6142    1.0592    2.6184 O   0  0  0  0  0  0  0  0  0  0  0  0
    2.9421   -1.0638    3.6961 C   0  0  1  0  0  0  0  0  0  0  0  0
    4.0319   -1.7530    2.7404 C   0  0  0  0  0  0  0  0  0  0  0  0
    3.5715   -3.1193    2.1815 C   0  0  0  0  0  0  0  0  0  0  0  0
    4.4391   -0.9206    1.4959 C   0  0  0  0  0  0  0  0  0  0  0  0
    5.2632   -1.9919    3.3747 O   0  0  0  0  0  0  0  0  0  0  0  0
    2.6410   -1.5385    5.1760 C   0  0  1  0  0  0  0  0  0  0  0  0
    1.2901   -1.1631    5.2555 O   0  0  0  0  0  0  0  0  0  0  0  0
    2.7256   -3.0917    5.2634 C   0  0  0  0  0  0  0  0  0  0  0  0
    3.7403   -3.6879    5.6194 O   0  0  0  0  0  0  0  0  0  0  0  0
    1.5844   -3.7152    4.8880 O   0  0  0  0  0  0  0  0  0  0  0  0
    1.4853   -5.1283    4.9637 C   0  0  0  0  0  0  0  0  0  0  0  0
    3.4244   -0.7367    6.3325 C   0  0  2  0  0  0  0  0  0  0  0  0
    4.7244   -0.8445    5.7139 O   0  0  0  0  0  0  0  0  0  0  0  0
    5.9329   -0.4278    6.3347 C   0  0  0  0  0  0  0  0  0  0  0  0
    6.6518    0.3920    5.2280 C   0  0  0  0  0  0  0  0  0  0  0  0
    6.7706   -1.6874    6.7197 C   0  0  0  0  0  0  0  0  0  0  0  0
   -0.6558    0.9306    6.3751 C   0  0  1  0  0  0  0  0  0  0  0  0
   -1.7768    0.1747    6.6322 O   0  0  0  0  0  0  0  0  0  0  0  0
    3.5206    6.8790    6.4401 H   0  0  0  0  0  0  0  0  0  0  0  0
    2.2973    7.7964    7.4498 H   0  0  0  0  0  0  0  0  0  0  0  0
    0.7838    6.1723    7.4229 H   0  0  0  0  0  0  0  0  0  0  0  0
    3.8673    4.8786    6.0510 H   0  0  0  0  0  0  0  0  0  0  0  0
    3.4130    3.6199    5.0712 H   0  0  0  0  0  0  0  0  0  0  0  0
    2.9568    6.4454    4.2842 H   0  0  0  0  0  0  0  0  0  0  0  0
    4.0858    5.2765    3.6539 H   0  0  0  0  0  0  0  0  0  0  0  0
    2.0892    5.3813    2.1955 H   0  0  0  0  0  0  0  0  0  0  0  0
    2.1759    3.8015    2.9577 H   0  0  0  0  0  0  0  0  0  0  0  0
   -0.8678    5.0035    6.5266 H   0  0  0  0  0  0  0  0  0  0  0  0
   -1.1571    3.5485    4.2160 H   0  0  0  0  0  0  0  0  0  0  0  0
    0.4958    2.6405    3.2888 H   0  0  0  0  0  0  0  0  0  0  0  0
   -2.2416    1.8659    4.6181 H   0  0  0  0  0  0  0  0  0  0  0  0
   -2.3610    4.0008    6.9260 H   0  0  0  0  0  0  0  0  0  0  0  0
   -2.0766    6.3744    9.2825 H   0  0  0  0  0  0  0  0  0  0  0  0
   -3.2969    5.5057   10.2281 H   0  0  0  0  0  0  0  0  0  0  0  0
   -3.2853    5.3372    8.4684 H   0  0  0  0  0  0  0  0  0  0  0  0
   -0.3678    5.0721   11.0637 H   0  0  0  0  0  0  0  0  0  0  0  0
   -0.8288    3.3858   11.4104 H   0  0  0  0  0  0  0  0  0  0  0  0
   -1.9472    4.6652   11.7090 H   0  0  0  0  0  0  0  0  0  0  0  0
   -0.7665    5.0593    7.9963 H   0  0  0  0  0  0  0  0  0  0  0  0
    1.0920    4.7110    8.9301 H   0  0  0  0  0  0  0  0  0  0  0  0
    0.8657    2.1802    9.7735 H   0  0  0  0  0  0  0  0  0  0  0  0
    3.6128    3.4761    7.3984 H   0  0  0  0  0  0  0  0  0  0  0  0
    2.2083    1.3348    8.2337 H   0  0  0  0  0  0  0  0  0  0  0  0
   -0.2914    2.0680    8.4820 H   0  0  0  0  0  0  0  0  0  0  0  0
   -0.5361   -0.8520    8.6411 H   0  0  0  0  0  0  0  0  0  0  0  0
   -0.9504   -2.0440    6.7838 H   0  0  0  0  0  0  0  0  0  0  0  0
    0.6461   -2.6945    6.8279 H   0  0  0  0  0  0  0  0  0  0  0  0
    0.1180   -0.2911   11.3925 H   0  0  0  0  0  0  0  0  0  0  0  0
   -0.6229   -1.7528   12.0359 H   0  0  0  0  0  0  0  0  0  0  0  0
   -1.2331   -1.0740   10.5844 H   0  0  0  0  0  0  0  0  0  0  0  0
    2.3558   -2.0878   11.7064 H   0  0  0  0  0  0  0  0  0  0  0  0
    2.1172   -3.6592   10.9002 H   0  0  0  0  0  0  0  0  0  0  0  0
    1.0394   -3.1683   12.1700 H   0  0  0  0  0  0  0  0  0  0  0  0
    1.8549   -0.4052    9.6554 H   0  0  0  0  0  0  0  0  0  0  0  0
    3.1516   -2.5672    9.3747 H   0  0  0  0  0  0  0  0  0  0  0  0
    2.2090   -3.0502    8.0713 H   0  0  0  0  0  0  0  0  0  0  0  0
    4.2656   -2.3592    7.4658 H   0  0  0  0  0  0  0  0  0  0  0  0
    7.4908    0.6855    7.6777 H   0  0  0  0  0  0  0  0  0  0  0  0
    4.1995    1.8030    8.1761 H   0  0  0  0  0  0  0  0  0  0  0  0
    5.4076    2.3524    5.7608 H   0  0  0  0  0  0  0  0  0  0  0  0
    2.3868    2.0551    4.8500 H   0  0  0  0  0  0  0  0  0  0  0  0
    4.0876    1.8111    4.6287 H   0  0  0  0  0  0  0  0  0  0  0  0
    2.0326   -1.3031    3.1407 H   0  0  0  0  0  0  0  0  0  0  0  0
    2.6179   -3.0244    1.6617 H   0  0  0  0  0  0  0  0  0  0  0  0
    3.4723   -3.8931    2.9384 H   0  0  0  0  0  0  0  0  0  0  0  0
    4.2984   -3.5150    1.4690 H   0  0  0  0  0  0  0  0  0  0  0  0
    3.5859   -0.7263    0.8453 H   0  0  0  0  0  0  0  0  0  0  0  0
    5.1771   -1.4562    0.8967 H   0  0  0  0  0  0  0  0  0  0  0  0
    4.8979    0.0358    1.7504 H   0  0  0  0  0  0  0  0  0  0  0  0
    5.6149   -1.1607    3.6643 H   0  0  0  0  0  0  0  0  0  0  0  0
    1.2245   -0.2360    5.0699 H   0  0  0  0  0  0  0  0  0  0  0  0
    0.4862   -5.4398    4.6632 H   0  0  0  0  0  0  0  0  0  0  0  0
    1.6532   -5.4848    5.9794 H   0  0  0  0  0  0  0  0  0  0  0  0
    2.2036   -5.6060    4.2993 H   0  0  0  0  0  0  0  0  0  0  0  0
    7.5375    0.9153    5.5906 H   0  0  0  0  0  0  0  0  0  0  0  0
    5.9992    1.1427    4.7866 H   0  0  0  0  0  0  0  0  0  0  0  0
    6.9876   -0.2013    4.4012 H   0  0  0  0  0  0  0  0  0  0  0  0
    7.7649   -1.4074    7.0405 H   0  0  0  0  0  0  0  0  0  0  0  0
    7.0225   -2.3166    5.8711 H   0  0  0  0  0  0  0  0  0  0  0  0
    6.3466   -2.3213    7.5019 H   0  0  0  0  0  0  0  0  0  0  0  0
   -0.4009    0.4817    5.4227 H   0  0  0  0  0  0  0  0  0  0  0  0
   -2.4376    0.4141    6.0053 H   0  0  0  0  0  0  0  0  0  0  0  0
  1  2  2  0
  1 69  1  0
  1 70  1  0
  3  2  1  1
  2 71  1  0
  3  9  1  0
  3 25  1  0
  3  4  1  0
  4  5  1  0
  4 72  1  0
  4 73  1  0
  5  6  1  0
  5 74  1  0
  5 75  1  0
  6  7  1  0
  6 76  1  0
  6 77  1  0
  7  8  2  0
  7  9  1  0
  9 10  1  1
  9 11  1  0
 10 78  1  0
 11 12  1  0
 11 13  1  0
 11 79  1  6
 12 80  1  0
 13 67  1  0
 13 14  1  6
 13 15  1  0
 14 81  1  0
 15 22  1  0
 15 16  1  0
 15 82  1  6
 16 17  1  0
 17 18  2  0
 17 19  1  0
 19 20  1  0
 19 21  1  0
 19 22  1  0
 20 83  1  0
 20 84  1  0
 20 85  1  0
 21 86  1  0
 21 87  1  0
 21 88  1  0
 22 23  1  0
 22 89  1  6
 23 24  1  0
 23 25  1  0
 23 90  1  1
 24 91  1  0
 25 26  1  1
 25 27  1  0
 26 92  1  0
 27 47  1  0
 27 28  1  0
 27 93  1  1
 28 29  1  1
 28 30  1  0
 28 67  1  0
 29 94  1  0
 30 38  1  0
 30 31  1  0
 30 95  1  1
 31 32  1  0
 31 96  1  0
 31 97  1  0
 32 33  2  0
 32 34  1  0
 34 35  1  0
 35 36  1  0
 35 37  1  0
 35 38  1  0
 36 98  1  0
 36 99  1  0
 36100  1  0
 37101  1  0
 37102  1  0
 37103  1  0
 38 39  1  0
 38104  1  1
 39 40  1  0
 39105  1  0
 39106  1  0
 40 62  1  0
 40 41  1  0
 40107  1  6
 41 42  2  0
 41 43  1  6
 43 64  1  0
 43 44  1  1
 43 45  1  0
 44108  1  0
 45 46  1  0
 45 47  1  0
 45109  1  1
 46110  1  0
 47 62  1  0
 47 48  1  6
 48 49  1  0
 48111  1  0
 48112  1  0
 49 50  2  0
 49 51  1  0
 51 52  1  0
 51 56  1  0
 51113  1  6
 52 53  1  0
 52 54  1  0
 52 55  1  0
 53114  1  0
 53115  1  0
 53116  1  0
 54117  1  0
 54118  1  0
 54119  1  0
 55120  1  0
 56 57  1  1
 56 58  1  0
 56 62  1  0
 57121  1  0
 58 59  2  0
 58 60  1  0
 60 61  1  0
 61122  1  0
 61123  1  0
 61124  1  0
 62 63  1  6
 63 64  1  0
 64 65  1  0
 64 66  1  0
 65125  1  0
 65126  1  0
 65127  1  0
 66128  1  0
 66129  1  0
 66130  1  0
 67 68  1  0
 67131  1  6
 68132  1  0
M  END
>  <i_m_ct_stereo_status>  (25) 
1

>  <s_m_source_file>  (25) 
/var/tmp/pbs.5075288.sched01/tmpg6npxhsy/83n53gbz8q.sdf

>  <i_m_source_file_index>  (25) 
59

>  <i_lp_mmshare_version>  (25) 
48012

>  <i_f3d_flags>  (25) 
0

>  <s_epik_input>  (25) 
TzFDKD1PKUMoW0NIM10pKFtDSDNdKVtDQEBIXShbQ0BIXTJbT0hdKVtDQEhdMVtDQF0oW09IXSkoW0NAQEhdM1tPSF0pW0NASF0oW09IXSlbQ0BdKFtPSF0pKEMoPU8pW0NIMl1bQ0gyXVtDSDJdNClbQ0BAXTQoW0NIXT1bQ0gyXSlbQ0BdMihbT0hdKVtDQEhdNVtDQF0zKFtPSF0pW0NAQEhdKFtDSDJdQyg9TylPQzYoW0NIM10pW0NIM10pW0NAQEhdNltDSDJdW0NASF0oW1MrXShbTy1dKVtDQF0oW09IXSkoW0NASF03W09IXSlDKE84KShbQ0gzXSlbQ0gzXSlbQ0BdOChbQ0BAXTU3OSlbQ0BAXShbT0hdKShbQ0BASF0oQyg9TylbQ0gyXTkpQyhbQ0gzXSkoW0NIM10pW09IXSlDKD1PKU9bQ0gzXQ==

>  <s_epik_cmdline>  (25) 
J2VwaWtfcHl0aG9uJywgJy1waHQnLCAnMi4wJywgJy1waCcsICc3LjAnLCAnLXRuJywgJzgnLCAnLW1hJywgJzIwMCcsICctaW1hZScsICc8aW5maWxlLm1hZT4nLCAnLW9tYWUnLCAnPG91dGZpbGUubWFlPic=

>  <r_lp_tautomer_probability>  (25) 
1

>  <r_epik_Ionization_Penalty>  (25) 
2.36719e-06

>  <r_epik_Ionization_Penalty_Charging>  (25) 
0

>  <r_epik_Ionization_Penalty_Neutral>  (25) 
2.36719e-06

>  <r_epik_State_Penalty>  (25) 
-0

>  <r_epik_Charging_Adjusted_Penalty>  (25) 
0

>  <i_epik_Tot_Q>  (25) 
0

>  <i_epik_Tot_abs_Q>  (25) 
2

>  <s_epik_Chemistry_Notes>  (25) 
This compound has an ester and may undergo hydrolysis at high or low pH.

>  <s_lp_Force_Field>  (25) 
OPLS3e

>  <r_lp_Energy>  (25) 
314.567

>  <b_lp_Chiralities_Consistent>  (25) 
1

>  <s_lp_Variant>  (25) 
26:0-1

>  <s_i_glide_gridfile>  (25) 
pfpi4k_grid

>  <i_i_glide_lignum>  (25) 
59

>  <i_i_glide_rotatable_bonds>  (25) 
15

>  <r_i_docking_score>  (25) 
-2.77125

>  <r_i_glide_ligand_efficiency>  (25) 
-0.0407536

>  <r_i_glide_ligand_efficiency_sa>  (25) 
-0.166342

>  <r_i_glide_ligand_efficiency_ln>  (25) 
-0.53094

>  <r_i_glide_gscore>  (25) 
-2.77125

>  <r_i_glide_lipo>  (25) 
-0.376018

>  <r_i_glide_hbond>  (25) 
-0.00572688

>  <r_i_glide_metal>  (25) 
-0

>  <r_i_glide_rewards>  (25) 
0

>  <r_i_glide_evdw>  (25) 
-27.3787

>  <r_i_glide_ecoul>  (25) 
-5.90463

>  <r_i_glide_erotb>  (25) 
0.0687664

>  <r_i_glide_esite>  (25) 
-0.203642

>  <r_i_glide_emodel>  (25) 
-34.8819

>  <r_i_glide_energy>  (25) 
-33.2833

>  <r_i_glide_einternal>  (25) 
4.40348

>  <r_i_glide_intrahb_reward>  (25) 
-0

>  <i_i_glide_confnum>  (25) 
6

>  <i_i_glide_posenum>  (25) 
15

>  <r_i_glide_eff_state_penalty>  (25) 
0

>  <ligand_id>  (25) 
26

>  <original_smiles>  (25) 
C=CC12CCCC(=O)C1(O)C(O)C1(O)C3OC(=O)C(C)(C)C3C(O)C2(O)C2C(O)(C3CC(=O)OC(C)(C)C3CC3[S+]([O-])C4(O)C(O)C25CC(=O)C(C(C)(C)O)C(O)(C(=O)OC)C35OC4(C)C)C1O

>  <smiles>  (25) 
[H]OC1([H])C2(O[H])C(=O)C([H])([H])C([H])([H])C([H])([H])C2(C([H])=C([H])[H])C2(O[H])C([H])(O[H])C3([H])C([H])(OC(=O)C3(C([H])([H])[H])C([H])([H])[H])C1(O[H])C([H])(O[H])C1(O[H])C3([H])C([H])([H])C(=O)OC(C([H])([H])[H])(C([H])([H])[H])C3([H])C([H])([H])C3([H])S(=O)C4(O[H])C([H])(O[H])C5(C([H])([H])C(=O)C([H])(C(O[H])(C([H])([H])[H])C([H])([H])[H])C(O[H])(C(=O)OC([H])([H])[H])C35OC4(C([H])([H])[H])C([H])([H])[H])C12[H]

$$$$
27:0:0
     RDKit          3D

118125  0  0  1  0  0  0  0  0999 V2000
   -5.5593    4.2447    2.4950 C   0  0  0  0  0  0  0  0  0  0  0  0
   -4.6873    3.3954    1.5780 C   0  0  0  0  0  0  0  0  0  0  0  0
   -3.3517    3.0524    2.2302 C   0  0  0  0  0  0  0  0  0  0  0  0
   -2.4638    4.3062    2.5700 C   0  0  0  0  0  0  0  0  0  0  0  0
   -1.0438    4.0095    2.9190 N   0  0  1  0  0  0  0  0  0  0  0  0
   -0.3066    5.2719    3.2958 C   0  0  0  0  0  0  0  0  0  0  0  0
   -0.9187    2.9170    3.9434 C   0  0  0  0  0  0  0  0  0  0  0  0
    0.4798    2.2946    4.0013 C   0  0  0  0  0  0  0  0  0  0  0  0
    1.5114    2.9591    3.9853 O   0  0  0  0  0  0  0  0  0  0  0  0
    0.4234    0.9363    4.1489 O   0  0  0  0  0  0  0  0  0  0  0  0
    1.6202    0.1140    4.3168 C   0  0  2  0  0  0  0  0  0  0  0  0
    1.9576   -0.4846    2.9748 C   0  0  2  0  0  0  0  0  0  0  0  0
    1.4146    0.2916    1.8874 O   0  0  0  0  0  0  0  0  0  0  0  0
    0.9632   -1.7775    2.9297 C   0  0  2  0  0  0  0  0  0  0  0  0
   -0.1642   -1.5974    3.8212 O   0  0  0  0  0  0  0  0  0  0  0  0
    0.1082   -1.4668    5.2357 C   0  0  0  0  0  0  0  0  0  0  0  0
    1.5660   -1.0004    5.4869 C   0  0  2  0  0  0  0  0  0  0  0  0
    1.7146   -0.0594    6.8746 C   0  0  1  0  0  0  0  0  0  0  0  0
    0.8477    1.0469    6.7302 O   0  0  0  0  0  0  0  0  0  0  0  0
    0.9920   -0.6114    8.1838 C   0  0  0  0  0  0  0  0  0  0  0  0
    0.9490    0.2178    9.4916 C   0  0  0  0  0  0  0  0  0  0  0  0
    0.2416   -1.5628    8.1356 O   0  0  0  0  0  0  0  0  0  0  0  0
    3.2219    0.5834    7.0258 C   0  0  0  0  0  0  0  0  0  0  0  0
    3.1620    2.1558    7.0105 C   0  0  0  0  0  0  0  0  0  0  0  0
    4.0213    0.3883    8.3687 C   0  0  0  0  0  0  0  0  0  0  0  0
    4.2262    0.2577    5.8298 C   0  0  0  0  0  0  0  0  0  0  0  0
    4.7355   -1.1156    5.1155 C   0  0  1  0  0  0  0  0  0  0  0  0
    5.8914   -1.6703    6.1194 C   0  0  2  0  0  0  0  0  0  0  0  0
    6.6780   -2.8264    6.0204 O   0  0  0  0  0  0  0  0  0  0  0  0
    5.8694   -2.9097    7.1953 C   0  0  1  0  0  0  0  0  0  0  0  0
    6.6022   -2.5125    8.4720 C   0  0  0  0  0  0  0  0  0  0  0  0
    5.3880   -4.4976    7.3272 C   0  0  2  0  0  0  0  0  0  0  0  0
    6.5459   -5.4654    7.0442 C   0  0  0  0  0  0  0  0  0  0  0  0
    7.7146   -5.2553    7.3484 O   0  0  0  0  0  0  0  0  0  0  0  0
    6.1215   -6.5872    6.4514 O   0  0  0  0  0  0  0  0  0  0  0  0
    4.7490   -6.6650    6.0907 C   0  0  0  0  0  0  0  0  0  0  0  0
    4.6918   -6.7161    4.5525 C   0  0  0  0  0  0  0  0  0  0  0  0
    4.1962   -7.9830    6.6765 C   0  0  0  0  0  0  0  0  0  0  0  0
    4.1155   -5.4039    6.7396 C   0  0  2  0  0  0  0  0  0  0  0  0
    2.5615   -5.1040    6.2470 C   0  0  0  0  0  0  0  0  0  0  0  0
    2.1198   -3.9617    5.2002 C   0  0  1  0  0  0  0  0  0  0  0  0
    0.6565   -4.1899    4.1333 S   0  0  0  0  0  0  0  0  0  0  0  0
    0.6763   -5.6169    3.5802 O   0  0  0  0  0  0  0  0  0  0  0  0
    1.3914   -3.1188    2.9856 O   0  0  0  0  0  0  0  0  0  0  0  0
    2.5670   -2.4129    5.3750 C   0  0  2  0  0  0  0  0  0  0  0  0
    2.8393   -2.5399    6.8847 C   0  0  0  0  0  0  0  0  0  0  0  0
    3.9560   -2.3343    4.5410 C   0  0  2  0  0  0  0  0  0  0  0  0
    4.5288   -3.4777    4.9864 O   0  0  0  0  0  0  0  0  0  0  0  0
    4.6391   -2.8797    3.0675 C   0  0  1  0  0  0  0  0  0  0  0  0
    5.7267   -3.8567    2.9908 O   0  0  0  0  0  0  0  0  0  0  0  0
    3.8050   -3.3694    1.8511 C   0  0  0  0  0  0  0  0  0  0  0  0
    3.6176   -2.7206    0.8187 O   0  0  0  0  0  0  0  0  0  0  0  0
    3.3627   -4.6193    2.0560 O   0  0  0  0  0  0  0  0  0  0  0  0
    2.5113   -5.2316    1.1156 C   0  0  0  0  0  0  0  0  0  0  0  0
    5.4190   -1.6415    2.7663 C   0  0  0  0  0  0  0  0  0  0  0  0
    6.2893   -1.5362    1.8803 O   0  0  0  0  0  0  0  0  0  0  0  0
    4.8839   -0.5542    3.6313 C   0  0  2  0  0  0  0  0  0  0  0  0
    5.7686    0.5334    3.6325 O   0  0  0  0  0  0  0  0  0  0  0  0
    3.5566   -0.1221    2.7624 C   0  0  1  0  0  0  0  0  0  0  0  0
    3.8570    0.0264    1.3562 O   0  0  0  0  0  0  0  0  0  0  0  0
   -6.5975    4.3847    2.1510 H   0  0  0  0  0  0  0  0  0  0  0  0
   -5.1640    5.2508    2.5884 H   0  0  0  0  0  0  0  0  0  0  0  0
   -5.6377    3.7761    3.4734 H   0  0  0  0  0  0  0  0  0  0  0  0
   -5.1841    2.4584    1.3416 H   0  0  0  0  0  0  0  0  0  0  0  0
   -4.5824    3.9327    0.6664 H   0  0  0  0  0  0  0  0  0  0  0  0
   -3.5471    2.5118    3.1541 H   0  0  0  0  0  0  0  0  0  0  0  0
   -2.8511    2.2616    1.6400 H   0  0  0  0  0  0  0  0  0  0  0  0
   -2.4502    5.1050    1.8288 H   0  0  0  0  0  0  0  0  0  0  0  0
   -2.9243    4.7939    3.4163 H   0  0  0  0  0  0  0  0  0  0  0  0
   -0.7490    5.7546    4.1591 H   0  0  0  0  0  0  0  0  0  0  0  0
   -0.3154    5.9770    2.4531 H   0  0  0  0  0  0  0  0  0  0  0  0
    0.7485    5.1158    3.5073 H   0  0  0  0  0  0  0  0  0  0  0  0
   -1.2331    3.2956    4.9107 H   0  0  0  0  0  0  0  0  0  0  0  0
   -1.5759    2.0884    3.6920 H   0  0  0  0  0  0  0  0  0  0  0  0
    2.3430    0.8567    4.5527 H   0  0  0  0  0  0  0  0  0  0  0  0
    1.3489   -0.2566    1.1119 H   0  0  0  0  0  0  0  0  0  0  0  0
    0.5692   -1.7859    1.9202 H   0  0  0  0  0  0  0  0  0  0  0  0
   -0.6279   -0.7651    5.6244 H   0  0  0  0  0  0  0  0  0  0  0  0
   -0.1099   -2.3761    5.7854 H   0  0  0  0  0  0  0  0  0  0  0  0
    0.0096    0.7444    6.4223 H   0  0  0  0  0  0  0  0  0  0  0  0
    1.8103    0.8222    9.7360 H   0  0  0  0  0  0  0  0  0  0  0  0
    0.7894   -0.4634   10.3319 H   0  0  0  0  0  0  0  0  0  0  0  0
    0.0964    0.8923    9.4543 H   0  0  0  0  0  0  0  0  0  0  0  0
    4.1490    2.6086    7.0869 H   0  0  0  0  0  0  0  0  0  0  0  0
    2.5691    2.5578    7.8341 H   0  0  0  0  0  0  0  0  0  0  0  0
    2.7406    2.5624    6.0925 H   0  0  0  0  0  0  0  0  0  0  0  0
    5.0103    0.8408    8.2956 H   0  0  0  0  0  0  0  0  0  0  0  0
    4.1970   -0.6274    8.7086 H   0  0  0  0  0  0  0  0  0  0  0  0
    3.6072    0.9377    9.2110 H   0  0  0  0  0  0  0  0  0  0  0  0
    4.0992    1.0556    5.1056 H   0  0  0  0  0  0  0  0  0  0  0  0
    5.1669    0.6768    6.1892 H   0  0  0  0  0  0  0  0  0  0  0  0
    6.5934   -0.8662    6.3141 H   0  0  0  0  0  0  0  0  0  0  0  0
    5.9383   -2.5365    9.3305 H   0  0  0  0  0  0  0  0  0  0  0  0
    7.0058   -1.5046    8.3793 H   0  0  0  0  0  0  0  0  0  0  0  0
    7.4590   -3.1583    8.6325 H   0  0  0  0  0  0  0  0  0  0  0  0
    5.2484   -4.5736    8.4038 H   0  0  0  0  0  0  0  0  0  0  0  0
    3.6800   -6.6466    4.1539 H   0  0  0  0  0  0  0  0  0  0  0  0
    5.1240   -7.6452    4.1764 H   0  0  0  0  0  0  0  0  0  0  0  0
    5.2918   -5.9250    4.1305 H   0  0  0  0  0  0  0  0  0  0  0  0
    3.1368   -8.1230    6.4586 H   0  0  0  0  0  0  0  0  0  0  0  0
    4.3259   -8.0265    7.7577 H   0  0  0  0  0  0  0  0  0  0  0  0
    4.7262   -8.8421    6.2615 H   0  0  0  0  0  0  0  0  0  0  0  0
    3.8280   -5.7895    7.7152 H   0  0  0  0  0  0  0  0  0  0  0  0
    2.1837   -6.0352    5.8296 H   0  0  0  0  0  0  0  0  0  0  0  0
    1.9322   -5.0052    7.1328 H   0  0  0  0  0  0  0  0  0  0  0  0
    2.6389   -4.4036    4.3516 H   0  0  0  0  0  0  0  0  0  0  0  0
    3.5080   -3.2300    7.2723 H   0  0  0  0  0  0  0  0  0  0  0  0
    1.9515   -2.8512    7.4181 H   0  0  0  0  0  0  0  0  0  0  0  0
    3.3454   -1.7363    7.3253 H   0  0  0  0  0  0  0  0  0  0  0  0
    4.0728   -4.2111    4.6094 H   0  0  0  0  0  0  0  0  0  0  0  0
    5.3965   -4.7020    3.2345 H   0  0  0  0  0  0  0  0  0  0  0  0
    2.0704   -6.1264    1.5532 H   0  0  0  0  0  0  0  0  0  0  0  0
    3.0776   -5.4956    0.2272 H   0  0  0  0  0  0  0  0  0  0  0  0
    1.6940   -4.5736    0.8298 H   0  0  0  0  0  0  0  0  0  0  0  0
    5.6539    0.8917    2.7895 H   0  0  0  0  0  0  0  0  0  0  0  0
    3.5278    0.9536    2.9359 H   0  0  0  0  0  0  0  0  0  0  0  0
    3.0844    0.3345    0.9057 H   0  0  0  0  0  0  0  0  0  0  0  0
   -0.5805    3.7466    2.0347 H   0  0  0  0  0  0  0  0  0  0  0  0
  1  2  1  0
  1 61  1  0
  1 62  1  0
  1 63  1  0
  2  3  1  0
  2 64  1  0
  2 65  1  0
  3  4  1  0
  3 66  1  0
  3 67  1  0
  4  5  1  0
  4 68  1  0
  4 69  1  0
  5  6  1  0
  5  7  1  0
  5118  1  6
  6 70  1  0
  6 71  1  0
  6 72  1  0
  7  8  1  0
  7 73  1  0
  7 74  1  0
  8  9  2  0
  8 10  1  0
 10 11  1  0
 11 17  1  0
 11 12  1  0
 11 75  1  1
 12 59  1  0
 12 13  1  6
 12 14  1  0
 13 76  1  0
 14 44  1  0
 14 15  1  0
 14 77  1  6
 15 16  1  0
 17 16  1  1
 16 78  1  0
 16 79  1  0
 17 45  1  0
 17 18  1  0
 18 19  1  6
 18 20  1  0
 18 23  1  0
 19 80  1  0
 20 21  1  0
 20 22  2  0
 21 81  1  0
 21 82  1  0
 21 83  1  0
 23 24  1  0
 23 25  1  0
 23 26  1  0
 24 84  1  0
 24 85  1  0
 24 86  1  0
 25 87  1  0
 25 88  1  0
 25 89  1  0
 27 26  1  1
 26 90  1  0
 26 91  1  0
 27 47  1  0
 27 57  1  0
 27 28  1  0
 28 30  1  0
 28 29  1  0
 28 92  1  1
 29 30  1  0
 30 31  1  1
 30 32  1  0
 31 93  1  0
 31 94  1  0
 31 95  1  0
 32 39  1  0
 32 33  1  0
 32 96  1  1
 33 34  2  0
 33 35  1  0
 35 36  1  0
 36 37  1  0
 36 38  1  0
 36 39  1  0
 37 97  1  0
 37 98  1  0
 37 99  1  0
 38100  1  0
 38101  1  0
 38102  1  0
 39 40  1  0
 39103  1  1
 40 41  1  0
 40104  1  0
 40105  1  0
 41 42  1  0
 41 45  1  0
 41106  1  6
 42 43  2  0
 42 44  1  6
 45 46  1  1
 45 47  1  0
 46107  1  0
 46108  1  0
 46109  1  0
 47 48  1  1
 47 49  1  0
 48110  1  0
 49 50  1  1
 49 51  1  0
 49 55  1  0
 50111  1  0
 51 52  2  0
 51 53  1  0
 53 54  1  0
 54112  1  0
 54113  1  0
 54114  1  0
 55 56  2  0
 55 57  1  0
 57 58  1  1
 57 59  1  0
 58115  1  0
 59 60  1  0
 59116  1  1
 60117  1  0
M  CHG  1   5   1
M  END
>  <i_m_ct_stereo_status>  (26) 
1

>  <s_m_source_file>  (26) 
/var/tmp/pbs.5075288.sched01/tmpg6npxhsy/83n53gbz8q.sdf

>  <i_m_source_file_index>  (26) 
60

>  <i_lp_mmshare_version>  (26) 
48012

>  <i_f3d_flags>  (26) 
0

>  <s_epik_input>  (26) 
W0NIM11bQ0gyXVtDSDJdW0NIMl1OKFtDSDNdKVtDSDJdQyg9TylPW0NAQEhdMVtDQF0oW09IXSkoW0NASF0oT1tDSDJdMilPW1MrXTNbTy1dKVtDQEhdKFtPSF0pW0NAXTQoW09IXSlDKD1PKVtDQF0oW09IXSkoQyg9TylPW0NIM10pW0NAQF01KFtPSF0pW0NAQF00KFtDSDJdQyhbQ0gzXSkoW0NIM10pW0NAXTYoW09IXSlDKD1PKVtDSDNdKVtDQEhdKE83KVtDQEBdNyhbQ0gzXSlbQ0BIXShDKD1PKU9DOChbQ0gzXSlbQ0gzXSlbQ0BIXThbQ0gyXVtDQEBIXTNbQ0BAXTUoW0NAQF0xMjYpW0NIM10=

>  <s_epik_cmdline>  (26) 
J2VwaWtfcHl0aG9uJywgJy1waHQnLCAnMi4wJywgJy1waCcsICc3LjAnLCAnLXRuJywgJzgnLCAnLW1hJywgJzIwMCcsICctaW1hZScsICc8aW5maWxlLm1hZT4nLCAnLW9tYWUnLCAnPG91dGZpbGUubWFlPic=

>  <r_lp_tautomer_probability>  (26) 
0.99995

>  <r_epik_Ionization_Penalty>  (26) 
0.0742697

>  <r_epik_Ionization_Penalty_Charging>  (26) 
0.0741874

>  <r_epik_Ionization_Penalty_Neutral>  (26) 
8.22898e-05

>  <r_epik_State_Penalty>  (26) 
0.0653073

>  <r_epik_Charging_Adjusted_Penalty>  (26) 
0.139495

>  <i_epik_Tot_Q>  (26) 
1

>  <i_epik_Tot_abs_Q>  (26) 
3

>  <s_epik_Chemistry_Notes>  (26) 
This compound has an ester and may undergo hydrolysis at high or low pH. This compound contains an acetal/aminal-like group ( X-CH(R)-Y where X, Y are N, S, or O) that may be acid/base labile, releasing an aldehyde.

>  <s_lp_Force_Field>  (26) 
OPLS3e

>  <r_lp_Energy>  (26) 
498.729

>  <b_lp_Chiralities_Consistent>  (26) 
1

>  <s_lp_Variant>  (26) 
27:0-1

>  <s_i_glide_gridfile>  (26) 
pfpi4k_grid

>  <i_i_glide_lignum>  (26) 
60

>  <i_i_glide_rotatable_bonds>  (26) 
16

>  <r_i_docking_score>  (26) 
-1.71993

>  <r_i_glide_ligand_efficiency>  (26) 
-0.0286655

>  <r_i_glide_ligand_efficiency_sa>  (26) 
-0.112221

>  <r_i_glide_ligand_efficiency_ln>  (26) 
-0.337615

>  <r_i_glide_gscore>  (26) 
-1.71993

>  <r_i_glide_lipo>  (26) 
-0.431816

>  <r_i_glide_hbond>  (26) 
-0.214555

>  <r_i_glide_metal>  (26) 
-0

>  <r_i_glide_rewards>  (26) 
-0.117992

>  <r_i_glide_evdw>  (26) 
-11.7196

>  <r_i_glide_ecoul>  (26) 
-2.79307

>  <r_i_glide_erotb>  (26) 
0.201922

>  <r_i_glide_esite>  (26) 
-0.152544

>  <r_i_glide_emodel>  (26) 
-12.1897

>  <r_i_glide_energy>  (26) 
-14.5127

>  <r_i_glide_einternal>  (26) 
7.31957

>  <r_i_glide_intrahb_reward>  (26) 
-0

>  <i_i_glide_confnum>  (26) 
2

>  <i_i_glide_posenum>  (26) 
27

>  <r_i_glide_eff_state_penalty>  (26) 
0

>  <ligand_id>  (26) 
27

>  <original_smiles>  (26) 
CCCCN(C)CC(=O)OC1C2(O)C3OCC14C(O)(C(C)=O)C(C)(C)CC15C6OC6(C)C6C(=O)OC(C)(C)C6CC([S+]([O-])O3)C4(C)C1(O)C(O)(C(=O)OC)C(=O)C5(O)C2O

>  <smiles>  (26) 
[H]OC1(C(=O)OC([H])([H])[H])C(=O)C2(O[H])C([H])(O[H])C3(O[H])C4([H])OS(=O)C5([H])C([H])([H])C6([H])C([H])(C(=O)OC6(C([H])([H])[H])C([H])([H])[H])C6(C([H])([H])[H])OC6([H])C26C([H])([H])C(C([H])([H])[H])(C([H])([H])[H])C(O[H])(C(=O)C([H])([H])[H])C(C([H])([H])O4)(C3([H])OC(=O)C([H])([H])[N+]([H])(C([H])([H])[H])C([H])([H])C([H])([H])C([H])([H])C([H])([H])[H])C5(C([H])([H])[H])C16O[H]

$$$$
29:0:0
     RDKit          3D

 40 43  0  0  1  0  0  0  0  0999 V2000
    2.0617   -3.3542   -1.6150 C   0  0  0  0  0  0  0  0  0  0  0  0
    3.3256   -2.6703   -2.1529 C   0  0  0  0  0  0  0  0  0  0  0  0
    3.6700   -3.1865   -3.5678 C   0  0  0  0  0  0  0  0  0  0  0  0
    3.0129   -1.2988   -2.3169 O   0  0  0  0  0  0  0  0  0  0  0  0
    4.5251   -2.7934   -1.1680 C   0  0  2  0  0  0  0  0  0  0  0  0
    4.9557   -4.2433   -0.9630 C   0  0  0  0  0  0  0  0  0  0  0  0
    5.0656   -4.8021    0.2503 C   0  0  0  0  0  0  0  0  0  0  0  0
    4.8333   -4.0211    1.5257 C   0  0  2  0  0  0  0  0  0  0  0  0
    3.5071   -4.3654    2.2415 C   0  0  0  0  0  0  0  0  0  0  0  0
    2.8551   -3.6486    3.1261 C   0  0  0  0  0  0  0  0  0  0  0  0
    1.5551   -4.2844    3.5267 C   0  0  0  0  0  0  0  0  0  0  0  0
    1.5450   -5.4468    2.7221 O   0  0  0  0  0  0  0  0  0  0  0  0
    2.6652   -5.5530    1.9633 C   0  0  0  0  0  0  0  0  0  0  0  0
    2.8966   -6.4747    1.1977 O   0  0  0  0  0  0  0  0  0  0  0  0
    3.2681   -2.3028    3.6765 C   0  0  1  0  0  0  0  0  0  0  0  0
    4.7406   -2.1304    3.6727 O   0  0  0  0  0  0  0  0  0  0  0  0
    4.7954   -1.5103    2.3327 C   0  0  1  0  0  0  0  0  0  0  0  0
    5.7545   -0.3183    2.3250 C   0  0  0  0  0  0  0  0  0  0  0  0
    5.0144   -2.5106    1.1807 C   0  0  2  0  0  0  0  0  0  0  0  0
    4.1552   -2.2010    0.0809 O   0  0  0  0  0  0  0  0  0  0  0  0
    3.0478   -0.9903    2.4297 S   0  0  0  0  0  0  0  0  0  0  0  0
    2.9546    0.3536    3.1916 O   0  0  0  0  0  0  0  0  0  0  0  0
    2.1925   -4.4229   -1.5096 H   0  0  0  0  0  0  0  0  0  0  0  0
    1.2141   -3.1847   -2.2774 H   0  0  0  0  0  0  0  0  0  0  0  0
    1.8100   -2.9842   -0.6239 H   0  0  0  0  0  0  0  0  0  0  0  0
    3.9065   -4.2514   -3.5733 H   0  0  0  0  0  0  0  0  0  0  0  0
    4.5252   -2.6572   -3.9919 H   0  0  0  0  0  0  0  0  0  0  0  0
    2.8277   -3.0557   -4.2487 H   0  0  0  0  0  0  0  0  0  0  0  0
    2.3399   -1.0644   -1.6973 H   0  0  0  0  0  0  0  0  0  0  0  0
    5.3903   -2.2559   -1.5637 H   0  0  0  0  0  0  0  0  0  0  0  0
    5.1540   -4.8287   -1.8418 H   0  0  0  0  0  0  0  0  0  0  0  0
    5.3562   -5.8373    0.3492 H   0  0  0  0  0  0  0  0  0  0  0  0
    5.6278   -4.3018    2.2182 H   0  0  0  0  0  0  0  0  0  0  0  0
    0.7105   -3.6366    3.2854 H   0  0  0  0  0  0  0  0  0  0  0  0
    1.5280   -4.5298    4.5903 H   0  0  0  0  0  0  0  0  0  0  0  0
    2.8487   -2.0659    4.6632 H   0  0  0  0  0  0  0  0  0  0  0  0
    6.7721   -0.6573    2.4903 H   0  0  0  0  0  0  0  0  0  0  0  0
    5.5315    0.4112    3.1056 H   0  0  0  0  0  0  0  0  0  0  0  0
    5.7350    0.1808    1.3579 H   0  0  0  0  0  0  0  0  0  0  0  0
    6.0456   -2.3893    0.8488 H   0  0  0  0  0  0  0  0  0  0  0  0
  1  2  1  0
  1 23  1  0
  1 24  1  0
  1 25  1  0
  2  3  1  0
  2  4  1  0
  2  5  1  0
  3 26  1  0
  3 27  1  0
  3 28  1  0
  4 29  1  0
  5 20  1  0
  5  6  1  0
  5 30  1  6
  6  7  2  0
  6 31  1  0
  7  8  1  0
  7 32  1  0
  8 19  1  0
  8 33  1  1
  8  9  1  0
  9 10  2  0
  9 13  1  0
 10 15  1  0
 10 11  1  0
 11 12  1  0
 11 34  1  0
 11 35  1  0
 12 13  1  0
 13 14  2  0
 15 21  1  0
 15 16  1  0
 15 36  1  1
 16 17  1  0
 17 18  1  1
 17 19  1  0
 21 17  1  6
 18 37  1  0
 18 38  1  0
 18 39  1  0
 19 20  1  0
 19 40  1  6
 21 22  2  0
M  END
>  <i_m_ct_stereo_status>  (27) 
1

>  <s_m_source_file>  (27) 
/var/tmp/pbs.5075288.sched01/tmpg6npxhsy/83n53gbz8q.sdf

>  <i_m_source_file_index>  (27) 
65

>  <i_lp_mmshare_version>  (27) 
48012

>  <i_f3d_flags>  (27) 
0

>  <s_epik_input>  (27) 
W0NIM11DKFtDSDNdKShbT0hdKVtDQEBIXShPMSlbQ0hdPVtDSF1bQ0BASF0oW0NAQEhdMVtDQF0yM1tDSDNdKWM0YyhbQ0BASF0oTzIpW1MrXTNbTy1dKVtjSF1vYzRbT0hd

>  <s_epik_cmdline>  (27) 
J2VwaWtfcHl0aG9uJywgJy1waHQnLCAnMi4wJywgJy1waCcsICc3LjAnLCAnLXRuJywgJzgnLCAnLW1hJywgJzIwMCcsICctaW1hZScsICc8aW5maWxlLm1hZT4nLCAnLW9tYWUnLCAnPG91dGZpbGUubWFlPic=

>  <r_lp_tautomer_probability>  (27) 
1

>  <r_epik_Ionization_Penalty>  (27) 
3.32216e-08

>  <r_epik_Ionization_Penalty_Charging>  (27) 
0

>  <r_epik_Ionization_Penalty_Neutral>  (27) 
3.32216e-08

>  <r_epik_State_Penalty>  (27) 
-0

>  <r_epik_Charging_Adjusted_Penalty>  (27) 
0

>  <i_epik_Tot_Q>  (27) 
0

>  <i_epik_Tot_abs_Q>  (27) 
0

>  <s_epik_Chemistry_Notes>  (27) 
This compound has an ester and may undergo hydrolysis at high or low pH. This compound contains an acetal/aminal-like group ( X-CH(R)-Y where X, Y are N, S, or O) that may be acid/base labile, releasing an aldehyde.

>  <s_lp_Force_Field>  (27) 
OPLS3e

>  <r_lp_Energy>  (27) 
11.9505

>  <b_lp_Chiralities_Consistent>  (27) 
1

>  <s_lp_Variant>  (27) 
29:0-1

>  <s_i_glide_gridfile>  (27) 
pfpi4k_grid

>  <i_i_glide_lignum>  (27) 
65

>  <i_i_glide_rotatable_bonds>  (27) 
2

>  <r_i_docking_score>  (27) 
-3.35636

>  <r_i_glide_ligand_efficiency>  (27) 
-0.152562

>  <r_i_glide_ligand_efficiency_sa>  (27) 
-0.427484

>  <r_i_glide_ligand_efficiency_ln>  (27) 
-0.820417

>  <r_i_glide_gscore>  (27) 
-3.35636

>  <r_i_glide_lipo>  (27) 
-0.569268

>  <r_i_glide_hbond>  (27) 
0

>  <r_i_glide_metal>  (27) 
-0

>  <r_i_glide_rewards>  (27) 
-1.18387

>  <r_i_glide_evdw>  (27) 
-21.0534

>  <r_i_glide_ecoul>  (27) 
-4.7363

>  <r_i_glide_erotb>  (27) 
0.176067

>  <r_i_glide_esite>  (27) 
-0.0161769

>  <r_i_glide_emodel>  (27) 
-29.6336

>  <r_i_glide_energy>  (27) 
-25.7897

>  <r_i_glide_einternal>  (27) 
2.44605

>  <r_i_glide_intrahb_reward>  (27) 
-0

>  <i_i_glide_confnum>  (27) 
6

>  <i_i_glide_posenum>  (27) 
29

>  <r_i_glide_eff_state_penalty>  (27) 
0

>  <ligand_id>  (27) 
29

>  <original_smiles>  (27) 
CC(C)(O)C1C=CC2c3c(coc3O)C3OC(C)(C2O1)[S+]3[O-]

>  <smiles>  (27) 
[H]OC(C([H])([H])[H])(C([H])([H])[H])C1([H])OC2([H])C([H])(C([H])=C1[H])C1=C(C([H])([H])OC1=O)C1([H])OC2(C([H])([H])[H])S1=O

$$$$
29:0:1
     RDKit          3D

 40 43  0  0  1  0  0  0  0  0999 V2000
    3.0194   -0.7452   -3.2390 C   0  0  0  0  0  0  0  0  0  0  0  0
    3.6401   -2.0468   -2.7085 C   0  0  0  0  0  0  0  0  0  0  0  0
    2.5481   -3.0563   -2.3111 C   0  0  0  0  0  0  0  0  0  0  0  0
    4.3106   -2.6170   -3.8120 O   0  0  0  0  0  0  0  0  0  0  0  0
    4.6379   -1.7664   -1.5408 C   0  0  2  0  0  0  0  0  0  0  0  0
    5.7454   -2.8113   -1.4235 C   0  0  0  0  0  0  0  0  0  0  0  0
    6.0278   -3.4418   -0.2754 C   0  0  0  0  0  0  0  0  0  0  0  0
    5.3007   -3.1405    1.0102 C   0  0  2  0  0  0  0  0  0  0  0  0
    4.2973   -4.2479    1.4376 C   0  0  0  0  0  0  0  0  0  0  0  0
    3.2954   -4.1477    2.2652 C   0  0  0  0  0  0  0  0  0  0  0  0
    2.5003   -5.4255    2.3569 C   0  0  0  0  0  0  0  0  0  0  0  0
    3.1903   -6.2425    1.4366 O   0  0  0  0  0  0  0  0  0  0  0  0
    4.2582   -5.6205    0.8809 C   0  0  0  0  0  0  0  0  0  0  0  0
    5.0173   -6.1269    0.0911 O   0  0  0  0  0  0  0  0  0  0  0  0
    2.8830   -2.9157    3.0424 C   0  0  1  0  0  0  0  0  0  0  0  0
    4.0204   -2.0209    3.3107 O   0  0  0  0  0  0  0  0  0  0  0  0
    3.8665   -1.2127    2.0907 C   0  0  1  0  0  0  0  0  0  0  0  0
    4.0127    0.2816    2.3880 C   0  0  0  0  0  0  0  0  0  0  0  0
    4.6874   -1.7121    0.8820 C   0  0  2  0  0  0  0  0  0  0  0  0
    3.9061   -1.6489   -0.3194 O   0  0  0  0  0  0  0  0  0  0  0  0
    2.1137   -1.6878    1.9511 S   0  0  0  0  0  0  0  0  0  0  0  0
    1.2304   -0.7695    2.8281 O   0  0  0  0  0  0  0  0  0  0  0  0
    2.4144   -0.2537   -2.4777 H   0  0  0  0  0  0  0  0  0  0  0  0
    2.3850   -0.9458   -4.1029 H   0  0  0  0  0  0  0  0  0  0  0  0
    3.7847   -0.0375   -3.5559 H   0  0  0  0  0  0  0  0  0  0  0  0
    1.9377   -2.6698   -1.4979 H   0  0  0  0  0  0  0  0  0  0  0  0
    2.9855   -3.9846   -1.9617 H   0  0  0  0  0  0  0  0  0  0  0  0
    1.8748   -3.2658   -3.1436 H   0  0  0  0  0  0  0  0  0  0  0  0
    4.6378   -3.4725   -3.5307 H   0  0  0  0  0  0  0  0  0  0  0  0
    5.1486   -0.8176   -1.7119 H   0  0  0  0  0  0  0  0  0  0  0  0
    6.3309   -3.0154   -2.3038 H   0  0  0  0  0  0  0  0  0  0  0  0
    6.8262   -4.1726   -0.2332 H   0  0  0  0  0  0  0  0  0  0  0  0
    6.0510   -3.1042    1.8002 H   0  0  0  0  0  0  0  0  0  0  0  0
    1.4749   -5.2675    2.0396 H   0  0  0  0  0  0  0  0  0  0  0  0
    2.5174   -5.8455    3.3586 H   0  0  0  0  0  0  0  0  0  0  0  0
    2.3008   -3.1231    3.9464 H   0  0  0  0  0  0  0  0  0  0  0  0
    5.0283    0.4895    2.7034 H   0  0  0  0  0  0  0  0  0  0  0  0
    3.3588    0.6234    3.1913 H   0  0  0  0  0  0  0  0  0  0  0  0
    3.8020    0.8819    1.5022 H   0  0  0  0  0  0  0  0  0  0  0  0
    5.5226   -1.0209    0.7634 H   0  0  0  0  0  0  0  0  0  0  0  0
  1  2  1  0
  1 23  1  0
  1 24  1  0
  1 25  1  0
  2  3  1  0
  2  4  1  0
  2  5  1  0
  3 26  1  0
  3 27  1  0
  3 28  1  0
  4 29  1  0
  5 20  1  0
  5  6  1  0
  5 30  1  6
  6  7  2  0
  6 31  1  0
  7  8  1  0
  7 32  1  0
  8 19  1  0
  8 33  1  1
  8  9  1  0
  9 10  2  0
  9 13  1  0
 10 15  1  0
 10 11  1  0
 11 12  1  0
 11 34  1  0
 11 35  1  0
 12 13  1  0
 13 14  2  0
 15 21  1  0
 15 16  1  0
 15 36  1  1
 16 17  1  0
 17 18  1  1
 17 19  1  0
 21 17  1  1
 18 37  1  0
 18 38  1  0
 18 39  1  0
 19 20  1  0
 19 40  1  6
 21 22  2  0
M  END
>  <i_m_ct_stereo_status>  (28) 
1

>  <s_m_source_file>  (28) 
/var/tmp/pbs.5075288.sched01/tmpg6npxhsy/83n53gbz8q.sdf

>  <i_m_source_file_index>  (28) 
65

>  <i_lp_mmshare_version>  (28) 
48012

>  <i_f3d_flags>  (28) 
0

>  <s_epik_input>  (28) 
W0NIM11DKFtDSDNdKShbT0hdKVtDQEBIXShPMSlbQ0hdPVtDSF1bQ0BASF0oW0NAQEhdMVtDQF0yM1tDSDNdKWM0YyhbQ0BASF0oTzIpW1MrXTNbTy1dKVtjSF1vYzRbT0hd

>  <s_epik_cmdline>  (28) 
J2VwaWtfcHl0aG9uJywgJy1waHQnLCAnMi4wJywgJy1waCcsICc3LjAnLCAnLXRuJywgJzgnLCAnLW1hJywgJzIwMCcsICctaW1hZScsICc8aW5maWxlLm1hZT4nLCAnLW9tYWUnLCAnPG91dGZpbGUubWFlPic=

>  <r_lp_tautomer_probability>  (28) 
1

>  <r_epik_Ionization_Penalty>  (28) 
3.32216e-08

>  <r_epik_Ionization_Penalty_Charging>  (28) 
0

>  <r_epik_Ionization_Penalty_Neutral>  (28) 
3.32216e-08

>  <r_epik_State_Penalty>  (28) 
-0

>  <r_epik_Charging_Adjusted_Penalty>  (28) 
0

>  <i_epik_Tot_Q>  (28) 
0

>  <i_epik_Tot_abs_Q>  (28) 
0

>  <s_epik_Chemistry_Notes>  (28) 
This compound has an ester and may undergo hydrolysis at high or low pH. This compound contains an acetal/aminal-like group ( X-CH(R)-Y where X, Y are N, S, or O) that may be acid/base labile, releasing an aldehyde.

>  <s_lp_Force_Field>  (28) 
OPLS3e

>  <r_lp_Energy>  (28) 
11.9505

>  <b_lp_Chiralities_Consistent>  (28) 
1

>  <s_lp_Variant>  (28) 
29:0-1

>  <s_i_glide_gridfile>  (28) 
pfpi4k_grid

>  <i_i_glide_lignum>  (28) 
65

>  <i_i_glide_rotatable_bonds>  (28) 
2

>  <r_i_docking_score>  (28) 
-3.06234

>  <r_i_glide_ligand_efficiency>  (28) 
-0.139197

>  <r_i_glide_ligand_efficiency_sa>  (28) 
-0.390036

>  <r_i_glide_ligand_efficiency_ln>  (28) 
-0.748547

>  <r_i_glide_gscore>  (28) 
-3.06234

>  <r_i_glide_lipo>  (28) 
-0.242251

>  <r_i_glide_hbond>  (28) 
-0.0739538

>  <r_i_glide_metal>  (28) 
-0

>  <r_i_glide_rewards>  (28) 
-1.26427

>  <r_i_glide_evdw>  (28) 
-22.9117

>  <r_i_glide_ecoul>  (28) 
-3.10101

>  <r_i_glide_erotb>  (28) 
0.176067

>  <r_i_glide_esite>  (28) 
-0.0471982

>  <r_i_glide_emodel>  (28) 
-29.1944

>  <r_i_glide_energy>  (28) 
-26.0127

>  <r_i_glide_einternal>  (28) 
2.63008

>  <r_i_glide_intrahb_reward>  (28) 
-0

>  <i_i_glide_confnum>  (28) 
4

>  <i_i_glide_posenum>  (28) 
20

>  <r_i_glide_eff_state_penalty>  (28) 
0

>  <ligand_id>  (28) 
29

>  <original_smiles>  (28) 
CC(C)(O)C1C=CC2c3c(coc3O)C3OC(C)(C2O1)[S+]3[O-]

>  <smiles>  (28) 
[H]OC(C([H])([H])[H])(C([H])([H])[H])C1([H])OC2([H])C([H])(C([H])=C1[H])C1=C(C([H])([H])OC1=O)C1([H])OC2(C([H])([H])[H])S1=O

$$$$
29:0:2
     RDKit          3D

 40 43  0  0  1  0  0  0  0  0999 V2000
    2.9467   -3.4300   -1.7824 C   0  0  0  0  0  0  0  0  0  0  0  0
    3.6552   -2.1701   -2.3064 C   0  0  0  0  0  0  0  0  0  0  0  0
    4.4418   -2.4977   -3.5862 C   0  0  0  0  0  0  0  0  0  0  0  0
    2.6492   -1.2688   -2.7186 O   0  0  0  0  0  0  0  0  0  0  0  0
    4.5134   -1.4748   -1.2052 C   0  0  2  0  0  0  0  0  0  0  0  0
    5.9309   -2.0437   -1.1126 C   0  0  0  0  0  0  0  0  0  0  0  0
    6.4579   -2.4976    0.0328 C   0  0  0  0  0  0  0  0  0  0  0  0
    5.7231   -2.4371    1.3409 C   0  0  2  0  0  0  0  0  0  0  0  0
    5.2204   -3.8202    1.8225 C   0  0  0  0  0  0  0  0  0  0  0  0
    4.2539   -4.0578    2.6968 C   0  0  0  0  0  0  0  0  0  0  0  0
    3.9938   -5.5324    2.8455 C   0  0  0  0  0  0  0  0  0  0  0  0
    4.9048   -6.0834    1.9198 O   0  0  0  0  0  0  0  0  0  0  0  0
    5.6539   -5.1253    1.3170 C   0  0  0  0  0  0  0  0  0  0  0  0
    6.5317   -5.3499    0.5004 O   0  0  0  0  0  0  0  0  0  0  0  0
    3.4545   -3.0343    3.4391 C   0  0  1  0  0  0  0  0  0  0  0  0
    4.2078   -1.7744    3.6595 O   0  0  0  0  0  0  0  0  0  0  0  0
    3.7176   -1.1192    2.4301 C   0  0  1  0  0  0  0  0  0  0  0  0
    3.3323    0.3426    2.6973 C   0  0  0  0  0  0  0  0  0  0  0  0
    4.6333   -1.3218    1.2100 C   0  0  2  0  0  0  0  0  0  0  0  0
    3.8409   -1.5888    0.0450 O   0  0  0  0  0  0  0  0  0  0  0  0
    2.2210   -2.1805    2.3919 S   0  0  0  0  0  0  0  0  0  0  0  0
    1.1614   -1.6127    3.3391 O   0  0  0  0  0  0  0  0  0  0  0  0
    3.6643   -4.2029   -1.4932 H   0  0  0  0  0  0  0  0  0  0  0  0
    2.2972   -3.8225   -2.5609 H   0  0  0  0  0  0  0  0  0  0  0  0
    2.3059   -3.2305   -0.9215 H   0  0  0  0  0  0  0  0  0  0  0  0
    5.2387   -3.2242   -3.4176 H   0  0  0  0  0  0  0  0  0  0  0  0
    4.8842   -1.5937   -4.0048 H   0  0  0  0  0  0  0  0  0  0  0  0
    3.7888   -2.9280   -4.3445 H   0  0  0  0  0  0  0  0  0  0  0  0
    2.0448   -1.1443   -1.9988 H   0  0  0  0  0  0  0  0  0  0  0  0
    4.6327   -0.4148   -1.4298 H   0  0  0  0  0  0  0  0  0  0  0  0
    6.5093   -2.0655   -2.0092 H   0  0  0  0  0  0  0  0  0  0  0  0
    7.4659   -2.9041    0.0471 H   0  0  0  0  0  0  0  0  0  0  0  0
    6.4373   -2.1027    2.0914 H   0  0  0  0  0  0  0  0  0  0  0  0
    2.9603   -5.7605    2.5840 H   0  0  0  0  0  0  0  0  0  0  0  0
    4.1886   -5.8732    3.8644 H   0  0  0  0  0  0  0  0  0  0  0  0
    3.0045   -3.4040    4.3795 H   0  0  0  0  0  0  0  0  0  0  0  0
    4.2095    0.9146    2.9692 H   0  0  0  0  0  0  0  0  0  0  0  0
    2.6276    0.4408    3.5242 H   0  0  0  0  0  0  0  0  0  0  0  0
    2.8901    0.8013    1.8126 H   0  0  0  0  0  0  0  0  0  0  0  0
    5.1607   -0.3826    1.0428 H   0  0  0  0  0  0  0  0  0  0  0  0
  1  2  1  0
  1 23  1  0
  1 24  1  0
  1 25  1  0
  2  3  1  0
  2  4  1  0
  2  5  1  0
  3 26  1  0
  3 27  1  0
  3 28  1  0
  4 29  1  0
  5 20  1  0
  5  6  1  0
  5 30  1  6
  6  7  2  0
  6 31  1  0
  7  8  1  0
  7 32  1  0
  8 19  1  0
  8 33  1  1
  8  9  1  0
  9 10  2  0
  9 13  1  0
 10 15  1  0
 10 11  1  0
 11 12  1  0
 11 34  1  0
 11 35  1  0
 12 13  1  0
 13 14  2  0
 15 21  1  0
 15 16  1  0
 15 36  1  1
 16 17  1  0
 17 18  1  1
 17 19  1  0
 21 17  1  1
 18 37  1  0
 18 38  1  0
 18 39  1  0
 19 20  1  0
 19 40  1  6
 21 22  2  0
M  END
>  <i_m_ct_stereo_status>  (29) 
1

>  <s_m_source_file>  (29) 
/var/tmp/pbs.5075288.sched01/tmpg6npxhsy/83n53gbz8q.sdf

>  <i_m_source_file_index>  (29) 
65

>  <i_lp_mmshare_version>  (29) 
48012

>  <i_f3d_flags>  (29) 
0

>  <s_epik_input>  (29) 
W0NIM11DKFtDSDNdKShbT0hdKVtDQEBIXShPMSlbQ0hdPVtDSF1bQ0BASF0oW0NAQEhdMVtDQF0yM1tDSDNdKWM0YyhbQ0BASF0oTzIpW1MrXTNbTy1dKVtjSF1vYzRbT0hd

>  <s_epik_cmdline>  (29) 
J2VwaWtfcHl0aG9uJywgJy1waHQnLCAnMi4wJywgJy1waCcsICc3LjAnLCAnLXRuJywgJzgnLCAnLW1hJywgJzIwMCcsICctaW1hZScsICc8aW5maWxlLm1hZT4nLCAnLW9tYWUnLCAnPG91dGZpbGUubWFlPic=

>  <r_lp_tautomer_probability>  (29) 
1

>  <r_epik_Ionization_Penalty>  (29) 
3.32216e-08

>  <r_epik_Ionization_Penalty_Charging>  (29) 
0

>  <r_epik_Ionization_Penalty_Neutral>  (29) 
3.32216e-08

>  <r_epik_State_Penalty>  (29) 
-0

>  <r_epik_Charging_Adjusted_Penalty>  (29) 
0

>  <i_epik_Tot_Q>  (29) 
0

>  <i_epik_Tot_abs_Q>  (29) 
0

>  <s_epik_Chemistry_Notes>  (29) 
This compound has an ester and may undergo hydrolysis at high or low pH. This compound contains an acetal/aminal-like group ( X-CH(R)-Y where X, Y are N, S, or O) that may be acid/base labile, releasing an aldehyde.

>  <s_lp_Force_Field>  (29) 
OPLS3e

>  <r_lp_Energy>  (29) 
11.9505

>  <b_lp_Chiralities_Consistent>  (29) 
1

>  <s_lp_Variant>  (29) 
29:0-1

>  <s_i_glide_gridfile>  (29) 
pfpi4k_grid

>  <i_i_glide_lignum>  (29) 
65

>  <i_i_glide_rotatable_bonds>  (29) 
2

>  <r_i_docking_score>  (29) 
-2.9974

>  <r_i_glide_ligand_efficiency>  (29) 
-0.136245

>  <r_i_glide_ligand_efficiency_sa>  (29) 
-0.381765

>  <r_i_glide_ligand_efficiency_ln>  (29) 
-0.732673

>  <r_i_glide_gscore>  (29) 
-2.9974

>  <r_i_glide_lipo>  (29) 
-0.445376

>  <r_i_glide_hbond>  (29) 
0

>  <r_i_glide_metal>  (29) 
-0

>  <r_i_glide_rewards>  (29) 
-1.27387

>  <r_i_glide_evdw>  (29) 
-20.4012

>  <r_i_glide_ecoul>  (29) 
-2.8146

>  <r_i_glide_erotb>  (29) 
0.176067

>  <r_i_glide_esite>  (29) 
-0.0119638

>  <r_i_glide_emodel>  (29) 
-26.3706

>  <r_i_glide_energy>  (29) 
-23.2158

>  <r_i_glide_einternal>  (29) 
2.61588

>  <r_i_glide_intrahb_reward>  (29) 
-0

>  <i_i_glide_confnum>  (29) 
3

>  <i_i_glide_posenum>  (29) 
7

>  <r_i_glide_eff_state_penalty>  (29) 
0

>  <ligand_id>  (29) 
29

>  <original_smiles>  (29) 
CC(C)(O)C1C=CC2c3c(coc3O)C3OC(C)(C2O1)[S+]3[O-]

>  <smiles>  (29) 
[H]OC(C([H])([H])[H])(C([H])([H])[H])C1([H])OC2([H])C([H])(C([H])=C1[H])C1=C(C([H])([H])OC1=O)C1([H])OC2(C([H])([H])[H])S1=O

$$$$
39:0:0
     RDKit          3D

125135  0  0  1  0  0  0  0  0999 V2000
    4.0119   -4.1592   12.1538 C   0  0  0  0  0  0  0  0  0  0  0  0
    4.2525   -3.3679   11.1278 C   0  0  0  0  0  0  0  0  0  0  0  0
    5.5028   -3.2694   10.3244 C   0  0  0  0  0  0  0  0  0  0  0  0
    5.3212   -2.0996    9.3698 C   0  0  1  0  0  0  0  0  0  0  0  0
    6.2397   -2.3398    8.3180 O   0  0  0  0  0  0  0  0  0  0  0  0
    3.7413   -1.8772    9.1670 C   0  0  1  0  0  0  0  0  0  0  0  0
    3.4453   -0.2482    9.1399 C   0  0  0  0  0  0  0  0  0  0  0  0
    3.2603    0.5835    7.9299 O   0  0  0  0  0  0  0  0  0  0  0  0
    2.0353    0.6429    7.1840 C   0  0  2  0  0  0  0  0  0  0  0  0
    1.1669    1.5614    7.8158 O   0  0  0  0  0  0  0  0  0  0  0  0
    1.3951   -0.7739    7.2576 C   0  0  1  0  0  0  0  0  0  0  0  0
    0.6138   -1.0272    8.6294 C   0  0  0  0  0  0  0  0  0  0  0  0
    0.1272   -0.9241    6.3384 C   0  0  0  0  0  0  0  0  0  0  0  0
   -0.0286    0.0234    5.1697 C   0  0  0  0  0  0  0  0  0  0  0  0
    1.3036    0.4215    4.5793 C   0  0  2  0  0  0  0  0  0  0  0  0
    1.9613   -0.4817    3.4389 C   0  0  2  0  0  0  0  0  0  0  0  0
    1.1717   -0.2758    2.1244 C   0  0  0  0  0  0  0  0  0  0  0  0
    1.9966   -2.0741    3.6654 C   0  0  0  0  0  0  0  0  0  0  0  0
    0.9252   -2.5963    3.9865 O   0  0  0  0  0  0  0  0  0  0  0  0
    3.1498   -3.1242    3.3791 C   0  0  1  0  0  0  0  0  0  0  0  0
    4.2077   -2.6650    2.5124 O   0  0  0  0  0  0  0  0  0  0  0  0
    3.9133   -2.5247    1.1510 C   0  0  2  0  0  0  0  0  0  0  0  0
    3.3524   -3.7113    0.6808 O   0  0  0  0  0  0  0  0  0  0  0  0
    2.9279   -3.6980   -0.6748 C   0  0  0  0  0  0  0  0  0  0  0  0
    4.1679   -3.4963   -1.5575 C   0  0  1  0  0  0  0  0  0  0  0  0
    3.8183   -3.4642   -2.9294 O   0  0  0  0  0  0  0  0  0  0  0  0
    4.9022   -2.2231   -1.1437 C   0  0  1  0  0  0  0  0  0  0  0  0
    4.1067   -1.0758   -1.4512 O   0  0  0  0  0  0  0  0  0  0  0  0
    5.2433   -2.2753    0.3702 C   0  0  1  0  0  0  0  0  0  0  0  0
    5.8374   -1.0247    0.6376 O   0  0  0  0  0  0  0  0  0  0  0  0
    3.7176   -4.2392    4.4322 C   0  0  2  0  0  0  0  0  0  0  0  0
    5.2566   -4.3288    4.4619 C   0  0  0  0  0  0  0  0  0  0  0  0
    3.3713   -5.4560    3.7525 O   0  0  0  0  0  0  0  0  0  0  0  0
    2.3326   -6.1877    4.4135 C   0  0  1  0  0  0  0  0  0  0  0  0
    0.9843   -5.8940    3.7592 C   0  0  0  0  0  0  0  0  0  0  0  0
    0.2685   -6.6475    2.9141 C   0  0  0  0  0  0  0  0  0  0  0  0
    0.6912   -7.9721    2.3307 C   0  0  0  0  0  0  0  0  0  0  0  0
    0.8071   -9.0995    3.3727 C   0  0  1  0  0  0  0  0  0  0  0  0
   -0.5370   -9.4343    3.6893 O   0  0  0  0  0  0  0  0  0  0  0  0
    1.4302  -10.3589    2.7415 C   0  0  0  0  0  0  0  0  0  0  0  0
    1.9710  -11.2072    3.8875 C   0  0  0  0  0  0  0  0  0  0  0  0
    2.3200  -10.1674    4.9355 C   0  0  0  0  0  0  0  0  0  0  0  0
    3.0672  -10.3927    5.8873 O   0  0  0  0  0  0  0  0  0  0  0  0
    1.6705   -8.7978    4.6615 C   0  0  2  0  0  0  0  0  0  0  0  0
    0.8242   -8.4799    5.9211 C   0  0  0  0  0  0  0  0  0  0  0  0
    2.7883   -7.6976    4.4634 C   0  0  1  0  0  0  0  0  0  0  0  0
    3.5434   -8.0173    3.2985 O   0  0  0  0  0  0  0  0  0  0  0  0
    2.3449   -5.5606    5.7932 C   0  0  0  0  0  0  0  0  0  0  0  0
    3.1412   -4.4983    5.8549 C   0  0  0  0  0  0  0  0  0  0  0  0
    3.7504   -3.9533    7.2086 C   0  0  0  0  0  0  0  0  0  0  0  0
    3.0117   -2.7461    7.9549 C   0  0  1  0  0  0  0  0  0  0  0  0
    1.8845   -3.4715    8.4015 O   0  0  0  0  0  0  0  0  0  0  0  0
    2.5893   -1.7735    6.8526 C   0  0  2  0  0  0  0  0  0  0  0  0
    4.0059   -1.2925    6.3659 C   0  0  1  0  0  0  0  0  0  0  0  0
    4.3440   -1.3805    5.0047 O   0  0  0  0  0  0  0  0  0  0  0  0
    4.5467   -0.1050    5.6028 C   0  0  2  0  0  0  0  0  0  0  0  0
    5.9922    0.3229    5.8086 C   0  0  0  0  0  0  0  0  0  0  0  0
    3.6908    0.9770    5.0257 C   0  0  1  0  0  0  0  0  0  0  0  0
    3.4999    0.5658    3.2101 S   0  0  0  0  0  0  0  0  0  0  0  0
    4.7229   -0.1629    2.7216 O   0  0  0  0  0  0  0  0  0  0  0  0
    2.2646    1.1352    5.6181 C   0  0  2  0  0  0  0  0  0  0  0  0
    2.0449    2.6750    5.5448 C   0  0  0  0  0  0  0  0  0  0  0  0
    3.2245   -2.3834   10.5731 C   0  0  0  0  0  0  0  0  0  0  0  0
    3.0653   -4.1552   12.6630 H   0  0  0  0  0  0  0  0  0  0  0  0
    4.7620   -4.8563   12.5189 H   0  0  0  0  0  0  0  0  0  0  0  0
    6.3737   -3.1724   10.9785 H   0  0  0  0  0  0  0  0  0  0  0  0
    5.6154   -4.2011    9.7753 H   0  0  0  0  0  0  0  0  0  0  0  0
    5.7349   -1.2429    9.9112 H   0  0  0  0  0  0  0  0  0  0  0  0
    7.1218   -2.2849    8.6313 H   0  0  0  0  0  0  0  0  0  0  0  0
    2.6834    0.0590    9.8496 H   0  0  0  0  0  0  0  0  0  0  0  0
    4.2848    0.2585    9.6145 H   0  0  0  0  0  0  0  0  0  0  0  0
    1.5736    2.4064    7.7364 H   0  0  0  0  0  0  0  0  0  0  0  0
   -0.0191   -1.9194    8.5665 H   0  0  0  0  0  0  0  0  0  0  0  0
   -0.0836   -0.2211    8.8745 H   0  0  0  0  0  0  0  0  0  0  0  0
    1.1705   -1.2026    9.5354 H   0  0  0  0  0  0  0  0  0  0  0  0
    0.0028   -1.9637    6.0435 H   0  0  0  0  0  0  0  0  0  0  0  0
   -0.8123   -0.7461    6.8651 H   0  0  0  0  0  0  0  0  0  0  0  0
   -0.7019   -0.3731    4.4124 H   0  0  0  0  0  0  0  0  0  0  0  0
   -0.4956    0.9390    5.5418 H   0  0  0  0  0  0  0  0  0  0  0  0
    0.9735    1.2624    3.9695 H   0  0  0  0  0  0  0  0  0  0  0  0
    0.1809   -0.7022    2.2060 H   0  0  0  0  0  0  0  0  0  0  0  0
    1.6079   -0.7900    1.2885 H   0  0  0  0  0  0  0  0  0  0  0  0
    1.0726    0.7770    1.8355 H   0  0  0  0  0  0  0  0  0  0  0  0
    2.5342   -3.7548    2.7490 H   0  0  0  0  0  0  0  0  0  0  0  0
    3.2428   -1.7095    1.0018 H   0  0  0  0  0  0  0  0  0  0  0  0
    2.4388   -4.6468   -0.9035 H   0  0  0  0  0  0  0  0  0  0  0  0
    2.1884   -2.9166   -0.8448 H   0  0  0  0  0  0  0  0  0  0  0  0
    4.8366   -4.3465   -1.4050 H   0  0  0  0  0  0  0  0  0  0  0  0
    3.4130   -4.3002   -3.1174 H   0  0  0  0  0  0  0  0  0  0  0  0
    5.8404   -2.1391   -1.6980 H   0  0  0  0  0  0  0  0  0  0  0  0
    3.2134   -1.2100   -1.1724 H   0  0  0  0  0  0  0  0  0  0  0  0
    5.9487   -3.0781    0.6090 H   0  0  0  0  0  0  0  0  0  0  0  0
    5.1459   -0.3559    0.6482 H   0  0  0  0  0  0  0  0  0  0  0  0
    5.7320   -3.4312    4.8515 H   0  0  0  0  0  0  0  0  0  0  0  0
    5.6639   -4.5114    3.4689 H   0  0  0  0  0  0  0  0  0  0  0  0
    5.5815   -5.1623    5.0840 H   0  0  0  0  0  0  0  0  0  0  0  0
    0.5330   -4.9640    4.0574 H   0  0  0  0  0  0  0  0  0  0  0  0
   -0.6804   -6.2667    2.5798 H   0  0  0  0  0  0  0  0  0  0  0  0
   -0.0443   -8.2557    1.5802 H   0  0  0  0  0  0  0  0  0  0  0  0
    1.6129   -7.8200    1.7726 H   0  0  0  0  0  0  0  0  0  0  0  0
   -0.5664  -10.1797    4.2779 H   0  0  0  0  0  0  0  0  0  0  0  0
    0.7141  -10.8974    2.1207 H   0  0  0  0  0  0  0  0  0  0  0  0
    2.2681  -10.0859    2.0956 H   0  0  0  0  0  0  0  0  0  0  0  0
    1.2012  -11.8731    4.2775 H   0  0  0  0  0  0  0  0  0  0  0  0
    2.8322  -11.8100    3.5945 H   0  0  0  0  0  0  0  0  0  0  0  0
    0.1694   -7.6230    5.7686 H   0  0  0  0  0  0  0  0  0  0  0  0
    1.4680   -8.2693    6.7775 H   0  0  0  0  0  0  0  0  0  0  0  0
    0.1936   -9.3205    6.2193 H   0  0  0  0  0  0  0  0  0  0  0  0
    3.5045   -7.7857    5.2855 H   0  0  0  0  0  0  0  0  0  0  0  0
    3.9070   -8.8820    3.3928 H   0  0  0  0  0  0  0  0  0  0  0  0
    1.9176   -6.0497    6.6498 H   0  0  0  0  0  0  0  0  0  0  0  0
    3.8304   -4.7956    7.8900 H   0  0  0  0  0  0  0  0  0  0  0  0
    4.7881   -3.7543    6.9859 H   0  0  0  0  0  0  0  0  0  0  0  0
    2.1648   -4.1051    9.0468 H   0  0  0  0  0  0  0  0  0  0  0  0
    2.1069   -2.3817    6.1065 H   0  0  0  0  0  0  0  0  0  0  0  0
    4.7914   -1.6424    6.9594 H   0  0  0  0  0  0  0  0  0  0  0  0
    6.0416    1.1197    6.5458 H   0  0  0  0  0  0  0  0  0  0  0  0
    6.4581    0.6735    4.8902 H   0  0  0  0  0  0  0  0  0  0  0  0
    6.5978   -0.4992    6.1885 H   0  0  0  0  0  0  0  0  0  0  0  0
    4.2716    1.9066    5.0729 H   0  0  0  0  0  0  0  0  0  0  0  0
    2.2845    3.0491    4.5472 H   0  0  0  0  0  0  0  0  0  0  0  0
    2.6979    3.2041    6.2373 H   0  0  0  0  0  0  0  0  0  0  0  0
    1.0116    2.9554    5.7361 H   0  0  0  0  0  0  0  0  0  0  0  0
    2.2353   -2.8359   10.6071 H   0  0  0  0  0  0  0  0  0  0  0  0
    3.1964   -1.5620   11.2901 H   0  0  0  0  0  0  0  0  0  0  0  0
  1  2  2  0
  1 64  1  0
  1 65  1  0
  2 63  1  0
  2  3  1  0
  3  4  1  0
  3 66  1  0
  3 67  1  0
  4  5  1  0
  4  6  1  0
  4 68  1  1
  5 69  1  0
  6 51  1  0
  6  7  1  6
  6 63  1  0
  7  8  1  0
  7 70  1  0
  7 71  1  0
  8  9  1  0
  9 61  1  0
  9 10  1  1
  9 11  1  0
 10 72  1  0
 11 53  1  0
 11 12  1  1
 11 13  1  0
 12 73  1  0
 12 74  1  0
 12 75  1  0
 13 14  1  0
 13 76  1  0
 13 77  1  0
 14 15  1  0
 14 78  1  0
 14 79  1  0
 15 61  1  0
 15 16  1  0
 15 80  1  6
 59 16  1  1
 16 17  1  6
 16 18  1  0
 17 81  1  0
 17 82  1  0
 17 83  1  0
 18 19  2  0
 18 20  1  0
 20 21  1  0
 20 31  1  0
 20 84  1  6
 21 22  1  0
 22 29  1  0
 22 23  1  0
 22 85  1  1
 23 24  1  0
 24 25  1  0
 24 86  1  0
 24 87  1  0
 25 26  1  0
 25 27  1  0
 25 88  1  6
 26 89  1  0
 27 28  1  0
 27 29  1  0
 27 90  1  6
 28 91  1  0
 29 30  1  0
 29 92  1  6
 30 93  1  0
 31 49  1  0
 31 32  1  1
 31 33  1  0
 32 94  1  0
 32 95  1  0
 32 96  1  0
 34 33  1  6
 34 46  1  0
 34 35  1  0
 34 48  1  0
 35 36  2  0
 35 97  1  0
 36 37  1  0
 36 98  1  0
 37 38  1  0
 37 99  1  0
 37100  1  0
 38 44  1  0
 38 39  1  1
 38 40  1  0
 39101  1  0
 40 41  1  0
 40102  1  0
 40103  1  0
 41 42  1  0
 41104  1  0
 41105  1  0
 42 43  2  0
 42 44  1  0
 44 45  1  1
 44 46  1  0
 45106  1  0
 45107  1  0
 45108  1  0
 46 47  1  0
 46109  1  1
 47110  1  0
 48 49  2  0
 48111  1  0
 49 50  1  0
 50 51  1  0
 50112  1  0
 50113  1  0
 51 52  1  1
 51 53  1  0
 52114  1  0
 53 54  1  0
 53115  1  6
 54 56  1  0
 54 55  1  0
 54116  1  1
 55 56  1  0
 56 57  1  1
 56 58  1  0
 57117  1  0
 57118  1  0
 57119  1  0
 58 59  1  0
 58 61  1  0
 58120  1  6
 59 60  2  0
 61 62  1  1
 62121  1  0
 62122  1  0
 62123  1  0
 63124  1  0
 63125  1  0
M  END
>  <i_m_ct_stereo_status>  (30) 
1

>  <s_m_source_file>  (30) 
/var/tmp/pbs.5075288.sched01/tmpsukb34hn/166582q88ej.sdf

>  <i_m_source_file_index>  (30) 
12

>  <i_lp_mmshare_version>  (30) 
48012

>  <i_f3d_flags>  (30) 
2

>  <s_epik_input>  (30) 
W0NIMl09QyhbQ0gyXTEpW0NIMl1bQ0BASF0oW09IXSlbQ0BAXTEyW0NAXTMoW09IXSlbQ0BIXTRbQ0BAXTUoW0NIM10pW0NAQF0oW09IXSkoT1tDSDJdMilbQ0BdNihbQ0gzXSlbQ0BIXShbQ0gyXVtDSDJdNSlbQ0BAXShbQ0gzXSkoW1MrXShbTy1dKVtDQEBIXTZbQ0BdNyhbQ0BIXTRPNylbQ0gzXSlDKD1PKVtDQEBIXShPW0NAQEhdOE9bQ0gyXVtDQEBIXShbT0hdKVtDQEBIXShbT0hdKVtDQEhdOFtPSF0pW0NAXTkoW0NIM10pQyhbQ0gyXTMpPVtDSF1bQ0BdMShPOSlbQ0hdPVtDSF1bQ0gyXVtDQF0yKFtPSF0pW0NAXShbQ0gzXSkoW0NASF0xW09IXSlDKD1PKVtDSDJdW0NIMl0y

>  <s_epik_cmdline>  (30) 
J2VwaWtfcHl0aG9uJywgJy1waHQnLCAnMi4wJywgJy1waCcsICc3LjAnLCAnLXRuJywgJzgnLCAnLW1hJywgJzIwMCcsICctaW1hZScsICc8aW5maWxlLm1hZT4nLCAnLW9tYWUnLCAnPG91dGZpbGUubWFlPic=

>  <r_lp_tautomer_probability>  (30) 
1

>  <r_epik_Ionization_Penalty>  (30) 
3.22244e-06

>  <r_epik_Ionization_Penalty_Charging>  (30) 
0

>  <r_epik_Ionization_Penalty_Neutral>  (30) 
3.22244e-06

>  <r_epik_State_Penalty>  (30) 
-0

>  <r_epik_Charging_Adjusted_Penalty>  (30) 
0

>  <i_epik_Tot_Q>  (30) 
0

>  <i_epik_Tot_abs_Q>  (30) 
2

>  <s_epik_Chemistry_Notes>  (30) 
This compound contains an acetal/aminal-like group ( X-CH(R)-Y where X, Y are N, S, or O) that may be acid/base labile, releasing an aldehyde.

>  <s_lp_Force_Field>  (30) 
OPLS3e

>  <r_lp_Energy>  (30) 
227.644

>  <b_lp_Chiralities_Consistent>  (30) 
0

>  <s_lp_Variant>  (30) 
39:0-1

>  <s_i_glide_gridfile>  (30) 
pfpi4k_grid

>  <i_i_glide_lignum>  (30) 
12

>  <i_i_glide_rotatable_bonds>  (30) 
10

>  <r_i_docking_score>  (30) 
-3.51168

>  <r_i_glide_ligand_efficiency>  (30) 
-0.0557409

>  <r_i_glide_ligand_efficiency_sa>  (30) 
-0.221796

>  <r_i_glide_ligand_efficiency_ln>  (30) 
-0.682789

>  <r_i_glide_gscore>  (30) 
-3.51168

>  <r_i_glide_lipo>  (30) 
-0.308147

>  <r_i_glide_hbond>  (30) 
-0.0935017

>  <r_i_glide_metal>  (30) 
-0

>  <r_i_glide_rewards>  (30) 
-0.0052101

>  <r_i_glide_evdw>  (30) 
-44.2597

>  <r_i_glide_ecoul>  (30) 
-6.02099

>  <r_i_glide_erotb>  (30) 
0.0540966

>  <r_i_glide_esite>  (30) 
-0.0427791

>  <r_i_glide_emodel>  (30) 
-57.7272

>  <r_i_glide_energy>  (30) 
-50.2807

>  <r_i_glide_einternal>  (30) 
3.25364

>  <r_i_glide_intrahb_reward>  (30) 
-0

>  <i_i_glide_confnum>  (30) 
1

>  <i_i_glide_posenum>  (30) 
36

>  <r_i_glide_eff_state_penalty>  (30) 
0

>  <ligand_id>  (30) 
39

>  <original_smiles>  (30) 
C=C1CC(O)C2(COC3(O)C4(C)CCC5C6(C)C(=O)C(OC7OCC(O)C(O)C7O)C7(C)OC8(C=CCC9(O)CCC(=O)C9(C)C8O)C=C7CC2(O)C4C2OC2(C)C([S+]6[O-])C53C)C1

>  <smiles>  (30) 
[H]OC1([H])C([H])([H])OC([H])(OC2([H])C(=O)C3(C([H])([H])[H])S(=O)C4([H])C5(C([H])([H])[H])OC5([H])C5([H])C(O[H])(C([H])([H])C6=C([H])C7(OC62C([H])([H])[H])C([H])=C([H])C([H])([H])C2(O[H])C([H])([H])C([H])([H])C(=O)C2(C([H])([H])[H])C7([H])O[H])C2(C([H])([H])OC6(O[H])C5(C([H])([H])[H])C([H])([H])C([H])([H])C3([H])C64C([H])([H])[H])C([H])([H])C(=C([H])[H])C([H])([H])C2([H])O[H])C([H])(O[H])C1([H])O[H]

$$$$
40:0:0
     RDKit          3D

121129  0  0  1  0  0  0  0  0999 V2000
   -2.6886    3.4830    2.7006 C   0  0  0  0  0  0  0  0  0  0  0  0
   -1.4201    3.0786    2.9203 C   0  0  0  0  0  0  0  0  0  0  0  0
   -0.7256    2.9070    4.2686 C   0  0  1  0  0  0  0  0  0  0  0  0
   -1.5793    3.5490    5.3929 C   0  0  0  0  0  0  0  0  0  0  0  0
   -0.3235    1.4311    4.5102 C   0  0  0  0  0  0  0  0  0  0  0  0
    0.8989    1.5038    5.5190 C   0  0  2  0  0  0  0  0  0  0  0  0
    1.7801    2.6372    4.7739 C   0  0  2  0  0  0  0  0  0  0  0  0
    2.4589    2.3517    3.4075 C   0  0  0  0  0  0  0  0  0  0  0  0
    2.7939    3.4568    5.5915 C   0  0  0  0  0  0  0  0  0  0  0  0
    4.2428    2.9204    5.7546 C   0  0  1  0  0  0  0  0  0  0  0  0
    5.1422    4.1875    5.7753 C   0  0  0  0  0  0  0  0  0  0  0  0
    4.5108    1.9987    6.9863 C   0  0  2  0  0  0  0  0  0  0  0  0
    6.3676    1.7375    7.0660 S   0  0  0  0  0  0  0  0  0  0  0  0
    6.8090    0.8704    5.8860 O   0  0  0  0  0  0  0  0  0  0  0  0
    6.0897    0.6809    8.4463 C   0  0  0  0  0  0  0  0  0  0  0  0
    4.8206    0.2590    8.5007 C   0  0  0  0  0  0  0  0  0  0  0  0
    3.7990    0.5888    7.3861 C   0  0  1  0  0  0  0  0  0  0  0  0
    2.2359    0.7775    7.8398 C   0  0  2  0  0  0  0  0  0  0  0  0
    1.9661    2.1383    8.0740 O   0  0  0  0  0  0  0  0  0  0  0  0
    1.9693    0.3687    9.3663 C   0  0  1  0  0  0  0  0  0  0  0  0
    0.6253    0.6258    9.7360 O   0  0  0  0  0  0  0  0  0  0  0  0
    2.4133   -1.0020    9.9504 C   0  0  0  0  0  0  0  0  0  0  0  0
    2.8085   -2.0586    8.8864 C   0  0  0  0  0  0  0  0  0  0  0  0
    1.8515   -2.1166    7.6415 C   0  0  2  0  0  0  0  0  0  0  0  0
    0.5836   -2.5016    8.6274 C   0  0  0  0  0  0  0  0  0  0  0  0
    1.6781   -3.4644    7.0384 C   0  0  0  0  0  0  0  0  0  0  0  0
    2.1760   -4.4997    7.4957 O   0  0  0  0  0  0  0  0  0  0  0  0
    0.6952   -3.4327    5.8877 C   0  0  2  0  0  0  0  0  0  0  0  0
   -0.1848   -4.5415    6.0012 O   0  0  0  0  0  0  0  0  0  0  0  0
    1.6358   -3.9246    4.6488 C   0  0  0  0  0  0  0  0  0  0  0  0
    3.2241   -4.0918    4.8227 C   0  0  0  0  0  0  0  0  0  0  0  0
    3.7500   -5.3101    4.8972 C   0  0  0  0  0  0  0  0  0  0  0  0
    5.2222   -5.2932    5.1409 C   0  0  0  0  0  0  0  0  0  0  0  0
    5.5967   -5.8648    6.5074 C   0  0  0  0  0  0  0  0  0  0  0  0
    6.0232   -5.9306    3.9852 C   0  0  0  0  0  0  0  0  0  0  0  0
    5.5477   -3.9327    5.2694 O   0  0  0  0  0  0  0  0  0  0  0  0
    4.4482   -3.0761    5.0046 C   0  0  1  0  0  0  0  0  0  0  0  0
    4.9548   -2.5186    3.6708 C   0  0  0  0  0  0  0  0  0  0  0  0
    4.5402   -2.0512    6.2343 C   0  0  1  0  0  0  0  0  0  0  0  0
    5.8972   -1.7143    6.4604 O   0  0  0  0  0  0  0  0  0  0  0  0
    3.7015   -0.6437    6.3189 C   0  0  2  0  0  0  0  0  0  0  0  0
    4.2354   -0.0450    5.1647 O   0  0  0  0  0  0  0  0  0  0  0  0
    2.1637   -0.9427    6.3032 C   0  0  1  0  0  0  0  0  0  0  0  0
    1.9128   -1.1292    4.6785 C   0  0  0  0  0  0  0  0  0  0  0  0
    2.2917   -0.3340    3.5570 O   0  0  0  0  0  0  0  0  0  0  0  0
    2.3275   -0.8656    2.2734 C   0  0  0  0  0  0  0  0  0  0  0  0
    1.6398   -1.8056    1.8959 O   0  0  0  0  0  0  0  0  0  0  0  0
    3.3726   -0.2634    1.5842 N   0  0  0  0  0  0  0  0  0  0  0  0
    3.8521   -0.6710    0.2583 C   0  0  0  0  0  0  0  0  0  0  0  0
    4.7473   -1.9092    0.2558 C   0  0  0  0  0  0  0  0  0  0  0  0
    4.3006   -3.0935   -0.3507 C   0  0  0  0  0  0  0  0  0  0  0  0
    5.1289   -4.2192   -0.3317 C   0  0  0  0  0  0  0  0  0  0  0  0
    6.3915   -4.1217    0.2744 C   0  0  0  0  0  0  0  0  0  0  0  0
    6.8551   -2.9698    0.8105 N   0  0  0  0  0  0  0  0  0  0  0  0
    6.0445   -1.8926    0.8115 C   0  0  0  0  0  0  0  0  0  0  0  0
    1.2806    0.2723    6.5830 C   0  0  2  0  0  0  0  0  0  0  0  0
   -0.1071   -0.5859    6.7116 C   0  0  1  0  0  0  0  0  0  0  0  0
   -1.3059    0.1401    6.8500 O   0  0  0  0  0  0  0  0  0  0  0  0
   -0.3546   -2.0949    5.9546 C   0  0  0  0  0  0  0  0  0  0  0  0
    0.6436    3.5845    4.2830 C   0  0  0  0  0  0  0  0  0  0  0  0
    0.8045    4.7438    3.9359 O   0  0  0  0  0  0  0  0  0  0  0  0
   -3.3684    3.7323    3.5031 H   0  0  0  0  0  0  0  0  0  0  0  0
   -3.0942    3.5861    1.7012 H   0  0  0  0  0  0  0  0  0  0  0  0
   -0.7843    2.8613    2.0795 H   0  0  0  0  0  0  0  0  0  0  0  0
   -1.8080    4.5794    5.1212 H   0  0  0  0  0  0  0  0  0  0  0  0
   -1.0825    3.6200    6.3562 H   0  0  0  0  0  0  0  0  0  0  0  0
   -2.5278    3.0337    5.5424 H   0  0  0  0  0  0  0  0  0  0  0  0
   -1.2538    0.9251    4.7397 H   0  0  0  0  0  0  0  0  0  0  0  0
   -0.0208    0.9225    3.5919 H   0  0  0  0  0  0  0  0  0  0  0  0
    0.4240    2.0974    6.2936 H   0  0  0  0  0  0  0  0  0  0  0  0
    3.3290    1.7056    3.4839 H   0  0  0  0  0  0  0  0  0  0  0  0
    2.7847    3.2583    2.8829 H   0  0  0  0  0  0  0  0  0  0  0  0
    1.7733    1.8677    2.7057 H   0  0  0  0  0  0  0  0  0  0  0  0
    2.9078    4.3746    5.0207 H   0  0  0  0  0  0  0  0  0  0  0  0
    2.3795    3.8365    6.5172 H   0  0  0  0  0  0  0  0  0  0  0  0
    4.6146    2.4185    4.8719 H   0  0  0  0  0  0  0  0  0  0  0  0
    4.9891    4.7774    6.6767 H   0  0  0  0  0  0  0  0  0  0  0  0
    4.9545    4.8282    4.9114 H   0  0  0  0  0  0  0  0  0  0  0  0
    6.2032    3.9590    5.6876 H   0  0  0  0  0  0  0  0  0  0  0  0
    4.3309    2.6753    7.8306 H   0  0  0  0  0  0  0  0  0  0  0  0
    6.9054    0.4810    9.1389 H   0  0  0  0  0  0  0  0  0  0  0  0
    4.6284   -0.2793    9.3887 H   0  0  0  0  0  0  0  0  0  0  0  0
    1.0992    2.1625    8.4677 H   0  0  0  0  0  0  0  0  0  0  0  0
    2.5308    1.0646    9.9978 H   0  0  0  0  0  0  0  0  0  0  0  0
    0.5540    0.5983   10.6846 H   0  0  0  0  0  0  0  0  0  0  0  0
    3.2323   -0.8711   10.6631 H   0  0  0  0  0  0  0  0  0  0  0  0
    1.6734   -1.3924   10.6565 H   0  0  0  0  0  0  0  0  0  0  0  0
    3.8575   -1.9590    8.7018 H   0  0  0  0  0  0  0  0  0  0  0  0
    2.8579   -3.0231    9.4114 H   0  0  0  0  0  0  0  0  0  0  0  0
    0.1816   -1.7508    9.3001 H   0  0  0  0  0  0  0  0  0  0  0  0
    0.8275   -3.3028    9.3428 H   0  0  0  0  0  0  0  0  0  0  0  0
   -0.3267   -2.9324    8.2157 H   0  0  0  0  0  0  0  0  0  0  0  0
   -0.5607   -4.5464    6.8728 H   0  0  0  0  0  0  0  0  0  0  0  0
    1.3063   -4.9260    4.3693 H   0  0  0  0  0  0  0  0  0  0  0  0
    1.3514   -3.4094    3.7272 H   0  0  0  0  0  0  0  0  0  0  0  0
    3.1943   -6.2492    4.8255 H   0  0  0  0  0  0  0  0  0  0  0  0
    5.3326   -6.9191    6.5712 H   0  0  0  0  0  0  0  0  0  0  0  0
    5.0651   -5.3169    7.2887 H   0  0  0  0  0  0  0  0  0  0  0  0
    6.6643   -5.7458    6.6882 H   0  0  0  0  0  0  0  0  0  0  0  0
    5.8080   -6.9966    3.9177 H   0  0  0  0  0  0  0  0  0  0  0  0
    7.0941   -5.8113    4.1326 H   0  0  0  0  0  0  0  0  0  0  0  0
    5.7725   -5.4838    3.0231 H   0  0  0  0  0  0  0  0  0  0  0  0
    4.3920   -1.6816    3.3258 H   0  0  0  0  0  0  0  0  0  0  0  0
    4.9747   -3.3185    2.9159 H   0  0  0  0  0  0  0  0  0  0  0  0
    5.9876   -2.1620    3.7477 H   0  0  0  0  0  0  0  0  0  0  0  0
    4.3266   -2.7466    7.0244 H   0  0  0  0  0  0  0  0  0  0  0  0
    6.1440   -1.0345    5.8367 H   0  0  0  0  0  0  0  0  0  0  0  0
    3.7764    0.7660    4.9951 H   0  0  0  0  0  0  0  0  0  0  0  0
    2.5152   -1.9414    4.4170 H   0  0  0  0  0  0  0  0  0  0  0  0
    0.8972   -1.2844    4.3329 H   0  0  0  0  0  0  0  0  0  0  0  0
    3.8359    0.4721    2.0883 H   0  0  0  0  0  0  0  0  0  0  0  0
    3.0165   -0.8314   -0.4116 H   0  0  0  0  0  0  0  0  0  0  0  0
    4.4334    0.1250   -0.1929 H   0  0  0  0  0  0  0  0  0  0  0  0
    3.3265   -3.1333   -0.8195 H   0  0  0  0  0  0  0  0  0  0  0  0
    4.8048   -5.1546   -0.7803 H   0  0  0  0  0  0  0  0  0  0  0  0
    7.0438   -4.9806    0.3384 H   0  0  0  0  0  0  0  0  0  0  0  0
    6.4498   -1.0160    1.2855 H   0  0  0  0  0  0  0  0  0  0  0  0
   -0.2281   -0.6161    7.7660 H   0  0  0  0  0  0  0  0  0  0  0  0
   -1.4718    0.6120    6.0269 H   0  0  0  0  0  0  0  0  0  0  0  0
   -0.7752   -1.9438    4.9605 H   0  0  0  0  0  0  0  0  0  0  0  0
   -1.2613   -2.4690    6.4333 H   0  0  0  0  0  0  0  0  0  0  0  0
  1  2  2  0
  1 62  1  0
  1 63  1  0
  2  3  1  0
  2 64  1  0
  3 60  1  0
  3  4  1  1
  3  5  1  0
  4 65  1  0
  4 66  1  0
  4 67  1  0
  5  6  1  0
  5 68  1  0
  5 69  1  0
  6 56  1  0
  6  7  1  0
  6 70  1  1
  7  8  1  6
  7  9  1  0
  7 60  1  0
  8 71  1  0
  8 72  1  0
  8 73  1  0
  9 10  1  0
  9 74  1  0
  9 75  1  0
 10 11  1  0
 10 12  1  0
 10 76  1  6
 11 77  1  0
 11 78  1  0
 11 79  1  0
 12 17  1  0
 12 13  1  0
 12 80  1  1
 13 14  2  0
 13 15  1  1
 15 16  2  0
 15 81  1  0
 17 16  1  1
 16 82  1  0
 17 41  1  0
 17 18  1  0
 56 18  1  1
 18 19  1  1
 18 20  1  0
 19 83  1  0
 20 21  1  0
 20 22  1  0
 20 84  1  1
 21 85  1  0
 22 23  1  0
 22 86  1  0
 22 87  1  0
 23 24  1  0
 23 88  1  0
 23 89  1  0
 24 43  1  0
 24 25  1  1
 24 26  1  0
 25 90  1  0
 25 91  1  0
 25 92  1  0
 26 27  2  0
 26 28  1  0
 28 59  1  0
 28 29  1  1
 28 30  1  0
 29 93  1  0
 30 31  1  0
 30 94  1  0
 30 95  1  0
 31 37  1  0
 31 32  2  0
 32 33  1  0
 32 96  1  0
 33 34  1  0
 33 35  1  0
 33 36  1  0
 34 97  1  0
 34 98  1  0
 34 99  1  0
 35100  1  0
 35101  1  0
 35102  1  0
 36 37  1  0
 37 38  1  6
 37 39  1  0
 38103  1  0
 38104  1  0
 38105  1  0
 39 40  1  0
 39 41  1  0
 39106  1  1
 40107  1  0
 41 42  1  6
 41 43  1  0
 42108  1  0
 43 44  1  6
 43 56  1  0
 44 45  1  0
 44109  1  0
 44110  1  0
 45 46  1  0
 46 47  2  0
 46 48  1  0
 48 49  1  0
 48111  1  0
 49 50  1  0
 49112  1  0
 49113  1  0
 50 55  1  0
 50 51  2  0
 51 52  1  0
 51114  1  0
 52 53  2  0
 52115  1  0
 53 54  1  0
 53116  1  0
 54 55  2  0
 55117  1  0
 56 57  1  0
 57 58  1  0
 57 59  1  0
 57118  1  1
 58119  1  0
 59120  1  0
 59121  1  0
 60 61  2  0
M  END
>  <i_m_ct_stereo_status>  (31) 
1

>  <s_m_source_file>  (31) 
/var/tmp/pbs.5075288.sched01/tmpsukb34hn/166582q88ej.sdf

>  <i_m_source_file_index>  (31) 
13

>  <i_lp_mmshare_version>  (31) 
48012

>  <i_f3d_flags>  (31) 
0

>  <s_epik_input>  (31) 
W0NIXTE9W0NIXVtTK10oW08tXSlbQ0BIXShbQ0BAXTEyMylbQ0BIXShbQ0gzXSlbQ0gyXVtDQEBdNChbQ0gzXSlbQ0BASF0oW0NIMl1bQ0BAXShbQ0gzXSkoQzQ9TylbQ0hdPVtDSDJdKVtDQF01NkMyKFtPSF0pW0NAQEhdKFtPSF0pW0NIMl1bQ0gyXVtDQEBdNyhbQ0gzXSlbQ0BAXTUoW0NAXTMoW09IXSlbQ0BIXShbT0hdKVtDQF04KFtDSDNdKUMoPVtDSF1DKE84KShbQ0gzXSlbQ0gzXSlbQ0gyXVtDQEBdKEM3PU8pKFtPSF0pW0NIMl1bQ0BASF02W09IXSlbQ0gyXU9DKD1PKVtOSF1bQ0gyXWM5W2NIXVtjSF1bY0hdbltjSF05

>  <s_epik_cmdline>  (31) 
J2VwaWtfcHl0aG9uJywgJy1waHQnLCAnMi4wJywgJy1waCcsICc3LjAnLCAnLXRuJywgJzgnLCAnLW1hJywgJzIwMCcsICctaW1hZScsICc8aW5maWxlLm1hZT4nLCAnLW9tYWUnLCAnPG91dGZpbGUubWFlPic=

>  <r_epik_Ionization_Penalty>  (31) 
0.00734594

>  <r_epik_Ionization_Penalty_Charging>  (31) 
0

>  <r_epik_Ionization_Penalty_Neutral>  (31) 
0.00734594

>  <r_epik_State_Penalty>  (31) 
0.00546351

>  <r_epik_Charging_Adjusted_Penalty>  (31) 
0.00546351

>  <i_epik_Tot_Q>  (31) 
0

>  <i_epik_Tot_abs_Q>  (31) 
2

>  <s_epik_Chemistry_Notes>  (31) 
This compound has an ester and may undergo hydrolysis at high or low pH.

>  <s_lp_Force_Field>  (31) 
OPLS3e

>  <r_lp_Energy>  (31) 
422.05

>  <b_lp_Chiralities_Consistent>  (31) 
1

>  <s_lp_Variant>  (31) 
40:0-1

>  <s_i_glide_gridfile>  (31) 
pfpi4k_grid

>  <i_i_glide_lignum>  (31) 
13

>  <i_i_glide_rotatable_bonds>  (31) 
13

>  <r_i_docking_score>  (31) 
-3.3774

>  <r_i_glide_ligand_efficiency>  (31) 
-0.0553671

>  <r_i_glide_ligand_efficiency_sa>  (31) 
-0.217953

>  <r_i_glide_ligand_efficiency_ln>  (31) 
-0.660826

>  <r_i_glide_gscore>  (31) 
-3.3774

>  <r_i_glide_lipo>  (31) 
-0.364951

>  <r_i_glide_hbond>  (31) 
-0.14435

>  <r_i_glide_metal>  (31) 
-0

>  <r_i_glide_rewards>  (31) 
-0.535857

>  <r_i_glide_evdw>  (31) 
-37.53

>  <r_i_glide_ecoul>  (31) 
-3.71047

>  <r_i_glide_erotb>  (31) 
0.17609

>  <r_i_glide_esite>  (31) 
-0.0752559

>  <r_i_glide_emodel>  (31) 
-46.6311

>  <r_i_glide_energy>  (31) 
-41.2405

>  <r_i_glide_einternal>  (31) 
10.7261

>  <r_i_glide_intrahb_reward>  (31) 
-0.5

>  <i_i_glide_confnum>  (31) 
3

>  <i_i_glide_posenum>  (31) 
24

>  <r_i_glide_eff_state_penalty>  (31) 
0

>  <ligand_id>  (31) 
40

>  <original_smiles>  (31) 
C=CC1(C)CC2C(C)(CC(C)C3[S+]([O-])C=CC34C3(O)C(O)CCC5(C)C(=O)C6(O)CC7=CC(C)(C)OC7(C)C(O)C4(O)C5(COC(=O)NCc4cccnc4)C23C(O)C6)C1=O

>  <smiles>  (31) 
[H]OC1([H])C([H])([H])C([H])([H])C2(C([H])([H])[H])C(=O)C3(O[H])C([H])([H])C4=C([H])C(C([H])([H])[H])(C([H])([H])[H])OC4(C([H])([H])[H])C([H])(O[H])C4(O[H])C56C([H])=C([H])S(=O)C5([H])C([H])(C([H])([H])[H])C([H])([H])C5(C([H])([H])[H])C(=O)C(C([H])=C([H])[H])(C([H])([H])[H])C([H])([H])C5([H])C(C([H])(O[H])C3([H])[H])(C16O[H])C42C([H])([H])OC(=O)N([H])C([H])([H])c1c([H])nc([H])c([H])c1[H]

$$$$
40:0:1
     RDKit          3D

121129  0  0  1  0  0  0  0  0999 V2000
   -1.2616    3.5016    3.2763 C   0  0  0  0  0  0  0  0  0  0  0  0
   -0.5638    4.2340    4.1669 C   0  0  0  0  0  0  0  0  0  0  0  0
    0.1280    3.7210    5.4271 C   0  0  1  0  0  0  0  0  0  0  0  0
   -0.6164    4.2859    6.6568 C   0  0  0  0  0  0  0  0  0  0  0  0
    0.3072    2.2000    5.4679 C   0  0  0  0  0  0  0  0  0  0  0  0
    1.5531    1.9171    6.4020 C   0  0  2  0  0  0  0  0  0  0  0  0
    2.5743    2.9733    5.7474 C   0  0  2  0  0  0  0  0  0  0  0  0
    3.1204    2.7014    4.3088 C   0  0  0  0  0  0  0  0  0  0  0  0
    3.7214    3.5438    6.6227 C   0  0  0  0  0  0  0  0  0  0  0  0
    5.0928    2.8238    6.6188 C   0  0  1  0  0  0  0  0  0  0  0  0
    6.1689    3.9390    6.8040 C   0  0  0  0  0  0  0  0  0  0  0  0
    5.2713    1.6781    7.6727 C   0  0  2  0  0  0  0  0  0  0  0  0
    7.0715    1.1671    7.6069 S   0  0  0  0  0  0  0  0  0  0  0  0
    7.3589    0.4627    6.2795 O   0  0  0  0  0  0  0  0  0  0  0  0
    6.7004   -0.0548    8.8101 C   0  0  0  0  0  0  0  0  0  0  0  0
    5.3957   -0.3186    8.8666 C   0  0  0  0  0  0  0  0  0  0  0  0
    4.3864    0.3295    7.8918 C   0  0  1  0  0  0  0  0  0  0  0  0
    2.8779    0.6244    8.4563 C   0  0  2  0  0  0  0  0  0  0  0  0
    2.8063    1.9500    8.9261 O   0  0  0  0  0  0  0  0  0  0  0  0
    2.6123   -0.0079    9.8943 C   0  0  1  0  0  0  0  0  0  0  0  0
    1.3265    0.3491   10.3711 O   0  0  0  0  0  0  0  0  0  0  0  0
    2.8874   -1.5059   10.2095 C   0  0  0  0  0  0  0  0  0  0  0  0
    3.1065   -2.4140    8.9753 C   0  0  0  0  0  0  0  0  0  0  0  0
    2.0989   -2.1440    7.8015 C   0  0  2  0  0  0  0  0  0  0  0  0
    0.8184   -2.5318    8.7688 C   0  0  0  0  0  0  0  0  0  0  0  0
    1.7574   -3.3157    6.9632 C   0  0  0  0  0  0  0  0  0  0  0  0
    2.1446   -4.4666    7.1919 O   0  0  0  0  0  0  0  0  0  0  0  0
    0.7783   -2.9413    5.8695 C   0  0  2  0  0  0  0  0  0  0  0  0
   -0.2280   -3.9400    5.8515 O   0  0  0  0  0  0  0  0  0  0  0  0
    1.6267   -3.2657    4.5208 C   0  0  0  0  0  0  0  0  0  0  0  0
    3.1632   -3.6778    4.5933 C   0  0  0  0  0  0  0  0  0  0  0  0
    3.5125   -4.9538    4.4296 C   0  0  0  0  0  0  0  0  0  0  0  0
    4.9808   -5.1688    4.5920 C   0  0  0  0  0  0  0  0  0  0  0  0
    5.3022   -6.0229    5.8210 C   0  0  0  0  0  0  0  0  0  0  0  0
    5.6399   -5.7111    3.3126 C   0  0  0  0  0  0  0  0  0  0  0  0
    5.4958   -3.8839    4.8776 O   0  0  0  0  0  0  0  0  0  0  0  0
    4.4940   -2.8566    4.8386 C   0  0  1  0  0  0  0  0  0  0  0  0
    4.9855   -2.1115    3.5749 C   0  0  0  0  0  0  0  0  0  0  0  0
    4.7461   -2.1083    6.2548 C   0  0  1  0  0  0  0  0  0  0  0  0
    6.1412   -2.0034    6.4778 O   0  0  0  0  0  0  0  0  0  0  0  0
    4.0811   -0.6663    6.6520 C   0  0  2  0  0  0  0  0  0  0  0  0
    4.6965    0.0776    5.6224 O   0  0  0  0  0  0  0  0  0  0  0  0
    2.4897   -0.7964    6.6847 C   0  0  1  0  0  0  0  0  0  0  0  0
    2.2716   -0.5884    5.0931 C   0  0  0  0  0  0  0  0  0  0  0  0
    1.1207   -0.3465    4.2663 O   0  0  0  0  0  0  0  0  0  0  0  0
    1.1889   -0.1001    2.9172 C   0  0  0  0  0  0  0  0  0  0  0  0
    0.1929    0.1720    2.2530 O   0  0  0  0  0  0  0  0  0  0  0  0
    2.4958   -0.1874    2.4597 N   0  0  0  0  0  0  0  0  0  0  0  0
    2.9750    0.1221    1.1344 C   0  0  0  0  0  0  0  0  0  0  0  0
    3.9410   -0.9229    0.5941 C   0  0  0  0  0  0  0  0  0  0  0  0
    3.4744   -2.1903    0.1961 C   0  0  0  0  0  0  0  0  0  0  0  0
    4.3989   -3.1292   -0.3021 C   0  0  0  0  0  0  0  0  0  0  0  0
    5.7516   -2.7549   -0.3984 C   0  0  0  0  0  0  0  0  0  0  0  0
    6.2115   -1.5405   -0.0237 N   0  0  0  0  0  0  0  0  0  0  0  0
    5.3179   -0.6524    0.4677 C   0  0  0  0  0  0  0  0  0  0  0  0
    1.7935    0.4683    7.2070 C   0  0  2  0  0  0  0  0  0  0  0  0
    0.3206   -0.2453    7.2357 C   0  0  1  0  0  0  0  0  0  0  0  0
   -0.8216    0.5463    7.5131 O   0  0  0  0  0  0  0  0  0  0  0  0
   -0.1157   -1.5502    6.2431 C   0  0  0  0  0  0  0  0  0  0  0  0
    1.5886    4.1502    5.4667 C   0  0  0  0  0  0  0  0  0  0  0  0
    1.9267    5.3219    5.2739 O   0  0  0  0  0  0  0  0  0  0  0  0
   -1.3900    2.4353    3.3770 H   0  0  0  0  0  0  0  0  0  0  0  0
   -1.7168    3.9692    2.4137 H   0  0  0  0  0  0  0  0  0  0  0  0
   -0.4847    5.2957    3.9848 H   0  0  0  0  0  0  0  0  0  0  0  0
   -0.7275    5.3684    6.5777 H   0  0  0  0  0  0  0  0  0  0  0  0
   -0.0974    4.1056    7.5978 H   0  0  0  0  0  0  0  0  0  0  0  0
   -1.6150    3.8599    6.7428 H   0  0  0  0  0  0  0  0  0  0  0  0
   -0.6581    1.7464    5.6355 H   0  0  0  0  0  0  0  0  0  0  0  0
    0.5357    1.9047    4.4561 H   0  0  0  0  0  0  0  0  0  0  0  0
    1.2144    2.4488    7.2841 H   0  0  0  0  0  0  0  0  0  0  0  0
    3.8233    1.8844    4.2182 H   0  0  0  0  0  0  0  0  0  0  0  0
    3.6703    3.5721    3.9414 H   0  0  0  0  0  0  0  0  0  0  0  0
    2.3471    2.5281    3.5623 H   0  0  0  0  0  0  0  0  0  0  0  0
    3.9419    4.5315    6.2231 H   0  0  0  0  0  0  0  0  0  0  0  0
    3.3969    3.8091    7.6211 H   0  0  0  0  0  0  0  0  0  0  0  0
    5.3150    2.4317    5.6327 H   0  0  0  0  0  0  0  0  0  0  0  0
    6.1217    4.3794    7.8006 H   0  0  0  0  0  0  0  0  0  0  0  0
    6.0453    4.7470    6.0832 H   0  0  0  0  0  0  0  0  0  0  0  0
    7.1902    3.6008    6.6357 H   0  0  0  0  0  0  0  0  0  0  0  0
    5.2129    2.2106    8.6242 H   0  0  0  0  0  0  0  0  0  0  0  0
    7.4962   -0.4612    9.4255 H   0  0  0  0  0  0  0  0  0  0  0  0
    5.1532   -0.9756    9.6583 H   0  0  0  0  0  0  0  0  0  0  0  0
    1.9622    2.0217    9.3547 H   0  0  0  0  0  0  0  0  0  0  0  0
    3.2835    0.4913   10.6008 H   0  0  0  0  0  0  0  0  0  0  0  0
    1.2696    0.1293   11.2921 H   0  0  0  0  0  0  0  0  0  0  0  0
    3.7380   -1.6034   10.8845 H   0  0  0  0  0  0  0  0  0  0  0  0
    2.1233   -1.9149   10.8729 H   0  0  0  0  0  0  0  0  0  0  0  0
    4.1425   -2.4005    8.7200 H   0  0  0  0  0  0  0  0  0  0  0  0
    3.0488   -3.4486    9.3198 H   0  0  0  0  0  0  0  0  0  0  0  0
    0.5424   -1.8546    9.5671 H   0  0  0  0  0  0  0  0  0  0  0  0
    0.9777   -3.4631    9.3205 H   0  0  0  0  0  0  0  0  0  0  0  0
   -0.1468   -2.7659    8.3348 H   0  0  0  0  0  0  0  0  0  0  0  0
   -0.7578   -3.8154    5.0769 H   0  0  0  0  0  0  0  0  0  0  0  0
    1.1724   -4.1644    4.0891 H   0  0  0  0  0  0  0  0  0  0  0  0
    1.4440   -2.6024    3.6884 H   0  0  0  0  0  0  0  0  0  0  0  0
    2.8300   -5.7731    4.2451 H   0  0  0  0  0  0  0  0  0  0  0  0
    4.9073   -7.0345    5.7203 H   0  0  0  0  0  0  0  0  0  0  0  0
    4.8730   -5.5747    6.7186 H   0  0  0  0  0  0  0  0  0  0  0  0
    6.3808   -6.0872    5.9697 H   0  0  0  0  0  0  0  0  0  0  0  0
    5.2873   -6.7176    3.0814 H   0  0  0  0  0  0  0  0  0  0  0  0
    6.7228   -5.7605    3.4241 H   0  0  0  0  0  0  0  0  0  0  0  0
    5.4297   -5.0810    2.4479 H   0  0  0  0  0  0  0  0  0  0  0  0
    4.4747   -1.1895    3.3553 H   0  0  0  0  0  0  0  0  0  0  0  0
    4.9121   -2.7597    2.7022 H   0  0  0  0  0  0  0  0  0  0  0  0
    6.0273   -1.8253    3.6525 H   0  0  0  0  0  0  0  0  0  0  0  0
    4.4649   -2.9231    6.9017 H   0  0  0  0  0  0  0  0  0  0  0  0
    6.4745   -1.2573    5.9873 H   0  0  0  0  0  0  0  0  0  0  0  0
    4.5925   -0.3765    4.8021 H   0  0  0  0  0  0  0  0  0  0  0  0
    2.6773    0.3816    4.8941 H   0  0  0  0  0  0  0  0  0  0  0  0
    2.8813   -1.2705    4.5607 H   0  0  0  0  0  0  0  0  0  0  0  0
    3.1957   -0.4579    3.1276 H   0  0  0  0  0  0  0  0  0  0  0  0
    2.1291    0.2046    0.4682 H   0  0  0  0  0  0  0  0  0  0  0  0
    3.4701    1.0935    1.1587 H   0  0  0  0  0  0  0  0  0  0  0  0
    2.4280   -2.4400    0.2733 H   0  0  0  0  0  0  0  0  0  0  0  0
    4.0789   -4.1136   -0.6271 H   0  0  0  0  0  0  0  0  0  0  0  0
    6.4904   -3.4456   -0.7792 H   0  0  0  0  0  0  0  0  0  0  0  0
    5.7278    0.2946    0.7746 H   0  0  0  0  0  0  0  0  0  0  0  0
    0.2326   -0.4277    8.2773 H   0  0  0  0  0  0  0  0  0  0  0  0
   -0.8077    1.2991    6.9411 H   0  0  0  0  0  0  0  0  0  0  0  0
   -0.6298   -1.1935    5.3527 H   0  0  0  0  0  0  0  0  0  0  0  0
   -1.0168   -1.9176    6.7251 H   0  0  0  0  0  0  0  0  0  0  0  0
  1  2  2  0
  1 62  1  0
  1 63  1  0
  2  3  1  0
  2 64  1  0
  3 60  1  0
  3  4  1  1
  3  5  1  0
  4 65  1  0
  4 66  1  0
  4 67  1  0
  5  6  1  0
  5 68  1  0
  5 69  1  0
  6 56  1  0
  6  7  1  0
  6 70  1  1
  7  8  1  6
  7  9  1  0
  7 60  1  0
  8 71  1  0
  8 72  1  0
  8 73  1  0
  9 10  1  0
  9 74  1  0
  9 75  1  0
 10 11  1  0
 10 12  1  0
 10 76  1  6
 11 77  1  0
 11 78  1  0
 11 79  1  0
 12 17  1  0
 12 13  1  0
 12 80  1  1
 13 14  2  0
 13 15  1  1
 15 16  2  0
 15 81  1  0
 17 16  1  1
 16 82  1  0
 17 41  1  0
 17 18  1  0
 56 18  1  1
 18 19  1  1
 18 20  1  0
 19 83  1  0
 20 21  1  0
 20 22  1  0
 20 84  1  1
 21 85  1  0
 22 23  1  0
 22 86  1  0
 22 87  1  0
 23 24  1  0
 23 88  1  0
 23 89  1  0
 24 43  1  0
 24 25  1  1
 24 26  1  0
 25 90  1  0
 25 91  1  0
 25 92  1  0
 26 27  2  0
 26 28  1  0
 28 59  1  0
 28 29  1  6
 28 30  1  0
 29 93  1  0
 30 31  1  0
 30 94  1  0
 30 95  1  0
 31 37  1  0
 31 32  2  0
 32 33  1  0
 32 96  1  0
 33 34  1  0
 33 35  1  0
 33 36  1  0
 34 97  1  0
 34 98  1  0
 34 99  1  0
 35100  1  0
 35101  1  0
 35102  1  0
 36 37  1  0
 37 38  1  6
 37 39  1  0
 38103  1  0
 38104  1  0
 38105  1  0
 39 40  1  0
 39 41  1  0
 39106  1  1
 40107  1  0
 41 42  1  6
 41 43  1  0
 42108  1  0
 43 44  1  6
 43 56  1  0
 44 45  1  0
 44109  1  0
 44110  1  0
 45 46  1  0
 46 47  2  0
 46 48  1  0
 48 49  1  0
 48111  1  0
 49 50  1  0
 49112  1  0
 49113  1  0
 50 55  1  0
 50 51  2  0
 51 52  1  0
 51114  1  0
 52 53  2  0
 52115  1  0
 53 54  1  0
 53116  1  0
 54 55  2  0
 55117  1  0
 56 57  1  0
 57 58  1  0
 57 59  1  0
 57118  1  1
 58119  1  0
 59120  1  0
 59121  1  0
 60 61  2  0
M  END
>  <i_m_ct_stereo_status>  (32) 
1

>  <s_m_source_file>  (32) 
/var/tmp/pbs.5075288.sched01/tmpsukb34hn/166582q88ej.sdf

>  <i_m_source_file_index>  (32) 
13

>  <i_lp_mmshare_version>  (32) 
48012

>  <i_f3d_flags>  (32) 
0

>  <s_epik_input>  (32) 
W0NIXTE9W0NIXVtTK10oW08tXSlbQ0BIXShbQ0BAXTEyMylbQ0BIXShbQ0gzXSlbQ0gyXVtDQEBdNChbQ0gzXSlbQ0BASF0oW0NIMl1bQ0BAXShbQ0gzXSkoQzQ9TylbQ0hdPVtDSDJdKVtDQF01NkMyKFtPSF0pW0NAQEhdKFtPSF0pW0NIMl1bQ0gyXVtDQEBdNyhbQ0gzXSlbQ0BAXTUoW0NAXTMoW09IXSlbQ0BIXShbT0hdKVtDQF04KFtDSDNdKUMoPVtDSF1DKE84KShbQ0gzXSlbQ0gzXSlbQ0gyXVtDQEBdKEM3PU8pKFtPSF0pW0NIMl1bQ0BASF02W09IXSlbQ0gyXU9DKD1PKVtOSF1bQ0gyXWM5W2NIXVtjSF1bY0hdbltjSF05

>  <s_epik_cmdline>  (32) 
J2VwaWtfcHl0aG9uJywgJy1waHQnLCAnMi4wJywgJy1waCcsICc3LjAnLCAnLXRuJywgJzgnLCAnLW1hJywgJzIwMCcsICctaW1hZScsICc8aW5maWxlLm1hZT4nLCAnLW9tYWUnLCAnPG91dGZpbGUubWFlPic=

>  <r_epik_Ionization_Penalty>  (32) 
0.00734594

>  <r_epik_Ionization_Penalty_Charging>  (32) 
0

>  <r_epik_Ionization_Penalty_Neutral>  (32) 
0.00734594

>  <r_epik_State_Penalty>  (32) 
0.00546351

>  <r_epik_Charging_Adjusted_Penalty>  (32) 
0.00546351

>  <i_epik_Tot_Q>  (32) 
0

>  <i_epik_Tot_abs_Q>  (32) 
2

>  <s_epik_Chemistry_Notes>  (32) 
This compound has an ester and may undergo hydrolysis at high or low pH.

>  <s_lp_Force_Field>  (32) 
OPLS3e

>  <r_lp_Energy>  (32) 
422.05

>  <b_lp_Chiralities_Consistent>  (32) 
1

>  <s_lp_Variant>  (32) 
40:0-1

>  <s_i_glide_gridfile>  (32) 
pfpi4k_grid

>  <i_i_glide_lignum>  (32) 
13

>  <i_i_glide_rotatable_bonds>  (32) 
13

>  <r_i_docking_score>  (32) 
-3.25441

>  <r_i_glide_ligand_efficiency>  (32) 
-0.0533509

>  <r_i_glide_ligand_efficiency_sa>  (32) 
-0.210016

>  <r_i_glide_ligand_efficiency_ln>  (32) 
-0.636761

>  <r_i_glide_gscore>  (32) 
-3.25441

>  <r_i_glide_lipo>  (32) 
-0.292624

>  <r_i_glide_hbond>  (32) 
-0.0782925

>  <r_i_glide_metal>  (32) 
-0

>  <r_i_glide_rewards>  (32) 
-0.539789

>  <r_i_glide_evdw>  (32) 
-36.3793

>  <r_i_glide_ecoul>  (32) 
-4.40316

>  <r_i_glide_erotb>  (32) 
0.17609

>  <r_i_glide_esite>  (32) 
-0.0403525

>  <r_i_glide_emodel>  (32) 
-49.9891

>  <r_i_glide_energy>  (32) 
-40.7825

>  <r_i_glide_einternal>  (32) 
6.57504

>  <r_i_glide_intrahb_reward>  (32) 
-0.5

>  <i_i_glide_confnum>  (32) 
13

>  <i_i_glide_posenum>  (32) 
2

>  <r_i_glide_eff_state_penalty>  (32) 
0

>  <ligand_id>  (32) 
40

>  <original_smiles>  (32) 
C=CC1(C)CC2C(C)(CC(C)C3[S+]([O-])C=CC34C3(O)C(O)CCC5(C)C(=O)C6(O)CC7=CC(C)(C)OC7(C)C(O)C4(O)C5(COC(=O)NCc4cccnc4)C23C(O)C6)C1=O

>  <smiles>  (32) 
[H]OC1([H])C([H])([H])C([H])([H])C2(C([H])([H])[H])C(=O)C3(O[H])C([H])([H])C4=C([H])C(C([H])([H])[H])(C([H])([H])[H])OC4(C([H])([H])[H])C([H])(O[H])C4(O[H])C56C([H])=C([H])S(=O)C5([H])C([H])(C([H])([H])[H])C([H])([H])C5(C([H])([H])[H])C(=O)C(C([H])=C([H])[H])(C([H])([H])[H])C([H])([H])C5([H])C(C([H])(O[H])C3([H])[H])(C16O[H])C42C([H])([H])OC(=O)N([H])C([H])([H])c1c([H])nc([H])c([H])c1[H]

$$$$
44:0:0
     RDKit          3D

121130  0  0  1  0  0  0  0  0999 V2000
   -2.7759    3.0349    5.1855 C   0  0  0  0  0  0  0  0  0  0  0  0
   -1.4398    3.0040    5.0600 C   0  0  0  0  0  0  0  0  0  0  0  0
   -0.9532    4.0385    4.0359 C   0  0  0  0  0  0  0  0  0  0  0  0
   -0.4604    1.9721    5.8383 C   0  0  2  0  0  0  0  0  0  0  0  0
   -1.3997    0.9584    6.5957 C   0  0  0  0  0  0  0  0  0  0  0  0
   -1.9110    1.6541    7.8572 C   0  0  0  0  0  0  0  0  0  0  0  0
   -0.7288    2.3750    8.4661 C   0  0  0  0  0  0  0  0  0  0  0  0
   -1.3096    3.4896    9.3917 C   0  0  0  0  0  0  0  0  0  0  0  0
   -0.0673    1.4149    9.4838 C   0  0  0  0  0  0  0  0  0  0  0  0
    0.1649    2.8367    7.1840 C   0  0  2  0  0  0  0  0  0  0  0  0
   -0.1121    4.3870    7.0690 C   0  0  0  0  0  0  0  0  0  0  0  0
    1.7318    2.8291    7.6424 C   0  0  0  0  0  0  0  0  0  0  0  0
    3.0516    3.0942    6.7542 C   0  0  1  0  0  0  0  0  0  0  0  0
    4.1514    3.0855    7.6638 O   0  0  0  0  0  0  0  0  0  0  0  0
    5.3930    3.5195    7.1261 C   0  0  0  0  0  0  0  0  0  0  0  0
    3.2676    2.0265    5.5895 C   0  0  1  0  0  0  0  0  0  0  0  0
    3.1470    1.7553    4.0561 C   0  0  0  0  0  0  0  0  0  0  0  0
    1.5894    1.9499    3.9065 C   0  0  2  0  0  0  0  0  0  0  0  0
    1.3007    2.4457    2.4644 C   0  0  0  0  0  0  0  0  0  0  0  0
    2.1618    2.9556    4.8155 C   0  0  0  0  0  0  0  0  0  0  0  0
    0.3972    1.0625    4.6175 C   0  0  2  0  0  0  0  0  0  0  0  0
   -0.7322    0.8517    3.7861 O   0  0  0  0  0  0  0  0  0  0  0  0
    1.0577   -0.4880    4.6094 C   0  0  2  0  0  0  0  0  0  0  0  0
    1.6586    0.0488    6.3090 S   0  0  0  0  0  0  0  0  0  0  0  0
    1.2678   -0.7843    7.5267 O   0  0  0  0  0  0  0  0  0  0  0  0
    3.3290    0.6436    6.4407 C   0  0  1  0  0  0  0  0  0  0  0  0
    4.1081   -0.7495    6.5111 C   0  0  2  0  0  0  0  0  0  0  0  0
    4.3925   -1.1475    7.9575 C   0  0  0  0  0  0  0  0  0  0  0  0
    4.9300   -1.5955    5.6612 O   0  0  0  0  0  0  0  0  0  0  0  0
    3.5678   -1.6532    5.3885 C   0  0  1  0  0  0  0  0  0  0  0  0
    2.4782   -2.7808    5.4219 C   0  0  2  0  0  0  0  0  0  0  0  0
    2.4633   -3.4143    6.8636 C   0  0  0  0  0  0  0  0  0  0  0  0
    3.0588   -4.0607    4.5855 C   0  0  1  0  0  0  0  0  0  0  0  0
    2.0347   -5.0686    4.0258 C   0  0  1  0  0  0  0  0  0  0  0  0
    0.8714   -5.6226    4.8989 C   0  0  0  0  0  0  0  0  0  0  0  0
    0.0071   -6.6915    4.1879 C   0  0  2  0  0  0  0  0  0  0  0  0
   -0.9734   -7.3424    5.1510 C   0  0  0  0  0  0  0  0  0  0  0  0
    0.8064   -7.7255    3.6649 O   0  0  0  0  0  0  0  0  0  0  0  0
    1.7658   -4.5249    2.7339 O   0  0  0  0  0  0  0  0  0  0  0  0
    3.0158   -4.1077    2.1604 C   0  0  1  0  0  0  0  0  0  0  0  0
    3.4087   -2.6305    1.6996 C   0  0  2  0  0  0  0  0  0  0  0  0
    3.6211   -2.6183    0.1743 C   0  0  0  0  0  0  0  0  0  0  0  0
    4.7152   -3.0030    2.4412 C   0  0  1  0  0  0  0  0  0  0  0  0
    5.4263   -2.0260    3.1388 O   0  0  0  0  0  0  0  0  0  0  0  0
    6.0026   -0.9584    2.5639 C   0  0  0  0  0  0  0  0  0  0  0  0
    6.2837    0.1040    3.6437 C   0  0  0  0  0  0  0  0  0  0  0  0
    6.2260   -0.8156    1.3505 O   0  0  0  0  0  0  0  0  0  0  0  0
    3.9958   -4.0566    3.3174 C   0  0  1  0  0  0  0  0  0  0  0  0
    4.8164   -5.2128    3.4345 O   0  0  0  0  0  0  0  0  0  0  0  0
    2.8631   -1.1729    2.1805 C   0  0  1  0  0  0  0  0  0  0  0  0
    3.0779   -0.2081    1.1488 O   0  0  0  0  0  0  0  0  0  0  0  0
    1.4951   -0.9382    2.9637 C   0  0  2  0  0  0  0  0  0  0  0  0
    0.6864   -0.2473    2.0379 O   0  0  0  0  0  0  0  0  0  0  0  0
    0.9975   -2.1851    2.8454 O   0  0  0  0  0  0  0  0  0  0  0  0
    0.1577   -2.4970    3.8815 C   0  0  0  0  0  0  0  0  0  0  0  0
    0.9615   -2.0423    5.0820 C   0  0  2  0  0  0  0  0  0  0  0  0
    0.0004   -2.3574    6.0866 O   0  0  0  0  0  0  0  0  0  0  0  0
   -3.3406    3.7193    4.5817 H   0  0  0  0  0  0  0  0  0  0  0  0
   -3.3615    2.4445    5.8547 H   0  0  0  0  0  0  0  0  0  0  0  0
   -0.0935    4.6469    4.3329 H   0  0  0  0  0  0  0  0  0  0  0  0
   -1.7439    4.7545    3.8073 H   0  0  0  0  0  0  0  0  0  0  0  0
   -0.8239    3.5311    3.1011 H   0  0  0  0  0  0  0  0  0  0  0  0
   -2.2110    0.5679    5.9773 H   0  0  0  0  0  0  0  0  0  0  0  0
   -0.8746    0.0666    6.9340 H   0  0  0  0  0  0  0  0  0  0  0  0
   -2.7060    2.3721    7.6984 H   0  0  0  0  0  0  0  0  0  0  0  0
   -2.3545    0.9349    8.5392 H   0  0  0  0  0  0  0  0  0  0  0  0
   -0.5265    4.0577    9.8904 H   0  0  0  0  0  0  0  0  0  0  0  0
   -1.9161    3.0541   10.1862 H   0  0  0  0  0  0  0  0  0  0  0  0
   -1.9767    4.1881    8.8882 H   0  0  0  0  0  0  0  0  0  0  0  0
    0.7428    1.8941   10.0311 H   0  0  0  0  0  0  0  0  0  0  0  0
    0.3124    0.5149    9.0312 H   0  0  0  0  0  0  0  0  0  0  0  0
   -0.7786    1.0817   10.2401 H   0  0  0  0  0  0  0  0  0  0  0  0
    0.1685    4.9265    7.9674 H   0  0  0  0  0  0  0  0  0  0  0  0
   -1.1587    4.6433    6.9066 H   0  0  0  0  0  0  0  0  0  0  0  0
    0.4699    4.9162    6.3263 H   0  0  0  0  0  0  0  0  0  0  0  0
    1.8005    3.5721    8.4375 H   0  0  0  0  0  0  0  0  0  0  0  0
    1.9107    1.9261    8.2036 H   0  0  0  0  0  0  0  0  0  0  0  0
    3.0545    4.1448    6.4389 H   0  0  0  0  0  0  0  0  0  0  0  0
    6.1428    3.5071    7.9167 H   0  0  0  0  0  0  0  0  0  0  0  0
    5.3407    4.5382    6.7394 H   0  0  0  0  0  0  0  0  0  0  0  0
    5.7399    2.8577    6.3326 H   0  0  0  0  0  0  0  0  0  0  0  0
    3.7819    2.3927    3.4255 H   0  0  0  0  0  0  0  0  0  0  0  0
    3.3921    0.7678    3.8305 H   0  0  0  0  0  0  0  0  0  0  0  0
    0.3103    2.1918    2.0708 H   0  0  0  0  0  0  0  0  0  0  0  0
    2.0322    2.1019    1.7368 H   0  0  0  0  0  0  0  0  0  0  0  0
    1.3745    3.5368    2.4417 H   0  0  0  0  0  0  0  0  0  0  0  0
    1.3466    3.4280    5.2932 H   0  0  0  0  0  0  0  0  0  0  0  0
    2.5943    3.8541    4.3256 H   0  0  0  0  0  0  0  0  0  0  0  0
   -0.4051    0.5170    2.9628 H   0  0  0  0  0  0  0  0  0  0  0  0
    3.4722    0.9191    7.4761 H   0  0  0  0  0  0  0  0  0  0  0  0
    3.4744   -1.2211    8.5320 H   0  0  0  0  0  0  0  0  0  0  0  0
    5.0589   -0.4273    8.4285 H   0  0  0  0  0  0  0  0  0  0  0  0
    4.8887   -2.1180    7.9660 H   0  0  0  0  0  0  0  0  0  0  0  0
    3.4163   -1.0868    4.5394 H   0  0  0  0  0  0  0  0  0  0  0  0
    1.8465   -4.3057    6.9134 H   0  0  0  0  0  0  0  0  0  0  0  0
    2.1021   -2.7942    7.6647 H   0  0  0  0  0  0  0  0  0  0  0  0
    3.4645   -3.7128    7.1750 H   0  0  0  0  0  0  0  0  0  0  0  0
    3.6319   -4.6422    5.3096 H   0  0  0  0  0  0  0  0  0  0  0  0
    2.5939   -5.9776    3.8108 H   0  0  0  0  0  0  0  0  0  0  0  0
    1.3046   -6.0981    5.7790 H   0  0  0  0  0  0  0  0  0  0  0  0
    0.2151   -4.8604    5.3136 H   0  0  0  0  0  0  0  0  0  0  0  0
   -0.5491   -6.2417    3.3673 H   0  0  0  0  0  0  0  0  0  0  0  0
   -1.6374   -6.5687    5.5353 H   0  0  0  0  0  0  0  0  0  0  0  0
   -0.4533   -7.8186    5.9845 H   0  0  0  0  0  0  0  0  0  0  0  0
   -1.5772   -8.1163    4.6679 H   0  0  0  0  0  0  0  0  0  0  0  0
    1.4553   -7.3414    3.1003 H   0  0  0  0  0  0  0  0  0  0  0  0
    3.3262   -4.8668    1.4322 H   0  0  0  0  0  0  0  0  0  0  0  0
    4.3664   -1.8939   -0.1558 H   0  0  0  0  0  0  0  0  0  0  0  0
    2.6893   -2.4412   -0.3583 H   0  0  0  0  0  0  0  0  0  0  0  0
    4.0066   -3.5756   -0.1862 H   0  0  0  0  0  0  0  0  0  0  0  0
    5.4146   -3.5113    1.7665 H   0  0  0  0  0  0  0  0  0  0  0  0
    6.9546   -0.2206    4.4551 H   0  0  0  0  0  0  0  0  0  0  0  0
    5.3421    0.3302    4.1193 H   0  0  0  0  0  0  0  0  0  0  0  0
    6.5912    1.0692    3.2869 H   0  0  0  0  0  0  0  0  0  0  0  0
    5.2118   -5.3590    2.5838 H   0  0  0  0  0  0  0  0  0  0  0  0
    3.6212   -0.7248    2.7272 H   0  0  0  0  0  0  0  0  0  0  0  0
    2.4999   -0.3533    0.4217 H   0  0  0  0  0  0  0  0  0  0  0  0
    0.9669   -0.5137    1.1550 H   0  0  0  0  0  0  0  0  0  0  0  0
   -0.7576   -1.9105    3.7896 H   0  0  0  0  0  0  0  0  0  0  0  0
   -0.1309   -3.5294    3.8058 H   0  0  0  0  0  0  0  0  0  0  0  0
    0.3793   -2.0450    6.9021 H   0  0  0  0  0  0  0  0  0  0  0  0
  1  2  2  0
  1 58  1  0
  1 59  1  0
  2  3  1  0
  4  2  1  6
  3 60  1  0
  3 61  1  0
  3 62  1  0
  4 10  1  0
  4 21  1  0
  4  5  1  0
  5  6  1  0
  5 63  1  0
  5 64  1  0
  6  7  1  0
  6 65  1  0
  6 66  1  0
  7  8  1  0
  7  9  1  0
  7 10  1  0
  8 67  1  0
  8 68  1  0
  8 69  1  0
  9 70  1  0
  9 71  1  0
  9 72  1  0
 10 11  1  6
 10 12  1  0
 11 73  1  0
 11 74  1  0
 11 75  1  0
 12 13  1  0
 12 76  1  0
 12 77  1  0
 13 14  1  0
 13 16  1  0
 13 78  1  6
 14 15  1  0
 15 79  1  0
 15 80  1  0
 15 81  1  0
 16 20  1  1
 16 26  1  0
 16 17  1  0
 17 18  1  0
 17 82  1  0
 17 83  1  0
 18 19  1  6
 18 20  1  0
 18 21  1  0
 19 84  1  0
 19 85  1  0
 19 86  1  0
 20 87  1  0
 20 88  1  0
 21 22  1  6
 21 23  1  0
 22 89  1  0
 23 52  1  6
 23 56  1  0
 24 23  1  6
 24 25  2  0
 24 26  1  0
 26 27  1  0
 26 90  1  1
 27 30  1  0
 27 28  1  1
 27 29  1  0
 28 91  1  0
 28 92  1  0
 28 93  1  0
 29 30  1  0
 30 31  1  0
 30 94  1  6
 31 56  1  0
 31 32  1  1
 31 33  1  0
 32 95  1  0
 32 96  1  0
 32 97  1  0
 33 48  1  0
 33 34  1  0
 33 98  1  1
 34 35  1  0
 34 39  1  0
 34 99  1  6
 35 36  1  0
 35100  1  0
 35101  1  0
 36 37  1  0
 36 38  1  0
 36102  1  6
 37103  1  0
 37104  1  0
 37105  1  0
 38106  1  0
 39 40  1  0
 40 48  1  0
 40 41  1  0
 40107  1  6
 41 42  1  6
 41 43  1  0
 41 50  1  0
 42108  1  0
 42109  1  0
 42110  1  0
 43 44  1  0
 43 48  1  0
 43111  1  6
 44 45  1  0
 45 46  1  0
 45 47  2  0
 46112  1  0
 46113  1  0
 46114  1  0
 48 49  1  1
 49115  1  0
 50 51  1  0
 50 52  1  0
 50116  1  1
 51117  1  0
 52 53  1  6
 52 54  1  0
 53118  1  0
 54 55  1  0
 55 56  1  0
 55119  1  0
 55120  1  0
 56 57  1  1
 57121  1  0
M  END
>  <i_m_ct_stereo_status>  (33) 
1

>  <s_m_source_file>  (33) 
/var/tmp/pbs.5075288.sched01/tmpsukb34hn/166582q88ej.sdf

>  <i_m_source_file_index>  (33) 
17

>  <i_lp_mmshare_version>  (33) 
48012

>  <i_f3d_flags>  (33) 
0

>  <s_epik_input>  (33) 
W0NIM11PW0NAQEhdMVtDSDJdW0NAXShbQ0gzXSkoQyhbQ0gzXSkoW0NIM10pW0NIMl1bQ0gyXTIpW0NAQF0yKEMoPVtDSDJdKVtDSDNdKVtDQEBdKFtPSF0pKFtDQEBdKFtDSDJdMykoW0NIM10pW0NIMl00KVtDQEBdKFtTK101W08tXSkoW0NAXTYoW0NIMl1PNylbT0hdKVtDQEBdNyhbT0hdKVtDQEhdKFtPSF0pW0NAQF0oW0NIM10pKFtDQEhdOE9DKD1PKVtDSDNdKVtDQEhdKE9bQ0BASF05W0NIMl1bQ0BIXShbQ0gzXSlbT0hdKVtDQF04KFtPSF0pW0NASF05W0NAQF02KFtDSDNdKVtDQEhdKE8yKVtDQEBdMihbQ0BIXTVbQ0BAXTEzNClbQ0gzXQ==

>  <s_epik_cmdline>  (33) 
J2VwaWtfcHl0aG9uJywgJy1waHQnLCAnMi4wJywgJy1waCcsICc3LjAnLCAnLXRuJywgJzgnLCAnLW1hJywgJzIwMCcsICctaW1hZScsICc8aW5maWxlLm1hZT4nLCAnLW9tYWUnLCAnPG91dGZpbGUubWFlPic=

>  <r_lp_tautomer_probability>  (33) 
1

>  <r_epik_Ionization_Penalty>  (33) 
3.22299e-06

>  <r_epik_Ionization_Penalty_Charging>  (33) 
0

>  <r_epik_Ionization_Penalty_Neutral>  (33) 
3.22299e-06

>  <r_epik_State_Penalty>  (33) 
-0

>  <r_epik_Charging_Adjusted_Penalty>  (33) 
0

>  <i_epik_Tot_Q>  (33) 
0

>  <i_epik_Tot_abs_Q>  (33) 
2

>  <s_epik_Chemistry_Notes>  (33) 
This compound has an ester and may undergo hydrolysis at high or low pH.

>  <s_lp_Force_Field>  (33) 
OPLS3e

>  <r_lp_Energy>  (33) 
612.641

>  <b_lp_Chiralities_Consistent>  (33) 
1

>  <s_lp_Variant>  (33) 
44:0-1

>  <s_i_glide_gridfile>  (33) 
pfpi4k_grid

>  <i_i_glide_lignum>  (33) 
17

>  <i_i_glide_rotatable_bonds>  (33) 
12

>  <r_i_docking_score>  (33) 
-2.4981

>  <r_i_glide_ligand_efficiency>  (33) 
-0.0438264

>  <r_i_glide_ligand_efficiency_sa>  (33) 
-0.168666

>  <r_i_glide_ligand_efficiency_ln>  (33) 
-0.495356

>  <r_i_glide_gscore>  (33) 
-2.4981

>  <r_i_glide_lipo>  (33) 
-0.159779

>  <r_i_glide_hbond>  (33) 
0

>  <r_i_glide_metal>  (33) 
-0

>  <r_i_glide_rewards>  (33) 
-1.1077

>  <r_i_glide_evdw>  (33) 
-20.4276

>  <r_i_glide_ecoul>  (33) 
-2.15821

>  <r_i_glide_erotb>  (33) 
0.129598

>  <r_i_glide_esite>  (33) 
-0.0187454

>  <r_i_glide_emodel>  (33) 
-28.5868

>  <r_i_glide_energy>  (33) 
-22.5859

>  <r_i_glide_einternal>  (33) 
11.8638

>  <r_i_glide_intrahb_reward>  (33) 
-1

>  <i_i_glide_confnum>  (33) 
4

>  <i_i_glide_posenum>  (33) 
6

>  <r_i_glide_eff_state_penalty>  (33) 
0

>  <ligand_id>  (33) 
44

>  <original_smiles>  (33) 
C=C(C)C12CCC(C)(C)C1(C)CC(OC)C13CC(C)(C1)C2(O)C12[S+]([O-])C3C3(C)OC3C3(C)C4C(CC(C)O)OC5C(C)(C(OC(C)=O)C54O)C(O)C1(O)OCC32O

>  <smiles>  (33) 
[H]OC([H])(C([H])([H])[H])C([H])([H])C1([H])OC2([H])C3(O[H])C([H])(OC(=O)C([H])([H])[H])C2(C([H])([H])[H])C([H])(O[H])C2(O[H])OC([H])([H])C4(O[H])C25S(=O)C([H])(C2(C([H])([H])[H])OC2([H])C4(C([H])([H])[H])C13[H])C12C([H])([H])C(C([H])([H])[H])(C1([H])[H])C5(O[H])C1(C(=C([H])[H])C([H])([H])[H])C([H])([H])C([H])([H])C(C([H])([H])[H])(C([H])([H])[H])C1(C([H])([H])[H])C([H])([H])C2([H])OC([H])([H])[H]

$$$$
44:0:1
     RDKit          3D

121130  0  0  1  0  0  0  0  0999 V2000
    2.3338    2.1586    3.0410 C   0  0  0  0  0  0  0  0  0  0  0  0
    1.2373    1.4008    3.2439 C   0  0  0  0  0  0  0  0  0  0  0  0
    0.3022    1.3496    2.0192 C   0  0  0  0  0  0  0  0  0  0  0  0
    0.9081    0.5548    4.5728 C   0  0  2  0  0  0  0  0  0  0  0  0
   -0.5384   -0.0096    4.3858 C   0  0  0  0  0  0  0  0  0  0  0  0
   -1.5446    1.0850    4.7112 C   0  0  0  0  0  0  0  0  0  0  0  0
   -1.0259    1.7728    5.9668 C   0  0  0  0  0  0  0  0  0  0  0  0
   -1.6963    3.1785    6.0442 C   0  0  0  0  0  0  0  0  0  0  0  0
   -1.6777    1.0601    7.1750 C   0  0  0  0  0  0  0  0  0  0  0  0
    0.5957    1.6826    5.8420 C   0  0  2  0  0  0  0  0  0  0  0  0
    1.0129    3.1629    5.4744 C   0  0  0  0  0  0  0  0  0  0  0  0
    1.2040    1.5599    7.3526 C   0  0  0  0  0  0  0  0  0  0  0  0
    2.7384    1.3427    7.8208 C   0  0  1  0  0  0  0  0  0  0  0  0
    2.7350    1.4149    9.2484 O   0  0  0  0  0  0  0  0  0  0  0  0
    4.0170    1.4795    9.8557 C   0  0  0  0  0  0  0  0  0  0  0  0
    3.3808   -0.0299    7.3248 C   0  0  1  0  0  0  0  0  0  0  0  0
    4.3481   -0.7103    6.2908 C   0  0  0  0  0  0  0  0  0  0  0  0
    3.5526   -0.2963    4.9679 C   0  0  2  0  0  0  0  0  0  0  0  0
    4.4797   -0.0434    3.7596 C   0  0  0  0  0  0  0  0  0  0  0  0
    3.5598    0.8022    5.9397 C   0  0  0  0  0  0  0  0  0  0  0  0
    2.0233   -0.7721    4.5347 C   0  0  2  0  0  0  0  0  0  0  0  0
    1.8127   -1.0930    3.1701 O   0  0  0  0  0  0  0  0  0  0  0  0
    1.9502   -2.3272    5.1392 C   0  0  2  0  0  0  0  0  0  0  0  0
    1.2588   -1.4336    6.6465 S   0  0  0  0  0  0  0  0  0  0  0  0
   -0.1328   -1.7481    7.1799 O   0  0  0  0  0  0  0  0  0  0  0  0
    2.3684   -1.0960    7.9858 C   0  0  1  0  0  0  0  0  0  0  0  0
    2.3228   -2.5231    8.6808 C   0  0  2  0  0  0  0  0  0  0  0  0
    1.3227   -2.5491    9.8324 C   0  0  0  0  0  0  0  0  0  0  0  0
    3.2082   -3.6689    8.8439 O   0  0  0  0  0  0  0  0  0  0  0  0
    2.5354   -3.6078    7.6217 C   0  0  1  0  0  0  0  0  0  0  0  0
    1.4844   -4.4922    6.8543 C   0  0  2  0  0  0  0  0  0  0  0  0
    0.2211   -4.6712    7.7591 C   0  0  0  0  0  0  0  0  0  0  0  0
    2.0121   -6.0376    6.8494 C   0  0  1  0  0  0  0  0  0  0  0  0
    1.4788   -6.9820    5.7385 C   0  0  1  0  0  0  0  0  0  0  0  0
   -0.0290   -7.0488    5.3808 C   0  0  0  0  0  0  0  0  0  0  0  0
   -0.3585   -8.1186    4.3210 C   0  0  2  0  0  0  0  0  0  0  0  0
    0.1518   -7.7955    2.9116 C   0  0  0  0  0  0  0  0  0  0  0  0
   -1.7538   -8.2617    4.2323 O   0  0  0  0  0  0  0  0  0  0  0  0
    2.4509   -6.7404    4.7225 O   0  0  0  0  0  0  0  0  0  0  0  0
    3.7454   -6.7382    5.3291 C   0  0  1  0  0  0  0  0  0  0  0  0
    4.8057   -5.5454    5.2914 C   0  0  2  0  0  0  0  0  0  0  0  0
    6.0410   -5.9878    4.4686 C   0  0  0  0  0  0  0  0  0  0  0  0
    4.9148   -5.9194    6.7868 C   0  0  1  0  0  0  0  0  0  0  0  0
    5.2094   -4.9773    7.8008 O   0  0  0  0  0  0  0  0  0  0  0  0
    6.4606   -4.5476    8.0311 C   0  0  0  0  0  0  0  0  0  0  0  0
    6.5275   -3.5589    9.1886 C   0  0  0  0  0  0  0  0  0  0  0  0
    7.4679   -4.8636    7.3935 O   0  0  0  0  0  0  0  0  0  0  0  0
    3.5003   -6.5351    6.8064 C   0  0  1  0  0  0  0  0  0  0  0  0
    3.5437   -7.7318    7.5595 O   0  0  0  0  0  0  0  0  0  0  0  0
    4.5978   -3.9562    5.1454 C   0  0  1  0  0  0  0  0  0  0  0  0
    5.7755   -3.3721    4.6464 O   0  0  0  0  0  0  0  0  0  0  0  0
    3.2876   -3.2655    4.4933 C   0  0  2  0  0  0  0  0  0  0  0  0
    3.7750   -2.7298    3.2855 O   0  0  0  0  0  0  0  0  0  0  0  0
    2.6782   -4.3867    4.0118 O   0  0  0  0  0  0  0  0  0  0  0  0
    1.3076   -4.2692    4.0384 C   0  0  0  0  0  0  0  0  0  0  0  0
    1.0645   -3.6419    5.4111 C   0  0  2  0  0  0  0  0  0  0  0  0
   -0.3306   -3.4579    5.2950 O   0  0  0  0  0  0  0  0  0  0  0  0
    2.4773    2.6817    2.1039 H   0  0  0  0  0  0  0  0  0  0  0  0
    3.1260    2.3139    3.7509 H   0  0  0  0  0  0  0  0  0  0  0  0
    0.1209    0.3389    1.6575 H   0  0  0  0  0  0  0  0  0  0  0  0
    0.7496    1.8624    1.1705 H   0  0  0  0  0  0  0  0  0  0  0  0
   -0.6419    1.8680    2.1566 H   0  0  0  0  0  0  0  0  0  0  0  0
   -0.7394   -0.4511    3.4158 H   0  0  0  0  0  0  0  0  0  0  0  0
   -0.7482   -0.8225    5.0653 H   0  0  0  0  0  0  0  0  0  0  0  0
   -1.6326    1.8217    3.9202 H   0  0  0  0  0  0  0  0  0  0  0  0
   -2.5430    0.6623    4.8248 H   0  0  0  0  0  0  0  0  0  0  0  0
   -1.3968    3.7228    6.9406 H   0  0  0  0  0  0  0  0  0  0  0  0
   -2.7837    3.0875    6.0929 H   0  0  0  0  0  0  0  0  0  0  0  0
   -1.5039    3.8041    5.1744 H   0  0  0  0  0  0  0  0  0  0  0  0
   -1.4312    1.5304    8.1284 H   0  0  0  0  0  0  0  0  0  0  0  0
   -1.3804    0.0351    7.2172 H   0  0  0  0  0  0  0  0  0  0  0  0
   -2.7656    1.0474    7.1064 H   0  0  0  0  0  0  0  0  0  0  0  0
    0.7126    3.8859    6.2349 H   0  0  0  0  0  0  0  0  0  0  0  0
    0.5684    3.5202    4.5446 H   0  0  0  0  0  0  0  0  0  0  0  0
    2.0809    3.3502    5.4022 H   0  0  0  0  0  0  0  0  0  0  0  0
    0.9108    2.4720    7.8716 H   0  0  0  0  0  0  0  0  0  0  0  0
    0.6136    0.8422    7.8977 H   0  0  0  0  0  0  0  0  0  0  0  0
    3.3058    2.2520    7.5823 H   0  0  0  0  0  0  0  0  0  0  0  0
    3.8917    1.5685   10.9365 H   0  0  0  0  0  0  0  0  0  0  0  0
    4.5835    2.3479    9.5177 H   0  0  0  0  0  0  0  0  0  0  0  0
    4.6016    0.5794    9.6649 H   0  0  0  0  0  0  0  0  0  0  0  0
    5.3977   -0.3789    6.3458 H   0  0  0  0  0  0  0  0  0  0  0  0
    4.4066   -1.7354    6.5109 H   0  0  0  0  0  0  0  0  0  0  0  0
    3.9920   -0.0469    2.7877 H   0  0  0  0  0  0  0  0  0  0  0  0
    5.2900   -0.7721    3.7184 H   0  0  0  0  0  0  0  0  0  0  0  0
    4.9911    0.9184    3.8315 H   0  0  0  0  0  0  0  0  0  0  0  0
    2.8886    1.5209    5.5898 H   0  0  0  0  0  0  0  0  0  0  0  0
    4.4611    1.4375    5.9204 H   0  0  0  0  0  0  0  0  0  0  0  0
    1.9400   -0.3053    2.6553 H   0  0  0  0  0  0  0  0  0  0  0  0
    1.7753   -0.5775    8.7225 H   0  0  0  0  0  0  0  0  0  0  0  0
    0.3181   -2.2975    9.4954 H   0  0  0  0  0  0  0  0  0  0  0  0
    1.6115   -1.8398   10.6063 H   0  0  0  0  0  0  0  0  0  0  0  0
    1.2971   -3.5438   10.2855 H   0  0  0  0  0  0  0  0  0  0  0  0
    3.2261   -3.2884    6.9447 H   0  0  0  0  0  0  0  0  0  0  0  0
   -0.4825   -5.4007    7.3589 H   0  0  0  0  0  0  0  0  0  0  0  0
   -0.3821   -3.7950    7.9295 H   0  0  0  0  0  0  0  0  0  0  0  0
    0.4851   -5.0286    8.7553 H   0  0  0  0  0  0  0  0  0  0  0  0
    1.6412   -6.4743    7.7801 H   0  0  0  0  0  0  0  0  0  0  0  0
    1.6679   -8.0095    6.0506 H   0  0  0  0  0  0  0  0  0  0  0  0
   -0.5401   -7.3475    6.2908 H   0  0  0  0  0  0  0  0  0  0  0  0
   -0.4854   -6.0977    5.1318 H   0  0  0  0  0  0  0  0  0  0  0  0
    0.0317   -9.0836    4.6435 H   0  0  0  0  0  0  0  0  0  0  0  0
    1.2371   -7.7406    2.8813 H   0  0  0  0  0  0  0  0  0  0  0  0
   -0.2424   -6.8442    2.5632 H   0  0  0  0  0  0  0  0  0  0  0  0
   -0.1417   -8.5609    2.1961 H   0  0  0  0  0  0  0  0  0  0  0  0
   -1.9752   -9.1600    4.4771 H   0  0  0  0  0  0  0  0  0  0  0  0
    4.2094   -7.7087    5.1491 H   0  0  0  0  0  0  0  0  0  0  0  0
    6.9678   -5.5201    4.8000 H   0  0  0  0  0  0  0  0  0  0  0  0
    5.9170   -5.8140    3.4012 H   0  0  0  0  0  0  0  0  0  0  0  0
    6.2298   -7.0578    4.5799 H   0  0  0  0  0  0  0  0  0  0  0  0
    5.6428   -6.7279    6.8782 H   0  0  0  0  0  0  0  0  0  0  0  0
    6.0781   -3.9967   10.0808 H   0  0  0  0  0  0  0  0  0  0  0  0
    5.9789   -2.6492    8.9422 H   0  0  0  0  0  0  0  0  0  0  0  0
    7.5591   -3.2915    9.4179 H   0  0  0  0  0  0  0  0  0  0  0  0
    4.2464   -8.2649    7.2100 H   0  0  0  0  0  0  0  0  0  0  0  0
    4.8650   -3.5275    6.0717 H   0  0  0  0  0  0  0  0  0  0  0  0
    5.8993   -3.6519    3.7523 H   0  0  0  0  0  0  0  0  0  0  0  0
    4.3289   -3.3935    2.8706 H   0  0  0  0  0  0  0  0  0  0  0  0
    0.9917   -3.5991    3.2361 H   0  0  0  0  0  0  0  0  0  0  0  0
    0.8428   -5.2143    3.8109 H   0  0  0  0  0  0  0  0  0  0  0  0
   -0.5162   -3.1012    4.4362 H   0  0  0  0  0  0  0  0  0  0  0  0
  1  2  2  0
  1 58  1  0
  1 59  1  0
  2  3  1  0
  4  2  1  6
  3 60  1  0
  3 61  1  0
  3 62  1  0
  4 10  1  0
  4 21  1  0
  4  5  1  0
  5  6  1  0
  5 63  1  0
  5 64  1  0
  6  7  1  0
  6 65  1  0
  6 66  1  0
  7  8  1  0
  7  9  1  0
  7 10  1  0
  8 67  1  0
  8 68  1  0
  8 69  1  0
  9 70  1  0
  9 71  1  0
  9 72  1  0
 10 11  1  6
 10 12  1  0
 11 73  1  0
 11 74  1  0
 11 75  1  0
 12 13  1  0
 12 76  1  0
 12 77  1  0
 13 14  1  0
 13 16  1  0
 13 78  1  6
 14 15  1  0
 15 79  1  0
 15 80  1  0
 15 81  1  0
 16 20  1  6
 16 26  1  0
 16 17  1  0
 17 18  1  0
 17 82  1  0
 17 83  1  0
 18 19  1  6
 18 20  1  0
 18 21  1  0
 19 84  1  0
 19 85  1  0
 19 86  1  0
 20 87  1  0
 20 88  1  0
 21 22  1  6
 21 23  1  0
 22 89  1  0
 23 52  1  1
 23 56  1  0
 24 23  1  1
 24 25  2  0
 24 26  1  0
 26 27  1  0
 26 90  1  1
 27 30  1  0
 27 28  1  1
 27 29  1  0
 28 91  1  0
 28 92  1  0
 28 93  1  0
 29 30  1  0
 30 31  1  0
 30 94  1  6
 31 56  1  0
 31 32  1  1
 31 33  1  0
 32 95  1  0
 32 96  1  0
 32 97  1  0
 33 48  1  0
 33 34  1  0
 33 98  1  1
 34 35  1  0
 34 39  1  0
 34 99  1  1
 35 36  1  0
 35100  1  0
 35101  1  0
 36 37  1  0
 36 38  1  0
 36102  1  1
 37103  1  0
 37104  1  0
 37105  1  0
 38106  1  0
 39 40  1  0
 40 48  1  0
 40 41  1  0
 40107  1  1
 41 42  1  6
 41 43  1  0
 41 50  1  0
 42108  1  0
 42109  1  0
 42110  1  0
 43 44  1  0
 43 48  1  0
 43111  1  6
 44 45  1  0
 45 46  1  0
 45 47  2  0
 46112  1  0
 46113  1  0
 46114  1  0
 48 49  1  1
 49115  1  0
 50 51  1  0
 50 52  1  0
 50116  1  1
 51117  1  0
 52 53  1  6
 52 54  1  0
 53118  1  0
 54 55  1  0
 55 56  1  0
 55119  1  0
 55120  1  0
 56 57  1  1
 57121  1  0
M  END
>  <i_m_ct_stereo_status>  (34) 
1

>  <s_m_source_file>  (34) 
/var/tmp/pbs.5075288.sched01/tmpsukb34hn/166582q88ej.sdf

>  <i_m_source_file_index>  (34) 
17

>  <i_lp_mmshare_version>  (34) 
48012

>  <i_f3d_flags>  (34) 
0

>  <s_epik_input>  (34) 
W0NIM11PW0NAQEhdMVtDSDJdW0NAXShbQ0gzXSkoQyhbQ0gzXSkoW0NIM10pW0NIMl1bQ0gyXTIpW0NAQF0yKEMoPVtDSDJdKVtDSDNdKVtDQEBdKFtPSF0pKFtDQEBdKFtDSDJdMykoW0NIM10pW0NIMl00KVtDQEBdKFtTK101W08tXSkoW0NAXTYoW0NIMl1PNylbT0hdKVtDQEBdNyhbT0hdKVtDQEhdKFtPSF0pW0NAQF0oW0NIM10pKFtDQEhdOE9DKD1PKVtDSDNdKVtDQEhdKE9bQ0BASF05W0NIMl1bQ0BIXShbQ0gzXSlbT0hdKVtDQF04KFtPSF0pW0NASF05W0NAQF02KFtDSDNdKVtDQEhdKE8yKVtDQEBdMihbQ0BIXTVbQ0BAXTEzNClbQ0gzXQ==

>  <s_epik_cmdline>  (34) 
J2VwaWtfcHl0aG9uJywgJy1waHQnLCAnMi4wJywgJy1waCcsICc3LjAnLCAnLXRuJywgJzgnLCAnLW1hJywgJzIwMCcsICctaW1hZScsICc8aW5maWxlLm1hZT4nLCAnLW9tYWUnLCAnPG91dGZpbGUubWFlPic=

>  <r_lp_tautomer_probability>  (34) 
1

>  <r_epik_Ionization_Penalty>  (34) 
3.22299e-06

>  <r_epik_Ionization_Penalty_Charging>  (34) 
0

>  <r_epik_Ionization_Penalty_Neutral>  (34) 
3.22299e-06

>  <r_epik_State_Penalty>  (34) 
-0

>  <r_epik_Charging_Adjusted_Penalty>  (34) 
0

>  <i_epik_Tot_Q>  (34) 
0

>  <i_epik_Tot_abs_Q>  (34) 
2

>  <s_epik_Chemistry_Notes>  (34) 
This compound has an ester and may undergo hydrolysis at high or low pH.

>  <s_lp_Force_Field>  (34) 
OPLS3e

>  <r_lp_Energy>  (34) 
612.641

>  <b_lp_Chiralities_Consistent>  (34) 
1

>  <s_lp_Variant>  (34) 
44:0-1

>  <s_i_glide_gridfile>  (34) 
pfpi4k_grid

>  <i_i_glide_lignum>  (34) 
17

>  <i_i_glide_rotatable_bonds>  (34) 
12

>  <r_i_docking_score>  (34) 
-2.22464

>  <r_i_glide_ligand_efficiency>  (34) 
-0.0390287

>  <r_i_glide_ligand_efficiency_sa>  (34) 
-0.150202

>  <r_i_glide_ligand_efficiency_ln>  (34) 
-0.441129

>  <r_i_glide_gscore>  (34) 
-2.22464

>  <r_i_glide_lipo>  (34) 
-0.0777075

>  <r_i_glide_hbond>  (34) 
-0.162866

>  <r_i_glide_metal>  (34) 
-0

>  <r_i_glide_rewards>  (34) 
0

>  <r_i_glide_evdw>  (34) 
-21.265

>  <r_i_glide_ecoul>  (34) 
-6.98434

>  <r_i_glide_erotb>  (34) 
0.129598

>  <r_i_glide_esite>  (34) 
-0.0027573

>  <r_i_glide_emodel>  (34) 
-30.5457

>  <r_i_glide_energy>  (34) 
-28.2494

>  <r_i_glide_einternal>  (34) 
4.47799

>  <r_i_glide_intrahb_reward>  (34) 
-0

>  <i_i_glide_confnum>  (34) 
3

>  <i_i_glide_posenum>  (34) 
2

>  <r_i_glide_eff_state_penalty>  (34) 
0

>  <ligand_id>  (34) 
44

>  <original_smiles>  (34) 
C=C(C)C12CCC(C)(C)C1(C)CC(OC)C13CC(C)(C1)C2(O)C12[S+]([O-])C3C3(C)OC3C3(C)C4C(CC(C)O)OC5C(C)(C(OC(C)=O)C54O)C(O)C1(O)OCC32O

>  <smiles>  (34) 
[H]OC([H])(C([H])([H])[H])C([H])([H])C1([H])OC2([H])C3(O[H])C([H])(OC(=O)C([H])([H])[H])C2(C([H])([H])[H])C([H])(O[H])C2(O[H])OC([H])([H])C4(O[H])C25S(=O)C([H])(C2(C([H])([H])[H])OC2([H])C4(C([H])([H])[H])C13[H])C12C([H])([H])C(C([H])([H])[H])(C1([H])[H])C5(O[H])C1(C(=C([H])[H])C([H])([H])[H])C([H])([H])C([H])([H])C(C([H])([H])[H])(C([H])([H])[H])C1(C([H])([H])[H])C([H])([H])C2([H])OC([H])([H])[H]

$$$$
44:0:2
     RDKit          3D

121130  0  0  1  0  0  0  0  0999 V2000
   -2.4129    3.1079    5.5315 C   0  0  0  0  0  0  0  0  0  0  0  0
   -1.0583    3.1432    5.4364 C   0  0  0  0  0  0  0  0  0  0  0  0
   -0.5038    4.3135    4.5911 C   0  0  0  0  0  0  0  0  0  0  0  0
   -0.1205    2.0165    6.1385 C   0  0  2  0  0  0  0  0  0  0  0  0
   -1.0869    0.9980    6.8655 C   0  0  0  0  0  0  0  0  0  0  0  0
   -1.5493    1.6548    8.1713 C   0  0  0  0  0  0  0  0  0  0  0  0
   -0.2979    2.2431    8.7942 C   0  0  0  0  0  0  0  0  0  0  0  0
   -0.7822    3.3056    9.8249 C   0  0  0  0  0  0  0  0  0  0  0  0
    0.3280    1.1633    9.7171 C   0  0  0  0  0  0  0  0  0  0  0  0
    0.5944    2.7377    7.5276 C   0  0  2  0  0  0  0  0  0  0  0  0
    0.4357    4.3033    7.5712 C   0  0  0  0  0  0  0  0  0  0  0  0
    2.1668    2.5912    7.9394 C   0  0  0  0  0  0  0  0  0  0  0  0
    3.4731    2.8497    7.0328 C   0  0  1  0  0  0  0  0  0  0  0  0
    4.5979    2.7081    7.8999 O   0  0  0  0  0  0  0  0  0  0  0  0
    5.8496    3.0855    7.3442 C   0  0  0  0  0  0  0  0  0  0  0  0
    3.5734    1.8532    5.8068 C   0  0  1  0  0  0  0  0  0  0  0  0
    3.4482    1.7051    4.2679 C   0  0  0  0  0  0  0  0  0  0  0  0
    1.8848    1.9900    4.1554 C   0  0  2  0  0  0  0  0  0  0  0  0
    1.5460    2.6303    2.7782 C   0  0  0  0  0  0  0  0  0  0  0  0
    2.5080    2.8972    5.1226 C   0  0  0  0  0  0  0  0  0  0  0  0
    0.6362    1.1367    4.8350 C   0  0  2  0  0  0  0  0  0  0  0  0
   -0.5480    0.9922    4.0589 O   0  0  0  0  0  0  0  0  0  0  0  0
    1.2173   -0.4267    4.6843 C   0  0  2  0  0  0  0  0  0  0  0  0
    1.8821   -0.0514    6.4119 S   0  0  0  0  0  0  0  0  0  0  0  0
    1.4688   -0.9613    7.5674 O   0  0  0  0  0  0  0  0  0  0  0  0
    3.5890    0.4172    6.5468 C   0  0  1  0  0  0  0  0  0  0  0  0
    4.2865   -1.0081    6.4773 C   0  0  2  0  0  0  0  0  0  0  0  0
    4.5918   -1.5349    7.8703 C   0  0  0  0  0  0  0  0  0  0  0  0
    5.0449   -1.8208    5.5279 O   0  0  0  0  0  0  0  0  0  0  0  0
    3.6688   -1.7837    5.3022 C   0  0  1  0  0  0  0  0  0  0  0  0
    2.5234   -2.8495    5.2916 C   0  0  2  0  0  0  0  0  0  0  0  0
    2.5007   -3.5861    6.6832 C   0  0  0  0  0  0  0  0  0  0  0  0
    2.9865   -4.1002    4.3460 C   0  0  1  0  0  0  0  0  0  0  0  0
    1.8926   -5.0156    3.7523 C   0  0  1  0  0  0  0  0  0  0  0  0
    0.7260   -5.5878    4.6216 C   0  0  0  0  0  0  0  0  0  0  0  0
   -0.1129   -6.6803    3.9084 C   0  0  2  0  0  0  0  0  0  0  0  0
   -1.1159   -7.3180    4.8738 C   0  0  0  0  0  0  0  0  0  0  0  0
    0.6953   -7.7373    3.4285 O   0  0  0  0  0  0  0  0  0  0  0  0
    1.6326   -4.3645    2.5067 O   0  0  0  0  0  0  0  0  0  0  0  0
    2.8811   -3.9715    1.9272 C   0  0  1  0  0  0  0  0  0  0  0  0
    3.3351   -2.4823    1.5264 C   0  0  2  0  0  0  0  0  0  0  0  0
    3.4461   -2.3936   -0.0181 C   0  0  0  0  0  0  0  0  0  0  0  0
    4.6261   -3.0091    2.2082 C   0  0  1  0  0  0  0  0  0  0  0  0
    5.4480   -2.1717    2.9544 O   0  0  0  0  0  0  0  0  0  0  0  0
    5.9764   -1.0336    2.4793 C   0  0  0  0  0  0  0  0  0  0  0  0
    6.5268   -1.1264    1.0352 C   0  0  0  0  0  0  0  0  0  0  0  0
    6.0323   -0.0331    3.1964 O   0  0  0  0  0  0  0  0  0  0  0  0
    3.8879   -4.0582    3.0563 C   0  0  1  0  0  0  0  0  0  0  0  0
    4.6515   -5.2557    3.0683 O   0  0  0  0  0  0  0  0  0  0  0  0
    2.9141   -1.0400    2.1470 C   0  0  1  0  0  0  0  0  0  0  0  0
    3.1775   -0.0349    1.1672 O   0  0  0  0  0  0  0  0  0  0  0  0
    1.5764   -0.7559    2.9746 C   0  0  2  0  0  0  0  0  0  0  0  0
    0.7928    0.0097    2.0727 O   0  0  0  0  0  0  0  0  0  0  0  0
    1.0095   -1.9594    2.7831 O   0  0  0  0  0  0  0  0  0  0  0  0
    0.2007   -2.3087    3.8363 C   0  0  0  0  0  0  0  0  0  0  0  0
    1.0504   -2.0006    5.0419 C   0  0  2  0  0  0  0  0  0  0  0  0
    0.1037   -2.3528    6.0447 O   0  0  0  0  0  0  0  0  0  0  0  0
   -2.9786    3.8817    5.0464 H   0  0  0  0  0  0  0  0  0  0  0  0
   -3.0557    2.3837    6.0445 H   0  0  0  0  0  0  0  0  0  0  0  0
    0.2734    4.9235    5.0610 H   0  0  0  0  0  0  0  0  0  0  0  0
   -1.3415    5.0176    4.4709 H   0  0  0  0  0  0  0  0  0  0  0  0
   -0.2773    3.9335    3.6006 H   0  0  0  0  0  0  0  0  0  0  0  0
   -1.9182    0.6718    6.2374 H   0  0  0  0  0  0  0  0  0  0  0  0
   -0.6051    0.0540    7.1282 H   0  0  0  0  0  0  0  0  0  0  0  0
   -2.2748    2.4497    7.9860 H   0  0  0  0  0  0  0  0  0  0  0  0
   -2.0209    0.9605    8.8569 H   0  0  0  0  0  0  0  0  0  0  0  0
    0.0510    3.7828   10.3403 H   0  0  0  0  0  0  0  0  0  0  0  0
   -1.3898    2.8404   10.5981 H   0  0  0  0  0  0  0  0  0  0  0  0
   -1.4180    4.0773    9.3928 H   0  0  0  0  0  0  0  0  0  0  0  0
    1.1818    1.5492   10.2746 H   0  0  0  0  0  0  0  0  0  0  0  0
    0.6427    0.2772    9.1926 H   0  0  0  0  0  0  0  0  0  0  0  0
   -0.3812    0.8186   10.4688 H   0  0  0  0  0  0  0  0  0  0  0  0
    0.7130    4.7227    8.5380 H   0  0  0  0  0  0  0  0  0  0  0  0
   -0.5892    4.6371    7.4154 H   0  0  0  0  0  0  0  0  0  0  0  0
    1.0936    4.8395    6.9006 H   0  0  0  0  0  0  0  0  0  0  0  0
    2.3113    3.2719    8.7771 H   0  0  0  0  0  0  0  0  0  0  0  0
    2.3020    1.6367    8.4303 H   0  0  0  0  0  0  0  0  0  0  0  0
    3.5350    3.9143    6.7795 H   0  0  0  0  0  0  0  0  0  0  0  0
    6.6190    2.9745    8.1072 H   0  0  0  0  0  0  0  0  0  0  0  0
    5.8535    4.1270    7.0203 H   0  0  0  0  0  0  0  0  0  0  0  0
    6.1257    2.4511    6.5018 H   0  0  0  0  0  0  0  0  0  0  0  0
    4.1218    2.3856    3.7186 H   0  0  0  0  0  0  0  0  0  0  0  0
    3.7564    0.7374    3.9827 H   0  0  0  0  0  0  0  0  0  0  0  0
    0.4937    2.5620    2.4911 H   0  0  0  0  0  0  0  0  0  0  0  0
    2.1974    2.2539    1.9806 H   0  0  0  0  0  0  0  0  0  0  0  0
    1.7470    3.7004    2.7722 H   0  0  0  0  0  0  0  0  0  0  0  0
    1.7421    3.4190    5.6302 H   0  0  0  0  0  0  0  0  0  0  0  0
    2.9962    3.7895    4.6722 H   0  0  0  0  0  0  0  0  0  0  0  0
   -0.7932    1.8350    3.7083 H   0  0  0  0  0  0  0  0  0  0  0  0
    3.7863    0.5999    7.5984 H   0  0  0  0  0  0  0  0  0  0  0  0
    3.6849   -1.5879    8.4686 H   0  0  0  0  0  0  0  0  0  0  0  0
    5.3155   -0.8824    8.3653 H   0  0  0  0  0  0  0  0  0  0  0  0
    5.0275   -2.5290    7.7835 H   0  0  0  0  0  0  0  0  0  0  0  0
    3.5137   -1.1575    4.5002 H   0  0  0  0  0  0  0  0  0  0  0  0
    1.8172   -4.4343    6.6950 H   0  0  0  0  0  0  0  0  0  0  0  0
    2.2119   -2.9941    7.5369 H   0  0  0  0  0  0  0  0  0  0  0  0
    3.4934   -3.9698    6.9320 H   0  0  0  0  0  0  0  0  0  0  0  0
    3.5374   -4.7714    5.0117 H   0  0  0  0  0  0  0  0  0  0  0  0
    2.3938   -5.9281    3.4397 H   0  0  0  0  0  0  0  0  0  0  0  0
    1.1677   -6.0833    5.4909 H   0  0  0  0  0  0  0  0  0  0  0  0
    0.0525   -4.8223    5.0186 H   0  0  0  0  0  0  0  0  0  0  0  0
   -0.6495   -6.2540    3.0644 H   0  0  0  0  0  0  0  0  0  0  0  0
   -1.8196   -6.5679    5.2399 H   0  0  0  0  0  0  0  0  0  0  0  0
   -0.5863   -7.7450    5.7305 H   0  0  0  0  0  0  0  0  0  0  0  0
   -1.6805   -8.1298    4.4014 H   0  0  0  0  0  0  0  0  0  0  0  0
    1.1563   -8.1219    4.1579 H   0  0  0  0  0  0  0  0  0  0  0  0
    3.1493   -4.7004    1.1589 H   0  0  0  0  0  0  0  0  0  0  0  0
    4.1057   -1.5979   -0.3887 H   0  0  0  0  0  0  0  0  0  0  0  0
    2.4459   -2.3055   -0.4529 H   0  0  0  0  0  0  0  0  0  0  0  0
    3.7975   -3.3336   -0.4389 H   0  0  0  0  0  0  0  0  0  0  0  0
    5.2801   -3.5111    1.4972 H   0  0  0  0  0  0  0  0  0  0  0  0
    5.7513   -1.5243    0.4217 H   0  0  0  0  0  0  0  0  0  0  0  0
    7.4537   -1.7139    0.8874 H   0  0  0  0  0  0  0  0  0  0  0  0
    6.7531   -0.1515    0.6339 H   0  0  0  0  0  0  0  0  0  0  0  0
    4.9328   -5.4011    2.1770 H   0  0  0  0  0  0  0  0  0  0  0  0
    3.6965   -0.6726    2.7168 H   0  0  0  0  0  0  0  0  0  0  0  0
    2.5515   -0.1265    0.4654 H   0  0  0  0  0  0  0  0  0  0  0  0
    0.9792   -0.2892    1.1862 H   0  0  0  0  0  0  0  0  0  0  0  0
   -0.6933   -1.6699    3.8210 H   0  0  0  0  0  0  0  0  0  0  0  0
   -0.0604   -3.3451    3.6954 H   0  0  0  0  0  0  0  0  0  0  0  0
    0.5035   -2.1197    6.8807 H   0  0  0  0  0  0  0  0  0  0  0  0
  1  2  2  0
  1 58  1  0
  1 59  1  0
  2  3  1  0
  4  2  1  6
  3 60  1  0
  3 61  1  0
  3 62  1  0
  4 10  1  0
  4 21  1  0
  4  5  1  0
  5  6  1  0
  5 63  1  0
  5 64  1  0
  6  7  1  0
  6 65  1  0
  6 66  1  0
  7  8  1  0
  7  9  1  0
  7 10  1  0
  8 67  1  0
  8 68  1  0
  8 69  1  0
  9 70  1  0
  9 71  1  0
  9 72  1  0
 10 11  1  6
 10 12  1  0
 11 73  1  0
 11 74  1  0
 11 75  1  0
 12 13  1  0
 12 76  1  0
 12 77  1  0
 13 14  1  0
 13 16  1  0
 13 78  1  6
 14 15  1  0
 15 79  1  0
 15 80  1  0
 15 81  1  0
 16 20  1  1
 16 26  1  0
 16 17  1  0
 17 18  1  0
 17 82  1  0
 17 83  1  0
 18 19  1  6
 18 20  1  0
 18 21  1  0
 19 84  1  0
 19 85  1  0
 19 86  1  0
 20 87  1  0
 20 88  1  0
 21 22  1  6
 21 23  1  0
 22 89  1  0
 23 52  1  6
 23 56  1  0
 24 23  1  6
 24 25  2  0
 24 26  1  0
 26 27  1  0
 26 90  1  1
 27 30  1  0
 27 28  1  1
 27 29  1  0
 28 91  1  0
 28 92  1  0
 28 93  1  0
 29 30  1  0
 30 31  1  0
 30 94  1  6
 31 56  1  0
 31 32  1  1
 31 33  1  0
 32 95  1  0
 32 96  1  0
 32 97  1  0
 33 48  1  0
 33 34  1  0
 33 98  1  1
 34 35  1  0
 34 39  1  0
 34 99  1  6
 35 36  1  0
 35100  1  0
 35101  1  0
 36 37  1  0
 36 38  1  0
 36102  1  6
 37103  1  0
 37104  1  0
 37105  1  0
 38106  1  0
 39 40  1  0
 40 48  1  0
 40 41  1  0
 40107  1  6
 41 42  1  6
 41 43  1  0
 41 50  1  0
 42108  1  0
 42109  1  0
 42110  1  0
 43 44  1  0
 43 48  1  0
 43111  1  6
 44 45  1  0
 45 46  1  0
 45 47  2  0
 46112  1  0
 46113  1  0
 46114  1  0
 48 49  1  6
 49115  1  0
 50 51  1  0
 50 52  1  0
 50116  1  1
 51117  1  0
 52 53  1  6
 52 54  1  0
 53118  1  0
 54 55  1  0
 55 56  1  0
 55119  1  0
 55120  1  0
 56 57  1  1
 57121  1  0
M  END
>  <i_m_ct_stereo_status>  (35) 
1

>  <s_m_source_file>  (35) 
/var/tmp/pbs.5075288.sched01/tmpsukb34hn/166582q88ej.sdf

>  <i_m_source_file_index>  (35) 
17

>  <i_lp_mmshare_version>  (35) 
48012

>  <i_f3d_flags>  (35) 
0

>  <s_epik_input>  (35) 
W0NIM11PW0NAQEhdMVtDSDJdW0NAXShbQ0gzXSkoQyhbQ0gzXSkoW0NIM10pW0NIMl1bQ0gyXTIpW0NAQF0yKEMoPVtDSDJdKVtDSDNdKVtDQEBdKFtPSF0pKFtDQEBdKFtDSDJdMykoW0NIM10pW0NIMl00KVtDQEBdKFtTK101W08tXSkoW0NAXTYoW0NIMl1PNylbT0hdKVtDQEBdNyhbT0hdKVtDQEhdKFtPSF0pW0NAQF0oW0NIM10pKFtDQEhdOE9DKD1PKVtDSDNdKVtDQEhdKE9bQ0BASF05W0NIMl1bQ0BIXShbQ0gzXSlbT0hdKVtDQF04KFtPSF0pW0NASF05W0NAQF02KFtDSDNdKVtDQEhdKE8yKVtDQEBdMihbQ0BIXTVbQ0BAXTEzNClbQ0gzXQ==

>  <s_epik_cmdline>  (35) 
J2VwaWtfcHl0aG9uJywgJy1waHQnLCAnMi4wJywgJy1waCcsICc3LjAnLCAnLXRuJywgJzgnLCAnLW1hJywgJzIwMCcsICctaW1hZScsICc8aW5maWxlLm1hZT4nLCAnLW9tYWUnLCAnPG91dGZpbGUubWFlPic=

>  <r_lp_tautomer_probability>  (35) 
1

>  <r_epik_Ionization_Penalty>  (35) 
3.22299e-06

>  <r_epik_Ionization_Penalty_Charging>  (35) 
0

>  <r_epik_Ionization_Penalty_Neutral>  (35) 
3.22299e-06

>  <r_epik_State_Penalty>  (35) 
-0

>  <r_epik_Charging_Adjusted_Penalty>  (35) 
0

>  <i_epik_Tot_Q>  (35) 
0

>  <i_epik_Tot_abs_Q>  (35) 
2

>  <s_epik_Chemistry_Notes>  (35) 
This compound has an ester and may undergo hydrolysis at high or low pH.

>  <s_lp_Force_Field>  (35) 
OPLS3e

>  <r_lp_Energy>  (35) 
612.641

>  <b_lp_Chiralities_Consistent>  (35) 
1

>  <s_lp_Variant>  (35) 
44:0-1

>  <s_i_glide_gridfile>  (35) 
pfpi4k_grid

>  <i_i_glide_lignum>  (35) 
17

>  <i_i_glide_rotatable_bonds>  (35) 
12

>  <r_i_docking_score>  (35) 
-1.95347

>  <r_i_glide_ligand_efficiency>  (35) 
-0.0342714

>  <r_i_glide_ligand_efficiency_sa>  (35) 
-0.131894

>  <r_i_glide_ligand_efficiency_ln>  (35) 
-0.387359

>  <r_i_glide_gscore>  (35) 
-1.95347

>  <r_i_glide_lipo>  (35) 
-0.115676

>  <r_i_glide_hbond>  (35) 
-0.114204

>  <r_i_glide_metal>  (35) 
-0

>  <r_i_glide_rewards>  (35) 
-0.623356

>  <r_i_glide_evdw>  (35) 
-25.5757

>  <r_i_glide_ecoul>  (35) 
-2.0726

>  <r_i_glide_erotb>  (35) 
0.129598

>  <r_i_glide_esite>  (35) 
-0.0178448

>  <r_i_glide_emodel>  (35) 
-24.716

>  <r_i_glide_energy>  (35) 
-27.6483

>  <r_i_glide_einternal>  (35) 
15.9269

>  <r_i_glide_intrahb_reward>  (35) 
-0.5

>  <i_i_glide_confnum>  (35) 
4

>  <i_i_glide_posenum>  (35) 
14

>  <r_i_glide_eff_state_penalty>  (35) 
0

>  <ligand_id>  (35) 
44

>  <original_smiles>  (35) 
C=C(C)C12CCC(C)(C)C1(C)CC(OC)C13CC(C)(C1)C2(O)C12[S+]([O-])C3C3(C)OC3C3(C)C4C(CC(C)O)OC5C(C)(C(OC(C)=O)C54O)C(O)C1(O)OCC32O

>  <smiles>  (35) 
[H]OC([H])(C([H])([H])[H])C([H])([H])C1([H])OC2([H])C3(O[H])C([H])(OC(=O)C([H])([H])[H])C2(C([H])([H])[H])C([H])(O[H])C2(O[H])OC([H])([H])C4(O[H])C25S(=O)C([H])(C2(C([H])([H])[H])OC2([H])C4(C([H])([H])[H])C13[H])C12C([H])([H])C(C([H])([H])[H])(C1([H])[H])C5(O[H])C1(C(=C([H])[H])C([H])([H])[H])C([H])([H])C([H])([H])C(C([H])([H])[H])(C([H])([H])[H])C1(C([H])([H])[H])C([H])([H])C2([H])OC([H])([H])[H]

$$$$
50:0:0
     RDKit          3D

 90 97  0  0  1  0  0  0  0  0999 V2000
    3.2420  -12.1178    3.5663 C   0  0  0  0  0  0  0  0  0  0  0  0
    3.1002  -10.9899    4.2727 C   0  0  0  0  0  0  0  0  0  0  0  0
    3.5083  -10.9741    5.7507 C   0  0  0  0  0  0  0  0  0  0  0  0
    2.6161  -10.2652    6.5779 O   0  0  0  0  0  0  0  0  0  0  0  0
    2.5850   -9.7428    3.5380 C   0  0  2  0  0  0  0  0  0  0  0  0
    3.6721   -8.9317    2.8375 C   0  0  0  0  0  0  0  0  0  0  0  0
    3.1551   -7.4674    2.8082 C   0  0  1  0  0  0  0  0  0  0  0  0
    2.4941   -7.3176    4.2529 C   0  0  2  0  0  0  0  0  0  0  0  0
    3.4008   -7.3626    5.3417 O   0  0  0  0  0  0  0  0  0  0  0  0
    1.8116   -8.7061    4.3463 C   0  0  0  0  0  0  0  0  0  0  0  0
    0.7830   -8.9625    4.9698 O   0  0  0  0  0  0  0  0  0  0  0  0
    1.3915   -6.1976    4.3952 C   0  0  0  0  0  0  0  0  0  0  0  0
    0.3279   -6.3596    3.7908 O   0  0  0  0  0  0  0  0  0  0  0  0
    1.5143   -4.8357    5.1909 C   0  0  2  0  0  0  0  0  0  0  0  0
    0.2701   -4.7974    6.1275 C   0  0  0  0  0  0  0  0  0  0  0  0
    1.4434   -3.6134    4.2153 C   0  0  0  0  0  0  0  0  0  0  0  0
    2.6414   -3.3795    3.2086 C   0  0  1  0  0  0  0  0  0  0  0  0
    2.3128   -4.3826    2.0133 C   0  0  0  0  0  0  0  0  0  0  0  0
    3.3122   -5.2553    1.2618 C   0  0  0  0  0  0  0  0  0  0  0  0
    4.0397   -6.4272    1.9476 C   0  0  2  0  0  0  0  0  0  0  0  0
    4.6580   -7.1881    0.7434 C   0  0  0  0  0  0  0  0  0  0  0  0
    5.5871   -5.7442    2.7218 S   0  0  0  0  0  0  0  0  0  0  0  0
    5.9427   -6.5612    3.9663 O   0  0  0  0  0  0  0  0  0  0  0  0
    5.2994   -3.9234    3.1265 C   0  0  1  0  0  0  0  0  0  0  0  0
    5.7946   -2.9231    2.0454 C   0  0  1  0  0  0  0  0  0  0  0  0
    6.7195   -3.3619    0.9149 C   0  0  0  0  0  0  0  0  0  0  0  0
    6.7579   -2.2022    0.0786 O   0  0  0  0  0  0  0  0  0  0  0  0
    5.7894   -1.2615    0.4711 C   0  0  1  0  0  0  0  0  0  0  0  0
    5.1661   -0.6823   -0.6438 O   0  0  0  0  0  0  0  0  0  0  0  0
    4.7788   -2.0383    1.3325 C   0  0  2  0  0  0  0  0  0  0  0  0
    3.8787   -1.2224    2.3202 C   0  0  1  0  0  0  0  0  0  0  0  0
    3.4130    0.1694    1.8551 C   0  0  0  0  0  0  0  0  0  0  0  0
    2.1522    0.5328    2.6734 C   0  0  0  0  0  0  0  0  0  0  0  0
    2.4793    1.5330    3.8015 C   0  0  0  0  0  0  0  0  0  0  0  0
    1.0729    1.1514    1.7624 C   0  0  0  0  0  0  0  0  0  0  0  0
    1.6955   -0.8168    3.2734 C   0  0  0  0  0  0  0  0  0  0  0  0
    2.5337   -1.9157    2.5807 C   0  0  2  0  0  0  0  0  0  0  0  0
    4.5665   -1.0364    3.5550 O   0  0  0  0  0  0  0  0  0  0  0  0
    4.4040   -2.0602    4.5431 C   0  0  0  0  0  0  0  0  0  0  0  0
    4.0502   -3.4833    3.9864 C   0  0  1  0  0  0  0  0  0  0  0  0
    4.0281   -4.4304    5.2219 C   0  0  1  0  0  0  0  0  0  0  0  0
    5.1520   -4.3344    6.0819 O   0  0  0  0  0  0  0  0  0  0  0  0
    2.7614   -4.5919    6.0706 C   0  0  1  0  0  0  0  0  0  0  0  0
    2.6144   -3.4505    6.9065 O   0  0  0  0  0  0  0  0  0  0  0  0
    3.6109  -13.0237    4.0141 H   0  0  0  0  0  0  0  0  0  0  0  0
    2.9989  -12.1631    2.5156 H   0  0  0  0  0  0  0  0  0  0  0  0
    3.5845  -12.0001    6.1090 H   0  0  0  0  0  0  0  0  0  0  0  0
    4.5153  -10.5650    5.8346 H   0  0  0  0  0  0  0  0  0  0  0  0
    1.9936  -10.8999    6.9344 H   0  0  0  0  0  0  0  0  0  0  0  0
    1.8882  -10.0804    2.7754 H   0  0  0  0  0  0  0  0  0  0  0  0
    4.6296   -8.9927    3.3594 H   0  0  0  0  0  0  0  0  0  0  0  0
    3.8248   -9.3456    1.8416 H   0  0  0  0  0  0  0  0  0  0  0  0
    2.2829   -7.5229    2.1507 H   0  0  0  0  0  0  0  0  0  0  0  0
    3.9710   -8.1105    5.2368 H   0  0  0  0  0  0  0  0  0  0  0  0
    0.1403   -3.8242    6.6020 H   0  0  0  0  0  0  0  0  0  0  0  0
    0.3625   -5.5365    6.9263 H   0  0  0  0  0  0  0  0  0  0  0  0
   -0.6653   -5.0032    5.6078 H   0  0  0  0  0  0  0  0  0  0  0  0
    0.5066   -3.6569    3.6585 H   0  0  0  0  0  0  0  0  0  0  0  0
    1.3122   -2.7454    4.8532 H   0  0  0  0  0  0  0  0  0  0  0  0
    1.4704   -5.0232    2.2093 H   0  0  0  0  0  0  0  0  0  0  0  0
    1.8404   -3.8455    1.1995 H   0  0  0  0  0  0  0  0  0  0  0  0
    2.7293   -5.6862    0.4426 H   0  0  0  0  0  0  0  0  0  0  0  0
    4.0364   -4.6461    0.7377 H   0  0  0  0  0  0  0  0  0  0  0  0
    3.9025   -7.7201    0.1647 H   0  0  0  0  0  0  0  0  0  0  0  0
    5.4093   -7.9151    1.0549 H   0  0  0  0  0  0  0  0  0  0  0  0
    5.1611   -6.5122    0.0495 H   0  0  0  0  0  0  0  0  0  0  0  0
    6.1131   -3.8686    3.8446 H   0  0  0  0  0  0  0  0  0  0  0  0
    6.4109   -2.2216    2.6113 H   0  0  0  0  0  0  0  0  0  0  0  0
    7.7240   -3.5984    1.2661 H   0  0  0  0  0  0  0  0  0  0  0  0
    6.3266   -4.2149    0.3607 H   0  0  0  0  0  0  0  0  0  0  0  0
    6.2991   -0.4840    1.0409 H   0  0  0  0  0  0  0  0  0  0  0  0
    5.2855    0.2645   -0.5947 H   0  0  0  0  0  0  0  0  0  0  0  0
    4.1540   -2.5957    0.6383 H   0  0  0  0  0  0  0  0  0  0  0  0
    4.1960    0.9171    1.9513 H   0  0  0  0  0  0  0  0  0  0  0  0
    3.1515    0.1232    0.7974 H   0  0  0  0  0  0  0  0  0  0  0  0
    1.5969    1.7371    4.4087 H   0  0  0  0  0  0  0  0  0  0  0  0
    2.8238    2.4862    3.3999 H   0  0  0  0  0  0  0  0  0  0  0  0
    3.2556    1.1557    4.4681 H   0  0  0  0  0  0  0  0  0  0  0  0
    0.1647    1.3865    2.3174 H   0  0  0  0  0  0  0  0  0  0  0  0
    0.7946    0.4836    0.9494 H   0  0  0  0  0  0  0  0  0  0  0  0
    1.4244    2.0774    1.3074 H   0  0  0  0  0  0  0  0  0  0  0  0
    1.8727   -0.7929    4.3475 H   0  0  0  0  0  0  0  0  0  0  0  0
    0.6286   -0.9887    3.1327 H   0  0  0  0  0  0  0  0  0  0  0  0
    2.0599   -1.9475    1.6028 H   0  0  0  0  0  0  0  0  0  0  0  0
    5.3440   -2.0742    5.0984 H   0  0  0  0  0  0  0  0  0  0  0  0
    3.6495   -1.7328    5.2576 H   0  0  0  0  0  0  0  0  0  0  0  0
    4.1443   -5.3659    4.7582 H   0  0  0  0  0  0  0  0  0  0  0  0
    5.1728   -5.1155    6.6132 H   0  0  0  0  0  0  0  0  0  0  0  0
    2.8823   -5.4246    6.7642 H   0  0  0  0  0  0  0  0  0  0  0  0
    2.6084   -2.6818    6.3593 H   0  0  0  0  0  0  0  0  0  0  0  0
  1  2  2  0
  1 45  1  0
  1 46  1  0
  2  3  1  0
  2  5  1  0
  3  4  1  0
  3 47  1  0
  3 48  1  0
  4 49  1  0
  5 10  1  0
  5  6  1  0
  5 50  1  6
  6  7  1  0
  6 51  1  0
  6 52  1  0
  7 20  1  0
  7  8  1  0
  7 53  1  6
  8  9  1  1
  8 10  1  0
  8 12  1  0
  9 54  1  0
 10 11  2  0
 12 13  2  0
 12 14  1  0
 14 43  1  0
 14 15  1  1
 14 16  1  0
 15 55  1  0
 15 56  1  0
 15 57  1  0
 17 16  1  1
 16 58  1  0
 16 59  1  0
 17 37  1  0
 17 40  1  0
 17 18  1  0
 18 19  1  0
 18 60  1  0
 18 61  1  0
 19 20  1  0
 19 62  1  0
 19 63  1  0
 20 21  1  6
 22 20  1  1
 21 64  1  0
 21 65  1  0
 21 66  1  0
 22 23  2  0
 22 24  1  0
 24 40  1  0
 24 25  1  0
 24 67  1  1
 25 30  1  0
 25 26  1  0
 25 68  1  1
 26 27  1  0
 26 69  1  0
 26 70  1  0
 27 28  1  0
 28 29  1  0
 28 30  1  0
 28 71  1  1
 29 72  1  0
 30 31  1  0
 30 73  1  6
 31 37  1  0
 31 32  1  0
 31 38  1  1
 32 33  1  0
 32 74  1  0
 32 75  1  0
 33 34  1  0
 33 35  1  0
 33 36  1  0
 34 76  1  0
 34 77  1  0
 34 78  1  0
 35 79  1  0
 35 80  1  0
 35 81  1  0
 36 37  1  0
 36 82  1  0
 36 83  1  0
 37 84  1  6
 38 39  1  0
 40 39  1  1
 39 85  1  0
 39 86  1  0
 40 41  1  0
 41 42  1  0
 41 43  1  0
 41 87  1  6
 42 88  1  0
 43 44  1  0
 43 89  1  1
 44 90  1  0
M  END
>  <i_m_ct_stereo_status>  (36) 
1

>  <s_m_source_file>  (36) 
/var/tmp/pbs.5075288.sched01/tmpsukb34hn/166582q88ej.sdf

>  <i_m_source_file_index>  (36) 
29

>  <i_lp_mmshare_version>  (36) 
48012

>  <i_f3d_flags>  (36) 
0

>  <s_epik_input>  (36) 
W09IXVtDSDJdQyg9W0NIMl0pW0NASF0oW0NIMl0xKUMoPU8pW0NAXShbT0hdKShDKD1PKVtDQF0oW0NIM10pKFtDSDJdMilbQ0BIXShbT0hdKVtDQEBIXTNbT0hdKVtDQEhdMVtDQEBdKFtDSDNdKShbQ0gyXVtDSDJdNClbUytdKFtPLV0pW0NASF0oW0NAQF0zNVtDQF0yNDYpW0NAQEhdN1tDQEhdKFtDQEhdKFtPSF0pT1tDSDJdNylbQ0BdOChPW0NIMl01KVtDQEBIXTZbQ0gyXUMoW0NIMl04KShbQ0gzXSlbQ0gzXQ==

>  <s_epik_cmdline>  (36) 
J2VwaWtfcHl0aG9uJywgJy1waHQnLCAnMi4wJywgJy1waCcsICc3LjAnLCAnLXRuJywgJzgnLCAnLW1hJywgJzIwMCcsICctaW1hZScsICc8aW5maWxlLm1hZT4nLCAnLW9tYWUnLCAnPG91dGZpbGUubWFlPic=

>  <r_lp_tautomer_probability>  (36) 
1

>  <r_epik_Ionization_Penalty>  (36) 
1.77426e-06

>  <r_epik_Ionization_Penalty_Charging>  (36) 
0

>  <r_epik_Ionization_Penalty_Neutral>  (36) 
1.77426e-06

>  <r_epik_State_Penalty>  (36) 
-0

>  <r_epik_Charging_Adjusted_Penalty>  (36) 
0

>  <i_epik_Tot_Q>  (36) 
0

>  <i_epik_Tot_abs_Q>  (36) 
2

>  <s_epik_Chemistry_Notes>  (36) 
This compound contains an acetal/aminal-like group ( X-CH(R)-Y where X, Y are N, S, or O) that may be acid/base labile, releasing an aldehyde.

>  <s_lp_Force_Field>  (36) 
OPLS3e

>  <r_lp_Energy>  (36) 
149.764

>  <b_lp_Chiralities_Consistent>  (36) 
1

>  <s_lp_Variant>  (36) 
50:0-1

>  <s_i_glide_gridfile>  (36) 
pfpi4k_grid

>  <i_i_glide_lignum>  (36) 
29

>  <i_i_glide_rotatable_bonds>  (36) 
7

>  <r_i_docking_score>  (36) 
-3.20025

>  <r_i_glide_ligand_efficiency>  (36) 
-0.0727331

>  <r_i_glide_ligand_efficiency_sa>  (36) 
-0.256773

>  <r_i_glide_ligand_efficiency_ln>  (36) 
-0.668923

>  <r_i_glide_gscore>  (36) 
-3.20025

>  <r_i_glide_lipo>  (36) 
-0.373709

>  <r_i_glide_hbond>  (36) 
0

>  <r_i_glide_metal>  (36) 
-0

>  <r_i_glide_rewards>  (36) 
-0.15474

>  <r_i_glide_evdw>  (36) 
-25.3073

>  <r_i_glide_ecoul>  (36) 
-9.97474

>  <r_i_glide_erotb>  (36) 
0.105055

>  <r_i_glide_esite>  (36) 
-0.0152825

>  <r_i_glide_emodel>  (36) 
-37.0626

>  <r_i_glide_energy>  (36) 
-35.2821

>  <r_i_glide_einternal>  (36) 
5.87474

>  <r_i_glide_intrahb_reward>  (36) 
-0

>  <i_i_glide_confnum>  (36) 
4

>  <i_i_glide_posenum>  (36) 
22

>  <r_i_glide_eff_state_penalty>  (36) 
0

>  <ligand_id>  (36) 
50

>  <original_smiles>  (36) 
C=C(CO)C1CC2C(O)(C1=O)C(=O)C1(C)CC34CCC2(C)[S+]([O-])C2C5COC(O)C5C5(CC(C)(C)CC53)OCC24C(O)C1O

>  <smiles>  (36) 
[H]OC([H])([H])C(=C([H])[H])C1([H])C(=O)C2(O[H])C(=O)C3(C([H])([H])[H])C([H])([H])C45C([H])([H])C([H])([H])C(C([H])([H])[H])(S(=O)C6([H])C7([H])C([H])([H])OC([H])(O[H])C7([H])C7(OC([H])([H])C64C([H])(O[H])C3([H])O[H])C([H])([H])C(C([H])([H])[H])(C([H])([H])[H])C([H])([H])C75[H])C2([H])C1([H])[H]

$$$$
50:0:1
     RDKit          3D

 90 97  0  0  1  0  0  0  0  0999 V2000
    3.2823  -12.1722    3.4859 C   0  0  0  0  0  0  0  0  0  0  0  0
    3.1922  -11.0299    4.1876 C   0  0  0  0  0  0  0  0  0  0  0  0
    3.6713  -11.0203    5.6357 C   0  0  0  0  0  0  0  0  0  0  0  0
    2.7215  -10.4780    6.5141 O   0  0  0  0  0  0  0  0  0  0  0  0
    2.6536   -9.7800    3.4761 C   0  0  2  0  0  0  0  0  0  0  0  0
    3.7301   -8.9527    2.7627 C   0  0  0  0  0  0  0  0  0  0  0  0
    3.2053   -7.4932    2.7473 C   0  0  1  0  0  0  0  0  0  0  0  0
    2.5637   -7.3539    4.2031 C   0  0  2  0  0  0  0  0  0  0  0  0
    3.4893   -7.3965    5.2788 O   0  0  0  0  0  0  0  0  0  0  0  0
    1.9002   -8.7456    4.3031 C   0  0  0  0  0  0  0  0  0  0  0  0
    0.8840   -9.0053    4.9579 O   0  0  0  0  0  0  0  0  0  0  0  0
    1.4534   -6.2436    4.3640 C   0  0  0  0  0  0  0  0  0  0  0  0
    0.3833   -6.4140    3.7730 O   0  0  0  0  0  0  0  0  0  0  0  0
    1.5774   -4.8823    5.1580 C   0  0  2  0  0  0  0  0  0  0  0  0
    0.3477   -4.8504    6.1093 C   0  0  0  0  0  0  0  0  0  0  0  0
    1.4912   -3.6546    4.1923 C   0  0  0  0  0  0  0  0  0  0  0  0
    2.6753   -3.4105    3.1711 C   0  0  1  0  0  0  0  0  0  0  0  0
    2.3345   -4.4138    1.9801 C   0  0  0  0  0  0  0  0  0  0  0  0
    3.3285   -5.2721    1.2071 C   0  0  0  0  0  0  0  0  0  0  0  0
    4.0691   -6.4430    1.8805 C   0  0  2  0  0  0  0  0  0  0  0  0
    4.6803   -7.1945    0.6660 C   0  0  0  0  0  0  0  0  0  0  0  0
    5.6203   -5.7533    2.6413 S   0  0  0  0  0  0  0  0  0  0  0  0
    6.0000   -6.5754    3.8744 O   0  0  0  0  0  0  0  0  0  0  0  0
    5.3324   -3.9379    3.0581 C   0  0  1  0  0  0  0  0  0  0  0  0
    5.8116   -2.9308    1.9727 C   0  0  1  0  0  0  0  0  0  0  0  0
    6.7248   -3.3558    0.8266 C   0  0  0  0  0  0  0  0  0  0  0  0
    6.7424   -2.1915   -0.0045 O   0  0  0  0  0  0  0  0  0  0  0  0
    5.7778   -1.2541    0.4066 C   0  0  1  0  0  0  0  0  0  0  0  0
    5.1457   -0.6565   -0.6960 O   0  0  0  0  0  0  0  0  0  0  0  0
    4.7826   -2.0464    1.2747 C   0  0  2  0  0  0  0  0  0  0  0  0
    3.8900   -1.2419    2.2788 C   0  0  1  0  0  0  0  0  0  0  0  0
    3.4125    0.1484    1.8244 C   0  0  0  0  0  0  0  0  0  0  0  0
    2.1611    0.5027    2.6596 C   0  0  0  0  0  0  0  0  0  0  0  0
    2.4956    1.4994    3.7873 C   0  0  0  0  0  0  0  0  0  0  0  0
    1.0682    1.1236    1.7670 C   0  0  0  0  0  0  0  0  0  0  0  0
    1.7187   -0.8515    3.2573 C   0  0  0  0  0  0  0  0  0  0  0  0
    2.5537   -1.9446    2.5489 C   0  0  2  0  0  0  0  0  0  0  0  0
    4.5940   -1.0593    3.5047 O   0  0  0  0  0  0  0  0  0  0  0  0
    4.4430   -2.0874    4.4912 C   0  0  0  0  0  0  0  0  0  0  0  0
    4.0909   -3.5104    3.9333 C   0  0  1  0  0  0  0  0  0  0  0  0
    4.0874   -4.4630    5.1654 C   0  0  1  0  0  0  0  0  0  0  0  0
    5.1986   -4.3489    6.0437 O   0  0  0  0  0  0  0  0  0  0  0  0
    2.8320   -4.6422    6.0194 C   0  0  1  0  0  0  0  0  0  0  0  0
    2.7112   -3.4970    6.8493 O   0  0  0  0  0  0  0  0  0  0  0  0
    3.6652  -13.0704    3.9329 H   0  0  0  0  0  0  0  0  0  0  0  0
    2.9914  -12.2238    2.4524 H   0  0  0  0  0  0  0  0  0  0  0  0
    3.9054  -12.0376    5.9658 H   0  0  0  0  0  0  0  0  0  0  0  0
    4.5979  -10.4558    5.7001 H   0  0  0  0  0  0  0  0  0  0  0  0
    2.1621  -11.1901    6.8402 H   0  0  0  0  0  0  0  0  0  0  0  0
    1.9464  -10.1093    2.7176 H   0  0  0  0  0  0  0  0  0  0  0  0
    4.6953   -9.0134    3.2730 H   0  0  0  0  0  0  0  0  0  0  0  0
    3.8725   -9.3628    1.7620 H   0  0  0  0  0  0  0  0  0  0  0  0
    2.3244   -7.5512    2.1067 H   0  0  0  0  0  0  0  0  0  0  0  0
    4.0647   -8.1361    5.1583 H   0  0  0  0  0  0  0  0  0  0  0  0
    0.2235   -3.8789    6.5902 H   0  0  0  0  0  0  0  0  0  0  0  0
    0.4479   -5.5935    6.9037 H   0  0  0  0  0  0  0  0  0  0  0  0
   -0.5931   -5.0535    5.5959 H   0  0  0  0  0  0  0  0  0  0  0  0
    0.5486   -3.6984    3.6468 H   0  0  0  0  0  0  0  0  0  0  0  0
    1.3711   -2.7882    4.8410 H   0  0  0  0  0  0  0  0  0  0  0  0
    1.5046   -5.0658    2.1898 H   0  0  0  0  0  0  0  0  0  0  0  0
    1.8428   -3.8764    1.1765 H   0  0  0  0  0  0  0  0  0  0  0  0
    2.7400   -5.7003    0.3914 H   0  0  0  0  0  0  0  0  0  0  0  0
    4.0430   -4.6543    0.6777 H   0  0  0  0  0  0  0  0  0  0  0  0
    3.9238   -7.7278    0.0921 H   0  0  0  0  0  0  0  0  0  0  0  0
    5.4384   -7.9177    0.9663 H   0  0  0  0  0  0  0  0  0  0  0  0
    5.1698   -6.5108   -0.0290 H   0  0  0  0  0  0  0  0  0  0  0  0
    6.1518   -3.8870    3.7703 H   0  0  0  0  0  0  0  0  0  0  0  0
    6.4389   -2.2320    2.5290 H   0  0  0  0  0  0  0  0  0  0  0  0
    7.7332   -3.5930    1.1663 H   0  0  0  0  0  0  0  0  0  0  0  0
    6.3317   -4.2117    0.2770 H   0  0  0  0  0  0  0  0  0  0  0  0
    6.2961   -0.4841    0.9780 H   0  0  0  0  0  0  0  0  0  0  0  0
    5.1974    0.2904   -0.6015 H   0  0  0  0  0  0  0  0  0  0  0  0
    4.1529   -2.6052    0.5855 H   0  0  0  0  0  0  0  0  0  0  0  0
    4.1929    0.9015    1.9159 H   0  0  0  0  0  0  0  0  0  0  0  0
    3.1367    0.1072    0.7692 H   0  0  0  0  0  0  0  0  0  0  0  0
    1.6191    1.6971    4.4057 H   0  0  0  0  0  0  0  0  0  0  0  0
    2.8304    2.4565    3.3857 H   0  0  0  0  0  0  0  0  0  0  0  0
    3.2817    1.1238    4.4438 H   0  0  0  0  0  0  0  0  0  0  0  0
    0.1630    1.3443    2.3342 H   0  0  0  0  0  0  0  0  0  0  0  0
    0.7862    0.4612    0.9523 H   0  0  0  0  0  0  0  0  0  0  0  0
    1.4071    2.0535    1.3091 H   0  0  0  0  0  0  0  0  0  0  0  0
    1.9064   -0.8327    4.3311 H   0  0  0  0  0  0  0  0  0  0  0  0
    0.6500   -1.0281    3.1295 H   0  0  0  0  0  0  0  0  0  0  0  0
    2.0707   -1.9755    1.5770 H   0  0  0  0  0  0  0  0  0  0  0  0
    5.3882   -2.0989    5.0348 H   0  0  0  0  0  0  0  0  0  0  0  0
    3.6939   -1.7667    5.2147 H   0  0  0  0  0  0  0  0  0  0  0  0
    4.2133   -5.3940    4.6978 H   0  0  0  0  0  0  0  0  0  0  0  0
    5.2786   -5.1701    6.5086 H   0  0  0  0  0  0  0  0  0  0  0  0
    2.9668   -5.4732    6.7165 H   0  0  0  0  0  0  0  0  0  0  0  0
    3.5136   -3.4312    7.3477 H   0  0  0  0  0  0  0  0  0  0  0  0
  1  2  2  0
  1 45  1  0
  1 46  1  0
  2  3  1  0
  2  5  1  0
  3  4  1  0
  3 47  1  0
  3 48  1  0
  4 49  1  0
  5 10  1  0
  5  6  1  0
  5 50  1  6
  6  7  1  0
  6 51  1  0
  6 52  1  0
  7 20  1  0
  7  8  1  0
  7 53  1  6
  8  9  1  1
  8 10  1  0
  8 12  1  0
  9 54  1  0
 10 11  2  0
 12 13  2  0
 12 14  1  0
 14 43  1  0
 14 15  1  1
 14 16  1  0
 15 55  1  0
 15 56  1  0
 15 57  1  0
 17 16  1  1
 16 58  1  0
 16 59  1  0
 17 37  1  0
 17 40  1  0
 17 18  1  0
 18 19  1  0
 18 60  1  0
 18 61  1  0
 19 20  1  0
 19 62  1  0
 19 63  1  0
 20 21  1  6
 22 20  1  1
 21 64  1  0
 21 65  1  0
 21 66  1  0
 22 23  2  0
 22 24  1  0
 24 40  1  0
 24 25  1  0
 24 67  1  1
 25 30  1  0
 25 26  1  0
 25 68  1  1
 26 27  1  0
 26 69  1  0
 26 70  1  0
 27 28  1  0
 28 29  1  0
 28 30  1  0
 28 71  1  1
 29 72  1  0
 30 31  1  0
 30 73  1  6
 31 37  1  0
 31 32  1  0
 31 38  1  1
 32 33  1  0
 32 74  1  0
 32 75  1  0
 33 34  1  0
 33 35  1  0
 33 36  1  0
 34 76  1  0
 34 77  1  0
 34 78  1  0
 35 79  1  0
 35 80  1  0
 35 81  1  0
 36 37  1  0
 36 82  1  0
 36 83  1  0
 37 84  1  6
 38 39  1  0
 40 39  1  1
 39 85  1  0
 39 86  1  0
 40 41  1  0
 41 42  1  0
 41 43  1  0
 41 87  1  6
 42 88  1  0
 43 44  1  0
 43 89  1  1
 44 90  1  0
M  END
>  <i_m_ct_stereo_status>  (37) 
1

>  <s_m_source_file>  (37) 
/var/tmp/pbs.5075288.sched01/tmpsukb34hn/166582q88ej.sdf

>  <i_m_source_file_index>  (37) 
29

>  <i_lp_mmshare_version>  (37) 
48012

>  <i_f3d_flags>  (37) 
0

>  <s_epik_input>  (37) 
W09IXVtDSDJdQyg9W0NIMl0pW0NASF0oW0NIMl0xKUMoPU8pW0NAXShbT0hdKShDKD1PKVtDQF0oW0NIM10pKFtDSDJdMilbQ0BIXShbT0hdKVtDQEBIXTNbT0hdKVtDQEhdMVtDQEBdKFtDSDNdKShbQ0gyXVtDSDJdNClbUytdKFtPLV0pW0NASF0oW0NAQF0zNVtDQF0yNDYpW0NAQEhdN1tDQEhdKFtDQEhdKFtPSF0pT1tDSDJdNylbQ0BdOChPW0NIMl01KVtDQEBIXTZbQ0gyXUMoW0NIMl04KShbQ0gzXSlbQ0gzXQ==

>  <s_epik_cmdline>  (37) 
J2VwaWtfcHl0aG9uJywgJy1waHQnLCAnMi4wJywgJy1waCcsICc3LjAnLCAnLXRuJywgJzgnLCAnLW1hJywgJzIwMCcsICctaW1hZScsICc8aW5maWxlLm1hZT4nLCAnLW9tYWUnLCAnPG91dGZpbGUubWFlPic=

>  <r_lp_tautomer_probability>  (37) 
1

>  <r_epik_Ionization_Penalty>  (37) 
1.77426e-06

>  <r_epik_Ionization_Penalty_Charging>  (37) 
0

>  <r_epik_Ionization_Penalty_Neutral>  (37) 
1.77426e-06

>  <r_epik_State_Penalty>  (37) 
-0

>  <r_epik_Charging_Adjusted_Penalty>  (37) 
0

>  <i_epik_Tot_Q>  (37) 
0

>  <i_epik_Tot_abs_Q>  (37) 
2

>  <s_epik_Chemistry_Notes>  (37) 
This compound contains an acetal/aminal-like group ( X-CH(R)-Y where X, Y are N, S, or O) that may be acid/base labile, releasing an aldehyde.

>  <s_lp_Force_Field>  (37) 
OPLS3e

>  <r_lp_Energy>  (37) 
149.764

>  <b_lp_Chiralities_Consistent>  (37) 
1

>  <s_lp_Variant>  (37) 
50:0-1

>  <s_i_glide_gridfile>  (37) 
pfpi4k_grid

>  <i_i_glide_lignum>  (37) 
29

>  <i_i_glide_rotatable_bonds>  (37) 
7

>  <r_i_docking_score>  (37) 
-3.17287

>  <r_i_glide_ligand_efficiency>  (37) 
-0.0721106

>  <r_i_glide_ligand_efficiency_sa>  (37) 
-0.254576

>  <r_i_glide_ligand_efficiency_ln>  (37) 
-0.663198

>  <r_i_glide_gscore>  (37) 
-3.17287

>  <r_i_glide_lipo>  (37) 
-0.380084

>  <r_i_glide_hbond>  (37) 
0

>  <r_i_glide_metal>  (37) 
-0

>  <r_i_glide_rewards>  (37) 
-0.15097

>  <r_i_glide_evdw>  (37) 
-23.6434

>  <r_i_glide_ecoul>  (37) 
-10.3347

>  <r_i_glide_erotb>  (37) 
0.105055

>  <r_i_glide_esite>  (37) 
-0.0144895

>  <r_i_glide_emodel>  (37) 
-36.94

>  <r_i_glide_energy>  (37) 
-33.9781

>  <r_i_glide_einternal>  (37) 
5.69149

>  <r_i_glide_intrahb_reward>  (37) 
-0

>  <i_i_glide_confnum>  (37) 
5

>  <i_i_glide_posenum>  (37) 
12

>  <r_i_glide_eff_state_penalty>  (37) 
0

>  <ligand_id>  (37) 
50

>  <original_smiles>  (37) 
C=C(CO)C1CC2C(O)(C1=O)C(=O)C1(C)CC34CCC2(C)[S+]([O-])C2C5COC(O)C5C5(CC(C)(C)CC53)OCC24C(O)C1O

>  <smiles>  (37) 
[H]OC([H])([H])C(=C([H])[H])C1([H])C(=O)C2(O[H])C(=O)C3(C([H])([H])[H])C([H])([H])C45C([H])([H])C([H])([H])C(C([H])([H])[H])(S(=O)C6([H])C7([H])C([H])([H])OC([H])(O[H])C7([H])C7(OC([H])([H])C64C([H])(O[H])C3([H])O[H])C([H])([H])C(C([H])([H])[H])(C([H])([H])[H])C([H])([H])C75[H])C2([H])C1([H])[H]

$$$$
50:0:2
     RDKit          3D

 90 97  0  0  1  0  0  0  0  0999 V2000
    2.8438   -3.4365   -1.8553 C   0  0  0  0  0  0  0  0  0  0  0  0
    3.5903   -3.7767   -0.7811 C   0  0  0  0  0  0  0  0  0  0  0  0
    5.1041   -3.9979   -0.8744 C   0  0  0  0  0  0  0  0  0  0  0  0
    5.6539   -3.5506   -2.1007 O   0  0  0  0  0  0  0  0  0  0  0  0
    2.9189   -3.9168    0.5896 C   0  0  2  0  0  0  0  0  0  0  0  0
    3.7957   -3.6742    1.8371 C   0  0  0  0  0  0  0  0  0  0  0  0
    3.1391   -4.4911    2.9714 C   0  0  1  0  0  0  0  0  0  0  0  0
    2.7369   -5.8437    2.2202 C   0  0  2  0  0  0  0  0  0  0  0  0
    3.8015   -6.6535    1.7494 O   0  0  0  0  0  0  0  0  0  0  0  0
    2.2604   -5.2695    0.8706 C   0  0  0  0  0  0  0  0  0  0  0  0
    1.4387   -5.8025    0.1199 O   0  0  0  0  0  0  0  0  0  0  0  0
    1.5522   -6.6523    2.8879 C   0  0  0  0  0  0  0  0  0  0  0  0
    0.4382   -6.1323    2.8470 O   0  0  0  0  0  0  0  0  0  0  0  0
    1.6526   -8.0260    3.6751 C   0  0  2  0  0  0  0  0  0  0  0  0
    0.5413   -8.9192    3.0558 C   0  0  0  0  0  0  0  0  0  0  0  0
    1.3543   -7.8699    5.2123 C   0  0  0  0  0  0  0  0  0  0  0  0
    2.3843   -7.0700    6.1111 C   0  0  1  0  0  0  0  0  0  0  0  0
    1.9686   -5.5545    5.8412 C   0  0  0  0  0  0  0  0  0  0  0  0
    2.9214   -4.3836    5.6575 C   0  0  0  0  0  0  0  0  0  0  0  0
    3.8220   -4.2701    4.4186 C   0  0  2  0  0  0  0  0  0  0  0  0
    4.3296   -2.8080    4.5046 C   0  0  0  0  0  0  0  0  0  0  0  0
    5.3994   -5.1847    4.7984 S   0  0  0  0  0  0  0  0  0  0  0  0
    5.9675   -5.7610    3.5021 O   0  0  0  0  0  0  0  0  0  0  0  0
    5.0478   -6.5302    6.0752 C   0  0  1  0  0  0  0  0  0  0  0  0
    5.3081   -6.1205    7.5505 C   0  0  1  0  0  0  0  0  0  0  0  0
    6.0850   -4.8647    7.9193 C   0  0  0  0  0  0  0  0  0  0  0  0
    5.8929   -4.7715    9.3362 O   0  0  0  0  0  0  0  0  0  0  0  0
    4.9343   -5.7026    9.7764 C   0  0  1  0  0  0  0  0  0  0  0  0
    4.1246   -5.1487   10.7903 O   0  0  0  0  0  0  0  0  0  0  0  0
    4.1295   -6.0767    8.5204 C   0  0  2  0  0  0  0  0  0  0  0  0
    3.3068   -7.4051    8.5575 C   0  0  1  0  0  0  0  0  0  0  0  0
    2.6789   -7.7990    9.9089 C   0  0  0  0  0  0  0  0  0  0  0  0
    1.5130   -8.7650    9.6054 C   0  0  0  0  0  0  0  0  0  0  0  0
    1.9045  -10.2257    9.9040 C   0  0  0  0  0  0  0  0  0  0  0  0
    0.2783   -8.3923   10.4415 C   0  0  0  0  0  0  0  0  0  0  0  0
    1.2524   -8.5824    8.0926 C   0  0  0  0  0  0  0  0  0  0  0  0
    2.0735   -7.3448    7.6521 C   0  0  2  0  0  0  0  0  0  0  0  0
    4.1443   -8.4885    8.1613 O   0  0  0  0  0  0  0  0  0  0  0  0
    4.1889   -8.7799    6.7602 C   0  0  0  0  0  0  0  0  0  0  0  0
    3.8874   -7.5639    5.8173 C   0  0  1  0  0  0  0  0  0  0  0  0
    4.0999   -8.0948    4.3706 C   0  0  1  0  0  0  0  0  0  0  0  0
    5.3249   -8.7712    4.1535 O   0  0  0  0  0  0  0  0  0  0  0  0
    2.9791   -8.8126    3.6051 C   0  0  1  0  0  0  0  0  0  0  0  0
    2.8567  -10.1387    4.0892 O   0  0  0  0  0  0  0  0  0  0  0  0
    3.2616   -3.3286   -2.8439 H   0  0  0  0  0  0  0  0  0  0  0  0
    1.7832   -3.2686   -1.7681 H   0  0  0  0  0  0  0  0  0  0  0  0
    5.6396   -3.4273   -0.1089 H   0  0  0  0  0  0  0  0  0  0  0  0
    5.3200   -5.0549   -0.7204 H   0  0  0  0  0  0  0  0  0  0  0  0
    5.2754   -4.0722   -2.7990 H   0  0  0  0  0  0  0  0  0  0  0  0
    2.1174   -3.1826    0.6037 H   0  0  0  0  0  0  0  0  0  0  0  0
    4.8218   -4.0406    1.7337 H   0  0  0  0  0  0  0  0  0  0  0  0
    3.8386   -2.6036    2.0234 H   0  0  0  0  0  0  0  0  0  0  0  0
    2.1754   -3.9921    3.1275 H   0  0  0  0  0  0  0  0  0  0  0  0
    4.3144   -6.9854    2.4703 H   0  0  0  0  0  0  0  0  0  0  0  0
    0.4044   -9.8528    3.6018 H   0  0  0  0  0  0  0  0  0  0  0  0
    0.7972   -9.1874    2.0301 H   0  0  0  0  0  0  0  0  0  0  0  0
   -0.4410   -8.4470    3.0364 H   0  0  0  0  0  0  0  0  0  0  0  0
    0.3523   -7.4453    5.3391 H   0  0  0  0  0  0  0  0  0  0  0  0
    1.2379   -8.8825    5.5844 H   0  0  0  0  0  0  0  0  0  0  0  0
    1.2311   -5.4509    5.0595 H   0  0  0  0  0  0  0  0  0  0  0  0
    1.3276   -5.2043    6.6457 H   0  0  0  0  0  0  0  0  0  0  0  0
    2.2655   -3.5060    5.6531 H   0  0  0  0  0  0  0  0  0  0  0  0
    3.5196   -4.2222    6.5449 H   0  0  0  0  0  0  0  0  0  0  0  0
    3.5499   -2.0810    4.2630 H   0  0  0  0  0  0  0  0  0  0  0  0
    5.1718   -2.6266    3.8370 H   0  0  0  0  0  0  0  0  0  0  0  0
    4.6903   -2.5573    5.5049 H   0  0  0  0  0  0  0  0  0  0  0  0
    5.9515   -7.1007    5.8805 H   0  0  0  0  0  0  0  0  0  0  0  0
    5.9486   -6.9312    7.9221 H   0  0  0  0  0  0  0  0  0  0  0  0
    7.1400   -4.9488    7.6788 H   0  0  0  0  0  0  0  0  0  0  0  0
    5.6853   -3.9786    7.4360 H   0  0  0  0  0  0  0  0  0  0  0  0
    5.4564   -6.5759   10.1915 H   0  0  0  0  0  0  0  0  0  0  0  0
    4.6759   -4.9864   11.5330 H   0  0  0  0  0  0  0  0  0  0  0  0
    3.4627   -5.2288    8.3324 H   0  0  0  0  0  0  0  0  0  0  0  0
    3.4135   -8.2308   10.5898 H   0  0  0  0  0  0  0  0  0  0  0  0
    2.2875   -6.9038   10.3972 H   0  0  0  0  0  0  0  0  0  0  0  0
    1.0919  -10.9032    9.6427 H   0  0  0  0  0  0  0  0  0  0  0  0
    2.1253  -10.3730   10.9609 H   0  0  0  0  0  0  0  0  0  0  0  0
    2.7825  -10.5317    9.3301 H   0  0  0  0  0  0  0  0  0  0  0  0
   -0.5650   -9.0474   10.2158 H   0  0  0  0  0  0  0  0  0  0  0  0
   -0.0435   -7.3688   10.2551 H   0  0  0  0  0  0  0  0  0  0  0  0
    0.4896   -8.4885   11.5061 H   0  0  0  0  0  0  0  0  0  0  0  0
    1.5690   -9.4932    7.5800 H   0  0  0  0  0  0  0  0  0  0  0  0
    0.1929   -8.4454    7.8691 H   0  0  0  0  0  0  0  0  0  0  0  0
    1.4824   -6.5349    8.0699 H   0  0  0  0  0  0  0  0  0  0  0  0
    5.1922   -9.1783    6.5839 H   0  0  0  0  0  0  0  0  0  0  0  0
    3.5093   -9.6090    6.5532 H   0  0  0  0  0  0  0  0  0  0  0  0
    4.1975   -7.1866    3.8577 H   0  0  0  0  0  0  0  0  0  0  0  0
    5.3899   -9.0147    3.2412 H   0  0  0  0  0  0  0  0  0  0  0  0
    3.2545   -8.9277    2.5515 H   0  0  0  0  0  0  0  0  0  0  0  0
    2.5927  -10.1102    4.9995 H   0  0  0  0  0  0  0  0  0  0  0  0
  1  2  2  0
  1 45  1  0
  1 46  1  0
  2  3  1  0
  2  5  1  0
  3  4  1  0
  3 47  1  0
  3 48  1  0
  4 49  1  0
  5 10  1  0
  5  6  1  0
  5 50  1  6
  6  7  1  0
  6 51  1  0
  6 52  1  0
  7 20  1  0
  7  8  1  0
  7 53  1  1
  8  9  1  6
  8 10  1  0
  8 12  1  0
  9 54  1  0
 10 11  2  0
 12 13  2  0
 12 14  1  0
 14 43  1  0
 14 15  1  6
 14 16  1  0
 15 55  1  0
 15 56  1  0
 15 57  1  0
 17 16  1  6
 16 58  1  0
 16 59  1  0
 17 37  1  0
 17 40  1  0
 17 18  1  0
 18 19  1  0
 18 60  1  0
 18 61  1  0
 19 20  1  0
 19 62  1  0
 19 63  1  0
 20 21  1  6
 22 20  1  6
 21 64  1  0
 21 65  1  0
 21 66  1  0
 22 23  2  0
 22 24  1  0
 24 40  1  0
 24 25  1  0
 24 67  1  6
 25 30  1  0
 25 26  1  0
 25 68  1  1
 26 27  1  0
 26 69  1  0
 26 70  1  0
 27 28  1  0
 28 29  1  0
 28 30  1  0
 28 71  1  1
 29 72  1  0
 30 31  1  0
 30 73  1  6
 31 37  1  0
 31 32  1  0
 31 38  1  6
 32 33  1  0
 32 74  1  0
 32 75  1  0
 33 34  1  0
 33 35  1  0
 33 36  1  0
 34 76  1  0
 34 77  1  0
 34 78  1  0
 35 79  1  0
 35 80  1  0
 35 81  1  0
 36 37  1  0
 36 82  1  0
 36 83  1  0
 37 84  1  1
 38 39  1  0
 40 39  1  1
 39 85  1  0
 39 86  1  0
 40 41  1  0
 41 42  1  0
 41 43  1  0
 41 87  1  6
 42 88  1  0
 43 44  1  0
 43 89  1  6
 44 90  1  0
M  END
>  <i_m_ct_stereo_status>  (38) 
1

>  <s_m_source_file>  (38) 
/var/tmp/pbs.5075288.sched01/tmpsukb34hn/166582q88ej.sdf

>  <i_m_source_file_index>  (38) 
29

>  <i_lp_mmshare_version>  (38) 
48012

>  <i_f3d_flags>  (38) 
0

>  <s_epik_input>  (38) 
W09IXVtDSDJdQyg9W0NIMl0pW0NASF0oW0NIMl0xKUMoPU8pW0NAXShbT0hdKShDKD1PKVtDQF0oW0NIM10pKFtDSDJdMilbQ0BIXShbT0hdKVtDQEBIXTNbT0hdKVtDQEhdMVtDQEBdKFtDSDNdKShbQ0gyXVtDSDJdNClbUytdKFtPLV0pW0NASF0oW0NAQF0zNVtDQF0yNDYpW0NAQEhdN1tDQEhdKFtDQEhdKFtPSF0pT1tDSDJdNylbQ0BdOChPW0NIMl01KVtDQEBIXTZbQ0gyXUMoW0NIMl04KShbQ0gzXSlbQ0gzXQ==

>  <s_epik_cmdline>  (38) 
J2VwaWtfcHl0aG9uJywgJy1waHQnLCAnMi4wJywgJy1waCcsICc3LjAnLCAnLXRuJywgJzgnLCAnLW1hJywgJzIwMCcsICctaW1hZScsICc8aW5maWxlLm1hZT4nLCAnLW9tYWUnLCAnPG91dGZpbGUubWFlPic=

>  <r_lp_tautomer_probability>  (38) 
1

>  <r_epik_Ionization_Penalty>  (38) 
1.77426e-06

>  <r_epik_Ionization_Penalty_Charging>  (38) 
0

>  <r_epik_Ionization_Penalty_Neutral>  (38) 
1.77426e-06

>  <r_epik_State_Penalty>  (38) 
-0

>  <r_epik_Charging_Adjusted_Penalty>  (38) 
0

>  <i_epik_Tot_Q>  (38) 
0

>  <i_epik_Tot_abs_Q>  (38) 
2

>  <s_epik_Chemistry_Notes>  (38) 
This compound contains an acetal/aminal-like group ( X-CH(R)-Y where X, Y are N, S, or O) that may be acid/base labile, releasing an aldehyde.

>  <s_lp_Force_Field>  (38) 
OPLS3e

>  <r_lp_Energy>  (38) 
149.764

>  <b_lp_Chiralities_Consistent>  (38) 
1

>  <s_lp_Variant>  (38) 
50:0-1

>  <s_i_glide_gridfile>  (38) 
pfpi4k_grid

>  <i_i_glide_lignum>  (38) 
29

>  <i_i_glide_rotatable_bonds>  (38) 
7

>  <r_i_docking_score>  (38) 
-2.69427

>  <r_i_glide_ligand_efficiency>  (38) 
-0.0612335

>  <r_i_glide_ligand_efficiency_sa>  (38) 
-0.216176

>  <r_i_glide_ligand_efficiency_ln>  (38) 
-0.563162

>  <r_i_glide_gscore>  (38) 
-2.69427

>  <r_i_glide_lipo>  (38) 
-0.13998

>  <r_i_glide_hbond>  (38) 
-0.267517

>  <r_i_glide_metal>  (38) 
-0

>  <r_i_glide_rewards>  (38) 
-0.500338

>  <r_i_glide_evdw>  (38) 
-22.8543

>  <r_i_glide_ecoul>  (38) 
-4.53167

>  <r_i_glide_erotb>  (38) 
0.105055

>  <r_i_glide_esite>  (38) 
-0.0690288

>  <r_i_glide_emodel>  (38) 
-35.5909

>  <r_i_glide_energy>  (38) 
-27.386

>  <r_i_glide_einternal>  (38) 
4.9256

>  <r_i_glide_intrahb_reward>  (38) 
-0.5

>  <i_i_glide_confnum>  (38) 
4

>  <i_i_glide_posenum>  (38) 
10

>  <r_i_glide_eff_state_penalty>  (38) 
0

>  <ligand_id>  (38) 
50

>  <original_smiles>  (38) 
C=C(CO)C1CC2C(O)(C1=O)C(=O)C1(C)CC34CCC2(C)[S+]([O-])C2C5COC(O)C5C5(CC(C)(C)CC53)OCC24C(O)C1O

>  <smiles>  (38) 
[H]OC([H])([H])C(=C([H])[H])C1([H])C(=O)C2(O[H])C(=O)C3(C([H])([H])[H])C([H])([H])C45C([H])([H])C([H])([H])C(C([H])([H])[H])(S(=O)C6([H])C7([H])C([H])([H])OC([H])(O[H])C7([H])C7(OC([H])([H])C64C([H])(O[H])C3([H])O[H])C([H])([H])C(C([H])([H])[H])(C([H])([H])[H])C([H])([H])C75[H])C2([H])C1([H])[H]

$$$$
57:4:0
     RDKit          3D

122131  0  0  1  0  0  0  0  0999 V2000
   -1.6752   -3.1992    6.5962 C   0  0  0  0  0  0  0  0  0  0  0  0
   -1.9351   -1.9960    6.0524 C   0  0  0  0  0  0  0  0  0  0  0  0
   -1.1145   -0.7061    6.1959 C   0  0  1  0  0  0  0  0  0  0  0  0
   -2.1822    0.3681    6.4075 C   0  0  0  0  0  0  0  0  0  0  0  0
   -0.5214   -0.8201    7.5159 O   0  0  0  0  0  0  0  0  0  0  0  0
    0.3949    0.1162    8.0004 C   0  0  2  0  0  0  0  0  0  0  0  0
   -0.2118    1.1694    8.9157 C   0  0  0  0  0  0  0  0  0  0  0  0
    0.5411    2.0445    9.6156 C   0  0  0  0  0  0  0  0  0  0  0  0
    2.0024    2.0798    9.6365 C   0  0  0  0  0  0  0  0  0  0  0  0
    2.9049    1.8852    8.6430 C   0  0  0  0  0  0  0  0  0  0  0  0
    2.7654    1.7434    7.1004 C   0  0  2  0  0  0  0  0  0  0  0  0
    3.5100    2.9257    6.8379 O   0  0  0  0  0  0  0  0  0  0  0  0
    1.3380    2.0035    6.8289 C   0  0  1  0  0  0  0  0  0  0  0  0
    0.8308    0.7225    6.8686 O   0  0  0  0  0  0  0  0  0  0  0  0
    0.9134    3.4049    6.3313 C   0  0  2  0  0  0  0  0  0  0  0  0
   -0.3526    4.2970    6.5375 C   0  0  0  0  0  0  0  0  0  0  0  0
   -1.7278    3.7769    6.9819 C   0  0  0  0  0  0  0  0  0  0  0  0
   -0.1031    5.5981    7.3322 C   0  0  0  0  0  0  0  0  0  0  0  0
   -0.2489    4.5402    5.0021 C   0  0  0  0  0  0  0  0  0  0  0  0
   -0.9390    5.1829    4.2161 O   0  0  0  0  0  0  0  0  0  0  0  0
    1.0695    3.7362    4.8240 C   0  0  1  0  0  0  0  0  0  0  0  0
    2.0287    4.7657    4.6139 O   0  0  0  0  0  0  0  0  0  0  0  0
    1.1159    2.6013    3.6609 C   0  0  1  0  0  0  0  0  0  0  0  0
    1.5837    3.2896    2.4929 O   0  0  0  0  0  0  0  0  0  0  0  0
    1.9268    1.2302    3.7895 C   0  0  2  0  0  0  0  0  0  0  0  0
    0.5634    0.3706    3.8235 C   0  0  1  0  0  0  0  0  0  0  0  0
    0.6222   -0.5465    2.7408 O   0  0  0  0  0  0  0  0  0  0  0  0
   -0.1059   -0.7151    4.8903 C   0  0  1  0  0  0  0  0  0  0  0  0
    0.8207   -1.9047    5.1875 C   0  0  0  0  0  0  0  0  0  0  0  0
    2.2705   -1.8154    4.8571 C   0  0  0  0  0  0  0  0  0  0  0  0
    3.2720   -1.0975    5.7951 C   0  0  1  0  0  0  0  0  0  0  0  0
    4.9150   -1.8184    5.1833 S   0  0  0  0  0  0  0  0  0  0  0  0
    4.7036   -3.1127    4.3942 O   0  0  0  0  0  0  0  0  0  0  0  0
    5.5279   -0.5588    3.9679 C   0  0  1  0  0  0  0  0  0  0  0  0
    6.6323    0.3284    4.5946 C   0  0  0  0  0  0  0  0  0  0  0  0
    6.2057   -1.1367    2.8640 O   0  0  0  0  0  0  0  0  0  0  0  0
    4.3233    0.2204    3.4253 C   0  0  1  0  0  0  0  0  0  0  0  0
    3.6367   -0.5430    2.3985 O   0  0  0  0  0  0  0  0  0  0  0  0
    4.0522   -0.5940    1.1093 C   0  0  0  0  0  0  0  0  0  0  0  0
    4.9664    0.0735    0.6367 O   0  0  0  0  0  0  0  0  0  0  0  0
    3.3549   -1.6572    0.2843 C   0  0  0  0  0  0  0  0  0  0  0  0
    3.8142   -3.0424    0.7026 C   0  0  0  0  0  0  0  0  0  0  0  0
    4.8867   -3.6422    0.1443 C   0  0  0  0  0  0  0  0  0  0  0  0
    5.3305   -4.9101    0.4490 O   0  0  0  0  0  0  0  0  0  0  0  0
    4.6811   -5.7135    1.4182 C   0  0  1  0  0  0  0  0  0  0  0  0
    4.1707   -6.9799    0.7026 C   0  0  0  0  0  0  0  0  0  0  0  0
    5.5636   -6.0950    2.4360 O   0  0  0  0  0  0  0  0  0  0  0  0
    6.8047   -6.6849    2.0445 C   0  0  0  0  0  0  0  0  0  0  0  0
    3.4833   -5.0147    2.0568 C   0  0  0  0  0  0  0  0  0  0  0  0
    3.0872   -3.7788    1.7121 C   0  0  0  0  0  0  0  0  0  0  0  0
    3.3839    0.9750    4.5031 C   0  0  1  0  0  0  0  0  0  0  0  0
    3.9122    2.2624    4.4596 O   0  0  0  0  0  0  0  0  0  0  0  0
    3.4255    0.5083    6.1019 C   0  0  1  0  0  0  0  0  0  0  0  0
    4.6128    0.3155    7.1292 C   0  0  0  0  0  0  0  0  0  0  0  0
    4.3279   -0.5798    8.4261 C   0  0  0  0  0  0  0  0  0  0  0  0
    2.9257   -0.9963    9.0889 C   0  0  2  0  0  0  0  0  0  0  0  0
    3.3017   -1.6200   10.4271 C   0  0  0  0  0  0  0  0  0  0  0  0
    2.0220   -1.8226    8.3409 O   0  0  0  0  0  0  0  0  0  0  0  0
    1.3936   -0.6920    8.9066 C   0  0  2  0  0  0  0  0  0  0  0  0
   -0.1408    1.6674    3.3119 C   0  0  0  0  0  0  0  0  0  0  0  0
   -1.4710    1.9740    3.9281 C   0  0  0  0  0  0  0  0  0  0  0  0
   -0.5508    1.6473    1.8404 C   0  0  0  0  0  0  0  0  0  0  0  0
   -0.7913   -3.3706    7.1829 H   0  0  0  0  0  0  0  0  0  0  0  0
   -2.3492   -4.0334    6.4762 H   0  0  0  0  0  0  0  0  0  0  0  0
   -2.7994   -1.9109    5.4072 H   0  0  0  0  0  0  0  0  0  0  0  0
   -2.7720    0.3806    5.5219 H   0  0  0  0  0  0  0  0  0  0  0  0
   -1.7537    1.3193    6.6813 H   0  0  0  0  0  0  0  0  0  0  0  0
   -2.9064    0.1632    7.1752 H   0  0  0  0  0  0  0  0  0  0  0  0
   -1.2823    1.2158    9.0266 H   0  0  0  0  0  0  0  0  0  0  0  0
    0.0323    2.7702   10.2311 H   0  0  0  0  0  0  0  0  0  0  0  0
    2.4432    2.2334   10.6034 H   0  0  0  0  0  0  0  0  0  0  0  0
    3.9250    1.9900    8.9831 H   0  0  0  0  0  0  0  0  0  0  0  0
    3.7295    2.9388    5.9000 H   0  0  0  0  0  0  0  0  0  0  0  0
    1.2367    1.6268    5.8656 H   0  0  0  0  0  0  0  0  0  0  0  0
    1.5927    4.0907    6.8289 H   0  0  0  0  0  0  0  0  0  0  0  0
   -1.6197    3.1062    7.8248 H   0  0  0  0  0  0  0  0  0  0  0  0
   -2.3247    3.3337    6.1882 H   0  0  0  0  0  0  0  0  0  0  0  0
   -2.3714    4.5508    7.3828 H   0  0  0  0  0  0  0  0  0  0  0  0
    0.0807    5.3530    8.3783 H   0  0  0  0  0  0  0  0  0  0  0  0
   -0.9457    6.2890    7.3080 H   0  0  0  0  0  0  0  0  0  0  0  0
    0.7734    6.1468    6.9827 H   0  0  0  0  0  0  0  0  0  0  0  0
    2.8889    4.3986    4.4788 H   0  0  0  0  0  0  0  0  0  0  0  0
    0.8449    3.6455    1.9938 H   0  0  0  0  0  0  0  0  0  0  0  0
    2.1836    1.1800    2.7284 H   0  0  0  0  0  0  0  0  0  0  0  0
    0.8264   -0.0377    1.9677 H   0  0  0  0  0  0  0  0  0  0  0  0
   -0.8506   -1.1280    4.1996 H   0  0  0  0  0  0  0  0  0  0  0  0
    0.8050   -2.2075    6.2199 H   0  0  0  0  0  0  0  0  0  0  0  0
    0.4220   -2.7540    4.6312 H   0  0  0  0  0  0  0  0  0  0  0  0
    2.5254   -2.8709    4.9213 H   0  0  0  0  0  0  0  0  0  0  0  0
    2.3895   -1.6491    3.8154 H   0  0  0  0  0  0  0  0  0  0  0  0
    3.2430   -1.7177    6.6471 H   0  0  0  0  0  0  0  0  0  0  0  0
    7.2630    0.7748    3.8279 H   0  0  0  0  0  0  0  0  0  0  0  0
    7.2835   -0.2124    5.2851 H   0  0  0  0  0  0  0  0  0  0  0  0
    6.2356    1.1718    5.1467 H   0  0  0  0  0  0  0  0  0  0  0  0
    6.7931   -0.5148    2.4632 H   0  0  0  0  0  0  0  0  0  0  0  0
    4.8531    0.9323    2.8597 H   0  0  0  0  0  0  0  0  0  0  0  0
    2.2890   -1.5463    0.4739 H   0  0  0  0  0  0  0  0  0  0  0  0
    3.5557   -1.4968   -0.7776 H   0  0  0  0  0  0  0  0  0  0  0  0
    5.4885   -3.1929   -0.6290 H   0  0  0  0  0  0  0  0  0  0  0  0
    4.9579   -7.5069    0.1603 H   0  0  0  0  0  0  0  0  0  0  0  0
    3.4323   -6.6571   -0.0290 H   0  0  0  0  0  0  0  0  0  0  0  0
    3.7146   -7.6694    1.4201 H   0  0  0  0  0  0  0  0  0  0  0  0
    7.3667   -6.9725    2.9344 H   0  0  0  0  0  0  0  0  0  0  0  0
    7.4133   -5.9851    1.4690 H   0  0  0  0  0  0  0  0  0  0  0  0
    6.6913   -7.6009    1.4648 H   0  0  0  0  0  0  0  0  0  0  0  0
    2.9365   -5.5717    2.8062 H   0  0  0  0  0  0  0  0  0  0  0  0
    2.2112   -3.3529    2.1770 H   0  0  0  0  0  0  0  0  0  0  0  0
    3.1597    2.8181    4.2833 H   0  0  0  0  0  0  0  0  0  0  0  0
    5.5418   -0.0737    6.7601 H   0  0  0  0  0  0  0  0  0  0  0  0
    5.0817    1.2565    7.4053 H   0  0  0  0  0  0  0  0  0  0  0  0
    4.8737   -1.5125    8.2785 H   0  0  0  0  0  0  0  0  0  0  0  0
    4.9026   -0.0980    9.2152 H   0  0  0  0  0  0  0  0  0  0  0  0
    3.6892   -0.8659   11.1111 H   0  0  0  0  0  0  0  0  0  0  0  0
    4.0399   -2.4146   10.3035 H   0  0  0  0  0  0  0  0  0  0  0  0
    2.4231   -2.0684   10.8921 H   0  0  0  0  0  0  0  0  0  0  0  0
    0.8375   -0.9697    9.8027 H   0  0  0  0  0  0  0  0  0  0  0  0
   -2.1822    1.1702    3.7502 H   0  0  0  0  0  0  0  0  0  0  0  0
   -1.9350    2.8994    3.5742 H   0  0  0  0  0  0  0  0  0  0  0  0
   -1.2700    2.0975    4.9635 H   0  0  0  0  0  0  0  0  0  0  0  0
   -1.3268    0.9114    1.5979 H   0  0  0  0  0  0  0  0  0  0  0  0
    0.2737    1.5036    1.1324 H   0  0  0  0  0  0  0  0  0  0  0  0
   -0.9910    2.6218    1.7068 H   0  0  0  0  0  0  0  0  0  0  0  0
  1  2  2  0
  1 63  1  0
  1 64  1  0
  2  3  1  0
  2 65  1  0
  3 28  1  0
  3  4  1  1
  3  5  1  0
  4 66  1  0
  4 67  1  0
  4 68  1  0
  6  5  1  6
  6 14  1  0
  6 59  1  0
  6  7  1  0
  7  8  2  3
  7 69  1  0
  8  9  1  0
  8 70  1  0
  9 10  2  3
  9 71  1  0
 10 11  1  0
 10 72  1  0
 11 53  1  0
 11 12  1  6
 11 13  1  0
 12 73  1  0
 13 14  1  0
 13 15  1  0
 13 74  1  1
 15 21  1  0
 15 16  1  0
 15 75  1  1
 16 17  1  0
 16 18  1  0
 16 19  1  0
 17 76  1  0
 17 77  1  0
 17 78  1  0
 18 79  1  0
 18 80  1  0
 18 81  1  0
 19 20  2  0
 19 21  1  0
 21 22  1  1
 21 23  1  0
 22 82  1  0
 23 60  1  0
 23 24  1  6
 23 25  1  0
 24 83  1  0
 25 51  1  0
 25 26  1  0
 25 84  1  6
 26 27  1  6
 26 28  1  0
 26 60  1  0
 27 85  1  0
 28 29  1  0
 28 86  1  6
 29 30  1  0
 29 87  1  0
 29 88  1  0
 30 31  1  0
 30 89  1  0
 30 90  1  0
 31 53  1  0
 31 32  1  0
 31 91  1  1
 32 33  2  0
 32 34  1  6
 34 35  1  0
 34 36  1  6
 34 37  1  0
 35 92  1  0
 35 93  1  0
 35 94  1  0
 36 95  1  0
 37 38  1  0
 37 51  1  0
 37 96  1  6
 38 39  1  0
 39 40  2  0
 39 41  1  0
 41 42  1  0
 41 97  1  0
 41 98  1  0
 42 50  1  0
 42 43  2  0
 43 44  1  0
 43 99  1  0
 44 45  1  0
 45 46  1  0
 45 47  1  1
 45 49  1  0
 46100  1  0
 46101  1  0
 46102  1  0
 47 48  1  0
 48103  1  0
 48104  1  0
 48105  1  0
 49 50  2  0
 49106  1  0
 50107  1  0
 51 52  1  1
 51 53  1  0
 52108  1  0
 53 54  1  1
 54 55  1  0
 54109  1  0
 54110  1  0
 55 56  1  0
 55111  1  0
 55112  1  0
 56 59  1  0
 56 57  1  1
 56 58  1  0
 57113  1  0
 57114  1  0
 57115  1  0
 58 59  1  0
 59116  1  1
 60 61  1  0
 60 62  1  0
 61117  1  0
 61118  1  0
 61119  1  0
 62120  1  0
 62121  1  0
 62122  1  0
M  END
>  <i_m_ct_stereo_status>  (39) 
1

>  <s_m_source_file>  (39) 
/var/tmp/pbs.5075288.sched01/tmpsukb34hn/166582q88ej.sdf

>  <i_m_source_file_index>  (39) 
45

>  <i_lp_mmshare_version>  (39) 
48012

>  <i_f3d_flags>  (39) 
0

>  <s_epik_input>  (39) 
W0NAXTEyM1tDQEBIXTRDKE80KShbQ0gzXSlbQ0gyXVtDSDJdW0NAXTU2W0NAXShbT0hdKShcW0NIXT1bQ0hdL1tDSF09W0NIXVwyKVtDQEBIXShPMylbQ0BIXTdbQ0BdKFtPSF0pKEMoPU8pQzcoW0NIM10pW0NIM10pW0NAQF04KFtPSF0pW0NAQEhdOVtDQF0oW09IXSkoQzgoW0NIM10pW0NIM10pW0NASF0oW0NAQF0oTzEpKFtDSDNdKVtDSF09W0NIMl0pW0NIMl1bQ0gyXVtDQEhdNVtTK10oW08tXSlbQ0BAXShbQ0gzXSkoW09IXSlbQ0BIXShbQ0BdNjlbT0hdKU9DKD1PKVtDSDJdQyhbQ0hdPVtDSF0xKT1bQ0hdT1tDQEBdMShbQ0gzXSlPW0NIM10=

>  <s_epik_cmdline>  (39) 
J2VwaWtfcHl0aG9uJywgJy1waHQnLCAnMi4wJywgJy1waCcsICc3LjAnLCAnLXRuJywgJzgnLCAnLW1hJywgJzIwMCcsICctaW1hZScsICc8aW5maWxlLm1hZT4nLCAnLW9tYWUnLCAnPG91dGZpbGUubWFlPic=

>  <r_lp_tautomer_probability>  (39) 
1

>  <r_epik_Ionization_Penalty>  (39) 
7.38595e-07

>  <r_epik_Ionization_Penalty_Charging>  (39) 
0

>  <r_epik_Ionization_Penalty_Neutral>  (39) 
7.38595e-07

>  <r_epik_State_Penalty>  (39) 
-0

>  <r_epik_Charging_Adjusted_Penalty>  (39) 
0

>  <i_epik_Tot_Q>  (39) 
0

>  <i_epik_Tot_abs_Q>  (39) 
2

>  <s_epik_Chemistry_Notes>  (39) 
This compound has an ester and may undergo hydrolysis at high or low pH.

>  <s_lp_Force_Field>  (39) 
OPLS3e

>  <r_lp_Energy>  (39) 
465.114

>  <b_lp_Chiralities_Consistent>  (39) 
1

>  <s_lp_Variant>  (39) 
57:0-5

>  <s_i_glide_gridfile>  (39) 
pfpi4k_grid

>  <i_i_glide_lignum>  (39) 
45

>  <i_i_glide_rotatable_bonds>  (39) 
12

>  <r_i_docking_score>  (39) 
-1.90811

>  <r_i_glide_ligand_efficiency>  (39) 
-0.0307759

>  <r_i_glide_ligand_efficiency_sa>  (39) 
-0.121808

>  <r_i_glide_ligand_efficiency_ln>  (39) 
-0.372159

>  <r_i_glide_gscore>  (39) 
-1.90811

>  <r_i_glide_lipo>  (39) 
-0.511393

>  <r_i_glide_hbond>  (39) 
-0.14877

>  <r_i_glide_metal>  (39) 
-0

>  <r_i_glide_rewards>  (39) 
-0.194422

>  <r_i_glide_evdw>  (39) 
-5.64221

>  <r_i_glide_ecoul>  (39) 
-7.77013

>  <r_i_glide_erotb>  (39) 
0.140518

>  <r_i_glide_esite>  (39) 
-0.0628163

>  <r_i_glide_emodel>  (39) 
-5.53203

>  <r_i_glide_energy>  (39) 
-13.4123

>  <r_i_glide_einternal>  (39) 
6.36344

>  <r_i_glide_intrahb_reward>  (39) 
-0

>  <i_i_glide_confnum>  (39) 
1

>  <i_i_glide_posenum>  (39) 
2

>  <r_i_glide_eff_state_penalty>  (39) 
0

>  <ligand_id>  (39) 
57

>  <original_smiles>  (39) 
C=CC1(C)OC23C=CC=CC4(O)C(O2)C2C(C)(C)C(=O)C2(O)C2(O)C5C(O)(C1CCC1[S+]([O-])C(C)(O)C(OC(=O)CC6=COC(C)(OC)C=C6)C5(O)C14CCC1(C)OC13)C2(C)C

>  <smiles>  (39) 
[H]OC12C(=O)C(C([H])([H])[H])(C([H])([H])[H])C1([H])C1([H])OC34OC(C([H])=C([H])[H])(C([H])([H])[H])C5([H])C([H])([H])C([H])([H])C6([H])S(=O)C(O[H])(C([H])([H])[H])C([H])(OC(=O)C([H])([H])C7=C([H])OC(OC([H])([H])[H])(C([H])([H])[H])C([H])=C7[H])C(O[H])(C7([H])C2(O[H])C(C([H])([H])[H])(C([H])([H])[H])C57O[H])C6(C([H])([H])C([H])([H])C2(C([H])([H])[H])OC32[H])C1(O[H])C([H])=C([H])C([H])=C4[H]

$$$$
57:4:1
     RDKit          3D

122131  0  0  1  0  0  0  0  0999 V2000
    6.3464    0.7654    9.2960 C   0  0  0  0  0  0  0  0  0  0  0  0
    6.2876    0.4965    7.9849 C   0  0  0  0  0  0  0  0  0  0  0  0
    5.4451   -0.6014    7.3125 C   0  0  1  0  0  0  0  0  0  0  0  0
    6.5379   -1.5591    6.8524 C   0  0  0  0  0  0  0  0  0  0  0  0
    4.8329   -1.3194    8.4309 O   0  0  0  0  0  0  0  0  0  0  0  0
    3.8843   -2.3117    8.2345 C   0  0  2  0  0  0  0  0  0  0  0  0
    4.4546   -3.7137    8.3270 C   0  0  0  0  0  0  0  0  0  0  0  0
    3.6823   -4.8247    8.3475 C   0  0  0  0  0  0  0  0  0  0  0  0
    2.2237   -4.8391    8.3102 C   0  0  0  0  0  0  0  0  0  0  0  0
    1.3415   -4.0875    7.6009 C   0  0  0  0  0  0  0  0  0  0  0  0
    1.5132   -3.0252    6.4597 C   0  0  2  0  0  0  0  0  0  0  0  0
    0.7667   -3.7184    5.4715 O   0  0  0  0  0  0  0  0  0  0  0  0
    2.9360   -3.0943    6.1401 C   0  0  1  0  0  0  0  0  0  0  0  0
    3.4581   -2.1096    6.9556 O   0  0  0  0  0  0  0  0  0  0  0  0
    3.3576   -3.9218    4.9017 C   0  0  2  0  0  0  0  0  0  0  0  0
    4.6079   -4.7857    4.5387 C   0  0  0  0  0  0  0  0  0  0  0  0
    5.9755   -4.6721    5.2154 C   0  0  0  0  0  0  0  0  0  0  0  0
    4.3421   -6.2939    4.3856 C   0  0  0  0  0  0  0  0  0  0  0  0
    4.5271   -4.0808    3.1650 C   0  0  0  0  0  0  0  0  0  0  0  0
    5.2197   -4.1686    2.1499 O   0  0  0  0  0  0  0  0  0  0  0  0
    3.2236   -3.2874    3.5048 C   0  0  1  0  0  0  0  0  0  0  0  0
    2.2041   -3.8952    2.7471 O   0  0  0  0  0  0  0  0  0  0  0  0
    3.1955   -1.7066    3.2430 C   0  0  1  0  0  0  0  0  0  0  0  0
    2.8501   -1.5658    1.8638 O   0  0  0  0  0  0  0  0  0  0  0  0
    2.3937   -0.6630    4.1466 C   0  0  2  0  0  0  0  0  0  0  0  0
    3.7755   -0.0476    4.7369 C   0  0  1  0  0  0  0  0  0  0  0  0
    3.8026    1.3380    4.4494 O   0  0  0  0  0  0  0  0  0  0  0  0
    4.4397    0.1939    6.2650 C   0  0  1  0  0  0  0  0  0  0  0  0
    3.5214    0.9924    7.2088 C   0  0  0  0  0  0  0  0  0  0  0  0
    2.0768    1.1477    6.8471 C   0  0  0  0  0  0  0  0  0  0  0  0
    1.0576    0.0226    7.1213 C   0  0  1  0  0  0  0  0  0  0  0  0
   -0.5587    1.0106    7.0127 S   0  0  0  0  0  0  0  0  0  0  0  0
   -0.3583    2.5064    7.2370 O   0  0  0  0  0  0  0  0  0  0  0  0
   -1.2074    0.7496    5.2898 C   0  0  1  0  0  0  0  0  0  0  0  0
   -2.3014   -0.3296    5.3467 C   0  0  0  0  0  0  0  0  0  0  0  0
   -1.8915    1.8870    4.7747 O   0  0  0  0  0  0  0  0  0  0  0  0
   -0.0283    0.3653    4.3834 C   0  0  1  0  0  0  0  0  0  0  0  0
    0.6834    1.5788    4.1044 O   0  0  0  0  0  0  0  0  0  0  0  0
    0.7945    2.0678    2.8501 C   0  0  0  0  0  0  0  0  0  0  0  0
    0.2805    1.5625    1.8575 O   0  0  0  0  0  0  0  0  0  0  0  0
    1.7541    3.2655    2.7408 C   0  0  0  0  0  0  0  0  0  0  0  0
    1.4188    4.3305    3.7769 C   0  0  0  0  0  0  0  0  0  0  0  0
    0.3151    5.0876    3.6709 C   0  0  0  0  0  0  0  0  0  0  0  0
   -0.0556    6.0763    4.5478 O   0  0  0  0  0  0  0  0  0  0  0  0
    0.7249    6.3835    5.6745 C   0  0  1  0  0  0  0  0  0  0  0  0
    1.1303    7.8643    5.4800 C   0  0  0  0  0  0  0  0  0  0  0  0
   -0.1124    6.2569    6.7927 O   0  0  0  0  0  0  0  0  0  0  0  0
    0.3507    6.7142    8.0573 C   0  0  0  0  0  0  0  0  0  0  0  0
    1.9703    5.4982    5.8034 C   0  0  0  0  0  0  0  0  0  0  0  0
    2.2802    4.5448    4.9206 C   0  0  0  0  0  0  0  0  0  0  0  0
    0.9204   -0.8749    4.8086 C   0  0  1  0  0  0  0  0  0  0  0  0
    0.3512   -1.7688    3.8693 O   0  0  0  0  0  0  0  0  0  0  0  0
    0.9018   -1.4419    6.3831 C   0  0  1  0  0  0  0  0  0  0  0  0
   -0.2500   -1.9183    7.3268 C   0  0  0  0  0  0  0  0  0  0  0  0
   -0.0247   -1.9512    8.9203 C   0  0  0  0  0  0  0  0  0  0  0  0
    1.3384   -2.0557    9.7348 C   0  0  2  0  0  0  0  0  0  0  0  0
    0.9284   -2.3436   11.1678 C   0  0  0  0  0  0  0  0  0  0  0  0
    2.2522   -0.9580    9.6419 O   0  0  0  0  0  0  0  0  0  0  0  0
    2.8814   -2.1987    9.4321 C   0  0  2  0  0  0  0  0  0  0  0  0
    4.4423   -0.7857    3.5245 C   0  0  0  0  0  0  0  0  0  0  0  0
    5.7293   -1.3758    3.8471 C   0  0  0  0  0  0  0  0  0  0  0  0
    4.8909    0.0864    2.3367 C   0  0  0  0  0  0  0  0  0  0  0  0
    5.7782    0.2079   10.0313 H   0  0  0  0  0  0  0  0  0  0  0  0
    6.9735    1.5655    9.6525 H   0  0  0  0  0  0  0  0  0  0  0  0
    6.8874    1.1027    7.3225 H   0  0  0  0  0  0  0  0  0  0  0  0
    7.1942   -1.1208    6.1044 H   0  0  0  0  0  0  0  0  0  0  0  0
    6.1259   -2.5003    6.5278 H   0  0  0  0  0  0  0  0  0  0  0  0
    7.1760   -1.8267    7.6981 H   0  0  0  0  0  0  0  0  0  0  0  0
    5.5281   -3.8168    8.3958 H   0  0  0  0  0  0  0  0  0  0  0  0
    4.1838   -5.7734    8.4059 H   0  0  0  0  0  0  0  0  0  0  0  0
    1.7684   -5.5320    9.0090 H   0  0  0  0  0  0  0  0  0  0  0  0
    0.3171   -4.3572    7.8275 H   0  0  0  0  0  0  0  0  0  0  0  0
    1.0919   -4.6074    5.4298 H   0  0  0  0  0  0  0  0  0  0  0  0
    3.0530   -2.2270    5.6008 H   0  0  0  0  0  0  0  0  0  0  0  0
    2.6709   -4.7549    4.8714 H   0  0  0  0  0  0  0  0  0  0  0  0
    5.8716   -4.6623    6.3012 H   0  0  0  0  0  0  0  0  0  0  0  0
    6.5689   -3.8290    4.9068 H   0  0  0  0  0  0  0  0  0  0  0  0
    6.6076   -5.5330    4.9945 H   0  0  0  0  0  0  0  0  0  0  0  0
    4.1517   -6.7373    5.3688 H   0  0  0  0  0  0  0  0  0  0  0  0
    5.1859   -6.8257    3.9534 H   0  0  0  0  0  0  0  0  0  0  0  0
    3.4725   -6.5123    3.7633 H   0  0  0  0  0  0  0  0  0  0  0  0
    2.5343   -3.8917    1.8589 H   0  0  0  0  0  0  0  0  0  0  0  0
    1.9225   -1.3704    1.8256 H   0  0  0  0  0  0  0  0  0  0  0  0
    2.1968    0.0207    3.3303 H   0  0  0  0  0  0  0  0  0  0  0  0
    3.6364    1.4112    3.5259 H   0  0  0  0  0  0  0  0  0  0  0  0
    5.2109    0.9338    6.0042 H   0  0  0  0  0  0  0  0  0  0  0  0
    3.5541    0.6375    8.2340 H   0  0  0  0  0  0  0  0  0  0  0  0
    3.9265    2.0103    7.2669 H   0  0  0  0  0  0  0  0  0  0  0  0
    1.8118    1.9490    7.5357 H   0  0  0  0  0  0  0  0  0  0  0  0
    1.9645    1.6459    5.9122 H   0  0  0  0  0  0  0  0  0  0  0  0
    1.0643    0.0055    8.1796 H   0  0  0  0  0  0  0  0  0  0  0  0
   -2.9803   -0.2545    4.4950 H   0  0  0  0  0  0  0  0  0  0  0  0
   -2.9195   -0.2106    6.2401 H   0  0  0  0  0  0  0  0  0  0  0  0
   -1.9257   -1.3425    5.2718 H   0  0  0  0  0  0  0  0  0  0  0  0
   -2.3060    1.6780    3.9471 H   0  0  0  0  0  0  0  0  0  0  0  0
   -0.5512    0.1072    3.4579 H   0  0  0  0  0  0  0  0  0  0  0  0
    2.7683    2.9227    2.8976 H   0  0  0  0  0  0  0  0  0  0  0  0
    1.7875    3.6828    1.7324 H   0  0  0  0  0  0  0  0  0  0  0  0
   -0.3937    5.0006    2.8658 H   0  0  0  0  0  0  0  0  0  0  0  0
    0.2338    8.4845    5.3906 H   0  0  0  0  0  0  0  0  0  0  0  0
    1.7119    7.9718    4.5598 H   0  0  0  0  0  0  0  0  0  0  0  0
    1.7498    8.2363    6.2949 H   0  0  0  0  0  0  0  0  0  0  0  0
   -0.3449    6.4119    8.8403 H   0  0  0  0  0  0  0  0  0  0  0  0
    0.4014    7.8018    8.0896 H   0  0  0  0  0  0  0  0  0  0  0  0
    1.3266    6.3082    8.3178 H   0  0  0  0  0  0  0  0  0  0  0  0
    2.6307    5.6698    6.6316 H   0  0  0  0  0  0  0  0  0  0  0  0
    3.1781    3.9647    5.0492 H   0  0  0  0  0  0  0  0  0  0  0  0
    0.8271   -2.5925    3.9273 H   0  0  0  0  0  0  0  0  0  0  0  0
   -1.1010   -1.3271    7.2090 H   0  0  0  0  0  0  0  0  0  0  0  0
   -0.7712   -2.8166    6.9982 H   0  0  0  0  0  0  0  0  0  0  0  0
   -0.5325   -1.0909    9.3587 H   0  0  0  0  0  0  0  0  0  0  0  0
   -0.6266   -2.7910    9.2721 H   0  0  0  0  0  0  0  0  0  0  0  0
    0.5248   -3.3520   11.2619 H   0  0  0  0  0  0  0  0  0  0  0  0
    0.1994   -1.6231   11.5278 H   0  0  0  0  0  0  0  0  0  0  0  0
    1.8007   -2.2727   11.8207 H   0  0  0  0  0  0  0  0  0  0  0  0
    3.4127   -2.5149   10.3144 H   0  0  0  0  0  0  0  0  0  0  0  0
    6.3584   -0.5773    4.1974 H   0  0  0  0  0  0  0  0  0  0  0  0
    6.1945   -1.8588    2.9908 H   0  0  0  0  0  0  0  0  0  0  0  0
    5.5741   -2.0405    4.6533 H   0  0  0  0  0  0  0  0  0  0  0  0
    5.7221    0.6486    2.7185 H   0  0  0  0  0  0  0  0  0  0  0  0
    4.1120    0.7328    1.9326 H   0  0  0  0  0  0  0  0  0  0  0  0
    5.2887   -0.4926    1.4953 H   0  0  0  0  0  0  0  0  0  0  0  0
  1  2  2  0
  1 63  1  0
  1 64  1  0
  2  3  1  0
  2 65  1  0
  3 28  1  0
  3  4  1  6
  3  5  1  0
  4 66  1  0
  4 67  1  0
  4 68  1  0
  6  5  1  1
  6 14  1  0
  6 59  1  0
  6  7  1  0
  7  8  2  3
  7 69  1  0
  8  9  1  0
  8 70  1  0
  9 10  2  3
  9 71  1  0
 10 11  1  0
 10 72  1  0
 11 53  1  0
 11 12  1  6
 11 13  1  0
 12 73  1  0
 13 14  1  0
 13 15  1  0
 13 74  1  1
 15 21  1  0
 15 16  1  0
 15 75  1  6
 16 17  1  0
 16 18  1  0
 16 19  1  0
 17 76  1  0
 17 77  1  0
 17 78  1  0
 18 79  1  0
 18 80  1  0
 18 81  1  0
 19 20  2  0
 19 21  1  0
 21 22  1  6
 21 23  1  0
 22 82  1  0
 23 60  1  0
 23 24  1  6
 23 25  1  0
 24 83  1  0
 25 51  1  0
 25 26  1  0
 25 84  1  6
 26 27  1  6
 26 28  1  0
 26 60  1  0
 27 85  1  0
 28 29  1  0
 28 86  1  6
 29 30  1  0
 29 87  1  0
 29 88  1  0
 30 31  1  0
 30 89  1  0
 30 90  1  0
 31 53  1  0
 31 32  1  0
 31 91  1  1
 32 33  2  0
 32 34  1  6
 34 35  1  0
 34 36  1  6
 34 37  1  0
 35 92  1  0
 35 93  1  0
 35 94  1  0
 36 95  1  0
 37 38  1  0
 37 51  1  0
 37 96  1  6
 38 39  1  0
 39 40  2  0
 39 41  1  0
 41 42  1  0
 41 97  1  0
 41 98  1  0
 42 50  1  0
 42 43  2  0
 43 44  1  0
 43 99  1  0
 44 45  1  0
 45 46  1  0
 45 47  1  1
 45 49  1  0
 46100  1  0
 46101  1  0
 46102  1  0
 47 48  1  0
 48103  1  0
 48104  1  0
 48105  1  0
 49 50  2  0
 49106  1  0
 50107  1  0
 51 52  1  6
 51 53  1  0
 52108  1  0
 53 54  1  1
 54 55  1  0
 54109  1  0
 54110  1  0
 55 56  1  0
 55111  1  0
 55112  1  0
 56 59  1  0
 56 57  1  1
 56 58  1  0
 57113  1  0
 57114  1  0
 57115  1  0
 58 59  1  0
 59116  1  1
 60 61  1  0
 60 62  1  0
 61117  1  0
 61118  1  0
 61119  1  0
 62120  1  0
 62121  1  0
 62122  1  0
M  END
>  <i_m_ct_stereo_status>  (40) 
1

>  <s_m_source_file>  (40) 
/var/tmp/pbs.5075288.sched01/tmpsukb34hn/166582q88ej.sdf

>  <i_m_source_file_index>  (40) 
45

>  <i_lp_mmshare_version>  (40) 
48012

>  <i_f3d_flags>  (40) 
0

>  <s_epik_input>  (40) 
W0NAXTEyM1tDQEBIXTRDKE80KShbQ0gzXSlbQ0gyXVtDSDJdW0NAXTU2W0NAXShbT0hdKShcW0NIXT1bQ0hdL1tDSF09W0NIXVwyKVtDQEBIXShPMylbQ0BIXTdbQ0BdKFtPSF0pKEMoPU8pQzcoW0NIM10pW0NIM10pW0NAQF04KFtPSF0pW0NAQEhdOVtDQF0oW09IXSkoQzgoW0NIM10pW0NIM10pW0NASF0oW0NAQF0oTzEpKFtDSDNdKVtDSF09W0NIMl0pW0NIMl1bQ0gyXVtDQEhdNVtTK10oW08tXSlbQ0BAXShbQ0gzXSkoW09IXSlbQ0BIXShbQ0BdNjlbT0hdKU9DKD1PKVtDSDJdQyhbQ0hdPVtDSF0xKT1bQ0hdT1tDQEBdMShbQ0gzXSlPW0NIM10=

>  <s_epik_cmdline>  (40) 
J2VwaWtfcHl0aG9uJywgJy1waHQnLCAnMi4wJywgJy1waCcsICc3LjAnLCAnLXRuJywgJzgnLCAnLW1hJywgJzIwMCcsICctaW1hZScsICc8aW5maWxlLm1hZT4nLCAnLW9tYWUnLCAnPG91dGZpbGUubWFlPic=

>  <r_lp_tautomer_probability>  (40) 
1

>  <r_epik_Ionization_Penalty>  (40) 
7.38595e-07

>  <r_epik_Ionization_Penalty_Charging>  (40) 
0

>  <r_epik_Ionization_Penalty_Neutral>  (40) 
7.38595e-07

>  <r_epik_State_Penalty>  (40) 
-0

>  <r_epik_Charging_Adjusted_Penalty>  (40) 
0

>  <i_epik_Tot_Q>  (40) 
0

>  <i_epik_Tot_abs_Q>  (40) 
2

>  <s_epik_Chemistry_Notes>  (40) 
This compound has an ester and may undergo hydrolysis at high or low pH.

>  <s_lp_Force_Field>  (40) 
OPLS3e

>  <r_lp_Energy>  (40) 
465.114

>  <b_lp_Chiralities_Consistent>  (40) 
1

>  <s_lp_Variant>  (40) 
57:0-5

>  <s_i_glide_gridfile>  (40) 
pfpi4k_grid

>  <i_i_glide_lignum>  (40) 
45

>  <i_i_glide_rotatable_bonds>  (40) 
12

>  <r_i_docking_score>  (40) 
-1.76164

>  <r_i_glide_ligand_efficiency>  (40) 
-0.0284136

>  <r_i_glide_ligand_efficiency_sa>  (40) 
-0.112458

>  <r_i_glide_ligand_efficiency_ln>  (40) 
-0.343592

>  <r_i_glide_gscore>  (40) 
-1.76164

>  <r_i_glide_lipo>  (40) 
-0.188233

>  <r_i_glide_hbond>  (40) 
0

>  <r_i_glide_metal>  (40) 
-0

>  <r_i_glide_rewards>  (40) 
-0.514014

>  <r_i_glide_evdw>  (40) 
-22.1686

>  <r_i_glide_ecoul>  (40) 
0.210023

>  <r_i_glide_erotb>  (40) 
0.140518

>  <r_i_glide_esite>  (40) 
-0.12299

>  <r_i_glide_emodel>  (40) 
-20.7272

>  <r_i_glide_energy>  (40) 
-21.9585

>  <r_i_glide_einternal>  (40) 
9.40169

>  <r_i_glide_intrahb_reward>  (40) 
-0.5

>  <i_i_glide_confnum>  (40) 
1

>  <i_i_glide_posenum>  (40) 
1

>  <r_i_glide_eff_state_penalty>  (40) 
0

>  <ligand_id>  (40) 
57

>  <original_smiles>  (40) 
C=CC1(C)OC23C=CC=CC4(O)C(O2)C2C(C)(C)C(=O)C2(O)C2(O)C5C(O)(C1CCC1[S+]([O-])C(C)(O)C(OC(=O)CC6=COC(C)(OC)C=C6)C5(O)C14CCC1(C)OC13)C2(C)C

>  <smiles>  (40) 
[H]OC12C(=O)C(C([H])([H])[H])(C([H])([H])[H])C1([H])C1([H])OC34OC(C([H])=C([H])[H])(C([H])([H])[H])C5([H])C([H])([H])C([H])([H])C6([H])S(=O)C(O[H])(C([H])([H])[H])C([H])(OC(=O)C([H])([H])C7=C([H])OC(OC([H])([H])[H])(C([H])([H])[H])C([H])=C7[H])C(O[H])(C7([H])C2(O[H])C(C([H])([H])[H])(C([H])([H])[H])C57O[H])C6(C([H])([H])C([H])([H])C2(C([H])([H])[H])OC32[H])C1(O[H])C([H])=C([H])C([H])=C4[H]

$$$$
57:4:2
     RDKit          3D

122131  0  0  1  0  0  0  0  0999 V2000
   -1.7646   -3.1838    6.5828 C   0  0  0  0  0  0  0  0  0  0  0  0
   -1.9927   -1.9627    6.0086 C   0  0  0  0  0  0  0  0  0  0  0  0
   -1.1524   -0.7120    6.2035 C   0  0  1  0  0  0  0  0  0  0  0  0
   -2.1923    0.3861    6.4256 C   0  0  0  0  0  0  0  0  0  0  0  0
   -0.5652   -0.8497    7.5403 O   0  0  0  0  0  0  0  0  0  0  0  0
    0.3469    0.0669    8.0135 C   0  0  2  0  0  0  0  0  0  0  0  0
   -0.2478    1.1415    8.9258 C   0  0  0  0  0  0  0  0  0  0  0  0
    0.5041    2.0039    9.6426 C   0  0  0  0  0  0  0  0  0  0  0  0
    1.9685    2.0102    9.6776 C   0  0  0  0  0  0  0  0  0  0  0  0
    2.8901    1.7998    8.6999 C   0  0  0  0  0  0  0  0  0  0  0  0
    2.7653    1.6673    7.1538 C   0  0  2  0  0  0  0  0  0  0  0  0
    3.5539    2.8228    6.8880 O   0  0  0  0  0  0  0  0  0  0  0  0
    1.3392    1.9792    6.8999 C   0  0  1  0  0  0  0  0  0  0  0  0
    0.8400    0.6950    6.9033 O   0  0  0  0  0  0  0  0  0  0  0  0
    0.9621    3.3944    6.3709 C   0  0  2  0  0  0  0  0  0  0  0  0
   -0.2875    4.3135    6.5591 C   0  0  0  0  0  0  0  0  0  0  0  0
   -1.6750    3.8151    6.9915 C   0  0  0  0  0  0  0  0  0  0  0  0
   -0.0110    5.5889    7.3736 C   0  0  0  0  0  0  0  0  0  0  0  0
   -0.1545    4.5791    5.0290 C   0  0  0  0  0  0  0  0  0  0  0  0
   -0.8023    5.2621    4.2485 O   0  0  0  0  0  0  0  0  0  0  0  0
    1.1305    3.7158    4.8603 C   0  0  1  0  0  0  0  0  0  0  0  0
    2.1599    4.6732    4.6559 O   0  0  0  0  0  0  0  0  0  0  0  0
    1.1490    2.5907    3.6973 C   0  0  1  0  0  0  0  0  0  0  0  0
    1.6259    3.2745    2.5307 O   0  0  0  0  0  0  0  0  0  0  0  0
    1.9189    1.2074    3.8627 C   0  0  2  0  0  0  0  0  0  0  0  0
    0.5487    0.3729    3.8652 C   0  0  1  0  0  0  0  0  0  0  0  0
    0.6254   -0.5341    2.7793 O   0  0  0  0  0  0  0  0  0  0  0  0
   -0.1568   -0.7218    4.8952 C   0  0  1  0  0  0  0  0  0  0  0  0
    0.7432   -1.9317    5.1768 C   0  0  0  0  0  0  0  0  0  0  0  0
    2.1976   -1.8658    4.8740 C   0  0  0  0  0  0  0  0  0  0  0  0
    3.2149   -1.1769    5.8190 C   0  0  1  0  0  0  0  0  0  0  0  0
    4.8393   -1.8928    5.1508 S   0  0  0  0  0  0  0  0  0  0  0  0
    4.6030   -3.2273    4.4178 O   0  0  0  0  0  0  0  0  0  0  0  0
    5.4905   -0.6277    3.9625 C   0  0  1  0  0  0  0  0  0  0  0  0
    6.5910    0.2431    4.6428 C   0  0  0  0  0  0  0  0  0  0  0  0
    6.1146   -1.1990    2.8222 O   0  0  0  0  0  0  0  0  0  0  0  0
    4.2859    0.1568    3.4669 C   0  0  1  0  0  0  0  0  0  0  0  0
    3.6749   -0.7210    2.4825 O   0  0  0  0  0  0  0  0  0  0  0  0
    3.3903   -0.2489    1.2704 C   0  0  0  0  0  0  0  0  0  0  0  0
    3.3089    0.9182    1.0171 O   0  0  0  0  0  0  0  0  0  0  0  0
    3.3370   -1.2733    0.1462 C   0  0  0  0  0  0  0  0  0  0  0  0
    4.7212   -1.8145   -0.1373 C   0  0  0  0  0  0  0  0  0  0  0  0
    5.8209   -1.0231   -0.1781 C   0  0  0  0  0  0  0  0  0  0  0  0
    7.1060   -1.4816   -0.3250 O   0  0  0  0  0  0  0  0  0  0  0  0
    7.3597   -2.8519   -0.5044 C   0  0  1  0  0  0  0  0  0  0  0  0
    7.9935   -2.9697   -1.8987 C   0  0  0  0  0  0  0  0  0  0  0  0
    8.2390   -3.3321    0.4676 O   0  0  0  0  0  0  0  0  0  0  0  0
    9.4259   -2.5788    0.6806 C   0  0  0  0  0  0  0  0  0  0  0  0
    6.1092   -3.7296   -0.4613 C   0  0  0  0  0  0  0  0  0  0  0  0
    4.8834   -3.2253   -0.2906 C   0  0  0  0  0  0  0  0  0  0  0  0
    3.3634    0.9240    4.5557 C   0  0  1  0  0  0  0  0  0  0  0  0
    3.9366    2.2005    4.4366 O   0  0  0  0  0  0  0  0  0  0  0  0
    3.4003    0.4278    6.1511 C   0  0  1  0  0  0  0  0  0  0  0  0
    4.5761    0.1773    7.1910 C   0  0  0  0  0  0  0  0  0  0  0  0
    4.2492   -0.7164    8.4809 C   0  0  0  0  0  0  0  0  0  0  0  0
    2.8430   -1.1018    9.1287 C   0  0  2  0  0  0  0  0  0  0  0  0
    3.1623   -1.7425   10.4672 C   0  0  0  0  0  0  0  0  0  0  0  0
    1.9139   -1.8868    8.3679 O   0  0  0  0  0  0  0  0  0  0  0  0
    1.3298   -0.7348    8.9336 C   0  0  2  0  0  0  0  0  0  0  0  0
   -0.1233    1.6793    3.3458 C   0  0  0  0  0  0  0  0  0  0  0  0
   -1.4564    2.0242    3.9440 C   0  0  0  0  0  0  0  0  0  0  0  0
   -0.5106    1.6676    1.8604 C   0  0  0  0  0  0  0  0  0  0  0  0
   -0.8709   -3.3860    7.1476 H   0  0  0  0  0  0  0  0  0  0  0  0
   -2.4808   -3.9625    6.4828 H   0  0  0  0  0  0  0  0  0  0  0  0
   -2.8770   -1.8353    5.4159 H   0  0  0  0  0  0  0  0  0  0  0  0
   -2.7407    0.4311    5.5096 H   0  0  0  0  0  0  0  0  0  0  0  0
   -1.7959    1.3393    6.7288 H   0  0  0  0  0  0  0  0  0  0  0  0
   -2.9830    0.1966    7.1366 H   0  0  0  0  0  0  0  0  0  0  0  0
   -1.3206    1.2087    9.0075 H   0  0  0  0  0  0  0  0  0  0  0  0
    0.0054    2.7357   10.2535 H   0  0  0  0  0  0  0  0  0  0  0  0
    2.3997    2.1349   10.6572 H   0  0  0  0  0  0  0  0  0  0  0  0
    3.9022    1.8585    9.0634 H   0  0  0  0  0  0  0  0  0  0  0  0
    4.4593    2.6285    7.0661 H   0  0  0  0  0  0  0  0  0  0  0  0
    1.1650    1.6190    5.9479 H   0  0  0  0  0  0  0  0  0  0  0  0
    1.6697    4.0583    6.8654 H   0  0  0  0  0  0  0  0  0  0  0  0
   -1.5993    3.1332    7.8295 H   0  0  0  0  0  0  0  0  0  0  0  0
   -2.2808    3.3942    6.1915 H   0  0  0  0  0  0  0  0  0  0  0  0
   -2.2891    4.6135    7.3971 H   0  0  0  0  0  0  0  0  0  0  0  0
    0.1513    5.3291    8.4184 H   0  0  0  0  0  0  0  0  0  0  0  0
   -0.8349    6.2999    7.3386 H   0  0  0  0  0  0  0  0  0  0  0  0
    0.8834    6.1135    7.0355 H   0  0  0  0  0  0  0  0  0  0  0  0
    1.9674    5.0918    3.8294 H   0  0  0  0  0  0  0  0  0  0  0  0
    0.8883    3.5933    1.9932 H   0  0  0  0  0  0  0  0  0  0  0  0
    2.1818    1.1592    2.8309 H   0  0  0  0  0  0  0  0  0  0  0  0
    0.7942   -0.0108    2.0103 H   0  0  0  0  0  0  0  0  0  0  0  0
   -0.9203   -1.0995    4.1850 H   0  0  0  0  0  0  0  0  0  0  0  0
    0.7257   -2.2552    6.2038 H   0  0  0  0  0  0  0  0  0  0  0  0
    0.3227   -2.7658    4.6157 H   0  0  0  0  0  0  0  0  0  0  0  0
    2.4170   -2.9274    4.9375 H   0  0  0  0  0  0  0  0  0  0  0  0
    2.3273   -1.7084    3.8376 H   0  0  0  0  0  0  0  0  0  0  0  0
    3.1536   -1.8107    6.6684 H   0  0  0  0  0  0  0  0  0  0  0  0
    7.2891    0.6153    3.8957 H   0  0  0  0  0  0  0  0  0  0  0  0
    7.2048   -0.2293    5.4222 H   0  0  0  0  0  0  0  0  0  0  0  0
    6.1571    1.0828    5.1648 H   0  0  0  0  0  0  0  0  0  0  0  0
    6.7870   -0.6449    2.4508 H   0  0  0  0  0  0  0  0  0  0  0  0
    4.7928    0.9282    2.8763 H   0  0  0  0  0  0  0  0  0  0  0  0
    2.6063   -2.0514    0.3891 H   0  0  0  0  0  0  0  0  0  0  0  0
    3.0251   -0.7658   -0.7658 H   0  0  0  0  0  0  0  0  0  0  0  0
    5.8108    0.0424   -0.0167 H   0  0  0  0  0  0  0  0  0  0  0  0
    8.8573   -2.3150   -2.0071 H   0  0  0  0  0  0  0  0  0  0  0  0
    7.2616   -2.6806   -2.6565 H   0  0  0  0  0  0  0  0  0  0  0  0
    8.3302   -3.9854   -2.0854 H   0  0  0  0  0  0  0  0  0  0  0  0
   10.0618   -3.0829    1.4102 H   0  0  0  0  0  0  0  0  0  0  0  0
    9.2253   -1.5600    1.0194 H   0  0  0  0  0  0  0  0  0  0  0  0
   10.0115   -2.5102   -0.2244 H   0  0  0  0  0  0  0  0  0  0  0  0
    6.2153   -4.7876   -0.6034 H   0  0  0  0  0  0  0  0  0  0  0  0
    4.0052   -3.8584   -0.3006 H   0  0  0  0  0  0  0  0  0  0  0  0
    4.8513    2.1671    4.6561 H   0  0  0  0  0  0  0  0  0  0  0  0
    5.4909   -0.2480    6.8272 H   0  0  0  0  0  0  0  0  0  0  0  0
    5.0676    1.0976    7.4942 H   0  0  0  0  0  0  0  0  0  0  0  0
    4.7661   -1.6678    8.3342 H   0  0  0  0  0  0  0  0  0  0  0  0
    4.8225   -0.2527    9.2884 H   0  0  0  0  0  0  0  0  0  0  0  0
    3.5607   -0.9981   11.1598 H   0  0  0  0  0  0  0  0  0  0  0  0
    3.8814   -2.5566   10.3474 H   0  0  0  0  0  0  0  0  0  0  0  0
    2.2637   -2.1653   10.9131 H   0  0  0  0  0  0  0  0  0  0  0  0
    0.7396   -1.0014    9.8034 H   0  0  0  0  0  0  0  0  0  0  0  0
   -2.1883    1.2447    3.7378 H   0  0  0  0  0  0  0  0  0  0  0  0
   -1.8718    2.9666    3.5781 H   0  0  0  0  0  0  0  0  0  0  0  0
   -1.2618    2.1219    4.9840 H   0  0  0  0  0  0  0  0  0  0  0  0
   -1.2858    0.9367    1.6050 H   0  0  0  0  0  0  0  0  0  0  0  0
    0.3241    1.5166    1.1626 H   0  0  0  0  0  0  0  0  0  0  0  0
   -0.9477    2.6490    1.7061 H   0  0  0  0  0  0  0  0  0  0  0  0
  1  2  2  0
  1 63  1  0
  1 64  1  0
  2  3  1  0
  2 65  1  0
  3 28  1  0
  3  4  1  1
  3  5  1  0
  4 66  1  0
  4 67  1  0
  4 68  1  0
  6  5  1  6
  6 14  1  0
  6 59  1  0
  6  7  1  0
  7  8  2  3
  7 69  1  0
  8  9  1  0
  8 70  1  0
  9 10  2  3
  9 71  1  0
 10 11  1  0
 10 72  1  0
 11 53  1  0
 11 12  1  6
 11 13  1  0
 12 73  1  0
 13 14  1  0
 13 15  1  0
 13 74  1  1
 15 21  1  0
 15 16  1  0
 15 75  1  1
 16 17  1  0
 16 18  1  0
 16 19  1  0
 17 76  1  0
 17 77  1  0
 17 78  1  0
 18 79  1  0
 18 80  1  0
 18 81  1  0
 19 20  2  0
 19 21  1  0
 21 22  1  1
 21 23  1  0
 22 82  1  0
 23 60  1  0
 23 24  1  6
 23 25  1  0
 24 83  1  0
 25 51  1  0
 25 26  1  0
 25 84  1  6
 26 27  1  6
 26 28  1  0
 26 60  1  0
 27 85  1  0
 28 29  1  0
 28 86  1  6
 29 30  1  0
 29 87  1  0
 29 88  1  0
 30 31  1  0
 30 89  1  0
 30 90  1  0
 31 53  1  0
 31 32  1  0
 31 91  1  1
 32 33  2  0
 32 34  1  6
 34 35  1  0
 34 36  1  6
 34 37  1  0
 35 92  1  0
 35 93  1  0
 35 94  1  0
 36 95  1  0
 37 38  1  0
 37 51  1  0
 37 96  1  6
 38 39  1  0
 39 40  2  0
 39 41  1  0
 41 42  1  0
 41 97  1  0
 41 98  1  0
 42 50  1  0
 42 43  2  0
 43 44  1  0
 43 99  1  0
 44 45  1  0
 45 46  1  0
 45 47  1  1
 45 49  1  0
 46100  1  0
 46101  1  0
 46102  1  0
 47 48  1  0
 48103  1  0
 48104  1  0
 48105  1  0
 49 50  2  0
 49106  1  0
 50107  1  0
 51 52  1  1
 51 53  1  0
 52108  1  0
 53 54  1  1
 54 55  1  0
 54109  1  0
 54110  1  0
 55 56  1  0
 55111  1  0
 55112  1  0
 56 59  1  0
 56 57  1  1
 56 58  1  0
 57113  1  0
 57114  1  0
 57115  1  0
 58 59  1  0
 59116  1  1
 60 61  1  0
 60 62  1  0
 61117  1  0
 61118  1  0
 61119  1  0
 62120  1  0
 62121  1  0
 62122  1  0
M  END
>  <i_m_ct_stereo_status>  (41) 
1

>  <s_m_source_file>  (41) 
/var/tmp/pbs.5075288.sched01/tmpsukb34hn/166582q88ej.sdf

>  <i_m_source_file_index>  (41) 
45

>  <i_lp_mmshare_version>  (41) 
48012

>  <i_f3d_flags>  (41) 
0

>  <s_epik_input>  (41) 
W0NAXTEyM1tDQEBIXTRDKE80KShbQ0gzXSlbQ0gyXVtDSDJdW0NAXTU2W0NAXShbT0hdKShcW0NIXT1bQ0hdL1tDSF09W0NIXVwyKVtDQEBIXShPMylbQ0BIXTdbQ0BdKFtPSF0pKEMoPU8pQzcoW0NIM10pW0NIM10pW0NAQF04KFtPSF0pW0NAQEhdOVtDQF0oW09IXSkoQzgoW0NIM10pW0NIM10pW0NASF0oW0NAQF0oTzEpKFtDSDNdKVtDSF09W0NIMl0pW0NIMl1bQ0gyXVtDQEhdNVtTK10oW08tXSlbQ0BAXShbQ0gzXSkoW09IXSlbQ0BIXShbQ0BdNjlbT0hdKU9DKD1PKVtDSDJdQyhbQ0hdPVtDSF0xKT1bQ0hdT1tDQEBdMShbQ0gzXSlPW0NIM10=

>  <s_epik_cmdline>  (41) 
J2VwaWtfcHl0aG9uJywgJy1waHQnLCAnMi4wJywgJy1waCcsICc3LjAnLCAnLXRuJywgJzgnLCAnLW1hJywgJzIwMCcsICctaW1hZScsICc8aW5maWxlLm1hZT4nLCAnLW9tYWUnLCAnPG91dGZpbGUubWFlPic=

>  <r_lp_tautomer_probability>  (41) 
1

>  <r_epik_Ionization_Penalty>  (41) 
7.38595e-07

>  <r_epik_Ionization_Penalty_Charging>  (41) 
0

>  <r_epik_Ionization_Penalty_Neutral>  (41) 
7.38595e-07

>  <r_epik_State_Penalty>  (41) 
-0

>  <r_epik_Charging_Adjusted_Penalty>  (41) 
0

>  <i_epik_Tot_Q>  (41) 
0

>  <i_epik_Tot_abs_Q>  (41) 
2

>  <s_epik_Chemistry_Notes>  (41) 
This compound has an ester and may undergo hydrolysis at high or low pH.

>  <s_lp_Force_Field>  (41) 
OPLS3e

>  <r_lp_Energy>  (41) 
465.114

>  <b_lp_Chiralities_Consistent>  (41) 
1

>  <s_lp_Variant>  (41) 
57:0-5

>  <s_i_glide_gridfile>  (41) 
pfpi4k_grid

>  <i_i_glide_lignum>  (41) 
45

>  <i_i_glide_rotatable_bonds>  (41) 
12

>  <r_i_docking_score>  (41) 
-1.741

>  <r_i_glide_ligand_efficiency>  (41) 
-0.0280806

>  <r_i_glide_ligand_efficiency_sa>  (41) 
-0.11114

>  <r_i_glide_ligand_efficiency_ln>  (41) 
-0.339565

>  <r_i_glide_gscore>  (41) 
-1.741

>  <r_i_glide_lipo>  (41) 
-0.354074

>  <r_i_glide_hbond>  (41) 
-0.218175

>  <r_i_glide_metal>  (41) 
-0

>  <r_i_glide_rewards>  (41) 
-0.0661171

>  <r_i_glide_evdw>  (41) 
-1.1478

>  <r_i_glide_ecoul>  (41) 
-8.66545

>  <r_i_glide_erotb>  (41) 
0.140518

>  <r_i_glide_esite>  (41) 
-0.0789699

>  <r_i_glide_emodel>  (41) 
3.28647

>  <r_i_glide_energy>  (41) 
-9.81325

>  <r_i_glide_einternal>  (41) 
17.6411

>  <r_i_glide_intrahb_reward>  (41) 
-0

>  <i_i_glide_confnum>  (41) 
1

>  <i_i_glide_posenum>  (41) 
30

>  <r_i_glide_eff_state_penalty>  (41) 
0

>  <ligand_id>  (41) 
57

>  <original_smiles>  (41) 
C=CC1(C)OC23C=CC=CC4(O)C(O2)C2C(C)(C)C(=O)C2(O)C2(O)C5C(O)(C1CCC1[S+]([O-])C(C)(O)C(OC(=O)CC6=COC(C)(OC)C=C6)C5(O)C14CCC1(C)OC13)C2(C)C

>  <smiles>  (41) 
[H]OC12C(=O)C(C([H])([H])[H])(C([H])([H])[H])C1([H])C1([H])OC34OC(C([H])=C([H])[H])(C([H])([H])[H])C5([H])C([H])([H])C([H])([H])C6([H])S(=O)C(O[H])(C([H])([H])[H])C([H])(OC(=O)C([H])([H])C7=C([H])OC(OC([H])([H])[H])(C([H])([H])[H])C([H])=C7[H])C(O[H])(C7([H])C2(O[H])C(C([H])([H])[H])(C([H])([H])[H])C57O[H])C6(C([H])([H])C([H])([H])C2(C([H])([H])[H])OC32[H])C1(O[H])C([H])=C([H])C([H])=C4[H]

$$$$
58:0:0
     RDKit          3D

100106  0  0  1  0  0  0  0  0999 V2000
    6.1030   -4.1322    1.4442 C   0  0  0  0  0  0  0  0  0  0  0  0
    5.3686   -2.9173    0.9050 C   0  0  0  0  0  0  0  0  0  0  0  0
    6.1767   -2.3178   -0.2043 C   0  0  0  0  0  0  0  0  0  0  0  0
    4.1561   -2.3916    1.2832 C   0  0  0  0  0  0  0  0  0  0  0  0
    3.1966   -2.8701    2.3163 C   0  0  0  0  0  0  0  0  0  0  0  0
    2.1213   -2.2917    2.5435 O   0  0  0  0  0  0  0  0  0  0  0  0
    3.5941   -3.9728    2.9774 O   0  0  0  0  0  0  0  0  0  0  0  0
    2.7618   -4.6162    3.9547 C   0  0  0  0  0  0  0  0  0  0  0  0
    3.2264   -6.1280    4.2974 C   0  0  1  0  0  0  0  0  0  0  0  0
    4.8208   -5.9993    4.6312 C   0  0  1  0  0  0  0  0  0  0  0  0
    4.7875   -4.5954    5.9541 S   0  0  0  0  0  0  0  0  0  0  0  0
    5.6870   -3.4186    5.5197 O   0  0  0  0  0  0  0  0  0  0  0  0
    5.5211   -5.5784    7.3578 C   0  0  1  0  0  0  0  0  0  0  0  0
    4.3197   -6.5884    7.5264 C   0  0  1  0  0  0  0  0  0  0  0  0
    2.8633   -6.1454    7.0536 C   0  0  0  0  0  0  0  0  0  0  0  0
    2.3486   -6.4916    5.5972 C   0  0  2  0  0  0  0  0  0  0  0  0
    2.1579   -7.8449    5.7760 O   0  0  0  0  0  0  0  0  0  0  0  0
    0.8538   -6.0811    5.4673 C   0  0  0  0  0  0  0  0  0  0  0  0
    0.0888   -6.4163    4.1498 C   0  0  0  0  0  0  0  0  0  0  0  0
    0.2668   -7.8011    3.4774 C   0  0  0  0  0  0  0  0  0  0  0  0
   -0.4374   -8.8362    4.3918 C   0  0  0  0  0  0  0  0  0  0  0  0
   -0.6243   -7.7541    2.2039 C   0  0  0  0  0  0  0  0  0  0  0  0
    1.7715   -8.1780    3.0421 C   0  0  2  0  0  0  0  0  0  0  0  0
    2.2736   -9.6008    3.4953 C   0  0  1  0  0  0  0  0  0  0  0  0
    1.5805  -10.5741    2.7208 O   0  0  0  0  0  0  0  0  0  0  0  0
    3.8470   -9.7944    3.4767 C   0  0  2  0  0  0  0  0  0  0  0  0
    4.0620  -11.1886    3.2023 O   0  0  0  0  0  0  0  0  0  0  0  0
    4.4287   -9.6127    5.0183 C   0  0  1  0  0  0  0  0  0  0  0  0
    4.7050  -10.9287    5.5610 O   0  0  0  0  0  0  0  0  0  0  0  0
    5.2273   -8.4314    5.8653 C   0  0  2  0  0  0  0  0  0  0  0  0
    6.1202   -9.3211    6.5190 O   0  0  0  0  0  0  0  0  0  0  0  0
    4.5915   -8.0550    7.2518 C   0  0  0  0  0  0  0  0  0  0  0  0
    5.9304   -7.1819    5.0806 C   0  0  2  0  0  0  0  0  0  0  0  0
    6.9774   -6.0170    5.4978 C   0  0  0  0  0  0  0  0  0  0  0  0
    7.0552   -5.8900    6.9566 C   0  0  1  0  0  0  0  0  0  0  0  0
    7.9118   -4.6766    7.3999 C   0  0  0  0  0  0  0  0  0  0  0  0
    7.9762   -7.1788    7.1657 C   0  0  1  0  0  0  0  0  0  0  0  0
    7.6293   -7.8886    8.3201 O   0  0  0  0  0  0  0  0  0  0  0  0
    8.3364   -8.0624    5.8351 C   0  0  0  0  0  0  0  0  0  0  0  0
    7.2800   -7.8827    4.5779 C   0  0  1  0  0  0  0  0  0  0  0  0
    7.1895   -9.1651    4.0269 O   0  0  0  0  0  0  0  0  0  0  0  0
    4.3773   -9.1097    2.1426 C   0  0  1  0  0  0  0  0  0  0  0  0
    5.7887   -9.4939    1.5925 C   0  0  0  0  0  0  0  0  0  0  0  0
    3.5594   -9.5056    1.0388 O   0  0  0  0  0  0  0  0  0  0  0  0
    4.2084   -7.5885    2.2333 C   0  0  1  0  0  0  0  0  0  0  0  0
    4.4966   -6.9745    0.9601 O   0  0  0  0  0  0  0  0  0  0  0  0
    2.9019   -7.0524    2.9843 C   0  0  2  0  0  0  0  0  0  0  0  0
    2.2979   -6.2348    1.9894 O   0  0  0  0  0  0  0  0  0  0  0  0
    7.1894   -3.9544    1.5405 H   0  0  0  0  0  0  0  0  0  0  0  0
    5.9793   -4.9414    0.6832 H   0  0  0  0  0  0  0  0  0  0  0  0
    5.7500   -4.3816    2.4440 H   0  0  0  0  0  0  0  0  0  0  0  0
    7.1678   -2.0980    0.2049 H   0  0  0  0  0  0  0  0  0  0  0  0
    5.7348   -1.4202   -0.6478 H   0  0  0  0  0  0  0  0  0  0  0  0
    6.3140   -3.0901   -0.9658 H   0  0  0  0  0  0  0  0  0  0  0  0
    3.7985   -1.5026    0.7472 H   0  0  0  0  0  0  0  0  0  0  0  0
    2.6683   -3.9656    4.8228 H   0  0  0  0  0  0  0  0  0  0  0  0
    1.7444   -4.5787    3.6044 H   0  0  0  0  0  0  0  0  0  0  0  0
    5.2363   -5.5637    3.7140 H   0  0  0  0  0  0  0  0  0  0  0  0
    5.5413   -4.9303    8.2436 H   0  0  0  0  0  0  0  0  0  0  0  0
    4.2063   -6.5738    8.6007 H   0  0  0  0  0  0  0  0  0  0  0  0
    2.1944   -6.6503    7.7440 H   0  0  0  0  0  0  0  0  0  0  0  0
    2.6579   -5.0888    7.2918 H   0  0  0  0  0  0  0  0  0  0  0  0
    1.6821   -8.1643    5.0116 H   0  0  0  0  0  0  0  0  0  0  0  0
    0.2916   -6.5324    6.2941 H   0  0  0  0  0  0  0  0  0  0  0  0
    0.7514   -5.0067    5.6501 H   0  0  0  0  0  0  0  0  0  0  0  0
   -0.9629   -6.3033    4.4007 H   0  0  0  0  0  0  0  0  0  0  0  0
    0.2028   -5.6631    3.3767 H   0  0  0  0  0  0  0  0  0  0  0  0
   -0.5139   -9.8057    3.9073 H   0  0  0  0  0  0  0  0  0  0  0  0
   -1.4590   -8.5310    4.6080 H   0  0  0  0  0  0  0  0  0  0  0  0
    0.0415   -8.9811    5.3554 H   0  0  0  0  0  0  0  0  0  0  0  0
   -0.6415   -8.7200    1.7019 H   0  0  0  0  0  0  0  0  0  0  0  0
   -0.2739   -7.0175    1.4803 H   0  0  0  0  0  0  0  0  0  0  0  0
   -1.6562   -7.5120    2.4527 H   0  0  0  0  0  0  0  0  0  0  0  0
    1.6100   -8.3700    1.9753 H   0  0  0  0  0  0  0  0  0  0  0  0
    1.8932   -9.8682    4.4742 H   0  0  0  0  0  0  0  0  0  0  0  0
    1.9065  -10.4956    1.8222 H   0  0  0  0  0  0  0  0  0  0  0  0
    3.8055  -11.3683    2.2996 H   0  0  0  0  0  0  0  0  0  0  0  0
    3.5208   -9.6388    5.5825 H   0  0  0  0  0  0  0  0  0  0  0  0
    3.9160  -11.4383    5.3988 H   0  0  0  0  0  0  0  0  0  0  0  0
    5.5937  -10.1236    6.6559 H   0  0  0  0  0  0  0  0  0  0  0  0
    5.2028   -8.3208    8.1245 H   0  0  0  0  0  0  0  0  0  0  0  0
    3.6927   -8.6474    7.4714 H   0  0  0  0  0  0  0  0  0  0  0  0
    8.0097   -5.9085    5.1524 H   0  0  0  0  0  0  0  0  0  0  0  0
    6.9280   -5.1260    4.8878 H   0  0  0  0  0  0  0  0  0  0  0  0
    8.9089   -4.6848    6.9489 H   0  0  0  0  0  0  0  0  0  0  0  0
    8.0534   -4.6958    8.4830 H   0  0  0  0  0  0  0  0  0  0  0  0
    7.4581   -3.7200    7.1455 H   0  0  0  0  0  0  0  0  0  0  0  0
    8.9683   -6.8121    7.4520 H   0  0  0  0  0  0  0  0  0  0  0  0
    6.8512   -8.3955    8.0885 H   0  0  0  0  0  0  0  0  0  0  0  0
    9.3106   -7.7338    5.4709 H   0  0  0  0  0  0  0  0  0  0  0  0
    8.5045   -9.1050    6.1016 H   0  0  0  0  0  0  0  0  0  0  0  0
    7.7307   -7.3254    3.7486 H   0  0  0  0  0  0  0  0  0  0  0  0
    6.8425   -9.7288    4.7186 H   0  0  0  0  0  0  0  0  0  0  0  0
    6.5305   -8.7111    1.7461 H   0  0  0  0  0  0  0  0  0  0  0  0
    5.7838   -9.6203    0.5090 H   0  0  0  0  0  0  0  0  0  0  0  0
    6.1848  -10.4237    2.0047 H   0  0  0  0  0  0  0  0  0  0  0  0
    3.8817  -10.3515    0.6919 H   0  0  0  0  0  0  0  0  0  0  0  0
    5.0887   -7.3571    2.7697 H   0  0  0  0  0  0  0  0  0  0  0  0
    3.8332   -7.3368    0.3563 H   0  0  0  0  0  0  0  0  0  0  0  0
    2.2714   -6.7502    1.1860 H   0  0  0  0  0  0  0  0  0  0  0  0
  1  2  1  0
  1 49  1  0
  1 50  1  0
  1 51  1  0
  2  3  1  0
  2  4  2  3
  3 52  1  0
  3 53  1  0
  3 54  1  0
  4  5  1  0
  4 55  1  0
  5  6  2  0
  5  7  1  0
  7  8  1  0
  9  8  1  6
  8 56  1  0
  8 57  1  0
  9 16  1  0
  9 47  1  0
  9 10  1  0
 10 33  1  0
 10 11  1  0
 10 58  1  6
 11 12  2  0
 11 13  1  1
 13 35  1  0
 13 14  1  0
 13 59  1  1
 14 32  1  0
 14 15  1  0
 14 60  1  1
 15 16  1  0
 15 61  1  0
 15 62  1  0
 16 17  1  1
 16 18  1  0
 17 63  1  0
 18 19  1  0
 18 64  1  0
 18 65  1  0
 19 20  1  0
 19 66  1  0
 19 67  1  0
 20 21  1  0
 20 22  1  0
 20 23  1  0
 21 68  1  0
 21 69  1  0
 21 70  1  0
 22 71  1  0
 22 72  1  0
 22 73  1  0
 23 47  1  0
 23 24  1  0
 23 74  1  6
 24 25  1  0
 24 26  1  0
 24 75  1  1
 25 76  1  0
 26 27  1  6
 26 28  1  0
 26 42  1  0
 27 77  1  0
 28 29  1  0
 28 30  1  0
 28 78  1  1
 29 79  1  0
 30 31  1  1
 30 32  1  0
 30 33  1  0
 31 80  1  0
 32 81  1  0
 32 82  1  0
 33 40  1  0
 33 34  1  1
 34 35  1  0
 34 83  1  0
 34 84  1  0
 35 36  1  6
 35 37  1  0
 36 85  1  0
 36 86  1  0
 36 87  1  0
 37 38  1  0
 37 39  1  0
 37 88  1  1
 38 89  1  0
 39 40  1  0
 39 90  1  0
 39 91  1  0
 40 41  1  0
 40 92  1  6
 41 93  1  0
 42 43  1  0
 42 44  1  6
 42 45  1  0
 43 94  1  0
 43 95  1  0
 43 96  1  0
 44 97  1  0
 45 46  1  0
 45 47  1  0
 45 98  1  1
 46 99  1  0
 47 48  1  6
 48100  1  0
M  END
>  <i_m_ct_stereo_status>  (42) 
1

>  <s_m_source_file>  (42) 
/var/tmp/pbs.5075288.sched01/tmpsukb34hn/166582q88ej.sdf

>  <i_m_source_file_index>  (42) 
47

>  <i_lp_mmshare_version>  (42) 
48012

>  <i_f3d_flags>  (42) 
0

>  <s_epik_input>  (42) 
W0NIM11DKFtDSDNdKT1bQ0hdQyg9TylPW0NIMl1bQ0BAXTEoW0NAQEhdMltDQF0zNDUpW0NAQF02KFtPSF0pW0NIMl1bQ0BIXShbQ0BIXShbUytdMltPLV0pW0NAQF0oW0NIMl00KShbQ0gzXSlbQ0BASF0oW09IXSlbQ0gyXVtDQEhdNVtPSF0pW0NIMl1bQ0BAXTMoW09IXSlbQ0BIXShbT0hdKVtDQEBdNyhbT0hdKVtDQEhdKFtPSF0pW0NAQEhdKEMoW0NIM10pKFtDSDNdKVtDSDJdW0NIMl02KVtDQF0xKFtPSF0pW0NASF0oW09IXSlbQ0BdNyhbQ0gzXSlbT0hd

>  <s_epik_cmdline>  (42) 
J2VwaWtfcHl0aG9uJywgJy1waHQnLCAnMi4wJywgJy1waCcsICc3LjAnLCAnLXRuJywgJzgnLCAnLW1hJywgJzIwMCcsICctaW1hZScsICc8aW5maWxlLm1hZT4nLCAnLW9tYWUnLCAnPG91dGZpbGUubWFlPic=

>  <r_lp_tautomer_probability>  (42) 
1

>  <r_epik_Ionization_Penalty>  (42) 
4.9002e-06

>  <r_epik_Ionization_Penalty_Charging>  (42) 
0

>  <r_epik_Ionization_Penalty_Neutral>  (42) 
4.9002e-06

>  <r_epik_State_Penalty>  (42) 
-0

>  <r_epik_Charging_Adjusted_Penalty>  (42) 
0

>  <i_epik_Tot_Q>  (42) 
0

>  <i_epik_Tot_abs_Q>  (42) 
2

>  <s_epik_Chemistry_Notes>  (42) 
This compound has an ester and may undergo hydrolysis at high or low pH.

>  <s_lp_Force_Field>  (42) 
OPLS3e

>  <r_lp_Energy>  (42) 
437.476

>  <b_lp_Chiralities_Consistent>  (42) 
1

>  <s_lp_Variant>  (42) 
58:0-1

>  <s_i_glide_gridfile>  (42) 
pfpi4k_grid

>  <i_i_glide_lignum>  (42) 
47

>  <i_i_glide_rotatable_bonds>  (42) 
14

>  <r_i_docking_score>  (42) 
-2.7551

>  <r_i_glide_ligand_efficiency>  (42) 
-0.0573979

>  <r_i_glide_ligand_efficiency_sa>  (42) 
-0.208598

>  <r_i_glide_ligand_efficiency_ln>  (42) 
-0.565589

>  <r_i_glide_gscore>  (42) 
-2.7551

>  <r_i_glide_lipo>  (42) 
-0.14714

>  <r_i_glide_hbond>  (42) 
0

>  <r_i_glide_metal>  (42) 
-0

>  <r_i_glide_rewards>  (42) 
-0.5

>  <r_i_glide_evdw>  (42) 
-33.6714

>  <r_i_glide_ecoul>  (42) 
-3.99083

>  <r_i_glide_erotb>  (42) 
0.174609

>  <r_i_glide_esite>  (42) 
-0.000370585

>  <r_i_glide_emodel>  (42) 
-47.0889

>  <r_i_glide_energy>  (42) 
-37.6623

>  <r_i_glide_einternal>  (42) 
1.99543

>  <r_i_glide_intrahb_reward>  (42) 
-0.5

>  <i_i_glide_confnum>  (42) 
4

>  <i_i_glide_posenum>  (42) 
8

>  <r_i_glide_eff_state_penalty>  (42) 
0

>  <ligand_id>  (42) 
58

>  <original_smiles>  (42) 
CC(C)=CC(=O)OCC12C3[S+]([O-])C4C5CC1(O)CCC(C)(C)C1C(O)C(O)(C(O)C(O)(C5)C35CC4(C)C(O)CC5O)C(C)(O)C(O)C12O

>  <smiles>  (42) 
[H]OC1([H])C2([H])C3(O[H])C([H])(O[H])C(O[H])(C([H])([H])[H])C1(O[H])C([H])(O[H])C1(O[H])C([H])([H])C4([H])C([H])([H])C(O[H])(C([H])([H])C([H])([H])C2(C([H])([H])[H])C([H])([H])[H])C3(C([H])([H])OC(=O)C([H])=C(C([H])([H])[H])C([H])([H])[H])C2([H])S(=O)C4([H])C3(C([H])([H])[H])C([H])([H])C21C([H])(O[H])C([H])([H])C3([H])O[H]

$$$$
58:0:1
     RDKit          3D

100106  0  0  1  0  0  0  0  0999 V2000
    6.1682   -4.2006    1.3896 C   0  0  0  0  0  0  0  0  0  0  0  0
    5.4745   -2.9561    0.8437 C   0  0  0  0  0  0  0  0  0  0  0  0
    6.3068   -2.3772   -0.2635 C   0  0  0  0  0  0  0  0  0  0  0  0
    4.2928   -2.4015    1.2234 C   0  0  0  0  0  0  0  0  0  0  0  0
    3.3169   -2.8500    2.2630 C   0  0  0  0  0  0  0  0  0  0  0  0
    2.2575   -2.2511    2.4884 O   0  0  0  0  0  0  0  0  0  0  0  0
    3.7078   -3.9620    2.9213 O   0  0  0  0  0  0  0  0  0  0  0  0
    2.8624   -4.5792    3.9092 C   0  0  0  0  0  0  0  0  0  0  0  0
    3.2983   -6.0955    4.2742 C   0  0  1  0  0  0  0  0  0  0  0  0
    4.9003   -5.9865    4.5989 C   0  0  1  0  0  0  0  0  0  0  0  0
    4.8935   -4.5570    5.9079 S   0  0  0  0  0  0  0  0  0  0  0  0
    5.8019   -3.4045    5.4685 O   0  0  0  0  0  0  0  0  0  0  0  0
    5.6107   -5.5498    7.3156 C   0  0  1  0  0  0  0  0  0  0  0  0
    4.3956   -6.5406    7.4999 C   0  0  1  0  0  0  0  0  0  0  0  0
    2.9434   -6.0829    7.0247 C   0  0  0  0  0  0  0  0  0  0  0  0
    2.4195   -6.4341    5.5714 C   0  0  2  0  0  0  0  0  0  0  0  0
    2.2358   -7.7955    5.7624 O   0  0  0  0  0  0  0  0  0  0  0  0
    0.9316   -6.0043    5.4381 C   0  0  0  0  0  0  0  0  0  0  0  0
    0.1579   -6.3380    4.1258 C   0  0  0  0  0  0  0  0  0  0  0  0
    0.3106   -7.7325    3.4648 C   0  0  0  0  0  0  0  0  0  0  0  0
   -0.4119   -8.7447    4.3916 C   0  0  0  0  0  0  0  0  0  0  0  0
   -0.5770   -7.6841    2.1902 C   0  0  0  0  0  0  0  0  0  0  0  0
    1.8103   -8.1354    3.0314 C   0  0  2  0  0  0  0  0  0  0  0  0
    2.2997   -9.5512    3.5046 C   0  0  1  0  0  0  0  0  0  0  0  0
    1.6157  -10.5269    2.7261 O   0  0  0  0  0  0  0  0  0  0  0  0
    3.8684   -9.7694    3.4847 C   0  0  2  0  0  0  0  0  0  0  0  0
    4.0617  -11.1632    3.1996 O   0  0  0  0  0  0  0  0  0  0  0  0
    4.4590   -9.5902    5.0172 C   0  0  1  0  0  0  0  0  0  0  0  0
    4.7052  -10.9092    5.5699 O   0  0  0  0  0  0  0  0  0  0  0  0
    5.2749   -8.4114    5.8496 C   0  0  2  0  0  0  0  0  0  0  0  0
    6.1527   -9.3122    6.5096 O   0  0  0  0  0  0  0  0  0  0  0  0
    4.6500   -8.0127    7.2368 C   0  0  0  0  0  0  0  0  0  0  0  0
    5.9961   -7.1813    5.0562 C   0  0  2  0  0  0  0  0  0  0  0  0
    7.0635   -6.0248    5.4601 C   0  0  0  0  0  0  0  0  0  0  0  0
    7.1414   -5.8886    6.9191 C   0  0  1  0  0  0  0  0  0  0  0  0
    8.0174   -4.6867    7.3532 C   0  0  0  0  0  0  0  0  0  0  0  0
    8.0389   -7.1938    7.1377 C   0  0  1  0  0  0  0  0  0  0  0  0
    7.6849   -7.8900    8.3001 O   0  0  0  0  0  0  0  0  0  0  0  0
    8.3890   -8.0919    5.8144 C   0  0  0  0  0  0  0  0  0  0  0  0
    7.3346   -7.9046    4.5551 C   0  0  1  0  0  0  0  0  0  0  0  0
    7.2250   -9.1906    4.0130 O   0  0  0  0  0  0  0  0  0  0  0  0
    4.4111   -9.1162    2.1446 C   0  0  1  0  0  0  0  0  0  0  0  0
    5.8212   -9.5220    1.5917 C   0  0  0  0  0  0  0  0  0  0  0  0
    3.5981   -9.5160    1.0341 O   0  0  0  0  0  0  0  0  0  0  0  0
    4.2428   -7.5946    2.2267 C   0  0  1  0  0  0  0  0  0  0  0  0
    4.4811   -7.0098    0.9355 O   0  0  0  0  0  0  0  0  0  0  0  0
    2.9537   -7.0283    2.9741 C   0  0  2  0  0  0  0  0  0  0  0  0
    2.3565   -6.2215    1.9590 O   0  0  0  0  0  0  0  0  0  0  0  0
    7.2590   -4.0485    1.4980 H   0  0  0  0  0  0  0  0  0  0  0  0
    5.9997   -5.0392    0.6559 H   0  0  0  0  0  0  0  0  0  0  0  0
    5.8141   -4.4289    2.3879 H   0  0  0  0  0  0  0  0  0  0  0  0
    7.3022   -2.1728    0.1415 H   0  0  0  0  0  0  0  0  0  0  0  0
    5.8812   -1.4742   -0.7048 H   0  0  0  0  0  0  0  0  0  0  0  0
    6.4257   -3.1483   -1.0264 H   0  0  0  0  0  0  0  0  0  0  0  0
    3.9550   -1.5030    0.6898 H   0  0  0  0  0  0  0  0  0  0  0  0
    2.7860   -3.9191    4.7716 H   0  0  0  0  0  0  0  0  0  0  0  0
    1.8442   -4.5265    3.5566 H   0  0  0  0  0  0  0  0  0  0  0  0
    5.3187   -5.5545    3.6874 H   0  0  0  0  0  0  0  0  0  0  0  0
    5.6403   -4.8889    8.1903 H   0  0  0  0  0  0  0  0  0  0  0  0
    4.2883   -6.5122    8.5729 H   0  0  0  0  0  0  0  0  0  0  0  0
    2.2706   -6.5541    7.7312 H   0  0  0  0  0  0  0  0  0  0  0  0
    2.7594   -5.0196    7.2479 H   0  0  0  0  0  0  0  0  0  0  0  0
    1.6652   -7.9452    6.5142 H   0  0  0  0  0  0  0  0  0  0  0  0
    0.3568   -6.4275    6.2702 H   0  0  0  0  0  0  0  0  0  0  0  0
    0.8498   -4.9260    5.6065 H   0  0  0  0  0  0  0  0  0  0  0  0
   -0.8920   -6.2050    4.3760 H   0  0  0  0  0  0  0  0  0  0  0  0
    0.2813   -5.5887    3.3488 H   0  0  0  0  0  0  0  0  0  0  0  0
   -0.5190   -9.7196    3.9254 H   0  0  0  0  0  0  0  0  0  0  0  0
   -1.4256   -8.4167    4.6149 H   0  0  0  0  0  0  0  0  0  0  0  0
    0.0785   -8.8859    5.3490 H   0  0  0  0  0  0  0  0  0  0  0  0
   -0.6051   -8.6523    1.6930 H   0  0  0  0  0  0  0  0  0  0  0  0
   -0.2133   -6.9573    1.4629 H   0  0  0  0  0  0  0  0  0  0  0  0
   -1.6063   -7.4241    2.4353 H   0  0  0  0  0  0  0  0  0  0  0  0
    1.6611   -8.3410    1.9657 H   0  0  0  0  0  0  0  0  0  0  0  0
    1.9086   -9.7963    4.4888 H   0  0  0  0  0  0  0  0  0  0  0  0
    0.6952  -10.4951    2.9497 H   0  0  0  0  0  0  0  0  0  0  0  0
    3.7312  -11.3254    2.3202 H   0  0  0  0  0  0  0  0  0  0  0  0
    3.5534   -9.6101    5.5841 H   0  0  0  0  0  0  0  0  0  0  0  0
    3.9190  -11.4144    5.3829 H   0  0  0  0  0  0  0  0  0  0  0  0
    5.6186  -10.1023    6.6610 H   0  0  0  0  0  0  0  0  0  0  0  0
    5.2580   -8.2819    8.1111 H   0  0  0  0  0  0  0  0  0  0  0  0
    3.7488   -8.5974    7.4658 H   0  0  0  0  0  0  0  0  0  0  0  0
    8.0974   -5.9383    5.1095 H   0  0  0  0  0  0  0  0  0  0  0  0
    7.0254   -5.1296    4.8531 H   0  0  0  0  0  0  0  0  0  0  0  0
    9.0139   -4.7138    6.9014 H   0  0  0  0  0  0  0  0  0  0  0  0
    8.1598   -4.6977    8.4356 H   0  0  0  0  0  0  0  0  0  0  0  0
    7.5790   -3.7252    7.0915 H   0  0  0  0  0  0  0  0  0  0  0  0
    9.0366   -6.8420    7.4220 H   0  0  0  0  0  0  0  0  0  0  0  0
    6.9025   -8.3870    8.0796 H   0  0  0  0  0  0  0  0  0  0  0  0
    9.3678   -7.7826    5.4496 H   0  0  0  0  0  0  0  0  0  0  0  0
    8.5418   -9.1346    6.0879 H   0  0  0  0  0  0  0  0  0  0  0  0
    7.8004   -7.3663    3.7216 H   0  0  0  0  0  0  0  0  0  0  0  0
    6.8570   -9.7453    4.6967 H   0  0  0  0  0  0  0  0  0  0  0  0
    6.5798   -8.7521    1.7367 H   0  0  0  0  0  0  0  0  0  0  0  0
    5.8192   -9.6637    0.5105 H   0  0  0  0  0  0  0  0  0  0  0  0
    6.1977  -10.4562    2.0107 H   0  0  0  0  0  0  0  0  0  0  0  0
    3.8290  -10.4099    0.7546 H   0  0  0  0  0  0  0  0  0  0  0  0
    5.1561   -7.3325    2.7136 H   0  0  0  0  0  0  0  0  0  0  0  0
    5.3775   -7.2417    0.7399 H   0  0  0  0  0  0  0  0  0  0  0  0
    2.4903   -6.7055    1.1455 H   0  0  0  0  0  0  0  0  0  0  0  0
  1  2  1  0
  1 49  1  0
  1 50  1  0
  1 51  1  0
  2  3  1  0
  2  4  2  3
  3 52  1  0
  3 53  1  0
  3 54  1  0
  4  5  1  0
  4 55  1  0
  5  6  2  0
  5  7  1  0
  7  8  1  0
  9  8  1  6
  8 56  1  0
  8 57  1  0
  9 16  1  0
  9 47  1  0
  9 10  1  0
 10 33  1  0
 10 11  1  0
 10 58  1  6
 11 12  2  0
 11 13  1  1
 13 35  1  0
 13 14  1  0
 13 59  1  1
 14 32  1  0
 14 15  1  0
 14 60  1  1
 15 16  1  0
 15 61  1  0
 15 62  1  0
 16 17  1  1
 16 18  1  0
 17 63  1  0
 18 19  1  0
 18 64  1  0
 18 65  1  0
 19 20  1  0
 19 66  1  0
 19 67  1  0
 20 21  1  0
 20 22  1  0
 20 23  1  0
 21 68  1  0
 21 69  1  0
 21 70  1  0
 22 71  1  0
 22 72  1  0
 22 73  1  0
 23 47  1  0
 23 24  1  0
 23 74  1  6
 24 25  1  0
 24 26  1  0
 24 75  1  1
 25 76  1  0
 26 27  1  6
 26 28  1  0
 26 42  1  0
 27 77  1  0
 28 29  1  0
 28 30  1  0
 28 78  1  1
 29 79  1  0
 30 31  1  1
 30 32  1  0
 30 33  1  0
 31 80  1  0
 32 81  1  0
 32 82  1  0
 33 40  1  0
 33 34  1  1
 34 35  1  0
 34 83  1  0
 34 84  1  0
 35 36  1  6
 35 37  1  0
 36 85  1  0
 36 86  1  0
 36 87  1  0
 37 38  1  0
 37 39  1  0
 37 88  1  1
 38 89  1  0
 39 40  1  0
 39 90  1  0
 39 91  1  0
 40 41  1  0
 40 92  1  6
 41 93  1  0
 42 43  1  0
 42 44  1  6
 42 45  1  0
 43 94  1  0
 43 95  1  0
 43 96  1  0
 44 97  1  0
 45 46  1  0
 45 47  1  0
 45 98  1  1
 46 99  1  0
 47 48  1  6
 48100  1  0
M  END
>  <i_m_ct_stereo_status>  (43) 
1

>  <s_m_source_file>  (43) 
/var/tmp/pbs.5075288.sched01/tmpsukb34hn/166582q88ej.sdf

>  <i_m_source_file_index>  (43) 
47

>  <i_lp_mmshare_version>  (43) 
48012

>  <i_f3d_flags>  (43) 
0

>  <s_epik_input>  (43) 
W0NIM11DKFtDSDNdKT1bQ0hdQyg9TylPW0NIMl1bQ0BAXTEoW0NAQEhdMltDQF0zNDUpW0NAQF02KFtPSF0pW0NIMl1bQ0BIXShbQ0BIXShbUytdMltPLV0pW0NAQF0oW0NIMl00KShbQ0gzXSlbQ0BASF0oW09IXSlbQ0gyXVtDQEhdNVtPSF0pW0NIMl1bQ0BAXTMoW09IXSlbQ0BIXShbT0hdKVtDQEBdNyhbT0hdKVtDQEhdKFtPSF0pW0NAQEhdKEMoW0NIM10pKFtDSDNdKVtDSDJdW0NIMl02KVtDQF0xKFtPSF0pW0NASF0oW09IXSlbQ0BdNyhbQ0gzXSlbT0hd

>  <s_epik_cmdline>  (43) 
J2VwaWtfcHl0aG9uJywgJy1waHQnLCAnMi4wJywgJy1waCcsICc3LjAnLCAnLXRuJywgJzgnLCAnLW1hJywgJzIwMCcsICctaW1hZScsICc8aW5maWxlLm1hZT4nLCAnLW9tYWUnLCAnPG91dGZpbGUubWFlPic=

>  <r_lp_tautomer_probability>  (43) 
1

>  <r_epik_Ionization_Penalty>  (43) 
4.9002e-06

>  <r_epik_Ionization_Penalty_Charging>  (43) 
0

>  <r_epik_Ionization_Penalty_Neutral>  (43) 
4.9002e-06

>  <r_epik_State_Penalty>  (43) 
-0

>  <r_epik_Charging_Adjusted_Penalty>  (43) 
0

>  <i_epik_Tot_Q>  (43) 
0

>  <i_epik_Tot_abs_Q>  (43) 
2

>  <s_epik_Chemistry_Notes>  (43) 
This compound has an ester and may undergo hydrolysis at high or low pH.

>  <s_lp_Force_Field>  (43) 
OPLS3e

>  <r_lp_Energy>  (43) 
437.476

>  <b_lp_Chiralities_Consistent>  (43) 
1

>  <s_lp_Variant>  (43) 
58:0-1

>  <s_i_glide_gridfile>  (43) 
pfpi4k_grid

>  <i_i_glide_lignum>  (43) 
47

>  <i_i_glide_rotatable_bonds>  (43) 
14

>  <r_i_docking_score>  (43) 
-2.7331

>  <r_i_glide_ligand_efficiency>  (43) 
-0.0569396

>  <r_i_glide_ligand_efficiency_sa>  (43) 
-0.206932

>  <r_i_glide_ligand_efficiency_ln>  (43) 
-0.561073

>  <r_i_glide_gscore>  (43) 
-2.7331

>  <r_i_glide_lipo>  (43) 
-0.162444

>  <r_i_glide_hbond>  (43) 
0

>  <r_i_glide_metal>  (43) 
-0

>  <r_i_glide_rewards>  (43) 
-0.5

>  <r_i_glide_evdw>  (43) 
-33.8067

>  <r_i_glide_ecoul>  (43) 
-3.69567

>  <r_i_glide_erotb>  (43) 
0.174609

>  <r_i_glide_esite>  (43) 
-0.000580682

>  <r_i_glide_emodel>  (43) 
-45.9992

>  <r_i_glide_energy>  (43) 
-37.5024

>  <r_i_glide_einternal>  (43) 
2.64157

>  <r_i_glide_intrahb_reward>  (43) 
-0.5

>  <i_i_glide_confnum>  (43) 
4

>  <i_i_glide_posenum>  (43) 
10

>  <r_i_glide_eff_state_penalty>  (43) 
0

>  <ligand_id>  (43) 
58

>  <original_smiles>  (43) 
CC(C)=CC(=O)OCC12C3[S+]([O-])C4C5CC1(O)CCC(C)(C)C1C(O)C(O)(C(O)C(O)(C5)C35CC4(C)C(O)CC5O)C(C)(O)C(O)C12O

>  <smiles>  (43) 
[H]OC1([H])C2([H])C3(O[H])C([H])(O[H])C(O[H])(C([H])([H])[H])C1(O[H])C([H])(O[H])C1(O[H])C([H])([H])C4([H])C([H])([H])C(O[H])(C([H])([H])C([H])([H])C2(C([H])([H])[H])C([H])([H])[H])C3(C([H])([H])OC(=O)C([H])=C(C([H])([H])[H])C([H])([H])[H])C2([H])S(=O)C4([H])C3(C([H])([H])[H])C([H])([H])C21C([H])(O[H])C([H])([H])C3([H])O[H]

$$$$
58:0:2
     RDKit          3D

100106  0  0  1  0  0  0  0  0999 V2000
    6.1767   -4.1957    1.3888 C   0  0  0  0  0  0  0  0  0  0  0  0
    5.4597   -2.9609    0.8476 C   0  0  0  0  0  0  0  0  0  0  0  0
    6.2762   -2.3786   -0.2659 C   0  0  0  0  0  0  0  0  0  0  0  0
    4.2747   -2.4231    1.2309 C   0  0  0  0  0  0  0  0  0  0  0  0
    3.3028   -2.8700    2.2811 C   0  0  0  0  0  0  0  0  0  0  0  0
    2.2376   -2.2983    2.4929 O   0  0  0  0  0  0  0  0  0  0  0  0
    3.7228   -3.9703    2.9505 O   0  0  0  0  0  0  0  0  0  0  0  0
    2.8779   -4.5979    3.9352 C   0  0  0  0  0  0  0  0  0  0  0  0
    3.3279   -6.1123    4.2906 C   0  0  1  0  0  0  0  0  0  0  0  0
    4.9251   -5.9993    4.6208 C   0  0  1  0  0  0  0  0  0  0  0  0
    4.9131   -4.5692    5.9351 S   0  0  0  0  0  0  0  0  0  0  0  0
    5.8217   -3.4251    5.5077 O   0  0  0  0  0  0  0  0  0  0  0  0
    5.6302   -5.5747    7.3415 C   0  0  1  0  0  0  0  0  0  0  0  0
    4.4219   -6.5732    7.5165 C   0  0  1  0  0  0  0  0  0  0  0  0
    2.9677   -6.1230    7.0406 C   0  0  0  0  0  0  0  0  0  0  0  0
    2.4517   -6.4640    5.5854 C   0  0  2  0  0  0  0  0  0  0  0  0
    2.2567   -7.8170    5.7647 O   0  0  0  0  0  0  0  0  0  0  0  0
    0.9602   -6.0468    5.4548 C   0  0  0  0  0  0  0  0  0  0  0  0
    0.1886   -6.3809    4.1397 C   0  0  0  0  0  0  0  0  0  0  0  0
    0.3534   -7.7705    3.4724 C   0  0  0  0  0  0  0  0  0  0  0  0
   -0.3574   -8.7974    4.3911 C   0  0  0  0  0  0  0  0  0  0  0  0
   -0.5384   -7.7173    2.1987 C   0  0  0  0  0  0  0  0  0  0  0  0
    1.8545   -8.1612    3.0399 C   0  0  2  0  0  0  0  0  0  0  0  0
    2.3493   -9.5848    3.4935 C   0  0  1  0  0  0  0  0  0  0  0  0
    1.6476  -10.5587    2.7225 O   0  0  0  0  0  0  0  0  0  0  0  0
    3.9217   -9.7907    3.4780 C   0  0  2  0  0  0  0  0  0  0  0  0
    4.1241  -11.1862    3.2009 O   0  0  0  0  0  0  0  0  0  0  0  0
    4.5021   -9.6073    5.0162 C   0  0  1  0  0  0  0  0  0  0  0  0
    4.7710  -10.9276    5.5599 O   0  0  0  0  0  0  0  0  0  0  0  0
    5.3124   -8.4290    5.8565 C   0  0  2  0  0  0  0  0  0  0  0  0
    6.1997   -9.3243    6.5079 O   0  0  0  0  0  0  0  0  0  0  0  0
    4.6833   -8.0417    7.2445 C   0  0  0  0  0  0  0  0  0  0  0  0
    6.0272   -7.1873    5.0716 C   0  0  2  0  0  0  0  0  0  0  0  0
    7.0862   -6.0271    5.4828 C   0  0  0  0  0  0  0  0  0  0  0  0
    7.1624   -5.8981    6.9420 C   0  0  1  0  0  0  0  0  0  0  0  0
    8.0292   -4.6931    7.3837 C   0  0  0  0  0  0  0  0  0  0  0  0
    8.0701   -7.1976    7.1541 C   0  0  1  0  0  0  0  0  0  0  0  0
    7.7224   -7.9041    8.3091 O   0  0  0  0  0  0  0  0  0  0  0  0
    8.4258   -8.0857    5.8259 C   0  0  0  0  0  0  0  0  0  0  0  0
    7.3703   -7.8988    4.5678 C   0  0  1  0  0  0  0  0  0  0  0  0
    7.2676   -9.1799    4.0181 O   0  0  0  0  0  0  0  0  0  0  0  0
    4.4569   -9.1107    2.1508 C   0  0  1  0  0  0  0  0  0  0  0  0
    5.8652   -9.5126    1.5916 C   0  0  0  0  0  0  0  0  0  0  0  0
    3.6216   -9.4480    1.0404 O   0  0  0  0  0  0  0  0  0  0  0  0
    4.2826   -7.5902    2.2388 C   0  0  1  0  0  0  0  0  0  0  0  0
    4.5185   -6.9832    0.9479 O   0  0  0  0  0  0  0  0  0  0  0  0
    2.9888   -7.0437    2.9889 C   0  0  2  0  0  0  0  0  0  0  0  0
    2.3864   -6.2337    1.9811 O   0  0  0  0  0  0  0  0  0  0  0  0
    7.2646   -4.0190    1.4931 H   0  0  0  0  0  0  0  0  0  0  0  0
    6.0115   -5.0459    0.6621 H   0  0  0  0  0  0  0  0  0  0  0  0
    5.8278   -4.4318    2.3934 H   0  0  0  0  0  0  0  0  0  0  0  0
    7.2721   -2.1612    0.1293 H   0  0  0  0  0  0  0  0  0  0  0  0
    5.8387   -1.4835   -0.7118 H   0  0  0  0  0  0  0  0  0  0  0  0
    6.3981   -3.1527   -1.0233 H   0  0  0  0  0  0  0  0  0  0  0  0
    3.9176   -1.5310    0.6934 H   0  0  0  0  0  0  0  0  0  0  0  0
    2.7941   -3.9456    4.8014 H   0  0  0  0  0  0  0  0  0  0  0  0
    1.8607   -4.5563    3.5872 H   0  0  0  0  0  0  0  0  0  0  0  0
    5.3434   -5.5538    3.7069 H   0  0  0  0  0  0  0  0  0  0  0  0
    5.6546   -4.9210    8.2222 H   0  0  0  0  0  0  0  0  0  0  0  0
    4.3096   -6.5541    8.5894 H   0  0  0  0  0  0  0  0  0  0  0  0
    2.2950   -6.6175    7.7334 H   0  0  0  0  0  0  0  0  0  0  0  0
    2.7720   -5.0630    7.2773 H   0  0  0  0  0  0  0  0  0  0  0  0
    1.7897   -8.1383    4.9939 H   0  0  0  0  0  0  0  0  0  0  0  0
    0.3932   -6.4893    6.2838 H   0  0  0  0  0  0  0  0  0  0  0  0
    0.8639   -4.9705    5.6336 H   0  0  0  0  0  0  0  0  0  0  0  0
   -0.8621   -6.2602    4.3908 H   0  0  0  0  0  0  0  0  0  0  0  0
    0.3014   -5.6273    3.3652 H   0  0  0  0  0  0  0  0  0  0  0  0
   -0.4426   -9.7681    3.9121 H   0  0  0  0  0  0  0  0  0  0  0  0
   -1.3761   -8.4835    4.6078 H   0  0  0  0  0  0  0  0  0  0  0  0
    0.1220   -8.9410    5.3543 H   0  0  0  0  0  0  0  0  0  0  0  0
   -0.5629   -8.6824    1.6971 H   0  0  0  0  0  0  0  0  0  0  0  0
   -0.1810   -6.9856    1.4736 H   0  0  0  0  0  0  0  0  0  0  0  0
   -1.5687   -7.4648    2.4446 H   0  0  0  0  0  0  0  0  0  0  0  0
    1.6922   -8.3550    1.9717 H   0  0  0  0  0  0  0  0  0  0  0  0
    1.9644   -9.8450    4.4724 H   0  0  0  0  0  0  0  0  0  0  0  0
    1.9769  -10.4947    1.8234 H   0  0  0  0  0  0  0  0  0  0  0  0
    3.8558  -11.3675    2.3002 H   0  0  0  0  0  0  0  0  0  0  0  0
    3.5958   -9.6312    5.5849 H   0  0  0  0  0  0  0  0  0  0  0  0
    3.9910  -11.4392    5.3666 H   0  0  0  0  0  0  0  0  0  0  0  0
    5.6656  -10.1219    6.6606 H   0  0  0  0  0  0  0  0  0  0  0  0
    5.2922   -8.3140    8.1174 H   0  0  0  0  0  0  0  0  0  0  0  0
    3.7805   -8.6277    7.4653 H   0  0  0  0  0  0  0  0  0  0  0  0
    8.1197   -5.9305    5.1347 H   0  0  0  0  0  0  0  0  0  0  0  0
    7.0439   -5.1317    4.8760 H   0  0  0  0  0  0  0  0  0  0  0  0
    9.0266   -4.7103    6.9331 H   0  0  0  0  0  0  0  0  0  0  0  0
    8.1706   -4.7092    8.4664 H   0  0  0  0  0  0  0  0  0  0  0  0
    7.5843   -3.7333    7.1270 H   0  0  0  0  0  0  0  0  0  0  0  0
    9.0655   -6.8389    7.4407 H   0  0  0  0  0  0  0  0  0  0  0  0
    6.9377   -8.4047    8.0847 H   0  0  0  0  0  0  0  0  0  0  0  0
    9.4025   -7.7670    5.4627 H   0  0  0  0  0  0  0  0  0  0  0  0
    8.5854   -9.1283    6.0943 H   0  0  0  0  0  0  0  0  0  0  0  0
    7.8326   -7.3508    3.7371 H   0  0  0  0  0  0  0  0  0  0  0  0
    6.9107   -9.7431    4.7061 H   0  0  0  0  0  0  0  0  0  0  0  0
    6.6216   -8.7419    1.7391 H   0  0  0  0  0  0  0  0  0  0  0  0
    5.8555   -9.6466    0.5078 H   0  0  0  0  0  0  0  0  0  0  0  0
    6.2529  -10.4454    2.0040 H   0  0  0  0  0  0  0  0  0  0  0  0
    3.8508  -10.3546    0.7226 H   0  0  0  0  0  0  0  0  0  0  0  0
    5.1985   -7.3254    2.7197 H   0  0  0  0  0  0  0  0  0  0  0  0
    5.4113   -7.2207    0.7483 H   0  0  0  0  0  0  0  0  0  0  0  0
    2.5257   -6.7109    1.1574 H   0  0  0  0  0  0  0  0  0  0  0  0
  1  2  1  0
  1 49  1  0
  1 50  1  0
  1 51  1  0
  2  3  1  0
  2  4  2  3
  3 52  1  0
  3 53  1  0
  3 54  1  0
  4  5  1  0
  4 55  1  0
  5  6  2  0
  5  7  1  0
  7  8  1  0
  9  8  1  6
  8 56  1  0
  8 57  1  0
  9 16  1  0
  9 47  1  0
  9 10  1  0
 10 33  1  0
 10 11  1  0
 10 58  1  6
 11 12  2  0
 11 13  1  1
 13 35  1  0
 13 14  1  0
 13 59  1  1
 14 32  1  0
 14 15  1  0
 14 60  1  1
 15 16  1  0
 15 61  1  0
 15 62  1  0
 16 17  1  1
 16 18  1  0
 17 63  1  0
 18 19  1  0
 18 64  1  0
 18 65  1  0
 19 20  1  0
 19 66  1  0
 19 67  1  0
 20 21  1  0
 20 22  1  0
 20 23  1  0
 21 68  1  0
 21 69  1  0
 21 70  1  0
 22 71  1  0
 22 72  1  0
 22 73  1  0
 23 47  1  0
 23 24  1  0
 23 74  1  6
 24 25  1  0
 24 26  1  0
 24 75  1  1
 25 76  1  0
 26 27  1  6
 26 28  1  0
 26 42  1  0
 27 77  1  0
 28 29  1  0
 28 30  1  0
 28 78  1  1
 29 79  1  0
 30 31  1  1
 30 32  1  0
 30 33  1  0
 31 80  1  0
 32 81  1  0
 32 82  1  0
 33 40  1  0
 33 34  1  1
 34 35  1  0
 34 83  1  0
 34 84  1  0
 35 36  1  6
 35 37  1  0
 36 85  1  0
 36 86  1  0
 36 87  1  0
 37 38  1  0
 37 39  1  0
 37 88  1  1
 38 89  1  0
 39 40  1  0
 39 90  1  0
 39 91  1  0
 40 41  1  0
 40 92  1  6
 41 93  1  0
 42 43  1  0
 42 44  1  6
 42 45  1  0
 43 94  1  0
 43 95  1  0
 43 96  1  0
 44 97  1  0
 45 46  1  0
 45 47  1  0
 45 98  1  1
 46 99  1  0
 47 48  1  6
 48100  1  0
M  END
>  <i_m_ct_stereo_status>  (44) 
1

>  <s_m_source_file>  (44) 
/var/tmp/pbs.5075288.sched01/tmpsukb34hn/166582q88ej.sdf

>  <i_m_source_file_index>  (44) 
47

>  <i_lp_mmshare_version>  (44) 
48012

>  <i_f3d_flags>  (44) 
0

>  <s_epik_input>  (44) 
W0NIM11DKFtDSDNdKT1bQ0hdQyg9TylPW0NIMl1bQ0BAXTEoW0NAQEhdMltDQF0zNDUpW0NAQF02KFtPSF0pW0NIMl1bQ0BIXShbQ0BIXShbUytdMltPLV0pW0NAQF0oW0NIMl00KShbQ0gzXSlbQ0BASF0oW09IXSlbQ0gyXVtDQEhdNVtPSF0pW0NIMl1bQ0BAXTMoW09IXSlbQ0BIXShbT0hdKVtDQEBdNyhbT0hdKVtDQEhdKFtPSF0pW0NAQEhdKEMoW0NIM10pKFtDSDNdKVtDSDJdW0NIMl02KVtDQF0xKFtPSF0pW0NASF0oW09IXSlbQ0BdNyhbQ0gzXSlbT0hd

>  <s_epik_cmdline>  (44) 
J2VwaWtfcHl0aG9uJywgJy1waHQnLCAnMi4wJywgJy1waCcsICc3LjAnLCAnLXRuJywgJzgnLCAnLW1hJywgJzIwMCcsICctaW1hZScsICc8aW5maWxlLm1hZT4nLCAnLW9tYWUnLCAnPG91dGZpbGUubWFlPic=

>  <r_lp_tautomer_probability>  (44) 
1

>  <r_epik_Ionization_Penalty>  (44) 
4.9002e-06

>  <r_epik_Ionization_Penalty_Charging>  (44) 
0

>  <r_epik_Ionization_Penalty_Neutral>  (44) 
4.9002e-06

>  <r_epik_State_Penalty>  (44) 
-0

>  <r_epik_Charging_Adjusted_Penalty>  (44) 
0

>  <i_epik_Tot_Q>  (44) 
0

>  <i_epik_Tot_abs_Q>  (44) 
2

>  <s_epik_Chemistry_Notes>  (44) 
This compound has an ester and may undergo hydrolysis at high or low pH.

>  <s_lp_Force_Field>  (44) 
OPLS3e

>  <r_lp_Energy>  (44) 
437.476

>  <b_lp_Chiralities_Consistent>  (44) 
1

>  <s_lp_Variant>  (44) 
58:0-1

>  <s_i_glide_gridfile>  (44) 
pfpi4k_grid

>  <i_i_glide_lignum>  (44) 
47

>  <i_i_glide_rotatable_bonds>  (44) 
14

>  <r_i_docking_score>  (44) 
-2.62024

>  <r_i_glide_ligand_efficiency>  (44) 
-0.0545884

>  <r_i_glide_ligand_efficiency_sa>  (44) 
-0.198387

>  <r_i_glide_ligand_efficiency_ln>  (44) 
-0.537905

>  <r_i_glide_gscore>  (44) 
-2.62024

>  <r_i_glide_lipo>  (44) 
-0.161406

>  <r_i_glide_hbond>  (44) 
0

>  <r_i_glide_metal>  (44) 
-0

>  <r_i_glide_rewards>  (44) 
-0.5

>  <r_i_glide_evdw>  (44) 
-34.5292

>  <r_i_glide_ecoul>  (44) 
-3.94854

>  <r_i_glide_erotb>  (44) 
0.174609

>  <r_i_glide_esite>  (44) 
-0.000466466

>  <r_i_glide_emodel>  (44) 
-45.5105

>  <r_i_glide_energy>  (44) 
-38.4777

>  <r_i_glide_einternal>  (44) 
2.3372

>  <r_i_glide_intrahb_reward>  (44) 
-0.5

>  <i_i_glide_confnum>  (44) 
4

>  <i_i_glide_posenum>  (44) 
26

>  <r_i_glide_eff_state_penalty>  (44) 
0

>  <ligand_id>  (44) 
58

>  <original_smiles>  (44) 
CC(C)=CC(=O)OCC12C3[S+]([O-])C4C5CC1(O)CCC(C)(C)C1C(O)C(O)(C(O)C(O)(C5)C35CC4(C)C(O)CC5O)C(C)(O)C(O)C12O

>  <smiles>  (44) 
[H]OC1([H])C2([H])C3(O[H])C([H])(O[H])C(O[H])(C([H])([H])[H])C1(O[H])C([H])(O[H])C1(O[H])C([H])([H])C4([H])C([H])([H])C(O[H])(C([H])([H])C([H])([H])C2(C([H])([H])[H])C([H])([H])[H])C3(C([H])([H])OC(=O)C([H])=C(C([H])([H])[H])C([H])([H])[H])C2([H])S(=O)C4([H])C3(C([H])([H])[H])C([H])([H])C21C([H])(O[H])C([H])([H])C3([H])O[H]

$$$$
59:0:0
     RDKit          3D

117126  0  0  1  0  0  0  0  0999 V2000
   -0.1301   -6.7115    9.3245 C   0  0  0  0  0  0  0  0  0  0  0  0
    1.1686   -6.5816    9.0570 C   0  0  0  0  0  0  0  0  0  0  0  0
    1.8493   -6.4947    7.7774 C   0  0  0  0  0  0  0  0  0  0  0  0
    1.3370   -6.6666    6.7018 O   0  0  0  0  0  0  0  0  0  0  0  0
    3.2630   -6.3165    8.2726 C   0  0  1  0  0  0  0  0  0  0  0  0
    4.3507   -5.9615    7.1886 C   0  0  1  0  0  0  0  0  0  0  0  0
    3.9515   -5.8685    5.6672 C   0  0  0  0  0  0  0  0  0  0  0  0
    4.8559   -5.1807    4.5719 C   0  0  2  0  0  0  0  0  0  0  0  0
    6.3364   -5.5620    4.9152 C   0  0  0  0  0  0  0  0  0  0  0  0
    4.7664   -3.5503    4.3662 C   0  0  1  0  0  0  0  0  0  0  0  0
    4.4132   -3.0719    2.8804 C   0  0  0  0  0  0  0  0  0  0  0  0
    5.4168   -3.2914    1.6796 C   0  0  1  0  0  0  0  0  0  0  0  0
    5.2383   -4.6702    0.9645 C   0  0  2  0  0  0  0  0  0  0  0  0
    3.9562   -4.6737    0.1047 C   0  0  0  0  0  0  0  0  0  0  0  0
    3.8420   -3.5382   -0.9490 C   0  0  1  0  0  0  0  0  0  0  0  0
    4.8225   -3.8014   -1.9338 O   0  0  0  0  0  0  0  0  0  0  0  0
    2.4755   -3.5113   -1.7215 C   0  0  0  0  0  0  0  0  0  0  0  0
    1.4764   -4.3443   -1.1634 O   0  0  0  0  0  0  0  0  0  0  0  0
    4.1680   -2.1506   -0.3291 C   0  0  1  0  0  0  0  0  0  0  0  0
    3.0571   -1.6914    0.4349 O   0  0  0  0  0  0  0  0  0  0  0  0
    5.4353   -2.1458    0.5892 C   0  0  1  0  0  0  0  0  0  0  0  0
    5.7354   -0.7210    1.1072 C   0  0  0  0  0  0  0  0  0  0  0  0
    6.5940   -2.3533   -0.2084 O   0  0  0  0  0  0  0  0  0  0  0  0
    5.4029   -5.8478    1.9607 C   0  0  2  0  0  0  0  0  0  0  0  0
    6.9254   -6.1513    1.9975 C   0  0  0  0  0  0  0  0  0  0  0  0
    4.9682   -7.1899    1.5931 O   0  0  0  0  0  0  0  0  0  0  0  0
    4.5376   -7.4327    2.9772 C   0  0  2  0  0  0  0  0  0  0  0  0
    3.1068   -7.8631    3.1055 C   0  0  0  0  0  0  0  0  0  0  0  0
    2.4870   -8.7496    3.8818 C   0  0  0  0  0  0  0  0  0  0  0  0
    1.1067   -8.2884    3.9876 C   0  0  0  0  0  0  0  0  0  0  0  0
    0.1936   -8.8877    4.5497 O   0  0  0  0  0  0  0  0  0  0  0  0
    0.9267   -6.9267    3.3004 C   0  0  1  0  0  0  0  0  0  0  0  0
    0.6605   -5.8454    4.1970 O   0  0  0  0  0  0  0  0  0  0  0  0
   -0.5947   -5.8720    4.8778 C   0  0  0  0  0  0  0  0  0  0  0  0
    2.2748   -6.7850    2.5639 C   0  0  2  0  0  0  0  0  0  0  0  0
    1.9956   -7.0317    1.0768 C   0  0  0  0  0  0  0  0  0  0  0  0
    3.0565   -5.6258    2.8949 O   0  0  0  0  0  0  0  0  0  0  0  0
    4.4662   -5.9071    3.2105 C   0  0  1  0  0  0  0  0  0  0  0  0
    4.2275   -2.4305    5.4415 C   0  0  2  0  0  0  0  0  0  0  0  0
    5.2195   -1.2288    5.7692 C   0  0  0  0  0  0  0  0  0  0  0  0
    6.5150   -1.6500    6.5064 C   0  0  0  0  0  0  0  0  0  0  0  0
    5.6124   -0.4412    4.5039 C   0  0  0  0  0  0  0  0  0  0  0  0
    4.6552   -0.1666    6.5621 O   0  0  0  0  0  0  0  0  0  0  0  0
    3.3928   -0.0942    7.0504 C   0  0  0  0  0  0  0  0  0  0  0  0
    2.9829    0.8639    7.6951 O   0  0  0  0  0  0  0  0  0  0  0  0
    2.4784   -1.2991    6.8247 C   0  0  0  0  0  0  0  0  0  0  0  0
    3.2015   -2.6525    6.6404 C   0  0  1  0  0  0  0  0  0  0  0  0
    2.1457   -3.4341    6.1205 O   0  0  0  0  0  0  0  0  0  0  0  0
    3.7133   -3.2141    8.0529 C   0  0  1  0  0  0  0  0  0  0  0  0
    4.1523   -2.1654    8.8971 O   0  0  0  0  0  0  0  0  0  0  0  0
    2.6634   -3.9357    9.0135 C   0  0  0  0  0  0  0  0  0  0  0  0
    3.1422   -5.3315    9.5071 C   0  0  2  0  0  0  0  0  0  0  0  0
    4.1372   -5.0189   10.4614 O   0  0  0  0  0  0  0  0  0  0  0  0
    2.3385   -6.5570    9.9917 C   0  0  2  0  0  0  0  0  0  0  0  0
    3.4041   -7.4941    9.2965 C   0  0  0  0  0  0  0  0  0  0  0  0
    2.9504   -8.9232    8.8473 C   0  0  0  0  0  0  0  0  0  0  0  0
    4.7740   -7.7419    9.9487 C   0  0  0  0  0  0  0  0  0  0  0  0
    5.1289   -4.3261    7.6073 S   0  0  0  0  0  0  0  0  0  0  0  0
    6.1270   -4.5003    8.7544 O   0  0  0  0  0  0  0  0  0  0  0  0
   -0.4535   -6.8151   10.3561 H   0  0  0  0  0  0  0  0  0  0  0  0
   -0.8754   -6.7269    8.5434 H   0  0  0  0  0  0  0  0  0  0  0  0
    5.1690   -6.7009    7.2362 H   0  0  0  0  0  0  0  0  0  0  0  0
    3.8822   -6.9237    5.4133 H   0  0  0  0  0  0  0  0  0  0  0  0
    2.9550   -5.5034    5.4737 H   0  0  0  0  0  0  0  0  0  0  0  0
    7.0423   -5.0557    4.2692 H   0  0  0  0  0  0  0  0  0  0  0  0
    6.5095   -6.6344    4.8336 H   0  0  0  0  0  0  0  0  0  0  0  0
    6.6946   -5.2912    5.9017 H   0  0  0  0  0  0  0  0  0  0  0  0
    5.8113   -3.2838    4.3712 H   0  0  0  0  0  0  0  0  0  0  0  0
    3.4028   -3.3586    2.6087 H   0  0  0  0  0  0  0  0  0  0  0  0
    4.2994   -2.0007    2.8988 H   0  0  0  0  0  0  0  0  0  0  0  0
    6.4147   -3.2776    2.1105 H   0  0  0  0  0  0  0  0  0  0  0  0
    6.0340   -4.7846    0.2314 H   0  0  0  0  0  0  0  0  0  0  0  0
    3.8904   -5.6258   -0.4151 H   0  0  0  0  0  0  0  0  0  0  0  0
    3.1136   -4.5776    0.7751 H   0  0  0  0  0  0  0  0  0  0  0  0
    4.5830   -4.6121   -2.3622 H   0  0  0  0  0  0  0  0  0  0  0  0
    2.0637   -2.5130   -1.7959 H   0  0  0  0  0  0  0  0  0  0  0  0
    2.5719   -3.8440   -2.7545 H   0  0  0  0  0  0  0  0  0  0  0  0
    1.7539   -5.2218   -1.3641 H   0  0  0  0  0  0  0  0  0  0  0  0
    4.3200   -1.4266   -1.1370 H   0  0  0  0  0  0  0  0  0  0  0  0
    2.3311   -1.4532   -0.1404 H   0  0  0  0  0  0  0  0  0  0  0  0
    4.9250   -0.3090    1.7052 H   0  0  0  0  0  0  0  0  0  0  0  0
    5.8714   -0.0253    0.2781 H   0  0  0  0  0  0  0  0  0  0  0  0
    6.6566   -0.6903    1.6892 H   0  0  0  0  0  0  0  0  0  0  0  0
    6.4721   -3.1623   -0.6865 H   0  0  0  0  0  0  0  0  0  0  0  0
    7.5198   -5.2639    2.2152 H   0  0  0  0  0  0  0  0  0  0  0  0
    7.2748   -6.5078    1.0244 H   0  0  0  0  0  0  0  0  0  0  0  0
    7.1981   -6.9312    2.7112 H   0  0  0  0  0  0  0  0  0  0  0  0
    5.2408   -8.0177    3.5647 H   0  0  0  0  0  0  0  0  0  0  0  0
    2.9429   -9.4818    4.5242 H   0  0  0  0  0  0  0  0  0  0  0  0
    0.0833   -7.0017    2.6151 H   0  0  0  0  0  0  0  0  0  0  0  0
   -0.6506   -4.9851    5.5193 H   0  0  0  0  0  0  0  0  0  0  0  0
   -0.7313   -6.7336    5.5316 H   0  0  0  0  0  0  0  0  0  0  0  0
   -1.4100   -5.8983    4.1642 H   0  0  0  0  0  0  0  0  0  0  0  0
    1.3828   -7.9274    0.9544 H   0  0  0  0  0  0  0  0  0  0  0  0
    2.9101   -7.2155    0.5358 H   0  0  0  0  0  0  0  0  0  0  0  0
    1.4667   -6.1985    0.6207 H   0  0  0  0  0  0  0  0  0  0  0  0
    3.5141   -1.9317    4.7884 H   0  0  0  0  0  0  0  0  0  0  0  0
    6.9773   -2.5528    6.0972 H   0  0  0  0  0  0  0  0  0  0  0  0
    6.3331   -1.8247    7.5650 H   0  0  0  0  0  0  0  0  0  0  0  0
    7.2582   -0.8528    6.4695 H   0  0  0  0  0  0  0  0  0  0  0  0
    6.1674   -1.0401    3.7841 H   0  0  0  0  0  0  0  0  0  0  0  0
    6.2387    0.4142    4.7597 H   0  0  0  0  0  0  0  0  0  0  0  0
    4.7269   -0.0452    4.0068 H   0  0  0  0  0  0  0  0  0  0  0  0
    1.7722   -1.3386    7.6553 H   0  0  0  0  0  0  0  0  0  0  0  0
    1.9065   -1.0432    5.9364 H   0  0  0  0  0  0  0  0  0  0  0  0
    1.4890   -3.5633    6.7845 H   0  0  0  0  0  0  0  0  0  0  0  0
    3.8714   -2.3416    9.7845 H   0  0  0  0  0  0  0  0  0  0  0  0
    2.3959   -3.3247    9.8824 H   0  0  0  0  0  0  0  0  0  0  0  0
    1.7105   -4.0009    8.5014 H   0  0  0  0  0  0  0  0  0  0  0  0
    4.5202   -5.8481   10.7088 H   0  0  0  0  0  0  0  0  0  0  0  0
    2.1499   -6.6954   11.0521 H   0  0  0  0  0  0  0  0  0  0  0  0
    3.0180   -9.6518    9.6592 H   0  0  0  0  0  0  0  0  0  0  0  0
    3.5543   -9.2858    8.0065 H   0  0  0  0  0  0  0  0  0  0  0  0
    1.9173   -8.9755    8.5061 H   0  0  0  0  0  0  0  0  0  0  0  0
    4.6855   -7.8339   11.0358 H   0  0  0  0  0  0  0  0  0  0  0  0
    5.4999   -6.9627    9.7089 H   0  0  0  0  0  0  0  0  0  0  0  0
    5.2254   -8.6678    9.5759 H   0  0  0  0  0  0  0  0  0  0  0  0
  1  2  2  0
  1 60  1  0
  1 61  1  0
  2 54  1  0
  2  3  1  0
  3  4  2  0
  3  5  1  0
  5 52  1  0
  5 55  1  1
  5  6  1  0
  6 58  1  0
  6  7  1  0
  6 62  1  6
  7  8  1  0
  7 63  1  0
  7 64  1  0
  8 38  1  0
  8  9  1  1
  8 10  1  0
  9 65  1  0
  9 66  1  0
  9 67  1  0
 10 11  1  0
 10 39  1  0
 10 68  1  6
 11 12  1  0
 11 69  1  0
 11 70  1  0
 12 21  1  0
 12 13  1  0
 12 71  1  1
 13 14  1  0
 13 24  1  0
 13 72  1  6
 14 15  1  0
 14 73  1  0
 14 74  1  0
 15 16  1  6
 15 17  1  0
 15 19  1  0
 16 75  1  0
 17 18  1  0
 17 76  1  0
 17 77  1  0
 18 78  1  0
 19 20  1  0
 19 21  1  0
 19 79  1  6
 20 80  1  0
 21 22  1  0
 21 23  1  6
 22 81  1  0
 22 82  1  0
 22 83  1  0
 23 84  1  0
 24 38  1  0
 24 25  1  1
 24 26  1  0
 25 85  1  0
 25 86  1  0
 25 87  1  0
 26 27  1  0
 27 38  1  0
 27 28  1  0
 27 88  1  1
 28 35  1  0
 28 29  2  0
 29 30  1  0
 29 89  1  0
 30 31  2  0
 30 32  1  0
 32 33  1  0
 32 35  1  0
 32 90  1  6
 33 34  1  0
 34 91  1  0
 34 92  1  0
 34 93  1  0
 35 36  1  6
 35 37  1  0
 36 94  1  0
 36 95  1  0
 36 96  1  0
 38 37  1  6
 39 47  1  0
 39 40  1  0
 39 97  1  6
 40 41  1  0
 40 42  1  0
 40 43  1  0
 41 98  1  0
 41 99  1  0
 41100  1  0
 42101  1  0
 42102  1  0
 42103  1  0
 43 44  1  0
 44 45  2  0
 44 46  1  0
 46 47  1  0
 46104  1  0
 46105  1  0
 47 48  1  6
 47 49  1  0
 48106  1  0
 49 50  1  1
 49 51  1  0
 58 49  1  1
 50107  1  0
 51 52  1  0
 51108  1  0
 51109  1  0
 52 53  1  1
 52 54  1  0
 53110  1  0
 54 55  1  0
 54111  1  1
 55 56  1  0
 55 57  1  0
 56112  1  0
 56113  1  0
 56114  1  0
 57115  1  0
 57116  1  0
 57117  1  0
 58 59  2  0
M  END
>  <i_m_ct_stereo_status>  (45) 
1

>  <s_m_source_file>  (45) 
/var/tmp/pbs.5075288.sched01/tmpsukb34hn/166582q88ej.sdf

>  <i_m_source_file_index>  (45) 
48

>  <i_lp_mmshare_version>  (45) 
48012

>  <i_f3d_flags>  (45) 
0

>  <s_epik_input>  (45) 
Tz1DMUMoPVtDSDJdKVtDQEBIXShDMihbQ0gzXSlbQ0gzXSlbQ0BdMyhbT0hdKVtDSDJdW0NAQF0oW09IXSkoW1MrXTRbTy1dKVtDQEBdKFtPSF0pKFtDSDJdQyg9TylPQzUoW0NIM10pW0NIM10pW0NAQEhdNVtDQEBIXTZbQ0gyXVtDQEhdKFtDQEBdKFtDSDNdKShbT0hdKVtDQEhdKFtPSF0pW0NAXShbQ0gyXTcpKFtPSF0pW0NIMl1bT0hdKVtDQEhdN1tDQEBdKFtDSDNdKShbQ0BdODlbQ0BdNihbQ0gzXSlbQ0gyXVtDQEBIXTRbQ0BAXTEyMylPW0NAQEhdOEM9MVtDQEBdKE85KShbQ0gzXSlbQ0BASF0oQyg9TylbQ0hdMSlPW0NIM10=

>  <s_epik_cmdline>  (45) 
J2VwaWtfcHl0aG9uJywgJy1waHQnLCAnMi4wJywgJy1waCcsICc3LjAnLCAnLXRuJywgJzgnLCAnLW1hJywgJzIwMCcsICctaW1hZScsICc8aW5maWxlLm1hZT4nLCAnLW9tYWUnLCAnPG91dGZpbGUubWFlPic=

>  <r_lp_tautomer_probability>  (45) 
1

>  <r_epik_Ionization_Penalty>  (45) 
2.08962e-06

>  <r_epik_Ionization_Penalty_Charging>  (45) 
0

>  <r_epik_Ionization_Penalty_Neutral>  (45) 
2.08962e-06

>  <r_epik_State_Penalty>  (45) 
-0

>  <r_epik_Charging_Adjusted_Penalty>  (45) 
0

>  <i_epik_Tot_Q>  (45) 
0

>  <i_epik_Tot_abs_Q>  (45) 
2

>  <s_epik_Chemistry_Notes>  (45) 
This compound has an ester and may undergo hydrolysis at high or low pH.

>  <s_lp_Force_Field>  (45) 
OPLS3e

>  <r_lp_Energy>  (45) 
210.108

>  <b_lp_Chiralities_Consistent>  (45) 
1

>  <s_lp_Variant>  (45) 
59:0-1

>  <s_i_glide_gridfile>  (45) 
pfpi4k_grid

>  <i_i_glide_lignum>  (45) 
48

>  <i_i_glide_rotatable_bonds>  (45) 
9

>  <r_i_docking_score>  (45) 
-3.25002

>  <r_i_glide_ligand_efficiency>  (45) 
-0.055085

>  <r_i_glide_ligand_efficiency_sa>  (45) 
-0.214446

>  <r_i_glide_ligand_efficiency_ln>  (45) 
-0.640077

>  <r_i_glide_gscore>  (45) 
-3.25002

>  <r_i_glide_lipo>  (45) 
-0.590412

>  <r_i_glide_hbond>  (45) 
0

>  <r_i_glide_metal>  (45) 
-0

>  <r_i_glide_rewards>  (45) 
-0.5

>  <r_i_glide_evdw>  (45) 
-21.7865

>  <r_i_glide_ecoul>  (45) 
-7.23739

>  <r_i_glide_erotb>  (45) 
0.030546

>  <r_i_glide_esite>  (45) 
-0.0152163

>  <r_i_glide_emodel>  (45) 
-36.6481

>  <r_i_glide_energy>  (45) 
-29.0239

>  <r_i_glide_einternal>  (45) 
6.8794

>  <r_i_glide_intrahb_reward>  (45) 
-0.5

>  <i_i_glide_confnum>  (45) 
5

>  <i_i_glide_posenum>  (45) 
40

>  <r_i_glide_eff_state_penalty>  (45) 
0

>  <ligand_id>  (45) 
59

>  <original_smiles>  (45) 
C=C1C(=O)C23C4CC5(C)C(CC6C(CC(O)(CO)C(O)C6(C)O)C6(C)OC7C8=CC(=O)C(OC)C8(C)OC756)C5C(C)(C)OC(=O)CC5(O)C(O)(CC2(O)C1C3(C)C)[S+]4[O-]

>  <smiles>  (45) 
[H]OC([H])([H])C1(O[H])C([H])([H])C2([H])C([H])(C([H])([H])C3([H])C4([H])C(C([H])([H])[H])(C([H])([H])[H])OC(=O)C([H])([H])C4(O[H])C4(O[H])S(=O)C([H])(C([H])([H])C3(C([H])([H])[H])C35OC6(C([H])([H])[H])C(=C([H])C(=O)C6([H])OC([H])([H])[H])C3([H])OC25C([H])([H])[H])C23C(=O)C(=C([H])[H])C([H])(C2(O[H])C4([H])[H])C3(C([H])([H])[H])C([H])([H])[H])C(O[H])(C([H])([H])[H])C1([H])O[H]

$$$$
59:0:1
     RDKit          3D

117126  0  0  1  0  0  0  0  0999 V2000
    4.1524   -1.0492    2.1159 C   0  0  0  0  0  0  0  0  0  0  0  0
    3.5782   -1.6127    3.1757 C   0  0  0  0  0  0  0  0  0  0  0  0
    3.3291   -3.0116    3.4733 C   0  0  0  0  0  0  0  0  0  0  0  0
    3.5478   -3.9241    2.6975 O   0  0  0  0  0  0  0  0  0  0  0  0
    2.6446   -2.8704    4.8587 C   0  0  1  0  0  0  0  0  0  0  0  0
    2.3526   -4.1717    5.6864 C   0  0  1  0  0  0  0  0  0  0  0  0
    2.6598   -5.5697    5.0670 C   0  0  0  0  0  0  0  0  0  0  0  0
    2.7473   -6.8914    5.9292 C   0  0  2  0  0  0  0  0  0  0  0  0
    1.6195   -6.8176    7.0146 C   0  0  0  0  0  0  0  0  0  0  0  0
    4.1574   -7.2702    6.6896 C   0  0  1  0  0  0  0  0  0  0  0  0
    4.7677   -8.6944    6.2923 C   0  0  0  0  0  0  0  0  0  0  0  0
    4.0454  -10.0365    6.6995 C   0  0  1  0  0  0  0  0  0  0  0  0
    3.0085  -10.5236    5.6350 C   0  0  2  0  0  0  0  0  0  0  0  0
    3.7178  -11.1226    4.3989 C   0  0  0  0  0  0  0  0  0  0  0  0
    4.7189  -12.2665    4.6859 C   0  0  1  0  0  0  0  0  0  0  0  0
    4.0498  -13.4485    5.0786 O   0  0  0  0  0  0  0  0  0  0  0  0
    5.4918  -12.6892    3.3979 C   0  0  0  0  0  0  0  0  0  0  0  0
    4.7380  -13.4668    2.4788 O   0  0  0  0  0  0  0  0  0  0  0  0
    5.6909  -11.8766    5.8327 C   0  0  1  0  0  0  0  0  0  0  0  0
    6.6626  -10.9730    5.3373 O   0  0  0  0  0  0  0  0  0  0  0  0
    4.9946  -11.2446    7.0745 C   0  0  1  0  0  0  0  0  0  0  0  0
    6.0310  -10.9727    8.1924 C   0  0  0  0  0  0  0  0  0  0  0  0
    4.2132  -12.2375    7.7361 O   0  0  0  0  0  0  0  0  0  0  0  0
    1.9187   -9.4521    5.3964 C   0  0  2  0  0  0  0  0  0  0  0  0
    0.8306   -9.6920    6.4709 C   0  0  0  0  0  0  0  0  0  0  0  0
    1.0390   -9.5629    4.2407 O   0  0  0  0  0  0  0  0  0  0  0  0
    1.0543   -8.1073    4.0900 C   0  0  2  0  0  0  0  0  0  0  0  0
    1.4762   -7.6868    2.7269 C   0  0  0  0  0  0  0  0  0  0  0  0
    1.0773   -6.6838    1.9605 C   0  0  0  0  0  0  0  0  0  0  0  0
    2.2367   -6.3230    1.1443 C   0  0  0  0  0  0  0  0  0  0  0  0
    2.2533   -5.4748    0.2589 O   0  0  0  0  0  0  0  0  0  0  0  0
    3.4599   -7.1459    1.5249 C   0  0  1  0  0  0  0  0  0  0  0  0
    4.5075   -6.3497    2.0644 O   0  0  0  0  0  0  0  0  0  0  0  0
    5.7337   -7.0435    2.2049 C   0  0  0  0  0  0  0  0  0  0  0  0
    2.8577   -8.1607    2.5046 C   0  0  2  0  0  0  0  0  0  0  0  0
    2.8033   -9.5187    1.7864 C   0  0  0  0  0  0  0  0  0  0  0  0
    3.3723   -8.1204    3.8508 O   0  0  0  0  0  0  0  0  0  0  0  0
    2.3610   -8.0465    4.9018 C   0  0  1  0  0  0  0  0  0  0  0  0
    5.3845   -6.2555    7.0883 C   0  0  2  0  0  0  0  0  0  0  0  0
    5.8434   -6.2778    8.6079 C   0  0  0  0  0  0  0  0  0  0  0  0
    4.7790   -5.7831    9.6141 C   0  0  0  0  0  0  0  0  0  0  0  0
    6.2876   -7.6789    9.0601 C   0  0  0  0  0  0  0  0  0  0  0  0
    7.0251   -5.5112    8.9019 O   0  0  0  0  0  0  0  0  0  0  0  0
    7.7873   -4.8025    8.0275 C   0  0  0  0  0  0  0  0  0  0  0  0
    8.7979   -4.2049    8.3321 O   0  0  0  0  0  0  0  0  0  0  0  0
    7.2735   -4.7047    6.5994 C   0  0  0  0  0  0  0  0  0  0  0  0
    5.7493   -4.8505    6.4260 C   0  0  1  0  0  0  0  0  0  0  0  0
    5.6787   -4.9986    5.0271 O   0  0  0  0  0  0  0  0  0  0  0  0
    4.9925   -3.5085    6.8779 C   0  0  1  0  0  0  0  0  0  0  0  0
    5.6105   -2.8747    7.9897 O   0  0  0  0  0  0  0  0  0  0  0  0
    4.9383   -2.2887    5.8612 C   0  0  0  0  0  0  0  0  0  0  0  0
    3.4938   -1.7736    5.5856 C   0  0  2  0  0  0  0  0  0  0  0  0
    3.1589   -1.0732    6.7711 O   0  0  0  0  0  0  0  0  0  0  0  0
    2.9443   -0.9846    4.3809 C   0  0  2  0  0  0  0  0  0  0  0  0
    1.5848   -1.7558    4.6151 C   0  0  0  0  0  0  0  0  0  0  0  0
    0.6328   -1.8975    3.4085 C   0  0  0  0  0  0  0  0  0  0  0  0
    0.6063   -1.3586    5.7519 C   0  0  0  0  0  0  0  0  0  0  0  0
    3.2897   -4.1045    7.2850 S   0  0  0  0  0  0  0  0  0  0  0  0
    2.5785   -3.2078    8.3103 O   0  0  0  0  0  0  0  0  0  0  0  0
    4.2153    0.0297    2.0460 H   0  0  0  0  0  0  0  0  0  0  0  0
    4.5594   -1.6250    1.2872 H   0  0  0  0  0  0  0  0  0  0  0  0
    1.2930   -4.1785    5.9682 H   0  0  0  0  0  0  0  0  0  0  0  0
    1.8128   -5.6770    4.3954 H   0  0  0  0  0  0  0  0  0  0  0  0
    3.5072   -5.5766    4.4022 H   0  0  0  0  0  0  0  0  0  0  0  0
    1.6580   -7.6505    7.7139 H   0  0  0  0  0  0  0  0  0  0  0  0
    0.6282   -6.8044    6.5642 H   0  0  0  0  0  0  0  0  0  0  0  0
    1.6399   -5.9604    7.6807 H   0  0  0  0  0  0  0  0  0  0  0  0
    3.7982   -7.5232    7.6835 H   0  0  0  0  0  0  0  0  0  0  0  0
    5.0812   -8.7209    5.2517 H   0  0  0  0  0  0  0  0  0  0  0  0
    5.7228   -8.7880    6.7789 H   0  0  0  0  0  0  0  0  0  0  0  0
    3.5072   -9.8170    7.6209 H   0  0  0  0  0  0  0  0  0  0  0  0
    2.4964  -11.3865    6.0503 H   0  0  0  0  0  0  0  0  0  0  0  0
    2.9707  -11.5244    3.7159 H   0  0  0  0  0  0  0  0  0  0  0  0
    4.2744  -10.3385    3.8916 H   0  0  0  0  0  0  0  0  0  0  0  0
    3.5032  -13.2921    5.8422 H   0  0  0  0  0  0  0  0  0  0  0  0
    5.9023  -11.8155    2.8800 H   0  0  0  0  0  0  0  0  0  0  0  0
    6.3434  -13.3148    3.6754 H   0  0  0  0  0  0  0  0  0  0  0  0
    4.3705  -12.8802    1.7939 H   0  0  0  0  0  0  0  0  0  0  0  0
    6.2269  -12.7718    6.1541 H   0  0  0  0  0  0  0  0  0  0  0  0
    7.1776  -11.4206    4.6779 H   0  0  0  0  0  0  0  0  0  0  0  0
    6.8179  -10.2796    7.9040 H   0  0  0  0  0  0  0  0  0  0  0  0
    6.5407  -11.8947    8.4716 H   0  0  0  0  0  0  0  0  0  0  0  0
    5.5525  -10.6056    9.0998 H   0  0  0  0  0  0  0  0  0  0  0  0
    3.2957  -12.2114    7.4725 H   0  0  0  0  0  0  0  0  0  0  0  0
    1.2513   -9.7295    7.4764 H   0  0  0  0  0  0  0  0  0  0  0  0
    0.3349  -10.6570    6.3236 H   0  0  0  0  0  0  0  0  0  0  0  0
    0.0271   -8.9551    6.4570 H   0  0  0  0  0  0  0  0  0  0  0  0
    0.1697   -7.6076    4.4882 H   0  0  0  0  0  0  0  0  0  0  0  0
    0.2274   -6.0423    2.1300 H   0  0  0  0  0  0  0  0  0  0  0  0
    3.8351   -7.6016    0.6065 H   0  0  0  0  0  0  0  0  0  0  0  0
    6.4782   -6.3981    2.6745 H   0  0  0  0  0  0  0  0  0  0  0  0
    6.1051   -7.3471    1.2268 H   0  0  0  0  0  0  0  0  0  0  0  0
    5.6294   -7.9357    2.8232 H   0  0  0  0  0  0  0  0  0  0  0  0
    2.4024   -9.3922    0.7767 H   0  0  0  0  0  0  0  0  0  0  0  0
    2.1201  -10.2186    2.2561 H   0  0  0  0  0  0  0  0  0  0  0  0
    3.7915   -9.9725    1.6936 H   0  0  0  0  0  0  0  0  0  0  0  0
    6.1980   -6.8138    6.6250 H   0  0  0  0  0  0  0  0  0  0  0  0
    3.7784   -6.1799    9.4246 H   0  0  0  0  0  0  0  0  0  0  0  0
    4.7137   -4.6975    9.6251 H   0  0  0  0  0  0  0  0  0  0  0  0
    5.0472   -6.0762   10.6325 H   0  0  0  0  0  0  0  0  0  0  0  0
    5.4639   -8.3943    9.0451 H   0  0  0  0  0  0  0  0  0  0  0  0
    6.6716   -7.6557   10.0824 H   0  0  0  0  0  0  0  0  0  0  0  0
    7.0997   -8.0465    8.4337 H   0  0  0  0  0  0  0  0  0  0  0  0
    7.6015   -3.7397    6.1955 H   0  0  0  0  0  0  0  0  0  0  0  0
    7.8200   -5.4717    6.0431 H   0  0  0  0  0  0  0  0  0  0  0  0
    6.1580   -5.7818    4.7846 H   0  0  0  0  0  0  0  0  0  0  0  0
    6.3681   -3.3793    8.2584 H   0  0  0  0  0  0  0  0  0  0  0  0
    5.5904   -1.4638    6.1782 H   0  0  0  0  0  0  0  0  0  0  0  0
    5.4195   -2.5921    4.9399 H   0  0  0  0  0  0  0  0  0  0  0  0
    3.8026   -0.3798    6.8578 H   0  0  0  0  0  0  0  0  0  0  0  0
    2.8974    0.0904    4.4413 H   0  0  0  0  0  0  0  0  0  0  0  0
   -0.0181   -1.0237    3.2952 H   0  0  0  0  0  0  0  0  0  0  0  0
    0.0069   -2.7896    3.5235 H   0  0  0  0  0  0  0  0  0  0  0  0
    1.1465   -2.0087    2.4499 H   0  0  0  0  0  0  0  0  0  0  0  0
    0.5670   -0.2791    5.8879 H   0  0  0  0  0  0  0  0  0  0  0  0
    0.8565   -1.8175    6.7013 H   0  0  0  0  0  0  0  0  0  0  0  0
   -0.4119   -1.6961    5.5431 H   0  0  0  0  0  0  0  0  0  0  0  0
  1  2  2  0
  1 60  1  0
  1 61  1  0
  2 54  1  0
  2  3  1  0
  3  4  2  0
  3  5  1  0
  5 52  1  0
  5 55  1  6
  5  6  1  0
  6 58  1  0
  6  7  1  0
  6 62  1  1
  7  8  1  0
  7 63  1  0
  7 64  1  0
  8 38  1  0
  8  9  1  1
  8 10  1  0
  9 65  1  0
  9 66  1  0
  9 67  1  0
 10 11  1  0
 10 39  1  0
 10 68  1  1
 11 12  1  0
 11 69  1  0
 11 70  1  0
 12 21  1  0
 12 13  1  0
 12 71  1  1
 13 14  1  0
 13 24  1  0
 13 72  1  1
 14 15  1  0
 14 73  1  0
 14 74  1  0
 15 16  1  1
 15 17  1  0
 15 19  1  0
 16 75  1  0
 17 18  1  0
 17 76  1  0
 17 77  1  0
 18 78  1  0
 19 20  1  0
 19 21  1  0
 19 79  1  1
 20 80  1  0
 21 22  1  0
 21 23  1  1
 22 81  1  0
 22 82  1  0
 22 83  1  0
 23 84  1  0
 24 38  1  0
 24 25  1  1
 24 26  1  0
 25 85  1  0
 25 86  1  0
 25 87  1  0
 26 27  1  0
 27 38  1  0
 27 28  1  0
 27 88  1  1
 28 35  1  0
 28 29  2  0
 29 30  1  0
 29 89  1  0
 30 31  2  0
 30 32  1  0
 32 33  1  0
 32 35  1  0
 32 90  1  6
 33 34  1  0
 34 91  1  0
 34 92  1  0
 34 93  1  0
 35 36  1  6
 35 37  1  0
 36 94  1  0
 36 95  1  0
 36 96  1  0
 38 37  1  6
 39 47  1  0
 39 40  1  0
 39 97  1  6
 40 41  1  0
 40 42  1  0
 40 43  1  0
 41 98  1  0
 41 99  1  0
 41100  1  0
 42101  1  0
 42102  1  0
 42103  1  0
 43 44  1  0
 44 45  2  0
 44 46  1  0
 46 47  1  0
 46104  1  0
 46105  1  0
 47 48  1  6
 47 49  1  0
 48106  1  0
 49 50  1  1
 49 51  1  0
 58 49  1  6
 50107  1  0
 51 52  1  0
 51108  1  0
 51109  1  0
 52 53  1  1
 52 54  1  0
 53110  1  0
 54 55  1  0
 54111  1  1
 55 56  1  0
 55 57  1  0
 56112  1  0
 56113  1  0
 56114  1  0
 57115  1  0
 57116  1  0
 57117  1  0
 58 59  2  0
M  END
>  <i_m_ct_stereo_status>  (46) 
1

>  <s_m_source_file>  (46) 
/var/tmp/pbs.5075288.sched01/tmpsukb34hn/166582q88ej.sdf

>  <i_m_source_file_index>  (46) 
48

>  <i_lp_mmshare_version>  (46) 
48012

>  <i_f3d_flags>  (46) 
0

>  <s_epik_input>  (46) 
Tz1DMUMoPVtDSDJdKVtDQEBIXShDMihbQ0gzXSlbQ0gzXSlbQ0BdMyhbT0hdKVtDSDJdW0NAQF0oW09IXSkoW1MrXTRbTy1dKVtDQEBdKFtPSF0pKFtDSDJdQyg9TylPQzUoW0NIM10pW0NIM10pW0NAQEhdNVtDQEBIXTZbQ0gyXVtDQEhdKFtDQEBdKFtDSDNdKShbT0hdKVtDQEhdKFtPSF0pW0NAXShbQ0gyXTcpKFtPSF0pW0NIMl1bT0hdKVtDQEhdN1tDQEBdKFtDSDNdKShbQ0BdODlbQ0BdNihbQ0gzXSlbQ0gyXVtDQEBIXTRbQ0BAXTEyMylPW0NAQEhdOEM9MVtDQEBdKE85KShbQ0gzXSlbQ0BASF0oQyg9TylbQ0hdMSlPW0NIM10=

>  <s_epik_cmdline>  (46) 
J2VwaWtfcHl0aG9uJywgJy1waHQnLCAnMi4wJywgJy1waCcsICc3LjAnLCAnLXRuJywgJzgnLCAnLW1hJywgJzIwMCcsICctaW1hZScsICc8aW5maWxlLm1hZT4nLCAnLW9tYWUnLCAnPG91dGZpbGUubWFlPic=

>  <r_lp_tautomer_probability>  (46) 
1

>  <r_epik_Ionization_Penalty>  (46) 
2.08962e-06

>  <r_epik_Ionization_Penalty_Charging>  (46) 
0

>  <r_epik_Ionization_Penalty_Neutral>  (46) 
2.08962e-06

>  <r_epik_State_Penalty>  (46) 
-0

>  <r_epik_Charging_Adjusted_Penalty>  (46) 
0

>  <i_epik_Tot_Q>  (46) 
0

>  <i_epik_Tot_abs_Q>  (46) 
2

>  <s_epik_Chemistry_Notes>  (46) 
This compound has an ester and may undergo hydrolysis at high or low pH.

>  <s_lp_Force_Field>  (46) 
OPLS3e

>  <r_lp_Energy>  (46) 
210.108

>  <b_lp_Chiralities_Consistent>  (46) 
1

>  <s_lp_Variant>  (46) 
59:0-1

>  <s_i_glide_gridfile>  (46) 
pfpi4k_grid

>  <i_i_glide_lignum>  (46) 
48

>  <i_i_glide_rotatable_bonds>  (46) 
9

>  <r_i_docking_score>  (46) 
-2.62707

>  <r_i_glide_ligand_efficiency>  (46) 
-0.0445267

>  <r_i_glide_ligand_efficiency_sa>  (46) 
-0.173342

>  <r_i_glide_ligand_efficiency_ln>  (46) 
-0.517391

>  <r_i_glide_gscore>  (46) 
-2.62707

>  <r_i_glide_lipo>  (46) 
-0.1615

>  <r_i_glide_hbond>  (46) 
0

>  <r_i_glide_metal>  (46) 
-0

>  <r_i_glide_rewards>  (46) 
-0.00324272

>  <r_i_glide_evdw>  (46) 
-28.3574

>  <r_i_glide_ecoul>  (46) 
-7.01686

>  <r_i_glide_erotb>  (46) 
0.030546

>  <r_i_glide_esite>  (46) 
-0.0224744

>  <r_i_glide_emodel>  (46) 
-36.7355

>  <r_i_glide_energy>  (46) 
-35.3743

>  <r_i_glide_einternal>  (46) 
7.80229

>  <r_i_glide_intrahb_reward>  (46) 
-0

>  <i_i_glide_confnum>  (46) 
1

>  <i_i_glide_posenum>  (46) 
31

>  <r_i_glide_eff_state_penalty>  (46) 
0

>  <ligand_id>  (46) 
59

>  <original_smiles>  (46) 
C=C1C(=O)C23C4CC5(C)C(CC6C(CC(O)(CO)C(O)C6(C)O)C6(C)OC7C8=CC(=O)C(OC)C8(C)OC756)C5C(C)(C)OC(=O)CC5(O)C(O)(CC2(O)C1C3(C)C)[S+]4[O-]

>  <smiles>  (46) 
[H]OC([H])([H])C1(O[H])C([H])([H])C2([H])C([H])(C([H])([H])C3([H])C4([H])C(C([H])([H])[H])(C([H])([H])[H])OC(=O)C([H])([H])C4(O[H])C4(O[H])S(=O)C([H])(C([H])([H])C3(C([H])([H])[H])C35OC6(C([H])([H])[H])C(=C([H])C(=O)C6([H])OC([H])([H])[H])C3([H])OC25C([H])([H])[H])C23C(=O)C(=C([H])[H])C([H])(C2(O[H])C4([H])[H])C3(C([H])([H])[H])C([H])([H])[H])C(O[H])(C([H])([H])[H])C1([H])O[H]

$$$$
59:0:2
     RDKit          3D

117126  0  0  1  0  0  0  0  0999 V2000
    4.4739   -1.1250    2.3533 C   0  0  0  0  0  0  0  0  0  0  0  0
    3.8351   -1.7110    3.3572 C   0  0  0  0  0  0  0  0  0  0  0  0
    3.5743   -3.1098    3.6268 C   0  0  0  0  0  0  0  0  0  0  0  0
    3.8652   -4.0090    2.8647 O   0  0  0  0  0  0  0  0  0  0  0  0
    2.8074   -2.9914    4.9704 C   0  0  1  0  0  0  0  0  0  0  0  0
    2.4707   -4.3102    5.7550 C   0  0  1  0  0  0  0  0  0  0  0  0
    2.8141   -5.7033    5.1310 C   0  0  0  0  0  0  0  0  0  0  0  0
    2.8520   -7.0349    5.9721 C   0  0  2  0  0  0  0  0  0  0  0  0
    1.6597   -6.9799    6.9911 C   0  0  0  0  0  0  0  0  0  0  0  0
    4.2128   -7.4271    6.8062 C   0  0  1  0  0  0  0  0  0  0  0  0
    4.8490   -8.8455    6.4208 C   0  0  0  0  0  0  0  0  0  0  0  0
    4.1029  -10.1964    6.7649 C   0  0  1  0  0  0  0  0  0  0  0  0
    3.1344  -10.6641    5.6341 C   0  0  2  0  0  0  0  0  0  0  0  0
    3.9100  -11.2387    4.4252 C   0  0  0  0  0  0  0  0  0  0  0  0
    4.8955  -12.3844    4.7489 C   0  0  1  0  0  0  0  0  0  0  0  0
    4.2145  -13.5820    5.0820 O   0  0  0  0  0  0  0  0  0  0  0  0
    5.7397  -12.7790    3.5038 C   0  0  0  0  0  0  0  0  0  0  0  0
    4.9999  -13.4415    2.4902 O   0  0  0  0  0  0  0  0  0  0  0  0
    5.7985  -12.0216    5.9566 C   0  0  1  0  0  0  0  0  0  0  0  0
    6.7948  -11.1063    5.5385 O   0  0  0  0  0  0  0  0  0  0  0  0
    5.0292  -11.4104    7.1704 C   0  0  1  0  0  0  0  0  0  0  0  0
    5.9996  -11.1593    8.3518 C   0  0  0  0  0  0  0  0  0  0  0  0
    4.2068  -12.4181    7.7636 O   0  0  0  0  0  0  0  0  0  0  0  0
    2.0536   -9.5841    5.3425 C   0  0  2  0  0  0  0  0  0  0  0  0
    0.9013   -9.8417    6.3467 C   0  0  0  0  0  0  0  0  0  0  0  0
    1.2473   -9.6705    4.1354 O   0  0  0  0  0  0  0  0  0  0  0  0
    1.2682   -8.2177    4.0092 C   0  0  2  0  0  0  0  0  0  0  0  0
    1.7696   -7.7744    2.6862 C   0  0  0  0  0  0  0  0  0  0  0  0
    1.4194   -6.7387    1.9126 C   0  0  0  0  0  0  0  0  0  0  0  0
    2.6254   -6.3625    1.1871 C   0  0  0  0  0  0  0  0  0  0  0  0
    2.7154   -5.4912    0.3271 O   0  0  0  0  0  0  0  0  0  0  0  0
    3.8260   -7.2066    1.6082 C   0  0  1  0  0  0  0  0  0  0  0  0
    4.8347   -6.4206    2.2237 O   0  0  0  0  0  0  0  0  0  0  0  0
    6.0538   -7.1184    2.4105 C   0  0  0  0  0  0  0  0  0  0  0  0
    3.1578   -8.2395    2.5358 C   0  0  2  0  0  0  0  0  0  0  0  0
    3.1426   -9.5852    1.7925 C   0  0  0  0  0  0  0  0  0  0  0  0
    3.5943   -8.2331    3.9145 O   0  0  0  0  0  0  0  0  0  0  0  0
    2.5218   -8.1647    4.9074 C   0  0  1  0  0  0  0  0  0  0  0  0
    5.4131   -6.4173    7.2932 C   0  0  2  0  0  0  0  0  0  0  0  0
    5.7819   -6.4734    8.8336 C   0  0  0  0  0  0  0  0  0  0  0  0
    4.6654   -5.9942    9.7885 C   0  0  0  0  0  0  0  0  0  0  0  0
    6.2012   -7.8812    9.2885 C   0  0  0  0  0  0  0  0  0  0  0  0
    6.9493   -5.7223    9.2153 O   0  0  0  0  0  0  0  0  0  0  0  0
    7.7544   -4.9881    8.3992 C   0  0  0  0  0  0  0  0  0  0  0  0
    8.7474   -4.3875    8.7799 O   0  0  0  0  0  0  0  0  0  0  0  0
    7.3348   -4.8529    6.9400 C   0  0  0  0  0  0  0  0  0  0  0  0
    5.8238   -4.9987    6.6816 C   0  0  1  0  0  0  0  0  0  0  0  0
    5.8253   -5.1869    5.2908 O   0  0  0  0  0  0  0  0  0  0  0  0
    5.0341   -3.6605    7.1068 C   0  0  1  0  0  0  0  0  0  0  0  0
    5.5752   -3.0573    8.2763 O   0  0  0  0  0  0  0  0  0  0  0  0
    5.0368   -2.4238    6.1077 C   0  0  0  0  0  0  0  0  0  0  0  0
    3.6230   -1.9106    5.7594 C   0  0  2  0  0  0  0  0  0  0  0  0
    3.2096   -1.2307    6.9389 O   0  0  0  0  0  0  0  0  0  0  0  0
    3.1306   -1.1012    4.5422 C   0  0  2  0  0  0  0  0  0  0  0  0
    1.7559   -1.8785    4.6733 C   0  0  0  0  0  0  0  0  0  0  0  0
    0.8783   -2.0064    3.4082 C   0  0  0  0  0  0  0  0  0  0  0  0
    0.7206   -1.4988    5.7621 C   0  0  0  0  0  0  0  0  0  0  0  0
    3.3097   -4.2712    7.4048 S   0  0  0  0  0  0  0  0  0  0  0  0
    2.5383   -3.3913    8.4038 O   0  0  0  0  0  0  0  0  0  0  0  0
    4.5447   -0.0450    2.3067 H   0  0  0  0  0  0  0  0  0  0  0  0
    4.9326   -1.6878    1.5403 H   0  0  0  0  0  0  0  0  0  0  0  0
    1.4008   -4.3196    5.9778 H   0  0  0  0  0  0  0  0  0  0  0  0
    2.0075   -5.7901    4.4107 H   0  0  0  0  0  0  0  0  0  0  0  0
    3.6982   -5.6989    4.5180 H   0  0  0  0  0  0  0  0  0  0  0  0
    1.6577   -7.8222    7.6769 H   0  0  0  0  0  0  0  0  0  0  0  0
    0.6975   -6.9573    6.4844 H   0  0  0  0  0  0  0  0  0  0  0  0
    1.6413   -6.1360    7.6697 H   0  0  0  0  0  0  0  0  0  0  0  0
    3.7991   -7.6972    7.7747 H   0  0  0  0  0  0  0  0  0  0  0  0
    5.2204   -8.8522    5.4021 H   0  0  0  0  0  0  0  0  0  0  0  0
    5.7766   -8.9459    6.9613 H   0  0  0  0  0  0  0  0  0  0  0  0
    3.5126   -9.9938    7.6551 H   0  0  0  0  0  0  0  0  0  0  0  0
    2.6076  -11.5341    6.0051 H   0  0  0  0  0  0  0  0  0  0  0  0
    3.1983  -11.6241    3.6968 H   0  0  0  0  0  0  0  0  0  0  0  0
    4.4926  -10.4477    3.9661 H   0  0  0  0  0  0  0  0  0  0  0  0
    3.6027  -13.4308    5.7930 H   0  0  0  0  0  0  0  0  0  0  0  0
    6.2396  -11.9133    3.0676 H   0  0  0  0  0  0  0  0  0  0  0  0
    6.5182  -13.4765    3.8038 H   0  0  0  0  0  0  0  0  0  0  0  0
    4.5971  -12.8252    1.8821 H   0  0  0  0  0  0  0  0  0  0  0  0
    6.3176  -12.9232    6.2907 H   0  0  0  0  0  0  0  0  0  0  0  0
    7.3088  -11.5161    4.8526 H   0  0  0  0  0  0  0  0  0  0  0  0
    6.8012  -10.4601    8.1224 H   0  0  0  0  0  0  0  0  0  0  0  0
    6.4947  -12.0861    8.6464 H   0  0  0  0  0  0  0  0  0  0  0  0
    5.4676  -10.8071    9.2344 H   0  0  0  0  0  0  0  0  0  0  0  0
    3.3086  -12.3929    7.4487 H   0  0  0  0  0  0  0  0  0  0  0  0
    1.2557   -9.8875    7.3737 H   0  0  0  0  0  0  0  0  0  0  0  0
    0.4082  -10.7918    6.1388 H   0  0  0  0  0  0  0  0  0  0  0  0
    0.1015   -9.1056    6.2993 H   0  0  0  0  0  0  0  0  0  0  0  0
    0.3589   -7.7245    4.3740 H   0  0  0  0  0  0  0  0  0  0  0  0
    0.5546   -6.1011    2.0299 H   0  0  0  0  0  0  0  0  0  0  0  0
    4.2446   -7.6560    0.7066 H   0  0  0  0  0  0  0  0  0  0  0  0
    6.7675   -6.4828    2.9378 H   0  0  0  0  0  0  0  0  0  0  0  0
    6.4802   -7.3892    1.4450 H   0  0  0  0  0  0  0  0  0  0  0  0
    5.9218   -8.0276    2.9967 H   0  0  0  0  0  0  0  0  0  0  0  0
    2.8075   -9.4445    0.7613 H   0  0  0  0  0  0  0  0  0  0  0  0
    2.4381  -10.2921    2.2080 H   0  0  0  0  0  0  0  0  0  0  0  0
    4.1335  -10.0376    1.7528 H   0  0  0  0  0  0  0  0  0  0  0  0
    6.2520   -6.9632    6.8648 H   0  0  0  0  0  0  0  0  0  0  0  0
    3.6803   -6.3834    9.5327 H   0  0  0  0  0  0  0  0  0  0  0  0
    4.5995   -4.9076    9.8158 H   0  0  0  0  0  0  0  0  0  0  0  0
    4.8713   -6.3035   10.8150 H   0  0  0  0  0  0  0  0  0  0  0  0
    5.3828   -8.5928    9.2128 H   0  0  0  0  0  0  0  0  0  0  0  0
    6.5267   -7.8791   10.3312 H   0  0  0  0  0  0  0  0  0  0  0  0
    7.0498   -8.2395    8.7040 H   0  0  0  0  0  0  0  0  0  0  0  0
    7.7009   -3.8962    6.5764 H   0  0  0  0  0  0  0  0  0  0  0  0
    7.8926   -5.6189    6.4103 H   0  0  0  0  0  0  0  0  0  0  0  0
    6.1923   -4.4240    4.8578 H   0  0  0  0  0  0  0  0  0  0  0  0
    6.4619   -3.3794    8.4182 H   0  0  0  0  0  0  0  0  0  0  0  0
    5.6716   -1.6131    6.4820 H   0  0  0  0  0  0  0  0  0  0  0  0
    5.5765   -2.7104    5.2150 H   0  0  0  0  0  0  0  0  0  0  0  0
    3.7715   -0.4659    7.0131 H   0  0  0  0  0  0  0  0  0  0  0  0
    3.0843   -0.0219    4.6135 H   0  0  0  0  0  0  0  0  0  0  0  0
    0.2343   -1.1365    3.2586 H   0  0  0  0  0  0  0  0  0  0  0  0
    0.2437   -2.8915    3.4577 H   0  0  0  0  0  0  0  0  0  0  0  0
    1.4470   -2.0982    2.4809 H   0  0  0  0  0  0  0  0  0  0  0  0
    0.6772   -0.4200    5.9181 H   0  0  0  0  0  0  0  0  0  0  0  0
    0.9198   -1.9738    6.7198 H   0  0  0  0  0  0  0  0  0  0  0  0
   -0.2842   -1.8293    5.4957 H   0  0  0  0  0  0  0  0  0  0  0  0
  1  2  2  0
  1 60  1  0
  1 61  1  0
  2 54  1  0
  2  3  1  0
  3  4  2  0
  3  5  1  0
  5 52  1  0
  5 55  1  6
  5  6  1  0
  6 58  1  0
  6  7  1  0
  6 62  1  1
  7  8  1  0
  7 63  1  0
  7 64  1  0
  8 38  1  0
  8  9  1  1
  8 10  1  0
  9 65  1  0
  9 66  1  0
  9 67  1  0
 10 11  1  0
 10 39  1  0
 10 68  1  1
 11 12  1  0
 11 69  1  0
 11 70  1  0
 12 21  1  0
 12 13  1  0
 12 71  1  1
 13 14  1  0
 13 24  1  0
 13 72  1  1
 14 15  1  0
 14 73  1  0
 14 74  1  0
 15 16  1  1
 15 17  1  0
 15 19  1  0
 16 75  1  0
 17 18  1  0
 17 76  1  0
 17 77  1  0
 18 78  1  0
 19 20  1  0
 19 21  1  0
 19 79  1  1
 20 80  1  0
 21 22  1  0
 21 23  1  1
 22 81  1  0
 22 82  1  0
 22 83  1  0
 23 84  1  0
 24 38  1  0
 24 25  1  1
 24 26  1  0
 25 85  1  0
 25 86  1  0
 25 87  1  0
 26 27  1  0
 27 38  1  0
 27 28  1  0
 27 88  1  1
 28 35  1  0
 28 29  2  0
 29 30  1  0
 29 89  1  0
 30 31  2  0
 30 32  1  0
 32 33  1  0
 32 35  1  0
 32 90  1  6
 33 34  1  0
 34 91  1  0
 34 92  1  0
 34 93  1  0
 35 36  1  6
 35 37  1  0
 36 94  1  0
 36 95  1  0
 36 96  1  0
 38 37  1  6
 39 47  1  0
 39 40  1  0
 39 97  1  6
 40 41  1  0
 40 42  1  0
 40 43  1  0
 41 98  1  0
 41 99  1  0
 41100  1  0
 42101  1  0
 42102  1  0
 42103  1  0
 43 44  1  0
 44 45  2  0
 44 46  1  0
 46 47  1  0
 46104  1  0
 46105  1  0
 47 48  1  6
 47 49  1  0
 48106  1  0
 49 50  1  1
 49 51  1  0
 58 49  1  6
 50107  1  0
 51 52  1  0
 51108  1  0
 51109  1  0
 52 53  1  1
 52 54  1  0
 53110  1  0
 54 55  1  0
 54111  1  1
 55 56  1  0
 55 57  1  0
 56112  1  0
 56113  1  0
 56114  1  0
 57115  1  0
 57116  1  0
 57117  1  0
 58 59  2  0
M  END
>  <i_m_ct_stereo_status>  (47) 
1

>  <s_m_source_file>  (47) 
/var/tmp/pbs.5075288.sched01/tmpsukb34hn/166582q88ej.sdf

>  <i_m_source_file_index>  (47) 
48

>  <i_lp_mmshare_version>  (47) 
48012

>  <i_f3d_flags>  (47) 
0

>  <s_epik_input>  (47) 
Tz1DMUMoPVtDSDJdKVtDQEBIXShDMihbQ0gzXSlbQ0gzXSlbQ0BdMyhbT0hdKVtDSDJdW0NAQF0oW09IXSkoW1MrXTRbTy1dKVtDQEBdKFtPSF0pKFtDSDJdQyg9TylPQzUoW0NIM10pW0NIM10pW0NAQEhdNVtDQEBIXTZbQ0gyXVtDQEhdKFtDQEBdKFtDSDNdKShbT0hdKVtDQEhdKFtPSF0pW0NAXShbQ0gyXTcpKFtPSF0pW0NIMl1bT0hdKVtDQEhdN1tDQEBdKFtDSDNdKShbQ0BdODlbQ0BdNihbQ0gzXSlbQ0gyXVtDQEBIXTRbQ0BAXTEyMylPW0NAQEhdOEM9MVtDQEBdKE85KShbQ0gzXSlbQ0BASF0oQyg9TylbQ0hdMSlPW0NIM10=

>  <s_epik_cmdline>  (47) 
J2VwaWtfcHl0aG9uJywgJy1waHQnLCAnMi4wJywgJy1waCcsICc3LjAnLCAnLXRuJywgJzgnLCAnLW1hJywgJzIwMCcsICctaW1hZScsICc8aW5maWxlLm1hZT4nLCAnLW9tYWUnLCAnPG91dGZpbGUubWFlPic=

>  <r_lp_tautomer_probability>  (47) 
1

>  <r_epik_Ionization_Penalty>  (47) 
2.08962e-06

>  <r_epik_Ionization_Penalty_Charging>  (47) 
0

>  <r_epik_Ionization_Penalty_Neutral>  (47) 
2.08962e-06

>  <r_epik_State_Penalty>  (47) 
-0

>  <r_epik_Charging_Adjusted_Penalty>  (47) 
0

>  <i_epik_Tot_Q>  (47) 
0

>  <i_epik_Tot_abs_Q>  (47) 
2

>  <s_epik_Chemistry_Notes>  (47) 
This compound has an ester and may undergo hydrolysis at high or low pH.

>  <s_lp_Force_Field>  (47) 
OPLS3e

>  <r_lp_Energy>  (47) 
210.108

>  <b_lp_Chiralities_Consistent>  (47) 
1

>  <s_lp_Variant>  (47) 
59:0-1

>  <s_i_glide_gridfile>  (47) 
pfpi4k_grid

>  <i_i_glide_lignum>  (47) 
48

>  <i_i_glide_rotatable_bonds>  (47) 
9

>  <r_i_docking_score>  (47) 
-2.504

>  <r_i_glide_ligand_efficiency>  (47) 
-0.0424406

>  <r_i_glide_ligand_efficiency_sa>  (47) 
-0.165221

>  <r_i_glide_ligand_efficiency_ln>  (47) 
-0.493152

>  <r_i_glide_gscore>  (47) 
-2.504

>  <r_i_glide_lipo>  (47) 
-0.180499

>  <r_i_glide_hbond>  (47) 
0

>  <r_i_glide_metal>  (47) 
-0

>  <r_i_glide_rewards>  (47) 
0

>  <r_i_glide_evdw>  (47) 
-28.1066

>  <r_i_glide_ecoul>  (47) 
-6.27468

>  <r_i_glide_erotb>  (47) 
0.030546

>  <r_i_glide_esite>  (47) 
-0.00751329

>  <r_i_glide_emodel>  (47) 
-35.9829

>  <r_i_glide_energy>  (47) 
-34.3812

>  <r_i_glide_einternal>  (47) 
6.8008

>  <r_i_glide_intrahb_reward>  (47) 
-0

>  <i_i_glide_confnum>  (47) 
1

>  <i_i_glide_posenum>  (47) 
4

>  <r_i_glide_eff_state_penalty>  (47) 
0

>  <ligand_id>  (47) 
59

>  <original_smiles>  (47) 
C=C1C(=O)C23C4CC5(C)C(CC6C(CC(O)(CO)C(O)C6(C)O)C6(C)OC7C8=CC(=O)C(OC)C8(C)OC756)C5C(C)(C)OC(=O)CC5(O)C(O)(CC2(O)C1C3(C)C)[S+]4[O-]

>  <smiles>  (47) 
[H]OC([H])([H])C1(O[H])C([H])([H])C2([H])C([H])(C([H])([H])C3([H])C4([H])C(C([H])([H])[H])(C([H])([H])[H])OC(=O)C([H])([H])C4(O[H])C4(O[H])S(=O)C([H])(C([H])([H])C3(C([H])([H])[H])C35OC6(C([H])([H])[H])C(=C([H])C(=O)C6([H])OC([H])([H])[H])C3([H])OC25C([H])([H])[H])C23C(=O)C(=C([H])[H])C([H])(C2(O[H])C4([H])[H])C3(C([H])([H])[H])C([H])([H])[H])C(O[H])(C([H])([H])[H])C1([H])O[H]

$$$$
60:3:0
     RDKit          3D

132139  0  0  1  0  0  0  0  0999 V2000
   -2.3453    1.3530    7.1743 C   0  0  0  0  0  0  0  0  0  0  0  0
   -1.3434    0.5362    6.7455 C   0  0  0  0  0  0  0  0  0  0  0  0
   -1.7224   -0.6342    5.7913 C   0  0  0  0  0  0  0  0  0  0  0  0
    0.1651    0.7720    7.1596 C   0  0  2  0  0  0  0  0  0  0  0  0
    0.8023    1.9470    6.2610 C   0  0  0  0  0  0  0  0  0  0  0  0
    0.9630    2.0691    4.6616 C   0  0  0  0  0  0  0  0  0  0  0  0
   -0.3967    1.8289    3.8858 C   0  0  0  0  0  0  0  0  0  0  0  0
    1.3007    3.5410    4.4017 C   0  0  0  0  0  0  0  0  0  0  0  0
    2.1398    1.2859    3.9073 C   0  0  0  0  0  0  0  0  0  0  0  0
    2.6832   -0.0560    4.4877 C   0  0  1  0  0  0  0  0  0  0  0  0
    1.3923   -0.8336    4.5450 C   0  0  0  0  0  0  0  0  0  0  0  0
    3.4769   -0.8294    3.5254 O   0  0  0  0  0  0  0  0  0  0  0  0
    3.4537   -2.2900    3.1973 C   0  0  0  0  0  0  0  0  0  0  0  0
    2.2142   -2.7140    2.3633 C   0  0  0  0  0  0  0  0  0  0  0  0
    4.5741   -2.1608    2.1194 C   0  0  0  0  0  0  0  0  0  0  0  0
    3.9097   -3.3213    4.4203 C   0  0  1  0  0  0  0  0  0  0  0  0
    5.0945   -3.9443    3.9477 O   0  0  0  0  0  0  0  0  0  0  0  0
    4.3620   -2.3915    5.3459 O   0  0  0  0  0  0  0  0  0  0  0  0
    4.3565   -2.5084    6.7414 C   0  0  0  0  0  0  0  0  0  0  0  0
    2.8419   -2.4661    7.1678 C   0  0  2  0  0  0  0  0  0  0  0  0
    2.3808   -1.0390    7.7694 C   0  0  1  0  0  0  0  0  0  0  0  0
    3.2600    0.1525    7.2807 C   0  0  1  0  0  0  0  0  0  0  0  0
    4.3987    0.3005    8.1484 O   0  0  0  0  0  0  0  0  0  0  0  0
    4.8528    1.5050    8.5675 C   0  0  0  0  0  0  0  0  0  0  0  0
    6.1225    1.4114    9.3956 C   0  0  0  0  0  0  0  0  0  0  0  0
    4.3428    2.5996    8.2895 O   0  0  0  0  0  0  0  0  0  0  0  0
    3.6155    0.3803    5.7343 C   0  0  1  0  0  0  0  0  0  0  0  0
    4.9997    0.1356    5.4232 O   0  0  0  0  0  0  0  0  0  0  0  0
    5.9535    1.0629    5.5943 C   0  0  0  0  0  0  0  0  0  0  0  0
    7.3577    0.5221    5.2510 C   0  0  0  0  0  0  0  0  0  0  0  0
    5.7525    2.1953    6.0148 O   0  0  0  0  0  0  0  0  0  0  0  0
    0.8403   -0.5712    7.8214 C   0  0  1  0  0  0  0  0  0  0  0  0
    0.6526    0.0700    9.1867 C   0  0  1  0  0  0  0  0  0  0  0  0
    0.0868   -0.7159   10.3614 C   0  0  0  0  0  0  0  0  0  0  0  0
    1.3704    1.2603    9.4392 O   0  0  0  0  0  0  0  0  0  0  0  0
    0.1774    1.3316    8.6177 C   0  0  1  0  0  0  0  0  0  0  0  0
    2.1750   -3.9103    7.4168 C   0  0  2  0  0  0  0  0  0  0  0  0
    1.2666   -3.8545    8.6894 C   0  0  0  0  0  0  0  0  0  0  0  0
   -0.1271   -3.7863    8.3994 O   0  0  0  0  0  0  0  0  0  0  0  0
   -1.0986   -4.2437    9.2366 C   0  0  0  0  0  0  0  0  0  0  0  0
   -0.6140   -4.8011   10.5697 C   0  0  0  0  0  0  0  0  0  0  0  0
   -2.2949   -4.0820    8.9835 O   0  0  0  0  0  0  0  0  0  0  0  0
    3.6264   -4.9950    7.8485 S   0  0  0  0  0  0  0  0  0  0  0  0
    3.3437   -6.2558    8.6727 O   0  0  0  0  0  0  0  0  0  0  0  0
    4.0472   -5.3869    6.0850 C   0  0  1  0  0  0  0  0  0  0  0  0
    4.1335   -6.7503    5.7439 O   0  0  0  0  0  0  0  0  0  0  0  0
    3.9168   -6.8516    4.3915 C   0  0  1  0  0  0  0  0  0  0  0  0
    3.5479   -8.1198    4.0017 O   0  0  0  0  0  0  0  0  0  0  0  0
    4.5731   -9.0889    4.1481 C   0  0  0  0  0  0  0  0  0  0  0  0
    2.8092   -5.8136    4.0819 C   0  0  1  0  0  0  0  0  0  0  0  0
    2.8896   -5.4615    2.7247 O   0  0  0  0  0  0  0  0  0  0  0  0
    1.3634   -6.2850    4.3364 C   0  0  1  0  0  0  0  0  0  0  0  0
    0.9904   -7.5328    3.7599 O   0  0  0  0  0  0  0  0  0  0  0  0
    0.0318   -7.6567    2.7964 C   0  0  0  0  0  0  0  0  0  0  0  0
   -0.3123   -9.0759    2.4615 C   0  0  0  0  0  0  0  0  0  0  0  0
   -0.5580   -6.7684    2.2037 O   0  0  0  0  0  0  0  0  0  0  0  0
    1.0516   -6.0794    5.8499 C   0  0  1  0  0  0  0  0  0  0  0  0
   -0.3617   -6.1306    5.8523 O   0  0  0  0  0  0  0  0  0  0  0  0
    1.3344   -7.3549    6.7968 C   0  0  0  0  0  0  0  0  0  0  0  0
    0.7971   -8.7281    6.2886 C   0  0  0  0  0  0  0  0  0  0  0  0
    0.7968   -7.2668    8.2389 C   0  0  0  0  0  0  0  0  0  0  0  0
    1.6683   -4.5508    6.0209 C   0  0  1  0  0  0  0  0  0  0  0  0
    0.4466   -3.6683    5.5514 C   0  0  0  0  0  0  0  0  0  0  0  0
    3.0460   -4.6477    5.1058 C   0  0  2  0  0  0  0  0  0  0  0  0
   -3.3686    1.1635    6.9002 H   0  0  0  0  0  0  0  0  0  0  0  0
   -2.2368    2.1890    7.8284 H   0  0  0  0  0  0  0  0  0  0  0  0
   -1.6160   -1.5993    6.3219 H   0  0  0  0  0  0  0  0  0  0  0  0
   -1.2519   -0.6683    4.8556 H   0  0  0  0  0  0  0  0  0  0  0  0
   -2.8052   -0.5502    5.5595 H   0  0  0  0  0  0  0  0  0  0  0  0
    0.1604    2.8034    6.4898 H   0  0  0  0  0  0  0  0  0  0  0  0
    1.7289    2.3501    6.6954 H   0  0  0  0  0  0  0  0  0  0  0  0
   -0.2634    2.1997    2.8519 H   0  0  0  0  0  0  0  0  0  0  0  0
   -1.1530    2.5227    4.3213 H   0  0  0  0  0  0  0  0  0  0  0  0
   -0.7021    0.8693    3.8850 H   0  0  0  0  0  0  0  0  0  0  0  0
    1.3903    3.7523    3.3180 H   0  0  0  0  0  0  0  0  0  0  0  0
    2.2410    3.8732    4.8739 H   0  0  0  0  0  0  0  0  0  0  0  0
    0.5033    4.2124    4.7631 H   0  0  0  0  0  0  0  0  0  0  0  0
    1.8148    1.0904    2.8854 H   0  0  0  0  0  0  0  0  0  0  0  0
    3.0191    1.9281    3.7392 H   0  0  0  0  0  0  0  0  0  0  0  0
    0.7918   -0.6061    5.3826 H   0  0  0  0  0  0  0  0  0  0  0  0
    1.5785   -1.8695    4.5399 H   0  0  0  0  0  0  0  0  0  0  0  0
    0.7835   -0.7145    3.6492 H   0  0  0  0  0  0  0  0  0  0  0  0
    2.4817   -3.3580    1.5295 H   0  0  0  0  0  0  0  0  0  0  0  0
    1.7246   -1.8580    1.9096 H   0  0  0  0  0  0  0  0  0  0  0  0
    1.4785   -3.2607    2.9323 H   0  0  0  0  0  0  0  0  0  0  0  0
    4.7834   -3.1071    1.6107 H   0  0  0  0  0  0  0  0  0  0  0  0
    5.5136   -1.7895    2.5402 H   0  0  0  0  0  0  0  0  0  0  0  0
    4.2822   -1.4608    1.3420 H   0  0  0  0  0  0  0  0  0  0  0  0
    5.4902   -4.4192    4.6370 H   0  0  0  0  0  0  0  0  0  0  0  0
    5.0818   -3.2549    7.0470 H   0  0  0  0  0  0  0  0  0  0  0  0
    4.9070   -1.6860    7.1455 H   0  0  0  0  0  0  0  0  0  0  0  0
    2.4256   -2.2346    6.2325 H   0  0  0  0  0  0  0  0  0  0  0  0
    2.6610   -1.1526    8.8201 H   0  0  0  0  0  0  0  0  0  0  0  0
    2.6884    1.0012    7.6031 H   0  0  0  0  0  0  0  0  0  0  0  0
    5.9250    0.9172   10.3498 H   0  0  0  0  0  0  0  0  0  0  0  0
    6.5412    2.3973    9.5888 H   0  0  0  0  0  0  0  0  0  0  0  0
    6.8707    0.8372    8.8518 H   0  0  0  0  0  0  0  0  0  0  0  0
    3.5706    1.4684    5.6989 H   0  0  0  0  0  0  0  0  0  0  0  0
    7.5861   -0.3414    5.8987 H   0  0  0  0  0  0  0  0  0  0  0  0
    8.1267    1.2731    5.4434 H   0  0  0  0  0  0  0  0  0  0  0  0
    7.4350    0.2112    4.1943 H   0  0  0  0  0  0  0  0  0  0  0  0
    0.1469   -1.3865    7.7030 H   0  0  0  0  0  0  0  0  0  0  0  0
   -0.7862   -1.3301   10.1120 H   0  0  0  0  0  0  0  0  0  0  0  0
   -0.2249   -0.0051   11.1314 H   0  0  0  0  0  0  0  0  0  0  0  0
    0.8558   -1.3551   10.8071 H   0  0  0  0  0  0  0  0  0  0  0  0
   -0.6221    1.9463    9.0181 H   0  0  0  0  0  0  0  0  0  0  0  0
    1.5419   -4.6742    9.3490 H   0  0  0  0  0  0  0  0  0  0  0  0
    1.4725   -2.9474    9.2576 H   0  0  0  0  0  0  0  0  0  0  0  0
    0.0167   -5.6766   10.4221 H   0  0  0  0  0  0  0  0  0  0  0  0
   -1.4424   -5.0965   11.2225 H   0  0  0  0  0  0  0  0  0  0  0  0
   -0.0357   -4.0363   11.0838 H   0  0  0  0  0  0  0  0  0  0  0  0
    5.0876   -5.1018    5.9836 H   0  0  0  0  0  0  0  0  0  0  0  0
    4.8474   -6.5934    3.8835 H   0  0  0  0  0  0  0  0  0  0  0  0
    4.2036  -10.0714    3.8499 H   0  0  0  0  0  0  0  0  0  0  0  0
    4.9011   -9.1552    5.1881 H   0  0  0  0  0  0  0  0  0  0  0  0
    5.4389   -8.8475    3.5259 H   0  0  0  0  0  0  0  0  0  0  0  0
    2.9131   -6.2593    2.2217 H   0  0  0  0  0  0  0  0  0  0  0  0
    0.7676   -5.5200    3.8154 H   0  0  0  0  0  0  0  0  0  0  0  0
   -0.6724   -9.5661    3.3699 H   0  0  0  0  0  0  0  0  0  0  0  0
    0.5773   -9.5868    2.0763 H   0  0  0  0  0  0  0  0  0  0  0  0
   -1.0926   -9.0925    1.7063 H   0  0  0  0  0  0  0  0  0  0  0  0
   -0.6128   -7.0093    5.6311 H   0  0  0  0  0  0  0  0  0  0  0  0
    2.3950   -7.5254    6.8871 H   0  0  0  0  0  0  0  0  0  0  0  0
   -0.2829   -8.7215    6.0884 H   0  0  0  0  0  0  0  0  0  0  0  0
    0.9496   -9.4914    7.0515 H   0  0  0  0  0  0  0  0  0  0  0  0
    1.3228   -9.1225    5.4105 H   0  0  0  0  0  0  0  0  0  0  0  0
   -0.2913   -7.3452    8.2840 H   0  0  0  0  0  0  0  0  0  0  0  0
    1.0917   -6.3505    8.6981 H   0  0  0  0  0  0  0  0  0  0  0  0
    1.2134   -8.0929    8.8140 H   0  0  0  0  0  0  0  0  0  0  0  0
   -0.5055   -3.9115    6.0144 H   0  0  0  0  0  0  0  0  0  0  0  0
    0.2237   -3.6516    4.4881 H   0  0  0  0  0  0  0  0  0  0  0  0
    0.4700   -2.6857    5.9713 H   0  0  0  0  0  0  0  0  0  0  0  0
  1  2  2  0
  1 65  1  0
  1 66  1  0
  2  3  1  0
  4  2  1  6
  3 67  1  0
  3 68  1  0
  3 69  1  0
  4 32  1  0
  4 36  1  0
  4  5  1  0
  5  6  1  0
  5 70  1  0
  5 71  1  0
  6  7  1  0
  6  8  1  0
  6  9  1  0
  7 72  1  0
  7 73  1  0
  7 74  1  0
  8 75  1  0
  8 76  1  0
  8 77  1  0
  9 10  1  0
  9 78  1  0
  9 79  1  0
 10 27  1  0
 10 11  1  1
 10 12  1  0
 11 80  1  0
 11 81  1  0
 11 82  1  0
 12 13  1  0
 13 14  1  0
 13 15  1  0
 13 16  1  0
 14 83  1  0
 14 84  1  0
 14 85  1  0
 15 86  1  0
 15 87  1  0
 15 88  1  0
 64 16  1  6
 16 17  1  6
 16 18  1  0
 17 89  1  0
 18 19  1  0
 19 20  1  0
 19 90  1  0
 19 91  1  0
 20 21  1  0
 20 37  1  0
 20 92  1  6
 21 22  1  0
 21 32  1  0
 21 93  1  1
 22 23  1  0
 22 27  1  0
 22 94  1  1
 23 24  1  0
 24 25  1  0
 24 26  2  0
 25 95  1  0
 25 96  1  0
 25 97  1  0
 27 28  1  0
 27 98  1  1
 28 29  1  0
 29 30  1  0
 29 31  2  0
 30 99  1  0
 30100  1  0
 30101  1  0
 32 33  1  0
 32102  1  1
 33 36  1  0
 33 34  1  1
 33 35  1  0
 34103  1  0
 34104  1  0
 34105  1  0
 35 36  1  0
 36106  1  1
 37 62  1  0
 37 38  1  1
 43 37  1  6
 38 39  1  0
 38107  1  0
 38108  1  0
 39 40  1  0
 40 41  1  0
 40 42  2  0
 41109  1  0
 41110  1  0
 41111  1  0
 43 44  2  0
 43 45  1  0
 45 64  1  0
 45 46  1  0
 45112  1  6
 46 47  1  0
 47 48  1  0
 47 50  1  0
 47113  1  6
 48 49  1  0
 49114  1  0
 49115  1  0
 49116  1  0
 50 64  1  0
 50 51  1  6
 50 52  1  0
 51117  1  0
 52 53  1  0
 52 57  1  0
 52118  1  6
 53 54  1  0
 54 55  1  0
 54 56  2  0
 55119  1  0
 55120  1  0
 55121  1  0
 57 58  1  6
 57 59  1  0
 57 62  1  0
 58122  1  0
 59 60  1  0
 59 61  1  0
 59123  1  0
 60124  1  0
 60125  1  0
 60126  1  0
 61127  1  0
 61128  1  0
 61129  1  0
 62 63  1  6
 62 64  1  0
 63130  1  0
 63131  1  0
 63132  1  0
M  END
>  <i_m_ct_stereo_status>  (48) 
1

>  <s_m_source_file>  (48) 
/var/tmp/pbs.5075288.sched01/tmpsukb34hn/166582q88ej.sdf

>  <i_m_source_file_index>  (48) 
52

>  <i_lp_mmshare_version>  (48) 
48012

>  <i_f3d_flags>  (48) 
0

>  <s_epik_input>  (48) 
W09IXVtDQF0xKFtDQF0yMzQpQyhbQ0gzXSkoW0NIM10pT1tDQF01KFtDSDNdKVtDSDJdQyhbQ0gzXSkoW0NIM10pW0NIMl1bQ0BAXTYoQyg9W0NIMl0pW0NIM10pW0NASF0oW0NAXTcoW0NIM10pW0NASF02TzcpW0NIXShbQ0BASF0oT0MoPU8pW0NIM10pW0NASF01T0MoPU8pW0NIM10pW0NIXShbQ0gyXU8xKVtDQEBdOChbQ0gyXU9DKD1PKVtDSDNdKVtDQF00KFtDSDNdKVtDQF0oW09IXSkoW0NIXShbQ0gzXSlbQ0gzXSlbQ0BIXShPQyg9TylbQ0gzXSlbQ0BdMyhbT0hdKVtDQEhdKE9bQ0gzXSlPW0NAQEhdMltTK104W08tXQ==

>  <s_epik_cmdline>  (48) 
J2VwaWtfcHl0aG9uJywgJy1waHQnLCAnMi4wJywgJy1waCcsICc3LjAnLCAnLXRuJywgJzgnLCAnLW1hJywgJzIwMCcsICctaW1hZScsICc8aW5maWxlLm1hZT4nLCAnLW9tYWUnLCAnPG91dGZpbGUubWFlPic=

>  <r_lp_tautomer_probability>  (48) 
1

>  <r_epik_Ionization_Penalty>  (48) 
5.28721e-06

>  <r_epik_Ionization_Penalty_Charging>  (48) 
0

>  <r_epik_Ionization_Penalty_Neutral>  (48) 
5.28721e-06

>  <r_epik_State_Penalty>  (48) 
-0

>  <r_epik_Charging_Adjusted_Penalty>  (48) 
0

>  <i_epik_Tot_Q>  (48) 
0

>  <i_epik_Tot_abs_Q>  (48) 
2

>  <s_epik_Chemistry_Notes>  (48) 
This compound has an ester and may undergo hydrolysis at high or low pH. This compound contains an acetal/aminal-like group ( X-CH(R)-Y where X, Y are N, S, or O) that may be acid/base labile, releasing an aldehyde.

>  <s_lp_Force_Field>  (48) 
OPLS3e

>  <r_lp_Energy>  (48) 
308.003

>  <b_lp_Chiralities_Consistent>  (48) 
1

>  <s_lp_Variant>  (48) 
60:0-4

>  <s_i_glide_gridfile>  (48) 
pfpi4k_grid

>  <i_i_glide_lignum>  (48) 
52

>  <i_i_glide_rotatable_bonds>  (48) 
15

>  <r_i_docking_score>  (48) 
-2.56061

>  <r_i_glide_ligand_efficiency>  (48) 
-0.0400096

>  <r_i_glide_ligand_efficiency_sa>  (48) 
-0.160038

>  <r_i_glide_ligand_efficiency_ln>  (48) 
-0.49635

>  <r_i_glide_gscore>  (48) 
-2.56061

>  <r_i_glide_lipo>  (48) 
-0.210008

>  <r_i_glide_hbond>  (48) 
-0.171185

>  <r_i_glide_metal>  (48) 
-0

>  <r_i_glide_rewards>  (48) 
-0.103124

>  <r_i_glide_evdw>  (48) 
-30.8109

>  <r_i_glide_ecoul>  (48) 
-4.18453

>  <r_i_glide_erotb>  (48) 
0.155015

>  <r_i_glide_esite>  (48) 
-0.0873487

>  <r_i_glide_emodel>  (48) 
-30.4704

>  <r_i_glide_energy>  (48) 
-34.9954

>  <r_i_glide_einternal>  (48) 
14.5791

>  <r_i_glide_intrahb_reward>  (48) 
-0

>  <i_i_glide_confnum>  (48) 
4

>  <i_i_glide_posenum>  (48) 
40

>  <r_i_glide_eff_state_penalty>  (48) 
0

>  <ligand_id>  (48) 
60

>  <original_smiles>  (48) 
C=C(C)C12CC(C)(C)CC3(C)OC(C)(C)C4(O)OCC(C(C(OC(C)=O)C3OC(C)=O)C1C1(C)OC12)C1(COC(C)=O)[S+]([O-])C2OC(OC)C3(O)C(OC(C)=O)C(O)(C(C)C)C1(C)C234

>  <smiles>  (48) 
[H]OC12OC([H])([H])C([H])(C3([H])C([H])(OC(=O)C([H])([H])[H])C([H])(OC(=O)C([H])([H])[H])C(C([H])([H])[H])(OC1(C([H])([H])[H])C([H])([H])[H])C([H])([H])C(C([H])([H])[H])(C([H])([H])[H])C([H])([H])C1(C(=C([H])[H])C([H])([H])[H])C4([H])OC4(C([H])([H])[H])C31[H])C1(C([H])([H])OC(=O)C([H])([H])[H])S(=O)C3([H])OC([H])(OC([H])([H])[H])C4(O[H])C([H])(OC(=O)C([H])([H])[H])C(O[H])(C([H])(C([H])([H])[H])C([H])([H])[H])C1(C([H])([H])[H])C324

$$$$
62:0:0
     RDKit          3D

119128  0  0  1  0  0  0  0  0999 V2000
    4.3306   -5.2717    3.0593 C   0  0  0  0  0  0  0  0  0  0  0  0
    3.9690   -4.7634    4.3283 O   0  0  0  0  0  0  0  0  0  0  0  0
    3.3247   -3.5004    4.3176 C   0  0  0  0  0  0  0  0  0  0  0  0
    2.9493   -2.9865    5.7652 C   0  0  2  0  0  0  0  0  0  0  0  0
    4.2840   -2.4697    6.3797 C   0  0  0  0  0  0  0  0  0  0  0  0
    5.4399   -3.4531    6.6343 C   0  0  0  0  0  0  0  0  0  0  0  0
    5.7349   -3.8088    8.1007 C   0  0  0  0  0  0  0  0  0  0  0  0
    7.2609   -3.5816    8.3700 C   0  0  0  0  0  0  0  0  0  0  0  0
    7.7095   -2.1057    8.3416 C   0  0  0  0  0  0  0  0  0  0  0  0
    8.1582   -4.4850    7.5009 C   0  0  0  0  0  0  0  0  0  0  0  0
    4.8836   -4.3442    9.0549 C   0  0  0  0  0  0  0  0  0  0  0  0
    5.5255   -4.3880   10.4648 C   0  0  0  0  0  0  0  0  0  0  0  0
    3.3994   -5.0136    8.9816 C   0  0  2  0  0  0  0  0  0  0  0  0
    3.5936   -6.4714    9.6971 C   0  0  2  0  0  0  0  0  0  0  0  0
    3.9262   -7.8009    8.9104 C   0  0  1  0  0  0  0  0  0  0  0  0
    4.6459   -8.8532    9.7837 C   0  0  0  0  0  0  0  0  0  0  0  0
    2.7531   -8.4640    8.1359 C   0  0  1  0  0  0  0  0  0  0  0  0
    1.4933   -7.6156    8.1994 C   0  0  0  0  0  0  0  0  0  0  0  0
    1.7719   -6.5573    7.1718 C   0  0  2  0  0  0  0  0  0  0  0  0
    2.1842   -7.5709    6.0950 C   0  0  2  0  0  0  0  0  0  0  0  0
    2.9872   -8.5827    6.7164 O   0  0  0  0  0  0  0  0  0  0  0  0
    2.2579   -7.3338    4.6609 O   0  0  0  0  0  0  0  0  0  0  0  0
    1.2461   -8.1850    5.1694 C   0  0  2  0  0  0  0  0  0  0  0  0
   -0.1467   -8.1708    4.6757 C   0  0  1  0  0  0  0  0  0  0  0  0
   -0.4635   -7.5729    3.4237 O   0  0  0  0  0  0  0  0  0  0  0  0
   -1.7750   -7.9827    3.0338 C   0  0  0  0  0  0  0  0  0  0  0  0
    0.8546   -9.4340    4.5012 C   0  0  0  0  0  0  0  0  0  0  0  0
    1.2067   -9.8881    3.0884 C   0  0  0  0  0  0  0  0  0  0  0  0
    0.6526  -10.6018    5.4117 C   0  0  0  0  0  0  0  0  0  0  0  0
    2.8235   -5.3351    7.4434 C   0  0  2  0  0  0  0  0  0  0  0  0
    3.9640   -5.8265    6.7955 O   0  0  0  0  0  0  0  0  0  0  0  0
    2.2022   -4.2091    6.4805 C   0  0  1  0  0  0  0  0  0  0  0  0
    0.9063   -3.8773    6.9263 O   0  0  0  0  0  0  0  0  0  0  0  0
    2.5599   -6.8556   11.2161 S   0  0  0  0  0  0  0  0  0  0  0  0
    3.3426   -6.3284   12.4209 O   0  0  0  0  0  0  0  0  0  0  0  0
    0.9964   -5.8486   11.1645 C   0  0  0  0  0  0  0  0  0  0  0  0
    1.0095   -4.7528   10.0779 C   0  0  1  0  0  0  0  0  0  0  0  0
   -0.0238   -3.9010   10.5245 O   0  0  0  0  0  0  0  0  0  0  0  0
    2.3814   -4.0481    9.8370 C   0  0  1  0  0  0  0  0  0  0  0  0
    2.7177   -3.7566   11.2034 O   0  0  0  0  0  0  0  0  0  0  0  0
    2.3735   -2.5797    9.2487 C   0  0  1  0  0  0  0  0  0  0  0  0
    1.0797   -1.7743    8.9972 C   0  0  0  0  0  0  0  0  0  0  0  0
    1.3564   -0.6393    8.0002 C   0  0  1  0  0  0  0  0  0  0  0  0
    2.6526    0.0439    8.3465 C   0  0  0  0  0  0  0  0  0  0  0  0
    3.5327   -0.4564    9.2421 C   0  0  0  0  0  0  0  0  0  0  0  0
    4.7905    0.2589    9.6590 C   0  0  0  0  0  0  0  0  0  0  0  0
    3.4118   -1.7236    9.7815 O   0  0  0  0  0  0  0  0  0  0  0  0
    1.0921   -0.8821    6.4657 C   0  0  1  0  0  0  0  0  0  0  0  0
   -0.2888   -1.3694    6.3522 O   0  0  0  0  0  0  0  0  0  0  0  0
   -0.6948   -0.2003    5.5944 C   0  0  1  0  0  0  0  0  0  0  0  0
   -1.2516   -0.5978    4.2224 C   0  0  0  0  0  0  0  0  0  0  0  0
   -1.7056    0.5691    6.2397 O   0  0  0  0  0  0  0  0  0  0  0  0
    0.7079    0.3830    5.6682 C   0  0  1  0  0  0  0  0  0  0  0  0
    0.8200    1.6608    6.2856 O   0  0  0  0  0  0  0  0  0  0  0  0
    1.3717    0.2568    4.4050 O   0  0  0  0  0  0  0  0  0  0  0  0
    2.4695   -0.6410    4.5268 C   0  0  0  0  0  0  0  0  0  0  0  0
    1.9645   -1.7425    5.4735 C   0  0  1  0  0  0  0  0  0  0  0  0
    4.8534   -6.2172    3.1969 H   0  0  0  0  0  0  0  0  0  0  0  0
    5.0015   -4.6017    2.5207 H   0  0  0  0  0  0  0  0  0  0  0  0
    3.4505   -5.4711    2.4510 H   0  0  0  0  0  0  0  0  0  0  0  0
    3.9777   -2.7947    3.8006 H   0  0  0  0  0  0  0  0  0  0  0  0
    2.4289   -3.6036    3.7052 H   0  0  0  0  0  0  0  0  0  0  0  0
    4.6789   -1.7597    5.6528 H   0  0  0  0  0  0  0  0  0  0  0  0
    4.1747   -1.8230    7.2321 H   0  0  0  0  0  0  0  0  0  0  0  0
    5.5409   -4.3098    5.9827 H   0  0  0  0  0  0  0  0  0  0  0  0
    6.2967   -2.8964    6.2519 H   0  0  0  0  0  0  0  0  0  0  0  0
    7.5806   -3.8948    9.3584 H   0  0  0  0  0  0  0  0  0  0  0  0
    7.2753   -1.5914    9.1960 H   0  0  0  0  0  0  0  0  0  0  0  0
    7.4492   -1.5475    7.4421 H   0  0  0  0  0  0  0  0  0  0  0  0
    8.7916   -2.0314    8.4508 H   0  0  0  0  0  0  0  0  0  0  0  0
    7.9144   -5.5418    7.6219 H   0  0  0  0  0  0  0  0  0  0  0  0
    9.2009   -4.3723    7.7992 H   0  0  0  0  0  0  0  0  0  0  0  0
    8.0948   -4.2582    6.4390 H   0  0  0  0  0  0  0  0  0  0  0  0
    4.8730   -4.6406   11.2881 H   0  0  0  0  0  0  0  0  0  0  0  0
    5.9493   -3.4198   10.7207 H   0  0  0  0  0  0  0  0  0  0  0  0
    6.3165   -5.1404   10.4904 H   0  0  0  0  0  0  0  0  0  0  0  0
    4.5426   -6.4594   10.2152 H   0  0  0  0  0  0  0  0  0  0  0  0
    4.7086   -7.5615    8.1934 H   0  0  0  0  0  0  0  0  0  0  0  0
    4.0115   -9.2628   10.5684 H   0  0  0  0  0  0  0  0  0  0  0  0
    5.5364   -8.4439   10.2598 H   0  0  0  0  0  0  0  0  0  0  0  0
    4.9778   -9.6851    9.1624 H   0  0  0  0  0  0  0  0  0  0  0  0
    2.5547   -9.4598    8.5425 H   0  0  0  0  0  0  0  0  0  0  0  0
    0.6662   -8.2421    7.8635 H   0  0  0  0  0  0  0  0  0  0  0  0
    1.1448   -7.2927    9.1529 H   0  0  0  0  0  0  0  0  0  0  0  0
    0.7782   -6.2117    6.8794 H   0  0  0  0  0  0  0  0  0  0  0  0
   -0.9132   -8.1607    5.4348 H   0  0  0  0  0  0  0  0  0  0  0  0
   -2.0828   -7.5232    2.1036 H   0  0  0  0  0  0  0  0  0  0  0  0
   -2.5131   -7.6808    3.7747 H   0  0  0  0  0  0  0  0  0  0  0  0
   -1.8615   -9.0641    2.9077 H   0  0  0  0  0  0  0  0  0  0  0  0
    0.3997  -10.5386    2.7349 H   0  0  0  0  0  0  0  0  0  0  0  0
    2.1232  -10.4823    3.0677 H   0  0  0  0  0  0  0  0  0  0  0  0
    1.2994   -9.0694    2.3776 H   0  0  0  0  0  0  0  0  0  0  0  0
   -0.1105  -11.2653    5.0008 H   0  0  0  0  0  0  0  0  0  0  0  0
    0.3289  -10.2433    6.3928 H   0  0  0  0  0  0  0  0  0  0  0  0
    1.5848  -11.1645    5.5369 H   0  0  0  0  0  0  0  0  0  0  0  0
    3.7641   -5.9833    5.8823 H   0  0  0  0  0  0  0  0  0  0  0  0
    1.8797   -4.7762    5.6050 H   0  0  0  0  0  0  0  0  0  0  0  0
    0.9664   -3.3809    7.7235 H   0  0  0  0  0  0  0  0  0  0  0  0
    0.1353   -6.5059   11.0263 H   0  0  0  0  0  0  0  0  0  0  0  0
    0.8574   -5.4265   12.1687 H   0  0  0  0  0  0  0  0  0  0  0  0
    0.6675   -5.1683    9.1463 H   0  0  0  0  0  0  0  0  0  0  0  0
    0.2166   -3.5745   11.3801 H   0  0  0  0  0  0  0  0  0  0  0  0
    2.8495   -4.5703   11.6725 H   0  0  0  0  0  0  0  0  0  0  0  0
    2.7205   -2.7384    8.2665 H   0  0  0  0  0  0  0  0  0  0  0  0
    0.2122   -2.3428    8.6739 H   0  0  0  0  0  0  0  0  0  0  0  0
    0.7968   -1.3270    9.9488 H   0  0  0  0  0  0  0  0  0  0  0  0
    0.6235    0.1118    8.3013 H   0  0  0  0  0  0  0  0  0  0  0  0
    2.8107    1.0135    7.9042 H   0  0  0  0  0  0  0  0  0  0  0  0
    4.7569    1.3259    9.4224 H   0  0  0  0  0  0  0  0  0  0  0  0
    5.6499   -0.1586    9.1314 H   0  0  0  0  0  0  0  0  0  0  0  0
    4.9539    0.1543   10.7363 H   0  0  0  0  0  0  0  0  0  0  0  0
   -2.2170   -1.0909    4.3067 H   0  0  0  0  0  0  0  0  0  0  0  0
   -0.5759   -1.2677    3.6795 H   0  0  0  0  0  0  0  0  0  0  0  0
   -1.4000    0.2701    3.5700 H   0  0  0  0  0  0  0  0  0  0  0  0
   -1.8474    1.3297    5.7097 H   0  0  0  0  0  0  0  0  0  0  0  0
    0.7395    2.3018    5.6050 H   0  0  0  0  0  0  0  0  0  0  0  0
    2.7536   -0.9956    3.5324 H   0  0  0  0  0  0  0  0  0  0  0  0
    3.3059   -0.1013    4.9638 H   0  0  0  0  0  0  0  0  0  0  0  0
    1.2137   -2.2296    4.8467 H   0  0  0  0  0  0  0  0  0  0  0  0
  1  2  1  0
  1 58  1  0
  1 59  1  0
  1 60  1  0
  2  3  1  0
  4  3  1  6
  3 61  1  0
  3 62  1  0
  4 32  1  0
  4 57  1  0
  4  5  1  0
  5  6  1  0
  5 63  1  0
  5 64  1  0
  6  7  1  0
  6 65  1  0
  6 66  1  0
  7  8  1  0
  7 11  2  3
  8  9  1  0
  8 10  1  0
  8 67  1  0
  9 68  1  0
  9 69  1  0
  9 70  1  0
 10 71  1  0
 10 72  1  0
 10 73  1  0
 11 12  1  0
 13 11  1  6
 12 74  1  0
 12 75  1  0
 12 76  1  0
 13 30  1  0
 13 39  1  0
 13 14  1  0
 14 15  1  0
 14 34  1  0
 14 77  1  1
 15 16  1  0
 15 17  1  0
 15 78  1  6
 16 79  1  0
 16 80  1  0
 16 81  1  0
 17 21  1  0
 17 18  1  0
 17 82  1  1
 18 19  1  0
 18 83  1  0
 18 84  1  0
 19 20  1  0
 19 30  1  0
 19 85  1  6
 20 23  1  0
 20 21  1  1
 20 22  1  0
 23 22  1  6
 23 27  1  0
 23 24  1  0
 24 25  1  0
 24 27  1  0
 24 86  1  1
 25 26  1  0
 26 87  1  0
 26 88  1  0
 26 89  1  0
 27 28  1  0
 27 29  1  0
 28 90  1  0
 28 91  1  0
 28 92  1  0
 29 93  1  0
 29 94  1  0
 29 95  1  0
 30 31  1  6
 30 32  1  0
 31 96  1  0
 32 33  1  0
 32 97  1  6
 33 98  1  0
 34 35  2  0
 34 36  1  6
 36 37  1  0
 36 99  1  0
 36100  1  0
 37 38  1  0
 37 39  1  0
 37101  1  6
 38102  1  0
 39 40  1  1
 39 41  1  0
 40103  1  0
 41 47  1  0
 41 42  1  0
 41104  1  6
 42 43  1  0
 42105  1  0
 42106  1  0
 43 44  1  0
 43 48  1  0
 43107  1  1
 44 45  2  0
 44108  1  0
 45 46  1  0
 45 47  1  0
 46109  1  0
 46110  1  0
 46111  1  0
 48 53  1  0
 48 57  1  0
 48 49  1  1
 49 50  1  0
 50 51  1  0
 50 52  1  1
 50 53  1  0
 51112  1  0
 51113  1  0
 51114  1  0
 52115  1  0
 53 54  1  1
 53 55  1  0
 54116  1  0
 55 56  1  0
 56 57  1  0
 56117  1  0
 56118  1  0
 57119  1  6
M  END
>  <i_m_ct_stereo_status>  (49) 
1

>  <s_m_source_file>  (49) 
/var/tmp/pbs.5075288.sched01/tmpsukb34hn/166582q88ej.sdf

>  <i_m_source_file_index>  (49) 
55

>  <i_lp_mmshare_version>  (49) 
48012

>  <i_f3d_flags>  (49) 
0

>  <s_epik_input>  (49) 
W0NAXTEyM1tDQEBIXTRbQ0BASF0oW0NIM10pW0NASF01W0NIMl1bQ0BIXShbQ0BAXTYoTzUpQzcoTzYpW0NAQEhdKE9bQ0gzXSlDNyhbQ0gzXSlbQ0gzXSlbQ0BAXTIoW09IXSlbQ0BASF0oW09IXSlbQ0BdKFtDSDJdT1tDSDNdKShbQ0gyXVtDSDJdL0MoW0NIXShbQ0gzXSlbQ0gzXSk9QzEvW0NIM10pW0NASF04W0NAXTkoW0NAXShbT0hdKShbQ0BdKE85KShbQ0gzXSlbT0hdKU9bQ0gyXTgpW0NASF0xW0NIMl1bQ0BASF0oT0MoPVtDSF0xKVtDSDNdKVtDQEBdMyhbT0hdKVtDQEhdKFtPSF0pW0NIMl1bUytdNFtPLV0=

>  <s_epik_cmdline>  (49) 
J2VwaWtfcHl0aG9uJywgJy1waHQnLCAnMi4wJywgJy1waCcsICc3LjAnLCAnLXRuJywgJzgnLCAnLW1hJywgJzIwMCcsICctaW1hZScsICc8aW5maWxlLm1hZT4nLCAnLW9tYWUnLCAnPG91dGZpbGUubWFlPic=

>  <r_lp_tautomer_probability>  (49) 
1

>  <r_epik_Ionization_Penalty>  (49) 
2.17092e-05

>  <r_epik_Ionization_Penalty_Charging>  (49) 
0

>  <r_epik_Ionization_Penalty_Neutral>  (49) 
2.17092e-05

>  <r_epik_State_Penalty>  (49) 
-0

>  <r_epik_Charging_Adjusted_Penalty>  (49) 
0

>  <i_epik_Tot_Q>  (49) 
0

>  <i_epik_Tot_abs_Q>  (49) 
2

>  <s_lp_Force_Field>  (49) 
OPLS3e

>  <r_lp_Energy>  (49) 
203.247

>  <b_lp_Chiralities_Consistent>  (49) 
1

>  <s_lp_Variant>  (49) 
62:0-1

>  <s_i_glide_gridfile>  (49) 
pfpi4k_grid

>  <i_i_glide_lignum>  (49) 
55

>  <i_i_glide_rotatable_bonds>  (49) 
10

>  <r_i_docking_score>  (49) 
-2.36662

>  <r_i_glide_ligand_efficiency>  (49) 
-0.0415197

>  <r_i_glide_ligand_efficiency_sa>  (49) 
-0.159789

>  <r_i_glide_ligand_efficiency_ln>  (49) 
-0.469284

>  <r_i_glide_gscore>  (49) 
-2.36662

>  <r_i_glide_lipo>  (49) 
-0.139164

>  <r_i_glide_hbond>  (49) 
0

>  <r_i_glide_metal>  (49) 
-0

>  <r_i_glide_rewards>  (49) 
-0.5

>  <r_i_glide_evdw>  (49) 
-23.1678

>  <r_i_glide_ecoul>  (49) 
-3.7362

>  <r_i_glide_erotb>  (49) 
0.0322526

>  <r_i_glide_esite>  (49) 
-0.0408943

>  <r_i_glide_emodel>  (49) 
-32.7705

>  <r_i_glide_energy>  (49) 
-26.904

>  <r_i_glide_einternal>  (49) 
4.42455

>  <r_i_glide_intrahb_reward>  (49) 
-0.5

>  <i_i_glide_confnum>  (49) 
5

>  <i_i_glide_posenum>  (49) 
17

>  <r_i_glide_eff_state_penalty>  (49) 
0

>  <ligand_id>  (49) 
62

>  <original_smiles>  (49) 
COCC12CCC(C(C)C)=C(C)C34C(C(C)C5CC(C6(O5)OC65C(OC)C5(C)C)C3(O)C1O)[S+]([O-])CC(O)C4(O)C1CC(C=C(C)O1)C13OC(C)(O)C1(O)OCC23

>  <smiles>  (49) 
[H]OC1([H])C([H])([H])S(=O)C2([H])C([H])(C([H])([H])[H])C3([H])OC4(OC45C([H])(OC([H])([H])[H])C5(C([H])([H])[H])C([H])([H])[H])C([H])(C3([H])[H])C3(O[H])C([H])(O[H])C4(C([H])([H])OC([H])([H])[H])C([H])([H])C([H])([H])C(C([H])(C([H])([H])[H])C([H])([H])[H])=C(C([H])([H])[H])C23C1(O[H])C1([H])OC(C([H])([H])[H])=C([H])C([H])(C1([H])[H])C12OC(O[H])(C([H])([H])[H])C1(O[H])OC([H])([H])C24[H]

$$$$
62:0:1
     RDKit          3D

119128  0  0  1  0  0  0  0  0999 V2000
    3.8939   -2.6250    1.8669 C   0  0  0  0  0  0  0  0  0  0  0  0
    3.7291   -2.1504    3.1913 O   0  0  0  0  0  0  0  0  0  0  0  0
    3.0133   -3.0501    4.0278 C   0  0  0  0  0  0  0  0  0  0  0  0
    2.7189   -2.5144    5.4854 C   0  0  2  0  0  0  0  0  0  0  0  0
    4.0635   -1.8981    5.9880 C   0  0  0  0  0  0  0  0  0  0  0  0
    5.3151   -2.7833    6.1052 C   0  0  0  0  0  0  0  0  0  0  0  0
    5.8042   -3.1736    7.5261 C   0  0  0  0  0  0  0  0  0  0  0  0
    7.3317   -2.8327    7.6500 C   0  0  0  0  0  0  0  0  0  0  0  0
    8.2795   -4.0361    7.8577 C   0  0  0  0  0  0  0  0  0  0  0  0
    7.6930   -1.5922    8.4963 C   0  0  0  0  0  0  0  0  0  0  0  0
    5.0966   -3.7906    8.5495 C   0  0  0  0  0  0  0  0  0  0  0  0
    5.8333   -3.7803    9.9198 C   0  0  0  0  0  0  0  0  0  0  0  0
    3.6608   -4.5583    8.5968 C   0  0  2  0  0  0  0  0  0  0  0  0
    4.0307   -6.0072    9.2705 C   0  0  2  0  0  0  0  0  0  0  0  0
    4.3975   -7.2828    8.4240 C   0  0  1  0  0  0  0  0  0  0  0  0
    5.2901   -8.2884    9.1958 C   0  0  0  0  0  0  0  0  0  0  0  0
    3.2054   -8.0310    7.7733 C   0  0  1  0  0  0  0  0  0  0  0  0
    1.8963   -7.2985    7.9739 C   0  0  0  0  0  0  0  0  0  0  0  0
    1.9793   -6.2014    6.9417 C   0  0  2  0  0  0  0  0  0  0  0  0
    2.3553   -7.1730    5.8113 C   0  0  2  0  0  0  0  0  0  0  0  0
    3.3157   -8.0835    6.3374 O   0  0  0  0  0  0  0  0  0  0  0  0
    2.3290   -6.8713    4.3654 O   0  0  0  0  0  0  0  0  0  0  0  0
    1.3926   -7.8213    4.9150 C   0  0  2  0  0  0  0  0  0  0  0  0
   -0.0511   -7.9559    4.6005 C   0  0  1  0  0  0  0  0  0  0  0  0
   -0.5656   -7.3850    3.4026 O   0  0  0  0  0  0  0  0  0  0  0  0
   -1.7383   -8.0819    2.9812 C   0  0  0  0  0  0  0  0  0  0  0  0
    0.9927   -9.1176    4.3308 C   0  0  0  0  0  0  0  0  0  0  0  0
    1.2462   -9.5435    2.8869 C   0  0  0  0  0  0  0  0  0  0  0  0
    0.9824  -10.3081    5.2506 C   0  0  0  0  0  0  0  0  0  0  0  0
    2.9552   -4.8923    7.1113 C   0  0  2  0  0  0  0  0  0  0  0  0
    4.0271   -5.2395    6.2715 O   0  0  0  0  0  0  0  0  0  0  0  0
    2.1447   -3.7991    6.2572 C   0  0  1  0  0  0  0  0  0  0  0  0
    0.8932   -3.5561    6.8530 O   0  0  0  0  0  0  0  0  0  0  0  0
    3.2193   -6.4816   10.8949 S   0  0  0  0  0  0  0  0  0  0  0  0
    4.0859   -5.9245   12.0225 O   0  0  0  0  0  0  0  0  0  0  0  0
    1.5848   -5.5968   11.0064 C   0  0  0  0  0  0  0  0  0  0  0  0
    1.3843   -4.4859    9.9477 C   0  0  1  0  0  0  0  0  0  0  0  0
    0.3415   -3.7264   10.5260 O   0  0  0  0  0  0  0  0  0  0  0  0
    2.6671   -3.6751    9.5733 C   0  0  1  0  0  0  0  0  0  0  0  0
    3.1047   -3.3602   10.8983 O   0  0  0  0  0  0  0  0  0  0  0  0
    2.4922   -2.2040    9.0197 C   0  0  1  0  0  0  0  0  0  0  0  0
    1.1184   -1.5050    8.9295 C   0  0  0  0  0  0  0  0  0  0  0  0
    1.1885   -0.3412    7.9243 C   0  0  1  0  0  0  0  0  0  0  0  0
    2.4564    0.4427    8.1409 C   0  0  0  0  0  0  0  0  0  0  0  0
    3.4658   -0.0013    8.9184 C   0  0  0  0  0  0  0  0  0  0  0  0
    4.6900    0.8196    9.2346 C   0  0  0  0  0  0  0  0  0  0  0  0
    3.5054   -1.2658    9.4617 O   0  0  0  0  0  0  0  0  0  0  0  0
    0.7657   -0.6062    6.4251 C   0  0  1  0  0  0  0  0  0  0  0  0
   -0.5877   -1.1848    6.4420 O   0  0  0  0  0  0  0  0  0  0  0  0
   -1.1470   -0.0487    5.7424 C   0  0  1  0  0  0  0  0  0  0  0  0
   -1.7895   -0.4781    4.4296 C   0  0  0  0  0  0  0  0  0  0  0  0
   -2.1523    0.6051    6.4796 O   0  0  0  0  0  0  0  0  0  0  0  0
    0.2217    0.6461    5.6999 C   0  0  1  0  0  0  0  0  0  0  0  0
    0.3188    1.9042    6.3251 O   0  0  0  0  0  0  0  0  0  0  0  0
    0.7648    0.6353    4.3968 O   0  0  0  0  0  0  0  0  0  0  0  0
    1.9183   -0.1892    4.3512 C   0  0  0  0  0  0  0  0  0  0  0  0
    1.6102   -1.3513    5.3155 C   0  0  1  0  0  0  0  0  0  0  0  0
    4.4240   -1.8817    1.2748 H   0  0  0  0  0  0  0  0  0  0  0  0
    2.9347   -2.8095    1.3780 H   0  0  0  0  0  0  0  0  0  0  0  0
    4.4772   -3.5453    1.8471 H   0  0  0  0  0  0  0  0  0  0  0  0
    2.0720   -3.3088    3.5342 H   0  0  0  0  0  0  0  0  0  0  0  0
    3.5848   -3.9748    4.0705 H   0  0  0  0  0  0  0  0  0  0  0  0
    4.3196   -1.1308    5.2529 H   0  0  0  0  0  0  0  0  0  0  0  0
    3.9927   -1.2784    6.8590 H   0  0  0  0  0  0  0  0  0  0  0  0
    5.3890   -3.5753    5.3618 H   0  0  0  0  0  0  0  0  0  0  0  0
    6.0390   -2.0900    5.6756 H   0  0  0  0  0  0  0  0  0  0  0  0
    7.6727   -2.5130    6.6771 H   0  0  0  0  0  0  0  0  0  0  0  0
    8.2756   -4.6769    6.9677 H   0  0  0  0  0  0  0  0  0  0  0  0
    8.0740   -4.6561    8.7180 H   0  0  0  0  0  0  0  0  0  0  0  0
    9.3102   -3.6751    7.9503 H   0  0  0  0  0  0  0  0  0  0  0  0
    7.1142   -0.7355    8.1490 H   0  0  0  0  0  0  0  0  0  0  0  0
    8.7365   -1.2998    8.3242 H   0  0  0  0  0  0  0  0  0  0  0  0
    7.5542   -1.7200    9.5687 H   0  0  0  0  0  0  0  0  0  0  0  0
    5.2378   -4.1390   10.7587 H   0  0  0  0  0  0  0  0  0  0  0  0
    6.1202   -2.7748   10.2016 H   0  0  0  0  0  0  0  0  0  0  0  0
    6.6734   -4.4642    9.9408 H   0  0  0  0  0  0  0  0  0  0  0  0
    5.0180   -5.9407    9.6998 H   0  0  0  0  0  0  0  0  0  0  0  0
    5.0716   -6.9568    7.6337 H   0  0  0  0  0  0  0  0  0  0  0  0
    4.7778   -8.7561   10.0361 H   0  0  0  0  0  0  0  0  0  0  0  0
    6.1947   -7.8150    9.5848 H   0  0  0  0  0  0  0  0  0  0  0  0
    5.6212   -9.0877    8.5295 H   0  0  0  0  0  0  0  0  0  0  0  0
    3.1251   -9.0446    8.1690 H   0  0  0  0  0  0  0  0  0  0  0  0
    1.0881   -7.9824    7.7175 H   0  0  0  0  0  0  0  0  0  0  0  0
    1.6296   -7.0068    8.9620 H   0  0  0  0  0  0  0  0  0  0  0  0
    0.9373   -5.9316    6.7606 H   0  0  0  0  0  0  0  0  0  0  0  0
   -0.7425   -8.0041    5.4279 H   0  0  0  0  0  0  0  0  0  0  0  0
   -2.1722   -7.6385    2.0882 H   0  0  0  0  0  0  0  0  0  0  0  0
   -2.5107   -8.0744    3.7490 H   0  0  0  0  0  0  0  0  0  0  0  0
   -1.5366   -9.1258    2.7430 H   0  0  0  0  0  0  0  0  0  0  0  0
    0.4751  -10.2602    2.5977 H   0  0  0  0  0  0  0  0  0  0  0  0
    2.2066  -10.0479    2.7617 H   0  0  0  0  0  0  0  0  0  0  0  0
    1.1955   -8.7130    2.1826 H   0  0  0  0  0  0  0  0  0  0  0  0
    0.2209  -11.0187    4.9278 H   0  0  0  0  0  0  0  0  0  0  0  0
    0.7513   -9.9920    6.2679 H   0  0  0  0  0  0  0  0  0  0  0  0
    1.9540  -10.8113    5.2618 H   0  0  0  0  0  0  0  0  0  0  0  0
    4.4594   -6.0070    6.6213 H   0  0  0  0  0  0  0  0  0  0  0  0
    1.7598   -4.3926    5.4222 H   0  0  0  0  0  0  0  0  0  0  0  0
    0.4729   -4.3808    7.0519 H   0  0  0  0  0  0  0  0  0  0  0  0
    0.7779   -6.3285   10.9476 H   0  0  0  0  0  0  0  0  0  0  0  0
    1.5351   -5.1993   12.0267 H   0  0  0  0  0  0  0  0  0  0  0  0
    0.9694   -4.9126    9.0502 H   0  0  0  0  0  0  0  0  0  0  0  0
    0.6719   -3.3491   11.3330 H   0  0  0  0  0  0  0  0  0  0  0  0
    3.4018   -4.1625   11.3195 H   0  0  0  0  0  0  0  0  0  0  0  0
    2.7377   -2.3262    8.0041 H   0  0  0  0  0  0  0  0  0  0  0  0
    0.2842   -2.1480    8.6695 H   0  0  0  0  0  0  0  0  0  0  0  0
    0.8809   -1.1082    9.9152 H   0  0  0  0  0  0  0  0  0  0  0  0
    0.4308    0.3364    8.3182 H   0  0  0  0  0  0  0  0  0  0  0  0
    2.5143    1.4301    7.7143 H   0  0  0  0  0  0  0  0  0  0  0  0
    4.5446    1.8850    9.0263 H   0  0  0  0  0  0  0  0  0  0  0  0
    5.5181    0.4922    8.6078 H   0  0  0  0  0  0  0  0  0  0  0  0
    4.9768    0.7062   10.2860 H   0  0  0  0  0  0  0  0  0  0  0  0
   -2.7001   -1.0564    4.5952 H   0  0  0  0  0  0  0  0  0  0  0  0
   -1.1141   -1.0792    3.8201 H   0  0  0  0  0  0  0  0  0  0  0  0
   -2.0587    0.3964    3.8315 H   0  0  0  0  0  0  0  0  0  0  0  0
   -2.3861    1.3794    5.9854 H   0  0  0  0  0  0  0  0  0  0  0  0
    1.2323    2.1401    6.3577 H   0  0  0  0  0  0  0  0  0  0  0  0
    2.0659   -0.5082    3.3179 H   0  0  0  0  0  0  0  0  0  0  0  0
    2.7821    0.3843    4.6760 H   0  0  0  0  0  0  0  0  0  0  0  0
    0.8480   -1.8972    4.7552 H   0  0  0  0  0  0  0  0  0  0  0  0
  1  2  1  0
  1 58  1  0
  1 59  1  0
  1 60  1  0
  2  3  1  0
  4  3  1  6
  3 61  1  0
  3 62  1  0
  4 32  1  0
  4 57  1  0
  4  5  1  0
  5  6  1  0
  5 63  1  0
  5 64  1  0
  6  7  1  0
  6 65  1  0
  6 66  1  0
  7  8  1  0
  7 11  2  3
  8  9  1  0
  8 10  1  0
  8 67  1  0
  9 68  1  0
  9 69  1  0
  9 70  1  0
 10 71  1  0
 10 72  1  0
 10 73  1  0
 11 12  1  0
 13 11  1  6
 12 74  1  0
 12 75  1  0
 12 76  1  0
 13 30  1  0
 13 39  1  0
 13 14  1  0
 14 15  1  0
 14 34  1  0
 14 77  1  1
 15 16  1  0
 15 17  1  0
 15 78  1  6
 16 79  1  0
 16 80  1  0
 16 81  1  0
 17 21  1  0
 17 18  1  0
 17 82  1  1
 18 19  1  0
 18 83  1  0
 18 84  1  0
 19 20  1  0
 19 30  1  0
 19 85  1  6
 20 23  1  0
 20 21  1  1
 20 22  1  0
 23 22  1  6
 23 27  1  0
 23 24  1  0
 24 25  1  0
 24 27  1  0
 24 86  1  1
 25 26  1  0
 26 87  1  0
 26 88  1  0
 26 89  1  0
 27 28  1  0
 27 29  1  0
 28 90  1  0
 28 91  1  0
 28 92  1  0
 29 93  1  0
 29 94  1  0
 29 95  1  0
 30 31  1  6
 30 32  1  0
 31 96  1  0
 32 33  1  0
 32 97  1  6
 33 98  1  0
 34 35  2  0
 34 36  1  6
 36 37  1  0
 36 99  1  0
 36100  1  0
 37 38  1  0
 37 39  1  0
 37101  1  6
 38102  1  0
 39 40  1  1
 39 41  1  0
 40103  1  0
 41 47  1  0
 41 42  1  0
 41104  1  6
 42 43  1  0
 42105  1  0
 42106  1  0
 43 44  1  0
 43 48  1  0
 43107  1  1
 44 45  2  0
 44108  1  0
 45 46  1  0
 45 47  1  0
 46109  1  0
 46110  1  0
 46111  1  0
 48 53  1  0
 48 57  1  0
 48 49  1  1
 49 50  1  0
 50 51  1  0
 50 52  1  1
 50 53  1  0
 51112  1  0
 51113  1  0
 51114  1  0
 52115  1  0
 53 54  1  1
 53 55  1  0
 54116  1  0
 55 56  1  0
 56 57  1  0
 56117  1  0
 56118  1  0
 57119  1  6
M  END
>  <i_m_ct_stereo_status>  (50) 
1

>  <s_m_source_file>  (50) 
/var/tmp/pbs.5075288.sched01/tmpsukb34hn/166582q88ej.sdf

>  <i_m_source_file_index>  (50) 
55

>  <i_lp_mmshare_version>  (50) 
48012

>  <i_f3d_flags>  (50) 
0

>  <s_epik_input>  (50) 
W0NAXTEyM1tDQEBIXTRbQ0BASF0oW0NIM10pW0NASF01W0NIMl1bQ0BIXShbQ0BAXTYoTzUpQzcoTzYpW0NAQEhdKE9bQ0gzXSlDNyhbQ0gzXSlbQ0gzXSlbQ0BAXTIoW09IXSlbQ0BASF0oW09IXSlbQ0BdKFtDSDJdT1tDSDNdKShbQ0gyXVtDSDJdL0MoW0NIXShbQ0gzXSlbQ0gzXSk9QzEvW0NIM10pW0NASF04W0NAXTkoW0NAXShbT0hdKShbQ0BdKE85KShbQ0gzXSlbT0hdKU9bQ0gyXTgpW0NASF0xW0NIMl1bQ0BASF0oT0MoPVtDSF0xKVtDSDNdKVtDQEBdMyhbT0hdKVtDQEhdKFtPSF0pW0NIMl1bUytdNFtPLV0=

>  <s_epik_cmdline>  (50) 
J2VwaWtfcHl0aG9uJywgJy1waHQnLCAnMi4wJywgJy1waCcsICc3LjAnLCAnLXRuJywgJzgnLCAnLW1hJywgJzIwMCcsICctaW1hZScsICc8aW5maWxlLm1hZT4nLCAnLW9tYWUnLCAnPG91dGZpbGUubWFlPic=

>  <r_lp_tautomer_probability>  (50) 
1

>  <r_epik_Ionization_Penalty>  (50) 
2.17092e-05

>  <r_epik_Ionization_Penalty_Charging>  (50) 
0

>  <r_epik_Ionization_Penalty_Neutral>  (50) 
2.17092e-05

>  <r_epik_State_Penalty>  (50) 
-0

>  <r_epik_Charging_Adjusted_Penalty>  (50) 
0

>  <i_epik_Tot_Q>  (50) 
0

>  <i_epik_Tot_abs_Q>  (50) 
2

>  <s_lp_Force_Field>  (50) 
OPLS3e

>  <r_lp_Energy>  (50) 
203.247

>  <b_lp_Chiralities_Consistent>  (50) 
1

>  <s_lp_Variant>  (50) 
62:0-1

>  <s_i_glide_gridfile>  (50) 
pfpi4k_grid

>  <i_i_glide_lignum>  (50) 
55

>  <i_i_glide_rotatable_bonds>  (50) 
10

>  <r_i_docking_score>  (50) 
-2.20115

>  <r_i_glide_ligand_efficiency>  (50) 
-0.0386167

>  <r_i_glide_ligand_efficiency_sa>  (50) 
-0.148616

>  <r_i_glide_ligand_efficiency_ln>  (50) 
-0.436472

>  <r_i_glide_gscore>  (50) 
-2.20115

>  <r_i_glide_lipo>  (50) 
-0.141079

>  <r_i_glide_hbond>  (50) 
0

>  <r_i_glide_metal>  (50) 
-0

>  <r_i_glide_rewards>  (50) 
0

>  <r_i_glide_evdw>  (50) 
-23.8236

>  <r_i_glide_ecoul>  (50) 
-5.60263

>  <r_i_glide_erotb>  (50) 
0.0322526

>  <r_i_glide_esite>  (50) 
-0.0607493

>  <r_i_glide_emodel>  (50) 
-28.0805

>  <r_i_glide_energy>  (50) 
-29.4262

>  <r_i_glide_einternal>  (50) 
5.6268

>  <r_i_glide_intrahb_reward>  (50) 
-0

>  <i_i_glide_confnum>  (50) 
5

>  <i_i_glide_posenum>  (50) 
34

>  <r_i_glide_eff_state_penalty>  (50) 
0

>  <ligand_id>  (50) 
62

>  <original_smiles>  (50) 
COCC12CCC(C(C)C)=C(C)C34C(C(C)C5CC(C6(O5)OC65C(OC)C5(C)C)C3(O)C1O)[S+]([O-])CC(O)C4(O)C1CC(C=C(C)O1)C13OC(C)(O)C1(O)OCC23

>  <smiles>  (50) 
[H]OC1([H])C([H])([H])S(=O)C2([H])C([H])(C([H])([H])[H])C3([H])OC4(OC45C([H])(OC([H])([H])[H])C5(C([H])([H])[H])C([H])([H])[H])C([H])(C3([H])[H])C3(O[H])C([H])(O[H])C4(C([H])([H])OC([H])([H])[H])C([H])([H])C([H])([H])C(C([H])(C([H])([H])[H])C([H])([H])[H])=C(C([H])([H])[H])C23C1(O[H])C1([H])OC(C([H])([H])[H])=C([H])C([H])(C1([H])[H])C12OC(O[H])(C([H])([H])[H])C1(O[H])OC([H])([H])C24[H]

$$$$
62:2:0
     RDKit          3D

119128  0  0  1  0  0  0  0  0999 V2000
    0.0091   -0.5871    3.2388 C   0  0  0  0  0  0  0  0  0  0  0  0
   -0.7563   -1.1907    4.2622 O   0  0  0  0  0  0  0  0  0  0  0  0
   -0.1492   -2.2607    5.0109 C   0  0  0  0  0  0  0  0  0  0  0  0
    1.3795   -2.1271    5.4293 C   0  0  2  0  0  0  0  0  0  0  0  0
    1.6698   -3.4211    6.2613 C   0  0  0  0  0  0  0  0  0  0  0  0
    0.9063   -3.7050    7.5582 C   0  0  0  0  0  0  0  0  0  0  0  0
    1.6598   -3.5154    8.8880 C   0  0  0  0  0  0  0  0  0  0  0  0
    1.4978   -4.8234    9.7354 C   0  0  0  0  0  0  0  0  0  0  0  0
    2.3387   -6.0048    9.2163 C   0  0  0  0  0  0  0  0  0  0  0  0
    0.0258   -5.2287    9.9934 C   0  0  0  0  0  0  0  0  0  0  0  0
    2.3445   -2.4090    9.3734 C   0  0  0  0  0  0  0  0  0  0  0  0
    3.1694   -2.7202   10.6526 C   0  0  0  0  0  0  0  0  0  0  0  0
    2.4138   -0.8502    8.9028 C   0  0  2  0  0  0  0  0  0  0  0  0
    2.0692   -0.0247   10.2791 C   0  0  2  0  0  0  0  0  0  0  0  0
    0.6062    0.4353   10.6524 C   0  0  1  0  0  0  0  0  0  0  0  0
    0.3798    0.5974   12.1772 C   0  0  0  0  0  0  0  0  0  0  0  0
    0.0509    1.6747    9.9010 C   0  0  1  0  0  0  0  0  0  0  0  0
    0.9743    2.1549    8.8043 C   0  0  0  0  0  0  0  0  0  0  0  0
    0.7034    1.1563    7.7040 C   0  0  2  0  0  0  0  0  0  0  0  0
   -0.8119    1.2931    7.8004 C   0  0  2  0  0  0  0  0  0  0  0  0
   -1.1497    1.3518    9.1836 O   0  0  0  0  0  0  0  0  0  0  0  0
   -1.7911    0.6796    6.8599 O   0  0  0  0  0  0  0  0  0  0  0  0
   -1.6929    2.1133    6.9354 C   0  0  1  0  0  0  0  0  0  0  0  0
   -2.7804    3.1268    6.9393 C   0  0  1  0  0  0  0  0  0  0  0  0
   -2.6684    4.1013    7.9537 O   0  0  0  0  0  0  0  0  0  0  0  0
   -3.4240    3.7492    9.0993 C   0  0  0  0  0  0  0  0  0  0  0  0
   -1.6438    3.1293    5.8407 C   0  0  0  0  0  0  0  0  0  0  0  0
   -0.5329    4.1659    5.8601 C   0  0  0  0  0  0  0  0  0  0  0  0
   -2.1161    2.8613    4.4178 C   0  0  0  0  0  0  0  0  0  0  0  0
    1.2753   -0.3867    7.7615 C   0  0  2  0  0  0  0  0  0  0  0  0
    0.1242   -1.1130    8.1234 O   0  0  0  0  0  0  0  0  0  0  0  0
    1.4571   -0.7080    6.1956 C   0  0  1  0  0  0  0  0  0  0  0  0
    2.4053    0.1591    5.6179 O   0  0  0  0  0  0  0  0  0  0  0  0
    3.3290    1.1860   10.9604 S   0  0  0  0  0  0  0  0  0  0  0  0
    4.2463    0.4706   11.9528 O   0  0  0  0  0  0  0  0  0  0  0  0
    4.3576    1.7828    9.5342 C   0  0  0  0  0  0  0  0  0  0  0  0
    4.1931    0.9821    8.2168 C   0  0  1  0  0  0  0  0  0  0  0  0
    5.3663    1.3398    7.5032 O   0  0  0  0  0  0  0  0  0  0  0  0
    3.9479   -0.5581    8.3917 C   0  0  1  0  0  0  0  0  0  0  0  0
    4.9856   -0.8871    9.3065 O   0  0  0  0  0  0  0  0  0  0  0  0
    4.3706   -1.5117    7.2004 C   0  0  1  0  0  0  0  0  0  0  0  0
    5.0869   -1.0038    5.9287 C   0  0  0  0  0  0  0  0  0  0  0  0
    4.9520   -2.0207    4.7817 C   0  0  1  0  0  0  0  0  0  0  0  0
    5.1210   -3.4240    5.3081 C   0  0  0  0  0  0  0  0  0  0  0  0
    5.1732   -3.7048    6.6215 C   0  0  0  0  0  0  0  0  0  0  0  0
    5.4904   -5.0687    7.1796 C   0  0  0  0  0  0  0  0  0  0  0  0
    4.9239   -2.7757    7.6144 O   0  0  0  0  0  0  0  0  0  0  0  0
    3.7638   -1.8430    3.7786 C   0  0  1  0  0  0  0  0  0  0  0  0
    3.7825   -0.4670    3.2390 O   0  0  0  0  0  0  0  0  0  0  0  0
    4.0142   -0.9390    1.8809 C   0  0  1  0  0  0  0  0  0  0  0  0
    2.9369   -0.4359    0.9171 C   0  0  0  0  0  0  0  0  0  0  0  0
    5.2415   -0.4901    1.3298 O   0  0  0  0  0  0  0  0  0  0  0  0
    3.9742   -2.4025    2.3579 C   0  0  1  0  0  0  0  0  0  0  0  0
    5.0986   -3.1976    2.1052 O   0  0  0  0  0  0  0  0  0  0  0  0
    2.7722   -3.0673    1.9769 O   0  0  0  0  0  0  0  0  0  0  0  0
    1.9911   -3.4021    3.1137 C   0  0  0  0  0  0  0  0  0  0  0  0
    2.3032   -2.2674    4.0980 C   0  0  1  0  0  0  0  0  0  0  0  0
   -0.3981    0.1815    2.6520 H   0  0  0  0  0  0  0  0  0  0  0  0
    0.3465   -1.3691    2.5280 H   0  0  0  0  0  0  0  0  0  0  0  0
    0.8822   -0.0689    3.6904 H   0  0  0  0  0  0  0  0  0  0  0  0
   -0.7891   -2.3236    5.8953 H   0  0  0  0  0  0  0  0  0  0  0  0
   -0.3542   -3.1989    4.4955 H   0  0  0  0  0  0  0  0  0  0  0  0
    1.4212   -4.2468    5.6003 H   0  0  0  0  0  0  0  0  0  0  0  0
    2.7096   -3.6177    6.3991 H   0  0  0  0  0  0  0  0  0  0  0  0
   -0.1276   -3.3879    7.5798 H   0  0  0  0  0  0  0  0  0  0  0  0
    0.7461   -4.7755    7.4512 H   0  0  0  0  0  0  0  0  0  0  0  0
    1.8403   -4.6977   10.7555 H   0  0  0  0  0  0  0  0  0  0  0  0
    3.3988   -5.7991    9.3505 H   0  0  0  0  0  0  0  0  0  0  0  0
    2.1686   -6.2313    8.1653 H   0  0  0  0  0  0  0  0  0  0  0  0
    2.1280   -6.9154    9.7788 H   0  0  0  0  0  0  0  0  0  0  0  0
   -0.5318   -4.4099   10.4490 H   0  0  0  0  0  0  0  0  0  0  0  0
   -0.0241   -6.0654   10.6944 H   0  0  0  0  0  0  0  0  0  0  0  0
   -0.5078   -5.5409    9.0974 H   0  0  0  0  0  0  0  0  0  0  0  0
    3.8538   -1.9598   11.0061 H   0  0  0  0  0  0  0  0  0  0  0  0
    3.7824   -3.6100   10.5118 H   0  0  0  0  0  0  0  0  0  0  0  0
    2.5146   -2.8747   11.5112 H   0  0  0  0  0  0  0  0  0  0  0  0
    2.1889   -0.6843   11.1217 H   0  0  0  0  0  0  0  0  0  0  0  0
   -0.0382   -0.4095   10.4257 H   0  0  0  0  0  0  0  0  0  0  0  0
    0.9410    1.4332   12.5947 H   0  0  0  0  0  0  0  0  0  0  0  0
    0.6578   -0.2991   12.7340 H   0  0  0  0  0  0  0  0  0  0  0  0
   -0.6724    0.7821   12.3955 H   0  0  0  0  0  0  0  0  0  0  0  0
   -0.1453    2.4975   10.5920 H   0  0  0  0  0  0  0  0  0  0  0  0
    0.6375    3.1503    8.5021 H   0  0  0  0  0  0  0  0  0  0  0  0
    1.9925    2.3238    9.0614 H   0  0  0  0  0  0  0  0  0  0  0  0
    1.0194    1.6813    6.8011 H   0  0  0  0  0  0  0  0  0  0  0  0
   -3.7958    2.9608    6.5881 H   0  0  0  0  0  0  0  0  0  0  0  0
   -3.3665    4.5340    9.8549 H   0  0  0  0  0  0  0  0  0  0  0  0
   -3.0269    2.8394    9.5388 H   0  0  0  0  0  0  0  0  0  0  0  0
   -4.4778    3.5821    8.8745 H   0  0  0  0  0  0  0  0  0  0  0  0
   -0.8063    5.0638    5.3067 H   0  0  0  0  0  0  0  0  0  0  0  0
    0.3699    3.7547    5.4052 H   0  0  0  0  0  0  0  0  0  0  0  0
   -0.2825    4.4727    6.8739 H   0  0  0  0  0  0  0  0  0  0  0  0
   -2.4547    3.7843    3.9323 H   0  0  0  0  0  0  0  0  0  0  0  0
   -2.9529    2.1591    4.3979 H   0  0  0  0  0  0  0  0  0  0  0  0
   -1.3049    2.4387    3.8200 H   0  0  0  0  0  0  0  0  0  0  0  0
    0.3625   -2.0293    8.1462 H   0  0  0  0  0  0  0  0  0  0  0  0
    0.5942   -0.1820    5.7947 H   0  0  0  0  0  0  0  0  0  0  0  0
    2.2695    0.1868    4.6778 H   0  0  0  0  0  0  0  0  0  0  0  0
    4.1375    2.8398    9.3797 H   0  0  0  0  0  0  0  0  0  0  0  0
    5.3834    1.7353    9.9018 H   0  0  0  0  0  0  0  0  0  0  0  0
    3.3942    1.4048    7.6217 H   0  0  0  0  0  0  0  0  0  0  0  0
    5.3209    0.9695    6.6368 H   0  0  0  0  0  0  0  0  0  0  0  0
    4.9416   -1.8147    9.4885 H   0  0  0  0  0  0  0  0  0  0  0  0
    3.4280   -1.8058    6.8358 H   0  0  0  0  0  0  0  0  0  0  0  0
    4.7419   -0.0360    5.5797 H   0  0  0  0  0  0  0  0  0  0  0  0
    6.1388   -0.8612    6.1615 H   0  0  0  0  0  0  0  0  0  0  0  0
    5.8161   -1.8353    4.1710 H   0  0  0  0  0  0  0  0  0  0  0  0
    5.2886   -4.2054    4.5819 H   0  0  0  0  0  0  0  0  0  0  0  0
    5.9531   -5.7131    6.4296 H   0  0  0  0  0  0  0  0  0  0  0  0
    4.5841   -5.5592    7.5290 H   0  0  0  0  0  0  0  0  0  0  0  0
    6.1810   -4.9716    8.0210 H   0  0  0  0  0  0  0  0  0  0  0  0
    2.9817    0.6393    0.7551 H   0  0  0  0  0  0  0  0  0  0  0  0
    1.9382   -0.6411    1.2889 H   0  0  0  0  0  0  0  0  0  0  0  0
    3.0096   -0.9306   -0.0528 H   0  0  0  0  0  0  0  0  0  0  0  0
    5.0464    0.2437    0.7659 H   0  0  0  0  0  0  0  0  0  0  0  0
    5.0688   -3.3817    1.1811 H   0  0  0  0  0  0  0  0  0  0  0  0
    0.9570   -3.4040    2.7738 H   0  0  0  0  0  0  0  0  0  0  0  0
    2.2109   -4.3942    3.5302 H   0  0  0  0  0  0  0  0  0  0  0  0
    1.9930   -1.5664    3.5152 H   0  0  0  0  0  0  0  0  0  0  0  0
  1  2  1  0
  1 58  1  0
  1 59  1  0
  1 60  1  0
  2  3  1  0
  4  3  1  6
  3 61  1  0
  3 62  1  0
  4 32  1  0
  4 57  1  0
  4  5  1  0
  5  6  1  0
  5 63  1  0
  5 64  1  0
  6  7  1  0
  6 65  1  0
  6 66  1  0
  7  8  1  0
  7 11  2  3
  8  9  1  0
  8 10  1  0
  8 67  1  0
  9 68  1  0
  9 69  1  0
  9 70  1  0
 10 71  1  0
 10 72  1  0
 10 73  1  0
 11 12  1  0
 13 11  1  1
 12 74  1  0
 12 75  1  0
 12 76  1  0
 13 30  1  0
 13 39  1  0
 13 14  1  0
 14 15  1  0
 14 34  1  0
 14 77  1  1
 15 16  1  0
 15 17  1  0
 15 78  1  6
 16 79  1  0
 16 80  1  0
 16 81  1  0
 17 21  1  0
 17 18  1  0
 17 82  1  1
 18 19  1  0
 18 83  1  0
 18 84  1  0
 19 20  1  0
 19 30  1  0
 19 85  1  6
 20 23  1  0
 20 21  1  1
 20 22  1  0
 23 22  1  6
 23 27  1  0
 23 24  1  0
 24 25  1  0
 24 27  1  0
 24 86  1  6
 25 26  1  0
 26 87  1  0
 26 88  1  0
 26 89  1  0
 27 28  1  0
 27 29  1  0
 28 90  1  0
 28 91  1  0
 28 92  1  0
 29 93  1  0
 29 94  1  0
 29 95  1  0
 30 31  1  1
 30 32  1  0
 31 96  1  0
 32 33  1  0
 32 97  1  6
 33 98  1  0
 34 35  2  0
 34 36  1  6
 36 37  1  0
 36 99  1  0
 36100  1  0
 37 38  1  0
 37 39  1  0
 37101  1  6
 38102  1  0
 39 40  1  1
 39 41  1  0
 40103  1  0
 41 47  1  0
 41 42  1  0
 41104  1  6
 42 43  1  0
 42105  1  0
 42106  1  0
 43 44  1  0
 43 48  1  0
 43107  1  6
 44 45  2  0
 44108  1  0
 45 46  1  0
 45 47  1  0
 46109  1  0
 46110  1  0
 46111  1  0
 48 53  1  0
 48 57  1  0
 48 49  1  6
 49 50  1  0
 50 51  1  0
 50 52  1  6
 50 53  1  0
 51112  1  0
 51113  1  0
 51114  1  0
 52115  1  0
 53 54  1  1
 53 55  1  0
 54116  1  0
 55 56  1  0
 56 57  1  0
 56117  1  0
 56118  1  0
 57119  1  6
M  END
>  <i_m_ct_stereo_status>  (51) 
1

>  <s_m_source_file>  (51) 
/var/tmp/pbs.5075288.sched01/tmpsukb34hn/166582q88ej.sdf

>  <i_m_source_file_index>  (51) 
57

>  <i_lp_mmshare_version>  (51) 
48012

>  <i_f3d_flags>  (51) 
0

>  <s_epik_input>  (51) 
W0NAXTEyM1tDQEBIXTRbQ0BASF0oW0NIM10pW0NASF01W0NIMl1bQ0BIXShbQ0BAXTYoTzUpQzcoTzYpW0NAQEhdKE9bQ0gzXSlDNyhbQ0gzXSlbQ0gzXSlbQ0BAXTIoW09IXSlbQ0BASF0oW09IXSlbQ0BdKFtDSDJdT1tDSDNdKShbQ0gyXVtDSDJdL0MoW0NIXShbQ0gzXSlbQ0gzXSk9QzEvW0NIM10pW0NASF04W0NAXTkoW0NAXShbT0hdKShbQ0BdKE85KShbQ0gzXSlbT0hdKU9bQ0gyXTgpW0NASF0xW0NIMl1bQ0BASF0oT0MoPVtDSF0xKVtDSDNdKVtDQEBdMyhbT0hdKVtDQEhdKFtPSF0pW0NIMl1bUytdNFtPLV0=

>  <s_epik_cmdline>  (51) 
J2VwaWtfcHl0aG9uJywgJy1waHQnLCAnMi4wJywgJy1waCcsICc3LjAnLCAnLXRuJywgJzgnLCAnLW1hJywgJzIwMCcsICctaW1hZScsICc8aW5maWxlLm1hZT4nLCAnLW9tYWUnLCAnPG91dGZpbGUubWFlPic=

>  <r_lp_tautomer_probability>  (51) 
1

>  <r_epik_Ionization_Penalty>  (51) 
2.17092e-05

>  <r_epik_Ionization_Penalty_Charging>  (51) 
0

>  <r_epik_Ionization_Penalty_Neutral>  (51) 
2.17092e-05

>  <r_epik_State_Penalty>  (51) 
-0

>  <r_epik_Charging_Adjusted_Penalty>  (51) 
0

>  <i_epik_Tot_Q>  (51) 
0

>  <i_epik_Tot_abs_Q>  (51) 
2

>  <s_lp_Force_Field>  (51) 
OPLS3e

>  <r_lp_Energy>  (51) 
205.181

>  <b_lp_Chiralities_Consistent>  (51) 
1

>  <s_lp_Variant>  (51) 
62:0-3

>  <s_i_glide_gridfile>  (51) 
pfpi4k_grid

>  <i_i_glide_lignum>  (51) 
57

>  <i_i_glide_rotatable_bonds>  (51) 
10

>  <r_i_docking_score>  (51) 
-1.7584

>  <r_i_glide_ligand_efficiency>  (51) 
-0.0308491

>  <r_i_glide_ligand_efficiency_sa>  (51) 
-0.118723

>  <r_i_glide_ligand_efficiency_ln>  (51) 
-0.348677

>  <r_i_glide_gscore>  (51) 
-1.7584

>  <r_i_glide_lipo>  (51) 
-0.327448

>  <r_i_glide_hbond>  (51) 
-0.16

>  <r_i_glide_metal>  (51) 
-0

>  <r_i_glide_rewards>  (51) 
-0.526575

>  <r_i_glide_evdw>  (51) 
-25.2353

>  <r_i_glide_ecoul>  (51) 
-6.69354

>  <r_i_glide_erotb>  (51) 
0.0322526

>  <r_i_glide_esite>  (51) 
-0.0397292

>  <r_i_glide_emodel>  (51) 
-31.9932

>  <r_i_glide_energy>  (51) 
-31.9288

>  <r_i_glide_einternal>  (51) 
4.48731

>  <r_i_glide_intrahb_reward>  (51) 
-0.5

>  <i_i_glide_confnum>  (51) 
3

>  <i_i_glide_posenum>  (51) 
34

>  <r_i_glide_eff_state_penalty>  (51) 
0

>  <ligand_id>  (51) 
62

>  <original_smiles>  (51) 
COCC12CCC(C(C)C)=C(C)C34C(C(C)C5CC(C6(O5)OC65C(OC)C5(C)C)C3(O)C1O)[S+]([O-])CC(O)C4(O)C1CC(C=C(C)O1)C13OC(C)(O)C1(O)OCC23

>  <smiles>  (51) 
[H]OC1([H])C([H])([H])S(=O)C2([H])C([H])(C([H])([H])[H])C3([H])OC4(OC45C([H])(OC([H])([H])[H])C5(C([H])([H])[H])C([H])([H])[H])C([H])(C3([H])[H])C3(O[H])C([H])(O[H])C4(C([H])([H])OC([H])([H])[H])C([H])([H])C([H])([H])C(C([H])(C([H])([H])[H])C([H])([H])[H])=C(C([H])([H])[H])C23C1(O[H])C1([H])OC(C([H])([H])[H])=C([H])C([H])(C1([H])[H])C12OC(O[H])(C([H])([H])[H])C1(O[H])OC([H])([H])C24[H]

$$$$
62:2:1
     RDKit          3D

119128  0  0  1  0  0  0  0  0999 V2000
    0.0053   -0.6203    3.2422 C   0  0  0  0  0  0  0  0  0  0  0  0
   -0.7533   -1.2131    4.2844 O   0  0  0  0  0  0  0  0  0  0  0  0
   -0.1412   -2.2913    5.0253 C   0  0  0  0  0  0  0  0  0  0  0  0
    1.3851   -2.1719    5.4398 C   0  0  2  0  0  0  0  0  0  0  0  0
    1.6617   -3.4683    6.2822 C   0  0  0  0  0  0  0  0  0  0  0  0
    0.8966   -3.7314    7.5841 C   0  0  0  0  0  0  0  0  0  0  0  0
    1.6599   -3.5430    8.9074 C   0  0  0  0  0  0  0  0  0  0  0  0
    1.4837   -4.8417    9.7660 C   0  0  0  0  0  0  0  0  0  0  0  0
    2.3111   -6.0356    9.2542 C   0  0  0  0  0  0  0  0  0  0  0  0
    0.0070   -5.2288   10.0253 C   0  0  0  0  0  0  0  0  0  0  0  0
    2.3603   -2.4415    9.3821 C   0  0  0  0  0  0  0  0  0  0  0  0
    3.1833   -2.7536   10.6618 C   0  0  0  0  0  0  0  0  0  0  0  0
    2.4468   -0.8878    8.9018 C   0  0  2  0  0  0  0  0  0  0  0  0
    2.1148   -0.0494   10.2730 C   0  0  2  0  0  0  0  0  0  0  0  0
    0.6607    0.4340   10.6469 C   0  0  1  0  0  0  0  0  0  0  0  0
    0.4420    0.6096   12.1713 C   0  0  0  0  0  0  0  0  0  0  0  0
    0.1168    1.6734    9.8879 C   0  0  1  0  0  0  0  0  0  0  0  0
    1.0470    2.1333    8.7880 C   0  0  0  0  0  0  0  0  0  0  0  0
    0.7545    1.1329    7.6943 C   0  0  2  0  0  0  0  0  0  0  0  0
   -0.7550    1.2868    7.7927 C   0  0  2  0  0  0  0  0  0  0  0  0
   -1.0934    1.3574    9.1812 O   0  0  0  0  0  0  0  0  0  0  0  0
   -1.7485    0.6977    6.8586 O   0  0  0  0  0  0  0  0  0  0  0  0
   -1.6198    2.1152    6.9379 C   0  0  1  0  0  0  0  0  0  0  0  0
   -2.7179    3.1355    6.9276 C   0  0  1  0  0  0  0  0  0  0  0  0
   -2.5705    4.1102    7.9350 O   0  0  0  0  0  0  0  0  0  0  0  0
   -3.3224    3.7802    9.0894 C   0  0  0  0  0  0  0  0  0  0  0  0
   -1.5676    3.1221    5.8186 C   0  0  0  0  0  0  0  0  0  0  0  0
   -0.4490    4.1428    5.8335 C   0  0  0  0  0  0  0  0  0  0  0  0
   -2.0500    2.8479    4.4072 C   0  0  0  0  0  0  0  0  0  0  0  0
    1.3100   -0.4173    7.7660 C   0  0  2  0  0  0  0  0  0  0  0  0
    0.1515   -1.1280    8.1331 O   0  0  0  0  0  0  0  0  0  0  0  0
    1.4814   -0.7528    6.2046 C   0  0  1  0  0  0  0  0  0  0  0  0
    2.4453    0.1023    5.6333 O   0  0  0  0  0  0  0  0  0  0  0  0
    3.3904    1.1534   10.9376 S   0  0  0  0  0  0  0  0  0  0  0  0
    4.3034    0.4309   11.9340 O   0  0  0  0  0  0  0  0  0  0  0  0
    4.4278    1.7264    9.5093 C   0  0  0  0  0  0  0  0  0  0  0  0
    4.2451    0.9171    8.1993 C   0  0  1  0  0  0  0  0  0  0  0  0
    5.4190    1.2562    7.4736 O   0  0  0  0  0  0  0  0  0  0  0  0
    3.9812   -0.6165    8.3825 C   0  0  1  0  0  0  0  0  0  0  0  0
    5.0176   -0.9548    9.2969 O   0  0  0  0  0  0  0  0  0  0  0  0
    4.3899   -1.5846    7.1977 C   0  0  1  0  0  0  0  0  0  0  0  0
    5.1066   -1.0936    5.9207 C   0  0  0  0  0  0  0  0  0  0  0  0
    4.9388   -2.1224    4.7922 C   0  0  1  0  0  0  0  0  0  0  0  0
    5.1106   -3.5190    5.3220 C   0  0  0  0  0  0  0  0  0  0  0  0
    5.1651   -3.7944    6.6340 C   0  0  0  0  0  0  0  0  0  0  0  0
    5.4635   -5.1546    7.1965 C   0  0  0  0  0  0  0  0  0  0  0  0
    4.9239   -2.8482    7.6206 O   0  0  0  0  0  0  0  0  0  0  0  0
    3.7612   -1.9375    3.7733 C   0  0  1  0  0  0  0  0  0  0  0  0
    3.8077   -0.5698    3.2317 O   0  0  0  0  0  0  0  0  0  0  0  0
    4.0212   -1.0510    1.8786 C   0  0  1  0  0  0  0  0  0  0  0  0
    2.9519   -0.5337    0.9129 C   0  0  0  0  0  0  0  0  0  0  0  0
    5.2581   -0.6111    1.3116 O   0  0  0  0  0  0  0  0  0  0  0  0
    3.9677   -2.5002    2.3641 C   0  0  1  0  0  0  0  0  0  0  0  0
    5.0860   -3.3260    2.1501 O   0  0  0  0  0  0  0  0  0  0  0  0
    2.7512   -3.1552    1.9876 O   0  0  0  0  0  0  0  0  0  0  0  0
    1.9740   -3.4766    3.1327 C   0  0  0  0  0  0  0  0  0  0  0  0
    2.3066   -2.3384    4.1112 C   0  0  1  0  0  0  0  0  0  0  0  0
   -0.4081    0.1490    2.6533 H   0  0  0  0  0  0  0  0  0  0  0  0
    0.3193   -1.4113    2.5364 H   0  0  0  0  0  0  0  0  0  0  0  0
    0.8914   -0.1140    3.6718 H   0  0  0  0  0  0  0  0  0  0  0  0
   -0.7840   -2.3474    5.9091 H   0  0  0  0  0  0  0  0  0  0  0  0
   -0.3625   -3.2270    4.5130 H   0  0  0  0  0  0  0  0  0  0  0  0
    1.3966   -4.2913    5.6279 H   0  0  0  0  0  0  0  0  0  0  0  0
    2.6968   -3.6753    6.4185 H   0  0  0  0  0  0  0  0  0  0  0  0
   -0.1324   -3.4029    7.6081 H   0  0  0  0  0  0  0  0  0  0  0  0
    0.7245   -4.8010    7.4839 H   0  0  0  0  0  0  0  0  0  0  0  0
    1.8270   -4.7125   10.7847 H   0  0  0  0  0  0  0  0  0  0  0  0
    3.3732   -5.8404    9.3874 H   0  0  0  0  0  0  0  0  0  0  0  0
    2.1380   -6.2689    8.2057 H   0  0  0  0  0  0  0  0  0  0  0  0
    2.0909   -6.9397    9.8245 H   0  0  0  0  0  0  0  0  0  0  0  0
   -0.5419   -4.4014   10.4757 H   0  0  0  0  0  0  0  0  0  0  0  0
   -0.0514   -6.0597   10.7334 H   0  0  0  0  0  0  0  0  0  0  0  0
   -0.5299   -5.5428    9.1325 H   0  0  0  0  0  0  0  0  0  0  0  0
    3.8786   -1.9994   11.0076 H   0  0  0  0  0  0  0  0  0  0  0  0
    3.7844   -3.6522   10.5255 H   0  0  0  0  0  0  0  0  0  0  0  0
    2.5294   -2.8940   11.5231 H   0  0  0  0  0  0  0  0  0  0  0  0
    2.2272   -0.7051   11.1190 H   0  0  0  0  0  0  0  0  0  0  0  0
    0.0040   -0.4041   10.4291 H   0  0  0  0  0  0  0  0  0  0  0  0
    1.0145    1.4413   12.5816 H   0  0  0  0  0  0  0  0  0  0  0  0
    0.7099   -0.2863   12.7337 H   0  0  0  0  0  0  0  0  0  0  0  0
   -0.6072    0.8081   12.3928 H   0  0  0  0  0  0  0  0  0  0  0  0
   -0.0664    2.5018   10.5745 H   0  0  0  0  0  0  0  0  0  0  0  0
    0.7181    3.1301    8.4776 H   0  0  0  0  0  0  0  0  0  0  0  0
    2.0640    2.2930    9.0385 H   0  0  0  0  0  0  0  0  0  0  0  0
    1.0701    1.6502    6.7875 H   0  0  0  0  0  0  0  0  0  0  0  0
   -3.7252    2.9808    6.5801 H   0  0  0  0  0  0  0  0  0  0  0  0
   -3.2518    4.5717    9.8387 H   0  0  0  0  0  0  0  0  0  0  0  0
   -2.9282    2.8733    9.5335 H   0  0  0  0  0  0  0  0  0  0  0  0
   -4.3783    3.6186    8.8752 H   0  0  0  0  0  0  0  0  0  0  0  0
   -0.7140    5.0394    5.2737 H   0  0  0  0  0  0  0  0  0  0  0  0
    0.4485    3.7193    5.3772 H   0  0  0  0  0  0  0  0  0  0  0  0
   -0.1927    4.4530    6.8432 H   0  0  0  0  0  0  0  0  0  0  0  0
   -2.3792    3.7726    3.9162 H   0  0  0  0  0  0  0  0  0  0  0  0
   -2.8975    2.1561    4.3931 H   0  0  0  0  0  0  0  0  0  0  0  0
   -1.2466    2.4114    3.8048 H   0  0  0  0  0  0  0  0  0  0  0  0
    0.3819   -2.0401    8.1715 H   0  0  0  0  0  0  0  0  0  0  0  0
    0.6260   -0.2177    5.7998 H   0  0  0  0  0  0  0  0  0  0  0  0
    2.2081    0.9918    5.7952 H   0  0  0  0  0  0  0  0  0  0  0  0
    4.2199    2.7844    9.3446 H   0  0  0  0  0  0  0  0  0  0  0  0
    5.4541    1.6693    9.8708 H   0  0  0  0  0  0  0  0  0  0  0  0
    3.4506    1.3467    7.6065 H   0  0  0  0  0  0  0  0  0  0  0  0
    5.3697    0.8809    6.6174 H   0  0  0  0  0  0  0  0  0  0  0  0
    4.9710   -1.8773    9.4740 H   0  0  0  0  0  0  0  0  0  0  0  0
    3.4416   -1.8704    6.8374 H   0  0  0  0  0  0  0  0  0  0  0  0
    4.7739   -0.1247    5.5625 H   0  0  0  0  0  0  0  0  0  0  0  0
    6.1619   -0.9675    6.1474 H   0  0  0  0  0  0  0  0  0  0  0  0
    5.8480   -1.9451    4.1554 H   0  0  0  0  0  0  0  0  0  0  0  0
    5.2654   -4.3087    4.6024 H   0  0  0  0  0  0  0  0  0  0  0  0
    5.9165   -5.8117    6.4512 H   0  0  0  0  0  0  0  0  0  0  0  0
    4.5523   -5.6323    7.5533 H   0  0  0  0  0  0  0  0  0  0  0  0
    6.1582   -5.0624    8.0376 H   0  0  0  0  0  0  0  0  0  0  0  0
    3.0050    0.5387    0.7393 H   0  0  0  0  0  0  0  0  0  0  0  0
    1.9493   -0.7247    1.2861 H   0  0  0  0  0  0  0  0  0  0  0  0
    3.0131   -1.0362   -0.0540 H   0  0  0  0  0  0  0  0  0  0  0  0
    5.0703    0.1497    0.8021 H   0  0  0  0  0  0  0  0  0  0  0  0
    4.9456   -4.0666    2.6996 H   0  0  0  0  0  0  0  0  0  0  0  0
    0.9374   -3.4709    2.8043 H   0  0  0  0  0  0  0  0  0  0  0  0
    2.1856   -4.4758    3.5546 H   0  0  0  0  0  0  0  0  0  0  0  0
    1.9976   -1.6334    3.5155 H   0  0  0  0  0  0  0  0  0  0  0  0
  1  2  1  0
  1 58  1  0
  1 59  1  0
  1 60  1  0
  2  3  1  0
  4  3  1  6
  3 61  1  0
  3 62  1  0
  4 32  1  0
  4 57  1  0
  4  5  1  0
  5  6  1  0
  5 63  1  0
  5 64  1  0
  6  7  1  0
  6 65  1  0
  6 66  1  0
  7  8  1  0
  7 11  2  3
  8  9  1  0
  8 10  1  0
  8 67  1  0
  9 68  1  0
  9 69  1  0
  9 70  1  0
 10 71  1  0
 10 72  1  0
 10 73  1  0
 11 12  1  0
 13 11  1  1
 12 74  1  0
 12 75  1  0
 12 76  1  0
 13 30  1  0
 13 39  1  0
 13 14  1  0
 14 15  1  0
 14 34  1  0
 14 77  1  1
 15 16  1  0
 15 17  1  0
 15 78  1  6
 16 79  1  0
 16 80  1  0
 16 81  1  0
 17 21  1  0
 17 18  1  0
 17 82  1  1
 18 19  1  0
 18 83  1  0
 18 84  1  0
 19 20  1  0
 19 30  1  0
 19 85  1  6
 20 23  1  0
 20 21  1  1
 20 22  1  0
 23 22  1  6
 23 27  1  0
 23 24  1  0
 24 25  1  0
 24 27  1  0
 24 86  1  6
 25 26  1  0
 26 87  1  0
 26 88  1  0
 26 89  1  0
 27 28  1  0
 27 29  1  0
 28 90  1  0
 28 91  1  0
 28 92  1  0
 29 93  1  0
 29 94  1  0
 29 95  1  0
 30 31  1  1
 30 32  1  0
 31 96  1  0
 32 33  1  0
 32 97  1  6
 33 98  1  0
 34 35  2  0
 34 36  1  6
 36 37  1  0
 36 99  1  0
 36100  1  0
 37 38  1  0
 37 39  1  0
 37101  1  6
 38102  1  0
 39 40  1  1
 39 41  1  0
 40103  1  0
 41 47  1  0
 41 42  1  0
 41104  1  6
 42 43  1  0
 42105  1  0
 42106  1  0
 43 44  1  0
 43 48  1  0
 43107  1  6
 44 45  2  0
 44108  1  0
 45 46  1  0
 45 47  1  0
 46109  1  0
 46110  1  0
 46111  1  0
 48 53  1  0
 48 57  1  0
 48 49  1  6
 49 50  1  0
 50 51  1  0
 50 52  1  6
 50 53  1  0
 51112  1  0
 51113  1  0
 51114  1  0
 52115  1  0
 53 54  1  1
 53 55  1  0
 54116  1  0
 55 56  1  0
 56 57  1  0
 56117  1  0
 56118  1  0
 57119  1  6
M  END
>  <i_m_ct_stereo_status>  (52) 
1

>  <s_m_source_file>  (52) 
/var/tmp/pbs.5075288.sched01/tmpsukb34hn/166582q88ej.sdf

>  <i_m_source_file_index>  (52) 
57

>  <i_lp_mmshare_version>  (52) 
48012

>  <i_f3d_flags>  (52) 
0

>  <s_epik_input>  (52) 
W0NAXTEyM1tDQEBIXTRbQ0BASF0oW0NIM10pW0NASF01W0NIMl1bQ0BIXShbQ0BAXTYoTzUpQzcoTzYpW0NAQEhdKE9bQ0gzXSlDNyhbQ0gzXSlbQ0gzXSlbQ0BAXTIoW09IXSlbQ0BASF0oW09IXSlbQ0BdKFtDSDJdT1tDSDNdKShbQ0gyXVtDSDJdL0MoW0NIXShbQ0gzXSlbQ0gzXSk9QzEvW0NIM10pW0NASF04W0NAXTkoW0NAXShbT0hdKShbQ0BdKE85KShbQ0gzXSlbT0hdKU9bQ0gyXTgpW0NASF0xW0NIMl1bQ0BASF0oT0MoPVtDSF0xKVtDSDNdKVtDQEBdMyhbT0hdKVtDQEhdKFtPSF0pW0NIMl1bUytdNFtPLV0=

>  <s_epik_cmdline>  (52) 
J2VwaWtfcHl0aG9uJywgJy1waHQnLCAnMi4wJywgJy1waCcsICc3LjAnLCAnLXRuJywgJzgnLCAnLW1hJywgJzIwMCcsICctaW1hZScsICc8aW5maWxlLm1hZT4nLCAnLW9tYWUnLCAnPG91dGZpbGUubWFlPic=

>  <r_lp_tautomer_probability>  (52) 
1

>  <r_epik_Ionization_Penalty>  (52) 
2.17092e-05

>  <r_epik_Ionization_Penalty_Charging>  (52) 
0

>  <r_epik_Ionization_Penalty_Neutral>  (52) 
2.17092e-05

>  <r_epik_State_Penalty>  (52) 
-0

>  <r_epik_Charging_Adjusted_Penalty>  (52) 
0

>  <i_epik_Tot_Q>  (52) 
0

>  <i_epik_Tot_abs_Q>  (52) 
2

>  <s_lp_Force_Field>  (52) 
OPLS3e

>  <r_lp_Energy>  (52) 
205.181

>  <b_lp_Chiralities_Consistent>  (52) 
1

>  <s_lp_Variant>  (52) 
62:0-3

>  <s_i_glide_gridfile>  (52) 
pfpi4k_grid

>  <i_i_glide_lignum>  (52) 
57

>  <i_i_glide_rotatable_bonds>  (52) 
10

>  <r_i_docking_score>  (52) 
-1.1725

>  <r_i_glide_ligand_efficiency>  (52) 
-0.0205702

>  <r_i_glide_ligand_efficiency_sa>  (52) 
-0.0791646

>  <r_i_glide_ligand_efficiency_ln>  (52) 
-0.232499

>  <r_i_glide_gscore>  (52) 
-1.1725

>  <r_i_glide_lipo>  (52) 
-0.293522

>  <r_i_glide_hbond>  (52) 
-0.16

>  <r_i_glide_metal>  (52) 
-0

>  <r_i_glide_rewards>  (52) 
-0.0149906

>  <r_i_glide_evdw>  (52) 
-25.191

>  <r_i_glide_ecoul>  (52) 
-5.65056

>  <r_i_glide_erotb>  (52) 
0.0322526

>  <r_i_glide_esite>  (52) 
-0.0380533

>  <r_i_glide_emodel>  (52) 
-24.8087

>  <r_i_glide_energy>  (52) 
-30.8416

>  <r_i_glide_einternal>  (52) 
4.45346

>  <r_i_glide_intrahb_reward>  (52) 
-0

>  <i_i_glide_confnum>  (52) 
3

>  <i_i_glide_posenum>  (52) 
1

>  <r_i_glide_eff_state_penalty>  (52) 
0

>  <ligand_id>  (52) 
62

>  <original_smiles>  (52) 
COCC12CCC(C(C)C)=C(C)C34C(C(C)C5CC(C6(O5)OC65C(OC)C5(C)C)C3(O)C1O)[S+]([O-])CC(O)C4(O)C1CC(C=C(C)O1)C13OC(C)(O)C1(O)OCC23

>  <smiles>  (52) 
[H]OC1([H])C([H])([H])S(=O)C2([H])C([H])(C([H])([H])[H])C3([H])OC4(OC45C([H])(OC([H])([H])[H])C5(C([H])([H])[H])C([H])([H])[H])C([H])(C3([H])[H])C3(O[H])C([H])(O[H])C4(C([H])([H])OC([H])([H])[H])C([H])([H])C([H])([H])C(C([H])(C([H])([H])[H])C([H])([H])[H])=C(C([H])([H])[H])C23C1(O[H])C1([H])OC(C([H])([H])[H])=C([H])C([H])(C1([H])[H])C12OC(O[H])(C([H])([H])[H])C1(O[H])OC([H])([H])C24[H]

$$$$
63:0:0
     RDKit          3D

 62 67  0  0  1  0  0  0  0  0999 V2000
    1.1827    0.6578    1.2116 C   0  0  0  0  0  0  0  0  0  0  0  0
    2.4867    0.5360    1.5068 C   0  0  0  0  0  0  0  0  0  0  0  0
    3.1977   -0.5742    2.2909 C   0  0  2  0  0  0  0  0  0  0  0  0
    4.1570   -1.3329    1.3626 C   0  0  0  0  0  0  0  0  0  0  0  0
    4.8812   -0.7751    0.5149 O   0  0  0  0  0  0  0  0  0  0  0  0
    4.1734   -2.8537    1.5789 C   0  0  1  0  0  0  0  0  0  0  0  0
    4.1454   -3.6482    0.2498 C   0  0  0  0  0  0  0  0  0  0  0  0
    5.3435   -3.2032    2.3245 O   0  0  0  0  0  0  0  0  0  0  0  0
    5.3944   -4.5163    2.8709 C   0  0  0  0  0  0  0  0  0  0  0  0
    2.8951   -2.9512    2.3797 C   0  0  0  0  0  0  0  0  0  0  0  0
    2.3551   -1.7855    2.7460 C   0  0  0  0  0  0  0  0  0  0  0  0
    1.0335   -1.6950    3.5035 C   0  0  0  0  0  0  0  0  0  0  0  0
    0.9252   -0.6728    4.6543 C   0  0  1  0  0  0  0  0  0  0  0  0
    2.2308   -0.6385    5.4640 C   0  0  0  0  0  0  0  0  0  0  0  0
    3.0485    0.6007    4.9758 C   0  0  2  0  0  0  0  0  0  0  0  0
    1.9588    1.5254    4.4795 C   0  0  0  0  0  0  0  0  0  0  0  0
    0.8943    0.7853    4.2833 C   0  0  0  0  0  0  0  0  0  0  0  0
   -0.4672    1.1529    4.8132 C   0  0  2  0  0  0  0  0  0  0  0  0
   -1.1981    1.9066    3.7133 C   0  0  0  0  0  0  0  0  0  0  0  0
   -0.6361    3.3566    3.7972 C   0  0  1  0  0  0  0  0  0  0  0  0
   -1.7057    4.2834    4.0166 O   0  0  0  0  0  0  0  0  0  0  0  0
   -2.4688    4.5330    2.8446 C   0  0  0  0  0  0  0  0  0  0  0  0
    0.3050    3.3863    5.0523 C   0  0  1  0  0  0  0  0  0  0  0  0
   -0.3182    2.2453    5.8636 C   0  0  0  0  0  0  0  0  0  0  0  0
    1.8389    3.0274    4.8214 C   0  0  0  0  0  0  0  0  0  0  0  0
    2.6179    3.3813    6.1127 C   0  0  0  0  0  0  0  0  0  0  0  0
    2.4607    3.8636    3.6844 C   0  0  0  0  0  0  0  0  0  0  0  0
   -0.5089   -0.3508    5.1811 C   0  0  0  0  0  0  0  0  0  0  0  0
    4.2683    0.0974    3.6618 S   0  0  0  0  0  0  0  0  0  0  0  0
    5.0838   -1.0528    4.2505 O   0  0  0  0  0  0  0  0  0  0  0  0
    0.4315   -0.0940    1.4431 H   0  0  0  0  0  0  0  0  0  0  0  0
    0.7522    1.5170    0.7129 H   0  0  0  0  0  0  0  0  0  0  0  0
    3.1648    1.3066    1.1809 H   0  0  0  0  0  0  0  0  0  0  0  0
    3.3713   -3.2796   -0.4217 H   0  0  0  0  0  0  0  0  0  0  0  0
    3.9584   -4.7141    0.3947 H   0  0  0  0  0  0  0  0  0  0  0  0
    5.1007   -3.5604   -0.2754 H   0  0  0  0  0  0  0  0  0  0  0  0
    6.3523   -4.6670    3.3643 H   0  0  0  0  0  0  0  0  0  0  0  0
    5.3161   -5.2836    2.1036 H   0  0  0  0  0  0  0  0  0  0  0  0
    4.6156   -4.6769    3.6169 H   0  0  0  0  0  0  0  0  0  0  0  0
    2.4467   -3.9184    2.5664 H   0  0  0  0  0  0  0  0  0  0  0  0
    0.2270   -1.5737    2.7938 H   0  0  0  0  0  0  0  0  0  0  0  0
    0.8517   -2.6953    3.9169 H   0  0  0  0  0  0  0  0  0  0  0  0
    1.9878   -0.4728    6.5125 H   0  0  0  0  0  0  0  0  0  0  0  0
    2.8020   -1.5677    5.4243 H   0  0  0  0  0  0  0  0  0  0  0  0
    3.5937    1.0289    5.8043 H   0  0  0  0  0  0  0  0  0  0  0  0
   -1.0458    1.4753    2.7265 H   0  0  0  0  0  0  0  0  0  0  0  0
   -2.2733    1.9082    3.8965 H   0  0  0  0  0  0  0  0  0  0  0  0
   -0.1013    3.6362    2.8925 H   0  0  0  0  0  0  0  0  0  0  0  0
   -3.2748    5.2362    3.0300 H   0  0  0  0  0  0  0  0  0  0  0  0
   -2.9291    3.6309    2.4465 H   0  0  0  0  0  0  0  0  0  0  0  0
   -1.8469    4.9995    2.0875 H   0  0  0  0  0  0  0  0  0  0  0  0
    0.2288    4.3423    5.5646 H   0  0  0  0  0  0  0  0  0  0  0  0
   -1.2972    2.5574    6.2362 H   0  0  0  0  0  0  0  0  0  0  0  0
    0.2763    1.9295    6.7197 H   0  0  0  0  0  0  0  0  0  0  0  0
    2.4661    4.4155    6.4046 H   0  0  0  0  0  0  0  0  0  0  0  0
    3.6935    3.2592    5.9880 H   0  0  0  0  0  0  0  0  0  0  0  0
    2.3293    2.7660    6.9633 H   0  0  0  0  0  0  0  0  0  0  0  0
    2.2871    4.9315    3.8236 H   0  0  0  0  0  0  0  0  0  0  0  0
    2.0657    3.5799    2.7076 H   0  0  0  0  0  0  0  0  0  0  0  0
    3.5404    3.7086    3.6304 H   0  0  0  0  0  0  0  0  0  0  0  0
   -1.2844   -0.8565    4.5975 H   0  0  0  0  0  0  0  0  0  0  0  0
   -0.6185   -0.5334    6.2570 H   0  0  0  0  0  0  0  0  0  0  0  0
  1  2  2  0
  1 31  1  0
  1 32  1  0
  3  2  1  6
  2 33  1  0
  3 11  1  0
 29  3  1  6
  3  4  1  0
  4  5  2  0
  4  6  1  0
  6  7  1  0
  6  8  1  1
  6 10  1  0
  7 34  1  0
  7 35  1  0
  7 36  1  0
  8  9  1  0
  9 37  1  0
  9 38  1  0
  9 39  1  0
 10 11  2  0
 10 40  1  0
 11 12  1  0
 13 12  1  6
 12 41  1  0
 12 42  1  0
 13 17  1  0
 13 28  1  0
 13 14  1  0
 14 15  1  0
 14 43  1  0
 14 44  1  0
 15 16  1  0
 15 29  1  0
 15 45  1  1
 16 25  1  0
 16 17  2  0
 17 18  1  0
 18 24  1  0
 18 19  1  6
 18 28  1  0
 19 20  1  0
 19 46  1  0
 19 47  1  0
 20 21  1  0
 20 23  1  0
 20 48  1  6
 21 22  1  0
 22 49  1  0
 22 50  1  0
 22 51  1  0
 23 24  1  0
 23 25  1  0
 23 52  1  1
 24 53  1  0
 24 54  1  0
 25 26  1  0
 25 27  1  0
 26 55  1  0
 26 56  1  0
 26 57  1  0
 27 58  1  0
 27 59  1  0
 27 60  1  0
 28 61  1  0
 28 62  1  0
 29 30  2  0
M  END
>  <i_m_ct_stereo_status>  (53) 
1

>  <s_m_source_file>  (53) 
/var/tmp/pbs.5075288.sched01/tmpsukb34hn/166582q88ej.sdf

>  <i_m_source_file_index>  (53) 
59

>  <i_lp_mmshare_version>  (53) 
48012

>  <i_f3d_flags>  (53) 
0

>  <s_epik_input>  (53) 
Tz1DMVtDQEBdKFtDSDNdKShPW0NIM10pW0NIXT1DKFtDSDJdMilbQ0BAXTEoW0NIXT1bQ0gyXSlbUytdKFtPLV0pW0NASF0oW0NIMl0zKUM9NEMoW0NIM10pKFtDSDNdKVtDQEhdKFtDSDJdNSlbQ0BIXShPW0NIM10pW0NIMl1bQ0BdNShDNFtDQEBdMjM2KVtDSDJdNg==

>  <s_epik_cmdline>  (53) 
J2VwaWtfcHl0aG9uJywgJy1waHQnLCAnMi4wJywgJy1waCcsICc3LjAnLCAnLXRuJywgJzgnLCAnLW1hJywgJzIwMCcsICctaW1hZScsICc8aW5maWxlLm1hZT4nLCAnLW9tYWUnLCAnPG91dGZpbGUubWFlPic=

>  <r_lp_tautomer_probability>  (53) 
1

>  <r_epik_Ionization_Penalty>  (53) 
5.44808e-11

>  <r_epik_Ionization_Penalty_Charging>  (53) 
0

>  <r_epik_Ionization_Penalty_Neutral>  (53) 
5.44808e-11

>  <r_epik_State_Penalty>  (53) 
-0

>  <r_epik_Charging_Adjusted_Penalty>  (53) 
0

>  <i_epik_Tot_Q>  (53) 
0

>  <i_epik_Tot_abs_Q>  (53) 
2

>  <s_lp_Force_Field>  (53) 
OPLS3e

>  <r_lp_Energy>  (53) 
77.9246

>  <b_lp_Chiralities_Consistent>  (53) 
1

>  <s_lp_Variant>  (53) 
63:0-1

>  <s_i_glide_gridfile>  (53) 
pfpi4k_grid

>  <i_i_glide_lignum>  (53) 
59

>  <i_i_glide_rotatable_bonds>  (53) 
3

>  <r_i_docking_score>  (53) 
-1.88576

>  <r_i_glide_ligand_efficiency>  (53) 
-0.0628586

>  <r_i_glide_ligand_efficiency_sa>  (53) 
-0.195316

>  <r_i_glide_ligand_efficiency_ln>  (53) 
-0.428465

>  <r_i_glide_gscore>  (53) 
-1.88576

>  <r_i_glide_lipo>  (53) 
-0.0466286

>  <r_i_glide_hbond>  (53) 
-0.0908714

>  <r_i_glide_metal>  (53) 
-0

>  <r_i_glide_rewards>  (53) 
-0.504659

>  <r_i_glide_evdw>  (53) 
-18.8651

>  <r_i_glide_ecoul>  (53) 
-2.6921

>  <r_i_glide_erotb>  (53) 
0.108147

>  <r_i_glide_esite>  (53) 
-0.00467697

>  <r_i_glide_emodel>  (53) 
-22.4604

>  <r_i_glide_energy>  (53) 
-21.5572

>  <r_i_glide_einternal>  (53) 
2.07752

>  <r_i_glide_intrahb_reward>  (53) 
-0

>  <i_i_glide_confnum>  (53) 
1

>  <i_i_glide_posenum>  (53) 
10

>  <r_i_glide_eff_state_penalty>  (53) 
0

>  <ligand_id>  (53) 
63

>  <original_smiles>  (53) 
C=CC12C(=O)C(C)(OC)C=C1CC13CC(C4=C1C1(CC(OC)C(C1)C4(C)C)C3)[S+]2[O-]

>  <smiles>  (53) 
[H]C([H])=C([H])C12C(=O)C(OC([H])([H])[H])(C([H])([H])[H])C([H])=C1C([H])([H])C13C4=C(C([H])(S2=O)C1([H])[H])C(C([H])([H])[H])(C([H])([H])[H])C1([H])C([H])([H])C4(C([H])([H])C1([H])OC([H])([H])[H])C3([H])[H]

$$$$
63:0:1
     RDKit          3D

 62 67  0  0  1  0  0  0  0  0999 V2000
   -1.1501   -1.2398    4.7839 C   0  0  0  0  0  0  0  0  0  0  0  0
   -0.1103   -0.5393    5.2682 C   0  0  0  0  0  0  0  0  0  0  0  0
    0.3048    0.8825    4.8890 C   0  0  2  0  0  0  0  0  0  0  0  0
   -0.7865    1.8693    5.3362 C   0  0  0  0  0  0  0  0  0  0  0  0
   -1.3906    1.7848    6.4101 O   0  0  0  0  0  0  0  0  0  0  0  0
   -1.0648    2.9461    4.2771 C   0  0  1  0  0  0  0  0  0  0  0  0
   -2.5731    3.1906    4.0907 C   0  0  0  0  0  0  0  0  0  0  0  0
   -0.4358    4.1626    4.6884 O   0  0  0  0  0  0  0  0  0  0  0  0
   -0.1716    5.1257    3.6761 C   0  0  0  0  0  0  0  0  0  0  0  0
   -0.4135    2.2700    3.0912 C   0  0  0  0  0  0  0  0  0  0  0  0
    0.2899    1.1705    3.3947 C   0  0  0  0  0  0  0  0  0  0  0  0
    0.9100    0.2314    2.3616 C   0  0  0  0  0  0  0  0  0  0  0  0
    2.3685   -0.1981    2.5985 C   0  0  1  0  0  0  0  0  0  0  0  0
    3.2092    0.8830    3.3121 C   0  0  0  0  0  0  0  0  0  0  0  0
    3.2205    0.5176    4.8290 C   0  0  2  0  0  0  0  0  0  0  0  0
    3.0322   -0.9793    4.7999 C   0  0  0  0  0  0  0  0  0  0  0  0
    2.5495   -1.2851    3.6026 C   0  0  0  0  0  0  0  0  0  0  0  0
    3.1194   -2.3653    2.7344 C   0  0  2  0  0  0  0  0  0  0  0  0
    2.3067   -3.6185    2.9906 C   0  0  0  0  0  0  0  0  0  0  0  0
    2.9027   -4.1803    4.3156 C   0  0  1  0  0  0  0  0  0  0  0  0
    3.3191   -5.5198    4.0643 O   0  0  0  0  0  0  0  0  0  0  0  0
    3.5300   -6.2936    5.2384 C   0  0  0  0  0  0  0  0  0  0  0  0
    4.1383   -3.2718    4.6618 C   0  0  1  0  0  0  0  0  0  0  0  0
    4.4866   -2.7676    3.2558 C   0  0  0  0  0  0  0  0  0  0  0  0
    3.8652   -2.0107    5.5875 C   0  0  0  0  0  0  0  0  0  0  0  0
    5.2307   -1.4279    6.0279 C   0  0  0  0  0  0  0  0  0  0  0  0
    3.0963   -2.3934    6.8688 C   0  0  0  0  0  0  0  0  0  0  0  0
    2.9406   -1.2877    1.6352 C   0  0  0  0  0  0  0  0  0  0  0  0
    1.8790    1.4401    5.7268 S   0  0  0  0  0  0  0  0  0  0  0  0
    2.0751    2.9206    5.4006 O   0  0  0  0  0  0  0  0  0  0  0  0
   -1.8344   -0.8164    4.0696 H   0  0  0  0  0  0  0  0  0  0  0  0
   -1.3239   -2.2523    5.1109 H   0  0  0  0  0  0  0  0  0  0  0  0
    0.5233   -1.0170    5.9989 H   0  0  0  0  0  0  0  0  0  0  0  0
   -3.1124    2.2585    3.9384 H   0  0  0  0  0  0  0  0  0  0  0  0
   -2.7895    3.8276    3.2332 H   0  0  0  0  0  0  0  0  0  0  0  0
   -2.9864    3.6724    4.9745 H   0  0  0  0  0  0  0  0  0  0  0  0
    0.2434    6.0224    4.1367 H   0  0  0  0  0  0  0  0  0  0  0  0
   -1.0728    5.4096    3.1367 H   0  0  0  0  0  0  0  0  0  0  0  0
    0.5653    4.7636    2.9603 H   0  0  0  0  0  0  0  0  0  0  0  0
   -0.5837    2.6223    2.0810 H   0  0  0  0  0  0  0  0  0  0  0  0
    0.2639   -0.6361    2.2222 H   0  0  0  0  0  0  0  0  0  0  0  0
    0.8742    0.7755    1.4126 H   0  0  0  0  0  0  0  0  0  0  0  0
    4.2343    0.8127    2.9543 H   0  0  0  0  0  0  0  0  0  0  0  0
    2.8940    1.9063    3.1039 H   0  0  0  0  0  0  0  0  0  0  0  0
    4.1722    0.8063    5.2643 H   0  0  0  0  0  0  0  0  0  0  0  0
    1.2376   -3.4208    3.0773 H   0  0  0  0  0  0  0  0  0  0  0  0
    2.4439   -4.3370    2.1791 H   0  0  0  0  0  0  0  0  0  0  0  0
    2.1373   -4.1827    5.0905 H   0  0  0  0  0  0  0  0  0  0  0  0
    3.8798   -7.2901    4.9636 H   0  0  0  0  0  0  0  0  0  0  0  0
    2.6020   -6.4078    5.7995 H   0  0  0  0  0  0  0  0  0  0  0  0
    4.2791   -5.8532    5.8965 H   0  0  0  0  0  0  0  0  0  0  0  0
    4.9620   -3.8564    5.0754 H   0  0  0  0  0  0  0  0  0  0  0  0
    4.8987   -3.5823    2.6560 H   0  0  0  0  0  0  0  0  0  0  0  0
    5.2097   -1.9523    3.2401 H   0  0  0  0  0  0  0  0  0  0  0  0
    5.8463   -2.1846    6.5122 H   0  0  0  0  0  0  0  0  0  0  0  0
    5.1116   -0.6204    6.7483 H   0  0  0  0  0  0  0  0  0  0  0  0
    5.8051   -1.0332    5.1915 H   0  0  0  0  0  0  0  0  0  0  0  0
    3.5806   -3.2128    7.4006 H   0  0  0  0  0  0  0  0  0  0  0  0
    2.0706   -2.6907    6.6555 H   0  0  0  0  0  0  0  0  0  0  0  0
    3.0344   -1.5451    7.5516 H   0  0  0  0  0  0  0  0  0  0  0  0
    2.2199   -1.6074    0.8788 H   0  0  0  0  0  0  0  0  0  0  0  0
    3.8778   -0.9987    1.1593 H   0  0  0  0  0  0  0  0  0  0  0  0
  1  2  2  0
  1 31  1  0
  1 32  1  0
  3  2  1  6
  2 33  1  0
  3 11  1  0
 29  3  1  6
  3  4  1  0
  4  5  2  0
  4  6  1  0
  6  7  1  0
  6  8  1  1
  6 10  1  0
  7 34  1  0
  7 35  1  0
  7 36  1  0
  8  9  1  0
  9 37  1  0
  9 38  1  0
  9 39  1  0
 10 11  2  0
 10 40  1  0
 11 12  1  0
 13 12  1  6
 12 41  1  0
 12 42  1  0
 13 17  1  0
 13 28  1  0
 13 14  1  0
 14 15  1  0
 14 43  1  0
 14 44  1  0
 15 16  1  0
 15 29  1  0
 15 45  1  1
 16 25  1  0
 16 17  2  0
 17 18  1  0
 18 24  1  0
 18 19  1  6
 18 28  1  0
 19 20  1  0
 19 46  1  0
 19 47  1  0
 20 21  1  0
 20 23  1  0
 20 48  1  1
 21 22  1  0
 22 49  1  0
 22 50  1  0
 22 51  1  0
 23 24  1  0
 23 25  1  0
 23 52  1  1
 24 53  1  0
 24 54  1  0
 25 26  1  0
 25 27  1  0
 26 55  1  0
 26 56  1  0
 26 57  1  0
 27 58  1  0
 27 59  1  0
 27 60  1  0
 28 61  1  0
 28 62  1  0
 29 30  2  0
M  END
>  <i_m_ct_stereo_status>  (54) 
1

>  <s_m_source_file>  (54) 
/var/tmp/pbs.5075288.sched01/tmpsukb34hn/166582q88ej.sdf

>  <i_m_source_file_index>  (54) 
59

>  <i_lp_mmshare_version>  (54) 
48012

>  <i_f3d_flags>  (54) 
0

>  <s_epik_input>  (54) 
Tz1DMVtDQEBdKFtDSDNdKShPW0NIM10pW0NIXT1DKFtDSDJdMilbQ0BAXTEoW0NIXT1bQ0gyXSlbUytdKFtPLV0pW0NASF0oW0NIMl0zKUM9NEMoW0NIM10pKFtDSDNdKVtDQEhdKFtDSDJdNSlbQ0BIXShPW0NIM10pW0NIMl1bQ0BdNShDNFtDQEBdMjM2KVtDSDJdNg==

>  <s_epik_cmdline>  (54) 
J2VwaWtfcHl0aG9uJywgJy1waHQnLCAnMi4wJywgJy1waCcsICc3LjAnLCAnLXRuJywgJzgnLCAnLW1hJywgJzIwMCcsICctaW1hZScsICc8aW5maWxlLm1hZT4nLCAnLW9tYWUnLCAnPG91dGZpbGUubWFlPic=

>  <r_lp_tautomer_probability>  (54) 
1

>  <r_epik_Ionization_Penalty>  (54) 
5.44808e-11

>  <r_epik_Ionization_Penalty_Charging>  (54) 
0

>  <r_epik_Ionization_Penalty_Neutral>  (54) 
5.44808e-11

>  <r_epik_State_Penalty>  (54) 
-0

>  <r_epik_Charging_Adjusted_Penalty>  (54) 
0

>  <i_epik_Tot_Q>  (54) 
0

>  <i_epik_Tot_abs_Q>  (54) 
2

>  <s_lp_Force_Field>  (54) 
OPLS3e

>  <r_lp_Energy>  (54) 
77.9246

>  <b_lp_Chiralities_Consistent>  (54) 
1

>  <s_lp_Variant>  (54) 
63:0-1

>  <s_i_glide_gridfile>  (54) 
pfpi4k_grid

>  <i_i_glide_lignum>  (54) 
59

>  <i_i_glide_rotatable_bonds>  (54) 
3

>  <r_i_docking_score>  (54) 
-1.72621

>  <r_i_glide_ligand_efficiency>  (54) 
-0.0575404

>  <r_i_glide_ligand_efficiency_sa>  (54) 
-0.178791

>  <r_i_glide_ligand_efficiency_ln>  (54) 
-0.392214

>  <r_i_glide_gscore>  (54) 
-1.72621

>  <r_i_glide_lipo>  (54) 
-0.0358818

>  <r_i_glide_hbond>  (54) 
0

>  <r_i_glide_metal>  (54) 
-0

>  <r_i_glide_rewards>  (54) 
-0.486919

>  <r_i_glide_evdw>  (54) 
-18.9151

>  <r_i_glide_ecoul>  (54) 
-2.37635

>  <r_i_glide_erotb>  (54) 
0.108147

>  <r_i_glide_esite>  (54) 
-0.00935211

>  <r_i_glide_emodel>  (54) 
-22.8715

>  <r_i_glide_energy>  (54) 
-21.2914

>  <r_i_glide_einternal>  (54) 
1.83471

>  <r_i_glide_intrahb_reward>  (54) 
-0

>  <i_i_glide_confnum>  (54) 
1

>  <i_i_glide_posenum>  (54) 
26

>  <r_i_glide_eff_state_penalty>  (54) 
0

>  <ligand_id>  (54) 
63

>  <original_smiles>  (54) 
C=CC12C(=O)C(C)(OC)C=C1CC13CC(C4=C1C1(CC(OC)C(C1)C4(C)C)C3)[S+]2[O-]

>  <smiles>  (54) 
[H]C([H])=C([H])C12C(=O)C(OC([H])([H])[H])(C([H])([H])[H])C([H])=C1C([H])([H])C13C4=C(C([H])(S2=O)C1([H])[H])C(C([H])([H])[H])(C([H])([H])[H])C1([H])C([H])([H])C4(C([H])([H])C1([H])OC([H])([H])[H])C3([H])[H]

$$$$
63:0:2
     RDKit          3D

 62 67  0  0  1  0  0  0  0  0999 V2000
   -0.7564    0.7584    3.8260 C   0  0  0  0  0  0  0  0  0  0  0  0
    0.0024    1.2242    4.8356 C   0  0  0  0  0  0  0  0  0  0  0  0
    1.1423    2.2447    4.7587 C   0  0  2  0  0  0  0  0  0  0  0  0
    0.5575    3.6591    4.9049 C   0  0  0  0  0  0  0  0  0  0  0  0
   -0.3351    3.9602    5.7024 O   0  0  0  0  0  0  0  0  0  0  0  0
    1.1887    4.6586    3.9303 C   0  0  1  0  0  0  0  0  0  0  0  0
    0.1134    5.5552    3.2865 C   0  0  0  0  0  0  0  0  0  0  0  0
    2.1302    5.4615    4.6462 O   0  0  0  0  0  0  0  0  0  0  0  0
    2.9549    6.3282    3.8761 C   0  0  0  0  0  0  0  0  0  0  0  0
    1.8281    3.6743    2.9767 C   0  0  0  0  0  0  0  0  0  0  0  0
    1.7847    2.3959    3.3849 C   0  0  0  0  0  0  0  0  0  0  0  0
    2.2183    1.1986    2.5362 C   0  0  0  0  0  0  0  0  0  0  0  0
    3.1096    0.1462    3.2189 C   0  0  1  0  0  0  0  0  0  0  0  0
    4.0530    0.7524    4.2798 C   0  0  0  0  0  0  0  0  0  0  0  0
    3.3646    0.5492    5.6652 C   0  0  2  0  0  0  0  0  0  0  0  0
    2.5194   -0.6768    5.4280 C   0  0  0  0  0  0  0  0  0  0  0  0
    2.3970   -0.8120    4.1140 C   0  0  0  0  0  0  0  0  0  0  0  0
    2.6564   -2.0983    3.3934 C   0  0  2  0  0  0  0  0  0  0  0  0
    1.3264   -2.8014    3.2394 C   0  0  0  0  0  0  0  0  0  0  0  0
    1.0897   -3.4715    4.6242 C   0  0  1  0  0  0  0  0  0  0  0  0
    0.8801   -4.8639    4.3986 O   0  0  0  0  0  0  0  0  0  0  0  0
    0.3321   -5.5591    5.5115 C   0  0  0  0  0  0  0  0  0  0  0  0
    2.4035   -3.2242    5.4518 C   0  0  1  0  0  0  0  0  0  0  0  0
    3.4045   -3.0544    4.3020 C   0  0  0  0  0  0  0  0  0  0  0  0
    2.4488   -1.9131    6.3472 C   0  0  0  0  0  0  0  0  0  0  0  0
    3.6838   -2.0068    7.2776 C   0  0  0  0  0  0  0  0  0  0  0  0
    1.2038   -1.7854    7.2491 C   0  0  0  0  0  0  0  0  0  0  0  0
    3.3851   -1.1569    2.4026 C   0  0  0  0  0  0  0  0  0  0  0  0
    2.3951    2.0638    6.1346 S   0  0  0  0  0  0  0  0  0  0  0  0
    3.3634    3.2434    6.0393 O   0  0  0  0  0  0  0  0  0  0  0  0
   -0.6452    1.1149    2.8162 H   0  0  0  0  0  0  0  0  0  0  0  0
   -1.5103    0.0076    3.9987 H   0  0  0  0  0  0  0  0  0  0  0  0
   -0.1848    0.8387    5.8265 H   0  0  0  0  0  0  0  0  0  0  0  0
   -0.7173    4.9788    2.8807 H   0  0  0  0  0  0  0  0  0  0  0  0
    0.5190    6.1372    2.4650 H   0  0  0  0  0  0  0  0  0  0  0  0
   -0.2783    6.2734    4.0049 H   0  0  0  0  0  0  0  0  0  0  0  0
    3.5816    6.9084    4.5537 H   0  0  0  0  0  0  0  0  0  0  0  0
    2.3747    7.0417    3.2936 H   0  0  0  0  0  0  0  0  0  0  0  0
    3.6103    5.7730    3.2053 H   0  0  0  0  0  0  0  0  0  0  0  0
    2.2020    3.9961    2.0130 H   0  0  0  0  0  0  0  0  0  0  0  0
    1.3528    0.7245    2.0734 H   0  0  0  0  0  0  0  0  0  0  0  0
    2.7756    1.6211    1.6972 H   0  0  0  0  0  0  0  0  0  0  0  0
    4.9842    0.1863    4.2829 H   0  0  0  0  0  0  0  0  0  0  0  0
    4.3319    1.7874    4.0857 H   0  0  0  0  0  0  0  0  0  0  0  0
    4.1243    0.3941    6.4250 H   0  0  0  0  0  0  0  0  0  0  0  0
    0.5176   -2.1225    2.9680 H   0  0  0  0  0  0  0  0  0  0  0  0
    1.4042   -3.5642    2.4633 H   0  0  0  0  0  0  0  0  0  0  0  0
    0.1985   -3.0519    5.0892 H   0  0  0  0  0  0  0  0  0  0  0  0
    0.2436   -6.6207    5.2748 H   0  0  0  0  0  0  0  0  0  0  0  0
   -0.6627   -5.1830    5.7487 H   0  0  0  0  0  0  0  0  0  0  0  0
    0.9517   -5.4755    6.4041 H   0  0  0  0  0  0  0  0  0  0  0  0
    2.6665   -4.0909    6.0602 H   0  0  0  0  0  0  0  0  0  0  0  0
    3.5655   -4.0112    3.7989 H   0  0  0  0  0  0  0  0  0  0  0  0
    4.3804   -2.6801    4.6091 H   0  0  0  0  0  0  0  0  0  0  0  0
    3.6689   -2.9225    7.8671 H   0  0  0  0  0  0  0  0  0  0  0  0
    3.7192   -1.1834    7.9892 H   0  0  0  0  0  0  0  0  0  0  0  0
    4.6226   -1.9975    6.7255 H   0  0  0  0  0  0  0  0  0  0  0  0
    1.0336   -2.6912    7.8310 H   0  0  0  0  0  0  0  0  0  0  0  0
    0.3051   -1.5755    6.6710 H   0  0  0  0  0  0  0  0  0  0  0  0
    1.3185   -0.9575    7.9497 H   0  0  0  0  0  0  0  0  0  0  0  0
    2.8952   -1.1529    1.4249 H   0  0  0  0  0  0  0  0  0  0  0  0
    4.4455   -1.3842    2.2950 H   0  0  0  0  0  0  0  0  0  0  0  0
  1  2  2  0
  1 31  1  0
  1 32  1  0
  3  2  1  6
  2 33  1  0
  3 11  1  0
 29  3  1  6
  3  4  1  0
  4  5  2  0
  4  6  1  0
  6  7  1  0
  6  8  1  1
  6 10  1  0
  7 34  1  0
  7 35  1  0
  7 36  1  0
  8  9  1  0
  9 37  1  0
  9 38  1  0
  9 39  1  0
 10 11  2  0
 10 40  1  0
 11 12  1  0
 13 12  1  6
 12 41  1  0
 12 42  1  0
 13 17  1  0
 13 28  1  0
 13 14  1  0
 14 15  1  0
 14 43  1  0
 14 44  1  0
 15 16  1  0
 15 29  1  0
 15 45  1  1
 16 25  1  0
 16 17  2  0
 17 18  1  0
 18 24  1  0
 18 19  1  6
 18 28  1  0
 19 20  1  0
 19 46  1  0
 19 47  1  0
 20 21  1  0
 20 23  1  0
 20 48  1  1
 21 22  1  0
 22 49  1  0
 22 50  1  0
 22 51  1  0
 23 24  1  0
 23 25  1  0
 23 52  1  1
 24 53  1  0
 24 54  1  0
 25 26  1  0
 25 27  1  0
 26 55  1  0
 26 56  1  0
 26 57  1  0
 27 58  1  0
 27 59  1  0
 27 60  1  0
 28 61  1  0
 28 62  1  0
 29 30  2  0
M  END
>  <i_m_ct_stereo_status>  (55) 
1

>  <s_m_source_file>  (55) 
/var/tmp/pbs.5075288.sched01/tmpsukb34hn/166582q88ej.sdf

>  <i_m_source_file_index>  (55) 
59

>  <i_lp_mmshare_version>  (55) 
48012

>  <i_f3d_flags>  (55) 
0

>  <s_epik_input>  (55) 
Tz1DMVtDQEBdKFtDSDNdKShPW0NIM10pW0NIXT1DKFtDSDJdMilbQ0BAXTEoW0NIXT1bQ0gyXSlbUytdKFtPLV0pW0NASF0oW0NIMl0zKUM9NEMoW0NIM10pKFtDSDNdKVtDQEhdKFtDSDJdNSlbQ0BIXShPW0NIM10pW0NIMl1bQ0BdNShDNFtDQEBdMjM2KVtDSDJdNg==

>  <s_epik_cmdline>  (55) 
J2VwaWtfcHl0aG9uJywgJy1waHQnLCAnMi4wJywgJy1waCcsICc3LjAnLCAnLXRuJywgJzgnLCAnLW1hJywgJzIwMCcsICctaW1hZScsICc8aW5maWxlLm1hZT4nLCAnLW9tYWUnLCAnPG91dGZpbGUubWFlPic=

>  <r_lp_tautomer_probability>  (55) 
1

>  <r_epik_Ionization_Penalty>  (55) 
5.44808e-11

>  <r_epik_Ionization_Penalty_Charging>  (55) 
0

>  <r_epik_Ionization_Penalty_Neutral>  (55) 
5.44808e-11

>  <r_epik_State_Penalty>  (55) 
-0

>  <r_epik_Charging_Adjusted_Penalty>  (55) 
0

>  <i_epik_Tot_Q>  (55) 
0

>  <i_epik_Tot_abs_Q>  (55) 
2

>  <s_lp_Force_Field>  (55) 
OPLS3e

>  <r_lp_Energy>  (55) 
77.9246

>  <b_lp_Chiralities_Consistent>  (55) 
1

>  <s_lp_Variant>  (55) 
63:0-1

>  <s_i_glide_gridfile>  (55) 
pfpi4k_grid

>  <i_i_glide_lignum>  (55) 
59

>  <i_i_glide_rotatable_bonds>  (55) 
3

>  <r_i_docking_score>  (55) 
-1.6754

>  <r_i_glide_ligand_efficiency>  (55) 
-0.0558467

>  <r_i_glide_ligand_efficiency_sa>  (55) 
-0.173529

>  <r_i_glide_ligand_efficiency_ln>  (55) 
-0.38067

>  <r_i_glide_gscore>  (55) 
-1.6754

>  <r_i_glide_lipo>  (55) 
-0.0957805

>  <r_i_glide_hbond>  (55) 
0

>  <r_i_glide_metal>  (55) 
-0

>  <r_i_glide_rewards>  (55) 
-0.486919

>  <r_i_glide_evdw>  (55) 
-18.6188

>  <r_i_glide_ecoul>  (55) 
-1.68724

>  <r_i_glide_erotb>  (55) 
0.108147

>  <r_i_glide_esite>  (55) 
-0.016825

>  <r_i_glide_emodel>  (55) 
-22.5779

>  <r_i_glide_energy>  (55) 
-20.306

>  <r_i_glide_einternal>  (55) 
0.448174

>  <r_i_glide_intrahb_reward>  (55) 
-0

>  <i_i_glide_confnum>  (55) 
1

>  <i_i_glide_posenum>  (55) 
21

>  <r_i_glide_eff_state_penalty>  (55) 
0

>  <ligand_id>  (55) 
63

>  <original_smiles>  (55) 
C=CC12C(=O)C(C)(OC)C=C1CC13CC(C4=C1C1(CC(OC)C(C1)C4(C)C)C3)[S+]2[O-]

>  <smiles>  (55) 
[H]C([H])=C([H])C12C(=O)C(OC([H])([H])[H])(C([H])([H])[H])C([H])=C1C([H])([H])C13C4=C(C([H])(S2=O)C1([H])[H])C(C([H])([H])[H])(C([H])([H])[H])C1([H])C([H])([H])C4(C([H])([H])C1([H])OC([H])([H])[H])C3([H])[H]

$$$$
68:0:0
     RDKit          3D

 79 85  0  0  1  0  0  0  0  0999 V2000
    2.0875   -0.8117    2.1865 C   0  0  0  0  0  0  0  0  0  0  0  0
    0.8633   -0.3801    2.9554 C   0  0  0  0  0  0  0  0  0  0  0  0
    0.2671    0.8499    2.8957 C   0  0  0  0  0  0  0  0  0  0  0  0
   -0.8036    0.9236    3.7327 O   0  0  0  0  0  0  0  0  0  0  0  0
   -0.9034   -0.2832    4.3678 C   0  0  0  0  0  0  0  0  0  0  0  0
   -2.0462   -0.3648    5.3400 C   0  0  0  0  0  0  0  0  0  0  0  0
    0.0841   -1.1159    3.9068 C   0  0  0  0  0  0  0  0  0  0  0  0
    0.3648   -2.5112    4.2930 C   0  0  0  0  0  0  0  0  0  0  0  0
   -0.1481   -3.1639    5.3718 C   0  0  0  0  0  0  0  0  0  0  0  0
    0.1331   -4.5674    5.6705 C   0  0  0  0  0  0  0  0  0  0  0  0
   -0.2200   -5.0909    6.7319 O   0  0  0  0  0  0  0  0  0  0  0  0
    0.7956   -5.2026    4.6842 O   0  0  0  0  0  0  0  0  0  0  0  0
    1.2035   -6.5485    4.8348 C   0  0  2  0  0  0  0  0  0  0  0  0
    2.5276   -6.4595    5.7185 C   0  0  2  0  0  0  0  0  0  0  0  0
    3.5975   -6.6133    4.7439 C   0  0  1  0  0  0  0  0  0  0  0  0
    4.9391   -5.7944    4.8706 C   0  0  0  0  0  0  0  0  0  0  0  0
    6.2034   -6.9444    4.0877 S   0  0  0  0  0  0  0  0  0  0  0  0
    6.8766   -6.1869    2.9404 O   0  0  0  0  0  0  0  0  0  0  0  0
    4.8386   -8.0312    3.4243 C   0  0  1  0  0  0  0  0  0  0  0  0
    4.2855   -7.8685    1.9220 C   0  0  1  0  0  0  0  0  0  0  0  0
    3.9049   -9.0926    1.3437 O   0  0  0  0  0  0  0  0  0  0  0  0
    3.2322   -6.7046    1.4880 C   0  0  0  0  0  0  0  0  0  0  0  0
    1.7704   -6.3351    2.0937 C   0  0  1  0  0  0  0  0  0  0  0  0
    0.8516   -6.2606    1.0094 O   0  0  0  0  0  0  0  0  0  0  0  0
    1.1305   -7.1362    3.3095 C   0  0  1  0  0  0  0  0  0  0  0  0
    1.8709   -8.2769    3.0017 O   0  0  0  0  0  0  0  0  0  0  0  0
    1.4806   -9.4279    3.6313 C   0  0  2  0  0  0  0  0  0  0  0  0
    1.4306  -10.5500    2.5644 C   0  0  0  0  0  0  0  0  0  0  0  0
   -0.0414   -9.0984    3.8757 C   0  0  1  0  0  0  0  0  0  0  0  0
   -0.5746   -9.0453    5.1782 O   0  0  0  0  0  0  0  0  0  0  0  0
   -0.2348   -7.8052    3.0919 C   0  0  1  0  0  0  0  0  0  0  0  0
   -1.3845   -7.0585    3.4611 O   0  0  0  0  0  0  0  0  0  0  0  0
    2.7215   -9.4335    4.6532 C   0  0  2  0  0  0  0  0  0  0  0  0
    3.5873  -10.6950    4.3279 C   0  0  0  0  0  0  0  0  0  0  0  0
    2.1225   -9.8139    6.0555 C   0  0  0  0  0  0  0  0  0  0  0  0
    1.9261   -8.6402    7.0293 C   0  0  0  0  0  0  0  0  0  0  0  0
    2.9637   -7.5409    6.7710 C   0  0  2  0  0  0  0  0  0  0  0  0
    3.2521   -6.8875    7.9886 O   0  0  0  0  0  0  0  0  0  0  0  0
    4.2850   -8.1373    6.1845 C   0  0  1  0  0  0  0  0  0  0  0  0
    4.8105   -9.2899    6.8082 O   0  0  0  0  0  0  0  0  0  0  0  0
    3.8461   -8.1677    4.6691 C   0  0  2  0  0  0  0  0  0  0  0  0
    2.6704    0.0568    1.8729 H   0  0  0  0  0  0  0  0  0  0  0  0
    1.8049   -1.3500    1.2845 H   0  0  0  0  0  0  0  0  0  0  0  0
    2.7275   -1.4595    2.7862 H   0  0  0  0  0  0  0  0  0  0  0  0
    0.4685    1.7489    2.3238 H   0  0  0  0  0  0  0  0  0  0  0  0
   -2.2163   -1.3421    5.7742 H   0  0  0  0  0  0  0  0  0  0  0  0
   -2.9697   -0.1341    4.8057 H   0  0  0  0  0  0  0  0  0  0  0  0
   -1.9084    0.3796    6.1346 H   0  0  0  0  0  0  0  0  0  0  0  0
    1.0328   -3.0279    3.6115 H   0  0  0  0  0  0  0  0  0  0  0  0
   -0.7935   -2.6889    6.0792 H   0  0  0  0  0  0  0  0  0  0  0  0
    0.4436   -7.0196    5.4484 H   0  0  0  0  0  0  0  0  0  0  0  0
    2.6181   -5.4739    6.1737 H   0  0  0  0  0  0  0  0  0  0  0  0
    3.2578   -6.1176    3.8671 H   0  0  0  0  0  0  0  0  0  0  0  0
    4.8916   -4.8687    4.2980 H   0  0  0  0  0  0  0  0  0  0  0  0
    5.2182   -5.4968    5.8814 H   0  0  0  0  0  0  0  0  0  0  0  0
    4.8477   -7.0287    3.0457 H   0  0  0  0  0  0  0  0  0  0  0  0
    5.1641   -7.6701    1.2901 H   0  0  0  0  0  0  0  0  0  0  0  0
    4.5560   -9.7553    1.5304 H   0  0  0  0  0  0  0  0  0  0  0  0
    3.7939   -5.7688    1.5040 H   0  0  0  0  0  0  0  0  0  0  0  0
    3.0895   -6.8495    0.4231 H   0  0  0  0  0  0  0  0  0  0  0  0
    1.8428   -5.2921    2.4083 H   0  0  0  0  0  0  0  0  0  0  0  0
    0.7482   -7.1318    0.6543 H   0  0  0  0  0  0  0  0  0  0  0  0
    0.9996  -11.4645    2.9746 H   0  0  0  0  0  0  0  0  0  0  0  0
    2.3793  -10.8163    2.1143 H   0  0  0  0  0  0  0  0  0  0  0  0
    0.7986  -10.2495    1.7305 H   0  0  0  0  0  0  0  0  0  0  0  0
   -0.6879   -9.8502    3.4212 H   0  0  0  0  0  0  0  0  0  0  0  0
   -1.1915   -9.7730    5.2588 H   0  0  0  0  0  0  0  0  0  0  0  0
   -0.3631   -8.1004    2.0484 H   0  0  0  0  0  0  0  0  0  0  0  0
   -2.1094   -7.6639    3.4859 H   0  0  0  0  0  0  0  0  0  0  0  0
    4.3808  -10.8725    5.0443 H   0  0  0  0  0  0  0  0  0  0  0  0
    4.0926  -10.6368    3.3684 H   0  0  0  0  0  0  0  0  0  0  0  0
    2.9877  -11.6068    4.3383 H   0  0  0  0  0  0  0  0  0  0  0  0
    1.2131  -10.3972    5.9656 H   0  0  0  0  0  0  0  0  0  0  0  0
    2.7497  -10.5543    6.5636 H   0  0  0  0  0  0  0  0  0  0  0  0
    0.9094   -8.2448    7.0505 H   0  0  0  0  0  0  0  0  0  0  0  0
    2.0650   -9.0524    8.0278 H   0  0  0  0  0  0  0  0  0  0  0  0
    3.5406   -7.5502    8.5980 H   0  0  0  0  0  0  0  0  0  0  0  0
    5.1058   -7.4905    6.4540 H   0  0  0  0  0  0  0  0  0  0  0  0
    4.1634   -9.9745    6.7370 H   0  0  0  0  0  0  0  0  0  0  0  0
  1  2  1  0
  1 42  1  0
  1 43  1  0
  1 44  1  0
  2  7  1  0
  2  3  2  0
  3  4  1  0
  3 45  1  0
  4  5  1  0
  5  6  1  0
  5  7  2  0
  6 46  1  0
  6 47  1  0
  6 48  1  0
  7  8  1  0
  8  9  2  3
  8 49  1  0
  9 10  1  0
  9 50  1  0
 10 11  2  0
 10 12  1  0
 12 13  1  0
 13 25  1  0
 13 14  1  0
 13 51  1  1
 14 37  1  0
 14 15  1  0
 14 52  1  1
 15 41  1  0
 15 16  1  0
 15 53  1  6
 17 16  1  1
 16 54  1  0
 16 55  1  0
 17 18  2  0
 17 19  1  0
 19 41  1  0
 19 20  1  0
 19 56  1  6
 20 21  1  0
 20 22  1  0
 20 57  1  6
 21 58  1  0
 22 23  1  0
 22 59  1  0
 22 60  1  0
 23 24  1  0
 23 25  1  0
 23 61  1  1
 24 62  1  0
 25 31  1  0
 25 26  1  1
 26 27  1  0
 27 28  1  6
 27 29  1  0
 27 33  1  0
 28 63  1  0
 28 64  1  0
 28 65  1  0
 29 30  1  0
 29 31  1  0
 29 66  1  6
 30 67  1  0
 31 32  1  0
 31 68  1  6
 32 69  1  0
 41 33  1  6
 33 34  1  6
 33 35  1  0
 34 70  1  0
 34 71  1  0
 34 72  1  0
 35 36  1  0
 35 73  1  0
 35 74  1  0
 36 37  1  0
 36 75  1  0
 36 76  1  0
 37 38  1  1
 37 39  1  0
 38 77  1  0
 39 40  1  0
 39 41  1  0
 39 78  1  6
 40 79  1  0
M  END
>  <i_m_ct_stereo_status>  (56) 
1

>  <s_m_source_file>  (56) 
/var/tmp/pbs.5075288.sched01/tmpsukb34hn/166582q88ej.sdf

>  <i_m_source_file_index>  (56) 
65

>  <i_lp_mmshare_version>  (56) 
48012

>  <i_f3d_flags>  (56) 
0

>  <s_epik_input>  (56) 
W0NIM11jMVtjSF1vYyhbQ0gzXSljMS9bQ0hdPVtDSF0vQyg9TylPW0NAQEhdKFtDQEBdMjM0KVtDQEBIXTVbQ0BASF02W0NAXTcoW0NAQEhdKFtTK10oW08tXSlbQ0gyXTYpW0NAQEhdKFtPSF0pW0NIMl1bQ0BIXTJbT0hdKVtDQF0oW0NIM10pKFtDQEBdKE8zKShbQ0gzXSlbQ0BASF0oW09IXSlbQ0BIXTRbT0hdKVtDSDJdW0NIMl1bQ0BAXTUoW09IXSlbQ0BIXTdbT0hd

>  <s_epik_cmdline>  (56) 
J2VwaWtfcHl0aG9uJywgJy1waHQnLCAnMi4wJywgJy1waCcsICc3LjAnLCAnLXRuJywgJzgnLCAnLW1hJywgJzIwMCcsICctaW1hZScsICc8aW5maWxlLm1hZT4nLCAnLW9tYWUnLCAnPG91dGZpbGUubWFlPic=

>  <r_lp_tautomer_probability>  (56) 
1

>  <r_epik_Ionization_Penalty>  (56) 
1.73257e-06

>  <r_epik_Ionization_Penalty_Charging>  (56) 
0

>  <r_epik_Ionization_Penalty_Neutral>  (56) 
1.73257e-06

>  <r_epik_State_Penalty>  (56) 
-0

>  <r_epik_Charging_Adjusted_Penalty>  (56) 
0

>  <i_epik_Tot_Q>  (56) 
0

>  <i_epik_Tot_abs_Q>  (56) 
2

>  <s_epik_Chemistry_Notes>  (56) 
This compound has an ester and may undergo hydrolysis at high or low pH.

>  <s_lp_Force_Field>  (56) 
OPLS3e

>  <r_lp_Energy>  (56) 
259.925

>  <b_lp_Chiralities_Consistent>  (56) 
1

>  <s_lp_Variant>  (56) 
68:0-1

>  <s_i_glide_gridfile>  (56) 
pfpi4k_grid

>  <i_i_glide_lignum>  (56) 
65

>  <i_i_glide_rotatable_bonds>  (56) 
10

>  <r_i_docking_score>  (56) 
-3.26381

>  <r_i_glide_ligand_efficiency>  (56) 
-0.0796052

>  <r_i_glide_ligand_efficiency_sa>  (56) 
-0.274496

>  <r_i_glide_ligand_efficiency_ln>  (56) 
-0.692428

>  <r_i_glide_gscore>  (56) 
-3.26381

>  <r_i_glide_lipo>  (56) 
-0.254263

>  <r_i_glide_hbond>  (56) 
0

>  <r_i_glide_metal>  (56) 
-0

>  <r_i_glide_rewards>  (56) 
-5.6898e-05

>  <r_i_glide_evdw>  (56) 
-27.8639

>  <r_i_glide_ecoul>  (56) 
-11.5707

>  <r_i_glide_erotb>  (56) 
0.124935

>  <r_i_glide_esite>  (56) 
-0.00563078

>  <r_i_glide_emodel>  (56) 
-46.9405

>  <r_i_glide_energy>  (56) 
-39.4346

>  <r_i_glide_einternal>  (56) 
3.36166

>  <r_i_glide_intrahb_reward>  (56) 
-0

>  <i_i_glide_confnum>  (56) 
5

>  <i_i_glide_posenum>  (56) 
13

>  <r_i_glide_eff_state_penalty>  (56) 
0

>  <ligand_id>  (56) 
68

>  <original_smiles>  (56) 
Cc1coc(C)c1C=CC(=O)OC1C2C3C[S+]([O-])C4C(O)CC(O)C15OC(C)(C(O)C5O)C1(C)CCC2(O)C(O)C341

>  <smiles>  (56) 
[H]OC1([H])C([H])([H])C([H])(O[H])C23OC(C([H])([H])[H])(C([H])(O[H])C2([H])O[H])C2(C([H])([H])[H])C([H])([H])C([H])([H])C4(O[H])C([H])(O[H])C25C1([H])S(=O)C([H])([H])C5([H])C4([H])C3([H])OC(=O)C([H])=C([H])c1c(C([H])([H])[H])oc([H])c1C([H])([H])[H]

$$$$
68:0:1
     RDKit          3D

 79 85  0  0  1  0  0  0  0  0999 V2000
    2.1509   -0.8411    2.2165 C   0  0  0  0  0  0  0  0  0  0  0  0
    0.9353   -0.3802    2.9853 C   0  0  0  0  0  0  0  0  0  0  0  0
    0.3840    0.8681    2.9473 C   0  0  0  0  0  0  0  0  0  0  0  0
   -0.6894    0.9617    3.7798 O   0  0  0  0  0  0  0  0  0  0  0  0
   -0.8426   -0.2482    4.3870 C   0  0  0  0  0  0  0  0  0  0  0  0
   -2.0013   -0.3041    5.3423 C   0  0  0  0  0  0  0  0  0  0  0  0
    0.1185   -1.1034    3.9188 C   0  0  0  0  0  0  0  0  0  0  0  0
    0.3530   -2.5177    4.2862 C   0  0  0  0  0  0  0  0  0  0  0  0
   -0.1779   -3.1634    5.3515 C   0  0  0  0  0  0  0  0  0  0  0  0
    0.0552   -4.5862    5.6436 C   0  0  0  0  0  0  0  0  0  0  0  0
   -0.3860   -5.1237    6.6575 O   0  0  0  0  0  0  0  0  0  0  0  0
    0.7854   -5.1940    4.6927 O   0  0  0  0  0  0  0  0  0  0  0  0
    1.2061   -6.5371    4.8456 C   0  0  2  0  0  0  0  0  0  0  0  0
    2.5015   -6.4314    5.7718 C   0  0  2  0  0  0  0  0  0  0  0  0
    3.6059   -6.5734    4.8305 C   0  0  1  0  0  0  0  0  0  0  0  0
    4.9359   -5.7422    5.0008 C   0  0  0  0  0  0  0  0  0  0  0  0
    6.2323   -6.8793    4.2573 S   0  0  0  0  0  0  0  0  0  0  0  0
    6.9437   -6.1143    3.1341 O   0  0  0  0  0  0  0  0  0  0  0  0
    4.9014   -7.9777    3.5477 C   0  0  1  0  0  0  0  0  0  0  0  0
    4.3899   -7.8186    2.0309 C   0  0  1  0  0  0  0  0  0  0  0  0
    4.0244   -9.0497    1.4699 O   0  0  0  0  0  0  0  0  0  0  0  0
    3.3413   -6.6690    1.5552 C   0  0  0  0  0  0  0  0  0  0  0  0
    1.8627   -6.3075    2.1265 C   0  0  1  0  0  0  0  0  0  0  0  0
    0.9805   -6.2177    1.0150 O   0  0  0  0  0  0  0  0  0  0  0  0
    1.1899   -7.1252    3.3181 C   0  0  1  0  0  0  0  0  0  0  0  0
    1.9443   -8.2653    3.0264 O   0  0  0  0  0  0  0  0  0  0  0  0
    1.5460   -9.4159    3.6545 C   0  0  2  0  0  0  0  0  0  0  0  0
    1.5467  -10.5378    2.5807 C   0  0  0  0  0  0  0  0  0  0  0  0
    0.0059   -9.1010    3.8640 C   0  0  1  0  0  0  0  0  0  0  0  0
   -0.5854   -9.0474    5.1540 O   0  0  0  0  0  0  0  0  0  0  0  0
   -0.1677   -7.8046    3.0648 C   0  0  1  0  0  0  0  0  0  0  0  0
   -1.3371   -7.0595    3.3831 O   0  0  0  0  0  0  0  0  0  0  0  0
    2.7559   -9.4033    4.7130 C   0  0  2  0  0  0  0  0  0  0  0  0
    3.6475  -10.6553    4.4143 C   0  0  0  0  0  0  0  0  0  0  0  0
    2.1179   -9.7873    6.0944 C   0  0  0  0  0  0  0  0  0  0  0  0
    1.8837   -8.6175    7.0632 C   0  0  0  0  0  0  0  0  0  0  0  0
    2.9184   -7.5084    6.8397 C   0  0  2  0  0  0  0  0  0  0  0  0
    3.1604   -6.8523    8.0665 O   0  0  0  0  0  0  0  0  0  0  0  0
    4.2626   -8.0928    6.2948 C   0  0  1  0  0  0  0  0  0  0  0  0
    4.7782   -9.2411    6.9361 O   0  0  0  0  0  0  0  0  0  0  0  0
    3.8697   -8.1270    4.7636 C   0  0  2  0  0  0  0  0  0  0  0  0
    2.7680    0.0124    1.9313 H   0  0  0  0  0  0  0  0  0  0  0  0
    1.8589   -1.3475    1.2993 H   0  0  0  0  0  0  0  0  0  0  0  0
    2.7615   -1.5202    2.8106 H   0  0  0  0  0  0  0  0  0  0  0  0
    0.6216    1.7754    2.3961 H   0  0  0  0  0  0  0  0  0  0  0  0
   -2.1941   -1.2875    5.7588 H   0  0  0  0  0  0  0  0  0  0  0  0
   -2.9160   -0.0267    4.8224 H   0  0  0  0  0  0  0  0  0  0  0  0
   -1.8330    0.4050    6.1572 H   0  0  0  0  0  0  0  0  0  0  0  0
    0.9976   -3.0449    3.5938 H   0  0  0  0  0  0  0  0  0  0  0  0
   -0.8158   -2.6713    6.0663 H   0  0  0  0  0  0  0  0  0  0  0  0
    0.4373   -7.0257    5.4327 H   0  0  0  0  0  0  0  0  0  0  0  0
    2.5621   -5.4420    6.2273 H   0  0  0  0  0  0  0  0  0  0  0  0
    3.2908   -6.0809    3.9422 H   0  0  0  0  0  0  0  0  0  0  0  0
    4.8998   -4.8184    4.4262 H   0  0  0  0  0  0  0  0  0  0  0  0
    5.1820   -5.4452    6.0202 H   0  0  0  0  0  0  0  0  0  0  0  0
    4.9188   -6.9736    3.1692 H   0  0  0  0  0  0  0  0  0  0  0  0
    5.2842   -7.6253    1.4201 H   0  0  0  0  0  0  0  0  0  0  0  0
    3.2918   -9.3837    1.9690 H   0  0  0  0  0  0  0  0  0  0  0  0
    3.8961   -5.7280    1.5879 H   0  0  0  0  0  0  0  0  0  0  0  0
    3.2297   -6.8302    0.4812 H   0  0  0  0  0  0  0  0  0  0  0  0
    1.9188   -5.2660    2.4489 H   0  0  0  0  0  0  0  0  0  0  0  0
    0.8880   -7.0845    0.6462 H   0  0  0  0  0  0  0  0  0  0  0  0
    1.1036  -11.4490    2.9805 H   0  0  0  0  0  0  0  0  0  0  0  0
    2.5072  -10.8165    2.1638 H   0  0  0  0  0  0  0  0  0  0  0  0
    0.9394  -10.2481    1.7247 H   0  0  0  0  0  0  0  0  0  0  0  0
   -0.6144   -9.8554    3.3718 H   0  0  0  0  0  0  0  0  0  0  0  0
   -1.1649   -9.7983    5.2463 H   0  0  0  0  0  0  0  0  0  0  0  0
   -0.2558   -8.0958    2.0152 H   0  0  0  0  0  0  0  0  0  0  0  0
   -2.0548   -7.6762    3.4029 H   0  0  0  0  0  0  0  0  0  0  0  0
    4.4203  -10.8265    5.1583 H   0  0  0  0  0  0  0  0  0  0  0  0
    4.1885  -10.5947    3.4712 H   0  0  0  0  0  0  0  0  0  0  0  0
    3.0569  -11.5753    4.4065 H   0  0  0  0  0  0  0  0  0  0  0  0
    1.2200  -10.3834    5.9782 H   0  0  0  0  0  0  0  0  0  0  0  0
    2.7356  -10.5167    6.6227 H   0  0  0  0  0  0  0  0  0  0  0  0
    0.8636   -8.2310    7.0532 H   0  0  0  0  0  0  0  0  0  0  0  0
    1.9945   -9.0268    8.0668 H   0  0  0  0  0  0  0  0  0  0  0  0
    3.4496   -7.5110    8.6790 H   0  0  0  0  0  0  0  0  0  0  0  0
    5.0696   -7.4383    6.5889 H   0  0  0  0  0  0  0  0  0  0  0  0
    4.1419   -9.9326    6.8442 H   0  0  0  0  0  0  0  0  0  0  0  0
  1  2  1  0
  1 42  1  0
  1 43  1  0
  1 44  1  0
  2  7  1  0
  2  3  2  0
  3  4  1  0
  3 45  1  0
  4  5  1  0
  5  6  1  0
  5  7  2  0
  6 46  1  0
  6 47  1  0
  6 48  1  0
  7  8  1  0
  8  9  2  3
  8 49  1  0
  9 10  1  0
  9 50  1  0
 10 11  2  0
 10 12  1  0
 12 13  1  0
 13 25  1  0
 13 14  1  0
 13 51  1  1
 14 37  1  0
 14 15  1  0
 14 52  1  1
 15 41  1  0
 15 16  1  0
 15 53  1  6
 17 16  1  1
 16 54  1  0
 16 55  1  0
 17 18  2  0
 17 19  1  0
 19 41  1  0
 19 20  1  0
 19 56  1  6
 20 21  1  0
 20 22  1  0
 20 57  1  6
 21 58  1  0
 22 23  1  0
 22 59  1  0
 22 60  1  0
 23 24  1  0
 23 25  1  0
 23 61  1  1
 24 62  1  0
 25 31  1  0
 25 26  1  1
 26 27  1  0
 27 28  1  6
 27 29  1  0
 27 33  1  0
 28 63  1  0
 28 64  1  0
 28 65  1  0
 29 30  1  0
 29 31  1  0
 29 66  1  6
 30 67  1  0
 31 32  1  0
 31 68  1  6
 32 69  1  0
 41 33  1  6
 33 34  1  6
 33 35  1  0
 34 70  1  0
 34 71  1  0
 34 72  1  0
 35 36  1  0
 35 73  1  0
 35 74  1  0
 36 37  1  0
 36 75  1  0
 36 76  1  0
 37 38  1  1
 37 39  1  0
 38 77  1  0
 39 40  1  0
 39 41  1  0
 39 78  1  6
 40 79  1  0
M  END
>  <i_m_ct_stereo_status>  (57) 
1

>  <s_m_source_file>  (57) 
/var/tmp/pbs.5075288.sched01/tmpsukb34hn/166582q88ej.sdf

>  <i_m_source_file_index>  (57) 
65

>  <i_lp_mmshare_version>  (57) 
48012

>  <i_f3d_flags>  (57) 
0

>  <s_epik_input>  (57) 
W0NIM11jMVtjSF1vYyhbQ0gzXSljMS9bQ0hdPVtDSF0vQyg9TylPW0NAQEhdKFtDQEBdMjM0KVtDQEBIXTVbQ0BASF02W0NAXTcoW0NAQEhdKFtTK10oW08tXSlbQ0gyXTYpW0NAQEhdKFtPSF0pW0NIMl1bQ0BIXTJbT0hdKVtDQF0oW0NIM10pKFtDQEBdKE8zKShbQ0gzXSlbQ0BASF0oW09IXSlbQ0BIXTRbT0hdKVtDSDJdW0NIMl1bQ0BAXTUoW09IXSlbQ0BIXTdbT0hd

>  <s_epik_cmdline>  (57) 
J2VwaWtfcHl0aG9uJywgJy1waHQnLCAnMi4wJywgJy1waCcsICc3LjAnLCAnLXRuJywgJzgnLCAnLW1hJywgJzIwMCcsICctaW1hZScsICc8aW5maWxlLm1hZT4nLCAnLW9tYWUnLCAnPG91dGZpbGUubWFlPic=

>  <r_lp_tautomer_probability>  (57) 
1

>  <r_epik_Ionization_Penalty>  (57) 
1.73257e-06

>  <r_epik_Ionization_Penalty_Charging>  (57) 
0

>  <r_epik_Ionization_Penalty_Neutral>  (57) 
1.73257e-06

>  <r_epik_State_Penalty>  (57) 
-0

>  <r_epik_Charging_Adjusted_Penalty>  (57) 
0

>  <i_epik_Tot_Q>  (57) 
0

>  <i_epik_Tot_abs_Q>  (57) 
2

>  <s_epik_Chemistry_Notes>  (57) 
This compound has an ester and may undergo hydrolysis at high or low pH.

>  <s_lp_Force_Field>  (57) 
OPLS3e

>  <r_lp_Energy>  (57) 
259.925

>  <b_lp_Chiralities_Consistent>  (57) 
1

>  <s_lp_Variant>  (57) 
68:0-1

>  <s_i_glide_gridfile>  (57) 
pfpi4k_grid

>  <i_i_glide_lignum>  (57) 
65

>  <i_i_glide_rotatable_bonds>  (57) 
10

>  <r_i_docking_score>  (57) 
-3.16666

>  <r_i_glide_ligand_efficiency>  (57) 
-0.0772356

>  <r_i_glide_ligand_efficiency_sa>  (57) 
-0.266325

>  <r_i_glide_ligand_efficiency_ln>  (57) 
-0.671818

>  <r_i_glide_gscore>  (57) 
-3.16666

>  <r_i_glide_lipo>  (57) 
-0.242522

>  <r_i_glide_hbond>  (57) 
0

>  <r_i_glide_metal>  (57) 
-0

>  <r_i_glide_rewards>  (57) 
-3.66032e-05

>  <r_i_glide_evdw>  (57) 
-27.2094

>  <r_i_glide_ecoul>  (57) 
-11.2204

>  <r_i_glide_erotb>  (57) 
0.124935

>  <r_i_glide_esite>  (57) 
-0.00551045

>  <r_i_glide_emodel>  (57) 
-46.0387

>  <r_i_glide_energy>  (57) 
-38.4298

>  <r_i_glide_einternal>  (57) 
2.67892

>  <r_i_glide_intrahb_reward>  (57) 
-0

>  <i_i_glide_confnum>  (57) 
5

>  <i_i_glide_posenum>  (57) 
1

>  <r_i_glide_eff_state_penalty>  (57) 
0

>  <ligand_id>  (57) 
68

>  <original_smiles>  (57) 
Cc1coc(C)c1C=CC(=O)OC1C2C3C[S+]([O-])C4C(O)CC(O)C15OC(C)(C(O)C5O)C1(C)CCC2(O)C(O)C341

>  <smiles>  (57) 
[H]OC1([H])C([H])([H])C([H])(O[H])C23OC(C([H])([H])[H])(C([H])(O[H])C2([H])O[H])C2(C([H])([H])[H])C([H])([H])C([H])([H])C4(O[H])C([H])(O[H])C25C1([H])S(=O)C([H])([H])C5([H])C4([H])C3([H])OC(=O)C([H])=C([H])c1c(C([H])([H])[H])oc([H])c1C([H])([H])[H]

$$$$
68:0:2
     RDKit          3D

 79 85  0  0  1  0  0  0  0  0999 V2000
   -1.7448   -0.4195    5.0646 C   0  0  0  0  0  0  0  0  0  0  0  0
   -0.5802   -0.2740    4.1199 C   0  0  0  0  0  0  0  0  0  0  0  0
   -0.2561    0.8515    3.4110 C   0  0  0  0  0  0  0  0  0  0  0  0
    0.8389    0.6535    2.6262 O   0  0  0  0  0  0  0  0  0  0  0  0
    1.2312   -0.6344    2.8132 C   0  0  0  0  0  0  0  0  0  0  0  0
    2.4186   -1.0645    2.0163 C   0  0  0  0  0  0  0  0  0  0  0  0
    0.3995   -1.2293    3.7251 C   0  0  0  0  0  0  0  0  0  0  0  0
    0.5716   -2.6230    4.1793 C   0  0  0  0  0  0  0  0  0  0  0  0
    0.0019   -3.2037    5.2576 C   0  0  0  0  0  0  0  0  0  0  0  0
    0.2167   -4.6195    5.6014 C   0  0  0  0  0  0  0  0  0  0  0  0
   -0.2744   -5.1324    6.6050 O   0  0  0  0  0  0  0  0  0  0  0  0
    0.9794   -5.2639    4.6954 O   0  0  0  0  0  0  0  0  0  0  0  0
    1.3292   -6.6327    4.8437 C   0  0  2  0  0  0  0  0  0  0  0  0
    2.6305   -6.6227    5.7638 C   0  0  2  0  0  0  0  0  0  0  0  0
    3.7233   -6.8524    4.8209 C   0  0  1  0  0  0  0  0  0  0  0  0
    5.1062   -6.1099    4.9805 C   0  0  0  0  0  0  0  0  0  0  0  0
    6.3241   -7.3324    4.2348 S   0  0  0  0  0  0  0  0  0  0  0  0
    7.0665   -6.6232    3.1002 O   0  0  0  0  0  0  0  0  0  0  0  0
    4.9247   -8.3526    3.5417 C   0  0  1  0  0  0  0  0  0  0  0  0
    4.4209   -8.1694    2.0249 C   0  0  1  0  0  0  0  0  0  0  0  0
    3.9804   -9.3732    1.4432 O   0  0  0  0  0  0  0  0  0  0  0  0
    3.4481   -6.9487    1.5498 C   0  0  0  0  0  0  0  0  0  0  0  0
    1.9962   -6.4777    2.1215 C   0  0  1  0  0  0  0  0  0  0  0  0
    1.1133   -6.3076    1.0217 O   0  0  0  0  0  0  0  0  0  0  0  0
    1.2673   -7.2321    3.3205 C   0  0  1  0  0  0  0  0  0  0  0  0
    1.9542   -8.4154    3.0437 O   0  0  0  0  0  0  0  0  0  0  0  0
    1.4874   -9.5455    3.6647 C   0  0  2  0  0  0  0  0  0  0  0  0
    1.4034  -10.6672    2.6030 C   0  0  0  0  0  0  0  0  0  0  0  0
   -0.0231   -9.1396    3.8659 C   0  0  1  0  0  0  0  0  0  0  0  0
   -0.5876   -9.0473    5.1568 O   0  0  0  0  0  0  0  0  0  0  0  0
   -0.1218   -7.8417    3.0632 C   0  0  1  0  0  0  0  0  0  0  0  0
   -1.2489   -7.0497    3.3922 O   0  0  0  0  0  0  0  0  0  0  0  0
    2.6943   -9.6178    4.7212 C   0  0  2  0  0  0  0  0  0  0  0  0
    3.5012  -10.9300    4.4258 C   0  0  0  0  0  0  0  0  0  0  0  0
    2.0379   -9.9502    6.1048 C   0  0  0  0  0  0  0  0  0  0  0  0
    1.8831   -8.7684    7.0679 C   0  0  0  0  0  0  0  0  0  0  0  0
    2.9819   -7.7264    6.8326 C   0  0  2  0  0  0  0  0  0  0  0  0
    3.2749   -7.0806    8.0544 O   0  0  0  0  0  0  0  0  0  0  0  0
    4.2886   -8.4007    6.2904 C   0  0  1  0  0  0  0  0  0  0  0  0
    4.7305   -9.5775    6.9358 O   0  0  0  0  0  0  0  0  0  0  0  0
    3.8909   -8.4209    4.7613 C   0  0  2  0  0  0  0  0  0  0  0  0
   -2.5113    0.3191    4.8457 H   0  0  0  0  0  0  0  0  0  0  0  0
   -1.4137   -0.2751    6.0897 H   0  0  0  0  0  0  0  0  0  0  0  0
   -2.1984   -1.4027    4.9641 H   0  0  0  0  0  0  0  0  0  0  0  0
   -0.6753    1.8443    3.3462 H   0  0  0  0  0  0  0  0  0  0  0  0
    2.6976   -2.0957    2.2244 H   0  0  0  0  0  0  0  0  0  0  0  0
    3.2786   -0.4329    2.2233 H   0  0  0  0  0  0  0  0  0  0  0  0
    2.2162   -0.9909    0.9521 H   0  0  0  0  0  0  0  0  0  0  0  0
    1.2233   -3.2059    3.5506 H   0  0  0  0  0  0  0  0  0  0  0  0
   -0.6375   -2.6480    5.9188 H   0  0  0  0  0  0  0  0  0  0  0  0
    0.5477   -7.0846    5.4362 H   0  0  0  0  0  0  0  0  0  0  0  0
    2.7569   -5.6385    6.2141 H   0  0  0  0  0  0  0  0  0  0  0  0
    3.4402   -6.3454    3.9297 H   0  0  0  0  0  0  0  0  0  0  0  0
    5.1292   -5.1895    4.3977 H   0  0  0  0  0  0  0  0  0  0  0  0
    5.3761   -5.8218    5.9986 H   0  0  0  0  0  0  0  0  0  0  0  0
    4.9976   -7.3537    3.1609 H   0  0  0  0  0  0  0  0  0  0  0  0
    5.3274   -8.0235    1.4208 H   0  0  0  0  0  0  0  0  0  0  0  0
    4.6090  -10.0695    1.5860 H   0  0  0  0  0  0  0  0  0  0  0  0
    4.0623   -6.0457    1.5822 H   0  0  0  0  0  0  0  0  0  0  0  0
    3.3247   -7.1001    0.4818 H   0  0  0  0  0  0  0  0  0  0  0  0
    2.1253   -5.4423    2.4423 H   0  0  0  0  0  0  0  0  0  0  0  0
    0.9636   -7.1637    0.6435 H   0  0  0  0  0  0  0  0  0  0  0  0
    0.9157  -11.5539    3.0122 H   0  0  0  0  0  0  0  0  0  0  0  0
    2.3509  -10.9929    2.1885 H   0  0  0  0  0  0  0  0  0  0  0  0
    0.8058  -10.3392    1.7527 H   0  0  0  0  0  0  0  0  0  0  0  0
   -0.6954   -9.8547    3.3880 H   0  0  0  0  0  0  0  0  0  0  0  0
   -1.1960   -9.7808    5.2585 H   0  0  0  0  0  0  0  0  0  0  0  0
   -0.2227   -8.1239    2.0131 H   0  0  0  0  0  0  0  0  0  0  0  0
   -1.3051   -7.0182    4.3364 H   0  0  0  0  0  0  0  0  0  0  0  0
    4.2659  -11.1471    5.1668 H   0  0  0  0  0  0  0  0  0  0  0  0
    4.0365  -10.9070    3.4779 H   0  0  0  0  0  0  0  0  0  0  0  0
    2.8493  -11.8077    4.4246 H   0  0  0  0  0  0  0  0  0  0  0  0
    1.1072  -10.4919    5.9941 H   0  0  0  0  0  0  0  0  0  0  0  0
    2.6124  -10.7135    6.6313 H   0  0  0  0  0  0  0  0  0  0  0  0
    0.8940   -8.3211    7.0568 H   0  0  0  0  0  0  0  0  0  0  0  0
    1.9717   -9.1779    8.0720 H   0  0  0  0  0  0  0  0  0  0  0  0
    3.5107   -7.7558    8.6726 H   0  0  0  0  0  0  0  0  0  0  0  0
    5.1389   -7.8001    6.5771 H   0  0  0  0  0  0  0  0  0  0  0  0
    4.0432  -10.2218    6.8598 H   0  0  0  0  0  0  0  0  0  0  0  0
  1  2  1  0
  1 42  1  0
  1 43  1  0
  1 44  1  0
  2  7  1  0
  2  3  2  0
  3  4  1  0
  3 45  1  0
  4  5  1  0
  5  6  1  0
  5  7  2  0
  6 46  1  0
  6 47  1  0
  6 48  1  0
  7  8  1  0
  8  9  2  3
  8 49  1  0
  9 10  1  0
  9 50  1  0
 10 11  2  0
 10 12  1  0
 12 13  1  0
 13 25  1  0
 13 14  1  0
 13 51  1  1
 14 37  1  0
 14 15  1  0
 14 52  1  1
 15 41  1  0
 15 16  1  0
 15 53  1  6
 17 16  1  1
 16 54  1  0
 16 55  1  0
 17 18  2  0
 17 19  1  0
 19 41  1  0
 19 20  1  0
 19 56  1  6
 20 21  1  0
 20 22  1  0
 20 57  1  6
 21 58  1  0
 22 23  1  0
 22 59  1  0
 22 60  1  0
 23 24  1  0
 23 25  1  0
 23 61  1  1
 24 62  1  0
 25 31  1  0
 25 26  1  1
 26 27  1  0
 27 28  1  6
 27 29  1  0
 27 33  1  0
 28 63  1  0
 28 64  1  0
 28 65  1  0
 29 30  1  0
 29 31  1  0
 29 66  1  6
 30 67  1  0
 31 32  1  0
 31 68  1  6
 32 69  1  0
 41 33  1  6
 33 34  1  6
 33 35  1  0
 34 70  1  0
 34 71  1  0
 34 72  1  0
 35 36  1  0
 35 73  1  0
 35 74  1  0
 36 37  1  0
 36 75  1  0
 36 76  1  0
 37 38  1  1
 37 39  1  0
 38 77  1  0
 39 40  1  0
 39 41  1  0
 39 78  1  6
 40 79  1  0
M  END
>  <i_m_ct_stereo_status>  (58) 
1

>  <s_m_source_file>  (58) 
/var/tmp/pbs.5075288.sched01/tmpsukb34hn/166582q88ej.sdf

>  <i_m_source_file_index>  (58) 
65

>  <i_lp_mmshare_version>  (58) 
48012

>  <i_f3d_flags>  (58) 
0

>  <s_epik_input>  (58) 
W0NIM11jMVtjSF1vYyhbQ0gzXSljMS9bQ0hdPVtDSF0vQyg9TylPW0NAQEhdKFtDQEBdMjM0KVtDQEBIXTVbQ0BASF02W0NAXTcoW0NAQEhdKFtTK10oW08tXSlbQ0gyXTYpW0NAQEhdKFtPSF0pW0NIMl1bQ0BIXTJbT0hdKVtDQF0oW0NIM10pKFtDQEBdKE8zKShbQ0gzXSlbQ0BASF0oW09IXSlbQ0BIXTRbT0hdKVtDSDJdW0NIMl1bQ0BAXTUoW09IXSlbQ0BIXTdbT0hd

>  <s_epik_cmdline>  (58) 
J2VwaWtfcHl0aG9uJywgJy1waHQnLCAnMi4wJywgJy1waCcsICc3LjAnLCAnLXRuJywgJzgnLCAnLW1hJywgJzIwMCcsICctaW1hZScsICc8aW5maWxlLm1hZT4nLCAnLW9tYWUnLCAnPG91dGZpbGUubWFlPic=

>  <r_lp_tautomer_probability>  (58) 
1

>  <r_epik_Ionization_Penalty>  (58) 
1.73257e-06

>  <r_epik_Ionization_Penalty_Charging>  (58) 
0

>  <r_epik_Ionization_Penalty_Neutral>  (58) 
1.73257e-06

>  <r_epik_State_Penalty>  (58) 
-0

>  <r_epik_Charging_Adjusted_Penalty>  (58) 
0

>  <i_epik_Tot_Q>  (58) 
0

>  <i_epik_Tot_abs_Q>  (58) 
2

>  <s_epik_Chemistry_Notes>  (58) 
This compound has an ester and may undergo hydrolysis at high or low pH.

>  <s_lp_Force_Field>  (58) 
OPLS3e

>  <r_lp_Energy>  (58) 
259.925

>  <b_lp_Chiralities_Consistent>  (58) 
1

>  <s_lp_Variant>  (58) 
68:0-1

>  <s_i_glide_gridfile>  (58) 
pfpi4k_grid

>  <i_i_glide_lignum>  (58) 
65

>  <i_i_glide_rotatable_bonds>  (58) 
10

>  <r_i_docking_score>  (58) 
-3.12245

>  <r_i_glide_ligand_efficiency>  (58) 
-0.0761573

>  <r_i_glide_ligand_efficiency_sa>  (58) 
-0.262607

>  <r_i_glide_ligand_efficiency_ln>  (58) 
-0.662438

>  <r_i_glide_gscore>  (58) 
-3.12245

>  <r_i_glide_lipo>  (58) 
-0.223102

>  <r_i_glide_hbond>  (58) 
0

>  <r_i_glide_metal>  (58) 
-0

>  <r_i_glide_rewards>  (58) 
-3.80113e-06

>  <r_i_glide_evdw>  (58) 
-27.7646

>  <r_i_glide_ecoul>  (58) 
-10.8718

>  <r_i_glide_erotb>  (58) 
0.124935

>  <r_i_glide_esite>  (58) 
-0.00528408

>  <r_i_glide_emodel>  (58) 
-46.4265

>  <r_i_glide_energy>  (58) 
-38.6363

>  <r_i_glide_einternal>  (58) 
2.3558

>  <r_i_glide_intrahb_reward>  (58) 
-0

>  <i_i_glide_confnum>  (58) 
4

>  <i_i_glide_posenum>  (58) 
28

>  <r_i_glide_eff_state_penalty>  (58) 
0

>  <ligand_id>  (58) 
68

>  <original_smiles>  (58) 
Cc1coc(C)c1C=CC(=O)OC1C2C3C[S+]([O-])C4C(O)CC(O)C15OC(C)(C(O)C5O)C1(C)CCC2(O)C(O)C341

>  <smiles>  (58) 
[H]OC1([H])C([H])([H])C([H])(O[H])C23OC(C([H])([H])[H])(C([H])(O[H])C2([H])O[H])C2(C([H])([H])[H])C([H])([H])C([H])([H])C4(O[H])C([H])(O[H])C25C1([H])S(=O)C([H])([H])C5([H])C4([H])C3([H])OC(=O)C([H])=C([H])c1c(C([H])([H])[H])oc([H])c1C([H])([H])[H]

$$$$
68:1:0
     RDKit          3D

 79 85  0  0  1  0  0  0  0  0999 V2000
    0.3148   -9.5662    6.1479 C   0  0  0  0  0  0  0  0  0  0  0  0
    1.1867   -8.7155    7.0358 C   0  0  0  0  0  0  0  0  0  0  0  0
    2.2626   -9.1323    7.7612 C   0  0  0  0  0  0  0  0  0  0  0  0
    2.8293   -8.1100    8.4651 O   0  0  0  0  0  0  0  0  0  0  0  0
    2.0935   -6.9999    8.1970 C   0  0  0  0  0  0  0  0  0  0  0  0
    2.5330   -5.7495    8.8821 C   0  0  0  0  0  0  0  0  0  0  0  0
    1.0994   -7.3242    7.3243 C   0  0  0  0  0  0  0  0  0  0  0  0
    0.0938   -6.3950    6.7934 C   0  0  0  0  0  0  0  0  0  0  0  0
   -0.0954   -6.0218    5.5123 C   0  0  0  0  0  0  0  0  0  0  0  0
    0.7234   -6.3925    4.3423 C   0  0  0  0  0  0  0  0  0  0  0  0
    0.2966   -6.2708    3.1910 O   0  0  0  0  0  0  0  0  0  0  0  0
    1.9699   -6.8175    4.6689 O   0  0  0  0  0  0  0  0  0  0  0  0
    2.9898   -7.0567    3.6963 C   0  0  2  0  0  0  0  0  0  0  0  0
    3.2950   -8.6230    3.7680 C   0  0  2  0  0  0  0  0  0  0  0  0
    4.5678   -8.6983    4.4855 C   0  0  1  0  0  0  0  0  0  0  0  0
    4.8552   -9.8512    5.5231 C   0  0  0  0  0  0  0  0  0  0  0  0
    6.7197  -10.0552    5.4176 S   0  0  0  0  0  0  0  0  0  0  0  0
    7.3053   -9.8463    6.8178 O   0  0  0  0  0  0  0  0  0  0  0  0
    6.8621   -8.4847    4.4262 C   0  0  1  0  0  0  0  0  0  0  0  0
    7.2156   -7.0745    5.1124 C   0  0  1  0  0  0  0  0  0  0  0  0
    8.0169   -6.2664    4.2853 O   0  0  0  0  0  0  0  0  0  0  0  0
    6.1204   -6.1665    5.9058 C   0  0  0  0  0  0  0  0  0  0  0  0
    4.6710   -5.6133    5.4184 C   0  0  1  0  0  0  0  0  0  0  0  0
    4.5961   -4.2413    5.7601 O   0  0  0  0  0  0  0  0  0  0  0  0
    4.1029   -5.8806    3.9563 C   0  0  1  0  0  0  0  0  0  0  0  0
    5.3902   -6.0536    3.4371 O   0  0  0  0  0  0  0  0  0  0  0  0
    5.4997   -6.0561    2.0696 C   0  0  2  0  0  0  0  0  0  0  0  0
    6.6950   -5.1335    1.6858 C   0  0  0  0  0  0  0  0  0  0  0  0
    4.2297   -5.1903    1.6938 C   0  0  1  0  0  0  0  0  0  0  0  0
    3.1770   -5.7146    0.9039 O   0  0  0  0  0  0  0  0  0  0  0  0
    3.7840   -4.6695    3.0656 C   0  0  1  0  0  0  0  0  0  0  0  0
    2.4705   -4.1452    3.1293 O   0  0  0  0  0  0  0  0  0  0  0  0
    5.7334   -7.6446    1.9798 C   0  0  2  0  0  0  0  0  0  0  0  0
    7.1890   -7.8715    1.4350 C   0  0  0  0  0  0  0  0  0  0  0  0
    4.8404   -8.1382    0.7879 C   0  0  0  0  0  0  0  0  0  0  0  0
    3.5306   -8.8337    1.1745 C   0  0  0  0  0  0  0  0  0  0  0  0
    3.6645   -9.5311    2.5279 C   0  0  2  0  0  0  0  0  0  0  0  0
    2.8179  -10.6581    2.5402 O   0  0  0  0  0  0  0  0  0  0  0  0
    5.1393   -9.9973    2.7794 C   0  0  1  0  0  0  0  0  0  0  0  0
    5.8190  -10.6506    1.7137 O   0  0  0  0  0  0  0  0  0  0  0  0
    5.6763   -8.6264    3.3612 C   0  0  2  0  0  0  0  0  0  0  0  0
    0.8671  -10.4307    5.7750 H   0  0  0  0  0  0  0  0  0  0  0  0
   -0.0546   -9.0042    5.2929 H   0  0  0  0  0  0  0  0  0  0  0  0
   -0.5400   -9.9374    6.7073 H   0  0  0  0  0  0  0  0  0  0  0  0
    2.7332  -10.0981    7.9003 H   0  0  0  0  0  0  0  0  0  0  0  0
    1.8002   -4.9523    8.7679 H   0  0  0  0  0  0  0  0  0  0  0  0
    3.4796   -5.4014    8.4755 H   0  0  0  0  0  0  0  0  0  0  0  0
    2.6743   -5.9308    9.9452 H   0  0  0  0  0  0  0  0  0  0  0  0
   -0.5849   -5.9906    7.5328 H   0  0  0  0  0  0  0  0  0  0  0  0
   -0.9298   -5.3725    5.3057 H   0  0  0  0  0  0  0  0  0  0  0  0
    2.5401   -6.9133    2.7270 H   0  0  0  0  0  0  0  0  0  0  0  0
    2.5171   -9.1029    4.3605 H   0  0  0  0  0  0  0  0  0  0  0  0
    4.5316   -7.9188    5.2101 H   0  0  0  0  0  0  0  0  0  0  0  0
    4.6214   -9.5355    6.5381 H   0  0  0  0  0  0  0  0  0  0  0  0
    4.3128  -10.7873    5.3623 H   0  0  0  0  0  0  0  0  0  0  0  0
    6.4784   -8.3626    5.4193 H   0  0  0  0  0  0  0  0  0  0  0  0
    7.9689   -7.2911    5.8830 H   0  0  0  0  0  0  0  0  0  0  0  0
    8.7239   -6.7913    3.9321 H   0  0  0  0  0  0  0  0  0  0  0  0
    5.9060   -6.7049    6.8316 H   0  0  0  0  0  0  0  0  0  0  0  0
    6.6795   -5.3009    6.2638 H   0  0  0  0  0  0  0  0  0  0  0  0
    3.9392   -6.0363    6.1082 H   0  0  0  0  0  0  0  0  0  0  0  0
    3.7173   -3.9369    5.5811 H   0  0  0  0  0  0  0  0  0  0  0  0
    6.7465   -5.0086    0.6039 H   0  0  0  0  0  0  0  0  0  0  0  0
    7.6776   -5.4548    2.0164 H   0  0  0  0  0  0  0  0  0  0  0  0
    6.5663   -4.1380    2.1117 H   0  0  0  0  0  0  0  0  0  0  0  0
    4.5206   -4.3159    1.1097 H   0  0  0  0  0  0  0  0  0  0  0  0
    3.4990   -5.8647    0.0264 H   0  0  0  0  0  0  0  0  0  0  0  0
    4.4436   -3.8378    3.3185 H   0  0  0  0  0  0  0  0  0  0  0  0
    2.4035   -3.4166    2.5285 H   0  0  0  0  0  0  0  0  0  0  0  0
    7.3949   -8.9099    1.1910 H   0  0  0  0  0  0  0  0  0  0  0  0
    7.9663   -7.5939    2.1431 H   0  0  0  0  0  0  0  0  0  0  0  0
    7.3811   -7.3140    0.5172 H   0  0  0  0  0  0  0  0  0  0  0  0
    4.6822   -7.3675    0.0445 H   0  0  0  0  0  0  0  0  0  0  0  0
    5.3935   -8.8560    0.1844 H   0  0  0  0  0  0  0  0  0  0  0  0
    2.6622   -8.1842    1.1413 H   0  0  0  0  0  0  0  0  0  0  0  0
    3.3302   -9.5772    0.4065 H   0  0  0  0  0  0  0  0  0  0  0  0
    3.0991  -11.2341    1.8387 H   0  0  0  0  0  0  0  0  0  0  0  0
    5.1173  -10.8560    3.4326 H   0  0  0  0  0  0  0  0  0  0  0  0
    5.2082  -11.2531    1.2854 H   0  0  0  0  0  0  0  0  0  0  0  0
  1  2  1  0
  1 42  1  0
  1 43  1  0
  1 44  1  0
  2  7  1  0
  2  3  2  0
  3  4  1  0
  3 45  1  0
  4  5  1  0
  5  6  1  0
  5  7  2  0
  6 46  1  0
  6 47  1  0
  6 48  1  0
  7  8  1  0
  8  9  2  3
  8 49  1  0
  9 10  1  0
  9 50  1  0
 10 11  2  0
 10 12  1  0
 12 13  1  0
 13 25  1  0
 13 14  1  0
 13 51  1  6
 14 37  1  0
 14 15  1  0
 14 52  1  1
 15 41  1  0
 15 16  1  0
 15 53  1  1
 17 16  1  1
 16 54  1  0
 16 55  1  0
 17 18  2  0
 17 19  1  0
 19 41  1  0
 19 20  1  0
 19 56  1  6
 20 21  1  0
 20 22  1  0
 20 57  1  1
 21 58  1  0
 22 23  1  0
 22 59  1  0
 22 60  1  0
 23 24  1  0
 23 25  1  0
 23 61  1  1
 24 62  1  0
 25 31  1  0
 25 26  1  6
 26 27  1  0
 27 28  1  1
 27 29  1  0
 27 33  1  0
 28 63  1  0
 28 64  1  0
 28 65  1  0
 29 30  1  0
 29 31  1  0
 29 66  1  6
 30 67  1  0
 31 32  1  0
 31 68  1  1
 32 69  1  0
 41 33  1  6
 33 34  1  6
 33 35  1  0
 34 70  1  0
 34 71  1  0
 34 72  1  0
 35 36  1  0
 35 73  1  0
 35 74  1  0
 36 37  1  0
 36 75  1  0
 36 76  1  0
 37 38  1  6
 37 39  1  0
 38 77  1  0
 39 40  1  0
 39 41  1  0
 39 78  1  1
 40 79  1  0
M  END
>  <i_m_ct_stereo_status>  (59) 
1

>  <s_m_source_file>  (59) 
/var/tmp/pbs.5075288.sched01/tmpsukb34hn/166582q88ej.sdf

>  <i_m_source_file_index>  (59) 
66

>  <i_lp_mmshare_version>  (59) 
48012

>  <i_f3d_flags>  (59) 
0

>  <s_epik_input>  (59) 
W0NIM11jMVtjSF1vYyhbQ0gzXSljMS9bQ0hdPVtDSF0vQyg9TylPW0NAQEhdKFtDQEBdMjM0KVtDQEBIXTVbQ0BASF02W0NAXTcoW0NAQEhdKFtTK10oW08tXSlbQ0gyXTYpW0NAQEhdKFtPSF0pW0NIMl1bQ0BIXTJbT0hdKVtDQF0oW0NIM10pKFtDQEBdKE8zKShbQ0gzXSlbQ0BASF0oW09IXSlbQ0BIXTRbT0hdKVtDSDJdW0NIMl1bQ0BAXTUoW09IXSlbQ0BIXTdbT0hd

>  <s_epik_cmdline>  (59) 
J2VwaWtfcHl0aG9uJywgJy1waHQnLCAnMi4wJywgJy1waCcsICc3LjAnLCAnLXRuJywgJzgnLCAnLW1hJywgJzIwMCcsICctaW1hZScsICc8aW5maWxlLm1hZT4nLCAnLW9tYWUnLCAnPG91dGZpbGUubWFlPic=

>  <r_lp_tautomer_probability>  (59) 
1

>  <r_epik_Ionization_Penalty>  (59) 
1.73257e-06

>  <r_epik_Ionization_Penalty_Charging>  (59) 
0

>  <r_epik_Ionization_Penalty_Neutral>  (59) 
1.73257e-06

>  <r_epik_State_Penalty>  (59) 
-0

>  <r_epik_Charging_Adjusted_Penalty>  (59) 
0

>  <i_epik_Tot_Q>  (59) 
0

>  <i_epik_Tot_abs_Q>  (59) 
2

>  <s_epik_Chemistry_Notes>  (59) 
This compound has an ester and may undergo hydrolysis at high or low pH.

>  <s_lp_Force_Field>  (59) 
OPLS3e

>  <r_lp_Energy>  (59) 
262.533

>  <b_lp_Chiralities_Consistent>  (59) 
1

>  <s_lp_Variant>  (59) 
68:0-2

>  <s_i_glide_gridfile>  (59) 
pfpi4k_grid

>  <i_i_glide_lignum>  (59) 
66

>  <i_i_glide_rotatable_bonds>  (59) 
10

>  <r_i_docking_score>  (59) 
-2.7819

>  <r_i_glide_ligand_efficiency>  (59) 
-0.0678512

>  <r_i_glide_ligand_efficiency_sa>  (59) 
-0.233966

>  <r_i_glide_ligand_efficiency_ln>  (59) 
-0.590189

>  <r_i_glide_gscore>  (59) 
-2.7819

>  <r_i_glide_lipo>  (59) 
-0.292192

>  <r_i_glide_hbond>  (59) 
-0.0626302

>  <r_i_glide_metal>  (59) 
-0

>  <r_i_glide_rewards>  (59) 
0

>  <r_i_glide_evdw>  (59) 
-22.2337

>  <r_i_glide_ecoul>  (59) 
-9.49744

>  <r_i_glide_erotb>  (59) 
0.124935

>  <r_i_glide_esite>  (59) 
-0.0157121

>  <r_i_glide_emodel>  (59) 
-34.6932

>  <r_i_glide_energy>  (59) 
-31.7311

>  <r_i_glide_einternal>  (59) 
7.33119

>  <r_i_glide_intrahb_reward>  (59) 
-0

>  <i_i_glide_confnum>  (59) 
4

>  <i_i_glide_posenum>  (59) 
1

>  <r_i_glide_eff_state_penalty>  (59) 
0

>  <ligand_id>  (59) 
68

>  <original_smiles>  (59) 
Cc1coc(C)c1C=CC(=O)OC1C2C3C[S+]([O-])C4C(O)CC(O)C15OC(C)(C(O)C5O)C1(C)CCC2(O)C(O)C341

>  <smiles>  (59) 
[H]OC1([H])C([H])([H])C([H])(O[H])C23OC(C([H])([H])[H])(C([H])(O[H])C2([H])O[H])C2(C([H])([H])[H])C([H])([H])C([H])([H])C4(O[H])C([H])(O[H])C25C1([H])S(=O)C([H])([H])C5([H])C4([H])C3([H])OC(=O)C([H])=C([H])c1c(C([H])([H])[H])oc([H])c1C([H])([H])[H]

$$$$
68:1:1
     RDKit          3D

 79 85  0  0  1  0  0  0  0  0999 V2000
   -0.9950   -8.7522    5.1166 C   0  0  0  0  0  0  0  0  0  0  0  0
   -0.3439   -7.4270    5.1611 C   0  0  0  0  0  0  0  0  0  0  0  0
    0.2243   -6.8173    6.2464 C   0  0  0  0  0  0  0  0  0  0  0  0
    0.6828   -5.5853    5.9461 O   0  0  0  0  0  0  0  0  0  0  0  0
    0.3765   -5.4117    4.6417 C   0  0  0  0  0  0  0  0  0  0  0  0
    0.7773   -4.1105    4.1160 C   0  0  0  0  0  0  0  0  0  0  0  0
   -0.1657   -6.5156    4.0784 C   0  0  0  0  0  0  0  0  0  0  0  0
   -0.6379   -6.7408    2.6888 C   0  0  0  0  0  0  0  0  0  0  0  0
    0.0536   -6.7419    1.5189 C   0  0  0  0  0  0  0  0  0  0  0  0
    1.5001   -6.5711    1.4124 C   0  0  0  0  0  0  0  0  0  0  0  0
    2.2556   -7.5424    1.3432 O   0  0  0  0  0  0  0  0  0  0  0  0
    1.8910   -5.2599    1.4599 O   0  0  0  0  0  0  0  0  0  0  0  0
    3.2267   -4.8154    1.1678 C   0  0  2  0  0  0  0  0  0  0  0  0
    4.2268   -5.5550    2.1780 C   0  0  2  0  0  0  0  0  0  0  0  0
    4.5443   -4.5351    3.1457 C   0  0  1  0  0  0  0  0  0  0  0  0
    4.6289   -4.9457    4.6777 C   0  0  0  0  0  0  0  0  0  0  0  0
    5.8283   -3.6887    5.3546 S   0  0  0  0  0  0  0  0  0  0  0  0
    5.2226   -2.8934    6.5113 O   0  0  0  0  0  0  0  0  0  0  0  0
    5.7804   -2.7180    3.7510 C   0  0  1  0  0  0  0  0  0  0  0  0
    4.8612   -1.4056    3.5954 C   0  0  1  0  0  0  0  0  0  0  0  0
    5.3964   -0.4179    2.7381 O   0  0  0  0  0  0  0  0  0  0  0  0
    3.2616   -1.5211    3.3182 C   0  0  0  0  0  0  0  0  0  0  0  0
    2.4892   -2.2187    2.0766 C   0  0  1  0  0  0  0  0  0  0  0  0
    1.4895   -1.3198    1.6485 O   0  0  0  0  0  0  0  0  0  0  0  0
    3.1436   -3.1638    1.0012 C   0  0  1  0  0  0  0  0  0  0  0  0
    4.3142   -2.4061    1.1340 O   0  0  0  0  0  0  0  0  0  0  0  0
    5.1891   -2.5091    0.0972 C   0  0  2  0  0  0  0  0  0  0  0  0
    5.5942   -1.0685   -0.3115 C   0  0  0  0  0  0  0  0  0  0  0  0
    4.2367   -2.9648   -1.0684 C   0  0  1  0  0  0  0  0  0  0  0  0
    4.4388   -4.2303   -1.6380 O   0  0  0  0  0  0  0  0  0  0  0  0
    2.8650   -2.8071   -0.4542 C   0  0  1  0  0  0  0  0  0  0  0  0
    1.8667   -3.5132   -1.1633 O   0  0  0  0  0  0  0  0  0  0  0  0
    6.1860   -3.3841    0.9898 C   0  0  2  0  0  0  0  0  0  0  0  0
    7.4583   -2.5432    1.0469 C   0  0  0  0  0  0  0  0  0  0  0  0
    6.6884   -4.5443    0.0831 C   0  0  0  0  0  0  0  0  0  0  0  0
    6.0511   -5.9122    0.3467 C   0  0  0  0  0  0  0  0  0  0  0  0
    5.6638   -6.0712    1.8156 C   0  0  2  0  0  0  0  0  0  0  0  0
    5.7449   -7.4450    2.1503 O   0  0  0  0  0  0  0  0  0  0  0  0
    6.6115   -5.2373    2.7299 C   0  0  1  0  0  0  0  0  0  0  0  0
    8.0015   -5.3903    2.4640 O   0  0  0  0  0  0  0  0  0  0  0  0
    5.8444   -3.8469    2.5994 C   0  0  2  0  0  0  0  0  0  0  0  0
   -0.5986   -9.3701    5.9234 H   0  0  0  0  0  0  0  0  0  0  0  0
   -0.8193   -9.2334    4.1525 H   0  0  0  0  0  0  0  0  0  0  0  0
   -2.0680   -8.6294    5.2584 H   0  0  0  0  0  0  0  0  0  0  0  0
    0.3574   -7.0573    7.2886 H   0  0  0  0  0  0  0  0  0  0  0  0
    0.3615   -4.0441    3.1049 H   0  0  0  0  0  0  0  0  0  0  0  0
    1.8688   -4.1529    4.0920 H   0  0  0  0  0  0  0  0  0  0  0  0
    0.4451   -3.2662    4.7385 H   0  0  0  0  0  0  0  0  0  0  0  0
   -1.6976   -6.9174    2.6044 H   0  0  0  0  0  0  0  0  0  0  0  0
   -0.4776   -6.9285    0.5995 H   0  0  0  0  0  0  0  0  0  0  0  0
    3.4287   -5.2560    0.2003 H   0  0  0  0  0  0  0  0  0  0  0  0
    3.7544   -6.3370    2.7646 H   0  0  0  0  0  0  0  0  0  0  0  0
    3.6962   -3.9067    3.1984 H   0  0  0  0  0  0  0  0  0  0  0  0
    3.6840   -4.8212    5.2092 H   0  0  0  0  0  0  0  0  0  0  0  0
    4.9698   -5.9680    4.8973 H   0  0  0  0  0  0  0  0  0  0  0  0
    4.8694   -2.7677    4.3257 H   0  0  0  0  0  0  0  0  0  0  0  0
    4.9240   -0.8566    4.5603 H   0  0  0  0  0  0  0  0  0  0  0  0
    4.7766    0.2975    2.7299 H   0  0  0  0  0  0  0  0  0  0  0  0
    2.8232   -1.9476    4.2216 H   0  0  0  0  0  0  0  0  0  0  0  0
    2.9028   -0.4895    3.3881 H   0  0  0  0  0  0  0  0  0  0  0  0
    1.8510   -2.9209    2.5015 H   0  0  0  0  0  0  0  0  0  0  0  0
    1.3673   -1.3030    0.6808 H   0  0  0  0  0  0  0  0  0  0  0  0
    6.2139   -1.1204   -1.1981 H   0  0  0  0  0  0  0  0  0  0  0  0
    6.1220   -0.4828    0.4248 H   0  0  0  0  0  0  0  0  0  0  0  0
    4.7207   -0.4688   -0.5547 H   0  0  0  0  0  0  0  0  0  0  0  0
    4.2634   -2.2770   -1.9168 H   0  0  0  0  0  0  0  0  0  0  0  0
    3.6178   -4.5160   -2.0268 H   0  0  0  0  0  0  0  0  0  0  0  0
    2.6357   -1.7485   -0.5048 H   0  0  0  0  0  0  0  0  0  0  0  0
    1.4028   -2.8622   -1.6737 H   0  0  0  0  0  0  0  0  0  0  0  0
    8.2479   -3.1451    1.4626 H   0  0  0  0  0  0  0  0  0  0  0  0
    7.3339   -1.6185    1.5900 H   0  0  0  0  0  0  0  0  0  0  0  0
    7.8618   -2.2391    0.0892 H   0  0  0  0  0  0  0  0  0  0  0  0
    6.6369   -4.2522   -0.9600 H   0  0  0  0  0  0  0  0  0  0  0  0
    7.7684   -4.6915    0.1722 H   0  0  0  0  0  0  0  0  0  0  0  0
    5.2346   -6.1717   -0.3336 H   0  0  0  0  0  0  0  0  0  0  0  0
    6.8529   -6.6164    0.1277 H   0  0  0  0  0  0  0  0  0  0  0  0
    5.1621   -7.9306    1.5872 H   0  0  0  0  0  0  0  0  0  0  0  0
    6.6508   -5.6880    3.7109 H   0  0  0  0  0  0  0  0  0  0  0  0
    8.4777   -4.8875    3.1057 H   0  0  0  0  0  0  0  0  0  0  0  0
  1  2  1  0
  1 42  1  0
  1 43  1  0
  1 44  1  0
  2  7  1  0
  2  3  2  0
  3  4  1  0
  3 45  1  0
  4  5  1  0
  5  6  1  0
  5  7  2  0
  6 46  1  0
  6 47  1  0
  6 48  1  0
  7  8  1  0
  8  9  2  3
  8 49  1  0
  9 10  1  0
  9 50  1  0
 10 11  2  0
 10 12  1  0
 12 13  1  0
 13 25  1  0
 13 14  1  0
 13 51  1  6
 14 37  1  0
 14 15  1  0
 14 52  1  1
 15 41  1  0
 15 16  1  0
 15 53  1  1
 17 16  1  6
 16 54  1  0
 16 55  1  0
 17 18  2  0
 17 19  1  0
 19 41  1  0
 19 20  1  0
 19 56  1  1
 20 21  1  0
 20 22  1  0
 20 57  1  1
 21 58  1  0
 22 23  1  0
 22 59  1  0
 22 60  1  0
 23 24  1  0
 23 25  1  0
 23 61  1  1
 24 62  1  0
 25 31  1  0
 25 26  1  6
 26 27  1  0
 27 28  1  6
 27 29  1  0
 27 33  1  0
 28 63  1  0
 28 64  1  0
 28 65  1  0
 29 30  1  0
 29 31  1  0
 29 66  1  6
 30 67  1  0
 31 32  1  0
 31 68  1  1
 32 69  1  0
 41 33  1  6
 33 34  1  1
 33 35  1  0
 34 70  1  0
 34 71  1  0
 34 72  1  0
 35 36  1  0
 35 73  1  0
 35 74  1  0
 36 37  1  0
 36 75  1  0
 36 76  1  0
 37 38  1  1
 37 39  1  0
 38 77  1  0
 39 40  1  0
 39 41  1  0
 39 78  1  1
 40 79  1  0
M  END
>  <i_m_ct_stereo_status>  (60) 
1

>  <s_m_source_file>  (60) 
/var/tmp/pbs.5075288.sched01/tmpsukb34hn/166582q88ej.sdf

>  <i_m_source_file_index>  (60) 
66

>  <i_lp_mmshare_version>  (60) 
48012

>  <i_f3d_flags>  (60) 
0

>  <s_epik_input>  (60) 
W0NIM11jMVtjSF1vYyhbQ0gzXSljMS9bQ0hdPVtDSF0vQyg9TylPW0NAQEhdKFtDQEBdMjM0KVtDQEBIXTVbQ0BASF02W0NAXTcoW0NAQEhdKFtTK10oW08tXSlbQ0gyXTYpW0NAQEhdKFtPSF0pW0NIMl1bQ0BIXTJbT0hdKVtDQF0oW0NIM10pKFtDQEBdKE8zKShbQ0gzXSlbQ0BASF0oW09IXSlbQ0BIXTRbT0hdKVtDSDJdW0NIMl1bQ0BAXTUoW09IXSlbQ0BIXTdbT0hd

>  <s_epik_cmdline>  (60) 
J2VwaWtfcHl0aG9uJywgJy1waHQnLCAnMi4wJywgJy1waCcsICc3LjAnLCAnLXRuJywgJzgnLCAnLW1hJywgJzIwMCcsICctaW1hZScsICc8aW5maWxlLm1hZT4nLCAnLW9tYWUnLCAnPG91dGZpbGUubWFlPic=

>  <r_lp_tautomer_probability>  (60) 
1

>  <r_epik_Ionization_Penalty>  (60) 
1.73257e-06

>  <r_epik_Ionization_Penalty_Charging>  (60) 
0

>  <r_epik_Ionization_Penalty_Neutral>  (60) 
1.73257e-06

>  <r_epik_State_Penalty>  (60) 
-0

>  <r_epik_Charging_Adjusted_Penalty>  (60) 
0

>  <i_epik_Tot_Q>  (60) 
0

>  <i_epik_Tot_abs_Q>  (60) 
2

>  <s_epik_Chemistry_Notes>  (60) 
This compound has an ester and may undergo hydrolysis at high or low pH.

>  <s_lp_Force_Field>  (60) 
OPLS3e

>  <r_lp_Energy>  (60) 
262.533

>  <b_lp_Chiralities_Consistent>  (60) 
1

>  <s_lp_Variant>  (60) 
68:0-2

>  <s_i_glide_gridfile>  (60) 
pfpi4k_grid

>  <i_i_glide_lignum>  (60) 
66

>  <i_i_glide_rotatable_bonds>  (60) 
10

>  <r_i_docking_score>  (60) 
-1.46801

>  <r_i_glide_ligand_efficiency>  (60) 
-0.0358052

>  <r_i_glide_ligand_efficiency_sa>  (60) 
-0.123464

>  <r_i_glide_ligand_efficiency_ln>  (60) 
-0.311444

>  <r_i_glide_gscore>  (60) 
-1.46801

>  <r_i_glide_lipo>  (60) 
-0.49051

>  <r_i_glide_hbond>  (60) 
-0.0482172

>  <r_i_glide_metal>  (60) 
-0

>  <r_i_glide_rewards>  (60) 
-0.00695375

>  <r_i_glide_evdw>  (60) 
-9.48472

>  <r_i_glide_ecoul>  (60) 
-9.31229

>  <r_i_glide_erotb>  (60) 
0.124935

>  <r_i_glide_esite>  (60) 
-0.0542007

>  <r_i_glide_emodel>  (60) 
-8.65736

>  <r_i_glide_energy>  (60) 
-18.797

>  <r_i_glide_einternal>  (60) 
17.1841

>  <r_i_glide_intrahb_reward>  (60) 
-0

>  <i_i_glide_confnum>  (60) 
4

>  <i_i_glide_posenum>  (60) 
7

>  <r_i_glide_eff_state_penalty>  (60) 
0

>  <ligand_id>  (60) 
68

>  <original_smiles>  (60) 
Cc1coc(C)c1C=CC(=O)OC1C2C3C[S+]([O-])C4C(O)CC(O)C15OC(C)(C(O)C5O)C1(C)CCC2(O)C(O)C341

>  <smiles>  (60) 
[H]OC1([H])C([H])([H])C([H])(O[H])C23OC(C([H])([H])[H])(C([H])(O[H])C2([H])O[H])C2(C([H])([H])[H])C([H])([H])C([H])([H])C4(O[H])C([H])(O[H])C25C1([H])S(=O)C([H])([H])C5([H])C4([H])C3([H])OC(=O)C([H])=C([H])c1c(C([H])([H])[H])oc([H])c1C([H])([H])[H]

$$$$
68:2:0
     RDKit          3D

 79 85  0  0  1  0  0  0  0  0999 V2000
    2.1930   -0.7801    2.0790 C   0  0  0  0  0  0  0  0  0  0  0  0
    0.9582   -0.3477    2.8248 C   0  0  0  0  0  0  0  0  0  0  0  0
    0.3384    0.8642    2.7320 C   0  0  0  0  0  0  0  0  0  0  0  0
   -0.7454    0.9274    3.5528 O   0  0  0  0  0  0  0  0  0  0  0  0
   -0.8377   -0.2575    4.2052 C   0  0  0  0  0  0  0  0  0  0  0  0
   -2.0137   -0.3367    5.1381 C   0  0  0  0  0  0  0  0  0  0  0  0
    0.1722   -1.0740    3.7878 C   0  0  0  0  0  0  0  0  0  0  0  0
    0.4847   -2.4580    4.1936 C   0  0  0  0  0  0  0  0  0  0  0  0
    0.0373   -3.0849    5.3078 C   0  0  0  0  0  0  0  0  0  0  0  0
    0.3010   -4.4911    5.6366 C   0  0  0  0  0  0  0  0  0  0  0  0
   -0.1592   -5.0206    6.6492 O   0  0  0  0  0  0  0  0  0  0  0  0
    1.0624   -5.0971    4.7303 O   0  0  0  0  0  0  0  0  0  0  0  0
    1.3825   -6.4629    4.8635 C   0  0  2  0  0  0  0  0  0  0  0  0
    2.6995   -6.4819    5.7642 C   0  0  2  0  0  0  0  0  0  0  0  0
    3.7663   -6.7466    4.8010 C   0  0  1  0  0  0  0  0  0  0  0  0
    5.0902   -5.9432    4.8877 C   0  0  0  0  0  0  0  0  0  0  0  0
    6.2875   -7.0921    4.0749 S   0  0  0  0  0  0  0  0  0  0  0  0
    6.8293   -6.3634    2.8422 O   0  0  0  0  0  0  0  0  0  0  0  0
    4.9483   -8.2837    3.5520 C   0  0  2  0  0  0  0  0  0  0  0  0
    4.4469   -7.8357    2.0827 C   0  0  1  0  0  0  0  0  0  0  0  0
    3.9890   -8.9436    1.3567 O   0  0  0  0  0  0  0  0  0  0  0  0
    3.5448   -6.5543    1.7100 C   0  0  0  0  0  0  0  0  0  0  0  0
    2.0042   -6.2579    2.1239 C   0  0  1  0  0  0  0  0  0  0  0  0
    1.2220   -6.2648    0.9385 O   0  0  0  0  0  0  0  0  0  0  0  0
    1.2982   -7.0366    3.3312 C   0  0  1  0  0  0  0  0  0  0  0  0
    1.9879   -8.2209    3.0508 O   0  0  0  0  0  0  0  0  0  0  0  0
    1.5048   -9.3489    3.6635 C   0  0  2  0  0  0  0  0  0  0  0  0
    1.4406  -10.4185    2.5474 C   0  0  0  0  0  0  0  0  0  0  0  0
   -0.0053   -8.9309    3.8743 C   0  0  1  0  0  0  0  0  0  0  0  0
   -0.5866   -8.8449    5.1589 O   0  0  0  0  0  0  0  0  0  0  0  0
   -0.1053   -7.6167    3.0935 C   0  0  1  0  0  0  0  0  0  0  0  0
   -1.1943   -6.8039    3.4869 O   0  0  0  0  0  0  0  0  0  0  0  0
    2.7052   -9.4689    4.7249 C   0  0  2  0  0  0  0  0  0  0  0  0
    3.4588  -10.8015    4.4079 C   0  0  0  0  0  0  0  0  0  0  0  0
    2.0599   -9.7967    6.1175 C   0  0  0  0  0  0  0  0  0  0  0  0
    1.9366   -8.6100    7.0807 C   0  0  0  0  0  0  0  0  0  0  0  0
    3.0490   -7.5807    6.8374 C   0  0  2  0  0  0  0  0  0  0  0  0
    3.3573   -6.9269    8.0497 O   0  0  0  0  0  0  0  0  0  0  0  0
    4.3465   -8.2693    6.2797 C   0  0  1  0  0  0  0  0  0  0  0  0
    4.7794   -9.4468    6.9232 O   0  0  0  0  0  0  0  0  0  0  0  0
    3.9273   -8.3074    4.7661 C   0  0  2  0  0  0  0  0  0  0  0  0
    2.7640    0.0910    1.7535 H   0  0  0  0  0  0  0  0  0  0  0  0
    1.9339   -1.3416    1.1865 H   0  0  0  0  0  0  0  0  0  0  0  0
    2.8410   -1.4006    2.6959 H   0  0  0  0  0  0  0  0  0  0  0  0
    0.5334    1.7585    2.1412 H   0  0  0  0  0  0  0  0  0  0  0  0
   -2.1821   -1.3196    5.5786 H   0  0  0  0  0  0  0  0  0  0  0  0
   -2.9278   -0.0863    4.6087 H   0  0  0  0  0  0  0  0  0  0  0  0
   -1.8883    0.3897    5.9409 H   0  0  0  0  0  0  0  0  0  0  0  0
    1.1089   -2.9962    3.4911 H   0  0  0  0  0  0  0  0  0  0  0  0
   -0.5860   -2.5599    6.0401 H   0  0  0  0  0  0  0  0  0  0  0  0
    0.6012   -6.9253    5.4634 H   0  0  0  0  0  0  0  0  0  0  0  0
    2.8490   -5.4958    6.2102 H   0  0  0  0  0  0  0  0  0  0  0  0
    3.4524   -6.2441    3.9434 H   0  0  0  0  0  0  0  0  0  0  0  0
    5.0398   -5.0157    4.3186 H   0  0  0  0  0  0  0  0  0  0  0  0
    5.4154   -5.6613    5.8901 H   0  0  0  0  0  0  0  0  0  0  0  0
    5.4505   -9.2472    3.4523 H   0  0  0  0  0  0  0  0  0  0  0  0
    5.3689   -7.6397    1.5351 H   0  0  0  0  0  0  0  0  0  0  0  0
    3.2258   -9.2840    1.8115 H   0  0  0  0  0  0  0  0  0  0  0  0
    4.1158   -5.6789    2.0234 H   0  0  0  0  0  0  0  0  0  0  0  0
    3.5993   -6.4682    0.6239 H   0  0  0  0  0  0  0  0  0  0  0  0
    1.9592   -5.1954    2.3670 H   0  0  0  0  0  0  0  0  0  0  0  0
    1.8122   -6.1551    0.1984 H   0  0  0  0  0  0  0  0  0  0  0  0
    1.0010  -11.3419    2.9244 H   0  0  0  0  0  0  0  0  0  0  0  0
    2.3881  -10.6635    2.0861 H   0  0  0  0  0  0  0  0  0  0  0  0
    0.8111  -10.0801    1.7253 H   0  0  0  0  0  0  0  0  0  0  0  0
   -0.6757   -9.6459    3.3933 H   0  0  0  0  0  0  0  0  0  0  0  0
   -1.1013   -9.6484    5.2733 H   0  0  0  0  0  0  0  0  0  0  0  0
   -0.2410   -7.8810    2.0429 H   0  0  0  0  0  0  0  0  0  0  0  0
   -1.2454   -6.8479    4.4375 H   0  0  0  0  0  0  0  0  0  0  0  0
    4.2460  -11.0227    5.1252 H   0  0  0  0  0  0  0  0  0  0  0  0
    3.9534  -10.8057    3.4365 H   0  0  0  0  0  0  0  0  0  0  0  0
    2.7775  -11.6559    4.4373 H   0  0  0  0  0  0  0  0  0  0  0  0
    1.1071  -10.3045    6.0097 H   0  0  0  0  0  0  0  0  0  0  0  0
    2.6231  -10.5800    6.6338 H   0  0  0  0  0  0  0  0  0  0  0  0
    0.9496   -8.1561    7.0717 H   0  0  0  0  0  0  0  0  0  0  0  0
    2.0253   -9.0175    8.0870 H   0  0  0  0  0  0  0  0  0  0  0  0
    3.5955   -7.6045    8.6691 H   0  0  0  0  0  0  0  0  0  0  0  0
    5.2049   -7.6527    6.5128 H   0  0  0  0  0  0  0  0  0  0  0  0
    4.0759  -10.0840    6.8524 H   0  0  0  0  0  0  0  0  0  0  0  0
  1  2  1  0
  1 42  1  0
  1 43  1  0
  1 44  1  0
  2  7  1  0
  2  3  2  0
  3  4  1  0
  3 45  1  0
  4  5  1  0
  5  6  1  0
  5  7  2  0
  6 46  1  0
  6 47  1  0
  6 48  1  0
  7  8  1  0
  8  9  2  3
  8 49  1  0
  9 10  1  0
  9 50  1  0
 10 11  2  0
 10 12  1  0
 12 13  1  0
 13 25  1  0
 13 14  1  0
 13 51  1  1
 14 37  1  0
 14 15  1  0
 14 52  1  1
 15 41  1  0
 15 16  1  0
 15 53  1  6
 17 16  1  1
 16 54  1  0
 16 55  1  0
 17 18  2  0
 17 19  1  0
 19 41  1  0
 19 20  1  0
 19 56  1  6
 20 21  1  0
 20 22  1  0
 20 57  1  6
 21 58  1  0
 22 23  1  0
 22 59  1  0
 22 60  1  0
 23 24  1  0
 23 25  1  0
 23 61  1  1
 24 62  1  0
 25 31  1  0
 25 26  1  1
 26 27  1  0
 27 28  1  6
 27 29  1  0
 27 33  1  0
 28 63  1  0
 28 64  1  0
 28 65  1  0
 29 30  1  0
 29 31  1  0
 29 66  1  6
 30 67  1  0
 31 32  1  0
 31 68  1  6
 32 69  1  0
 41 33  1  1
 33 34  1  6
 33 35  1  0
 34 70  1  0
 34 71  1  0
 34 72  1  0
 35 36  1  0
 35 73  1  0
 35 74  1  0
 36 37  1  0
 36 75  1  0
 36 76  1  0
 37 38  1  1
 37 39  1  0
 38 77  1  0
 39 40  1  0
 39 41  1  0
 39 78  1  6
 40 79  1  0
M  END
>  <i_m_ct_stereo_status>  (61) 
1

>  <s_m_source_file>  (61) 
/var/tmp/pbs.5075288.sched01/tmpsukb34hn/166582q88ej.sdf

>  <i_m_source_file_index>  (61) 
67

>  <i_lp_mmshare_version>  (61) 
48012

>  <i_f3d_flags>  (61) 
0

>  <s_epik_input>  (61) 
W0NIM11jMVtjSF1vYyhbQ0gzXSljMS9bQ0hdPVtDSF0vQyg9TylPW0NAQEhdKFtDQEBdMjM0KVtDQEBIXTVbQ0BASF02W0NAXTcoW0NAQEhdKFtTK10oW08tXSlbQ0gyXTYpW0NAQEhdKFtPSF0pW0NIMl1bQ0BIXTJbT0hdKVtDQF0oW0NIM10pKFtDQEBdKE8zKShbQ0gzXSlbQ0BASF0oW09IXSlbQ0BIXTRbT0hdKVtDSDJdW0NIMl1bQ0BAXTUoW09IXSlbQ0BIXTdbT0hd

>  <s_epik_cmdline>  (61) 
J2VwaWtfcHl0aG9uJywgJy1waHQnLCAnMi4wJywgJy1waCcsICc3LjAnLCAnLXRuJywgJzgnLCAnLW1hJywgJzIwMCcsICctaW1hZScsICc8aW5maWxlLm1hZT4nLCAnLW9tYWUnLCAnPG91dGZpbGUubWFlPic=

>  <r_lp_tautomer_probability>  (61) 
1

>  <r_epik_Ionization_Penalty>  (61) 
1.73257e-06

>  <r_epik_Ionization_Penalty_Charging>  (61) 
0

>  <r_epik_Ionization_Penalty_Neutral>  (61) 
1.73257e-06

>  <r_epik_State_Penalty>  (61) 
-0

>  <r_epik_Charging_Adjusted_Penalty>  (61) 
0

>  <i_epik_Tot_Q>  (61) 
0

>  <i_epik_Tot_abs_Q>  (61) 
2

>  <s_epik_Chemistry_Notes>  (61) 
This compound has an ester and may undergo hydrolysis at high or low pH.

>  <s_lp_Force_Field>  (61) 
OPLS3e

>  <r_lp_Energy>  (61) 
191.97

>  <b_lp_Chiralities_Consistent>  (61) 
1

>  <s_lp_Variant>  (61) 
68:0-3

>  <s_i_glide_gridfile>  (61) 
pfpi4k_grid

>  <i_i_glide_lignum>  (61) 
67

>  <i_i_glide_rotatable_bonds>  (61) 
10

>  <r_i_docking_score>  (61) 
-3.53314

>  <r_i_glide_ligand_efficiency>  (61) 
-0.0861741

>  <r_i_glide_ligand_efficiency_sa>  (61) 
-0.297147

>  <r_i_glide_ligand_efficiency_ln>  (61) 
-0.749567

>  <r_i_glide_gscore>  (61) 
-3.53314

>  <r_i_glide_lipo>  (61) 
-0.248051

>  <r_i_glide_hbond>  (61) 
0

>  <r_i_glide_metal>  (61) 
-0

>  <r_i_glide_rewards>  (61) 
-0.500074

>  <r_i_glide_evdw>  (61) 
-27.013

>  <r_i_glide_ecoul>  (61) 
-10.364

>  <r_i_glide_erotb>  (61) 
0.124935

>  <r_i_glide_esite>  (61) 
-0.00470238

>  <r_i_glide_emodel>  (61) 
-50.9541

>  <r_i_glide_energy>  (61) 
-37.377

>  <r_i_glide_einternal>  (61) 
2.80057

>  <r_i_glide_intrahb_reward>  (61) 
-0.5

>  <i_i_glide_confnum>  (61) 
2

>  <i_i_glide_posenum>  (61) 
11

>  <r_i_glide_eff_state_penalty>  (61) 
0

>  <ligand_id>  (61) 
68

>  <original_smiles>  (61) 
Cc1coc(C)c1C=CC(=O)OC1C2C3C[S+]([O-])C4C(O)CC(O)C15OC(C)(C(O)C5O)C1(C)CCC2(O)C(O)C341

>  <smiles>  (61) 
[H]OC1([H])C([H])([H])C([H])(O[H])C23OC(C([H])([H])[H])(C([H])(O[H])C2([H])O[H])C2(C([H])([H])[H])C([H])([H])C([H])([H])C4(O[H])C([H])(O[H])C25C1([H])S(=O)C([H])([H])C5([H])C4([H])C3([H])OC(=O)C([H])=C([H])c1c(C([H])([H])[H])oc([H])c1C([H])([H])[H]

$$$$
68:2:1
     RDKit          3D

 79 85  0  0  1  0  0  0  0  0999 V2000
   -1.3383    0.0202    4.4101 C   0  0  0  0  0  0  0  0  0  0  0  0
   -0.1437   -0.0018    3.4955 C   0  0  0  0  0  0  0  0  0  0  0  0
    0.2892    1.0305    2.7044 C   0  0  0  0  0  0  0  0  0  0  0  0
    1.3937    0.6810    1.9839 O   0  0  0  0  0  0  0  0  0  0  0  0
    1.6886   -0.6047    2.2904 C   0  0  0  0  0  0  0  0  0  0  0  0
    2.8525   -1.1918    1.5764 C   0  0  0  0  0  0  0  0  0  0  0  0
    0.7810   -1.0579    3.2163 C   0  0  0  0  0  0  0  0  0  0  0  0
    0.8203   -2.4138    3.7883 C   0  0  0  0  0  0  0  0  0  0  0  0
    0.1685   -2.8550    4.8791 C   0  0  0  0  0  0  0  0  0  0  0  0
    0.2247   -4.2501    5.3463 C   0  0  0  0  0  0  0  0  0  0  0  0
   -0.3390   -4.6264    6.3724 O   0  0  0  0  0  0  0  0  0  0  0  0
    0.9835   -5.0350    4.5434 O   0  0  0  0  0  0  0  0  0  0  0  0
    1.1771   -6.4212    4.7842 C   0  0  2  0  0  0  0  0  0  0  0  0
    2.1463   -6.5150    6.0568 C   0  0  2  0  0  0  0  0  0  0  0  0
    3.4450   -6.8700    5.4835 C   0  0  1  0  0  0  0  0  0  0  0  0
    4.7227   -6.1403    5.9813 C   0  0  0  0  0  0  0  0  0  0  0  0
    6.0435   -7.3783    5.6129 S   0  0  0  0  0  0  0  0  0  0  0  0
    7.0002   -6.7188    4.6217 O   0  0  0  0  0  0  0  0  0  0  0  0
    4.8679   -8.4992    4.6889 C   0  0  2  0  0  0  0  0  0  0  0  0
    4.8853   -8.0607    3.1342 C   0  0  1  0  0  0  0  0  0  0  0  0
    4.6063   -9.1650    2.3164 O   0  0  0  0  0  0  0  0  0  0  0  0
    4.2314   -6.7384    2.4849 C   0  0  0  0  0  0  0  0  0  0  0  0
    2.6572   -6.3445    2.3817 C   0  0  1  0  0  0  0  0  0  0  0  0
    2.2842   -6.3767    1.0159 O   0  0  0  0  0  0  0  0  0  0  0  0
    1.5518   -7.0377    3.3064 C   0  0  1  0  0  0  0  0  0  0  0  0
    2.2251   -8.2636    3.2661 O   0  0  0  0  0  0  0  0  0  0  0  0
    1.5046   -9.3557    3.6901 C   0  0  2  0  0  0  0  0  0  0  0  0
    1.7346  -10.4613    2.6194 C   0  0  0  0  0  0  0  0  0  0  0  0
    0.0271   -8.8509    3.4166 C   0  0  1  0  0  0  0  0  0  0  0  0
   -0.9214   -8.6720    4.4616 O   0  0  0  0  0  0  0  0  0  0  0  0
    0.2673   -7.5532    2.6371 C   0  0  1  0  0  0  0  0  0  0  0  0
   -0.8450   -6.6765    2.5980 O   0  0  0  0  0  0  0  0  0  0  0  0
    2.2914   -9.5161    5.0782 C   0  0  2  0  0  0  0  0  0  0  0  0
    3.0204  -10.9044    5.0348 C   0  0  0  0  0  0  0  0  0  0  0  0
    1.2125   -9.7499    6.1808 C   0  0  0  0  0  0  0  0  0  0  0  0
    0.8567   -8.5517    7.0572 C   0  0  0  0  0  0  0  0  0  0  0  0
    2.0559   -7.6096    7.1858 C   0  0  2  0  0  0  0  0  0  0  0  0
    1.9959   -6.9501    8.4342 O   0  0  0  0  0  0  0  0  0  0  0  0
    3.4203   -8.3827    7.0779 C   0  0  1  0  0  0  0  0  0  0  0  0
    3.5493   -9.5656    7.8369 O   0  0  0  0  0  0  0  0  0  0  0  0
    3.5120   -8.4360    5.5092 C   0  0  2  0  0  0  0  0  0  0  0  0
   -2.0360    0.7966    4.1083 H   0  0  0  0  0  0  0  0  0  0  0  0
   -1.0263    0.2185    5.4330 H   0  0  0  0  0  0  0  0  0  0  0  0
   -1.8655   -0.9306    4.3713 H   0  0  0  0  0  0  0  0  0  0  0  0
   -0.0542    2.0362    2.5300 H   0  0  0  0  0  0  0  0  0  0  0  0
    3.0548   -2.2129    1.8882 H   0  0  0  0  0  0  0  0  0  0  0  0
    3.7482   -0.6018    1.7500 H   0  0  0  0  0  0  0  0  0  0  0  0
    2.6651   -1.2052    0.5063 H   0  0  0  0  0  0  0  0  0  0  0  0
    1.4397   -3.1064    3.2310 H   0  0  0  0  0  0  0  0  0  0  0  0
   -0.4374   -2.1899    5.4781 H   0  0  0  0  0  0  0  0  0  0  0  0
    0.2088   -6.7820    5.1041 H   0  0  0  0  0  0  0  0  0  0  0  0
    2.2552   -5.5394    6.5344 H   0  0  0  0  0  0  0  0  0  0  0  0
    3.4486   -6.3718    4.5669 H   0  0  0  0  0  0  0  0  0  0  0  0
    4.9139   -5.2229    5.4220 H   0  0  0  0  0  0  0  0  0  0  0  0
    4.7226   -5.8535    7.0340 H   0  0  0  0  0  0  0  0  0  0  0  0
    5.3118   -9.4912    4.7665 H   0  0  0  0  0  0  0  0  0  0  0  0
    5.9443   -7.9364    2.9098 H   0  0  0  0  0  0  0  0  0  0  0  0
    3.6974   -9.4000    2.4559 H   0  0  0  0  0  0  0  0  0  0  0  0
    4.7299   -5.8910    2.9573 H   0  0  0  0  0  0  0  0  0  0  0  0
    4.6334   -6.6855    1.4720 H   0  0  0  0  0  0  0  0  0  0  0  0
    2.6024   -5.2750    2.5829 H   0  0  0  0  0  0  0  0  0  0  0  0
    2.9858   -6.0140    0.4924 H   0  0  0  0  0  0  0  0  0  0  0  0
    1.1383  -11.3465    2.8451 H   0  0  0  0  0  0  0  0  0  0  0  0
    2.7562  -10.7941    2.4689 H   0  0  0  0  0  0  0  0  0  0  0  0
    1.4146  -10.1011    1.6436 H   0  0  0  0  0  0  0  0  0  0  0  0
   -0.4956   -9.5468    2.7590 H   0  0  0  0  0  0  0  0  0  0  0  0
   -1.2451   -9.5315    4.7341 H   0  0  0  0  0  0  0  0  0  0  0  0
    0.4568   -7.8563    1.6084 H   0  0  0  0  0  0  0  0  0  0  0  0
   -1.5803   -7.2224    2.3653 H   0  0  0  0  0  0  0  0  0  0  0  0
    3.5192  -11.1577    5.9699 H   0  0  0  0  0  0  0  0  0  0  0  0
    3.8002  -10.9721    4.2775 H   0  0  0  0  0  0  0  0  0  0  0  0
    2.3190  -11.7240    4.8565 H   0  0  0  0  0  0  0  0  0  0  0  0
    0.3282  -10.2520    5.8027 H   0  0  0  0  0  0  0  0  0  0  0  0
    1.5817  -10.5002    6.8585 H   0  0  0  0  0  0  0  0  0  0  0  0
   -0.0414   -8.0299    6.7487 H   0  0  0  0  0  0  0  0  0  0  0  0
    0.6075   -8.9521    8.0394 H   0  0  0  0  0  0  0  0  0  0  0  0
    2.0297   -7.6210    9.1038 H   0  0  0  0  0  0  0  0  0  0  0  0
    4.1965   -7.8152    7.5743 H   0  0  0  0  0  0  0  0  0  0  0  0
    2.8889  -10.1875    7.5500 H   0  0  0  0  0  0  0  0  0  0  0  0
  1  2  1  0
  1 42  1  0
  1 43  1  0
  1 44  1  0
  2  7  1  0
  2  3  2  0
  3  4  1  0
  3 45  1  0
  4  5  1  0
  5  6  1  0
  5  7  2  0
  6 46  1  0
  6 47  1  0
  6 48  1  0
  7  8  1  0
  8  9  2  3
  8 49  1  0
  9 10  1  0
  9 50  1  0
 10 11  2  0
 10 12  1  0
 12 13  1  0
 13 25  1  0
 13 14  1  0
 13 51  1  1
 14 37  1  0
 14 15  1  0
 14 52  1  1
 15 41  1  0
 15 16  1  0
 15 53  1  6
 17 16  1  6
 16 54  1  0
 16 55  1  0
 17 18  2  0
 17 19  1  0
 19 41  1  0
 19 20  1  0
 19 56  1  6
 20 21  1  0
 20 22  1  0
 20 57  1  6
 21 58  1  0
 22 23  1  0
 22 59  1  0
 22 60  1  0
 23 24  1  0
 23 25  1  0
 23 61  1  1
 24 62  1  0
 25 31  1  0
 25 26  1  1
 26 27  1  0
 27 28  1  6
 27 29  1  0
 27 33  1  0
 28 63  1  0
 28 64  1  0
 28 65  1  0
 29 30  1  0
 29 31  1  0
 29 66  1  6
 30 67  1  0
 31 32  1  0
 31 68  1  6
 32 69  1  0
 41 33  1  6
 33 34  1  6
 33 35  1  0
 34 70  1  0
 34 71  1  0
 34 72  1  0
 35 36  1  0
 35 73  1  0
 35 74  1  0
 36 37  1  0
 36 75  1  0
 36 76  1  0
 37 38  1  1
 37 39  1  0
 38 77  1  0
 39 40  1  0
 39 41  1  0
 39 78  1  1
 40 79  1  0
M  END
>  <i_m_ct_stereo_status>  (62) 
1

>  <s_m_source_file>  (62) 
/var/tmp/pbs.5075288.sched01/tmpsukb34hn/166582q88ej.sdf

>  <i_m_source_file_index>  (62) 
67

>  <i_lp_mmshare_version>  (62) 
48012

>  <i_f3d_flags>  (62) 
0

>  <s_epik_input>  (62) 
W0NIM11jMVtjSF1vYyhbQ0gzXSljMS9bQ0hdPVtDSF0vQyg9TylPW0NAQEhdKFtDQEBdMjM0KVtDQEBIXTVbQ0BASF02W0NAXTcoW0NAQEhdKFtTK10oW08tXSlbQ0gyXTYpW0NAQEhdKFtPSF0pW0NIMl1bQ0BIXTJbT0hdKVtDQF0oW0NIM10pKFtDQEBdKE8zKShbQ0gzXSlbQ0BASF0oW09IXSlbQ0BIXTRbT0hdKVtDSDJdW0NIMl1bQ0BAXTUoW09IXSlbQ0BIXTdbT0hd

>  <s_epik_cmdline>  (62) 
J2VwaWtfcHl0aG9uJywgJy1waHQnLCAnMi4wJywgJy1waCcsICc3LjAnLCAnLXRuJywgJzgnLCAnLW1hJywgJzIwMCcsICctaW1hZScsICc8aW5maWxlLm1hZT4nLCAnLW9tYWUnLCAnPG91dGZpbGUubWFlPic=

>  <r_lp_tautomer_probability>  (62) 
1

>  <r_epik_Ionization_Penalty>  (62) 
1.73257e-06

>  <r_epik_Ionization_Penalty_Charging>  (62) 
0

>  <r_epik_Ionization_Penalty_Neutral>  (62) 
1.73257e-06

>  <r_epik_State_Penalty>  (62) 
-0

>  <r_epik_Charging_Adjusted_Penalty>  (62) 
0

>  <i_epik_Tot_Q>  (62) 
0

>  <i_epik_Tot_abs_Q>  (62) 
2

>  <s_epik_Chemistry_Notes>  (62) 
This compound has an ester and may undergo hydrolysis at high or low pH.

>  <s_lp_Force_Field>  (62) 
OPLS3e

>  <r_lp_Energy>  (62) 
191.97

>  <b_lp_Chiralities_Consistent>  (62) 
1

>  <s_lp_Variant>  (62) 
68:0-3

>  <s_i_glide_gridfile>  (62) 
pfpi4k_grid

>  <i_i_glide_lignum>  (62) 
67

>  <i_i_glide_rotatable_bonds>  (62) 
10

>  <r_i_docking_score>  (62) 
-3.4807

>  <r_i_glide_ligand_efficiency>  (62) 
-0.0848952

>  <r_i_glide_ligand_efficiency_sa>  (62) 
-0.292737

>  <r_i_glide_ligand_efficiency_ln>  (62) 
-0.738443

>  <r_i_glide_gscore>  (62) 
-3.4807

>  <r_i_glide_lipo>  (62) 
-0.165874

>  <r_i_glide_hbond>  (62) 
0

>  <r_i_glide_metal>  (62) 
-0

>  <r_i_glide_rewards>  (62) 
-0.5

>  <r_i_glide_evdw>  (62) 
-24.3217

>  <r_i_glide_ecoul>  (62) 
-11.4558

>  <r_i_glide_erotb>  (62) 
0.124935

>  <r_i_glide_esite>  (62) 
-0.00531631

>  <r_i_glide_emodel>  (62) 
-49.6045

>  <r_i_glide_energy>  (62) 
-35.7774

>  <r_i_glide_einternal>  (62) 
2.56034

>  <r_i_glide_intrahb_reward>  (62) 
-0.5

>  <i_i_glide_confnum>  (62) 
5

>  <i_i_glide_posenum>  (62) 
26

>  <r_i_glide_eff_state_penalty>  (62) 
0

>  <ligand_id>  (62) 
68

>  <original_smiles>  (62) 
Cc1coc(C)c1C=CC(=O)OC1C2C3C[S+]([O-])C4C(O)CC(O)C15OC(C)(C(O)C5O)C1(C)CCC2(O)C(O)C341

>  <smiles>  (62) 
[H]OC1([H])C([H])([H])C([H])(O[H])C23OC(C([H])([H])[H])(C([H])(O[H])C2([H])O[H])C2(C([H])([H])[H])C([H])([H])C([H])([H])C4(O[H])C([H])(O[H])C25C1([H])S(=O)C([H])([H])C5([H])C4([H])C3([H])OC(=O)C([H])=C([H])c1c(C([H])([H])[H])oc([H])c1C([H])([H])[H]

$$$$
68:2:2
     RDKit          3D

 79 85  0  0  1  0  0  0  0  0999 V2000
   -1.7925   -0.4215    5.0026 C   0  0  0  0  0  0  0  0  0  0  0  0
   -0.6292   -0.2559    4.0656 C   0  0  0  0  0  0  0  0  0  0  0  0
   -0.3238    0.8655    3.3384 C   0  0  0  0  0  0  0  0  0  0  0  0
    0.7766    0.6819    2.5644 O   0  0  0  0  0  0  0  0  0  0  0  0
    1.2005   -0.5904    2.7682 C   0  0  0  0  0  0  0  0  0  0  0  0
    2.4062   -1.0047    1.9887 C   0  0  0  0  0  0  0  0  0  0  0  0
    0.3720   -1.1969    3.6805 C   0  0  0  0  0  0  0  0  0  0  0  0
    0.5605   -2.5805    4.1506 C   0  0  0  0  0  0  0  0  0  0  0  0
    0.0183   -3.1462    5.2506 C   0  0  0  0  0  0  0  0  0  0  0  0
    0.2336   -4.5594    5.6029 C   0  0  0  0  0  0  0  0  0  0  0  0
   -0.1508   -5.0373    6.6693 O   0  0  0  0  0  0  0  0  0  0  0  0
    0.9020   -5.2306    4.6438 O   0  0  0  0  0  0  0  0  0  0  0  0
    1.2626   -6.5986    4.7970 C   0  0  2  0  0  0  0  0  0  0  0  0
    2.6338   -6.5709    5.6137 C   0  0  2  0  0  0  0  0  0  0  0  0
    3.6545   -6.8545    4.6008 C   0  0  1  0  0  0  0  0  0  0  0  0
    4.9655   -6.0213    4.5783 C   0  0  0  0  0  0  0  0  0  0  0  0
    6.1473   -7.1769    3.7482 S   0  0  0  0  0  0  0  0  0  0  0  0
    6.6208   -6.4965    2.4639 O   0  0  0  0  0  0  0  0  0  0  0  0
    4.8038   -8.4130    3.3443 C   0  0  2  0  0  0  0  0  0  0  0  0
    4.2108   -8.0380    1.8854 C   0  0  1  0  0  0  0  0  0  0  0  0
    3.7307   -9.1769    1.2056 O   0  0  0  0  0  0  0  0  0  0  0  0
    3.2617   -6.7842    1.5237 C   0  0  0  0  0  0  0  0  0  0  0  0
    1.7336   -6.5058    2.0153 C   0  0  1  0  0  0  0  0  0  0  0  0
    0.8802   -6.6500    0.8881 O   0  0  0  0  0  0  0  0  0  0  0  0
    1.1098   -7.2338    3.2946 C   0  0  1  0  0  0  0  0  0  0  0  0
    1.8133   -8.4099    3.0163 O   0  0  0  0  0  0  0  0  0  0  0  0
    1.4022   -9.5384    3.6846 C   0  0  2  0  0  0  0  0  0  0  0  0
    1.2946  -10.6521    2.6120 C   0  0  0  0  0  0  0  0  0  0  0  0
   -0.0983   -9.1492    3.9821 C   0  0  1  0  0  0  0  0  0  0  0  0
   -0.5810   -9.0490    5.3004 O   0  0  0  0  0  0  0  0  0  0  0  0
   -0.2842   -7.8672    3.1655 C   0  0  1  0  0  0  0  0  0  0  0  0
   -1.3813   -7.0573    3.5484 O   0  0  0  0  0  0  0  0  0  0  0  0
    2.6602   -9.5999    4.6790 C   0  0  2  0  0  0  0  0  0  0  0  0
    3.4255  -10.9313    4.3761 C   0  0  0  0  0  0  0  0  0  0  0  0
    2.0958   -9.8842    6.1142 C   0  0  0  0  0  0  0  0  0  0  0  0
    1.9967   -8.6694    7.0460 C   0  0  0  0  0  0  0  0  0  0  0  0
    3.0670   -7.6251    6.7018 C   0  0  2  0  0  0  0  0  0  0  0  0
    3.4243   -6.9278    7.8806 O   0  0  0  0  0  0  0  0  0  0  0  0
    4.3508   -8.3049    6.0999 C   0  0  1  0  0  0  0  0  0  0  0  0
    4.8449   -9.4571    6.7592 O   0  0  0  0  0  0  0  0  0  0  0  0
    3.8541   -8.4105    4.6126 C   0  0  2  0  0  0  0  0  0  0  0  0
   -2.5766    0.2939    4.7691 H   0  0  0  0  0  0  0  0  0  0  0  0
   -1.4754   -0.2589    6.0293 H   0  0  0  0  0  0  0  0  0  0  0  0
   -2.2214   -1.4160    4.9111 H   0  0  0  0  0  0  0  0  0  0  0  0
   -0.7694    1.8470    3.2551 H   0  0  0  0  0  0  0  0  0  0  0  0
    2.7097   -2.0231    2.2211 H   0  0  0  0  0  0  0  0  0  0  0  0
    3.2450   -0.3479    2.1928 H   0  0  0  0  0  0  0  0  0  0  0  0
    2.2153   -0.9567    0.9215 H   0  0  0  0  0  0  0  0  0  0  0  0
    1.1977   -3.1726    3.5120 H   0  0  0  0  0  0  0  0  0  0  0  0
   -0.5985   -2.5744    5.9230 H   0  0  0  0  0  0  0  0  0  0  0  0
    0.5188   -7.0405    5.4465 H   0  0  0  0  0  0  0  0  0  0  0  0
    2.8005   -5.5671    6.0106 H   0  0  0  0  0  0  0  0  0  0  0  0
    3.2814   -6.3950    3.7433 H   0  0  0  0  0  0  0  0  0  0  0  0
    4.8671   -5.1168    3.9787 H   0  0  0  0  0  0  0  0  0  0  0  0
    5.3407   -5.7002    5.5501 H   0  0  0  0  0  0  0  0  0  0  0  0
    5.3304   -9.3650    3.2651 H   0  0  0  0  0  0  0  0  0  0  0  0
    5.1018   -7.8410    1.2921 H   0  0  0  0  0  0  0  0  0  0  0  0
    4.3143   -9.9120    1.3311 H   0  0  0  0  0  0  0  0  0  0  0  0
    3.8309   -5.8875    1.7729 H   0  0  0  0  0  0  0  0  0  0  0  0
    3.2533   -6.7185    0.4358 H   0  0  0  0  0  0  0  0  0  0  0  0
    1.6695   -5.4340    2.2031 H   0  0  0  0  0  0  0  0  0  0  0  0
    0.8803   -7.5680    0.6520 H   0  0  0  0  0  0  0  0  0  0  0  0
    0.9081  -11.5796    3.0390 H   0  0  0  0  0  0  0  0  0  0  0  0
    2.2279  -10.8771    2.1091 H   0  0  0  0  0  0  0  0  0  0  0  0
    0.6103  -10.3633    1.8158 H   0  0  0  0  0  0  0  0  0  0  0  0
   -0.7776   -9.8928    3.5603 H   0  0  0  0  0  0  0  0  0  0  0  0
   -1.1991   -9.7961    5.4034 H   0  0  0  0  0  0  0  0  0  0  0  0
   -0.4824   -8.2005    2.1436 H   0  0  0  0  0  0  0  0  0  0  0  0
   -2.1261   -7.6309    3.6323 H   0  0  0  0  0  0  0  0  0  0  0  0
    4.2541  -11.1115    5.0571 H   0  0  0  0  0  0  0  0  0  0  0  0
    3.8674  -10.9675    3.3808 H   0  0  0  0  0  0  0  0  0  0  0  0
    2.7684  -11.7999    4.4746 H   0  0  0  0  0  0  0  0  0  0  0  0
    1.1702  -10.4416    6.0811 H   0  0  0  0  0  0  0  0  0  0  0  0
    2.7126  -10.6248    6.6327 H   0  0  0  0  0  0  0  0  0  0  0  0
    1.0050   -8.2278    7.0796 H   0  0  0  0  0  0  0  0  0  0  0  0
    2.1530   -9.0393    8.0558 H   0  0  0  0  0  0  0  0  0  0  0  0
    3.7087   -7.5729    8.5077 H   0  0  0  0  0  0  0  0  0  0  0  0
    5.2089   -7.6655    6.2658 H   0  0  0  0  0  0  0  0  0  0  0  0
    4.1649  -10.1086    6.7472 H   0  0  0  0  0  0  0  0  0  0  0  0
  1  2  1  0
  1 42  1  0
  1 43  1  0
  1 44  1  0
  2  7  1  0
  2  3  2  0
  3  4  1  0
  3 45  1  0
  4  5  1  0
  5  6  1  0
  5  7  2  0
  6 46  1  0
  6 47  1  0
  6 48  1  0
  7  8  1  0
  8  9  2  3
  8 49  1  0
  9 10  1  0
  9 50  1  0
 10 11  2  0
 10 12  1  0
 12 13  1  0
 13 25  1  0
 13 14  1  0
 13 51  1  1
 14 37  1  0
 14 15  1  0
 14 52  1  1
 15 41  1  0
 15 16  1  0
 15 53  1  6
 17 16  1  1
 16 54  1  0
 16 55  1  0
 17 18  2  0
 17 19  1  0
 19 41  1  0
 19 20  1  0
 19 56  1  6
 20 21  1  0
 20 22  1  0
 20 57  1  6
 21 58  1  0
 22 23  1  0
 22 59  1  0
 22 60  1  0
 23 24  1  0
 23 25  1  0
 23 61  1  1
 24 62  1  0
 25 31  1  0
 25 26  1  1
 26 27  1  0
 27 28  1  6
 27 29  1  0
 27 33  1  0
 28 63  1  0
 28 64  1  0
 28 65  1  0
 29 30  1  0
 29 31  1  0
 29 66  1  6
 30 67  1  0
 31 32  1  0
 31 68  1  6
 32 69  1  0
 41 33  1  1
 33 34  1  6
 33 35  1  0
 34 70  1  0
 34 71  1  0
 34 72  1  0
 35 36  1  0
 35 73  1  0
 35 74  1  0
 36 37  1  0
 36 75  1  0
 36 76  1  0
 37 38  1  1
 37 39  1  0
 38 77  1  0
 39 40  1  0
 39 41  1  0
 39 78  1  6
 40 79  1  0
M  END
>  <i_m_ct_stereo_status>  (63) 
1

>  <s_m_source_file>  (63) 
/var/tmp/pbs.5075288.sched01/tmpsukb34hn/166582q88ej.sdf

>  <i_m_source_file_index>  (63) 
67

>  <i_lp_mmshare_version>  (63) 
48012

>  <i_f3d_flags>  (63) 
0

>  <s_epik_input>  (63) 
W0NIM11jMVtjSF1vYyhbQ0gzXSljMS9bQ0hdPVtDSF0vQyg9TylPW0NAQEhdKFtDQEBdMjM0KVtDQEBIXTVbQ0BASF02W0NAXTcoW0NAQEhdKFtTK10oW08tXSlbQ0gyXTYpW0NAQEhdKFtPSF0pW0NIMl1bQ0BIXTJbT0hdKVtDQF0oW0NIM10pKFtDQEBdKE8zKShbQ0gzXSlbQ0BASF0oW09IXSlbQ0BIXTRbT0hdKVtDSDJdW0NIMl1bQ0BAXTUoW09IXSlbQ0BIXTdbT0hd

>  <s_epik_cmdline>  (63) 
J2VwaWtfcHl0aG9uJywgJy1waHQnLCAnMi4wJywgJy1waCcsICc3LjAnLCAnLXRuJywgJzgnLCAnLW1hJywgJzIwMCcsICctaW1hZScsICc8aW5maWxlLm1hZT4nLCAnLW9tYWUnLCAnPG91dGZpbGUubWFlPic=

>  <r_lp_tautomer_probability>  (63) 
1

>  <r_epik_Ionization_Penalty>  (63) 
1.73257e-06

>  <r_epik_Ionization_Penalty_Charging>  (63) 
0

>  <r_epik_Ionization_Penalty_Neutral>  (63) 
1.73257e-06

>  <r_epik_State_Penalty>  (63) 
-0

>  <r_epik_Charging_Adjusted_Penalty>  (63) 
0

>  <i_epik_Tot_Q>  (63) 
0

>  <i_epik_Tot_abs_Q>  (63) 
2

>  <s_epik_Chemistry_Notes>  (63) 
This compound has an ester and may undergo hydrolysis at high or low pH.

>  <s_lp_Force_Field>  (63) 
OPLS3e

>  <r_lp_Energy>  (63) 
191.97

>  <b_lp_Chiralities_Consistent>  (63) 
1

>  <s_lp_Variant>  (63) 
68:0-3

>  <s_i_glide_gridfile>  (63) 
pfpi4k_grid

>  <i_i_glide_lignum>  (63) 
67

>  <i_i_glide_rotatable_bonds>  (63) 
10

>  <r_i_docking_score>  (63) 
-3.27315

>  <r_i_glide_ligand_efficiency>  (63) 
-0.079833

>  <r_i_glide_ligand_efficiency_sa>  (63) 
-0.275281

>  <r_i_glide_ligand_efficiency_ln>  (63) 
-0.69441

>  <r_i_glide_gscore>  (63) 
-3.27315

>  <r_i_glide_lipo>  (63) 
-0.233025

>  <r_i_glide_hbond>  (63) 
0

>  <r_i_glide_metal>  (63) 
-0

>  <r_i_glide_rewards>  (63) 
-1.97713e-05

>  <r_i_glide_evdw>  (63) 
-29.3505

>  <r_i_glide_ecoul>  (63) 
-11.2824

>  <r_i_glide_erotb>  (63) 
0.124935

>  <r_i_glide_esite>  (63) 
-0.00516093

>  <r_i_glide_emodel>  (63) 
-48.7262

>  <r_i_glide_energy>  (63) 
-40.6329

>  <r_i_glide_einternal>  (63) 
3.09884

>  <r_i_glide_intrahb_reward>  (63) 
-0

>  <i_i_glide_confnum>  (63) 
1

>  <i_i_glide_posenum>  (63) 
8

>  <r_i_glide_eff_state_penalty>  (63) 
0

>  <ligand_id>  (63) 
68

>  <original_smiles>  (63) 
Cc1coc(C)c1C=CC(=O)OC1C2C3C[S+]([O-])C4C(O)CC(O)C15OC(C)(C(O)C5O)C1(C)CCC2(O)C(O)C341

>  <smiles>  (63) 
[H]OC1([H])C([H])([H])C([H])(O[H])C23OC(C([H])([H])[H])(C([H])(O[H])C2([H])O[H])C2(C([H])([H])[H])C([H])([H])C([H])([H])C4(O[H])C([H])(O[H])C25C1([H])S(=O)C([H])([H])C5([H])C4([H])C3([H])OC(=O)C([H])=C([H])c1c(C([H])([H])[H])oc([H])c1C([H])([H])[H]

$$$$
68:3:0
     RDKit          3D

 79 85  0  0  1  0  0  0  0  0999 V2000
    4.7796   -1.7125    3.9595 C   0  0  0  0  0  0  0  0  0  0  0  0
    4.4389   -1.2525    2.5648 C   0  0  0  0  0  0  0  0  0  0  0  0
    3.7503   -0.1078    2.2334 C   0  0  0  0  0  0  0  0  0  0  0  0
    3.6487    0.0365    0.8840 O   0  0  0  0  0  0  0  0  0  0  0  0
    4.2590   -1.0264    0.3156 C   0  0  0  0  0  0  0  0  0  0  0  0
    4.2363   -1.0535   -1.1825 C   0  0  0  0  0  0  0  0  0  0  0  0
    4.7568   -1.8460    1.3125 C   0  0  0  0  0  0  0  0  0  0  0  0
    5.5231   -3.0786    1.0868 C   0  0  0  0  0  0  0  0  0  0  0  0
    5.3493   -4.3159    1.6044 C   0  0  0  0  0  0  0  0  0  0  0  0
    4.2419   -4.7468    2.4773 C   0  0  0  0  0  0  0  0  0  0  0  0
    3.3028   -4.0226    2.8261 O   0  0  0  0  0  0  0  0  0  0  0  0
    4.3636   -6.0443    2.8372 O   0  0  0  0  0  0  0  0  0  0  0  0
    3.3305   -6.7211    3.5594 C   0  0  2  0  0  0  0  0  0  0  0  0
    3.8340   -6.8249    5.0678 C   0  0  2  0  0  0  0  0  0  0  0  0
    4.1790   -8.2367    5.2164 C   0  0  1  0  0  0  0  0  0  0  0  0
    5.4990   -8.6343    5.9254 C   0  0  0  0  0  0  0  0  0  0  0  0
    5.1299  -10.3478    6.5205 S   0  0  0  0  0  0  0  0  0  0  0  0
    6.1391  -11.2858    5.8603 O   0  0  0  0  0  0  0  0  0  0  0  0
    3.4996  -10.4047    5.6061 C   0  0  2  0  0  0  0  0  0  0  0  0
    3.7759  -11.0204    4.1356 C   0  0  1  0  0  0  0  0  0  0  0  0
    2.6420  -11.7092    3.6644 O   0  0  0  0  0  0  0  0  0  0  0  0
    4.5167  -10.2862    2.9093 C   0  0  0  0  0  0  0  0  0  0  0  0
    4.0006   -9.0031    2.0646 C   0  0  1  0  0  0  0  0  0  0  0  0
    3.6670   -9.4577    0.7666 O   0  0  0  0  0  0  0  0  0  0  0  0
    2.8981   -7.9963    2.6327 C   0  0  1  0  0  0  0  0  0  0  0  0
    2.2096   -9.0338    3.2676 O   0  0  0  0  0  0  0  0  0  0  0  0
    0.9235   -8.7671    3.6811 C   0  0  2  0  0  0  0  0  0  0  0  0
    0.0462   -9.9551    3.1812 C   0  0  0  0  0  0  0  0  0  0  0  0
    0.5490   -7.5745    2.7083 C   0  0  1  0  0  0  0  0  0  0  0  0
    0.2171   -6.2904    3.1993 O   0  0  0  0  0  0  0  0  0  0  0  0
    1.7226   -7.5814    1.7208 C   0  0  1  0  0  0  0  0  0  0  0  0
    1.8807   -6.3808    0.9844 O   0  0  0  0  0  0  0  0  0  0  0  0
    1.2941   -8.7318    5.2484 C   0  0  2  0  0  0  0  0  0  0  0  0
    0.5062   -9.8929    5.9396 C   0  0  0  0  0  0  0  0  0  0  0  0
    0.5817   -7.4639    5.8505 C   0  0  0  0  0  0  0  0  0  0  0  0
    1.4796   -6.2399    6.0899 C   0  0  0  0  0  0  0  0  0  0  0  0
    2.9323   -6.6635    6.3579 C   0  0  2  0  0  0  0  0  0  0  0  0
    3.5373   -5.6895    7.1863 O   0  0  0  0  0  0  0  0  0  0  0  0
    2.9840   -8.0745    7.0606 C   0  0  1  0  0  0  0  0  0  0  0  0
    2.0781   -8.3195    8.1189 O   0  0  0  0  0  0  0  0  0  0  0  0
    2.8895   -8.9469    5.7589 C   0  0  2  0  0  0  0  0  0  0  0  0
    4.8876   -0.8615    4.6400 H   0  0  0  0  0  0  0  0  0  0  0  0
    5.7214   -2.2595    3.9510 H   0  0  0  0  0  0  0  0  0  0  0  0
    4.0041   -2.3840    4.3397 H   0  0  0  0  0  0  0  0  0  0  0  0
    3.2991    0.6819    2.8071 H   0  0  0  0  0  0  0  0  0  0  0  0
    4.5769   -2.0096   -1.5792 H   0  0  0  0  0  0  0  0  0  0  0  0
    4.8647   -0.2679   -1.6007 H   0  0  0  0  0  0  0  0  0  0  0  0
    3.2238   -0.8869   -1.5515 H   0  0  0  0  0  0  0  0  0  0  0  0
    6.3704   -2.9539    0.4231 H   0  0  0  0  0  0  0  0  0  0  0  0
    6.0939   -5.0646    1.3560 H   0  0  0  0  0  0  0  0  0  0  0  0
    2.4884   -6.0561    3.6004 H   0  0  0  0  0  0  0  0  0  0  0  0
    4.7336   -6.2125    5.1769 H   0  0  0  0  0  0  0  0  0  0  0  0
    4.5410   -8.4980    4.2768 H   0  0  0  0  0  0  0  0  0  0  0  0
    6.3443   -8.6682    5.2349 H   0  0  0  0  0  0  0  0  0  0  0  0
    5.8048   -7.9903    6.7504 H   0  0  0  0  0  0  0  0  0  0  0  0
    2.9099  -11.1319    6.1690 H   0  0  0  0  0  0  0  0  0  0  0  0
    4.4309  -11.8672    4.3340 H   0  0  0  0  0  0  0  0  0  0  0  0
    2.9120  -12.3478    3.0136 H   0  0  0  0  0  0  0  0  0  0  0  0
    5.5245  -10.0502    3.2509 H   0  0  0  0  0  0  0  0  0  0  0  0
    4.7291  -11.0633    2.1793 H   0  0  0  0  0  0  0  0  0  0  0  0
    4.8835   -8.3956    1.8679 H   0  0  0  0  0  0  0  0  0  0  0  0
    3.8160  -10.4055    0.7167 H   0  0  0  0  0  0  0  0  0  0  0  0
   -1.0039   -9.7922    3.4224 H   0  0  0  0  0  0  0  0  0  0  0  0
    0.3124  -10.9308    3.5726 H   0  0  0  0  0  0  0  0  0  0  0  0
    0.1043  -10.0631    2.0961 H   0  0  0  0  0  0  0  0  0  0  0  0
   -0.3507   -7.8173    2.1395 H   0  0  0  0  0  0  0  0  0  0  0  0
    0.9433   -5.9813    3.7267 H   0  0  0  0  0  0  0  0  0  0  0  0
    1.5023   -8.3644    0.9938 H   0  0  0  0  0  0  0  0  0  0  0  0
    2.6141   -6.4987    0.3907 H   0  0  0  0  0  0  0  0  0  0  0  0
    0.6159   -9.9113    7.0191 H   0  0  0  0  0  0  0  0  0  0  0  0
    0.8130  -10.8856    5.6165 H   0  0  0  0  0  0  0  0  0  0  0  0
   -0.5659   -9.8067    5.7677 H   0  0  0  0  0  0  0  0  0  0  0  0
   -0.3345   -7.2165    5.3299 H   0  0  0  0  0  0  0  0  0  0  0  0
    0.1609   -7.7099    6.8322 H   0  0  0  0  0  0  0  0  0  0  0  0
    1.4205   -5.4895    5.3064 H   0  0  0  0  0  0  0  0  0  0  0  0
    1.0806   -5.7375    6.9694 H   0  0  0  0  0  0  0  0  0  0  0  0
    3.5013   -4.8524    6.7385 H   0  0  0  0  0  0  0  0  0  0  0  0
    3.9040   -8.1634    7.6295 H   0  0  0  0  0  0  0  0  0  0  0  0
    2.1036   -9.2488    8.3201 H   0  0  0  0  0  0  0  0  0  0  0  0
  1  2  1  0
  1 42  1  0
  1 43  1  0
  1 44  1  0
  2  7  1  0
  2  3  2  0
  3  4  1  0
  3 45  1  0
  4  5  1  0
  5  6  1  0
  5  7  2  0
  6 46  1  0
  6 47  1  0
  6 48  1  0
  7  8  1  0
  8  9  2  3
  8 49  1  0
  9 10  1  0
  9 50  1  0
 10 11  2  0
 10 12  1  0
 12 13  1  0
 13 25  1  0
 13 14  1  0
 13 51  1  1
 14 37  1  0
 14 15  1  0
 14 52  1  1
 15 41  1  0
 15 16  1  0
 15 53  1  6
 17 16  1  6
 16 54  1  0
 16 55  1  0
 17 18  2  0
 17 19  1  0
 19 41  1  0
 19 20  1  0
 19 56  1  1
 20 21  1  0
 20 22  1  0
 20 57  1  1
 21 58  1  0
 22 23  1  0
 22 59  1  0
 22 60  1  0
 23 24  1  0
 23 25  1  0
 23 61  1  6
 24 62  1  0
 25 31  1  0
 25 26  1  1
 26 27  1  0
 27 28  1  1
 27 29  1  0
 27 33  1  0
 28 63  1  0
 28 64  1  0
 28 65  1  0
 29 30  1  0
 29 31  1  0
 29 66  1  6
 30 67  1  0
 31 32  1  0
 31 68  1  6
 32 69  1  0
 41 33  1  6
 33 34  1  1
 33 35  1  0
 34 70  1  0
 34 71  1  0
 34 72  1  0
 35 36  1  0
 35 73  1  0
 35 74  1  0
 36 37  1  0
 36 75  1  0
 36 76  1  0
 37 38  1  1
 37 39  1  0
 38 77  1  0
 39 40  1  0
 39 41  1  0
 39 78  1  1
 40 79  1  0
M  END
>  <i_m_ct_stereo_status>  (64) 
1

>  <s_m_source_file>  (64) 
/var/tmp/pbs.5075288.sched01/tmpsukb34hn/166582q88ej.sdf

>  <i_m_source_file_index>  (64) 
68

>  <i_lp_mmshare_version>  (64) 
48012

>  <i_f3d_flags>  (64) 
0

>  <s_epik_input>  (64) 
W0NIM11jMVtjSF1vYyhbQ0gzXSljMS9bQ0hdPVtDSF0vQyg9TylPW0NAQEhdKFtDQEBdMjM0KVtDQEBIXTVbQ0BASF02W0NAXTcoW0NAQEhdKFtTK10oW08tXSlbQ0gyXTYpW0NAQEhdKFtPSF0pW0NIMl1bQ0BIXTJbT0hdKVtDQF0oW0NIM10pKFtDQEBdKE8zKShbQ0gzXSlbQ0BASF0oW09IXSlbQ0BIXTRbT0hdKVtDSDJdW0NIMl1bQ0BAXTUoW09IXSlbQ0BIXTdbT0hd

>  <s_epik_cmdline>  (64) 
J2VwaWtfcHl0aG9uJywgJy1waHQnLCAnMi4wJywgJy1waCcsICc3LjAnLCAnLXRuJywgJzgnLCAnLW1hJywgJzIwMCcsICctaW1hZScsICc8aW5maWxlLm1hZT4nLCAnLW9tYWUnLCAnPG91dGZpbGUubWFlPic=

>  <r_lp_tautomer_probability>  (64) 
1

>  <r_epik_Ionization_Penalty>  (64) 
1.73257e-06

>  <r_epik_Ionization_Penalty_Charging>  (64) 
0

>  <r_epik_Ionization_Penalty_Neutral>  (64) 
1.73257e-06

>  <r_epik_State_Penalty>  (64) 
-0

>  <r_epik_Charging_Adjusted_Penalty>  (64) 
0

>  <i_epik_Tot_Q>  (64) 
0

>  <i_epik_Tot_abs_Q>  (64) 
2

>  <s_epik_Chemistry_Notes>  (64) 
This compound has an ester and may undergo hydrolysis at high or low pH.

>  <s_lp_Force_Field>  (64) 
OPLS3e

>  <r_lp_Energy>  (64) 
194.642

>  <b_lp_Chiralities_Consistent>  (64) 
1

>  <s_lp_Variant>  (64) 
68:0-4

>  <s_i_glide_gridfile>  (64) 
pfpi4k_grid

>  <i_i_glide_lignum>  (64) 
68

>  <i_i_glide_rotatable_bonds>  (64) 
10

>  <r_i_docking_score>  (64) 
-2.80738

>  <r_i_glide_ligand_efficiency>  (64) 
-0.0684727

>  <r_i_glide_ligand_efficiency_sa>  (64) 
-0.236109

>  <r_i_glide_ligand_efficiency_ln>  (64) 
-0.595595

>  <r_i_glide_gscore>  (64) 
-2.80738

>  <r_i_glide_lipo>  (64) 
-0.24141

>  <r_i_glide_hbond>  (64) 
0

>  <r_i_glide_metal>  (64) 
-0

>  <r_i_glide_rewards>  (64) 
-0.00274131

>  <r_i_glide_evdw>  (64) 
-26.7437

>  <r_i_glide_ecoul>  (64) 
-8.95968

>  <r_i_glide_erotb>  (64) 
0.124935

>  <r_i_glide_esite>  (64) 
-0.00702857

>  <r_i_glide_emodel>  (64) 
-40.5505

>  <r_i_glide_energy>  (64) 
-35.7034

>  <r_i_glide_einternal>  (64) 
4.76664

>  <r_i_glide_intrahb_reward>  (64) 
-0

>  <i_i_glide_confnum>  (64) 
3

>  <i_i_glide_posenum>  (64) 
24

>  <r_i_glide_eff_state_penalty>  (64) 
0

>  <ligand_id>  (64) 
68

>  <original_smiles>  (64) 
Cc1coc(C)c1C=CC(=O)OC1C2C3C[S+]([O-])C4C(O)CC(O)C15OC(C)(C(O)C5O)C1(C)CCC2(O)C(O)C341

>  <smiles>  (64) 
[H]OC1([H])C([H])([H])C([H])(O[H])C23OC(C([H])([H])[H])(C([H])(O[H])C2([H])O[H])C2(C([H])([H])[H])C([H])([H])C([H])([H])C4(O[H])C([H])(O[H])C25C1([H])S(=O)C([H])([H])C5([H])C4([H])C3([H])OC(=O)C([H])=C([H])c1c(C([H])([H])[H])oc([H])c1C([H])([H])[H]

$$$$
73:0:0
     RDKit          3D

117124  0  0  1  0  0  0  0  0999 V2000
    3.3990   -0.9037    0.0647 C   0  0  0  0  0  0  0  0  0  0  0  0
    4.2659   -1.3668    0.9805 C   0  0  0  0  0  0  0  0  0  0  0  0
    5.3629   -2.3052    0.5333 C   0  0  0  0  0  0  0  0  0  0  0  0
    4.2694   -1.0499    2.4913 C   0  0  0  0  0  0  0  0  0  0  0  0
    3.1407   -0.1155    3.0257 C   0  0  2  0  0  0  0  0  0  0  0  0
    3.2359    1.0592    2.2704 O   0  0  0  0  0  0  0  0  0  0  0  0
    3.0816    0.2731    4.5495 C   0  0  1  0  0  0  0  0  0  0  0  0
    2.9318   -1.0629    5.3324 C   0  0  0  0  0  0  0  0  0  0  0  0
    2.7307   -1.0597    6.8681 C   0  0  0  0  0  0  0  0  0  0  0  0
    3.5941   -0.2408    7.8808 C   0  0  1  0  0  0  0  0  0  0  0  0
    5.0937    0.1965    7.9075 C   0  0  1  0  0  0  0  0  0  0  0  0
    6.0537   -0.5292    7.1716 O   0  0  0  0  0  0  0  0  0  0  0  0
    4.6142    1.6448    7.5254 C   0  0  1  0  0  0  0  0  0  0  0  0
    4.8964    1.5676    6.1095 O   0  0  0  0  0  0  0  0  0  0  0  0
    4.5263    0.7052    5.0075 C   0  0  0  0  0  0  0  0  0  0  0  0
    3.3290    1.2157    8.2746 C   0  0  2  0  0  0  0  0  0  0  0  0
    3.4307    1.3143    9.8323 C   0  0  0  0  0  0  0  0  0  0  0  0
    2.3873    2.0685    7.5812 O   0  0  0  0  0  0  0  0  0  0  0  0
    1.0180    2.3051    7.8351 C   0  0  1  0  0  0  0  0  0  0  0  0
    0.1949    1.1861    7.5220 O   0  0  0  0  0  0  0  0  0  0  0  0
    0.9120    2.4532    9.4209 C   0  0  2  0  0  0  0  0  0  0  0  0
    1.7691    3.4714    9.8653 O   0  0  0  0  0  0  0  0  0  0  0  0
    1.0869    4.5806   10.1934 C   0  0  2  0  0  0  0  0  0  0  0  0
    1.7958    5.3638   11.1360 O   0  0  0  0  0  0  0  0  0  0  0  0
   -0.1319    3.9271   10.9153 C   0  0  0  0  0  0  0  0  0  0  0  0
   -0.9568    4.5142   11.6080 O   0  0  0  0  0  0  0  0  0  0  0  0
   -0.1574    2.4235   10.5871 C   0  0  1  0  0  0  0  0  0  0  0  0
   -1.5914    1.8931   10.3497 C   0  0  0  0  0  0  0  0  0  0  0  0
    0.3737    1.6916   11.7058 O   0  0  0  0  0  0  0  0  0  0  0  0
    0.5545    0.3384   11.6387 C   0  0  0  0  0  0  0  0  0  0  0  0
    1.4055   -0.2089   12.7794 C   0  0  0  0  0  0  0  0  0  0  0  0
    0.2313   -0.3909   10.6951 O   0  0  0  0  0  0  0  0  0  0  0  0
    1.0092    5.3577    8.8178 C   0  0  1  0  0  0  0  0  0  0  0  0
    0.6226    6.7024    9.1374 O   0  0  0  0  0  0  0  0  0  0  0  0
    2.4834    5.4845    8.1032 C   0  0  1  0  0  0  0  0  0  0  0  0
    4.0166    4.4681    8.7662 S   0  0  0  0  0  0  0  0  0  0  0  0
    4.9268    5.4755    9.4951 O   0  0  0  0  0  0  0  0  0  0  0  0
    5.1706    3.1110    7.9789 C   0  0  1  0  0  0  0  0  0  0  0  0
    6.2488    2.8763    9.0639 C   0  0  0  0  0  0  0  0  0  0  0  0
    5.9914    3.6349    6.9544 O   0  0  0  0  0  0  0  0  0  0  0  0
    2.6283    6.1167    6.6534 C   0  0  2  0  0  0  0  0  0  0  0  0
    3.5498    7.3567    6.7024 C   0  0  0  0  0  0  0  0  0  0  0  0
    1.3567    6.4834    5.7420 C   0  0  0  0  0  0  0  0  0  0  0  0
    0.6171    5.2634    4.9798 C   0  0  1  0  0  0  0  0  0  0  0  0
    0.4035    5.6383    3.6336 O   0  0  0  0  0  0  0  0  0  0  0  0
    1.3341    3.9123    5.3252 C   0  0  2  0  0  0  0  0  0  0  0  0
    1.0970    2.5726    4.4036 C   0  0  1  0  0  0  0  0  0  0  0  0
    0.9904    2.7471    2.8771 C   0  0  0  0  0  0  0  0  0  0  0  0
    1.7146    1.1114    4.7981 C   0  0  0  0  0  0  0  0  0  0  0  0
    0.5960    3.6093    6.8552 C   0  0  2  0  0  0  0  0  0  0  0  0
   -0.0829    4.7436    7.8103 C   0  0  1  0  0  0  0  0  0  0  0  0
   -1.5797    4.3619    8.2069 C   0  0  0  0  0  0  0  0  0  0  0  0
   -0.7438    5.8763    7.2832 O   0  0  0  0  0  0  0  0  0  0  0  0
    2.8196    4.5107    4.9508 C   0  0  0  0  0  0  0  0  0  0  0  0
    3.7493    3.4430    4.7530 C   0  0  0  0  0  0  0  0  0  0  0  0
    3.1440    5.3375    3.6508 C   0  0  0  0  0  0  0  0  0  0  0  0
    3.4314    5.1815    6.0113 O   0  0  0  0  0  0  0  0  0  0  0  0
    3.4932   -1.1508   -0.9901 H   0  0  0  0  0  0  0  0  0  0  0  0
    2.5604   -0.2668    0.3095 H   0  0  0  0  0  0  0  0  0  0  0  0
    5.1971   -3.2853    0.9752 H   0  0  0  0  0  0  0  0  0  0  0  0
    6.3458   -1.9437    0.8253 H   0  0  0  0  0  0  0  0  0  0  0  0
    5.3443   -2.4209   -0.5510 H   0  0  0  0  0  0  0  0  0  0  0  0
    4.2412   -2.0011    3.0127 H   0  0  0  0  0  0  0  0  0  0  0  0
    5.2470   -0.6226    2.7027 H   0  0  0  0  0  0  0  0  0  0  0  0
    2.1954   -0.5883    2.7807 H   0  0  0  0  0  0  0  0  0  0  0  0
    4.0280    1.5312    2.4995 H   0  0  0  0  0  0  0  0  0  0  0  0
    2.0810   -1.6034    4.9220 H   0  0  0  0  0  0  0  0  0  0  0  0
    3.7713   -1.7282    5.1388 H   0  0  0  0  0  0  0  0  0  0  0  0
    1.6802   -0.8554    7.0738 H   0  0  0  0  0  0  0  0  0  0  0  0
    2.8095   -2.1125    7.1621 H   0  0  0  0  0  0  0  0  0  0  0  0
    3.5004   -0.8262    8.7933 H   0  0  0  0  0  0  0  0  0  0  0  0
    5.4900    0.1749    8.9171 H   0  0  0  0  0  0  0  0  0  0  0  0
    5.7052   -0.5866    6.2999 H   0  0  0  0  0  0  0  0  0  0  0  0
    5.1838   -0.1593    5.0080 H   0  0  0  0  0  0  0  0  0  0  0  0
    4.9715    1.2442    4.1751 H   0  0  0  0  0  0  0  0  0  0  0  0
    4.1711    0.6795   10.3212 H   0  0  0  0  0  0  0  0  0  0  0  0
    2.5386    0.9124   10.2679 H   0  0  0  0  0  0  0  0  0  0  0  0
    3.6484    2.2924   10.2485 H   0  0  0  0  0  0  0  0  0  0  0  0
    0.2791    1.0163    6.6010 H   0  0  0  0  0  0  0  0  0  0  0  0
    0.0212    2.7819    8.9991 H   0  0  0  0  0  0  0  0  0  0  0  0
    1.2157    6.0472   11.4266 H   0  0  0  0  0  0  0  0  0  0  0  0
   -1.5640    1.2436    9.4797 H   0  0  0  0  0  0  0  0  0  0  0  0
   -2.3510    2.6549   10.2048 H   0  0  0  0  0  0  0  0  0  0  0  0
   -1.9143    1.3464   11.2326 H   0  0  0  0  0  0  0  0  0  0  0  0
    2.3364    0.3618   12.8555 H   0  0  0  0  0  0  0  0  0  0  0  0
    1.6820   -1.2520   12.5907 H   0  0  0  0  0  0  0  0  0  0  0  0
    0.8668   -0.1541   13.7288 H   0  0  0  0  0  0  0  0  0  0  0  0
   -0.2497    6.6828    9.5079 H   0  0  0  0  0  0  0  0  0  0  0  0
    2.7974    6.3440    8.7006 H   0  0  0  0  0  0  0  0  0  0  0  0
    7.0254    2.2099    8.6836 H   0  0  0  0  0  0  0  0  0  0  0  0
    5.8450    2.4100    9.9588 H   0  0  0  0  0  0  0  0  0  0  0  0
    6.7376    3.8025    9.3762 H   0  0  0  0  0  0  0  0  0  0  0  0
    5.4680    3.5480    6.1703 H   0  0  0  0  0  0  0  0  0  0  0  0
    3.0487    8.2019    7.1750 H   0  0  0  0  0  0  0  0  0  0  0  0
    3.8358    7.6630    5.6960 H   0  0  0  0  0  0  0  0  0  0  0  0
    4.4755    7.1544    7.2483 H   0  0  0  0  0  0  0  0  0  0  0  0
    0.7303    7.2191    6.2305 H   0  0  0  0  0  0  0  0  0  0  0  0
    1.6933    7.1797    4.9845 H   0  0  0  0  0  0  0  0  0  0  0  0
   -0.4358    5.1476    5.1912 H   0  0  0  0  0  0  0  0  0  0  0  0
    0.2976    4.8845    3.0659 H   0  0  0  0  0  0  0  0  0  0  0  0
    0.0385    2.3886    4.5838 H   0  0  0  0  0  0  0  0  0  0  0  0
    1.8859    3.1258    2.3953 H   0  0  0  0  0  0  0  0  0  0  0  0
    0.1553    3.3730    2.5907 H   0  0  0  0  0  0  0  0  0  0  0  0
    0.7615    1.7997    2.3923 H   0  0  0  0  0  0  0  0  0  0  0  0
    0.9429    0.4323    4.4387 H   0  0  0  0  0  0  0  0  0  0  0  0
    1.6299    1.0103    5.8296 H   0  0  0  0  0  0  0  0  0  0  0  0
   -0.3437    3.2366    6.4533 H   0  0  0  0  0  0  0  0  0  0  0  0
   -1.7587    3.3002    8.2987 H   0  0  0  0  0  0  0  0  0  0  0  0
   -2.3644    4.5262    7.4494 H   0  0  0  0  0  0  0  0  0  0  0  0
   -1.9338    4.8698    9.1051 H   0  0  0  0  0  0  0  0  0  0  0  0
   -0.0936    6.4472    6.9157 H   0  0  0  0  0  0  0  0  0  0  0  0
    3.6396    2.9525    3.7955 H   0  0  0  0  0  0  0  0  0  0  0  0
    3.3712    2.8498    5.5575 H   0  0  0  0  0  0  0  0  0  0  0  0
    4.7853    3.7484    4.8683 H   0  0  0  0  0  0  0  0  0  0  0  0
    2.7601    4.9276    2.7345 H   0  0  0  0  0  0  0  0  0  0  0  0
    4.2141    5.4113    3.4946 H   0  0  0  0  0  0  0  0  0  0  0  0
    2.8772    6.3741    3.6331 H   0  0  0  0  0  0  0  0  0  0  0  0
  1  2  2  0
  1 58  1  0
  1 59  1  0
  2  3  1  0
  2  4  1  0
  3 60  1  0
  3 61  1  0
  3 62  1  0
  4  5  1  0
  4 63  1  0
  4 64  1  0
  5  6  1  0
  5  7  1  0
  5 65  1  6
  6 66  1  0
  7 15  1  0
  7 49  1  6
  7  8  1  0
  8  9  1  0
  8 67  1  0
  8 68  1  0
  9 10  1  0
  9 69  1  0
  9 70  1  0
 10 16  1  0
 10 11  1  0
 10 71  1  1
 11 12  1  0
 11 13  1  0
 11 72  1  1
 12 73  1  0
 13 38  1  0
 13 14  1  6
 13 16  1  0
 14 15  1  0
 15 74  1  0
 15 75  1  0
 16 17  1  1
 16 18  1  0
 17 76  1  0
 17 77  1  0
 17 78  1  0
 18 19  1  0
 19 50  1  0
 19 20  1  6
 19 21  1  0
 20 79  1  0
 21 27  1  0
 21 22  1  0
 21 80  1  1
 22 23  1  0
 23 24  1  1
 23 25  1  0
 23 33  1  0
 24 81  1  0
 25 26  2  0
 25 27  1  0
 27 28  1  0
 27 29  1  1
 28 82  1  0
 28 83  1  0
 28 84  1  0
 29 30  1  0
 30 31  1  0
 30 32  2  0
 31 85  1  0
 31 86  1  0
 31 87  1  0
 33 51  1  0
 33 34  1  1
 33 35  1  0
 34 88  1  0
 35 36  1  0
 35 41  1  0
 35 89  1  1
 36 37  2  0
 36 38  1  6
 38 39  1  0
 38 40  1  6
 39 90  1  0
 39 91  1  0
 39 92  1  0
 40 93  1  0
 41 57  1  0
 41 42  1  1
 41 43  1  0
 42 94  1  0
 42 95  1  0
 42 96  1  0
 43 44  1  0
 43 97  1  0
 43 98  1  0
 44 45  1  0
 44 46  1  0
 44 99  1  1
 45100  1  0
 46 47  1  0
 46 50  1  0
 46 54  1  1
 47 48  1  0
 47 49  1  0
 47101  1  1
 48102  1  0
 48103  1  0
 48104  1  0
 49105  1  0
 49106  1  0
 50 51  1  0
 50107  1  6
 51 52  1  0
 51 53  1  6
 52108  1  0
 52109  1  0
 52110  1  0
 53111  1  0
 54 55  1  0
 54 56  1  0
 54 57  1  0
 55112  1  0
 55113  1  0
 55114  1  0
 56115  1  0
 56116  1  0
 56117  1  0
M  END
>  <i_m_ct_stereo_status>  (65) 
1

>  <s_m_source_file>  (65) 
/var/tmp/pbs.5075288.sched01/tmphpu8_cit/24996nucuhu.sdf

>  <i_m_source_file_index>  (65) 
6

>  <i_lp_mmshare_version>  (65) 
48012

>  <i_f3d_flags>  (65) 
0

>  <s_epik_input>  (65) 
W09IXVtDQEBIXTFbQ0BASF0oW0NAXTIoW0NAQF0xMzQpW0NIM10pW0NIMl1bQ0gyXVtDQEBdKFtDSDJdTzMpKFtDQEBIXShbT0hdKVtDSDJdQyg9W0NIMl0pW0NIM10pW0NIMl1bQ0BIXShbQ0gzXSlbQ0BdNTZbQ0BIXTdbQ0BdKE8yKShbT0hdKVtDQEBIXThPW0NAXShbT0hdKShDKD1PKVtDQF04KFtDSDNdKU9DKD1PKVtDSDNdKVtDQF0oW09IXSkoQzcoW0NIM10pW09IXSlbQ0BASF0oW1MrXShbTy1dKVtDQF00KFtDSDNdKVtPSF0pW0NAXShbQ0gzXSkoW0NIMl1bQ0BIXTVbT0hdKU9DNihbQ0gzXSlbQ0gzXQ==

>  <s_epik_cmdline>  (65) 
J2VwaWtfcHl0aG9uJywgJy1waHQnLCAnMi4wJywgJy1waCcsICc3LjAnLCAnLXRuJywgJzgnLCAnLW1hJywgJzIwMCcsICctaW1hZScsICc8aW5maWxlLm1hZT4nLCAnLW9tYWUnLCAnPG91dGZpbGUubWFlPic=

>  <r_lp_tautomer_probability>  (65) 
1

>  <r_epik_Ionization_Penalty>  (65) 
9.26535e-05

>  <r_epik_Ionization_Penalty_Charging>  (65) 
0

>  <r_epik_Ionization_Penalty_Neutral>  (65) 
9.26535e-05

>  <r_epik_State_Penalty>  (65) 
-0

>  <r_epik_Charging_Adjusted_Penalty>  (65) 
0

>  <i_epik_Tot_Q>  (65) 
0

>  <i_epik_Tot_abs_Q>  (65) 
2

>  <s_epik_Chemistry_Notes>  (65) 
This compound has an ester and may undergo hydrolysis at high or low pH.

>  <s_lp_Force_Field>  (65) 
OPLS3e

>  <r_lp_Energy>  (65) 
515.353

>  <b_lp_Chiralities_Consistent>  (65) 
1

>  <s_lp_Variant>  (65) 
73:0-1

>  <s_i_glide_gridfile>  (65) 
pfpi4k_grid

>  <i_i_glide_lignum>  (65) 
6

>  <i_i_glide_rotatable_bonds>  (65) 
13

>  <r_i_docking_score>  (65) 
-2.25015

>  <r_i_glide_ligand_efficiency>  (65) 
-0.0394764

>  <r_i_glide_ligand_efficiency_sa>  (65) 
-0.151925

>  <r_i_glide_ligand_efficiency_ln>  (65) 
-0.446189

>  <r_i_glide_gscore>  (65) 
-2.25015

>  <r_i_glide_lipo>  (65) 
-0.19383

>  <r_i_glide_hbond>  (65) 
-0.339417

>  <r_i_glide_metal>  (65) 
-0

>  <r_i_glide_rewards>  (65) 
0

>  <r_i_glide_evdw>  (65) 
-20.8424

>  <r_i_glide_ecoul>  (65) 
-5.0463

>  <r_i_glide_erotb>  (65) 
0.127261

>  <r_i_glide_esite>  (65) 
-0.0451032

>  <r_i_glide_emodel>  (65) 
-24.9983

>  <r_i_glide_energy>  (65) 
-25.8887

>  <r_i_glide_einternal>  (65) 
8.06672

>  <r_i_glide_intrahb_reward>  (65) 
-0

>  <i_i_glide_confnum>  (65) 
2

>  <i_i_glide_posenum>  (65) 
10

>  <r_i_glide_eff_state_penalty>  (65) 
0

>  <ligand_id>  (65) 
73

>  <original_smiles>  (65) 
C=C(C)CC(O)C12CCC3C(O)C4(OC1)C3(C)OC1(O)C3OC(O)(C(=O)C3(C)OC(C)=O)C3(O)C([S+]([O-])C4(C)O)C4(C)CC(O)C(C(C)C2)(C1C3(C)O)C(C)(C)O4

>  <smiles>  (65) 
[H]OC12OC([H])(C3(O[H])OC4(C([H])([H])[H])C5([H])C([H])([H])C([H])([H])C6(C([H])(O[H])C([H])([H])C(=C([H])[H])C([H])([H])[H])C([H])([H])OC4(C5([H])O[H])C(O[H])(C([H])([H])[H])S(=O)C4([H])C5(C([H])([H])[H])OC(C([H])([H])[H])(C([H])([H])[H])C(C([H])(O[H])C5([H])[H])(C([H])(C([H])([H])[H])C6([H])[H])C3([H])C(O[H])(C([H])([H])[H])C14O[H])C(OC(=O)C([H])([H])[H])(C([H])([H])[H])C2=O

$$$$
73:0:1
     RDKit          3D

117124  0  0  1  0  0  0  0  0999 V2000
    4.0529   -1.1081   -0.2499 C   0  0  0  0  0  0  0  0  0  0  0  0
    3.4855   -1.5461    0.8870 C   0  0  0  0  0  0  0  0  0  0  0  0
    2.4259   -2.6306    0.8735 C   0  0  0  0  0  0  0  0  0  0  0  0
    3.8651   -0.9998    2.2572 C   0  0  0  0  0  0  0  0  0  0  0  0
    2.7728   -0.0905    2.8980 C   0  0  2  0  0  0  0  0  0  0  0  0
    2.7056    1.0354    2.0463 O   0  0  0  0  0  0  0  0  0  0  0  0
    2.9334    0.3198    4.4142 C   0  0  1  0  0  0  0  0  0  0  0  0
    3.0554   -1.0067    5.2189 C   0  0  0  0  0  0  0  0  0  0  0  0
    3.1346   -0.9975    6.7719 C   0  0  0  0  0  0  0  0  0  0  0  0
    4.0816   -0.0946    7.6183 C   0  0  1  0  0  0  0  0  0  0  0  0
    5.5098    0.4674    7.3630 C   0  0  1  0  0  0  0  0  0  0  0  0
    6.3878   -0.1845    6.4668 O   0  0  0  0  0  0  0  0  0  0  0  0
    4.8390    1.8646    7.0910 C   0  0  1  0  0  0  0  0  0  0  0  0
    4.8393    1.8074    5.6549 O   0  0  0  0  0  0  0  0  0  0  0  0
    4.3869    0.8875    4.6414 C   0  0  0  0  0  0  0  0  0  0  0  0
    3.7492    1.3306    8.0645 C   0  0  2  0  0  0  0  0  0  0  0  0
    4.1066    1.4457    9.5946 C   0  0  0  0  0  0  0  0  0  0  0  0
    2.6149    2.0714    7.5601 O   0  0  0  0  0  0  0  0  0  0  0  0
    1.2954    2.1453    8.0432 C   0  0  1  0  0  0  0  0  0  0  0  0
    0.5566    0.9496    7.8571 O   0  0  0  0  0  0  0  0  0  0  0  0
    1.4377    2.2800    9.6257 C   0  0  2  0  0  0  0  0  0  0  0  0
    2.2643    3.3776    9.9429 O   0  0  0  0  0  0  0  0  0  0  0  0
    1.5253    4.4128   10.3834 C   0  0  2  0  0  0  0  0  0  0  0  0
    2.2913    5.2835   11.1864 O   0  0  0  0  0  0  0  0  0  0  0  0
    0.5160    3.6304   11.3118 C   0  0  0  0  0  0  0  0  0  0  0  0
   -0.2074    4.1096   12.1853 O   0  0  0  0  0  0  0  0  0  0  0  0
    0.5902    2.1316   10.9609 C   0  0  1  0  0  0  0  0  0  0  0  0
   -0.8089    1.4389   11.0044 C   0  0  0  0  0  0  0  0  0  0  0  0
    1.3940    1.4883   11.9700 O   0  0  0  0  0  0  0  0  0  0  0  0
    1.7115    0.1727   11.8483 C   0  0  0  0  0  0  0  0  0  0  0  0
    2.8230   -0.2591   12.8078 C   0  0  0  0  0  0  0  0  0  0  0  0
    1.3141   -0.5764   10.9600 O   0  0  0  0  0  0  0  0  0  0  0  0
    1.1383    5.1717    9.0424 C   0  0  1  0  0  0  0  0  0  0  0  0
    0.6702    6.4788    9.4132 O   0  0  0  0  0  0  0  0  0  0  0  0
    2.4502    5.4641    8.0994 C   0  0  1  0  0  0  0  0  0  0  0  0
    4.1783    4.6276    8.4484 S   0  0  0  0  0  0  0  0  0  0  0  0
    5.0872    5.7000    9.0840 O   0  0  0  0  0  0  0  0  0  0  0  0
    5.3155    3.3737    7.4753 C   0  0  1  0  0  0  0  0  0  0  0  0
    6.5756    3.2685    8.3695 C   0  0  0  0  0  0  0  0  0  0  0  0
    5.8916    3.9688    6.3289 O   0  0  0  0  0  0  0  0  0  0  0  0
    2.2835    6.1030    6.6602 C   0  0  2  0  0  0  0  0  0  0  0  0
    3.0699    7.4292    6.5745 C   0  0  0  0  0  0  0  0  0  0  0  0
    0.8469    6.3354    5.9801 C   0  0  0  0  0  0  0  0  0  0  0  0
    0.1222    5.0472    5.3360 C   0  0  1  0  0  0  0  0  0  0  0  0
   -0.3848    5.3574    4.0561 O   0  0  0  0  0  0  0  0  0  0  0  0
    1.0042    3.7704    5.5407 C   0  0  2  0  0  0  0  0  0  0  0  0
    0.7444    2.4154    4.6463 C   0  0  1  0  0  0  0  0  0  0  0  0
    0.3824    2.5687    3.1517 C   0  0  0  0  0  0  0  0  0  0  0  0
    1.5660    1.0277    4.9127 C   0  0  0  0  0  0  0  0  0  0  0  0
    0.5823    3.3934    7.1732 C   0  0  2  0  0  0  0  0  0  0  0  0
   -0.0478    4.4576    8.2333 C   0  0  1  0  0  0  0  0  0  0  0  0
   -1.4046    3.9265    8.8892 C   0  0  0  0  0  0  0  0  0  0  0  0
   -0.9205    5.5003    7.8199 O   0  0  0  0  0  0  0  0  0  0  0  0
    2.3451    4.5093    4.9199 C   0  0  0  0  0  0  0  0  0  0  0  0
    3.3185    3.5356    4.5347 C   0  0  0  0  0  0  0  0  0  0  0  0
    2.3852    5.3621    3.5886 C   0  0  0  0  0  0  0  0  0  0  0  0
    3.0566    5.2459    5.8745 O   0  0  0  0  0  0  0  0  0  0  0  0
    3.7639   -1.5254   -1.2058 H   0  0  0  0  0  0  0  0  0  0  0  0
    4.8027   -0.3297   -0.2474 H   0  0  0  0  0  0  0  0  0  0  0  0
    1.4698   -2.2387    1.2246 H   0  0  0  0  0  0  0  0  0  0  0  0
    2.7156   -3.4583    1.5192 H   0  0  0  0  0  0  0  0  0  0  0  0
    2.2797   -3.0192   -0.1367 H   0  0  0  0  0  0  0  0  0  0  0  0
    4.0965   -1.8790    2.8528 H   0  0  0  0  0  0  0  0  0  0  0  0
    4.7956   -0.4390    2.1611 H   0  0  0  0  0  0  0  0  0  0  0  0
    1.8146   -0.5936    2.8179 H   0  0  0  0  0  0  0  0  0  0  0  0
    3.5052    1.5398    2.1381 H   0  0  0  0  0  0  0  0  0  0  0  0
    2.2181   -1.6446    4.9436 H   0  0  0  0  0  0  0  0  0  0  0  0
    3.9316   -1.5751    4.9204 H   0  0  0  0  0  0  0  0  0  0  0  0
    2.1178   -0.9176    7.1579 H   0  0  0  0  0  0  0  0  0  0  0  0
    3.3674   -2.0386    7.0260 H   0  0  0  0  0  0  0  0  0  0  0  0
    4.2166   -0.6787    8.5245 H   0  0  0  0  0  0  0  0  0  0  0  0
    6.0908    0.4758    8.2829 H   0  0  0  0  0  0  0  0  0  0  0  0
    7.2192    0.2615    6.5436 H   0  0  0  0  0  0  0  0  0  0  0  0
    5.1266    0.0952    4.5236 H   0  0  0  0  0  0  0  0  0  0  0  0
    4.6089    1.4465    3.7354 H   0  0  0  0  0  0  0  0  0  0  0  0
    5.0069    0.9158    9.9257 H   0  0  0  0  0  0  0  0  0  0  0  0
    3.3701    0.9815   10.1676 H   0  0  0  0  0  0  0  0  0  0  0  0
    4.3408    2.4462    9.9472 H   0  0  0  0  0  0  0  0  0  0  0  0
    0.5216    0.7694    6.9365 H   0  0  0  0  0  0  0  0  0  0  0  0
    0.4566    2.4942    9.3689 H   0  0  0  0  0  0  0  0  0  0  0  0
    2.5994    4.8112   11.9382 H   0  0  0  0  0  0  0  0  0  0  0  0
   -0.9203    0.6868   10.2176 H   0  0  0  0  0  0  0  0  0  0  0  0
   -1.6501    2.1297   10.9790 H   0  0  0  0  0  0  0  0  0  0  0  0
   -0.9310    0.9311   11.9556 H   0  0  0  0  0  0  0  0  0  0  0  0
    3.6251    0.4824   12.7974 H   0  0  0  0  0  0  0  0  0  0  0  0
    3.2464   -1.2083   12.4673 H   0  0  0  0  0  0  0  0  0  0  0  0
    2.4441   -0.3970   13.8336 H   0  0  0  0  0  0  0  0  0  0  0  0
   -0.0581    6.3879   10.0157 H   0  0  0  0  0  0  0  0  0  0  0  0
    2.7649    6.3576    8.6574 H   0  0  0  0  0  0  0  0  0  0  0  0
    7.3365    2.6805    7.8533 H   0  0  0  0  0  0  0  0  0  0  0  0
    6.3723    2.7796    9.3117 H   0  0  0  0  0  0  0  0  0  0  0  0
    7.0058    4.2510    8.5994 H   0  0  0  0  0  0  0  0  0  0  0  0
    5.2523    3.8092    5.6468 H   0  0  0  0  0  0  0  0  0  0  0  0
    2.5656    8.2080    7.1449 H   0  0  0  0  0  0  0  0  0  0  0  0
    3.1400    7.7522    5.5381 H   0  0  0  0  0  0  0  0  0  0  0  0
    4.0881    7.3145    6.9549 H   0  0  0  0  0  0  0  0  0  0  0  0
    0.2355    6.9901    6.5911 H   0  0  0  0  0  0  0  0  0  0  0  0
    0.9900    7.0515    5.1832 H   0  0  0  0  0  0  0  0  0  0  0  0
   -0.8569    4.8247    5.7235 H   0  0  0  0  0  0  0  0  0  0  0  0
    0.3280    5.4165    3.4300 H   0  0  0  0  0  0  0  0  0  0  0  0
   -0.2401    2.1281    5.0154 H   0  0  0  0  0  0  0  0  0  0  0  0
    1.1793    2.9721    2.5391 H   0  0  0  0  0  0  0  0  0  0  0  0
   -0.5045    3.1770    2.9839 H   0  0  0  0  0  0  0  0  0  0  0  0
    0.1448    1.5979    2.7203 H   0  0  0  0  0  0  0  0  0  0  0  0
    0.8170    0.2719    4.6927 H   0  0  0  0  0  0  0  0  0  0  0  0
    1.6799    0.9249    5.9421 H   0  0  0  0  0  0  0  0  0  0  0  0
   -0.3712    2.9346    6.9366 H   0  0  0  0  0  0  0  0  0  0  0  0
   -1.4515    2.8537    9.0171 H   0  0  0  0  0  0  0  0  0  0  0  0
   -2.3316    3.9959    8.2888 H   0  0  0  0  0  0  0  0  0  0  0  0
   -1.6436    4.4128    9.8379 H   0  0  0  0  0  0  0  0  0  0  0  0
   -0.3859    6.1983    7.4765 H   0  0  0  0  0  0  0  0  0  0  0  0
    3.0759    3.0182    3.6139 H   0  0  0  0  0  0  0  0  0  0  0  0
    3.1349    2.9350    5.3982 H   0  0  0  0  0  0  0  0  0  0  0  0
    4.3233    3.9417    4.4676 H   0  0  0  0  0  0  0  0  0  0  0  0
    1.8847    4.8935    2.7527 H   0  0  0  0  0  0  0  0  0  0  0  0
    3.4107    5.5156    3.2576 H   0  0  0  0  0  0  0  0  0  0  0  0
    2.0171    6.3739    3.6328 H   0  0  0  0  0  0  0  0  0  0  0  0
  1  2  2  0
  1 58  1  0
  1 59  1  0
  2  3  1  0
  2  4  1  0
  3 60  1  0
  3 61  1  0
  3 62  1  0
  4  5  1  0
  4 63  1  0
  4 64  1  0
  5  6  1  0
  5  7  1  0
  5 65  1  1
  6 66  1  0
  7 15  1  0
  7 49  1  1
  7  8  1  0
  8  9  1  0
  8 67  1  0
  8 68  1  0
  9 10  1  0
  9 69  1  0
  9 70  1  0
 10 16  1  0
 10 11  1  0
 10 71  1  1
 11 12  1  0
 11 13  1  0
 11 72  1  1
 12 73  1  0
 13 38  1  0
 13 14  1  6
 13 16  1  0
 14 15  1  0
 15 74  1  0
 15 75  1  0
 16 17  1  1
 16 18  1  0
 17 76  1  0
 17 77  1  0
 17 78  1  0
 18 19  1  0
 19 50  1  0
 19 20  1  1
 19 21  1  0
 20 79  1  0
 21 27  1  0
 21 22  1  0
 21 80  1  1
 22 23  1  0
 23 24  1  1
 23 25  1  0
 23 33  1  0
 24 81  1  0
 25 26  2  0
 25 27  1  0
 27 28  1  0
 27 29  1  1
 28 82  1  0
 28 83  1  0
 28 84  1  0
 29 30  1  0
 30 31  1  0
 30 32  2  0
 31 85  1  0
 31 86  1  0
 31 87  1  0
 33 51  1  0
 33 34  1  1
 33 35  1  0
 34 88  1  0
 35 36  1  0
 35 41  1  0
 35 89  1  1
 36 37  2  0
 36 38  1  6
 38 39  1  0
 38 40  1  6
 39 90  1  0
 39 91  1  0
 39 92  1  0
 40 93  1  0
 41 57  1  0
 41 42  1  1
 41 43  1  0
 42 94  1  0
 42 95  1  0
 42 96  1  0
 43 44  1  0
 43 97  1  0
 43 98  1  0
 44 45  1  0
 44 46  1  0
 44 99  1  1
 45100  1  0
 46 47  1  0
 46 50  1  0
 46 54  1  1
 47 48  1  0
 47 49  1  0
 47101  1  1
 48102  1  0
 48103  1  0
 48104  1  0
 49105  1  0
 49106  1  0
 50 51  1  0
 50107  1  6
 51 52  1  0
 51 53  1  6
 52108  1  0
 52109  1  0
 52110  1  0
 53111  1  0
 54 55  1  0
 54 56  1  0
 54 57  1  0
 55112  1  0
 55113  1  0
 55114  1  0
 56115  1  0
 56116  1  0
 56117  1  0
M  END
>  <i_m_ct_stereo_status>  (66) 
1

>  <s_m_source_file>  (66) 
/var/tmp/pbs.5075288.sched01/tmphpu8_cit/24996nucuhu.sdf

>  <i_m_source_file_index>  (66) 
6

>  <i_lp_mmshare_version>  (66) 
48012

>  <i_f3d_flags>  (66) 
0

>  <s_epik_input>  (66) 
W09IXVtDQEBIXTFbQ0BASF0oW0NAXTIoW0NAQF0xMzQpW0NIM10pW0NIMl1bQ0gyXVtDQEBdKFtDSDJdTzMpKFtDQEBIXShbT0hdKVtDSDJdQyg9W0NIMl0pW0NIM10pW0NIMl1bQ0BIXShbQ0gzXSlbQ0BdNTZbQ0BIXTdbQ0BdKE8yKShbT0hdKVtDQEBIXThPW0NAXShbT0hdKShDKD1PKVtDQF04KFtDSDNdKU9DKD1PKVtDSDNdKVtDQF0oW09IXSkoQzcoW0NIM10pW09IXSlbQ0BASF0oW1MrXShbTy1dKVtDQF00KFtDSDNdKVtPSF0pW0NAXShbQ0gzXSkoW0NIMl1bQ0BIXTVbT0hdKU9DNihbQ0gzXSlbQ0gzXQ==

>  <s_epik_cmdline>  (66) 
J2VwaWtfcHl0aG9uJywgJy1waHQnLCAnMi4wJywgJy1waCcsICc3LjAnLCAnLXRuJywgJzgnLCAnLW1hJywgJzIwMCcsICctaW1hZScsICc8aW5maWxlLm1hZT4nLCAnLW9tYWUnLCAnPG91dGZpbGUubWFlPic=

>  <r_lp_tautomer_probability>  (66) 
1

>  <r_epik_Ionization_Penalty>  (66) 
9.26535e-05

>  <r_epik_Ionization_Penalty_Charging>  (66) 
0

>  <r_epik_Ionization_Penalty_Neutral>  (66) 
9.26535e-05

>  <r_epik_State_Penalty>  (66) 
-0

>  <r_epik_Charging_Adjusted_Penalty>  (66) 
0

>  <i_epik_Tot_Q>  (66) 
0

>  <i_epik_Tot_abs_Q>  (66) 
2

>  <s_epik_Chemistry_Notes>  (66) 
This compound has an ester and may undergo hydrolysis at high or low pH.

>  <s_lp_Force_Field>  (66) 
OPLS3e

>  <r_lp_Energy>  (66) 
515.353

>  <b_lp_Chiralities_Consistent>  (66) 
1

>  <s_lp_Variant>  (66) 
73:0-1

>  <s_i_glide_gridfile>  (66) 
pfpi4k_grid

>  <i_i_glide_lignum>  (66) 
6

>  <i_i_glide_rotatable_bonds>  (66) 
13

>  <r_i_docking_score>  (66) 
-2.08478

>  <r_i_glide_ligand_efficiency>  (66) 
-0.036575

>  <r_i_glide_ligand_efficiency_sa>  (66) 
-0.140759

>  <r_i_glide_ligand_efficiency_ln>  (66) 
-0.413396

>  <r_i_glide_gscore>  (66) 
-2.08478

>  <r_i_glide_lipo>  (66) 
-0.0278326

>  <r_i_glide_hbond>  (66) 
-0.171612

>  <r_i_glide_metal>  (66) 
-0

>  <r_i_glide_rewards>  (66) 
0

>  <r_i_glide_evdw>  (66) 
-25.0323

>  <r_i_glide_ecoul>  (66) 
-4.99517

>  <r_i_glide_erotb>  (66) 
0.127261

>  <r_i_glide_esite>  (66) 
-0.0117054

>  <r_i_glide_emodel>  (66) 
-29.501

>  <r_i_glide_energy>  (66) 
-30.0274

>  <r_i_glide_einternal>  (66) 
6.94005

>  <r_i_glide_intrahb_reward>  (66) 
-0

>  <i_i_glide_confnum>  (66) 
2

>  <i_i_glide_posenum>  (66) 
2

>  <r_i_glide_eff_state_penalty>  (66) 
0

>  <ligand_id>  (66) 
73

>  <original_smiles>  (66) 
C=C(C)CC(O)C12CCC3C(O)C4(OC1)C3(C)OC1(O)C3OC(O)(C(=O)C3(C)OC(C)=O)C3(O)C([S+]([O-])C4(C)O)C4(C)CC(O)C(C(C)C2)(C1C3(C)O)C(C)(C)O4

>  <smiles>  (66) 
[H]OC12OC([H])(C3(O[H])OC4(C([H])([H])[H])C5([H])C([H])([H])C([H])([H])C6(C([H])(O[H])C([H])([H])C(=C([H])[H])C([H])([H])[H])C([H])([H])OC4(C5([H])O[H])C(O[H])(C([H])([H])[H])S(=O)C4([H])C5(C([H])([H])[H])OC(C([H])([H])[H])(C([H])([H])[H])C(C([H])(O[H])C5([H])[H])(C([H])(C([H])([H])[H])C6([H])[H])C3([H])C(O[H])(C([H])([H])[H])C14O[H])C(OC(=O)C([H])([H])[H])(C([H])([H])[H])C2=O

$$$$
73:0:2
     RDKit          3D

117124  0  0  1  0  0  0  0  0999 V2000
    3.9287   -1.1425   -0.4141 C   0  0  0  0  0  0  0  0  0  0  0  0
    3.5699   -1.7526    0.7290 C   0  0  0  0  0  0  0  0  0  0  0  0
    2.8017   -3.0580    0.7181 C   0  0  0  0  0  0  0  0  0  0  0  0
    3.9104   -1.1878    2.1047 C   0  0  0  0  0  0  0  0  0  0  0  0
    2.7331   -0.4427    2.7956 C   0  0  2  0  0  0  0  0  0  0  0  0
    2.4857    0.6283    1.9201 O   0  0  0  0  0  0  0  0  0  0  0  0
    2.9235    0.0471    4.2913 C   0  0  1  0  0  0  0  0  0  0  0  0
    3.2305   -1.2363    5.1299 C   0  0  0  0  0  0  0  0  0  0  0  0
    3.3739   -1.1832    6.6661 C   0  0  0  0  0  0  0  0  0  0  0  0
    4.2575   -0.1564    7.4535 C   0  0  1  0  0  0  0  0  0  0  0  0
    5.6021    0.5629    7.1320 C   0  0  1  0  0  0  0  0  0  0  0  0
    6.5085   -0.0039    6.2253 O   0  0  0  0  0  0  0  0  0  0  0  0
    4.7715    1.8684    6.8500 C   0  0  1  0  0  0  0  0  0  0  0  0
    4.7371    1.7532    5.4048 O   0  0  0  0  0  0  0  0  0  0  0  0
    4.3174    0.7697    4.4302 C   0  0  0  0  0  0  0  0  0  0  0  0
    3.7894    1.2409    7.8805 C   0  0  2  0  0  0  0  0  0  0  0  0
    4.2283    1.4731    9.3631 C   0  0  0  0  0  0  0  0  0  0  0  0
    2.5696    1.8470    7.3984 O   0  0  0  0  0  0  0  0  0  0  0  0
    1.2604    1.8058    7.9509 C   0  0  1  0  0  0  0  0  0  0  0  0
    0.6562    0.5370    7.8513 O   0  0  0  0  0  0  0  0  0  0  0  0
    1.4658    2.0243    9.5227 C   0  0  2  0  0  0  0  0  0  0  0  0
    2.1648    3.2066    9.7591 O   0  0  0  0  0  0  0  0  0  0  0  0
    1.3546    4.1928   10.2104 C   0  0  2  0  0  0  0  0  0  0  0  0
    2.0586    5.1433   10.9427 O   0  0  0  0  0  0  0  0  0  0  0  0
    0.4787    3.3231   11.2016 C   0  0  0  0  0  0  0  0  0  0  0  0
   -0.2540    3.7659   12.0762 O   0  0  0  0  0  0  0  0  0  0  0  0
    0.7043    1.8388   10.8949 C   0  0  1  0  0  0  0  0  0  0  0  0
   -0.6081    0.9846   11.0336 C   0  0  0  0  0  0  0  0  0  0  0  0
    1.5993    1.2935   11.8890 O   0  0  0  0  0  0  0  0  0  0  0  0
    2.0748    0.0257   11.7566 C   0  0  0  0  0  0  0  0  0  0  0  0
    3.2479   -0.2783   12.6930 C   0  0  0  0  0  0  0  0  0  0  0  0
    1.7532   -0.7688   10.8769 O   0  0  0  0  0  0  0  0  0  0  0  0
    0.8054    4.8397    8.8660 C   0  0  1  0  0  0  0  0  0  0  0  0
    0.1989    6.0949    9.2242 O   0  0  0  0  0  0  0  0  0  0  0  0
    2.0545    5.2360    7.8532 C   0  0  1  0  0  0  0  0  0  0  0  0
    3.8665    4.5754    8.1735 S   0  0  0  0  0  0  0  0  0  0  0  0
    4.6927    5.7779    8.6892 O   0  0  0  0  0  0  0  0  0  0  0  0
    5.0856    3.4365    7.1648 C   0  0  1  0  0  0  0  0  0  0  0  0
    6.3988    3.4833    7.9849 C   0  0  0  0  0  0  0  0  0  0  0  0
    5.5327    4.0649    6.0021 O   0  0  0  0  0  0  0  0  0  0  0  0
    1.7670    5.7927    6.3990 C   0  0  2  0  0  0  0  0  0  0  0  0
    2.3959    7.1922    6.2320 C   0  0  0  0  0  0  0  0  0  0  0  0
    0.2869    5.8585    5.7758 C   0  0  0  0  0  0  0  0  0  0  0  0
   -0.3246    4.4874    5.1868 C   0  0  1  0  0  0  0  0  0  0  0  0
   -0.9020    4.7334    3.9119 O   0  0  0  0  0  0  0  0  0  0  0  0
    0.6938    3.3095    5.4055 C   0  0  2  0  0  0  0  0  0  0  0  0
    0.5363    1.9066    4.5658 C   0  0  1  0  0  0  0  0  0  0  0  0
    0.0853    1.9789    3.0879 C   0  0  0  0  0  0  0  0  0  0  0  0
    1.5074    0.6203    4.8348 C   0  0  0  0  0  0  0  0  0  0  0  0
    0.3746    2.9424    7.0679 C   0  0  2  0  0  0  0  0  0  0  0  0
   -0.3209    3.9709    8.1251 C   0  0  1  0  0  0  0  0  0  0  0  0
   -1.5763    3.3216    8.8749 C   0  0  0  0  0  0  0  0  0  0  0  0
   -1.3140    4.8812    7.7079 O   0  0  0  0  0  0  0  0  0  0  0  0
    1.9290    4.1609    4.7136 C   0  0  0  0  0  0  0  0  0  0  0  0
    2.9764    3.2813    4.2980 C   0  0  0  0  0  0  0  0  0  0  0  0
    1.8230    4.9751    3.3625 C   0  0  0  0  0  0  0  0  0  0  0  0
    2.5946    5.0001    5.6089 O   0  0  0  0  0  0  0  0  0  0  0  0
    3.6768   -1.5670   -1.3768 H   0  0  0  0  0  0  0  0  0  0  0  0
    4.4721   -0.2087   -0.4089 H   0  0  0  0  0  0  0  0  0  0  0  0
    1.8145   -2.9240    1.1593 H   0  0  0  0  0  0  0  0  0  0  0  0
    3.3433   -3.8089    1.2928 H   0  0  0  0  0  0  0  0  0  0  0  0
    2.6828   -3.4367   -0.2991 H   0  0  0  0  0  0  0  0  0  0  0  0
    4.2841   -2.0208    2.6953 H   0  0  0  0  0  0  0  0  0  0  0  0
    4.7459   -0.4992    1.9785 H   0  0  0  0  0  0  0  0  0  0  0  0
    1.8511   -1.0837    2.7719 H   0  0  0  0  0  0  0  0  0  0  0  0
    2.0238    0.2800    1.1570 H   0  0  0  0  0  0  0  0  0  0  0  0
    2.4473   -1.9648    4.9174 H   0  0  0  0  0  0  0  0  0  0  0  0
    4.1366   -1.7284    4.7785 H   0  0  0  0  0  0  0  0  0  0  0  0
    2.3740   -1.1900    7.0958 H   0  0  0  0  0  0  0  0  0  0  0  0
    3.7296   -2.1803    6.9417 H   0  0  0  0  0  0  0  0  0  0  0  0
    4.4788   -0.6914    8.3725 H   0  0  0  0  0  0  0  0  0  0  0  0
    6.2073    0.6761    8.0321 H   0  0  0  0  0  0  0  0  0  0  0  0
    5.9937   -0.1797    5.4463 H   0  0  0  0  0  0  0  0  0  0  0  0
    5.1260    0.0582    4.2844 H   0  0  0  0  0  0  0  0  0  0  0  0
    4.4362    1.3407    3.5177 H   0  0  0  0  0  0  0  0  0  0  0  0
    5.1601    1.0139    9.6833 H   0  0  0  0  0  0  0  0  0  0  0  0
    3.5462    0.9301    9.9785 H   0  0  0  0  0  0  0  0  0  0  0  0
    4.3153    2.4880    9.7007 H   0  0  0  0  0  0  0  0  0  0  0  0
    1.1774   -0.0658    8.3794 H   0  0  0  0  0  0  0  0  0  0  0  0
    0.4510    2.1370    9.3086 H   0  0  0  0  0  0  0  0  0  0  0  0
    2.4586    4.7227   11.6950 H   0  0  0  0  0  0  0  0  0  0  0  0
   -0.6578    0.2080   10.2766 H   0  0  0  0  0  0  0  0  0  0  0  0
   -1.5155    1.5787   11.0331 H   0  0  0  0  0  0  0  0  0  0  0  0
   -0.6181    0.4956   12.0033 H   0  0  0  0  0  0  0  0  0  0  0  0
    3.9805    0.5297   12.6233 H   0  0  0  0  0  0  0  0  0  0  0  0
    3.7524   -1.1943   12.3864 H   0  0  0  0  0  0  0  0  0  0  0  0
    2.9128   -0.3818   13.7253 H   0  0  0  0  0  0  0  0  0  0  0  0
   -0.3716    5.9580    9.9789 H   0  0  0  0  0  0  0  0  0  0  0  0
    2.2919    6.1718    8.3652 H   0  0  0  0  0  0  0  0  0  0  0  0
    7.1925    2.9620    7.4480 H   0  0  0  0  0  0  0  0  0  0  0  0
    6.3133    2.9979    8.9532 H   0  0  0  0  0  0  0  0  0  0  0  0
    6.7454    4.5039    8.1706 H   0  0  0  0  0  0  0  0  0  0  0  0
    4.8958    3.8126    5.3346 H   0  0  0  0  0  0  0  0  0  0  0  0
    1.8446    7.9457    6.7943 H   0  0  0  0  0  0  0  0  0  0  0  0
    2.3893    7.4941    5.1848 H   0  0  0  0  0  0  0  0  0  0  0  0
    3.4378    7.2098    6.5611 H   0  0  0  0  0  0  0  0  0  0  0  0
   -0.3609    6.4419    6.4131 H   0  0  0  0  0  0  0  0  0  0  0  0
    0.2977    6.5806    4.9674 H   0  0  0  0  0  0  0  0  0  0  0  0
   -1.2707    4.1762    5.6109 H   0  0  0  0  0  0  0  0  0  0  0  0
   -0.2254    4.6951    3.2327 H   0  0  0  0  0  0  0  0  0  0  0  0
   -0.3946    1.5260    4.9870 H   0  0  0  0  0  0  0  0  0  0  0  0
    0.8041    2.4496    2.4280 H   0  0  0  0  0  0  0  0  0  0  0  0
   -0.8674    2.4858    2.9467 H   0  0  0  0  0  0  0  0  0  0  0  0
   -0.0683    0.9751    2.6953 H   0  0  0  0  0  0  0  0  0  0  0  0
    0.8334   -0.2183    4.6786 H   0  0  0  0  0  0  0  0  0  0  0  0
    1.6630    0.5668    5.8637 H   0  0  0  0  0  0  0  0  0  0  0  0
   -0.5298    2.3589    6.8940 H   0  0  0  0  0  0  0  0  0  0  0  0
   -1.4975    2.2560    9.0307 H   0  0  0  0  0  0  0  0  0  0  0  0
   -2.5297    3.2786    8.3184 H   0  0  0  0  0  0  0  0  0  0  0  0
   -1.8187    3.8029    9.8222 H   0  0  0  0  0  0  0  0  0  0  0  0
   -1.6171    5.3625    8.4807 H   0  0  0  0  0  0  0  0  0  0  0  0
    2.7423    2.6985    3.4116 H   0  0  0  0  0  0  0  0  0  0  0  0
    2.9186    2.6985    5.1871 H   0  0  0  0  0  0  0  0  0  0  0  0
    3.9374    3.7742    4.1445 H   0  0  0  0  0  0  0  0  0  0  0  0
    1.3635    4.4192    2.5581 H   0  0  0  0  0  0  0  0  0  0  0  0
    2.8098    5.2353    2.9734 H   0  0  0  0  0  0  0  0  0  0  0  0
    1.3335    5.9379    3.3915 H   0  0  0  0  0  0  0  0  0  0  0  0
  1  2  2  0
  1 58  1  0
  1 59  1  0
  2  3  1  0
  2  4  1  0
  3 60  1  0
  3 61  1  0
  3 62  1  0
  4  5  1  0
  4 63  1  0
  4 64  1  0
  5  6  1  0
  5  7  1  0
  5 65  1  1
  6 66  1  0
  7 15  1  0
  7 49  1  1
  7  8  1  0
  8  9  1  0
  8 67  1  0
  8 68  1  0
  9 10  1  0
  9 69  1  0
  9 70  1  0
 10 16  1  0
 10 11  1  0
 10 71  1  1
 11 12  1  0
 11 13  1  0
 11 72  1  1
 12 73  1  0
 13 38  1  0
 13 14  1  6
 13 16  1  0
 14 15  1  0
 15 74  1  0
 15 75  1  0
 16 17  1  1
 16 18  1  0
 17 76  1  0
 17 77  1  0
 17 78  1  0
 18 19  1  0
 19 50  1  0
 19 20  1  1
 19 21  1  0
 20 79  1  0
 21 27  1  0
 21 22  1  0
 21 80  1  1
 22 23  1  0
 23 24  1  1
 23 25  1  0
 23 33  1  0
 24 81  1  0
 25 26  2  0
 25 27  1  0
 27 28  1  0
 27 29  1  1
 28 82  1  0
 28 83  1  0
 28 84  1  0
 29 30  1  0
 30 31  1  0
 30 32  2  0
 31 85  1  0
 31 86  1  0
 31 87  1  0
 33 51  1  0
 33 34  1  1
 33 35  1  0
 34 88  1  0
 35 36  1  0
 35 41  1  0
 35 89  1  1
 36 37  2  0
 36 38  1  6
 38 39  1  0
 38 40  1  6
 39 90  1  0
 39 91  1  0
 39 92  1  0
 40 93  1  0
 41 57  1  0
 41 42  1  1
 41 43  1  0
 42 94  1  0
 42 95  1  0
 42 96  1  0
 43 44  1  0
 43 97  1  0
 43 98  1  0
 44 45  1  0
 44 46  1  0
 44 99  1  1
 45100  1  0
 46 47  1  0
 46 50  1  0
 46 54  1  1
 47 48  1  0
 47 49  1  0
 47101  1  1
 48102  1  0
 48103  1  0
 48104  1  0
 49105  1  0
 49106  1  0
 50 51  1  0
 50107  1  6
 51 52  1  0
 51 53  1  6
 52108  1  0
 52109  1  0
 52110  1  0
 53111  1  0
 54 55  1  0
 54 56  1  0
 54 57  1  0
 55112  1  0
 55113  1  0
 55114  1  0
 56115  1  0
 56116  1  0
 56117  1  0
M  END
>  <i_m_ct_stereo_status>  (67) 
1

>  <s_m_source_file>  (67) 
/var/tmp/pbs.5075288.sched01/tmphpu8_cit/24996nucuhu.sdf

>  <i_m_source_file_index>  (67) 
6

>  <i_lp_mmshare_version>  (67) 
48012

>  <i_f3d_flags>  (67) 
0

>  <s_epik_input>  (67) 
W09IXVtDQEBIXTFbQ0BASF0oW0NAXTIoW0NAQF0xMzQpW0NIM10pW0NIMl1bQ0gyXVtDQEBdKFtDSDJdTzMpKFtDQEBIXShbT0hdKVtDSDJdQyg9W0NIMl0pW0NIM10pW0NIMl1bQ0BIXShbQ0gzXSlbQ0BdNTZbQ0BIXTdbQ0BdKE8yKShbT0hdKVtDQEBIXThPW0NAXShbT0hdKShDKD1PKVtDQF04KFtDSDNdKU9DKD1PKVtDSDNdKVtDQF0oW09IXSkoQzcoW0NIM10pW09IXSlbQ0BASF0oW1MrXShbTy1dKVtDQF00KFtDSDNdKVtPSF0pW0NAXShbQ0gzXSkoW0NIMl1bQ0BIXTVbT0hdKU9DNihbQ0gzXSlbQ0gzXQ==

>  <s_epik_cmdline>  (67) 
J2VwaWtfcHl0aG9uJywgJy1waHQnLCAnMi4wJywgJy1waCcsICc3LjAnLCAnLXRuJywgJzgnLCAnLW1hJywgJzIwMCcsICctaW1hZScsICc8aW5maWxlLm1hZT4nLCAnLW9tYWUnLCAnPG91dGZpbGUubWFlPic=

>  <r_lp_tautomer_probability>  (67) 
1

>  <r_epik_Ionization_Penalty>  (67) 
9.26535e-05

>  <r_epik_Ionization_Penalty_Charging>  (67) 
0

>  <r_epik_Ionization_Penalty_Neutral>  (67) 
9.26535e-05

>  <r_epik_State_Penalty>  (67) 
-0

>  <r_epik_Charging_Adjusted_Penalty>  (67) 
0

>  <i_epik_Tot_Q>  (67) 
0

>  <i_epik_Tot_abs_Q>  (67) 
2

>  <s_epik_Chemistry_Notes>  (67) 
This compound has an ester and may undergo hydrolysis at high or low pH.

>  <s_lp_Force_Field>  (67) 
OPLS3e

>  <r_lp_Energy>  (67) 
515.353

>  <b_lp_Chiralities_Consistent>  (67) 
1

>  <s_lp_Variant>  (67) 
73:0-1

>  <s_i_glide_gridfile>  (67) 
pfpi4k_grid

>  <i_i_glide_lignum>  (67) 
6

>  <i_i_glide_rotatable_bonds>  (67) 
13

>  <r_i_docking_score>  (67) 
-2.07871

>  <r_i_glide_ligand_efficiency>  (67) 
-0.0364685

>  <r_i_glide_ligand_efficiency_sa>  (67) 
-0.140349

>  <r_i_glide_ligand_efficiency_ln>  (67) 
-0.412192

>  <r_i_glide_gscore>  (67) 
-2.07871

>  <r_i_glide_lipo>  (67) 
-0.0310101

>  <r_i_glide_hbond>  (67) 
-0.0702157

>  <r_i_glide_metal>  (67) 
-0

>  <r_i_glide_rewards>  (67) 
0

>  <r_i_glide_evdw>  (67) 
-25.0682

>  <r_i_glide_ecoul>  (67) 
-5.59887

>  <r_i_glide_erotb>  (67) 
0.127261

>  <r_i_glide_esite>  (67) 
-0.0114995

>  <r_i_glide_emodel>  (67) 
-29.9394

>  <r_i_glide_energy>  (67) 
-30.6671

>  <r_i_glide_einternal>  (67) 
6.818

>  <r_i_glide_intrahb_reward>  (67) 
-0

>  <i_i_glide_confnum>  (67) 
2

>  <i_i_glide_posenum>  (67) 
14

>  <r_i_glide_eff_state_penalty>  (67) 
0

>  <ligand_id>  (67) 
73

>  <original_smiles>  (67) 
C=C(C)CC(O)C12CCC3C(O)C4(OC1)C3(C)OC1(O)C3OC(O)(C(=O)C3(C)OC(C)=O)C3(O)C([S+]([O-])C4(C)O)C4(C)CC(O)C(C(C)C2)(C1C3(C)O)C(C)(C)O4

>  <smiles>  (67) 
[H]OC12OC([H])(C3(O[H])OC4(C([H])([H])[H])C5([H])C([H])([H])C([H])([H])C6(C([H])(O[H])C([H])([H])C(=C([H])[H])C([H])([H])[H])C([H])([H])OC4(C5([H])O[H])C(O[H])(C([H])([H])[H])S(=O)C4([H])C5(C([H])([H])[H])OC(C([H])([H])[H])(C([H])([H])[H])C(C([H])(O[H])C5([H])[H])(C([H])(C([H])([H])[H])C6([H])[H])C3([H])C(O[H])(C([H])([H])[H])C14O[H])C(OC(=O)C([H])([H])[H])(C([H])([H])[H])C2=O

$$$$
75:0:0
     RDKit          3D

123131  0  0  1  0  0  0  0  0999 V2000
    0.6942   -5.0233    8.1959 C   0  0  0  0  0  0  0  0  0  0  0  0
    1.0336   -6.1783    7.2334 C   0  0  0  0  0  0  0  0  0  0  0  0
    0.4677   -7.4587    7.8783 C   0  0  0  0  0  0  0  0  0  0  0  0
    2.5660   -6.2344    6.8896 C   0  0  2  0  0  0  0  0  0  0  0  0
    3.2546   -4.9646    6.6796 O   0  0  0  0  0  0  0  0  0  0  0  0
    3.1229   -4.0415    5.5644 C   0  0  1  0  0  0  0  0  0  0  0  0
    1.6982   -4.1345    4.9507 C   0  0  0  0  0  0  0  0  0  0  0  0
    3.1438   -2.6862    6.3555 C   0  0  0  0  0  0  0  0  0  0  0  0
    2.9324   -1.3647    5.5797 C   0  0  0  0  0  0  0  0  0  0  0  0
    4.1166   -0.6800    4.8682 C   0  0  1  0  0  0  0  0  0  0  0  0
    3.4336    0.4143    4.2376 O   0  0  0  0  0  0  0  0  0  0  0  0
    4.0131    1.6165    4.7186 C   0  0  1  0  0  0  0  0  0  0  0  0
    3.2448    2.9135    4.6863 C   0  0  1  0  0  0  0  0  0  0  0  0
    1.9367    2.6256    5.1978 O   0  0  0  0  0  0  0  0  0  0  0  0
    0.9254    3.5819    4.9718 C   0  0  2  0  0  0  0  0  0  0  0  0
   -0.0849    3.5240    5.9662 O   0  0  0  0  0  0  0  0  0  0  0  0
   -0.7569    2.2615    6.0616 C   0  0  1  0  0  0  0  0  0  0  0  0
   -1.7103    2.3150    7.2680 C   0  0  0  0  0  0  0  0  0  0  0  0
   -2.5771    1.1929    7.2872 O   0  0  0  0  0  0  0  0  0  0  0  0
   -1.4875    1.9800    4.7342 C   0  0  1  0  0  0  0  0  0  0  0  0
   -2.6035    2.8465    4.5455 O   0  0  0  0  0  0  0  0  0  0  0  0
   -0.4965    2.0692    3.5728 C   0  0  1  0  0  0  0  0  0  0  0  0
   -1.1376    1.8385    2.3318 O   0  0  0  0  0  0  0  0  0  0  0  0
    0.3088    3.3827    3.5756 C   0  0  1  0  0  0  0  0  0  0  0  0
   -0.5028    4.4961    3.2840 O   0  0  0  0  0  0  0  0  0  0  0  0
    4.0469    3.7169    5.7429 C   0  0  0  0  0  0  0  0  0  0  0  0
    4.8701    2.7587    6.4519 O   0  0  0  0  0  0  0  0  0  0  0  0
    4.3070    1.4833    6.1796 C   0  0  2  0  0  0  0  0  0  0  0  0
    5.3150   -0.0540    6.1737 S   0  0  0  0  0  0  0  0  0  0  0  0
    6.6349    0.2990    5.4756 O   0  0  0  0  0  0  0  0  0  0  0  0
    4.8910   -1.5461    3.8179 C   0  0  2  0  0  0  0  0  0  0  0  0
    5.3027   -0.7309    2.5761 C   0  0  1  0  0  0  0  0  0  0  0  0
    6.6077   -1.0584    2.0744 O   0  0  0  0  0  0  0  0  0  0  0  0
    4.2856   -0.9482    1.4893 C   0  0  1  0  0  0  0  0  0  0  0  0
    4.5962   -0.0384    0.4559 O   0  0  0  0  0  0  0  0  0  0  0  0
    4.3054   -2.4343    1.0197 C   0  0  2  0  0  0  0  0  0  0  0  0
    5.2626   -2.8554   -0.1212 C   0  0  0  0  0  0  0  0  0  0  0  0
    4.4749   -2.8593   -1.4666 C   0  0  1  0  0  0  0  0  0  0  0  0
    4.5613   -1.4982   -2.1866 C   0  0  0  0  0  0  0  0  0  0  0  0
    5.0089   -3.8503   -2.3251 O   0  0  0  0  0  0  0  0  0  0  0  0
    3.0296   -3.1752   -1.0662 C   0  0  0  0  0  0  0  0  0  0  0  0
    2.9614   -2.7753    0.4154 C   0  0  0  0  0  0  0  0  0  0  0  0
    1.9432   -2.6566    1.0763 O   0  0  0  0  0  0  0  0  0  0  0  0
    4.5544   -3.3074    2.1404 O   0  0  0  0  0  0  0  0  0  0  0  0
    4.2192   -2.9176    3.4723 C   0  0  1  0  0  0  0  0  0  0  0  0
    4.3856   -4.1206    4.5534 C   0  0  1  0  0  0  0  0  0  0  0  0
    5.6403   -3.8357    5.4780 C   0  0  0  0  0  0  0  0  0  0  0  0
    4.7434   -5.5867    3.8993 C   0  0  1  0  0  0  0  0  0  0  0  0
    5.2526   -6.5241    5.0171 C   0  0  0  0  0  0  0  0  0  0  0  0
    4.5871   -7.2871    5.8851 C   0  0  0  0  0  0  0  0  0  0  0  0
    3.0998   -7.4235    6.0181 C   0  0  1  0  0  0  0  0  0  0  0  0
    2.9182   -8.6221    6.7511 O   0  0  0  0  0  0  0  0  0  0  0  0
    2.4337   -7.6894    4.6501 C   0  0  0  0  0  0  0  0  0  0  0  0
    3.2965   -7.6262    3.5044 O   0  0  0  0  0  0  0  0  0  0  0  0
    3.7265   -6.3808    2.9272 C   0  0  1  0  0  0  0  0  0  0  0  0
    2.4425   -5.6961    2.3509 C   0  0  0  0  0  0  0  0  0  0  0  0
    4.6032   -6.9110    1.7232 C   0  0  1  0  0  0  0  0  0  0  0  0
    4.4718   -6.1837    0.5084 O   0  0  0  0  0  0  0  0  0  0  0  0
    6.0473   -6.8146    2.1889 C   0  0  1  0  0  0  0  0  0  0  0  0
    7.0371   -6.7825    1.1769 O   0  0  0  0  0  0  0  0  0  0  0  0
    6.0532   -5.5462    3.0200 C   0  0  0  0  0  0  0  0  0  0  0  0
    1.2276   -5.1198    9.1443 H   0  0  0  0  0  0  0  0  0  0  0  0
   -0.3735   -4.9818    8.4003 H   0  0  0  0  0  0  0  0  0  0  0  0
    0.9530   -4.0533    7.7853 H   0  0  0  0  0  0  0  0  0  0  0  0
    0.4629   -6.0372    6.3200 H   0  0  0  0  0  0  0  0  0  0  0  0
    1.0206   -7.7316    8.7824 H   0  0  0  0  0  0  0  0  0  0  0  0
    0.4887   -8.3160    7.2025 H   0  0  0  0  0  0  0  0  0  0  0  0
   -0.5804   -7.3263    8.1616 H   0  0  0  0  0  0  0  0  0  0  0  0
    3.0016   -6.4644    7.8745 H   0  0  0  0  0  0  0  0  0  0  0  0
    1.5021   -3.4935    4.0993 H   0  0  0  0  0  0  0  0  0  0  0  0
    0.9307   -3.8427    5.6595 H   0  0  0  0  0  0  0  0  0  0  0  0
    1.4545   -5.1310    4.6528 H   0  0  0  0  0  0  0  0  0  0  0  0
    2.3062   -2.6903    7.0343 H   0  0  0  0  0  0  0  0  0  0  0  0
    3.9721   -2.6016    7.0595 H   0  0  0  0  0  0  0  0  0  0  0  0
    2.1125   -1.4658    4.8717 H   0  0  0  0  0  0  0  0  0  0  0  0
    2.5460   -0.6468    6.3014 H   0  0  0  0  0  0  0  0  0  0  0  0
    4.9682    1.7335    4.2075 H   0  0  0  0  0  0  0  0  0  0  0  0
    3.2059    3.3766    3.6966 H   0  0  0  0  0  0  0  0  0  0  0  0
    1.3770    4.5738    5.0774 H   0  0  0  0  0  0  0  0  0  0  0  0
   -0.0142    1.4855    6.2399 H   0  0  0  0  0  0  0  0  0  0  0  0
   -1.1561    2.3754    8.2113 H   0  0  0  0  0  0  0  0  0  0  0  0
   -2.3301    3.2106    7.2122 H   0  0  0  0  0  0  0  0  0  0  0  0
   -3.1487    1.2716    6.5147 H   0  0  0  0  0  0  0  0  0  0  0  0
   -1.8646    0.9559    4.7509 H   0  0  0  0  0  0  0  0  0  0  0  0
   -3.0086    2.6542    3.6894 H   0  0  0  0  0  0  0  0  0  0  0  0
    0.2195    1.2480    3.6976 H   0  0  0  0  0  0  0  0  0  0  0  0
   -1.4945    2.6832    2.0308 H   0  0  0  0  0  0  0  0  0  0  0  0
    1.0926    3.3289    2.8207 H   0  0  0  0  0  0  0  0  0  0  0  0
   -0.5232    4.5646    2.3091 H   0  0  0  0  0  0  0  0  0  0  0  0
    4.7164    4.4218    5.2676 H   0  0  0  0  0  0  0  0  0  0  0  0
    3.4079    4.2831    6.4145 H   0  0  0  0  0  0  0  0  0  0  0  0
    3.4103    1.3400    6.7808 H   0  0  0  0  0  0  0  0  0  0  0  0
    5.8489   -1.7536    4.2523 H   0  0  0  0  0  0  0  0  0  0  0  0
    5.4094    0.3217    2.8047 H   0  0  0  0  0  0  0  0  0  0  0  0
    7.0587   -0.2488    1.8924 H   0  0  0  0  0  0  0  0  0  0  0  0
    3.3000   -0.6806    1.8894 H   0  0  0  0  0  0  0  0  0  0  0  0
    3.9445   -0.0957   -0.2070 H   0  0  0  0  0  0  0  0  0  0  0  0
    6.1415   -2.2376   -0.1657 H   0  0  0  0  0  0  0  0  0  0  0  0
    5.6104   -3.8684    0.0869 H   0  0  0  0  0  0  0  0  0  0  0  0
    4.0744   -0.7050   -1.5982 H   0  0  0  0  0  0  0  0  0  0  0  0
    4.1213   -1.5694   -3.1855 H   0  0  0  0  0  0  0  0  0  0  0  0
    5.6000   -1.2016   -2.3182 H   0  0  0  0  0  0  0  0  0  0  0  0
    4.6277   -4.7022   -2.1282 H   0  0  0  0  0  0  0  0  0  0  0  0
    2.3233   -2.6360   -1.6902 H   0  0  0  0  0  0  0  0  0  0  0  0
    2.8008   -4.2397   -1.1457 H   0  0  0  0  0  0  0  0  0  0  0  0
    3.1627   -2.6691    3.3517 H   0  0  0  0  0  0  0  0  0  0  0  0
    6.5804   -3.8925    4.9461 H   0  0  0  0  0  0  0  0  0  0  0  0
    5.7267   -4.5108    6.3247 H   0  0  0  0  0  0  0  0  0  0  0  0
    5.6644   -2.8623    5.9563 H   0  0  0  0  0  0  0  0  0  0  0  0
    6.3188   -6.5823    5.1484 H   0  0  0  0  0  0  0  0  0  0  0  0
    5.1797   -7.8528    6.5927 H   0  0  0  0  0  0  0  0  0  0  0  0
    3.4854   -8.6186    7.5107 H   0  0  0  0  0  0  0  0  0  0  0  0
    2.0958   -8.7298    4.6173 H   0  0  0  0  0  0  0  0  0  0  0  0
    1.4841   -7.1747    4.5427 H   0  0  0  0  0  0  0  0  0  0  0  0
    2.4691   -4.6265    2.4433 H   0  0  0  0  0  0  0  0  0  0  0  0
    1.5223   -6.0403    2.8030 H   0  0  0  0  0  0  0  0  0  0  0  0
    2.2507   -5.9245    1.3061 H   0  0  0  0  0  0  0  0  0  0  0  0
    4.3576   -7.9483    1.4747 H   0  0  0  0  0  0  0  0  0  0  0  0
    4.6128   -5.2655    0.7020 H   0  0  0  0  0  0  0  0  0  0  0  0
    6.2696   -7.6762    2.8299 H   0  0  0  0  0  0  0  0  0  0  0  0
    6.8099   -6.1054    0.5531 H   0  0  0  0  0  0  0  0  0  0  0  0
    6.1711   -4.7181    2.3433 H   0  0  0  0  0  0  0  0  0  0  0  0
    6.9932   -5.4902    3.5766 H   0  0  0  0  0  0  0  0  0  0  0  0
  1  2  1  0
  1 62  1  0
  1 63  1  0
  1 64  1  0
  2  3  1  0
  2  4  1  0
  2 65  1  0
  3 66  1  0
  3 67  1  0
  3 68  1  0
  4 51  1  0
  4  5  1  0
  4 69  1  1
  5  6  1  0
  6 46  1  0
  6  7  1  6
  6  8  1  0
  7 70  1  0
  7 71  1  0
  7 72  1  0
  8  9  1  0
  8 73  1  0
  8 74  1  0
  9 10  1  0
  9 75  1  0
  9 76  1  0
 29 10  1  6
 10 11  1  6
 10 31  1  0
 11 12  1  0
 12 28  1  0
 12 13  1  0
 12 77  1  6
 13 14  1  0
 13 26  1  0
 13 78  1  6
 14 15  1  0
 15 24  1  0
 15 16  1  0
 15 79  1  6
 16 17  1  0
 17 18  1  0
 17 20  1  0
 17 80  1  1
 18 19  1  0
 18 81  1  0
 18 82  1  0
 19 83  1  0
 20 21  1  0
 20 22  1  0
 20 84  1  1
 21 85  1  0
 22 23  1  0
 22 24  1  0
 22 86  1  1
 23 87  1  0
 24 25  1  0
 24 88  1  6
 25 89  1  0
 26 27  1  0
 26 90  1  0
 26 91  1  0
 27 28  1  0
 28 29  1  0
 28 92  1  1
 29 30  2  0
 31 45  1  0
 31 32  1  0
 31 93  1  1
 32 33  1  0
 32 34  1  0
 32 94  1  1
 33 95  1  0
 34 35  1  0
 34 36  1  0
 34 96  1  1
 35 97  1  0
 36 42  1  0
 36 37  1  0
 36 44  1  1
 37 38  1  0
 37 98  1  0
 37 99  1  0
 38 39  1  0
 38 40  1  6
 38 41  1  0
 39100  1  0
 39101  1  0
 39102  1  0
 40103  1  0
 41 42  1  0
 41104  1  0
 41105  1  0
 42 43  2  0
 44 45  1  0
 45 46  1  0
 45106  1  6
 46 47  1  1
 46 48  1  0
 47107  1  0
 47108  1  0
 47109  1  0
 48 55  1  0
 48 61  1  6
 48 49  1  0
 49 50  2  0
 49110  1  0
 50 51  1  0
 50111  1  0
 51 52  1  1
 51 53  1  0
 52112  1  0
 53 54  1  0
 53113  1  0
 53114  1  0
 54 55  1  0
 55 56  1  6
 55 57  1  0
 56115  1  0
 56116  1  0
 56117  1  0
 57 58  1  0
 57 59  1  0
 57118  1  6
 58119  1  0
 59 60  1  0
 59 61  1  0
 59120  1  1
 60121  1  0
 61122  1  0
 61123  1  0
M  END
>  <i_m_ct_stereo_status>  (68) 
1

>  <s_m_source_file>  (68) 
/var/tmp/pbs.5075288.sched01/tmphpu8_cit/24996nucuhu.sdf

>  <i_m_source_file_index>  (68) 
8

>  <i_lp_mmshare_version>  (68) 
48012

>  <i_f3d_flags>  (68) 
0

>  <s_epik_input>  (68) 
W0NIMl0xW0NIMl1bQ0BdMihbQ0gzXSlPW0NAQEhdKFtDSF0oW0NIM10pW0NIM10pW0NAXShbT0hdKShbQ0hdPVtDSF0zKVtDSDJdT1tDQF0oW0NIM10pKFtDQEBIXShbT0hdKVtDQEBIXShbT0hdKVtDSDJdNClbQ0BAXTM0W0NAQF0yKFtDSDNdKVtDQEhdKE9bQ0BAXTUoW0NASF0oW09IXSlbQ0BASF02W09IXSlbQ0gyXVtDQEBdKFtDSDNdKShbT0hdKVtDSDJdQzU9TylbQ0BASF02W0NAQF0xN09bQ0BASF04W0NAQEhdKFtTK103W08tXSlPW0NIMl1bQ0BASF04T1tDQEBIXTlPW0NAQEhdKFtDSDJdW09IXSlbQ0BASF0oW09IXSlbQ0BASF0oW09IXSlbQ0BIXTlbT0hd

>  <s_epik_cmdline>  (68) 
J2VwaWtfcHl0aG9uJywgJy1waHQnLCAnMi4wJywgJy1waCcsICc3LjAnLCAnLXRuJywgJzgnLCAnLW1hJywgJzIwMCcsICctaW1hZScsICc8aW5maWxlLm1hZT4nLCAnLW9tYWUnLCAnPG91dGZpbGUubWFlPic=

>  <r_lp_tautomer_probability>  (68) 
1

>  <r_epik_Ionization_Penalty>  (68) 
4.31681e-06

>  <r_epik_Ionization_Penalty_Charging>  (68) 
0

>  <r_epik_Ionization_Penalty_Neutral>  (68) 
4.31681e-06

>  <r_epik_State_Penalty>  (68) 
-0

>  <r_epik_Charging_Adjusted_Penalty>  (68) 
0

>  <i_epik_Tot_Q>  (68) 
0

>  <i_epik_Tot_abs_Q>  (68) 
2

>  <s_epik_Chemistry_Notes>  (68) 
This compound contains an acetal/aminal-like group ( X-CH(R)-Y where X, Y are N, S, or O) that may be acid/base labile, releasing an aldehyde.

>  <s_lp_Force_Field>  (68) 
OPLS3e

>  <r_lp_Energy>  (68) 
148.779

>  <b_lp_Chiralities_Consistent>  (68) 
1

>  <s_lp_Variant>  (68) 
75:0-1

>  <s_i_glide_gridfile>  (68) 
pfpi4k_grid

>  <i_i_glide_lignum>  (68) 
8

>  <i_i_glide_rotatable_bonds>  (68) 
14

>  <r_i_docking_score>  (68) 
-4.28543

>  <r_i_glide_ligand_efficiency>  (68) 
-0.070253

>  <r_i_glide_ligand_efficiency_sa>  (68) 
-0.276551

>  <r_i_glide_ligand_efficiency_ln>  (68) 
-0.838493

>  <r_i_glide_gscore>  (68) 
-4.28543

>  <r_i_glide_lipo>  (68) 
-0.386386

>  <r_i_glide_hbond>  (68) 
-0.140874

>  <r_i_glide_metal>  (68) 
-0

>  <r_i_glide_rewards>  (68) 
-0.525996

>  <r_i_glide_evdw>  (68) 
-25.4711

>  <r_i_glide_ecoul>  (68) 
-13.2619

>  <r_i_glide_erotb>  (68) 
0.0832433

>  <r_i_glide_esite>  (68) 
-0.0525847

>  <r_i_glide_emodel>  (68) 
-50.6628

>  <r_i_glide_energy>  (68) 
-38.733

>  <r_i_glide_einternal>  (68) 
7.10611

>  <r_i_glide_intrahb_reward>  (68) 
-0.5

>  <i_i_glide_confnum>  (68) 
2

>  <i_i_glide_posenum>  (68) 
16

>  <r_i_glide_eff_state_penalty>  (68) 
0

>  <ligand_id>  (68) 
75

>  <original_smiles>  (68) 
CC(C)C1OC2(C)CCC3(OC4C(OC5OC(CO)C(O)C(O)C5O)COC4[S+]3[O-])C3C(O)C(O)C4(CC(C)(O)CC4=O)OC3C2(C)C23C=CC1(O)COC2(C)C(O)C(O)C3

>  <smiles>  (68) 
[H]OC([H])([H])C1([H])OC([H])(OC2([H])C([H])([H])OC3([H])S(=O)C4(OC32[H])C([H])([H])C([H])([H])C2(C([H])([H])[H])OC([H])(C([H])(C([H])([H])[H])C([H])([H])[H])C3(O[H])C([H])=C([H])C5(C([H])([H])C([H])(O[H])C([H])(O[H])C5(C([H])([H])[H])OC3([H])[H])C2(C([H])([H])[H])C2([H])OC3(C(=O)C([H])([H])C(O[H])(C([H])([H])[H])C3([H])[H])C([H])(O[H])C([H])(O[H])C24[H])C([H])(O[H])C([H])(O[H])C1([H])O[H]

$$$$
75:0:1
     RDKit          3D

123131  0  0  1  0  0  0  0  0999 V2000
    0.6134   -5.1428    8.0402 C   0  0  0  0  0  0  0  0  0  0  0  0
    0.9968   -6.3311    7.1335 C   0  0  0  0  0  0  0  0  0  0  0  0
    0.4754   -7.5968    7.8502 C   0  0  0  0  0  0  0  0  0  0  0  0
    2.5318   -6.3741    6.7999 C   0  0  2  0  0  0  0  0  0  0  0  0
    3.2051   -5.0955    6.6063 O   0  0  0  0  0  0  0  0  0  0  0  0
    3.0757   -4.1624    5.5011 C   0  0  1  0  0  0  0  0  0  0  0  0
    1.6602   -4.2562    4.8615 C   0  0  0  0  0  0  0  0  0  0  0  0
    3.0819   -2.8156    6.3142 C   0  0  0  0  0  0  0  0  0  0  0  0
    2.8679   -1.4869    5.5544 C   0  0  0  0  0  0  0  0  0  0  0  0
    4.0583   -0.7799    4.8592 C   0  0  1  0  0  0  0  0  0  0  0  0
    3.3688    0.3168    4.2387 O   0  0  0  0  0  0  0  0  0  0  0  0
    3.9414    1.5212    4.7296 C   0  0  1  0  0  0  0  0  0  0  0  0
    3.1566    2.8055    4.7149 C   0  0  1  0  0  0  0  0  0  0  0  0
    1.8484    2.4891    5.2095 O   0  0  0  0  0  0  0  0  0  0  0  0
    0.8354    3.4426    4.9978 C   0  0  2  0  0  0  0  0  0  0  0  0
   -0.1755    3.3863    5.9787 O   0  0  0  0  0  0  0  0  0  0  0  0
   -0.8387    2.1221    6.0573 C   0  0  1  0  0  0  0  0  0  0  0  0
   -1.8001    2.1650    7.2489 C   0  0  0  0  0  0  0  0  0  0  0  0
   -2.5930    0.9895    7.2874 O   0  0  0  0  0  0  0  0  0  0  0  0
   -1.5561    1.8357    4.7199 C   0  0  1  0  0  0  0  0  0  0  0  0
   -2.6649    2.7094    4.5262 O   0  0  0  0  0  0  0  0  0  0  0  0
   -0.5710    1.9405    3.5554 C   0  0  1  0  0  0  0  0  0  0  0  0
   -1.2351    1.7158    2.3092 O   0  0  0  0  0  0  0  0  0  0  0  0
    0.2248    3.2624    3.6014 C   0  0  1  0  0  0  0  0  0  0  0  0
   -0.5818    4.4019    3.3791 O   0  0  0  0  0  0  0  0  0  0  0  0
    3.9399    3.5958    5.7925 C   0  0  0  0  0  0  0  0  0  0  0  0
    4.7601    2.6432    6.4931 O   0  0  0  0  0  0  0  0  0  0  0  0
    4.2146    1.3686    6.1998 C   0  0  2  0  0  0  0  0  0  0  0  0
    5.2290   -0.1668    6.1874 S   0  0  0  0  0  0  0  0  0  0  0  0
    6.5601    0.1952    5.5156 O   0  0  0  0  0  0  0  0  0  0  0  0
    4.8564   -1.6309    3.8150 C   0  0  2  0  0  0  0  0  0  0  0  0
    5.2828   -0.7973    2.5838 C   0  0  1  0  0  0  0  0  0  0  0  0
    6.5682   -1.1228    2.0893 O   0  0  0  0  0  0  0  0  0  0  0  0
    4.2688   -0.9982    1.4814 C   0  0  1  0  0  0  0  0  0  0  0  0
    4.5580   -0.0448    0.4975 O   0  0  0  0  0  0  0  0  0  0  0  0
    4.3008   -2.4776    0.9951 C   0  0  2  0  0  0  0  0  0  0  0  0
    5.2633   -2.8832   -0.1490 C   0  0  0  0  0  0  0  0  0  0  0  0
    4.4785   -2.8757   -1.4878 C   0  0  1  0  0  0  0  0  0  0  0  0
    4.5638   -1.5213   -2.2235 C   0  0  0  0  0  0  0  0  0  0  0  0
    5.0123   -3.8560   -2.3699 O   0  0  0  0  0  0  0  0  0  0  0  0
    3.0383   -3.2045   -1.0981 C   0  0  0  0  0  0  0  0  0  0  0  0
    2.9531   -2.7861    0.3801 C   0  0  0  0  0  0  0  0  0  0  0  0
    1.9315   -2.6041    1.0129 O   0  0  0  0  0  0  0  0  0  0  0  0
    4.5584   -3.3604    2.1037 O   0  0  0  0  0  0  0  0  0  0  0  0
    4.1909   -3.0022    3.4394 C   0  0  1  0  0  0  0  0  0  0  0  0
    4.3529   -4.2184    4.5049 C   0  0  1  0  0  0  0  0  0  0  0  0
    5.5978   -3.9342    5.4441 C   0  0  0  0  0  0  0  0  0  0  0  0
    4.7277   -5.6768    3.8422 C   0  0  1  0  0  0  0  0  0  0  0  0
    5.2306   -6.6280    4.9523 C   0  0  0  0  0  0  0  0  0  0  0  0
    4.5630   -7.4083    5.8029 C   0  0  0  0  0  0  0  0  0  0  0  0
    3.0762   -7.5549    5.9139 C   0  0  1  0  0  0  0  0  0  0  0  0
    2.8931   -8.7583    6.6395 O   0  0  0  0  0  0  0  0  0  0  0  0
    2.4225   -7.8042    4.5308 C   0  0  0  0  0  0  0  0  0  0  0  0
    3.3040   -7.7223    3.4041 O   0  0  0  0  0  0  0  0  0  0  0  0
    3.7245   -6.4655    2.8495 C   0  0  1  0  0  0  0  0  0  0  0  0
    2.4452   -5.7825    2.2685 C   0  0  0  0  0  0  0  0  0  0  0  0
    4.6164   -6.9744    1.6529 C   0  0  1  0  0  0  0  0  0  0  0  0
    4.4634   -6.2367    0.4500 O   0  0  0  0  0  0  0  0  0  0  0  0
    6.0617   -6.8746    2.1348 C   0  0  1  0  0  0  0  0  0  0  0  0
    7.0466   -6.7679    1.1237 O   0  0  0  0  0  0  0  0  0  0  0  0
    6.0512   -5.6193    2.9807 C   0  0  0  0  0  0  0  0  0  0  0  0
    1.1336   -5.1920    8.9989 H   0  0  0  0  0  0  0  0  0  0  0  0
   -0.4599   -5.1376    8.2369 H   0  0  0  0  0  0  0  0  0  0  0  0
    0.8360   -4.1814    7.5992 H   0  0  0  0  0  0  0  0  0  0  0  0
    0.4345   -6.2513    6.2092 H   0  0  0  0  0  0  0  0  0  0  0  0
    1.0358   -7.7933    8.7670 H   0  0  0  0  0  0  0  0  0  0  0  0
    0.5135   -8.4936    7.2313 H   0  0  0  0  0  0  0  0  0  0  0  0
   -0.5696   -7.4723    8.1326 H   0  0  0  0  0  0  0  0  0  0  0  0
    2.9608   -6.6132    7.7771 H   0  0  0  0  0  0  0  0  0  0  0  0
    1.4838   -3.6263    3.9973 H   0  0  0  0  0  0  0  0  0  0  0  0
    0.8716   -3.9641    5.5439 H   0  0  0  0  0  0  0  0  0  0  0  0
    1.4290   -5.2564    4.5617 H   0  0  0  0  0  0  0  0  0  0  0  0
    2.2416   -2.8383    6.9947 H   0  0  0  0  0  0  0  0  0  0  0  0
    3.9097   -2.7349    7.0197 H   0  0  0  0  0  0  0  0  0  0  0  0
    2.0525   -1.5914    4.8376 H   0  0  0  0  0  0  0  0  0  0  0  0
    2.4649   -0.7825    6.2844 H   0  0  0  0  0  0  0  0  0  0  0  0
    4.8920    1.6887    4.2290 H   0  0  0  0  0  0  0  0  0  0  0  0
    3.1213    3.2812    3.7332 H   0  0  0  0  0  0  0  0  0  0  0  0
    1.2846    4.4413    5.1071 H   0  0  0  0  0  0  0  0  0  0  0  0
   -0.1032    1.3486    6.2489 H   0  0  0  0  0  0  0  0  0  0  0  0
   -1.2676    2.2957    8.1924 H   0  0  0  0  0  0  0  0  0  0  0  0
   -2.4630    3.0351    7.1729 H   0  0  0  0  0  0  0  0  0  0  0  0
   -3.1559    1.0229    6.4994 H   0  0  0  0  0  0  0  0  0  0  0  0
   -1.9376    0.8081    4.7356 H   0  0  0  0  0  0  0  0  0  0  0  0
   -3.0488    2.5011    3.6590 H   0  0  0  0  0  0  0  0  0  0  0  0
    0.1508    1.1368    3.6811 H   0  0  0  0  0  0  0  0  0  0  0  0
   -0.6209    1.8606    1.5712 H   0  0  0  0  0  0  0  0  0  0  0  0
    1.0084    3.2331    2.8404 H   0  0  0  0  0  0  0  0  0  0  0  0
   -0.6222    4.5010    2.4001 H   0  0  0  0  0  0  0  0  0  0  0  0
    4.6080    4.3172    5.3285 H   0  0  0  0  0  0  0  0  0  0  0  0
    3.2846    4.1475    6.4674 H   0  0  0  0  0  0  0  0  0  0  0  0
    3.3082    1.2068    6.7874 H   0  0  0  0  0  0  0  0  0  0  0  0
    5.8220   -1.8327    4.2601 H   0  0  0  0  0  0  0  0  0  0  0  0
    5.3493    0.2537    2.8287 H   0  0  0  0  0  0  0  0  0  0  0  0
    6.5952   -2.0433    1.8856 H   0  0  0  0  0  0  0  0  0  0  0  0
    3.2808   -0.7594    1.8956 H   0  0  0  0  0  0  0  0  0  0  0  0
    3.9171   -0.1030   -0.1906 H   0  0  0  0  0  0  0  0  0  0  0  0
    6.1484   -2.2535   -0.1900 H   0  0  0  0  0  0  0  0  0  0  0  0
    5.6177   -3.8999    0.0414 H   0  0  0  0  0  0  0  0  0  0  0  0
    4.0240   -0.7454   -1.6994 H   0  0  0  0  0  0  0  0  0  0  0  0
    4.1596   -1.5997   -3.2397 H   0  0  0  0  0  0  0  0  0  0  0  0
    5.5984   -1.2003   -2.3218 H   0  0  0  0  0  0  0  0  0  0  0  0
    4.5378   -4.6775   -2.2764 H   0  0  0  0  0  0  0  0  0  0  0  0
    2.3285   -2.6636   -1.7227 H   0  0  0  0  0  0  0  0  0  0  0  0
    2.8139   -4.2621   -1.1879 H   0  0  0  0  0  0  0  0  0  0  0  0
    3.1424   -2.7651    3.2986 H   0  0  0  0  0  0  0  0  0  0  0  0
    6.5431   -3.9768    4.9170 H   0  0  0  0  0  0  0  0  0  0  0  0
    5.6805   -4.6221    6.2852 H   0  0  0  0  0  0  0  0  0  0  0  0
    5.6130   -2.9711    5.9381 H   0  0  0  0  0  0  0  0  0  0  0  0
    6.2990   -6.6738    5.0972 H   0  0  0  0  0  0  0  0  0  0  0  0
    5.1438   -7.9752    6.5161 H   0  0  0  0  0  0  0  0  0  0  0  0
    3.0840   -9.4953    6.0755 H   0  0  0  0  0  0  0  0  0  0  0  0
    2.0973   -8.8446    4.4800 H   0  0  0  0  0  0  0  0  0  0  0  0
    1.4758   -7.2954    4.4188 H   0  0  0  0  0  0  0  0  0  0  0  0
    2.4659   -4.7084    2.3557 H   0  0  0  0  0  0  0  0  0  0  0  0
    1.5214   -6.1367    2.7050 H   0  0  0  0  0  0  0  0  0  0  0  0
    2.2547   -6.0016    1.2204 H   0  0  0  0  0  0  0  0  0  0  0  0
    4.3838   -8.0066    1.3853 H   0  0  0  0  0  0  0  0  0  0  0  0
    4.7010   -5.3407    0.6275 H   0  0  0  0  0  0  0  0  0  0  0  0
    6.2869   -7.7457    2.7540 H   0  0  0  0  0  0  0  0  0  0  0  0
    7.8956   -6.9527    1.5006 H   0  0  0  0  0  0  0  0  0  0  0  0
    6.1672   -4.7893    2.3026 H   0  0  0  0  0  0  0  0  0  0  0  0
    6.9809   -5.5531    3.5459 H   0  0  0  0  0  0  0  0  0  0  0  0
  1  2  1  0
  1 62  1  0
  1 63  1  0
  1 64  1  0
  2  3  1  0
  2  4  1  0
  2 65  1  0
  3 66  1  0
  3 67  1  0
  3 68  1  0
  4 51  1  0
  4  5  1  0
  4 69  1  1
  5  6  1  0
  6 46  1  0
  6  7  1  6
  6  8  1  0
  7 70  1  0
  7 71  1  0
  7 72  1  0
  8  9  1  0
  8 73  1  0
  8 74  1  0
  9 10  1  0
  9 75  1  0
  9 76  1  0
 29 10  1  6
 10 11  1  6
 10 31  1  0
 11 12  1  0
 12 28  1  0
 12 13  1  0
 12 77  1  6
 13 14  1  0
 13 26  1  0
 13 78  1  6
 14 15  1  0
 15 24  1  0
 15 16  1  0
 15 79  1  6
 16 17  1  0
 17 18  1  0
 17 20  1  0
 17 80  1  1
 18 19  1  0
 18 81  1  0
 18 82  1  0
 19 83  1  0
 20 21  1  0
 20 22  1  0
 20 84  1  1
 21 85  1  0
 22 23  1  0
 22 24  1  0
 22 86  1  1
 23 87  1  0
 24 25  1  0
 24 88  1  6
 25 89  1  0
 26 27  1  0
 26 90  1  0
 26 91  1  0
 27 28  1  0
 28 29  1  0
 28 92  1  1
 29 30  2  0
 31 45  1  0
 31 32  1  0
 31 93  1  1
 32 33  1  0
 32 34  1  0
 32 94  1  1
 33 95  1  0
 34 35  1  0
 34 36  1  0
 34 96  1  1
 35 97  1  0
 36 42  1  0
 36 37  1  0
 36 44  1  1
 37 38  1  0
 37 98  1  0
 37 99  1  0
 38 39  1  0
 38 40  1  6
 38 41  1  0
 39100  1  0
 39101  1  0
 39102  1  0
 40103  1  0
 41 42  1  0
 41104  1  0
 41105  1  0
 42 43  2  0
 44 45  1  0
 45 46  1  0
 45106  1  6
 46 47  1  1
 46 48  1  0
 47107  1  0
 47108  1  0
 47109  1  0
 48 55  1  0
 48 61  1  6
 48 49  1  0
 49 50  2  0
 49110  1  0
 50 51  1  0
 50111  1  0
 51 52  1  1
 51 53  1  0
 52112  1  0
 53 54  1  0
 53113  1  0
 53114  1  0
 54 55  1  0
 55 56  1  6
 55 57  1  0
 56115  1  0
 56116  1  0
 56117  1  0
 57 58  1  0
 57 59  1  0
 57118  1  6
 58119  1  0
 59 60  1  0
 59 61  1  0
 59120  1  1
 60121  1  0
 61122  1  0
 61123  1  0
M  END
>  <i_m_ct_stereo_status>  (69) 
1

>  <s_m_source_file>  (69) 
/var/tmp/pbs.5075288.sched01/tmphpu8_cit/24996nucuhu.sdf

>  <i_m_source_file_index>  (69) 
8

>  <i_lp_mmshare_version>  (69) 
48012

>  <i_f3d_flags>  (69) 
0

>  <s_epik_input>  (69) 
W0NIMl0xW0NIMl1bQ0BdMihbQ0gzXSlPW0NAQEhdKFtDSF0oW0NIM10pW0NIM10pW0NAXShbT0hdKShbQ0hdPVtDSF0zKVtDSDJdT1tDQF0oW0NIM10pKFtDQEBIXShbT0hdKVtDQEBIXShbT0hdKVtDSDJdNClbQ0BAXTM0W0NAQF0yKFtDSDNdKVtDQEhdKE9bQ0BAXTUoW0NASF0oW09IXSlbQ0BASF02W09IXSlbQ0gyXVtDQEBdKFtDSDNdKShbT0hdKVtDSDJdQzU9TylbQ0BASF02W0NAQF0xN09bQ0BASF04W0NAQEhdKFtTK103W08tXSlPW0NIMl1bQ0BASF04T1tDQEBIXTlPW0NAQEhdKFtDSDJdW09IXSlbQ0BASF0oW09IXSlbQ0BASF0oW09IXSlbQ0BIXTlbT0hd

>  <s_epik_cmdline>  (69) 
J2VwaWtfcHl0aG9uJywgJy1waHQnLCAnMi4wJywgJy1waCcsICc3LjAnLCAnLXRuJywgJzgnLCAnLW1hJywgJzIwMCcsICctaW1hZScsICc8aW5maWxlLm1hZT4nLCAnLW9tYWUnLCAnPG91dGZpbGUubWFlPic=

>  <r_lp_tautomer_probability>  (69) 
1

>  <r_epik_Ionization_Penalty>  (69) 
4.31681e-06

>  <r_epik_Ionization_Penalty_Charging>  (69) 
0

>  <r_epik_Ionization_Penalty_Neutral>  (69) 
4.31681e-06

>  <r_epik_State_Penalty>  (69) 
-0

>  <r_epik_Charging_Adjusted_Penalty>  (69) 
0

>  <i_epik_Tot_Q>  (69) 
0

>  <i_epik_Tot_abs_Q>  (69) 
2

>  <s_epik_Chemistry_Notes>  (69) 
This compound contains an acetal/aminal-like group ( X-CH(R)-Y where X, Y are N, S, or O) that may be acid/base labile, releasing an aldehyde.

>  <s_lp_Force_Field>  (69) 
OPLS3e

>  <r_lp_Energy>  (69) 
148.779

>  <b_lp_Chiralities_Consistent>  (69) 
1

>  <s_lp_Variant>  (69) 
75:0-1

>  <s_i_glide_gridfile>  (69) 
pfpi4k_grid

>  <i_i_glide_lignum>  (69) 
8

>  <i_i_glide_rotatable_bonds>  (69) 
14

>  <r_i_docking_score>  (69) 
-4.14527

>  <r_i_glide_ligand_efficiency>  (69) 
-0.0679553

>  <r_i_glide_ligand_efficiency_sa>  (69) 
-0.267506

>  <r_i_glide_ligand_efficiency_ln>  (69) 
-0.811069

>  <r_i_glide_gscore>  (69) 
-4.14527

>  <r_i_glide_lipo>  (69) 
-0.398833

>  <r_i_glide_hbond>  (69) 
-0.228384

>  <r_i_glide_metal>  (69) 
-0

>  <r_i_glide_rewards>  (69) 
-0.518087

>  <r_i_glide_evdw>  (69) 
-23.7729

>  <r_i_glide_ecoul>  (69) 
-12.2776

>  <r_i_glide_erotb>  (69) 
0.0832433

>  <r_i_glide_esite>  (69) 
-0.0529345

>  <r_i_glide_emodel>  (69) 
-48.9489

>  <r_i_glide_energy>  (69) 
-36.0504

>  <r_i_glide_einternal>  (69) 
5.92682

>  <r_i_glide_intrahb_reward>  (69) 
-0.5

>  <i_i_glide_confnum>  (69) 
2

>  <i_i_glide_posenum>  (69) 
28

>  <r_i_glide_eff_state_penalty>  (69) 
0

>  <ligand_id>  (69) 
75

>  <original_smiles>  (69) 
CC(C)C1OC2(C)CCC3(OC4C(OC5OC(CO)C(O)C(O)C5O)COC4[S+]3[O-])C3C(O)C(O)C4(CC(C)(O)CC4=O)OC3C2(C)C23C=CC1(O)COC2(C)C(O)C(O)C3

>  <smiles>  (69) 
[H]OC([H])([H])C1([H])OC([H])(OC2([H])C([H])([H])OC3([H])S(=O)C4(OC32[H])C([H])([H])C([H])([H])C2(C([H])([H])[H])OC([H])(C([H])(C([H])([H])[H])C([H])([H])[H])C3(O[H])C([H])=C([H])C5(C([H])([H])C([H])(O[H])C([H])(O[H])C5(C([H])([H])[H])OC3([H])[H])C2(C([H])([H])[H])C2([H])OC3(C(=O)C([H])([H])C(O[H])(C([H])([H])[H])C3([H])[H])C([H])(O[H])C([H])(O[H])C24[H])C([H])(O[H])C([H])(O[H])C1([H])O[H]

$$$$
75:0:2
     RDKit          3D

123131  0  0  1  0  0  0  0  0999 V2000
    0.8006   -5.0397    8.7639 C   0  0  0  0  0  0  0  0  0  0  0  0
    1.0935   -6.0491    7.6397 C   0  0  0  0  0  0  0  0  0  0  0  0
    0.4740   -7.4014    8.0404 C   0  0  0  0  0  0  0  0  0  0  0  0
    2.6305   -6.0875    7.2940 C   0  0  2  0  0  0  0  0  0  0  0  0
    3.2823   -4.8092    7.0197 O   0  0  0  0  0  0  0  0  0  0  0  0
    3.1394   -3.9515    5.8565 C   0  0  1  0  0  0  0  0  0  0  0  0
    1.7188   -4.1011    5.2550 C   0  0  0  0  0  0  0  0  0  0  0  0
    3.1064   -2.5584    6.5753 C   0  0  0  0  0  0  0  0  0  0  0  0
    2.8682   -1.2838    5.7306 C   0  0  0  0  0  0  0  0  0  0  0  0
    4.0410   -0.6052    4.9744 C   0  0  1  0  0  0  0  0  0  0  0  0
    3.3351    0.4362    4.2828 O   0  0  0  0  0  0  0  0  0  0  0  0
    3.8756    1.6839    4.6902 C   0  0  1  0  0  0  0  0  0  0  0  0
    3.0744    2.9564    4.5896 C   0  0  1  0  0  0  0  0  0  0  0  0
    1.7708    2.6651    5.1078 O   0  0  0  0  0  0  0  0  0  0  0  0
    0.7648    3.6298    4.9180 C   0  0  2  0  0  0  0  0  0  0  0  0
   -0.2031    3.5883    5.9451 O   0  0  0  0  0  0  0  0  0  0  0  0
   -0.8733    2.3250    6.0619 C   0  0  1  0  0  0  0  0  0  0  0  0
   -1.7747    2.3791    7.2888 C   0  0  0  0  0  0  0  0  0  0  0  0
   -2.5850    1.2265    7.3002 O   0  0  0  0  0  0  0  0  0  0  0  0
   -1.6544    2.0424    4.7542 C   0  0  1  0  0  0  0  0  0  0  0  0
   -2.7721    2.9221    4.6142 O   0  0  0  0  0  0  0  0  0  0  0  0
   -0.7091    2.1200    3.5575 C   0  0  1  0  0  0  0  0  0  0  0  0
   -1.4103    1.8596    2.3496 O   0  0  0  0  0  0  0  0  0  0  0  0
    0.1011    3.4309    3.5467 C   0  0  1  0  0  0  0  0  0  0  0  0
   -0.7037    4.5731    3.2818 O   0  0  0  0  0  0  0  0  0  0  0  0
    3.8604    3.8283    5.6033 C   0  0  0  0  0  0  0  0  0  0  0  0
    4.7037    2.9371    6.3611 O   0  0  0  0  0  0  0  0  0  0  0  0
    4.1777    1.6384    6.1594 C   0  0  2  0  0  0  0  0  0  0  0  0
    5.2226    0.1259    6.2360 S   0  0  0  0  0  0  0  0  0  0  0  0
    6.5393    0.4651    5.5298 O   0  0  0  0  0  0  0  0  0  0  0  0
    4.8524   -1.5049    3.9734 C   0  0  2  0  0  0  0  0  0  0  0  0
    5.2737   -0.7466    2.6802 C   0  0  1  0  0  0  0  0  0  0  0  0
    6.5533   -1.0673    2.1741 O   0  0  0  0  0  0  0  0  0  0  0  0
    4.2499   -1.0310    1.5993 C   0  0  1  0  0  0  0  0  0  0  0  0
    4.5189   -0.1735    0.5151 O   0  0  0  0  0  0  0  0  0  0  0  0
    4.2842   -2.5462    1.2257 C   0  0  2  0  0  0  0  0  0  0  0  0
    5.2542   -3.0186    0.1060 C   0  0  0  0  0  0  0  0  0  0  0  0
    4.4646   -3.1138   -1.2270 C   0  0  1  0  0  0  0  0  0  0  0  0
    4.5215   -1.8080   -2.0517 C   0  0  0  0  0  0  0  0  0  0  0  0
    5.0072   -4.1708   -2.0012 O   0  0  0  0  0  0  0  0  0  0  0  0
    3.0225   -3.4442   -0.7948 C   0  0  0  0  0  0  0  0  0  0  0  0
    2.9547   -2.9197    0.6427 C   0  0  0  0  0  0  0  0  0  0  0  0
    1.9108   -2.6764    1.2660 O   0  0  0  0  0  0  0  0  0  0  0  0
    4.5702   -3.3474    2.3859 O   0  0  0  0  0  0  0  0  0  0  0  0
    4.2044   -2.9122    3.7000 C   0  0  1  0  0  0  0  0  0  0  0  0
    4.4067   -4.0463    4.8502 C   0  0  1  0  0  0  0  0  0  0  0  0
    5.6539   -3.6738    5.7589 C   0  0  0  0  0  0  0  0  0  0  0  0
    4.8010   -5.5381    4.2797 C   0  0  1  0  0  0  0  0  0  0  0  0
    5.3279   -6.4011    5.4485 C   0  0  0  0  0  0  0  0  0  0  0  0
    4.6796   -7.1339    6.3538 C   0  0  0  0  0  0  0  0  0  0  0  0
    3.1988   -7.3072    6.4852 C   0  0  1  0  0  0  0  0  0  0  0  0
    3.0569   -8.4678    7.2914 O   0  0  0  0  0  0  0  0  0  0  0  0
    2.5349   -7.6546    5.1327 C   0  0  0  0  0  0  0  0  0  0  0  0
    3.4049   -7.6329    3.9937 O   0  0  0  0  0  0  0  0  0  0  0  0
    3.8017   -6.4104    3.3510 C   0  0  1  0  0  0  0  0  0  0  0  0
    2.5058   -5.7896    2.7375 C   0  0  0  0  0  0  0  0  0  0  0  0
    4.6925   -6.9861    2.1756 C   0  0  1  0  0  0  0  0  0  0  0  0
    4.5365   -6.3337    0.9158 O   0  0  0  0  0  0  0  0  0  0  0  0
    6.1386   -6.8315    2.6281 C   0  0  1  0  0  0  0  0  0  0  0  0
    7.1192   -6.8479    1.5985 O   0  0  0  0  0  0  0  0  0  0  0  0
    6.1150   -5.5217    3.3957 C   0  0  0  0  0  0  0  0  0  0  0  0
    1.3012   -5.3213    9.6906 H   0  0  0  0  0  0  0  0  0  0  0  0
   -0.2663   -4.9893    8.9732 H   0  0  0  0  0  0  0  0  0  0  0  0
    1.1249   -4.0361    8.5029 H   0  0  0  0  0  0  0  0  0  0  0  0
    0.5129   -5.7568    6.7732 H   0  0  0  0  0  0  0  0  0  0  0  0
    0.9960   -7.8511    8.8859 H   0  0  0  0  0  0  0  0  0  0  0  0
    0.4940   -8.1114    7.2123 H   0  0  0  0  0  0  0  0  0  0  0  0
   -0.5725   -7.2857    8.3191 H   0  0  0  0  0  0  0  0  0  0  0  0
    3.0713   -6.2669    8.2785 H   0  0  0  0  0  0  0  0  0  0  0  0
    1.4983   -3.5096    4.3732 H   0  0  0  0  0  0  0  0  0  0  0  0
    0.9570   -3.7923    5.9693 H   0  0  0  0  0  0  0  0  0  0  0  0
    1.4979   -5.1173    5.0015 H   0  0  0  0  0  0  0  0  0  0  0  0
    2.2601   -2.5770    7.2518 H   0  0  0  0  0  0  0  0  0  0  0  0
    3.9253   -2.4075    7.2759 H   0  0  0  0  0  0  0  0  0  0  0  0
    2.0576   -1.4376    5.0199 H   0  0  0  0  0  0  0  0  0  0  0  0
    2.4644   -0.5305    6.4047 H   0  0  0  0  0  0  0  0  0  0  0  0
    4.8148    1.8189    4.1638 H   0  0  0  0  0  0  0  0  0  0  0  0
    3.0258    3.3598    3.5791 H   0  0  0  0  0  0  0  0  0  0  0  0
    1.2308    4.6225    5.0048 H   0  0  0  0  0  0  0  0  0  0  0  0
   -0.1294    1.5425    6.2189 H   0  0  0  0  0  0  0  0  0  0  0  0
   -1.2061    2.4325    8.2178 H   0  0  0  0  0  0  0  0  0  0  0  0
   -2.4178    3.2545    7.2594 H   0  0  0  0  0  0  0  0  0  0  0  0
   -3.2238    1.3399    6.5714 H   0  0  0  0  0  0  0  0  0  0  0  0
   -2.0349    1.0193    4.7873 H   0  0  0  0  0  0  0  0  0  0  0  0
   -3.1853    2.7293    3.7557 H   0  0  0  0  0  0  0  0  0  0  0  0
    0.0135    1.3157    3.6713 H   0  0  0  0  0  0  0  0  0  0  0  0
   -0.8118    1.9556    1.5926 H   0  0  0  0  0  0  0  0  0  0  0  0
    0.8689    3.3750    2.7743 H   0  0  0  0  0  0  0  0  0  0  0  0
   -0.7745    4.6105    2.3163 H   0  0  0  0  0  0  0  0  0  0  0  0
    4.5137    4.5253    5.0826 H   0  0  0  0  0  0  0  0  0  0  0  0
    3.2112    4.4239    6.2440 H   0  0  0  0  0  0  0  0  0  0  0  0
    3.2846    1.4994    6.7674 H   0  0  0  0  0  0  0  0  0  0  0  0
    5.8207   -1.6611    4.4225 H   0  0  0  0  0  0  0  0  0  0  0  0
    5.3048    0.3165    2.8570 H   0  0  0  0  0  0  0  0  0  0  0  0
    6.5912   -2.0077    2.0382 H   0  0  0  0  0  0  0  0  0  0  0  0
    3.2502   -0.7825    1.9971 H   0  0  0  0  0  0  0  0  0  0  0  0
    3.7818   -0.2113   -0.0899 H   0  0  0  0  0  0  0  0  0  0  0  0
    6.1284   -2.3825    0.0232 H   0  0  0  0  0  0  0  0  0  0  0  0
    5.6324   -4.0134    0.3716 H   0  0  0  0  0  0  0  0  0  0  0  0
    3.9693   -1.0101   -1.5529 H   0  0  0  0  0  0  0  0  0  0  0  0
    4.0990   -1.9624   -3.0519 H   0  0  0  0  0  0  0  0  0  0  0  0
    5.5580   -1.4826   -2.1742 H   0  0  0  0  0  0  0  0  0  0  0  0
    4.3260   -4.7487   -2.3067 H   0  0  0  0  0  0  0  0  0  0  0  0
    2.3151   -2.9622   -1.4715 H   0  0  0  0  0  0  0  0  0  0  0  0
    2.8305   -4.5196   -0.8225 H   0  0  0  0  0  0  0  0  0  0  0  0
    3.1478   -2.7023    3.5651 H   0  0  0  0  0  0  0  0  0  0  0  0
    6.6103   -3.7219    5.2474 H   0  0  0  0  0  0  0  0  0  0  0  0
    5.7523   -4.3043    6.6407 H   0  0  0  0  0  0  0  0  0  0  0  0
    5.6355   -2.6809    6.1880 H   0  0  0  0  0  0  0  0  0  0  0  0
    6.3980   -6.4196    5.5894 H   0  0  0  0  0  0  0  0  0  0  0  0
    5.2749   -7.6344    7.1023 H   0  0  0  0  0  0  0  0  0  0  0  0
    3.3041   -9.2291    6.7885 H   0  0  0  0  0  0  0  0  0  0  0  0
    2.2221   -8.6994    5.1553 H   0  0  0  0  0  0  0  0  0  0  0  0
    1.5808   -7.1641    5.0060 H   0  0  0  0  0  0  0  0  0  0  0  0
    2.5008   -4.7114    2.7625 H   0  0  0  0  0  0  0  0  0  0  0  0
    1.5917   -6.1344    3.2046 H   0  0  0  0  0  0  0  0  0  0  0  0
    2.3186   -6.0824    1.7055 H   0  0  0  0  0  0  0  0  0  0  0  0
    4.4778   -8.0398    1.9893 H   0  0  0  0  0  0  0  0  0  0  0  0
    4.7258   -5.4232    1.0292 H   0  0  0  0  0  0  0  0  0  0  0  0
    6.3773   -7.6442    3.3144 H   0  0  0  0  0  0  0  0  0  0  0  0
    6.9880   -6.1122    1.0280 H   0  0  0  0  0  0  0  0  0  0  0  0
    6.2123   -4.7235    2.6796 H   0  0  0  0  0  0  0  0  0  0  0  0
    7.0453   -5.4220    3.9536 H   0  0  0  0  0  0  0  0  0  0  0  0
  1  2  1  0
  1 62  1  0
  1 63  1  0
  1 64  1  0
  2  3  1  0
  2  4  1  0
  2 65  1  0
  3 66  1  0
  3 67  1  0
  3 68  1  0
  4 51  1  0
  4  5  1  0
  4 69  1  1
  5  6  1  0
  6 46  1  0
  6  7  1  6
  6  8  1  0
  7 70  1  0
  7 71  1  0
  7 72  1  0
  8  9  1  0
  8 73  1  0
  8 74  1  0
  9 10  1  0
  9 75  1  0
  9 76  1  0
 29 10  1  6
 10 11  1  6
 10 31  1  0
 11 12  1  0
 12 28  1  0
 12 13  1  0
 12 77  1  6
 13 14  1  0
 13 26  1  0
 13 78  1  6
 14 15  1  0
 15 24  1  0
 15 16  1  0
 15 79  1  6
 16 17  1  0
 17 18  1  0
 17 20  1  0
 17 80  1  1
 18 19  1  0
 18 81  1  0
 18 82  1  0
 19 83  1  0
 20 21  1  0
 20 22  1  0
 20 84  1  1
 21 85  1  0
 22 23  1  0
 22 24  1  0
 22 86  1  1
 23 87  1  0
 24 25  1  0
 24 88  1  6
 25 89  1  0
 26 27  1  0
 26 90  1  0
 26 91  1  0
 27 28  1  0
 28 29  1  0
 28 92  1  1
 29 30  2  0
 31 45  1  0
 31 32  1  0
 31 93  1  1
 32 33  1  0
 32 34  1  0
 32 94  1  1
 33 95  1  0
 34 35  1  0
 34 36  1  0
 34 96  1  1
 35 97  1  0
 36 42  1  0
 36 37  1  0
 36 44  1  1
 37 38  1  0
 37 98  1  0
 37 99  1  0
 38 39  1  0
 38 40  1  6
 38 41  1  0
 39100  1  0
 39101  1  0
 39102  1  0
 40103  1  0
 41 42  1  0
 41104  1  0
 41105  1  0
 42 43  2  0
 44 45  1  0
 45 46  1  0
 45106  1  6
 46 47  1  1
 46 48  1  0
 47107  1  0
 47108  1  0
 47109  1  0
 48 55  1  0
 48 61  1  6
 48 49  1  0
 49 50  2  0
 49110  1  0
 50 51  1  0
 50111  1  0
 51 52  1  1
 51 53  1  0
 52112  1  0
 53 54  1  0
 53113  1  0
 53114  1  0
 54 55  1  0
 55 56  1  6
 55 57  1  0
 56115  1  0
 56116  1  0
 56117  1  0
 57 58  1  0
 57 59  1  0
 57118  1  6
 58119  1  0
 59 60  1  0
 59 61  1  0
 59120  1  1
 60121  1  0
 61122  1  0
 61123  1  0
M  END
>  <i_m_ct_stereo_status>  (70) 
1

>  <s_m_source_file>  (70) 
/var/tmp/pbs.5075288.sched01/tmphpu8_cit/24996nucuhu.sdf

>  <i_m_source_file_index>  (70) 
8

>  <i_lp_mmshare_version>  (70) 
48012

>  <i_f3d_flags>  (70) 
0

>  <s_epik_input>  (70) 
W0NIMl0xW0NIMl1bQ0BdMihbQ0gzXSlPW0NAQEhdKFtDSF0oW0NIM10pW0NIM10pW0NAXShbT0hdKShbQ0hdPVtDSF0zKVtDSDJdT1tDQF0oW0NIM10pKFtDQEBIXShbT0hdKVtDQEBIXShbT0hdKVtDSDJdNClbQ0BAXTM0W0NAQF0yKFtDSDNdKVtDQEhdKE9bQ0BAXTUoW0NASF0oW09IXSlbQ0BASF02W09IXSlbQ0gyXVtDQEBdKFtDSDNdKShbT0hdKVtDSDJdQzU9TylbQ0BASF02W0NAQF0xN09bQ0BASF04W0NAQEhdKFtTK103W08tXSlPW0NIMl1bQ0BASF04T1tDQEBIXTlPW0NAQEhdKFtDSDJdW09IXSlbQ0BASF0oW09IXSlbQ0BASF0oW09IXSlbQ0BIXTlbT0hd

>  <s_epik_cmdline>  (70) 
J2VwaWtfcHl0aG9uJywgJy1waHQnLCAnMi4wJywgJy1waCcsICc3LjAnLCAnLXRuJywgJzgnLCAnLW1hJywgJzIwMCcsICctaW1hZScsICc8aW5maWxlLm1hZT4nLCAnLW9tYWUnLCAnPG91dGZpbGUubWFlPic=

>  <r_lp_tautomer_probability>  (70) 
1

>  <r_epik_Ionization_Penalty>  (70) 
4.31681e-06

>  <r_epik_Ionization_Penalty_Charging>  (70) 
0

>  <r_epik_Ionization_Penalty_Neutral>  (70) 
4.31681e-06

>  <r_epik_State_Penalty>  (70) 
-0

>  <r_epik_Charging_Adjusted_Penalty>  (70) 
0

>  <i_epik_Tot_Q>  (70) 
0

>  <i_epik_Tot_abs_Q>  (70) 
2

>  <s_epik_Chemistry_Notes>  (70) 
This compound contains an acetal/aminal-like group ( X-CH(R)-Y where X, Y are N, S, or O) that may be acid/base labile, releasing an aldehyde.

>  <s_lp_Force_Field>  (70) 
OPLS3e

>  <r_lp_Energy>  (70) 
148.779

>  <b_lp_Chiralities_Consistent>  (70) 
1

>  <s_lp_Variant>  (70) 
75:0-1

>  <s_i_glide_gridfile>  (70) 
pfpi4k_grid

>  <i_i_glide_lignum>  (70) 
8

>  <i_i_glide_rotatable_bonds>  (70) 
14

>  <r_i_docking_score>  (70) 
-4.07788

>  <r_i_glide_ligand_efficiency>  (70) 
-0.0668504

>  <r_i_glide_ligand_efficiency_sa>  (70) 
-0.263156

>  <r_i_glide_ligand_efficiency_ln>  (70) 
-0.797882

>  <r_i_glide_gscore>  (70) 
-4.07788

>  <r_i_glide_lipo>  (70) 
-0.341344

>  <r_i_glide_hbond>  (70) 
-0.305089

>  <r_i_glide_metal>  (70) 
-0

>  <r_i_glide_rewards>  (70) 
-0.516989

>  <r_i_glide_evdw>  (70) 
-25.8287

>  <r_i_glide_ecoul>  (70) 
-11.0822

>  <r_i_glide_erotb>  (70) 
0.0832433

>  <r_i_glide_esite>  (70) 
-0.0439382

>  <r_i_glide_emodel>  (70) 
-49.9914

>  <r_i_glide_energy>  (70) 
-36.9109

>  <r_i_glide_einternal>  (70) 
6.08398

>  <r_i_glide_intrahb_reward>  (70) 
-0.5

>  <i_i_glide_confnum>  (70) 
2

>  <i_i_glide_posenum>  (70) 
19

>  <r_i_glide_eff_state_penalty>  (70) 
0

>  <ligand_id>  (70) 
75

>  <original_smiles>  (70) 
CC(C)C1OC2(C)CCC3(OC4C(OC5OC(CO)C(O)C(O)C5O)COC4[S+]3[O-])C3C(O)C(O)C4(CC(C)(O)CC4=O)OC3C2(C)C23C=CC1(O)COC2(C)C(O)C(O)C3

>  <smiles>  (70) 
[H]OC([H])([H])C1([H])OC([H])(OC2([H])C([H])([H])OC3([H])S(=O)C4(OC32[H])C([H])([H])C([H])([H])C2(C([H])([H])[H])OC([H])(C([H])(C([H])([H])[H])C([H])([H])[H])C3(O[H])C([H])=C([H])C5(C([H])([H])C([H])(O[H])C([H])(O[H])C5(C([H])([H])[H])OC3([H])[H])C2(C([H])([H])[H])C2([H])OC3(C(=O)C([H])([H])C(O[H])(C([H])([H])[H])C3([H])[H])C([H])(O[H])C([H])(O[H])C24[H])C([H])(O[H])C([H])(O[H])C1([H])O[H]

$$$$
78:0:0
     RDKit          3D

 95102  0  0  1  0  0  0  0  0999 V2000
   -4.4205    5.4289    1.9220 C   0  0  0  0  0  0  0  0  0  0  0  0
   -3.3048    4.7520    2.4790 O   0  0  0  0  0  0  0  0  0  0  0  0
   -3.4646    3.3390    2.4870 C   0  0  0  0  0  0  0  0  0  0  0  0
   -2.1162    2.6570    2.7464 C   0  0  0  0  0  0  0  0  0  0  0  0
   -1.6606    2.7322    4.2171 C   0  0  0  0  0  0  0  0  0  0  0  0
   -0.5415    1.7593    4.5365 C   0  0  0  0  0  0  0  0  0  0  0  0
    0.6794    1.7937    3.9448 C   0  0  0  0  0  0  0  0  0  0  0  0
    1.8160    0.8574    4.2847 C   0  0  1  0  0  0  0  0  0  0  0  0
    2.9955    1.6250    4.4055 O   0  0  0  0  0  0  0  0  0  0  0  0
    1.5940    0.1718    5.6556 C   0  0  1  0  0  0  0  0  0  0  0  0
    0.2143   -0.1591    5.8078 O   0  0  0  0  0  0  0  0  0  0  0  0
   -0.8231    0.7047    5.5480 C   0  0  0  0  0  0  0  0  0  0  0  0
   -1.8833    0.5361    6.1062 O   0  0  0  0  0  0  0  0  0  0  0  0
    2.5485   -1.0502    5.5927 C   0  0  1  0  0  0  0  0  0  0  0  0
    2.7643   -2.1758    6.7167 C   0  0  1  0  0  0  0  0  0  0  0  0
    1.9388   -2.0975    8.0526 C   0  0  1  0  0  0  0  0  0  0  0  0
    0.4156   -1.9221    7.9821 C   0  0  0  0  0  0  0  0  0  0  0  0
   -0.2303   -2.8827    8.9924 C   0  0  0  0  0  0  0  0  0  0  0  0
    0.7806   -4.0348    9.0367 C   0  0  1  0  0  0  0  0  0  0  0  0
    0.5428   -5.1255    8.1109 O   0  0  0  0  0  0  0  0  0  0  0  0
   -0.0278   -5.0913    6.8104 C   0  0  1  0  0  0  0  0  0  0  0  0
   -1.0209   -4.1546    6.5540 O   0  0  0  0  0  0  0  0  0  0  0  0
   -2.3248   -4.4761    7.0222 C   0  0  0  0  0  0  0  0  0  0  0  0
    0.9735   -5.2619    5.6234 C   0  0  0  0  0  0  0  0  0  0  0  0
    2.0232   -4.1536    5.2358 C   0  0  1  0  0  0  0  0  0  0  0  0
    1.3016   -2.9323    4.0394 S   0  0  0  0  0  0  0  0  0  0  0  0
   -0.0739   -2.4823    4.5343 O   0  0  0  0  0  0  0  0  0  0  0  0
    2.5491   -1.5453    4.1130 C   0  0  2  0  0  0  0  0  0  0  0  0
    3.9924   -2.0011    3.6670 C   0  0  1  0  0  0  0  0  0  0  0  0
    4.7400   -2.1327    4.8546 O   0  0  0  0  0  0  0  0  0  0  0  0
    4.6557   -3.4287    5.4158 C   0  0  2  0  0  0  0  0  0  0  0  0
    5.9054   -3.2852    6.3630 C   0  0  0  0  0  0  0  0  0  0  0  0
    6.7983   -4.3919    6.3901 O   0  0  0  0  0  0  0  0  0  0  0  0
    4.9771   -4.2028    4.1008 C   0  0  1  0  0  0  0  0  0  0  0  0
    4.6171   -5.5670    4.0927 O   0  0  0  0  0  0  0  0  0  0  0  0
    4.4074   -3.3261    2.9624 C   0  0  1  0  0  0  0  0  0  0  0  0
    3.4703   -3.9808    1.9089 C   0  0  0  0  0  0  0  0  0  0  0  0
    5.5225   -2.9513    2.1661 O   0  0  0  0  0  0  0  0  0  0  0  0
    3.2006   -3.6193    6.1607 C   0  0  1  0  0  0  0  0  0  0  0  0
    3.4097   -4.7001    7.3037 C   0  0  1  0  0  0  0  0  0  0  0  0
    4.4710   -5.6087    7.0160 O   0  0  0  0  0  0  0  0  0  0  0  0
    4.6202   -6.7338    7.8740 C   0  0  0  0  0  0  0  0  0  0  0  0
    3.4080   -4.1315    8.7276 C   0  0  0  0  0  0  0  0  0  0  0  0
    2.1496   -3.2920    9.0303 C   0  0  1  0  0  0  0  0  0  0  0  0
    2.3990   -2.7323   10.4630 C   0  0  0  0  0  0  0  0  0  0  0  0
    2.0776   -0.2944    3.2726 C   0  0  1  0  0  0  0  0  0  0  0  0
    0.9423   -0.5601    2.4611 O   0  0  0  0  0  0  0  0  0  0  0  0
   -4.2383    6.5025    1.9406 H   0  0  0  0  0  0  0  0  0  0  0  0
   -5.3411    5.2305    2.4731 H   0  0  0  0  0  0  0  0  0  0  0  0
   -4.5831    5.1420    0.8828 H   0  0  0  0  0  0  0  0  0  0  0  0
   -4.1837    3.0480    3.2495 H   0  0  0  0  0  0  0  0  0  0  0  0
   -3.8577    2.9900    1.5342 H   0  0  0  0  0  0  0  0  0  0  0  0
   -2.1716    1.6071    2.4506 H   0  0  0  0  0  0  0  0  0  0  0  0
   -1.3638    3.0892    2.0870 H   0  0  0  0  0  0  0  0  0  0  0  0
   -1.3309    3.7522    4.4421 H   0  0  0  0  0  0  0  0  0  0  0  0
   -2.5367    2.5708    4.8549 H   0  0  0  0  0  0  0  0  0  0  0  0
    0.8786    2.5604    3.2073 H   0  0  0  0  0  0  0  0  0  0  0  0
    3.1942    2.0014    3.5591 H   0  0  0  0  0  0  0  0  0  0  0  0
    1.8836    0.8362    6.4835 H   0  0  0  0  0  0  0  0  0  0  0  0
    3.4701   -0.4785    5.6988 H   0  0  0  0  0  0  0  0  0  0  0  0
    3.7118   -1.8452    7.1418 H   0  0  0  0  0  0  0  0  0  0  0  0
    2.2923   -1.1926    8.5438 H   0  0  0  0  0  0  0  0  0  0  0  0
    0.1112   -0.8944    8.1858 H   0  0  0  0  0  0  0  0  0  0  0  0
    0.0815   -2.1880    6.9949 H   0  0  0  0  0  0  0  0  0  0  0  0
   -0.2238   -2.3950    9.9809 H   0  0  0  0  0  0  0  0  0  0  0  0
   -1.2546   -3.1792    8.7745 H   0  0  0  0  0  0  0  0  0  0  0  0
    0.6905   -4.5414    9.9947 H   0  0  0  0  0  0  0  0  0  0  0  0
   -0.5656   -6.0429    6.8045 H   0  0  0  0  0  0  0  0  0  0  0  0
   -2.9581   -3.6130    6.8230 H   0  0  0  0  0  0  0  0  0  0  0  0
   -2.3095   -4.6246    8.1010 H   0  0  0  0  0  0  0  0  0  0  0  0
   -2.7674   -5.3331    6.4858 H   0  0  0  0  0  0  0  0  0  0  0  0
    1.5009   -6.2122    5.7606 H   0  0  0  0  0  0  0  0  0  0  0  0
    0.3637   -5.4530    4.7391 H   0  0  0  0  0  0  0  0  0  0  0  0
    2.5210   -4.7586    4.5076 H   0  0  0  0  0  0  0  0  0  0  0  0
    4.4622   -1.1657    3.1454 H   0  0  0  0  0  0  0  0  0  0  0  0
    6.5526   -2.4716    6.0552 H   0  0  0  0  0  0  0  0  0  0  0  0
    5.6183   -2.9883    7.3678 H   0  0  0  0  0  0  0  0  0  0  0  0
    7.3968   -4.2754    7.1170 H   0  0  0  0  0  0  0  0  0  0  0  0
    6.0646   -4.2293    3.9883 H   0  0  0  0  0  0  0  0  0  0  0  0
    5.0446   -5.9714    4.8369 H   0  0  0  0  0  0  0  0  0  0  0  0
    2.6322   -4.5361    2.3283 H   0  0  0  0  0  0  0  0  0  0  0  0
    4.0168   -4.7027    1.2986 H   0  0  0  0  0  0  0  0  0  0  0  0
    3.0640   -3.2332    1.2280 H   0  0  0  0  0  0  0  0  0  0  0  0
    5.2207   -2.4066    1.4548 H   0  0  0  0  0  0  0  0  0  0  0  0
    2.6093   -5.4040    7.3277 H   0  0  0  0  0  0  0  0  0  0  0  0
    5.3622   -7.4060    7.4492 H   0  0  0  0  0  0  0  0  0  0  0  0
    3.6949   -7.2998    7.9910 H   0  0  0  0  0  0  0  0  0  0  0  0
    4.9867   -6.4449    8.8583 H   0  0  0  0  0  0  0  0  0  0  0  0
    3.4862   -4.9345    9.4651 H   0  0  0  0  0  0  0  0  0  0  0  0
    4.2830   -3.5125    8.8984 H   0  0  0  0  0  0  0  0  0  0  0  0
    2.4484   -3.5411   11.1917 H   0  0  0  0  0  0  0  0  0  0  0  0
    1.6241   -2.0522   10.8079 H   0  0  0  0  0  0  0  0  0  0  0  0
    3.3308   -2.1703   10.5331 H   0  0  0  0  0  0  0  0  0  0  0  0
    2.8348    0.0407    2.5557 H   0  0  0  0  0  0  0  0  0  0  0  0
    1.1097   -0.2676    1.5715 H   0  0  0  0  0  0  0  0  0  0  0  0
  1  2  1  0
  1 48  1  0
  1 49  1  0
  1 50  1  0
  2  3  1  0
  3  4  1  0
  3 51  1  0
  3 52  1  0
  4  5  1  0
  4 53  1  0
  4 54  1  0
  5  6  1  0
  5 55  1  0
  5 56  1  0
  6 12  1  0
  6  7  2  0
  7  8  1  0
  7 57  1  0
  8 46  1  0
  8  9  1  1
  8 10  1  0
  9 58  1  0
 10 11  1  0
 10 14  1  0
 10 59  1  1
 11 12  1  0
 12 13  2  0
 14 28  1  0
 14 15  1  0
 14 60  1  6
 15 39  1  0
 15 16  1  0
 15 61  1  1
 16 44  1  0
 16 17  1  0
 16 62  1  1
 17 18  1  0
 17 63  1  0
 17 64  1  0
 18 19  1  0
 18 65  1  0
 18 66  1  0
 19 44  1  0
 19 20  1  0
 19 67  1  1
 20 21  1  0
 21 22  1  0
 21 24  1  0
 21 68  1  1
 22 23  1  0
 23 69  1  0
 23 70  1  0
 23 71  1  0
 24 25  1  0
 24 72  1  0
 24 73  1  0
 25 39  1  0
 26 25  1  1
 25 74  1  6
 26 27  2  0
 28 26  1  1
 28 29  1  0
 28 46  1  0
 29 36  1  0
 29 30  1  0
 29 75  1  6
 30 31  1  0
 31 32  1  1
 31 34  1  0
 39 31  1  6
 32 33  1  0
 32 76  1  0
 32 77  1  0
 33 78  1  0
 34 35  1  0
 34 36  1  0
 34 79  1  6
 35 80  1  0
 36 37  1  0
 36 38  1  6
 37 81  1  0
 37 82  1  0
 37 83  1  0
 38 84  1  0
 39 40  1  0
 40 41  1  0
 40 43  1  0
 40 85  1  1
 41 42  1  0
 42 86  1  0
 42 87  1  0
 42 88  1  0
 43 44  1  0
 43 89  1  0
 43 90  1  0
 44 45  1  1
 45 91  1  0
 45 92  1  0
 45 93  1  0
 46 47  1  0
 46 94  1  6
 47 95  1  0
M  END
>  <i_m_ct_stereo_status>  (71) 
1

>  <s_m_source_file>  (71) 
/var/tmp/pbs.5075288.sched01/tmphpu8_cit/24996nucuhu.sdf

>  <i_m_source_file_index>  (71) 
17

>  <i_lp_mmshare_version>  (71) 
48012

>  <i_f3d_flags>  (71) 
0

>  <s_epik_input>  (71) 
W0NIM11PW0NIMl1bQ0gyXVtDSDJdQyhDKE8xKT1PKT1bQ0hdW0NAXShbT0hdKShbQ0BASF0yW09IXSlbQ0BASF0xW0NASF0oW0NAXTIzNClbQ0BASF01W0NAXTYoW0NAXTcoW0NIMl1bT0hdKU9bQ0BIXTRbQ0BAXShbQ0gzXSkoW09IXSlbQ0BASF03W09IXSlbQ0BIXShbUytdM1tPLV0pW0NIMl1bQ0BIXShPW0NIM10pT1tDQEhdOFtDQF0oW0NIM10pKFtDQEBIXTVbQ0gyXVtDSDJdOClbQ0gyXVtDQEBIXTZPW0NIM10=

>  <s_epik_cmdline>  (71) 
J2VwaWtfcHl0aG9uJywgJy1waHQnLCAnMi4wJywgJy1waCcsICc3LjAnLCAnLXRuJywgJzgnLCAnLW1hJywgJzIwMCcsICctaW1hZScsICc8aW5maWxlLm1hZT4nLCAnLW9tYWUnLCAnPG91dGZpbGUubWFlPic=

>  <r_lp_tautomer_probability>  (71) 
1

>  <r_epik_Ionization_Penalty>  (71) 
3.32548e-06

>  <r_epik_Ionization_Penalty_Charging>  (71) 
0

>  <r_epik_Ionization_Penalty_Neutral>  (71) 
3.32548e-06

>  <r_epik_State_Penalty>  (71) 
-0

>  <r_epik_Charging_Adjusted_Penalty>  (71) 
0

>  <i_epik_Tot_Q>  (71) 
0

>  <i_epik_Tot_abs_Q>  (71) 
2

>  <s_epik_Chemistry_Notes>  (71) 
This compound has an ester and may undergo hydrolysis at high or low pH. This compound contains an acetal/aminal-like group ( X-CH(R)-Y where X, Y are N, S, or O) that may be acid/base labile, releasing an aldehyde.

>  <s_lp_Force_Field>  (71) 
OPLS3e

>  <r_lp_Energy>  (71) 
166.037

>  <b_lp_Chiralities_Consistent>  (71) 
1

>  <s_lp_Variant>  (71) 
78:0-1

>  <s_i_glide_gridfile>  (71) 
pfpi4k_grid

>  <i_i_glide_lignum>  (71) 
17

>  <i_i_glide_rotatable_bonds>  (71) 
12

>  <r_i_docking_score>  (71) 
-2.97408

>  <r_i_glide_ligand_efficiency>  (71) 
-0.0632782

>  <r_i_glide_ligand_efficiency_sa>  (71) 
-0.22836

>  <r_i_glide_ligand_efficiency_ln>  (71) 
-0.613193

>  <r_i_glide_gscore>  (71) 
-2.97408

>  <r_i_glide_lipo>  (71) 
-0.115738

>  <r_i_glide_hbond>  (71) 
-0.160102

>  <r_i_glide_metal>  (71) 
-0

>  <r_i_glide_rewards>  (71) 
-0.53845

>  <r_i_glide_evdw>  (71) 
-30.0999

>  <r_i_glide_ecoul>  (71) 
-4.29726

>  <r_i_glide_erotb>  (71) 
0.0138657

>  <r_i_glide_esite>  (71) 
-0.0240667

>  <r_i_glide_emodel>  (71) 
-43.3833

>  <r_i_glide_energy>  (71) 
-34.3972

>  <r_i_glide_einternal>  (71) 
5.70574

>  <r_i_glide_intrahb_reward>  (71) 
-0.5

>  <i_i_glide_confnum>  (71) 
3

>  <i_i_glide_posenum>  (71) 
20

>  <r_i_glide_eff_state_penalty>  (71) 
0

>  <ligand_id>  (71) 
78

>  <original_smiles>  (71) 
COCCCC1=CC2(O)C(OC1=O)C1C3C4CCC5OC(OC)CC6[S+]([O-])C1(C1OC(CO)(C(O)C1(C)O)C36C(OC)CC54C)C2O

>  <smiles>  (71) 
[H]OC([H])([H])C12OC([H])(C(O[H])(C([H])([H])[H])C1([H])O[H])C13S(=O)C4([H])C([H])([H])C([H])(OC([H])([H])[H])OC5([H])C([H])([H])C([H])([H])C6([H])C([H])(C1([H])C1([H])OC(=O)C(C([H])([H])C([H])([H])C([H])([H])OC([H])([H])[H])=C([H])C1(O[H])C3([H])O[H])C42C([H])(OC([H])([H])[H])C([H])([H])C56C([H])([H])[H]

$$$$
78:0:1
     RDKit          3D

 95102  0  0  1  0  0  0  0  0999 V2000
    4.7714  -12.1802    5.3756 C   0  0  0  0  0  0  0  0  0  0  0  0
    4.1474  -12.6636    4.1927 O   0  0  0  0  0  0  0  0  0  0  0  0
    3.1261  -11.8237    3.6675 C   0  0  0  0  0  0  0  0  0  0  0  0
    1.9231  -11.7211    4.6283 C   0  0  0  0  0  0  0  0  0  0  0  0
    0.7302  -10.9130    4.1157 C   0  0  0  0  0  0  0  0  0  0  0  0
    1.0981   -9.4752    3.7644 C   0  0  0  0  0  0  0  0  0  0  0  0
    1.2039   -9.0579    2.4994 C   0  0  0  0  0  0  0  0  0  0  0  0
    1.5161   -7.6181    2.1100 C   0  0  1  0  0  0  0  0  0  0  0  0
    0.6243   -7.2516    1.0886 O   0  0  0  0  0  0  0  0  0  0  0  0
    1.2723   -6.6580    3.2895 C   0  0  1  0  0  0  0  0  0  0  0  0
    1.6913   -7.2635    4.5201 O   0  0  0  0  0  0  0  0  0  0  0  0
    1.3473   -8.5529    4.8685 C   0  0  0  0  0  0  0  0  0  0  0  0
    1.3255   -8.8539    6.0663 O   0  0  0  0  0  0  0  0  0  0  0  0
    2.0981   -5.4066    2.8765 C   0  0  1  0  0  0  0  0  0  0  0  0
    2.2562   -4.0363    3.6899 C   0  0  1  0  0  0  0  0  0  0  0  0
    1.5380   -3.8816    5.0790 C   0  0  1  0  0  0  0  0  0  0  0  0
    1.7178   -4.9837    6.1349 C   0  0  0  0  0  0  0  0  0  0  0  0
    1.9796   -4.3292    7.5050 C   0  0  0  0  0  0  0  0  0  0  0  0
    2.6650   -3.0085    7.0877 C   0  0  1  0  0  0  0  0  0  0  0  0
    4.1119   -3.0352    7.0151 O   0  0  0  0  0  0  0  0  0  0  0  0
    4.9762   -4.1117    6.6762 C   0  0  1  0  0  0  0  0  0  0  0  0
    4.5874   -5.4008    7.0113 O   0  0  0  0  0  0  0  0  0  0  0  0
    4.7434   -5.7762    8.3763 C   0  0  0  0  0  0  0  0  0  0  0  0
    5.6426   -4.0225    5.2644 C   0  0  0  0  0  0  0  0  0  0  0  0
    4.8222   -4.1906    3.9304 C   0  0  1  0  0  0  0  0  0  0  0  0
    4.7258   -5.9695    3.4123 S   0  0  0  0  0  0  0  0  0  0  0  0
    4.3228   -6.8244    4.6149 O   0  0  0  0  0  0  0  0  0  0  0  0
    3.3688   -5.9209    2.1367 C   0  0  2  0  0  0  0  0  0  0  0  0
    3.7278   -4.9983    0.9065 C   0  0  1  0  0  0  0  0  0  0  0  0
    2.9818   -3.8168    1.0963 O   0  0  0  0  0  0  0  0  0  0  0  0
    3.6764   -2.8394    1.8503 C   0  0  2  0  0  0  0  0  0  0  0  0
    2.7711   -1.6252    1.4195 C   0  0  0  0  0  0  0  0  0  0  0  0
    3.4420   -0.4128    1.1150 O   0  0  0  0  0  0  0  0  0  0  0  0
    5.0049   -2.9046    1.0341 C   0  0  1  0  0  0  0  0  0  0  0  0
    6.1552   -2.4078    1.6782 O   0  0  0  0  0  0  0  0  0  0  0  0
    5.1046   -4.3701    0.5411 C   0  0  1  0  0  0  0  0  0  0  0  0
    6.4208   -5.1568    0.8111 C   0  0  0  0  0  0  0  0  0  0  0  0
    5.0952   -4.2672   -0.8721 O   0  0  0  0  0  0  0  0  0  0  0  0
    3.6385   -3.2497    3.4391 C   0  0  1  0  0  0  0  0  0  0  0  0
    3.7513   -1.9035    4.2671 C   0  0  1  0  0  0  0  0  0  0  0  0
    4.4451   -0.8764    3.5631 O   0  0  0  0  0  0  0  0  0  0  0  0
    4.8168    0.2898    4.2922 C   0  0  0  0  0  0  0  0  0  0  0  0
    2.4517   -1.4564    4.9445 C   0  0  0  0  0  0  0  0  0  0  0  0
    1.8416   -2.5572    5.8379 C   0  0  1  0  0  0  0  0  0  0  0  0
    0.5020   -1.9466    6.3434 C   0  0  0  0  0  0  0  0  0  0  0  0
    2.9809   -7.3727    1.6579 C   0  0  1  0  0  0  0  0  0  0  0  0
    3.8689   -8.3849    2.0988 O   0  0  0  0  0  0  0  0  0  0  0  0
    5.5688  -12.8622    5.6814 H   0  0  0  0  0  0  0  0  0  0  0  0
    4.0851  -12.1289    6.2227 H   0  0  0  0  0  0  0  0  0  0  0  0
    5.1974  -11.1894    5.2071 H   0  0  0  0  0  0  0  0  0  0  0  0
    3.5381  -10.8419    3.4326 H   0  0  0  0  0  0  0  0  0  0  0  0
    2.7995  -12.2512    2.7189 H   0  0  0  0  0  0  0  0  0  0  0  0
    1.5823  -12.7338    4.8354 H   0  0  0  0  0  0  0  0  0  0  0  0
    2.1966  -11.2699    5.5821 H   0  0  0  0  0  0  0  0  0  0  0  0
    0.2875  -11.4173    3.2552 H   0  0  0  0  0  0  0  0  0  0  0  0
   -0.0181  -10.9067    4.9127 H   0  0  0  0  0  0  0  0  0  0  0  0
    1.0240   -9.7542    1.6976 H   0  0  0  0  0  0  0  0  0  0  0  0
    0.4462   -8.0270    0.5584 H   0  0  0  0  0  0  0  0  0  0  0  0
    0.2059   -6.4021    3.3781 H   0  0  0  0  0  0  0  0  0  0  0  0
    1.4242   -5.0928    2.0811 H   0  0  0  0  0  0  0  0  0  0  0  0
    1.5695   -3.3982    3.1324 H   0  0  0  0  0  0  0  0  0  0  0  0
    0.4731   -3.9074    4.8495 H   0  0  0  0  0  0  0  0  0  0  0  0
    0.8573   -5.6475    6.2069 H   0  0  0  0  0  0  0  0  0  0  0  0
    2.5822   -5.5688    5.8853 H   0  0  0  0  0  0  0  0  0  0  0  0
    0.9978   -4.0518    7.9390 H   0  0  0  0  0  0  0  0  0  0  0  0
    2.4855   -4.9680    8.2268 H   0  0  0  0  0  0  0  0  0  0  0  0
    2.5077   -2.2646    7.8640 H   0  0  0  0  0  0  0  0  0  0  0  0
    5.8149   -3.9215    7.3501 H   0  0  0  0  0  0  0  0  0  0  0  0
    4.3034   -6.7715    8.4795 H   0  0  0  0  0  0  0  0  0  0  0  0
    4.1659   -5.0992    8.9981 H   0  0  0  0  0  0  0  0  0  0  0  0
    5.8058   -5.8439    8.6842 H   0  0  0  0  0  0  0  0  0  0  0  0
    6.2004   -3.0790    5.2223 H   0  0  0  0  0  0  0  0  0  0  0  0
    6.4348   -4.7726    5.2548 H   0  0  0  0  0  0  0  0  0  0  0  0
    5.6370   -3.9230    3.2917 H   0  0  0  0  0  0  0  0  0  0  0  0
    3.3088   -5.4525    0.0050 H   0  0  0  0  0  0  0  0  0  0  0  0
    2.2637   -1.8476    0.4898 H   0  0  0  0  0  0  0  0  0  0  0  0
    1.9460   -1.4606    2.1115 H   0  0  0  0  0  0  0  0  0  0  0  0
    2.7737    0.2314    0.8669 H   0  0  0  0  0  0  0  0  0  0  0  0
    4.8760   -2.2585    0.1588 H   0  0  0  0  0  0  0  0  0  0  0  0
    6.8856   -2.4375    1.0547 H   0  0  0  0  0  0  0  0  0  0  0  0
    6.7545   -5.1523    1.8491 H   0  0  0  0  0  0  0  0  0  0  0  0
    7.2527   -4.7394    0.2388 H   0  0  0  0  0  0  0  0  0  0  0  0
    6.3209   -6.1987    0.5028 H   0  0  0  0  0  0  0  0  0  0  0  0
    4.8470   -5.1136   -1.2446 H   0  0  0  0  0  0  0  0  0  0  0  0
    4.4267   -2.0031    5.0833 H   0  0  0  0  0  0  0  0  0  0  0  0
    5.4599    0.9046    3.6704 H   0  0  0  0  0  0  0  0  0  0  0  0
    5.3826    0.0627    5.1963 H   0  0  0  0  0  0  0  0  0  0  0  0
    3.9531    0.9030    4.5480 H   0  0  0  0  0  0  0  0  0  0  0  0
    2.6153   -0.5556    5.5396 H   0  0  0  0  0  0  0  0  0  0  0  0
    1.7145   -1.1643    4.2022 H   0  0  0  0  0  0  0  0  0  0  0  0
    0.6857   -1.0714    6.9657 H   0  0  0  0  0  0  0  0  0  0  0  0
   -0.0906   -2.6361    6.9408 H   0  0  0  0  0  0  0  0  0  0  0  0
   -0.1473   -1.6363    5.5212 H   0  0  0  0  0  0  0  0  0  0  0  0
    3.0459   -7.4551    0.5726 H   0  0  0  0  0  0  0  0  0  0  0  0
    3.5859   -9.2237    1.7313 H   0  0  0  0  0  0  0  0  0  0  0  0
  1  2  1  0
  1 48  1  0
  1 49  1  0
  1 50  1  0
  2  3  1  0
  3  4  1  0
  3 51  1  0
  3 52  1  0
  4  5  1  0
  4 53  1  0
  4 54  1  0
  5  6  1  0
  5 55  1  0
  5 56  1  0
  6 12  1  0
  6  7  2  0
  7  8  1  0
  7 57  1  0
  8 46  1  0
  8  9  1  6
  8 10  1  0
  9 58  1  0
 10 11  1  0
 10 14  1  0
 10 59  1  1
 11 12  1  0
 12 13  2  0
 14 28  1  0
 14 15  1  0
 14 60  1  6
 15 39  1  0
 15 16  1  0
 15 61  1  6
 16 44  1  0
 16 17  1  0
 16 62  1  6
 17 18  1  0
 17 63  1  0
 17 64  1  0
 18 19  1  0
 18 65  1  0
 18 66  1  0
 19 44  1  0
 19 20  1  0
 19 67  1  1
 20 21  1  0
 21 22  1  0
 21 24  1  0
 21 68  1  1
 22 23  1  0
 23 69  1  0
 23 70  1  0
 23 71  1  0
 24 25  1  0
 24 72  1  0
 24 73  1  0
 25 39  1  0
 26 25  1  1
 25 74  1  6
 26 27  2  0
 28 26  1  1
 28 29  1  0
 28 46  1  0
 29 36  1  0
 29 30  1  0
 29 75  1  6
 30 31  1  0
 31 32  1  1
 31 34  1  0
 39 31  1  6
 32 33  1  0
 32 76  1  0
 32 77  1  0
 33 78  1  0
 34 35  1  0
 34 36  1  0
 34 79  1  6
 35 80  1  0
 36 37  1  0
 36 38  1  6
 37 81  1  0
 37 82  1  0
 37 83  1  0
 38 84  1  0
 39 40  1  0
 40 41  1  0
 40 43  1  0
 40 85  1  1
 41 42  1  0
 42 86  1  0
 42 87  1  0
 42 88  1  0
 43 44  1  0
 43 89  1  0
 43 90  1  0
 44 45  1  1
 45 91  1  0
 45 92  1  0
 45 93  1  0
 46 47  1  0
 46 94  1  6
 47 95  1  0
M  END
>  <i_m_ct_stereo_status>  (72) 
1

>  <s_m_source_file>  (72) 
/var/tmp/pbs.5075288.sched01/tmphpu8_cit/24996nucuhu.sdf

>  <i_m_source_file_index>  (72) 
17

>  <i_lp_mmshare_version>  (72) 
48012

>  <i_f3d_flags>  (72) 
0

>  <s_epik_input>  (72) 
W0NIM11PW0NIMl1bQ0gyXVtDSDJdQyhDKE8xKT1PKT1bQ0hdW0NAXShbT0hdKShbQ0BASF0yW09IXSlbQ0BASF0xW0NASF0oW0NAXTIzNClbQ0BASF01W0NAXTYoW0NAXTcoW0NIMl1bT0hdKU9bQ0BIXTRbQ0BAXShbQ0gzXSkoW09IXSlbQ0BASF03W09IXSlbQ0BIXShbUytdM1tPLV0pW0NIMl1bQ0BIXShPW0NIM10pT1tDQEhdOFtDQF0oW0NIM10pKFtDQEBIXTVbQ0gyXVtDSDJdOClbQ0gyXVtDQEBIXTZPW0NIM10=

>  <s_epik_cmdline>  (72) 
J2VwaWtfcHl0aG9uJywgJy1waHQnLCAnMi4wJywgJy1waCcsICc3LjAnLCAnLXRuJywgJzgnLCAnLW1hJywgJzIwMCcsICctaW1hZScsICc8aW5maWxlLm1hZT4nLCAnLW9tYWUnLCAnPG91dGZpbGUubWFlPic=

>  <r_lp_tautomer_probability>  (72) 
1

>  <r_epik_Ionization_Penalty>  (72) 
3.32548e-06

>  <r_epik_Ionization_Penalty_Charging>  (72) 
0

>  <r_epik_Ionization_Penalty_Neutral>  (72) 
3.32548e-06

>  <r_epik_State_Penalty>  (72) 
-0

>  <r_epik_Charging_Adjusted_Penalty>  (72) 
0

>  <i_epik_Tot_Q>  (72) 
0

>  <i_epik_Tot_abs_Q>  (72) 
2

>  <s_epik_Chemistry_Notes>  (72) 
This compound has an ester and may undergo hydrolysis at high or low pH. This compound contains an acetal/aminal-like group ( X-CH(R)-Y where X, Y are N, S, or O) that may be acid/base labile, releasing an aldehyde.

>  <s_lp_Force_Field>  (72) 
OPLS3e

>  <r_lp_Energy>  (72) 
166.037

>  <b_lp_Chiralities_Consistent>  (72) 
1

>  <s_lp_Variant>  (72) 
78:0-1

>  <s_i_glide_gridfile>  (72) 
pfpi4k_grid

>  <i_i_glide_lignum>  (72) 
17

>  <i_i_glide_rotatable_bonds>  (72) 
12

>  <r_i_docking_score>  (72) 
-2.96315

>  <r_i_glide_ligand_efficiency>  (72) 
-0.0630457

>  <r_i_glide_ligand_efficiency_sa>  (72) 
-0.227521

>  <r_i_glide_ligand_efficiency_ln>  (72) 
-0.610939

>  <r_i_glide_gscore>  (72) 
-2.96315

>  <r_i_glide_lipo>  (72) 
-0.352938

>  <r_i_glide_hbond>  (72) 
-0.32

>  <r_i_glide_metal>  (72) 
-0

>  <r_i_glide_rewards>  (72) 
0

>  <r_i_glide_evdw>  (72) 
-29.3509

>  <r_i_glide_ecoul>  (72) 
-5.46437

>  <r_i_glide_erotb>  (72) 
0.0138657

>  <r_i_glide_esite>  (72) 
-0.0168752

>  <r_i_glide_emodel>  (72) 
-39.468

>  <r_i_glide_energy>  (72) 
-34.8152

>  <r_i_glide_einternal>  (72) 
3.79999

>  <r_i_glide_intrahb_reward>  (72) 
-0

>  <i_i_glide_confnum>  (72) 
5

>  <i_i_glide_posenum>  (72) 
3

>  <r_i_glide_eff_state_penalty>  (72) 
0

>  <ligand_id>  (72) 
78

>  <original_smiles>  (72) 
COCCCC1=CC2(O)C(OC1=O)C1C3C4CCC5OC(OC)CC6[S+]([O-])C1(C1OC(CO)(C(O)C1(C)O)C36C(OC)CC54C)C2O

>  <smiles>  (72) 
[H]OC([H])([H])C12OC([H])(C(O[H])(C([H])([H])[H])C1([H])O[H])C13S(=O)C4([H])C([H])([H])C([H])(OC([H])([H])[H])OC5([H])C([H])([H])C([H])([H])C6([H])C([H])(C1([H])C1([H])OC(=O)C(C([H])([H])C([H])([H])C([H])([H])OC([H])([H])[H])=C([H])C1(O[H])C3([H])O[H])C42C([H])(OC([H])([H])[H])C([H])([H])C56C([H])([H])[H]

$$$$
78:0:2
     RDKit          3D

 95102  0  0  1  0  0  0  0  0999 V2000
   -4.8862    4.2240    1.7675 C   0  0  0  0  0  0  0  0  0  0  0  0
   -3.8581    3.2839    2.0283 O   0  0  0  0  0  0  0  0  0  0  0  0
   -3.1507    3.5358    3.2275 C   0  0  0  0  0  0  0  0  0  0  0  0
   -1.8953    2.6619    3.2951 C   0  0  0  0  0  0  0  0  0  0  0  0
   -1.1316    2.8138    4.6202 C   0  0  0  0  0  0  0  0  0  0  0  0
   -0.0820    1.7058    4.8147 C   0  0  0  0  0  0  0  0  0  0  0  0
    1.0770    1.6816    4.1450 C   0  0  0  0  0  0  0  0  0  0  0  0
    2.1456    0.6141    4.3593 C   0  0  1  0  0  0  0  0  0  0  0  0
    3.3971    1.2662    4.4389 O   0  0  0  0  0  0  0  0  0  0  0  0
    1.9376   -0.1273    5.6930 C   0  0  1  0  0  0  0  0  0  0  0  0
    0.5445   -0.3214    5.9219 O   0  0  0  0  0  0  0  0  0  0  0  0
   -0.4074    0.6302    5.7648 C   0  0  0  0  0  0  0  0  0  0  0  0
   -1.4847    0.5343    6.3758 O   0  0  0  0  0  0  0  0  0  0  0  0
    2.7710   -1.4284    5.4941 C   0  0  1  0  0  0  0  0  0  0  0  0
    2.9471   -2.6377    6.5345 C   0  0  1  0  0  0  0  0  0  0  0  0
    2.2117   -2.5696    7.9235 C   0  0  1  0  0  0  0  0  0  0  0  0
    0.7101   -2.2488    7.9639 C   0  0  0  0  0  0  0  0  0  0  0  0
    0.0715   -3.1919    8.9707 C   0  0  0  0  0  0  0  0  0  0  0  0
    0.9294   -4.4480    8.8689 C   0  0  1  0  0  0  0  0  0  0  0  0
    0.5352   -5.4492    7.9005 O   0  0  0  0  0  0  0  0  0  0  0  0
   -0.1039   -5.2772    6.6464 C   0  0  1  0  0  0  0  0  0  0  0  0
   -1.0194   -4.2432    6.5118 O   0  0  0  0  0  0  0  0  0  0  0  0
   -2.3390   -4.4960    6.9775 C   0  0  0  0  0  0  0  0  0  0  0  0
    0.7994   -5.4645    5.3891 C   0  0  0  0  0  0  0  0  0  0  0  0
    1.9262   -4.4373    4.9989 C   0  0  1  0  0  0  0  0  0  0  0  0
    1.2518   -3.0779    3.9215 S   0  0  0  0  0  0  0  0  0  0  0  0
   -0.0289   -2.5372    4.5284 O   0  0  0  0  0  0  0  0  0  0  0  0
    2.6379   -1.8207    3.9854 C   0  0  2  0  0  0  0  0  0  0  0  0
    3.9983   -2.3789    3.4176 C   0  0  1  0  0  0  0  0  0  0  0  0
    4.7988   -2.6583    4.5418 O   0  0  0  0  0  0  0  0  0  0  0  0
    4.6254   -3.9731    5.0349 C   0  0  2  0  0  0  0  0  0  0  0  0
    5.9392   -4.0093    5.9039 C   0  0  0  0  0  0  0  0  0  0  0  0
    6.7515   -5.1592    5.7528 O   0  0  0  0  0  0  0  0  0  0  0  0
    4.7842   -4.6866    3.6513 C   0  0  1  0  0  0  0  0  0  0  0  0
    4.2661   -5.9989    3.5499 O   0  0  0  0  0  0  0  0  0  0  0  0
    4.2356   -3.6856    2.6048 C   0  0  1  0  0  0  0  0  0  0  0  0
    3.1743   -4.1817    1.5892 C   0  0  0  0  0  0  0  0  0  0  0  0
    5.3328   -3.3802    1.7624 O   0  0  0  0  0  0  0  0  0  0  0  0
    3.2091   -4.0736    5.8658 C   0  0  1  0  0  0  0  0  0  0  0  0
    3.3810   -5.2387    6.9317 C   0  0  1  0  0  0  0  0  0  0  0  0
    4.3547   -6.2053    6.5456 O   0  0  0  0  0  0  0  0  0  0  0  0
    4.4283   -7.4056    7.3025 C   0  0  0  0  0  0  0  0  0  0  0  0
    3.5109   -4.7673    8.3865 C   0  0  0  0  0  0  0  0  0  0  0  0
    2.3627   -3.8342    8.8143 C   0  0  1  0  0  0  0  0  0  0  0  0
    2.7560   -3.3953   10.2541 C   0  0  0  0  0  0  0  0  0  0  0  0
    2.2251   -0.4806    3.2523 C   0  0  1  0  0  0  0  0  0  0  0  0
    1.0213   -0.5796    2.4998 O   0  0  0  0  0  0  0  0  0  0  0  0
   -5.3827    3.9665    0.8330 H   0  0  0  0  0  0  0  0  0  0  0  0
   -4.4816    5.2287    1.6471 H   0  0  0  0  0  0  0  0  0  0  0  0
   -5.6494    4.2366    2.5462 H   0  0  0  0  0  0  0  0  0  0  0  0
   -2.8554    4.5842    3.2786 H   0  0  0  0  0  0  0  0  0  0  0  0
   -3.7989    3.3160    4.0754 H   0  0  0  0  0  0  0  0  0  0  0  0
   -2.1754    1.6178    3.1577 H   0  0  0  0  0  0  0  0  0  0  0  0
   -1.2314    2.9111    2.4674 H   0  0  0  0  0  0  0  0  0  0  0  0
   -0.6278    3.7813    4.6501 H   0  0  0  0  0  0  0  0  0  0  0  0
   -1.8347    2.8383    5.4536 H   0  0  0  0  0  0  0  0  0  0  0  0
    1.3157    2.4681    3.4360 H   0  0  0  0  0  0  0  0  0  0  0  0
    3.5703    1.6885    3.6021 H   0  0  0  0  0  0  0  0  0  0  0  0
    2.3448    0.4474    6.5239 H   0  0  0  0  0  0  0  0  0  0  0  0
    3.7508   -0.9464    5.5706 H   0  0  0  0  0  0  0  0  0  0  0  0
    3.9487   -2.4275    6.9115 H   0  0  0  0  0  0  0  0  0  0  0  0
    2.6844   -1.7344    8.4395 H   0  0  0  0  0  0  0  0  0  0  0  0
    0.5215   -1.2136    8.2463 H   0  0  0  0  0  0  0  0  0  0  0  0
    0.2925   -2.4162    6.9860 H   0  0  0  0  0  0  0  0  0  0  0  0
    0.1606   -2.7767    9.9753 H   0  0  0  0  0  0  0  0  0  0  0  0
   -1.0130   -3.3347    8.8041 H   0  0  0  0  0  0  0  0  0  0  0  0
    0.8530   -5.0023    9.8046 H   0  0  0  0  0  0  0  0  0  0  0  0
   -0.7189   -6.1774    6.6166 H   0  0  0  0  0  0  0  0  0  0  0  0
   -2.8921   -3.5654    6.8762 H   0  0  0  0  0  0  0  0  0  0  0  0
   -2.3858   -4.7942    8.0291 H   0  0  0  0  0  0  0  0  0  0  0  0
   -2.8579   -5.2545    6.3861 H   0  0  0  0  0  0  0  0  0  0  0  0
    1.2384   -6.4641    5.4303 H   0  0  0  0  0  0  0  0  0  0  0  0
    0.1230   -5.5366    4.5370 H   0  0  0  0  0  0  0  0  0  0  0  0
    2.3126   -5.0387    4.2048 H   0  0  0  0  0  0  0  0  0  0  0  0
    4.5142   -1.5553    2.9229 H   0  0  0  0  0  0  0  0  0  0  0  0
    6.6079   -3.1958    5.6424 H   0  0  0  0  0  0  0  0  0  0  0  0
    5.7343   -3.8187    6.9481 H   0  0  0  0  0  0  0  0  0  0  0  0
    7.4465   -5.1333    6.4011 H   0  0  0  0  0  0  0  0  0  0  0  0
    5.8563   -4.8003    3.4625 H   0  0  0  0  0  0  0  0  0  0  0  0
    4.5929   -6.3911    2.7477 H   0  0  0  0  0  0  0  0  0  0  0  0
    2.3187   -4.6815    2.0305 H   0  0  0  0  0  0  0  0  0  0  0  0
    3.6071   -4.9089    0.9044 H   0  0  0  0  0  0  0  0  0  0  0  0
    2.8002   -3.3610    0.9831 H   0  0  0  0  0  0  0  0  0  0  0  0
    5.0416   -2.7722    1.0950 H   0  0  0  0  0  0  0  0  0  0  0  0
    2.5226   -5.8763    6.9593 H   0  0  0  0  0  0  0  0  0  0  0  0
    5.0699   -8.1130    6.7788 H   0  0  0  0  0  0  0  0  0  0  0  0
    3.4552   -7.8807    7.4366 H   0  0  0  0  0  0  0  0  0  0  0  0
    4.8788   -7.2279    8.2783 H   0  0  0  0  0  0  0  0  0  0  0  0
    3.5504   -5.6267    9.0641 H   0  0  0  0  0  0  0  0  0  0  0  0
    4.4541   -4.2449    8.5383 H   0  0  0  0  0  0  0  0  0  0  0  0
    2.7751   -4.2505   10.9304 H   0  0  0  0  0  0  0  0  0  0  0  0
    2.0763   -2.6694   10.6910 H   0  0  0  0  0  0  0  0  0  0  0  0
    3.7410   -2.9292   10.2922 H   0  0  0  0  0  0  0  0  0  0  0  0
    2.9708   -0.1640    2.5137 H   0  0  0  0  0  0  0  0  0  0  0  0
    1.2241   -0.6552    1.5714 H   0  0  0  0  0  0  0  0  0  0  0  0
  1  2  1  0
  1 48  1  0
  1 49  1  0
  1 50  1  0
  2  3  1  0
  3  4  1  0
  3 51  1  0
  3 52  1  0
  4  5  1  0
  4 53  1  0
  4 54  1  0
  5  6  1  0
  5 55  1  0
  5 56  1  0
  6 12  1  0
  6  7  2  0
  7  8  1  0
  7 57  1  0
  8 46  1  0
  8  9  1  1
  8 10  1  0
  9 58  1  0
 10 11  1  0
 10 14  1  0
 10 59  1  1
 11 12  1  0
 12 13  2  0
 14 28  1  0
 14 15  1  0
 14 60  1  6
 15 39  1  0
 15 16  1  0
 15 61  1  1
 16 44  1  0
 16 17  1  0
 16 62  1  1
 17 18  1  0
 17 63  1  0
 17 64  1  0
 18 19  1  0
 18 65  1  0
 18 66  1  0
 19 44  1  0
 19 20  1  0
 19 67  1  1
 20 21  1  0
 21 22  1  0
 21 24  1  0
 21 68  1  6
 22 23  1  0
 23 69  1  0
 23 70  1  0
 23 71  1  0
 24 25  1  0
 24 72  1  0
 24 73  1  0
 25 39  1  0
 26 25  1  1
 25 74  1  6
 26 27  2  0
 28 26  1  1
 28 29  1  0
 28 46  1  0
 29 36  1  0
 29 30  1  0
 29 75  1  6
 30 31  1  0
 31 32  1  1
 31 34  1  0
 39 31  1  6
 32 33  1  0
 32 76  1  0
 32 77  1  0
 33 78  1  0
 34 35  1  0
 34 36  1  0
 34 79  1  6
 35 80  1  0
 36 37  1  0
 36 38  1  6
 37 81  1  0
 37 82  1  0
 37 83  1  0
 38 84  1  0
 39 40  1  0
 40 41  1  0
 40 43  1  0
 40 85  1  1
 41 42  1  0
 42 86  1  0
 42 87  1  0
 42 88  1  0
 43 44  1  0
 43 89  1  0
 43 90  1  0
 44 45  1  1
 45 91  1  0
 45 92  1  0
 45 93  1  0
 46 47  1  0
 46 94  1  6
 47 95  1  0
M  END
>  <i_m_ct_stereo_status>  (73) 
1

>  <s_m_source_file>  (73) 
/var/tmp/pbs.5075288.sched01/tmphpu8_cit/24996nucuhu.sdf

>  <i_m_source_file_index>  (73) 
17

>  <i_lp_mmshare_version>  (73) 
48012

>  <i_f3d_flags>  (73) 
0

>  <s_epik_input>  (73) 
W0NIM11PW0NIMl1bQ0gyXVtDSDJdQyhDKE8xKT1PKT1bQ0hdW0NAXShbT0hdKShbQ0BASF0yW09IXSlbQ0BASF0xW0NASF0oW0NAXTIzNClbQ0BASF01W0NAXTYoW0NAXTcoW0NIMl1bT0hdKU9bQ0BIXTRbQ0BAXShbQ0gzXSkoW09IXSlbQ0BASF03W09IXSlbQ0BIXShbUytdM1tPLV0pW0NIMl1bQ0BIXShPW0NIM10pT1tDQEhdOFtDQF0oW0NIM10pKFtDQEBIXTVbQ0gyXVtDSDJdOClbQ0gyXVtDQEBIXTZPW0NIM10=

>  <s_epik_cmdline>  (73) 
J2VwaWtfcHl0aG9uJywgJy1waHQnLCAnMi4wJywgJy1waCcsICc3LjAnLCAnLXRuJywgJzgnLCAnLW1hJywgJzIwMCcsICctaW1hZScsICc8aW5maWxlLm1hZT4nLCAnLW9tYWUnLCAnPG91dGZpbGUubWFlPic=

>  <r_lp_tautomer_probability>  (73) 
1

>  <r_epik_Ionization_Penalty>  (73) 
3.32548e-06

>  <r_epik_Ionization_Penalty_Charging>  (73) 
0

>  <r_epik_Ionization_Penalty_Neutral>  (73) 
3.32548e-06

>  <r_epik_State_Penalty>  (73) 
-0

>  <r_epik_Charging_Adjusted_Penalty>  (73) 
0

>  <i_epik_Tot_Q>  (73) 
0

>  <i_epik_Tot_abs_Q>  (73) 
2

>  <s_epik_Chemistry_Notes>  (73) 
This compound has an ester and may undergo hydrolysis at high or low pH. This compound contains an acetal/aminal-like group ( X-CH(R)-Y where X, Y are N, S, or O) that may be acid/base labile, releasing an aldehyde.

>  <s_lp_Force_Field>  (73) 
OPLS3e

>  <r_lp_Energy>  (73) 
166.037

>  <b_lp_Chiralities_Consistent>  (73) 
1

>  <s_lp_Variant>  (73) 
78:0-1

>  <s_i_glide_gridfile>  (73) 
pfpi4k_grid

>  <i_i_glide_lignum>  (73) 
17

>  <i_i_glide_rotatable_bonds>  (73) 
12

>  <r_i_docking_score>  (73) 
-2.36185

>  <r_i_glide_ligand_efficiency>  (73) 
-0.050252

>  <r_i_glide_ligand_efficiency_sa>  (73) 
-0.181351

>  <r_i_glide_ligand_efficiency_ln>  (73) 
-0.486964

>  <r_i_glide_gscore>  (73) 
-2.36185

>  <r_i_glide_lipo>  (73) 
-0.253191

>  <r_i_glide_hbond>  (73) 
-0.112465

>  <r_i_glide_metal>  (73) 
-0

>  <r_i_glide_rewards>  (73) 
-0.0680254

>  <r_i_glide_evdw>  (73) 
-29.7442

>  <r_i_glide_ecoul>  (73) 
-2.89675

>  <r_i_glide_erotb>  (73) 
0.0138657

>  <r_i_glide_esite>  (73) 
-0.0203067

>  <r_i_glide_emodel>  (73) 
-36.1726

>  <r_i_glide_energy>  (73) 
-32.641

>  <r_i_glide_einternal>  (73) 
3.72818

>  <r_i_glide_intrahb_reward>  (73) 
-0

>  <i_i_glide_confnum>  (73) 
1

>  <i_i_glide_posenum>  (73) 
15

>  <r_i_glide_eff_state_penalty>  (73) 
0

>  <ligand_id>  (73) 
78

>  <original_smiles>  (73) 
COCCCC1=CC2(O)C(OC1=O)C1C3C4CCC5OC(OC)CC6[S+]([O-])C1(C1OC(CO)(C(O)C1(C)O)C36C(OC)CC54C)C2O

>  <smiles>  (73) 
[H]OC([H])([H])C12OC([H])(C(O[H])(C([H])([H])[H])C1([H])O[H])C13S(=O)C4([H])C([H])([H])C([H])(OC([H])([H])[H])OC5([H])C([H])([H])C([H])([H])C6([H])C([H])(C1([H])C1([H])OC(=O)C(C([H])([H])C([H])([H])C([H])([H])OC([H])([H])[H])=C([H])C1(O[H])C3([H])O[H])C42C([H])(OC([H])([H])[H])C([H])([H])C56C([H])([H])[H]

$$$$
79:0:0
     RDKit          3D

 97105  0  0  1  0  0  0  0  0999 V2000
    0.8054   -2.8244    9.0383 C   0  0  0  0  0  0  0  0  0  0  0  0
    1.7180   -2.1657    8.2800 C   0  0  0  0  0  0  0  0  0  0  0  0
    2.7706   -1.3282    8.8600 C   0  0  0  0  0  0  0  0  0  0  0  0
    2.9282   -1.0319   10.0378 O   0  0  0  0  0  0  0  0  0  0  0  0
    3.6721   -0.8269    7.7514 C   0  0  0  0  0  0  0  0  0  0  0  0
    3.4382   -1.8637    6.6442 C   0  0  1  0  0  0  0  0  0  0  0  0
    1.9189   -2.2307    6.7770 C   0  0  1  0  0  0  0  0  0  0  0  0
    1.7051   -3.6943    6.2984 C   0  0  0  0  0  0  0  0  0  0  0  0
    0.8406   -1.3503    5.9863 C   0  0  0  0  0  0  0  0  0  0  0  0
    0.3803    0.1874    6.1567 C   0  0  2  0  0  0  0  0  0  0  0  0
   -0.0656    0.1742    7.6247 C   0  0  0  0  0  0  0  0  0  0  0  0
   -0.9508    0.3198    5.2838 C   0  0  1  0  0  0  0  0  0  0  0  0
   -1.5268   -0.8448    4.4739 C   0  0  0  0  0  0  0  0  0  0  0  0
   -2.0089   -0.5398    5.7633 O   0  0  0  0  0  0  0  0  0  0  0  0
   -1.4568    1.6796    4.7835 C   0  0  2  0  0  0  0  0  0  0  0  0
   -0.7387    2.2449    3.5538 C   0  0  0  0  0  0  0  0  0  0  0  0
    0.0834    3.5036    3.9222 C   0  0  1  0  0  0  0  0  0  0  0  0
   -0.5492    4.5987    3.2812 O   0  0  0  0  0  0  0  0  0  0  0  0
    0.1955    3.6969    5.4795 C   0  0  1  0  0  0  0  0  0  0  0  0
    0.0596    5.2131    5.8287 C   0  0  0  0  0  0  0  0  0  0  0  0
   -1.4928    3.1029    5.9757 S   0  0  0  0  0  0  0  0  0  0  0  0
   -1.6600    2.8129    7.4482 O   0  0  0  0  0  0  0  0  0  0  0  0
    1.4299    2.8907    6.2118 C   0  0  2  0  0  0  0  0  0  0  0  0
    1.4888    3.1126    7.7906 C   0  0  1  0  0  0  0  0  0  0  0  0
    0.5900    2.6188    8.7395 O   0  0  0  0  0  0  0  0  0  0  0  0
    2.9417    2.9550    8.2779 C   0  0  0  0  0  0  0  0  0  0  0  0
    3.8204    3.4365    7.1263 C   0  0  2  0  0  0  0  0  0  0  0  0
    5.0615    2.5563    6.9845 C   0  0  0  0  0  0  0  0  0  0  0  0
    4.2243    4.9085    7.1659 C   0  0  0  0  0  0  0  0  0  0  0  0
    2.9620    5.2232    6.4208 C   0  0  0  0  0  0  0  0  0  0  0  0
    2.8290    3.7204    5.9391 C   0  0  2  0  0  0  0  0  0  0  0  0
    3.3879    3.7656    4.4857 C   0  0  0  0  0  0  0  0  0  0  0  0
    1.5195    1.2827    5.7607 C   0  0  2  0  0  0  0  0  0  0  0  0
    1.7797    1.2806    4.3767 O   0  0  0  0  0  0  0  0  0  0  0  0
    2.8252    0.6906    5.0930 C   0  0  2  0  0  0  0  0  0  0  0  0
    3.1824   -0.6292    4.4311 C   0  0  0  0  0  0  0  0  0  0  0  0
    2.7360   -0.9166    3.1833 C   0  0  0  0  0  0  0  0  0  0  0  0
    3.0927   -2.1715    2.4141 C   0  0  1  0  0  0  0  0  0  0  0  0
    3.1838   -1.9552    1.0054 O   0  0  0  0  0  0  0  0  0  0  0  0
    4.0102   -1.0272    0.4703 C   0  0  0  0  0  0  0  0  0  0  0  0
    4.0063   -1.0571   -1.0469 C   0  0  0  0  0  0  0  0  0  0  0  0
    4.7216   -0.2321    1.0849 O   0  0  0  0  0  0  0  0  0  0  0  0
    4.3862   -2.7892    2.9431 C   0  0  0  0  0  0  0  0  0  0  0  0
    4.3477   -2.9177    4.4505 C   0  0  0  0  0  0  0  0  0  0  0  0
    4.6166   -4.1212    4.9832 C   0  0  0  0  0  0  0  0  0  0  0  0
    4.0738   -1.5966    5.2323 C   0  0  2  0  0  0  0  0  0  0  0  0
    5.4783   -0.9636    5.3648 C   0  0  0  0  0  0  0  0  0  0  0  0
    0.0621   -3.4798    8.6084 H   0  0  0  0  0  0  0  0  0  0  0  0
    0.7961   -2.7222   10.1085 H   0  0  0  0  0  0  0  0  0  0  0  0
    3.2986    0.1474    7.4652 H   0  0  0  0  0  0  0  0  0  0  0  0
    4.7085   -0.7472    8.0809 H   0  0  0  0  0  0  0  0  0  0  0  0
    3.9993   -2.7015    7.0579 H   0  0  0  0  0  0  0  0  0  0  0  0
    1.8659   -3.7945    5.2278 H   0  0  0  0  0  0  0  0  0  0  0  0
    0.6948   -4.0529    6.4810 H   0  0  0  0  0  0  0  0  0  0  0  0
    2.3748   -4.3938    6.8008 H   0  0  0  0  0  0  0  0  0  0  0  0
    0.9543   -1.5747    4.9369 H   0  0  0  0  0  0  0  0  0  0  0  0
   -0.0516   -1.9249    6.2228 H   0  0  0  0  0  0  0  0  0  0  0  0
   -0.8361    0.8738    7.8649 H   0  0  0  0  0  0  0  0  0  0  0  0
    0.7619    0.2959    8.3206 H   0  0  0  0  0  0  0  0  0  0  0  0
   -0.5676   -0.7488    7.8961 H   0  0  0  0  0  0  0  0  0  0  0  0
   -2.2274   -0.5654    3.6804 H   0  0  0  0  0  0  0  0  0  0  0  0
   -1.1000   -1.8459    4.4477 H   0  0  0  0  0  0  0  0  0  0  0  0
   -2.5023    1.5268    4.5043 H   0  0  0  0  0  0  0  0  0  0  0  0
   -0.1416    1.4698    3.0733 H   0  0  0  0  0  0  0  0  0  0  0  0
   -1.4765    2.4923    2.7945 H   0  0  0  0  0  0  0  0  0  0  0  0
    1.0510    3.4372    3.4458 H   0  0  0  0  0  0  0  0  0  0  0  0
   -0.3453    4.5476    2.3186 H   0  0  0  0  0  0  0  0  0  0  0  0
    0.7983    5.8290    5.3168 H   0  0  0  0  0  0  0  0  0  0  0  0
    0.0689    5.4279    6.8931 H   0  0  0  0  0  0  0  0  0  0  0  0
   -0.9019    5.6076    5.5028 H   0  0  0  0  0  0  0  0  0  0  0  0
    1.2551    4.1455    7.9934 H   0  0  0  0  0  0  0  0  0  0  0  0
   -0.2925    2.8988    8.4896 H   0  0  0  0  0  0  0  0  0  0  0  0
    3.1014    3.5417    9.1823 H   0  0  0  0  0  0  0  0  0  0  0  0
    3.1453    1.9235    8.5499 H   0  0  0  0  0  0  0  0  0  0  0  0
    5.4997    2.6372    5.9892 H   0  0  0  0  0  0  0  0  0  0  0  0
    4.8516    1.5146    7.1812 H   0  0  0  0  0  0  0  0  0  0  0  0
    5.8380    2.8517    7.6937 H   0  0  0  0  0  0  0  0  0  0  0  0
    4.2749    5.3474    8.1615 H   0  0  0  0  0  0  0  0  0  0  0  0
    5.1145    5.1396    6.5796 H   0  0  0  0  0  0  0  0  0  0  0  0
    2.2484    5.6393    7.1258 H   0  0  0  0  0  0  0  0  0  0  0  0
    3.1325    5.9547    5.6291 H   0  0  0  0  0  0  0  0  0  0  0  0
    4.4204    4.1109    4.4921 H   0  0  0  0  0  0  0  0  0  0  0  0
    2.8626    4.5032    3.8783 H   0  0  0  0  0  0  0  0  0  0  0  0
    3.4007    2.8526    3.9081 H   0  0  0  0  0  0  0  0  0  0  0  0
    3.7316    1.2733    5.2029 H   0  0  0  0  0  0  0  0  0  0  0  0
    2.0834   -0.2414    2.6497 H   0  0  0  0  0  0  0  0  0  0  0  0
    2.2748   -2.8768    2.5777 H   0  0  0  0  0  0  0  0  0  0  0  0
    3.0033   -0.8700   -1.4302 H   0  0  0  0  0  0  0  0  0  0  0  0
    4.3532   -2.0274   -1.4009 H   0  0  0  0  0  0  0  0  0  0  0  0
    4.6720   -0.2779   -1.4162 H   0  0  0  0  0  0  0  0  0  0  0  0
    4.5592   -3.7516    2.4582 H   0  0  0  0  0  0  0  0  0  0  0  0
    5.2481   -2.1687    2.6997 H   0  0  0  0  0  0  0  0  0  0  0  0
    4.8134   -4.9677    4.3392 H   0  0  0  0  0  0  0  0  0  0  0  0
    4.6686   -4.3167    6.0408 H   0  0  0  0  0  0  0  0  0  0  0  0
    5.8923   -0.7551    4.3749 H   0  0  0  0  0  0  0  0  0  0  0  0
    6.1706   -1.6310    5.8849 H   0  0  0  0  0  0  0  0  0  0  0  0
    5.4887   -0.0142    5.8904 H   0  0  0  0  0  0  0  0  0  0  0  0
  1  2  2  0
  1 48  1  0
  1 49  1  0
  2  7  1  0
  2  3  1  0
  3  4  2  0
  3  5  1  0
  5  6  1  0
  5 50  1  0
  5 51  1  0
  6 46  1  0
  6  7  1  0
  6 52  1  1
  7  8  1  6
  7  9  1  0
  8 53  1  0
  8 54  1  0
  8 55  1  0
  9 10  1  0
  9 56  1  0
  9 57  1  0
 10 33  1  0
 10 11  1  1
 10 12  1  0
 11 58  1  0
 11 59  1  0
 11 60  1  0
 12 14  1  1
 12 13  1  0
 12 15  1  0
 13 14  1  0
 13 61  1  0
 13 62  1  0
 15 21  1  0
 15 16  1  0
 15 63  1  6
 16 17  1  0
 16 64  1  0
 16 65  1  0
 17 18  1  0
 17 19  1  0
 17 66  1  6
 18 67  1  0
 19 20  1  6
 21 19  1  1
 19 23  1  0
 20 68  1  0
 20 69  1  0
 20 70  1  0
 21 22  2  0
 23 31  1  6
 23 24  1  0
 23 33  1  0
 24 25  1  0
 24 26  1  0
 24 71  1  6
 25 72  1  0
 26 27  1  0
 26 73  1  0
 26 74  1  0
 27 31  1  0
 27 28  1  6
 27 29  1  0
 28 75  1  0
 28 76  1  0
 28 77  1  0
 29 30  1  0
 29 78  1  0
 29 79  1  0
 30 31  1  0
 30 80  1  0
 30 81  1  0
 31 32  1  6
 32 82  1  0
 32 83  1  0
 32 84  1  0
 33 35  1  0
 33 34  1  6
 34 35  1  0
 35 36  1  0
 35 85  1  1
 36 46  1  0
 36 37  2  0
 37 38  1  0
 37 86  1  0
 38 39  1  0
 38 43  1  0
 38 87  1  6
 39 40  1  0
 40 41  1  0
 40 42  2  0
 41 88  1  0
 41 89  1  0
 41 90  1  0
 43 44  1  0
 43 91  1  0
 43 92  1  0
 44 45  2  0
 44 46  1  0
 45 93  1  0
 45 94  1  0
 46 47  1  1
 47 95  1  0
 47 96  1  0
 47 97  1  0
M  END
>  <i_m_ct_stereo_status>  (74) 
1

>  <s_m_source_file>  (74) 
/var/tmp/pbs.5075288.sched01/tmphpu8_cit/24996nucuhu.sdf

>  <i_m_source_file_index>  (74) 
18

>  <i_lp_mmshare_version>  (74) 
48012

>  <i_f3d_flags>  (74) 
0

>  <s_epik_input>  (74) 
W0NIM11DKD1PKU9bQ0BIXShbQ0hdMSlbQ0gyXUMoPVtDSDJdKVtDQF0oW0NIM10pKFtDQEBIXTJbQ0BdKFtDSDNdKShbQ0gyXTMpQyg9W0NIMl0pQyg9TylbQ0gyXTIpQz0xW0NAQEhdKE80KVtDQEBdNChbQ0BAXTMoW0NIM10pW0NAQF01NltDSDJdTzUpW0NAXTcoW0NAQF04KFtDSDNdKVtDQEhdKFtPSF0pW0NIMl1bQ0BASF02W1MrXThbTy1dKVtDQF05KFtDSDNdKVtDQEBdKFtDSDNdKShbQ0gyXVtDSDJdOSlbQ0gyXVtDQEBIXTdbT0hd

>  <s_epik_cmdline>  (74) 
J2VwaWtfcHl0aG9uJywgJy1waHQnLCAnMi4wJywgJy1waCcsICc3LjAnLCAnLXRuJywgJzgnLCAnLW1hJywgJzIwMCcsICctaW1hZScsICc8aW5maWxlLm1hZT4nLCAnLW9tYWUnLCAnPG91dGZpbGUubWFlPic=

>  <r_lp_tautomer_probability>  (74) 
1

>  <r_epik_Ionization_Penalty>  (74) 
3.11085e-06

>  <r_epik_Ionization_Penalty_Charging>  (74) 
0

>  <r_epik_Ionization_Penalty_Neutral>  (74) 
3.11085e-06

>  <r_epik_State_Penalty>  (74) 
-0

>  <r_epik_Charging_Adjusted_Penalty>  (74) 
0

>  <i_epik_Tot_Q>  (74) 
0

>  <i_epik_Tot_abs_Q>  (74) 
2

>  <s_epik_Chemistry_Notes>  (74) 
This compound has an ester and may undergo hydrolysis at high or low pH.

>  <s_lp_Force_Field>  (74) 
OPLS3e

>  <r_lp_Energy>  (74) 
174.163

>  <b_lp_Chiralities_Consistent>  (74) 
1

>  <s_lp_Variant>  (74) 
79:0-1

>  <s_i_glide_gridfile>  (74) 
pfpi4k_grid

>  <i_i_glide_lignum>  (74) 
18

>  <i_i_glide_rotatable_bonds>  (74) 
4

>  <r_i_docking_score>  (74) 
-3.47891

>  <r_i_glide_ligand_efficiency>  (74) 
-0.0740194

>  <r_i_glide_ligand_efficiency_sa>  (74) 
-0.267123

>  <r_i_glide_ligand_efficiency_ln>  (74) 
-0.71728

>  <r_i_glide_gscore>  (74) 
-3.47891

>  <r_i_glide_lipo>  (74) 
-0.0590638

>  <r_i_glide_hbond>  (74) 
-0.251353

>  <r_i_glide_metal>  (74) 
-0

>  <r_i_glide_rewards>  (74) 
-0.52824

>  <r_i_glide_evdw>  (74) 
-25.3515

>  <r_i_glide_ecoul>  (74) 
-9.3959

>  <r_i_glide_erotb>  (74) 
0.0479082

>  <r_i_glide_esite>  (74) 
-0.0112042

>  <r_i_glide_emodel>  (74) 
-46.4675

>  <r_i_glide_energy>  (74) 
-34.7474

>  <r_i_glide_einternal>  (74) 
2.83685

>  <r_i_glide_intrahb_reward>  (74) 
-0.5

>  <i_i_glide_confnum>  (74) 
2

>  <i_i_glide_posenum>  (74) 
11

>  <r_i_glide_eff_state_penalty>  (74) 
0

>  <ligand_id>  (74) 
79

>  <original_smiles>  (74) 
C=C1C(=O)CC2C1(C)CC1(C)C3(CO3)C3CC(O)C(C)([S+]3[O-])C3(C(O)CC4(C)CCC43C)C13OC3C1=CC(OC(C)=O)CC(=C)C12C

>  <smiles>  (74) 
[H]OC1([H])C([H])([H])C2([H])S(=O)C1(C([H])([H])[H])C1(C([H])(O[H])C([H])([H])C3(C([H])([H])[H])C([H])([H])C([H])([H])C31C([H])([H])[H])C13OC1([H])C1=C([H])C([H])(OC(=O)C([H])([H])[H])C([H])([H])C(=C([H])[H])C1(C([H])([H])[H])C1([H])C([H])([H])C(=O)C(=C([H])[H])C1(C([H])([H])[H])C([H])([H])C3(C([H])([H])[H])C21OC1([H])[H]

$$$$
79:0:1
     RDKit          3D

 97105  0  0  1  0  0  0  0  0999 V2000
    0.9894   -2.4927    9.1212 C   0  0  0  0  0  0  0  0  0  0  0  0
    1.8924   -1.8014    8.4006 C   0  0  0  0  0  0  0  0  0  0  0  0
    2.8837   -0.9064    9.0255 C   0  0  0  0  0  0  0  0  0  0  0  0
    2.9758   -0.6025   10.1982 O   0  0  0  0  0  0  0  0  0  0  0  0
    3.8040   -0.3668    7.9430 C   0  0  0  0  0  0  0  0  0  0  0  0
    3.6684   -1.4150    6.8273 C   0  0  1  0  0  0  0  0  0  0  0  0
    2.1619   -1.8539    6.9026 C   0  0  1  0  0  0  0  0  0  0  0  0
    2.0388   -3.3298    6.4262 C   0  0  0  0  0  0  0  0  0  0  0  0
    1.0818   -1.0330    6.0664 C   0  0  0  0  0  0  0  0  0  0  0  0
    0.5352    0.4823    6.2086 C   0  0  2  0  0  0  0  0  0  0  0  0
    0.0309    0.4502    7.6610 C   0  0  0  0  0  0  0  0  0  0  0  0
   -0.7628    0.5395    5.2815 C   0  0  1  0  0  0  0  0  0  0  0  0
   -1.2553   -0.6498    4.4530 C   0  0  0  0  0  0  0  0  0  0  0  0
   -1.7959   -0.3639    5.7214 O   0  0  0  0  0  0  0  0  0  0  0  0
   -1.3148    1.8809    4.7611 C   0  0  2  0  0  0  0  0  0  0  0  0
   -0.5721    2.4712    3.5577 C   0  0  0  0  0  0  0  0  0  0  0  0
    0.1805    3.7618    3.9669 C   0  0  1  0  0  0  0  0  0  0  0  0
   -0.4826    4.8192    3.2777 O   0  0  0  0  0  0  0  0  0  0  0  0
    0.2172    3.9701    5.5182 C   0  0  1  0  0  0  0  0  0  0  0  0
   -0.0082    5.4848    5.8482 C   0  0  0  0  0  0  0  0  0  0  0  0
   -1.4600    3.3034    5.9317 S   0  0  0  0  0  0  0  0  0  0  0  0
   -1.6765    3.0186    7.4160 O   0  0  0  0  0  0  0  0  0  0  0  0
    1.4547    3.2306    6.3002 C   0  0  2  0  0  0  0  0  0  0  0  0
    1.4340    3.4606    7.8751 C   0  0  1  0  0  0  0  0  0  0  0  0
    0.5187    2.9278    8.7861 O   0  0  0  0  0  0  0  0  0  0  0  0
    2.8693    3.3761    8.4251 C   0  0  0  0  0  0  0  0  0  0  0  0
    3.7723    3.8969    7.3085 C   0  0  2  0  0  0  0  0  0  0  0  0
    5.0598    3.0761    7.2222 C   0  0  0  0  0  0  0  0  0  0  0  0
    4.1040    5.3856    7.3585 C   0  0  0  0  0  0  0  0  0  0  0  0
    2.8596    5.6386    6.5610 C   0  0  0  0  0  0  0  0  0  0  0  0
    2.8221    4.1283    6.0785 C   0  0  2  0  0  0  0  0  0  0  0  0
    3.4384    4.1983    4.6531 C   0  0  0  0  0  0  0  0  0  0  0  0
    1.6448    1.6248    5.8485 C   0  0  2  0  0  0  0  0  0  0  0  0
    1.9556    1.6308    4.4801 O   0  0  0  0  0  0  0  0  0  0  0  0
    2.9975    1.1010    5.2346 C   0  0  2  0  0  0  0  0  0  0  0  0
    3.4531   -0.2050    4.5878 C   0  0  0  0  0  0  0  0  0  0  0  0
    3.0759   -0.5168    3.3231 C   0  0  0  0  0  0  0  0  0  0  0  0
    3.4899   -1.7813    2.5925 C   0  0  1  0  0  0  0  0  0  0  0  0
    3.6503   -1.5245    1.2022 O   0  0  0  0  0  0  0  0  0  0  0  0
    3.4067   -2.4904    0.2951 C   0  0  0  0  0  0  0  0  0  0  0  0
    3.6734   -2.0329   -1.1325 C   0  0  0  0  0  0  0  0  0  0  0  0
    3.0100   -3.6303    0.5430 O   0  0  0  0  0  0  0  0  0  0  0  0
    4.8050   -2.2961    3.1618 C   0  0  0  0  0  0  0  0  0  0  0  0
    4.7233   -2.4247    4.6697 C   0  0  0  0  0  0  0  0  0  0  0  0
    5.0198   -3.6153    5.2245 C   0  0  0  0  0  0  0  0  0  0  0  0
    4.3511   -1.1215    5.4401 C   0  0  2  0  0  0  0  0  0  0  0  0
    5.7242   -0.4278    5.6356 C   0  0  0  0  0  0  0  0  0  0  0  0
    0.2905   -3.1879    8.6655 H   0  0  0  0  0  0  0  0  0  0  0  0
    0.9235   -2.3922   10.1905 H   0  0  0  0  0  0  0  0  0  0  0  0
    3.3959    0.5881    7.6400 H   0  0  0  0  0  0  0  0  0  0  0  0
    4.8179   -0.2377    8.3180 H   0  0  0  0  0  0  0  0  0  0  0  0
    4.2483   -2.2233    7.2714 H   0  0  0  0  0  0  0  0  0  0  0  0
    2.2485   -3.4244    5.3647 H   0  0  0  0  0  0  0  0  0  0  0  0
    1.0396   -3.7350    6.5695 H   0  0  0  0  0  0  0  0  0  0  0  0
    2.7194   -3.9948    6.9608 H   0  0  0  0  0  0  0  0  0  0  0  0
    1.2511   -1.2483    5.0201 H   0  0  0  0  0  0  0  0  0  0  0  0
    0.2046   -1.6462    6.2695 H   0  0  0  0  0  0  0  0  0  0  0  0
   -0.7846    1.1139    7.8639 H   0  0  0  0  0  0  0  0  0  0  0  0
    0.8193    0.6152    8.3906 H   0  0  0  0  0  0  0  0  0  0  0  0
   -0.4397   -0.4923    7.9189 H   0  0  0  0  0  0  0  0  0  0  0  0
   -1.9530   -0.3977    3.6311 H   0  0  0  0  0  0  0  0  0  0  0  0
   -0.7814   -1.6235    4.4470 H   0  0  0  0  0  0  0  0  0  0  0  0
   -2.3360    1.6742    4.4429 H   0  0  0  0  0  0  0  0  0  0  0  0
    0.0830    1.7278    3.1043 H   0  0  0  0  0  0  0  0  0  0  0  0
   -1.2878    2.6845    2.7651 H   0  0  0  0  0  0  0  0  0  0  0  0
    1.1675    3.7524    3.5136 H   0  0  0  0  0  0  0  0  0  0  0  0
   -0.3027    4.7135    2.3584 H   0  0  0  0  0  0  0  0  0  0  0  0
    0.7179    6.1364    5.3612 H   0  0  0  0  0  0  0  0  0  0  0  0
   -0.0556    5.7036    6.9085 H   0  0  0  0  0  0  0  0  0  0  0  0
   -0.9758    5.8244    5.4796 H   0  0  0  0  0  0  0  0  0  0  0  0
    1.1414    4.4824    8.0641 H   0  0  0  0  0  0  0  0  0  0  0  0
   -0.3649    3.1416    8.4829 H   0  0  0  0  0  0  0  0  0  0  0  0
    2.9634    3.9723    9.3328 H   0  0  0  0  0  0  0  0  0  0  0  0
    3.1110    2.3574    8.7100 H   0  0  0  0  0  0  0  0  0  0  0  0
    5.5353    3.1762    6.2453 H   0  0  0  0  0  0  0  0  0  0  0  0
    4.8918    2.0267    7.4155 H   0  0  0  0  0  0  0  0  0  0  0  0
    5.7900    3.4110    7.9627 H   0  0  0  0  0  0  0  0  0  0  0  0
    4.0914    5.8304    8.3536 H   0  0  0  0  0  0  0  0  0  0  0  0
    5.0052    5.6590    6.8092 H   0  0  0  0  0  0  0  0  0  0  0  0
    2.0991    6.0214    7.2323 H   0  0  0  0  0  0  0  0  0  0  0  0
    3.0281    6.3759    5.7727 H   0  0  0  0  0  0  0  0  0  0  0  0
    4.4541    4.5930    4.6993 H   0  0  0  0  0  0  0  0  0  0  0  0
    2.9031    4.9067    4.0196 H   0  0  0  0  0  0  0  0  0  0  0  0
    3.5182    3.2846    4.0802 H   0  0  0  0  0  0  0  0  0  0  0  0
    3.8717    1.7249    5.3925 H   0  0  0  0  0  0  0  0  0  0  0  0
    2.4302    0.1261    2.7474 H   0  0  0  0  0  0  0  0  0  0  0  0
    2.6947   -2.5097    2.7631 H   0  0  0  0  0  0  0  0  0  0  0  0
    4.7060   -1.7004   -1.2298 H   0  0  0  0  0  0  0  0  0  0  0  0
    3.0124   -1.2047   -1.3922 H   0  0  0  0  0  0  0  0  0  0  0  0
    3.5009   -2.8446   -1.8394 H   0  0  0  0  0  0  0  0  0  0  0  0
    5.0682   -3.2505    2.7015 H   0  0  0  0  0  0  0  0  0  0  0  0
    5.6080   -1.6030    2.9082 H   0  0  0  0  0  0  0  0  0  0  0  0
    5.2807   -4.4557    4.5995 H   0  0  0  0  0  0  0  0  0  0  0  0
    5.0319   -3.8009    6.2848 H   0  0  0  0  0  0  0  0  0  0  0  0
    6.1912   -0.2143    4.6708 H   0  0  0  0  0  0  0  0  0  0  0  0
    6.4143   -1.0603    6.1971 H   0  0  0  0  0  0  0  0  0  0  0  0
    5.6596    0.5230    6.1546 H   0  0  0  0  0  0  0  0  0  0  0  0
  1  2  2  0
  1 48  1  0
  1 49  1  0
  2  7  1  0
  2  3  1  0
  3  4  2  0
  3  5  1  0
  5  6  1  0
  5 50  1  0
  5 51  1  0
  6 46  1  0
  6  7  1  0
  6 52  1  1
  7  8  1  6
  7  9  1  0
  8 53  1  0
  8 54  1  0
  8 55  1  0
  9 10  1  0
  9 56  1  0
  9 57  1  0
 10 33  1  0
 10 11  1  1
 10 12  1  0
 11 58  1  0
 11 59  1  0
 11 60  1  0
 12 14  1  1
 12 13  1  0
 12 15  1  0
 13 14  1  0
 13 61  1  0
 13 62  1  0
 15 21  1  0
 15 16  1  0
 15 63  1  6
 16 17  1  0
 16 64  1  0
 16 65  1  0
 17 18  1  0
 17 19  1  0
 17 66  1  6
 18 67  1  0
 19 20  1  6
 21 19  1  1
 19 23  1  0
 20 68  1  0
 20 69  1  0
 20 70  1  0
 21 22  2  0
 23 31  1  6
 23 24  1  0
 23 33  1  0
 24 25  1  0
 24 26  1  0
 24 71  1  6
 25 72  1  0
 26 27  1  0
 26 73  1  0
 26 74  1  0
 27 31  1  0
 27 28  1  6
 27 29  1  0
 28 75  1  0
 28 76  1  0
 28 77  1  0
 29 30  1  0
 29 78  1  0
 29 79  1  0
 30 31  1  0
 30 80  1  0
 30 81  1  0
 31 32  1  6
 32 82  1  0
 32 83  1  0
 32 84  1  0
 33 35  1  0
 33 34  1  6
 34 35  1  0
 35 36  1  0
 35 85  1  1
 36 46  1  0
 36 37  2  0
 37 38  1  0
 37 86  1  0
 38 39  1  0
 38 43  1  0
 38 87  1  6
 39 40  1  0
 40 41  1  0
 40 42  2  0
 41 88  1  0
 41 89  1  0
 41 90  1  0
 43 44  1  0
 43 91  1  0
 43 92  1  0
 44 45  2  0
 44 46  1  0
 45 93  1  0
 45 94  1  0
 46 47  1  1
 47 95  1  0
 47 96  1  0
 47 97  1  0
M  END
>  <i_m_ct_stereo_status>  (75) 
1

>  <s_m_source_file>  (75) 
/var/tmp/pbs.5075288.sched01/tmphpu8_cit/24996nucuhu.sdf

>  <i_m_source_file_index>  (75) 
18

>  <i_lp_mmshare_version>  (75) 
48012

>  <i_f3d_flags>  (75) 
0

>  <s_epik_input>  (75) 
W0NIM11DKD1PKU9bQ0BIXShbQ0hdMSlbQ0gyXUMoPVtDSDJdKVtDQF0oW0NIM10pKFtDQEBIXTJbQ0BdKFtDSDNdKShbQ0gyXTMpQyg9W0NIMl0pQyg9TylbQ0gyXTIpQz0xW0NAQEhdKE80KVtDQEBdNChbQ0BAXTMoW0NIM10pW0NAQF01NltDSDJdTzUpW0NAXTcoW0NAQF04KFtDSDNdKVtDQEhdKFtPSF0pW0NIMl1bQ0BASF02W1MrXThbTy1dKVtDQF05KFtDSDNdKVtDQEBdKFtDSDNdKShbQ0gyXVtDSDJdOSlbQ0gyXVtDQEBIXTdbT0hd

>  <s_epik_cmdline>  (75) 
J2VwaWtfcHl0aG9uJywgJy1waHQnLCAnMi4wJywgJy1waCcsICc3LjAnLCAnLXRuJywgJzgnLCAnLW1hJywgJzIwMCcsICctaW1hZScsICc8aW5maWxlLm1hZT4nLCAnLW9tYWUnLCAnPG91dGZpbGUubWFlPic=

>  <r_lp_tautomer_probability>  (75) 
1

>  <r_epik_Ionization_Penalty>  (75) 
3.11085e-06

>  <r_epik_Ionization_Penalty_Charging>  (75) 
0

>  <r_epik_Ionization_Penalty_Neutral>  (75) 
3.11085e-06

>  <r_epik_State_Penalty>  (75) 
-0

>  <r_epik_Charging_Adjusted_Penalty>  (75) 
0

>  <i_epik_Tot_Q>  (75) 
0

>  <i_epik_Tot_abs_Q>  (75) 
2

>  <s_epik_Chemistry_Notes>  (75) 
This compound has an ester and may undergo hydrolysis at high or low pH.

>  <s_lp_Force_Field>  (75) 
OPLS3e

>  <r_lp_Energy>  (75) 
174.163

>  <b_lp_Chiralities_Consistent>  (75) 
1

>  <s_lp_Variant>  (75) 
79:0-1

>  <s_i_glide_gridfile>  (75) 
pfpi4k_grid

>  <i_i_glide_lignum>  (75) 
18

>  <i_i_glide_rotatable_bonds>  (75) 
4

>  <r_i_docking_score>  (75) 
-3.30959

>  <r_i_glide_ligand_efficiency>  (75) 
-0.0704168

>  <r_i_glide_ligand_efficiency_sa>  (75) 
-0.254122

>  <r_i_glide_ligand_efficiency_ln>  (75) 
-0.682369

>  <r_i_glide_gscore>  (75) 
-3.30959

>  <r_i_glide_lipo>  (75) 
-0.126703

>  <r_i_glide_hbond>  (75) 
-0.22098

>  <r_i_glide_metal>  (75) 
-0

>  <r_i_glide_rewards>  (75) 
-0.511921

>  <r_i_glide_evdw>  (75) 
-24.8948

>  <r_i_glide_ecoul>  (75) 
-8.11777

>  <r_i_glide_erotb>  (75) 
0.0479082

>  <r_i_glide_esite>  (75) 
-0.0354893

>  <r_i_glide_emodel>  (75) 
-45.4499

>  <r_i_glide_energy>  (75) 
-33.0125

>  <r_i_glide_einternal>  (75) 
0.804208

>  <r_i_glide_intrahb_reward>  (75) 
-0.5

>  <i_i_glide_confnum>  (75) 
1

>  <i_i_glide_posenum>  (75) 
20

>  <r_i_glide_eff_state_penalty>  (75) 
0

>  <ligand_id>  (75) 
79

>  <original_smiles>  (75) 
C=C1C(=O)CC2C1(C)CC1(C)C3(CO3)C3CC(O)C(C)([S+]3[O-])C3(C(O)CC4(C)CCC43C)C13OC3C1=CC(OC(C)=O)CC(=C)C12C

>  <smiles>  (75) 
[H]OC1([H])C([H])([H])C2([H])S(=O)C1(C([H])([H])[H])C1(C([H])(O[H])C([H])([H])C3(C([H])([H])[H])C([H])([H])C([H])([H])C31C([H])([H])[H])C13OC1([H])C1=C([H])C([H])(OC(=O)C([H])([H])[H])C([H])([H])C(=C([H])[H])C1(C([H])([H])[H])C1([H])C([H])([H])C(=O)C(=C([H])[H])C1(C([H])([H])[H])C([H])([H])C3(C([H])([H])[H])C21OC1([H])[H]

$$$$
79:0:2
     RDKit          3D

 97105  0  0  1  0  0  0  0  0999 V2000
    0.9988   -2.5154    8.6052 C   0  0  0  0  0  0  0  0  0  0  0  0
    1.9072   -1.7647    7.9368 C   0  0  0  0  0  0  0  0  0  0  0  0
    2.8904   -0.9191    8.6194 C   0  0  0  0  0  0  0  0  0  0  0  0
    2.9775   -0.6907    9.8188 O   0  0  0  0  0  0  0  0  0  0  0  0
    3.8121   -0.3009    7.5873 C   0  0  0  0  0  0  0  0  0  0  0  0
    3.6825   -1.2679    6.4014 C   0  0  1  0  0  0  0  0  0  0  0  0
    2.1801   -1.7193    6.4411 C   0  0  1  0  0  0  0  0  0  0  0  0
    2.0613   -3.1563    5.8632 C   0  0  0  0  0  0  0  0  0  0  0  0
    1.0944   -0.8409    5.6572 C   0  0  0  0  0  0  0  0  0  0  0  0
    0.5516    0.6551    5.9069 C   0  0  2  0  0  0  0  0  0  0  0  0
    0.0333    0.5226    7.3470 C   0  0  0  0  0  0  0  0  0  0  0  0
   -0.7446    0.7784    4.9852 C   0  0  1  0  0  0  0  0  0  0  0  0
   -1.2173   -0.3570    4.0757 C   0  0  0  0  0  0  0  0  0  0  0  0
   -1.7834   -0.1615    5.3559 O   0  0  0  0  0  0  0  0  0  0  0  0
   -1.3019    2.1355    4.5425 C   0  0  2  0  0  0  0  0  0  0  0  0
   -0.5598    2.8194    3.3930 C   0  0  0  0  0  0  0  0  0  0  0  0
    0.1868    4.0818    3.8940 C   0  0  1  0  0  0  0  0  0  0  0  0
   -0.4818    5.1768    3.2806 O   0  0  0  0  0  0  0  0  0  0  0  0
    0.2165    4.1818    5.4646 C   0  0  1  0  0  0  0  0  0  0  0  0
   -0.0113    5.6680    5.8904 C   0  0  0  0  0  0  0  0  0  0  0  0
   -1.4658    3.4765    5.8081 S   0  0  0  0  0  0  0  0  0  0  0  0
   -1.7605    3.0754    7.2378 O   0  0  0  0  0  0  0  0  0  0  0  0
    1.4620    3.3914    6.1889 C   0  0  2  0  0  0  0  0  0  0  0  0
    1.4436    3.5165    7.7814 C   0  0  1  0  0  0  0  0  0  0  0  0
    0.5641    2.8703    8.6478 O   0  0  0  0  0  0  0  0  0  0  0  0
    2.8774    3.4025    8.3234 C   0  0  0  0  0  0  0  0  0  0  0  0
    3.7751    3.9991    7.2469 C   0  0  2  0  0  0  0  0  0  0  0  0
    5.0620    3.1891    7.1077 C   0  0  0  0  0  0  0  0  0  0  0  0
    4.0977    5.4825    7.4014 C   0  0  0  0  0  0  0  0  0  0  0  0
    2.8543    5.7825    6.6190 C   0  0  0  0  0  0  0  0  0  0  0  0
    2.8231    4.3106    6.0363 C   0  0  2  0  0  0  0  0  0  0  0  0
    3.4424    4.4801    4.6163 C   0  0  0  0  0  0  0  0  0  0  0  0
    1.6494    1.8267    5.6367 C   0  0  2  0  0  0  0  0  0  0  0  0
    1.9657    1.9284    4.2596 O   0  0  0  0  0  0  0  0  0  0  0  0
    3.0157    1.3449    4.9833 C   0  0  2  0  0  0  0  0  0  0  0  0
    3.4666    0.0951    4.2490 C   0  0  0  0  0  0  0  0  0  0  0  0
    3.1006   -0.1386    2.9642 C   0  0  0  0  0  0  0  0  0  0  0  0
    3.5234   -1.3383    2.1467 C   0  0  1  0  0  0  0  0  0  0  0  0
    3.6831   -0.9811    0.7774 O   0  0  0  0  0  0  0  0  0  0  0  0
    3.6559   -1.9263   -0.1831 C   0  0  0  0  0  0  0  0  0  0  0  0
    3.8234   -1.3429   -1.5799 C   0  0  0  0  0  0  0  0  0  0  0  0
    3.5179   -3.1364   -0.0032 O   0  0  0  0  0  0  0  0  0  0  0  0
    4.8403   -1.8879    2.6903 C   0  0  0  0  0  0  0  0  0  0  0  0
    4.7459   -2.1228    4.1845 C   0  0  0  0  0  0  0  0  0  0  0  0
    5.0369   -3.3481    4.6548 C   0  0  0  0  0  0  0  0  0  0  0  0
    4.3700   -0.8775    5.0381 C   0  0  2  0  0  0  0  0  0  0  0  0
    5.7357   -0.1929    5.2850 C   0  0  0  0  0  0  0  0  0  0  0  0
    0.3083   -3.1735    8.1008 H   0  0  0  0  0  0  0  0  0  0  0  0
    0.9361   -2.4861    9.6796 H   0  0  0  0  0  0  0  0  0  0  0  0
    3.4034    0.6720    7.3481 H   0  0  0  0  0  0  0  0  0  0  0  0
    4.8277   -0.1943    7.9719 H   0  0  0  0  0  0  0  0  0  0  0  0
    4.2647   -2.1030    6.7884 H   0  0  0  0  0  0  0  0  0  0  0  0
    2.2738   -3.1766    4.7964 H   0  0  0  0  0  0  0  0  0  0  0  0
    1.0627   -3.5735    5.9739 H   0  0  0  0  0  0  0  0  0  0  0  0
    2.7422   -3.8542    6.3508 H   0  0  0  0  0  0  0  0  0  0  0  0
    1.2706   -0.9840    4.6007 H   0  0  0  0  0  0  0  0  0  0  0  0
    0.2221   -1.4708    5.8110 H   0  0  0  0  0  0  0  0  0  0  0  0
   -0.7715    1.1834    7.5944 H   0  0  0  0  0  0  0  0  0  0  0  0
    0.8239    0.6227    8.0854 H   0  0  0  0  0  0  0  0  0  0  0  0
   -0.4391   -0.4373    7.5382 H   0  0  0  0  0  0  0  0  0  0  0  0
   -1.8513   -0.0422    3.2505 H   0  0  0  0  0  0  0  0  0  0  0  0
   -0.7371   -1.3351    4.0171 H   0  0  0  0  0  0  0  0  0  0  0  0
   -2.3294    1.9516    4.2134 H   0  0  0  0  0  0  0  0  0  0  0  0
    0.1017    2.1153    2.8898 H   0  0  0  0  0  0  0  0  0  0  0  0
   -1.2754    3.0831    2.6149 H   0  0  0  0  0  0  0  0  0  0  0  0
    1.1705    4.1091    3.4459 H   0  0  0  0  0  0  0  0  0  0  0  0
   -0.3308    5.0852    2.3413 H   0  0  0  0  0  0  0  0  0  0  0  0
    0.7134    6.3559    5.4519 H   0  0  0  0  0  0  0  0  0  0  0  0
   -0.0619    5.8148    6.9655 H   0  0  0  0  0  0  0  0  0  0  0  0
   -0.9784    6.0327    5.5488 H   0  0  0  0  0  0  0  0  0  0  0  0
    1.1256    4.5140    8.0411 H   0  0  0  0  0  0  0  0  0  0  0  0
    0.6233    3.2634    9.5092 H   0  0  0  0  0  0  0  0  0  0  0  0
    2.9686    3.9334    9.2721 H   0  0  0  0  0  0  0  0  0  0  0  0
    3.1191    2.3642    8.5351 H   0  0  0  0  0  0  0  0  0  0  0  0
    5.5388    3.3566    6.1411 H   0  0  0  0  0  0  0  0  0  0  0  0
    4.8950    2.1275    7.2276 H   0  0  0  0  0  0  0  0  0  0  0  0
    5.7885    3.4727    7.8722 H   0  0  0  0  0  0  0  0  0  0  0  0
    4.0803    5.8549    8.4249 H   0  0  0  0  0  0  0  0  0  0  0  0
    4.9994    5.7945    6.8740 H   0  0  0  0  0  0  0  0  0  0  0  0
    2.0888    6.1148    7.3152 H   0  0  0  0  0  0  0  0  0  0  0  0
    3.0212    6.5733    5.8856 H   0  0  0  0  0  0  0  0  0  0  0  0
    4.4559    4.8737    4.6914 H   0  0  0  0  0  0  0  0  0  0  0  0
    2.9045    5.2288    4.0349 H   0  0  0  0  0  0  0  0  0  0  0  0
    3.5240    3.6091    3.9840 H   0  0  0  0  0  0  0  0  0  0  0  0
    3.8796    1.9618    5.1840 H   0  0  0  0  0  0  0  0  0  0  0  0
    2.4518    0.5461    2.4308 H   0  0  0  0  0  0  0  0  0  0  0  0
    2.7326   -2.0851    2.2486 H   0  0  0  0  0  0  0  0  0  0  0  0
    4.7509   -0.7751   -1.6373 H   0  0  0  0  0  0  0  0  0  0  0  0
    2.9914   -0.6781   -1.8130 H   0  0  0  0  0  0  0  0  0  0  0  0
    3.8489   -2.1343   -2.3295 H   0  0  0  0  0  0  0  0  0  0  0  0
    5.1141   -2.8102    2.1765 H   0  0  0  0  0  0  0  0  0  0  0  0
    5.6411   -1.1766    2.4895 H   0  0  0  0  0  0  0  0  0  0  0  0
    5.3054   -4.1435    3.9724 H   0  0  0  0  0  0  0  0  0  0  0  0
    5.0475   -3.6114    5.6992 H   0  0  0  0  0  0  0  0  0  0  0  0
    6.2100    0.0850    4.3395 H   0  0  0  0  0  0  0  0  0  0  0  0
    6.4249   -0.8571    5.8128 H   0  0  0  0  0  0  0  0  0  0  0  0
    5.6683    0.7215    5.8660 H   0  0  0  0  0  0  0  0  0  0  0  0
  1  2  2  0
  1 48  1  0
  1 49  1  0
  2  7  1  0
  2  3  1  0
  3  4  2  0
  3  5  1  0
  5  6  1  0
  5 50  1  0
  5 51  1  0
  6 46  1  0
  6  7  1  0
  6 52  1  1
  7  8  1  6
  7  9  1  0
  8 53  1  0
  8 54  1  0
  8 55  1  0
  9 10  1  0
  9 56  1  0
  9 57  1  0
 10 33  1  0
 10 11  1  1
 10 12  1  0
 11 58  1  0
 11 59  1  0
 11 60  1  0
 12 14  1  1
 12 13  1  0
 12 15  1  0
 13 14  1  0
 13 61  1  0
 13 62  1  0
 15 21  1  0
 15 16  1  0
 15 63  1  6
 16 17  1  0
 16 64  1  0
 16 65  1  0
 17 18  1  0
 17 19  1  0
 17 66  1  6
 18 67  1  0
 19 20  1  6
 21 19  1  1
 19 23  1  0
 20 68  1  0
 20 69  1  0
 20 70  1  0
 21 22  2  0
 23 31  1  6
 23 24  1  0
 23 33  1  0
 24 25  1  0
 24 26  1  0
 24 71  1  6
 25 72  1  0
 26 27  1  0
 26 73  1  0
 26 74  1  0
 27 31  1  0
 27 28  1  6
 27 29  1  0
 28 75  1  0
 28 76  1  0
 28 77  1  0
 29 30  1  0
 29 78  1  0
 29 79  1  0
 30 31  1  0
 30 80  1  0
 30 81  1  0
 31 32  1  6
 32 82  1  0
 32 83  1  0
 32 84  1  0
 33 35  1  0
 33 34  1  6
 34 35  1  0
 35 36  1  0
 35 85  1  1
 36 46  1  0
 36 37  2  0
 37 38  1  0
 37 86  1  0
 38 39  1  0
 38 43  1  0
 38 87  1  6
 39 40  1  0
 40 41  1  0
 40 42  2  0
 41 88  1  0
 41 89  1  0
 41 90  1  0
 43 44  1  0
 43 91  1  0
 43 92  1  0
 44 45  2  0
 44 46  1  0
 45 93  1  0
 45 94  1  0
 46 47  1  1
 47 95  1  0
 47 96  1  0
 47 97  1  0
M  END
>  <i_m_ct_stereo_status>  (76) 
1

>  <s_m_source_file>  (76) 
/var/tmp/pbs.5075288.sched01/tmphpu8_cit/24996nucuhu.sdf

>  <i_m_source_file_index>  (76) 
18

>  <i_lp_mmshare_version>  (76) 
48012

>  <i_f3d_flags>  (76) 
0

>  <s_epik_input>  (76) 
W0NIM11DKD1PKU9bQ0BIXShbQ0hdMSlbQ0gyXUMoPVtDSDJdKVtDQF0oW0NIM10pKFtDQEBIXTJbQ0BdKFtDSDNdKShbQ0gyXTMpQyg9W0NIMl0pQyg9TylbQ0gyXTIpQz0xW0NAQEhdKE80KVtDQEBdNChbQ0BAXTMoW0NIM10pW0NAQF01NltDSDJdTzUpW0NAXTcoW0NAQF04KFtDSDNdKVtDQEhdKFtPSF0pW0NIMl1bQ0BASF02W1MrXThbTy1dKVtDQF05KFtDSDNdKVtDQEBdKFtDSDNdKShbQ0gyXVtDSDJdOSlbQ0gyXVtDQEBIXTdbT0hd

>  <s_epik_cmdline>  (76) 
J2VwaWtfcHl0aG9uJywgJy1waHQnLCAnMi4wJywgJy1waCcsICc3LjAnLCAnLXRuJywgJzgnLCAnLW1hJywgJzIwMCcsICctaW1hZScsICc8aW5maWxlLm1hZT4nLCAnLW9tYWUnLCAnPG91dGZpbGUubWFlPic=

>  <r_lp_tautomer_probability>  (76) 
1

>  <r_epik_Ionization_Penalty>  (76) 
3.11085e-06

>  <r_epik_Ionization_Penalty_Charging>  (76) 
0

>  <r_epik_Ionization_Penalty_Neutral>  (76) 
3.11085e-06

>  <r_epik_State_Penalty>  (76) 
-0

>  <r_epik_Charging_Adjusted_Penalty>  (76) 
0

>  <i_epik_Tot_Q>  (76) 
0

>  <i_epik_Tot_abs_Q>  (76) 
2

>  <s_epik_Chemistry_Notes>  (76) 
This compound has an ester and may undergo hydrolysis at high or low pH.

>  <s_lp_Force_Field>  (76) 
OPLS3e

>  <r_lp_Energy>  (76) 
174.163

>  <b_lp_Chiralities_Consistent>  (76) 
1

>  <s_lp_Variant>  (76) 
79:0-1

>  <s_i_glide_gridfile>  (76) 
pfpi4k_grid

>  <i_i_glide_lignum>  (76) 
18

>  <i_i_glide_rotatable_bonds>  (76) 
4

>  <r_i_docking_score>  (76) 
-2.89166

>  <r_i_glide_ligand_efficiency>  (76) 
-0.0615247

>  <r_i_glide_ligand_efficiency_sa>  (76) 
-0.222032

>  <r_i_glide_ligand_efficiency_ln>  (76) 
-0.5962

>  <r_i_glide_gscore>  (76) 
-2.89166

>  <r_i_glide_lipo>  (76) 
-0.186735

>  <r_i_glide_hbond>  (76) 
-0.187707

>  <r_i_glide_metal>  (76) 
-0

>  <r_i_glide_rewards>  (76) 
0

>  <r_i_glide_evdw>  (76) 
-26.5694

>  <r_i_glide_ecoul>  (76) 
-7.84204

>  <r_i_glide_erotb>  (76) 
0.0479082

>  <r_i_glide_esite>  (76) 
-0.0603472

>  <r_i_glide_emodel>  (76) 
-40.7671

>  <r_i_glide_energy>  (76) 
-34.4115

>  <r_i_glide_einternal>  (76) 
0.834913

>  <r_i_glide_intrahb_reward>  (76) 
-0

>  <i_i_glide_confnum>  (76) 
3

>  <i_i_glide_posenum>  (76) 
34

>  <r_i_glide_eff_state_penalty>  (76) 
0

>  <ligand_id>  (76) 
79

>  <original_smiles>  (76) 
C=C1C(=O)CC2C1(C)CC1(C)C3(CO3)C3CC(O)C(C)([S+]3[O-])C3(C(O)CC4(C)CCC43C)C13OC3C1=CC(OC(C)=O)CC(=C)C12C

>  <smiles>  (76) 
[H]OC1([H])C([H])([H])C2([H])S(=O)C1(C([H])([H])[H])C1(C([H])(O[H])C([H])([H])C3(C([H])([H])[H])C([H])([H])C([H])([H])C31C([H])([H])[H])C13OC1([H])C1=C([H])C([H])(OC(=O)C([H])([H])[H])C([H])([H])C(=C([H])[H])C1(C([H])([H])[H])C1([H])C([H])([H])C(=O)C(=C([H])[H])C1(C([H])([H])[H])C([H])([H])C3(C([H])([H])[H])C21OC1([H])[H]

$$$$
84:0:0
     RDKit          3D

 58 61  0  0  1  0  0  0  0  0999 V2000
   -1.7950   -8.1215    3.7111 C   0  0  0  0  0  0  0  0  0  0  0  0
   -0.4205   -8.5437    4.2525 C   0  0  0  0  0  0  0  0  0  0  0  0
    0.8422   -7.8001    3.7218 C   0  0  1  0  0  0  0  0  0  0  0  0
    2.0613   -8.4459    4.4158 C   0  0  0  0  0  0  0  0  0  0  0  0
    1.0398   -8.0004    2.1917 C   0  0  0  0  0  0  0  0  0  0  0  0
    0.0155   -6.9597    1.1681 Cl  0  0  0  0  0  0  0  0  0  0  0  0
    0.8010   -6.2923    4.1097 C   0  0  0  0  0  0  0  0  0  0  0  0
    1.7575   -5.5643    3.3553 O   0  0  0  0  0  0  0  0  0  0  0  0
    2.8488   -5.0805    4.0596 C   0  0  2  0  0  0  0  0  0  0  0  0
    2.5038   -3.9287    4.7710 O   0  0  0  0  0  0  0  0  0  0  0  0
    3.3021   -2.8658    4.3583 C   0  0  2  0  0  0  0  0  0  0  0  0
    2.6610   -1.6335    4.5044 O   0  0  0  0  0  0  0  0  0  0  0  0
    2.2753   -0.9703    3.3071 C   0  0  2  0  0  0  0  0  0  0  0  0
    1.1139   -0.1021    3.7484 C   0  0  0  0  0  0  0  0  0  0  0  0
    1.6830   -1.8812    2.3781 O   0  0  0  0  0  0  0  0  0  0  0  0
    2.5785   -3.0407    2.0313 O   0  0  0  0  0  0  0  0  0  0  0  0
    3.7032   -3.1737    2.9056 C   0  0  2  0  0  0  0  0  0  0  0  0
    3.9210   -4.6792    3.0324 C   0  0  1  0  0  0  0  0  0  0  0  0
    5.2983   -5.1736    3.5345 C   0  0  0  0  0  0  0  0  0  0  0  0
    4.9238   -2.3512    2.3447 C   0  0  1  0  0  0  0  0  0  0  0  0
    4.9316   -2.0528    0.8235 C   0  0  1  0  0  0  0  0  0  0  0  0
    5.0068   -3.3210   -0.0388 C   0  0  0  0  0  0  0  0  0  0  0  0
    3.7920   -1.1087    0.3218 C   0  0  0  0  0  0  0  0  0  0  0  0
    3.4328    0.1240    1.1941 C   0  0  0  0  0  0  0  0  0  0  0  0
    3.4163   -0.0835    2.7170 C   0  0  2  0  0  0  0  0  0  0  0  0
    5.1093   -0.6935    3.1285 S   0  0  0  0  0  0  0  0  0  0  0  0
    5.2927   -0.8292    4.6418 O   0  0  0  0  0  0  0  0  0  0  0  0
   -2.5806   -8.7199    4.1683 H   0  0  0  0  0  0  0  0  0  0  0  0
   -1.9015   -8.2965    2.6410 H   0  0  0  0  0  0  0  0  0  0  0  0
   -2.0321   -7.0790    3.9167 H   0  0  0  0  0  0  0  0  0  0  0  0
   -0.4525   -8.4597    5.3401 H   0  0  0  0  0  0  0  0  0  0  0  0
   -0.3065   -9.6140    4.0664 H   0  0  0  0  0  0  0  0  0  0  0  0
    2.9962   -7.9407    4.1679 H   0  0  0  0  0  0  0  0  0  0  0  0
    2.2071   -9.4890    4.1241 H   0  0  0  0  0  0  0  0  0  0  0  0
    1.9701   -8.4291    5.5035 H   0  0  0  0  0  0  0  0  0  0  0  0
    2.0674   -7.7677    1.9093 H   0  0  0  0  0  0  0  0  0  0  0  0
    0.8639   -9.0389    1.8998 H   0  0  0  0  0  0  0  0  0  0  0  0
   -0.1469   -5.8387    3.8498 H   0  0  0  0  0  0  0  0  0  0  0  0
    0.9034   -6.1592    5.1907 H   0  0  0  0  0  0  0  0  0  0  0  0
    3.2133   -5.8192    4.7746 H   0  0  0  0  0  0  0  0  0  0  0  0
    4.1527   -2.8858    5.0270 H   0  0  0  0  0  0  0  0  0  0  0  0
    0.3064   -0.7043    4.1603 H   0  0  0  0  0  0  0  0  0  0  0  0
    0.7009    0.4717    2.9090 H   0  0  0  0  0  0  0  0  0  0  0  0
    1.4089    0.6142    4.5220 H   0  0  0  0  0  0  0  0  0  0  0  0
    3.7179   -5.1925    2.0868 H   0  0  0  0  0  0  0  0  0  0  0  0
    5.5936   -4.6864    4.4633 H   0  0  0  0  0  0  0  0  0  0  0  0
    6.0847   -5.0138    2.7975 H   0  0  0  0  0  0  0  0  0  0  0  0
    5.2790   -6.2488    3.7252 H   0  0  0  0  0  0  0  0  0  0  0  0
    5.8543   -2.8684    2.5833 H   0  0  0  0  0  0  0  0  0  0  0  0
    5.8716   -1.5143    0.6221 H   0  0  0  0  0  0  0  0  0  0  0  0
    4.0798   -3.9027    0.0164 H   0  0  0  0  0  0  0  0  0  0  0  0
    5.8250   -3.9748    0.2757 H   0  0  0  0  0  0  0  0  0  0  0  0
    5.1673   -3.0819   -1.0955 H   0  0  0  0  0  0  0  0  0  0  0  0
    4.0817   -0.7313   -0.6542 H   0  0  0  0  0  0  0  0  0  0  0  0
    2.8819   -1.6917    0.1153 H   0  0  0  0  0  0  0  0  0  0  0  0
    4.1593    0.9138    0.9598 H   0  0  0  0  0  0  0  0  0  0  0  0
    2.4750    0.5140    0.8774 H   0  0  0  0  0  0  0  0  0  0  0  0
    3.3457    0.9069    3.1877 H   0  0  0  0  0  0  0  0  0  0  0  0
  1  2  1  0
  1 28  1  0
  1 29  1  0
  1 30  1  0
  3  2  1  1
  2 31  1  0
  2 32  1  0
  3  4  1  0
  3  5  1  0
  3  7  1  0
  4 33  1  0
  4 34  1  0
  4 35  1  0
  5  6  1  0
  5 36  1  0
  5 37  1  0
  7  8  1  0
  7 38  1  0
  7 39  1  0
  8  9  1  0
  9 18  1  0
  9 10  1  0
  9 40  1  1
 10 11  1  0
 11 17  1  0
 11 12  1  0
 11 41  1  1
 12 13  1  0
 13 25  1  0
 13 14  1  1
 13 15  1  0
 14 42  1  0
 14 43  1  0
 14 44  1  0
 15 16  1  0
 17 16  1  6
 17 18  1  0
 17 20  1  0
 18 19  1  0
 18 45  1  6
 19 46  1  0
 19 47  1  0
 19 48  1  0
 20 26  1  0
 20 21  1  0
 20 49  1  6
 21 22  1  0
 21 23  1  0
 21 50  1  1
 22 51  1  0
 22 52  1  0
 22 53  1  0
 23 24  1  0
 23 54  1  0
 23 55  1  0
 24 25  1  0
 24 56  1  0
 24 57  1  0
 26 25  1  1
 25 58  1  1
 26 27  2  0
M  END
>  <i_m_ct_stereo_status>  (77) 
1

>  <s_m_source_file>  (77) 
/var/tmp/pbs.5075288.sched01/tmphpu8_cit/24996nucuhu.sdf

>  <i_m_source_file_index>  (77) 
42

>  <i_lp_mmshare_version>  (77) 
48012

>  <i_f3d_flags>  (77) 
0

>  <s_epik_input>  (77) 
W0NIM11bQ0gyXVtDQEBdKFtDSDNdKShbQ0gyXUNsKVtDSDJdT1tDQEBIXShbQ0BASF0xW0NIM10pT1tDQEBIXShbQ0BAXTEyMylPW0NAXShbQ0gzXSkoT08yKVtDQEBIXTRbQ0gyXVtDSDJdW0NASF0oW0NIM10pW0NASF0zW1MrXTRbTy1d

>  <s_epik_cmdline>  (77) 
J2VwaWtfcHl0aG9uJywgJy1waHQnLCAnMi4wJywgJy1waCcsICc3LjAnLCAnLXRuJywgJzgnLCAnLW1hJywgJzIwMCcsICctaW1hZScsICc8aW5maWxlLm1hZT4nLCAnLW9tYWUnLCAnPG91dGZpbGUubWFlPic=

>  <r_lp_tautomer_probability>  (77) 
1

>  <r_epik_Ionization_Penalty>  (77) 
1.94706e-13

>  <r_epik_Ionization_Penalty_Charging>  (77) 
0

>  <r_epik_Ionization_Penalty_Neutral>  (77) 
1.94706e-13

>  <r_epik_State_Penalty>  (77) 
-0

>  <r_epik_Charging_Adjusted_Penalty>  (77) 
0

>  <i_epik_Tot_Q>  (77) 
0

>  <i_epik_Tot_abs_Q>  (77) 
2

>  <s_epik_Chemistry_Notes>  (77) 
This compound contains an acetal/aminal-like group ( X-CH(R)-Y where X, Y are N, S, or O) that may be acid/base labile, releasing an aldehyde.

>  <s_lp_Force_Field>  (77) 
OPLS3e

>  <r_lp_Energy>  (77) 
34.2641

>  <b_lp_Chiralities_Consistent>  (77) 
1

>  <s_lp_Variant>  (77) 
84:0-1

>  <s_i_glide_gridfile>  (77) 
pfpi4k_grid

>  <i_i_glide_lignum>  (77) 
42

>  <i_i_glide_rotatable_bonds>  (77) 
5

>  <r_i_docking_score>  (77) 
-1.81228

>  <r_i_glide_ligand_efficiency>  (77) 
-0.0671216

>  <r_i_glide_ligand_efficiency_sa>  (77) 
-0.201365

>  <r_i_glide_ligand_efficiency_ln>  (77) 
-0.42187

>  <r_i_glide_gscore>  (77) 
-1.81228

>  <r_i_glide_lipo>  (77) 
-0.150365

>  <r_i_glide_hbond>  (77) 
0

>  <r_i_glide_metal>  (77) 
-0

>  <r_i_glide_rewards>  (77) 
-0.703413

>  <r_i_glide_evdw>  (77) 
-22.551

>  <r_i_glide_ecoul>  (77) 
-1.07542

>  <r_i_glide_erotb>  (77) 
0.332285

>  <r_i_glide_esite>  (77) 
-0.00192794

>  <r_i_glide_emodel>  (77) 
-24.4998

>  <r_i_glide_energy>  (77) 
-23.6264

>  <r_i_glide_einternal>  (77) 
4.09928

>  <r_i_glide_intrahb_reward>  (77) 
-0

>  <i_i_glide_confnum>  (77) 
4

>  <i_i_glide_posenum>  (77) 
3

>  <r_i_glide_eff_state_penalty>  (77) 
0

>  <ligand_id>  (77) 
84

>  <original_smiles>  (77) 
CCC(C)(CCl)COC1OC2OC3(C)OOC2(C1C)C1C(C)CCC3[S+]1[O-]

>  <smiles>  (77) 
[H]C([H])([H])C([H])([H])C(C([H])([H])[H])(C([H])([H])Cl)C([H])([H])OC1([H])OC2([H])OC3(C([H])([H])[H])OOC2(C2([H])S(=O)C3([H])C([H])([H])C([H])([H])C2([H])C([H])([H])[H])C1([H])C([H])([H])[H]

$$$$
84:0:1
     RDKit          3D

 58 61  0  0  1  0  0  0  0  0999 V2000
    3.7838   -0.4259    0.9022 C   0  0  0  0  0  0  0  0  0  0  0  0
    4.4996   -1.3217    1.9624 C   0  0  0  0  0  0  0  0  0  0  0  0
    3.6500   -2.3717    2.7741 C   0  0  1  0  0  0  0  0  0  0  0  0
    4.7287   -3.0332    3.7399 C   0  0  0  0  0  0  0  0  0  0  0  0
    2.4913   -1.6205    3.5697 C   0  0  0  0  0  0  0  0  0  0  0  0
    1.2159   -0.8113    2.5759 Cl  0  0  0  0  0  0  0  0  0  0  0  0
    3.0411   -3.4306    1.8074 C   0  0  0  0  0  0  0  0  0  0  0  0
    1.9867   -4.2138    2.3890 O   0  0  0  0  0  0  0  0  0  0  0  0
    2.2811   -4.7839    3.6162 C   0  0  2  0  0  0  0  0  0  0  0  0
    3.2822   -5.7519    3.4996 O   0  0  0  0  0  0  0  0  0  0  0  0
    2.8560   -6.9519    4.0319 C   0  0  2  0  0  0  0  0  0  0  0  0
    3.4450   -8.0304    3.4162 O   0  0  0  0  0  0  0  0  0  0  0  0
    2.6159   -8.7804    2.5530 C   0  0  2  0  0  0  0  0  0  0  0  0
    3.6143   -9.4411    1.5629 C   0  0  0  0  0  0  0  0  0  0  0  0
    1.8257   -7.9741    1.7085 O   0  0  0  0  0  0  0  0  0  0  0  0
    0.9825   -6.9748    2.4889 O   0  0  0  0  0  0  0  0  0  0  0  0
    1.3102   -6.9042    3.8665 C   0  0  2  0  0  0  0  0  0  0  0  0
    1.0527   -5.4135    4.2126 C   0  0  1  0  0  0  0  0  0  0  0  0
    0.9744   -5.0417    5.7323 C   0  0  0  0  0  0  0  0  0  0  0  0
    0.5019   -7.9353    4.7220 C   0  0  1  0  0  0  0  0  0  0  0  0
   -0.8396   -8.4091    4.1095 C   0  0  1  0  0  0  0  0  0  0  0  0
   -1.8643   -7.2730    3.9486 C   0  0  0  0  0  0  0  0  0  0  0  0
   -0.7198   -9.2663    2.8148 C   0  0  0  0  0  0  0  0  0  0  0  0
    0.4265  -10.3111    2.7405 C   0  0  0  0  0  0  0  0  0  0  0  0
    1.8081   -9.9005    3.3103 C   0  0  2  0  0  0  0  0  0  0  0  0
    1.4760   -9.4806    5.0896 S   0  0  0  0  0  0  0  0  0  0  0  0
    2.7868   -9.1290    5.8151 O   0  0  0  0  0  0  0  0  0  0  0  0
    4.4942    0.2405    0.4234 H   0  0  0  0  0  0  0  0  0  0  0  0
    3.0453    0.2120    1.3548 H   0  0  0  0  0  0  0  0  0  0  0  0
    3.3051   -1.0389    0.1284 H   0  0  0  0  0  0  0  0  0  0  0  0
    5.3205   -1.8526    1.4474 H   0  0  0  0  0  0  0  0  0  0  0  0
    4.9955   -0.6554    2.6731 H   0  0  0  0  0  0  0  0  0  0  0  0
    4.4243   -3.9369    4.2990 H   0  0  0  0  0  0  0  0  0  0  0  0
    5.0034   -2.3805    4.5408 H   0  0  0  0  0  0  0  0  0  0  0  0
    5.5683   -3.4176    3.1943 H   0  0  0  0  0  0  0  0  0  0  0  0
    1.8852   -2.2789    4.1544 H   0  0  0  0  0  0  0  0  0  0  0  0
    2.9189   -0.8892    4.2608 H   0  0  0  0  0  0  0  0  0  0  0  0
    2.6019   -2.9384    0.9278 H   0  0  0  0  0  0  0  0  0  0  0  0
    3.8261   -4.0657    1.3889 H   0  0  0  0  0  0  0  0  0  0  0  0
    2.5668   -4.0577    4.3429 H   0  0  0  0  0  0  0  0  0  0  0  0
    3.1615   -6.9142    5.0959 H   0  0  0  0  0  0  0  0  0  0  0  0
    4.1797   -8.6819    1.0251 H   0  0  0  0  0  0  0  0  0  0  0  0
    3.0925  -10.0386    0.8308 H   0  0  0  0  0  0  0  0  0  0  0  0
    4.3362  -10.0759    2.0749 H   0  0  0  0  0  0  0  0  0  0  0  0
    0.1784   -5.0084    3.7248 H   0  0  0  0  0  0  0  0  0  0  0  0
    1.8105   -5.4220    6.3155 H   0  0  0  0  0  0  0  0  0  0  0  0
    0.0491   -5.3968    6.1851 H   0  0  0  0  0  0  0  0  0  0  0  0
    0.9744   -3.9686    5.8748 H   0  0  0  0  0  0  0  0  0  0  0  0
    0.3233   -7.5229    5.7049 H   0  0  0  0  0  0  0  0  0  0  0  0
   -1.2599   -9.0940    4.8925 H   0  0  0  0  0  0  0  0  0  0  0  0
   -1.5745   -6.5949    3.1676 H   0  0  0  0  0  0  0  0  0  0  0  0
   -1.9860   -6.7135    4.8724 H   0  0  0  0  0  0  0  0  0  0  0  0
   -2.8386   -7.6728    3.6926 H   0  0  0  0  0  0  0  0  0  0  0  0
   -1.6656   -9.8115    2.6927 H   0  0  0  0  0  0  0  0  0  0  0  0
   -0.6812   -8.6348    1.9424 H   0  0  0  0  0  0  0  0  0  0  0  0
    0.1308  -11.2151    3.2520 H   0  0  0  0  0  0  0  0  0  0  0  0
    0.5586  -10.6057    1.6974 H   0  0  0  0  0  0  0  0  0  0  0  0
    2.4283  -10.7874    3.3854 H   0  0  0  0  0  0  0  0  0  0  0  0
  1  2  1  0
  1 28  1  0
  1 29  1  0
  1 30  1  0
  3  2  1  6
  2 31  1  0
  2 32  1  0
  3  4  1  0
  3  5  1  0
  3  7  1  0
  4 33  1  0
  4 34  1  0
  4 35  1  0
  5  6  1  0
  5 36  1  0
  5 37  1  0
  7  8  1  0
  7 38  1  0
  7 39  1  0
  8  9  1  0
  9 18  1  0
  9 10  1  0
  9 40  1  1
 10 11  1  0
 11 17  1  0
 11 12  1  0
 11 41  1  1
 12 13  1  0
 13 25  1  0
 13 14  1  6
 13 15  1  0
 14 42  1  0
 14 43  1  0
 14 44  1  0
 15 16  1  0
 17 16  1  6
 17 18  1  0
 17 20  1  0
 18 19  1  0
 18 45  1  6
 19 46  1  0
 19 47  1  0
 19 48  1  0
 20 26  1  0
 20 21  1  0
 20 49  1  1
 21 22  1  0
 21 23  1  0
 21 50  1  1
 22 51  1  0
 22 52  1  0
 22 53  1  0
 23 24  1  0
 23 54  1  0
 23 55  1  0
 24 25  1  0
 24 56  1  0
 24 57  1  0
 26 25  1  6
 25 58  1  1
 26 27  2  0
M  END
>  <i_m_ct_stereo_status>  (78) 
1

>  <s_m_source_file>  (78) 
/var/tmp/pbs.5075288.sched01/tmphpu8_cit/24996nucuhu.sdf

>  <i_m_source_file_index>  (78) 
42

>  <i_lp_mmshare_version>  (78) 
48012

>  <i_f3d_flags>  (78) 
0

>  <s_epik_input>  (78) 
W0NIM11bQ0gyXVtDQEBdKFtDSDNdKShbQ0gyXUNsKVtDSDJdT1tDQEBIXShbQ0BASF0xW0NIM10pT1tDQEBIXShbQ0BAXTEyMylPW0NAXShbQ0gzXSkoT08yKVtDQEBIXTRbQ0gyXVtDSDJdW0NASF0oW0NIM10pW0NASF0zW1MrXTRbTy1d

>  <s_epik_cmdline>  (78) 
J2VwaWtfcHl0aG9uJywgJy1waHQnLCAnMi4wJywgJy1waCcsICc3LjAnLCAnLXRuJywgJzgnLCAnLW1hJywgJzIwMCcsICctaW1hZScsICc8aW5maWxlLm1hZT4nLCAnLW9tYWUnLCAnPG91dGZpbGUubWFlPic=

>  <r_lp_tautomer_probability>  (78) 
1

>  <r_epik_Ionization_Penalty>  (78) 
1.94706e-13

>  <r_epik_Ionization_Penalty_Charging>  (78) 
0

>  <r_epik_Ionization_Penalty_Neutral>  (78) 
1.94706e-13

>  <r_epik_State_Penalty>  (78) 
-0

>  <r_epik_Charging_Adjusted_Penalty>  (78) 
0

>  <i_epik_Tot_Q>  (78) 
0

>  <i_epik_Tot_abs_Q>  (78) 
2

>  <s_epik_Chemistry_Notes>  (78) 
This compound contains an acetal/aminal-like group ( X-CH(R)-Y where X, Y are N, S, or O) that may be acid/base labile, releasing an aldehyde.

>  <s_lp_Force_Field>  (78) 
OPLS3e

>  <r_lp_Energy>  (78) 
34.2641

>  <b_lp_Chiralities_Consistent>  (78) 
1

>  <s_lp_Variant>  (78) 
84:0-1

>  <s_i_glide_gridfile>  (78) 
pfpi4k_grid

>  <i_i_glide_lignum>  (78) 
42

>  <i_i_glide_rotatable_bonds>  (78) 
5

>  <r_i_docking_score>  (78) 
-1.23262

>  <r_i_glide_ligand_efficiency>  (78) 
-0.0456528

>  <r_i_glide_ligand_efficiency_sa>  (78) 
-0.136958

>  <r_i_glide_ligand_efficiency_ln>  (78) 
-0.286935

>  <r_i_glide_gscore>  (78) 
-1.23262

>  <r_i_glide_lipo>  (78) 
-0.236522

>  <r_i_glide_hbond>  (78) 
0

>  <r_i_glide_metal>  (78) 
-0

>  <r_i_glide_rewards>  (78) 
-0.525242

>  <r_i_glide_evdw>  (78) 
-22.6151

>  <r_i_glide_ecoul>  (78) 
0.670875

>  <r_i_glide_erotb>  (78) 
0.332285

>  <r_i_glide_esite>  (78) 
-0.0395833

>  <r_i_glide_emodel>  (78) 
-18.3871

>  <r_i_glide_energy>  (78) 
-21.9442

>  <r_i_glide_einternal>  (78) 
2.32508

>  <r_i_glide_intrahb_reward>  (78) 
-0

>  <i_i_glide_confnum>  (78) 
4

>  <i_i_glide_posenum>  (78) 
32

>  <r_i_glide_eff_state_penalty>  (78) 
0

>  <ligand_id>  (78) 
84

>  <original_smiles>  (78) 
CCC(C)(CCl)COC1OC2OC3(C)OOC2(C1C)C1C(C)CCC3[S+]1[O-]

>  <smiles>  (78) 
[H]C([H])([H])C([H])([H])C(C([H])([H])[H])(C([H])([H])Cl)C([H])([H])OC1([H])OC2([H])OC3(C([H])([H])[H])OOC2(C2([H])S(=O)C3([H])C([H])([H])C([H])([H])C2([H])C([H])([H])[H])C1([H])C([H])([H])[H]

$$$$
87:0:0
     RDKit          3D

131139  0  0  1  0  0  0  0  0999 V2000
    2.4986   -3.0902   -1.1914 C   0  0  0  0  0  0  0  0  0  0  0  0
    2.9583   -3.3398    0.2428 C   0  0  0  0  0  0  0  0  0  0  0  0
    3.8914   -4.0988    0.5040 O   0  0  0  0  0  0  0  0  0  0  0  0
    2.2276   -2.6487    1.1460 O   0  0  0  0  0  0  0  0  0  0  0  0
    2.5079   -2.7268    2.5397 C   0  0  2  0  0  0  0  0  0  0  0  0
    1.1722   -2.5504    3.4245 C   0  0  0  0  0  0  0  0  0  0  0  0
    0.9305   -1.2307    4.2851 C   0  0  1  0  0  0  0  0  0  0  0  0
   -0.4429   -0.8272    4.1698 O   0  0  0  0  0  0  0  0  0  0  0  0
   -0.8257    0.4539    3.9005 C   0  0  0  0  0  0  0  0  0  0  0  0
    0.0071    1.2361    2.8838 C   0  0  0  0  0  0  0  0  0  0  0  0
   -1.7936    0.9793    4.4323 O   0  0  0  0  0  0  0  0  0  0  0  0
    1.4508   -1.1198    5.8240 C   0  0  1  0  0  0  0  0  0  0  0  0
    1.7466    0.3754    6.0826 C   0  0  0  0  0  0  0  0  0  0  0  0
    0.2109   -1.5942    6.6142 C   0  0  0  0  0  0  0  0  0  0  0  0
   -0.5492   -0.7610    7.1773 O   0  0  0  0  0  0  0  0  0  0  0  0
   -0.0254   -2.9398    6.5660 O   0  0  0  0  0  0  0  0  0  0  0  0
   -1.1053   -3.5273    7.2808 C   0  0  0  0  0  0  0  0  0  0  0  0
   -1.0367   -5.0464    6.9731 C   0  0  0  0  0  0  0  0  0  0  0  0
   -0.9599   -3.3282    8.8191 C   0  0  0  0  0  0  0  0  0  0  0  0
   -2.3391   -3.1076    6.8745 O   0  0  0  0  0  0  0  0  0  0  0  0
    2.7829   -1.9419    6.3329 C   0  0  2  0  0  0  0  0  0  0  0  0
    2.9346   -2.1830    8.0338 C   0  0  1  0  0  0  0  0  0  0  0  0
    1.9428   -1.5700    8.8340 O   0  0  0  0  0  0  0  0  0  0  0  0
    3.2838   -3.6732    8.6959 C   0  0  2  0  0  0  0  0  0  0  0  0
    2.2668   -4.1002    9.5783 O   0  0  0  0  0  0  0  0  0  0  0  0
    4.6220   -4.2300    9.4058 C   0  0  0  0  0  0  0  0  0  0  0  0
    5.6817   -5.1381    8.5262 C   0  0  0  0  0  0  0  0  0  0  0  0
    6.0019   -4.7110    7.0107 C   0  0  1  0  0  0  0  0  0  0  0  0
    7.4935   -4.3215    7.0726 C   0  0  0  0  0  0  0  0  0  0  0  0
    5.6247   -4.9157    5.4645 C   0  0  1  0  0  0  0  0  0  0  0  0
    5.6278   -6.3526    4.8611 C   0  0  2  0  0  0  0  0  0  0  0  0
    6.9622   -6.7183    4.6082 O   0  0  0  0  0  0  0  0  0  0  0  0
    4.9579   -6.3103    3.5907 O   0  0  0  0  0  0  0  0  0  0  0  0
    3.9195   -7.2562    3.2812 C   0  0  1  0  0  0  0  0  0  0  0  0
    2.4312   -6.9645    3.1197 C   0  0  0  0  0  0  0  0  0  0  0  0
    1.8235   -7.9791    4.1503 C   0  0  1  0  0  0  0  0  0  0  0  0
    0.3527   -8.2719    3.8144 C   0  0  0  0  0  0  0  0  0  0  0  0
    0.3749   -9.1319    2.5669 C   0  0  0  0  0  0  0  0  0  0  0  0
    1.6840   -9.9446    2.6477 C   0  0  0  0  0  0  0  0  0  0  0  0
    1.2426  -11.4383    2.9123 C   0  0  0  0  0  0  0  0  0  0  0  0
    2.3486   -9.8342    1.3078 C   0  0  0  0  0  0  0  0  0  0  0  0
    2.5978   -9.3021    3.7855 C   0  0  2  0  0  0  0  0  0  0  0  0
    2.7301  -10.2578    4.9987 C   0  0  0  0  0  0  0  0  0  0  0  0
    4.0623   -8.7840    3.3916 C   0  0  1  0  0  0  0  0  0  0  0  0
    4.7430   -9.2916    2.2580 O   0  0  0  0  0  0  0  0  0  0  0  0
    1.8895   -7.4000    5.6425 C   0  0  0  0  0  0  0  0  0  0  0  0
    3.1281   -7.1709    6.6484 C   0  0  2  0  0  0  0  0  0  0  0  0
    3.0113   -6.0440    7.7223 C   0  0  0  0  0  0  0  0  0  0  0  0
    3.3902   -4.4951    7.5180 C   0  0  2  0  0  0  0  0  0  0  0  0
    4.7641   -3.8490    6.8655 C   0  0  1  0  0  0  0  0  0  0  0  0
    5.5238   -2.4637    7.3798 C   0  0  0  0  0  0  0  0  0  0  0  0
    4.4090   -3.8990    5.3946 C   0  0  2  0  0  0  0  0  0  0  0  0
    3.2781   -4.5388    4.8975 O   0  0  0  0  0  0  0  0  0  0  0  0
    4.0225   -2.3457    5.2457 C   0  0  1  0  0  0  0  0  0  0  0  0
    3.3524   -1.6705    4.2136 O   0  0  0  0  0  0  0  0  0  0  0  0
    3.6455   -1.7157    2.8666 C   0  0  2  0  0  0  0  0  0  0  0  0
    3.4473   -0.3238    2.2028 C   0  0  0  0  0  0  0  0  0  0  0  0
    5.1033   -2.0435    3.1123 C   0  0  1  0  0  0  0  0  0  0  0  0
    5.9960   -1.3548    2.2566 O   0  0  0  0  0  0  0  0  0  0  0  0
    5.2561   -1.6481    4.6116 C   0  0  1  0  0  0  0  0  0  0  0  0
    5.3938   -0.2620    4.9125 O   0  0  0  0  0  0  0  0  0  0  0  0
    4.9481   -7.4060    6.2640 S   0  0  0  0  0  0  0  0  0  0  0  0
    5.4217   -8.8573    6.2695 O   0  0  0  0  0  0  0  0  0  0  0  0
    2.6241   -2.0383   -1.4456 H   0  0  0  0  0  0  0  0  0  0  0  0
    1.4449   -3.3448   -1.3169 H   0  0  0  0  0  0  0  0  0  0  0  0
    3.0751   -3.6792   -1.9022 H   0  0  0  0  0  0  0  0  0  0  0  0
    2.8647   -3.7397    2.7174 H   0  0  0  0  0  0  0  0  0  0  0  0
    0.3181   -2.6615    2.7694 H   0  0  0  0  0  0  0  0  0  0  0  0
    1.0766   -3.4078    4.0882 H   0  0  0  0  0  0  0  0  0  0  0  0
    1.4674   -0.4617    3.7606 H   0  0  0  0  0  0  0  0  0  0  0  0
    0.5008    0.5647    2.1891 H   0  0  0  0  0  0  0  0  0  0  0  0
    0.7389    1.8511    3.4097 H   0  0  0  0  0  0  0  0  0  0  0  0
   -0.6167    1.8881    2.2707 H   0  0  0  0  0  0  0  0  0  0  0  0
    2.5286    0.7204    5.4112 H   0  0  0  0  0  0  0  0  0  0  0  0
    2.0873    0.5402    7.0987 H   0  0  0  0  0  0  0  0  0  0  0  0
    0.8825    1.0203    5.9323 H   0  0  0  0  0  0  0  0  0  0  0  0
   -1.2007   -5.2303    5.9109 H   0  0  0  0  0  0  0  0  0  0  0  0
   -1.8232   -5.5139    7.5506 H   0  0  0  0  0  0  0  0  0  0  0  0
   -0.0757   -5.4590    7.2634 H   0  0  0  0  0  0  0  0  0  0  0  0
   -0.9596   -2.3011    9.1512 H   0  0  0  0  0  0  0  0  0  0  0  0
   -0.0084   -3.6919    9.1068 H   0  0  0  0  0  0  0  0  0  0  0  0
   -1.6884   -3.9004    9.3729 H   0  0  0  0  0  0  0  0  0  0  0  0
   -2.5791   -3.6868    6.1658 H   0  0  0  0  0  0  0  0  0  0  0  0
    2.2208   -2.7815    6.0026 H   0  0  0  0  0  0  0  0  0  0  0  0
    3.6370   -1.4705    8.4514 H   0  0  0  0  0  0  0  0  0  0  0  0
    2.0095   -0.6303    8.7164 H   0  0  0  0  0  0  0  0  0  0  0  0
    2.2157   -3.4601   10.2740 H   0  0  0  0  0  0  0  0  0  0  0  0
    5.1017   -3.4440    9.9804 H   0  0  0  0  0  0  0  0  0  0  0  0
    4.3251   -4.9028   10.2048 H   0  0  0  0  0  0  0  0  0  0  0  0
    6.5978   -5.1323    9.1140 H   0  0  0  0  0  0  0  0  0  0  0  0
    5.4465   -6.1912    8.5766 H   0  0  0  0  0  0  0  0  0  0  0  0
    7.7032   -3.7205    6.2039 H   0  0  0  0  0  0  0  0  0  0  0  0
    8.1441   -5.1935    7.0465 H   0  0  0  0  0  0  0  0  0  0  0  0
    7.7909   -3.7387    7.9465 H   0  0  0  0  0  0  0  0  0  0  0  0
    6.3493   -4.3914    4.8606 H   0  0  0  0  0  0  0  0  0  0  0  0
    6.9477   -7.5594    4.1673 H   0  0  0  0  0  0  0  0  0  0  0  0
    3.6915   -6.9717    4.2502 H   0  0  0  0  0  0  0  0  0  0  0  0
    2.1087   -5.9453    3.3155 H   0  0  0  0  0  0  0  0  0  0  0  0
    2.1441   -7.1669    2.0890 H   0  0  0  0  0  0  0  0  0  0  0  0
   -0.1207   -8.8644    4.6003 H   0  0  0  0  0  0  0  0  0  0  0  0
   -0.2338   -7.3710    3.6469 H   0  0  0  0  0  0  0  0  0  0  0  0
   -0.5209   -9.7540    2.4660 H   0  0  0  0  0  0  0  0  0  0  0  0
    0.3711   -8.4964    1.6840 H   0  0  0  0  0  0  0  0  0  0  0  0
    2.0964  -12.1140    2.9555 H   0  0  0  0  0  0  0  0  0  0  0  0
    0.5259  -11.8417    2.1912 H   0  0  0  0  0  0  0  0  0  0  0  0
    0.6895  -11.5659    3.8468 H   0  0  0  0  0  0  0  0  0  0  0  0
    3.0824  -10.6302    1.2199 H   0  0  0  0  0  0  0  0  0  0  0  0
    2.6486   -8.8408    0.9475 H   0  0  0  0  0  0  0  0  0  0  0  0
    1.7309  -10.2621    0.5581 H   0  0  0  0  0  0  0  0  0  0  0  0
    3.2684  -11.1706    4.7326 H   0  0  0  0  0  0  0  0  0  0  0  0
    1.7603  -10.5293    5.4114 H   0  0  0  0  0  0  0  0  0  0  0  0
    3.2890   -9.8044    5.8062 H   0  0  0  0  0  0  0  0  0  0  0  0
    4.7679   -9.0568    4.1520 H   0  0  0  0  0  0  0  0  0  0  0  0
    4.5883  -10.2299    2.2077 H   0  0  0  0  0  0  0  0  0  0  0  0
    1.3881   -6.4398    5.5632 H   0  0  0  0  0  0  0  0  0  0  0  0
    1.1827   -8.0119    6.2084 H   0  0  0  0  0  0  0  0  0  0  0  0
    3.0004   -8.0652    7.2624 H   0  0  0  0  0  0  0  0  0  0  0  0
    1.9496   -6.0562    7.9715 H   0  0  0  0  0  0  0  0  0  0  0  0
    3.4222   -6.4400    8.6475 H   0  0  0  0  0  0  0  0  0  0  0  0
    2.4615   -4.3276    7.0107 H   0  0  0  0  0  0  0  0  0  0  0  0
    5.0940   -1.4901    7.1789 H   0  0  0  0  0  0  0  0  0  0  0  0
    6.4590   -2.2350    6.8930 H   0  0  0  0  0  0  0  0  0  0  0  0
    5.8340   -2.4220    8.4119 H   0  0  0  0  0  0  0  0  0  0  0  0
    3.4771   -4.6925    3.9857 H   0  0  0  0  0  0  0  0  0  0  0  0
    3.9485   -0.2649    1.2350 H   0  0  0  0  0  0  0  0  0  0  0  0
    3.8195    0.4934    2.8235 H   0  0  0  0  0  0  0  0  0  0  0  0
    2.4097   -0.1230    1.9692 H   0  0  0  0  0  0  0  0  0  0  0  0
    5.2542   -3.1164    2.9819 H   0  0  0  0  0  0  0  0  0  0  0  0
    5.8593   -1.6678    1.3729 H   0  0  0  0  0  0  0  0  0  0  0  0
    6.1578   -2.1353    4.9394 H   0  0  0  0  0  0  0  0  0  0  0  0
    4.6577    0.1988    4.5346 H   0  0  0  0  0  0  0  0  0  0  0  0
  1  2  1  0
  1 64  1  0
  1 65  1  0
  1 66  1  0
  2  3  2  0
  2  4  1  0
  4  5  1  0
  5 56  1  0
  5  6  1  0
  5 67  1  6
  6  7  1  0
  6 68  1  0
  6 69  1  0
  7  8  1  0
  7 12  1  0
  7 70  1  6
  8  9  1  0
  9 10  1  0
  9 11  2  0
 10 71  1  0
 10 72  1  0
 10 73  1  0
 12 13  1  1
 12 14  1  0
 12 21  1  0
 13 74  1  0
 13 75  1  0
 13 76  1  0
 14 15  2  0
 14 16  1  0
 16 17  1  0
 17 18  1  0
 17 19  1  0
 17 20  1  0
 18 77  1  0
 18 78  1  0
 18 79  1  0
 19 80  1  0
 19 81  1  0
 19 82  1  0
 20 83  1  0
 21 54  1  0
 21 22  1  0
 21 84  1  6
 22 23  1  0
 22 24  1  0
 22 85  1  1
 23 86  1  0
 24 49  1  0
 24 25  1  1
 24 26  1  0
 25 87  1  0
 26 27  1  0
 26 88  1  0
 26 89  1  0
 27 28  1  0
 27 90  1  0
 27 91  1  0
 28 50  1  0
 28 29  1  6
 28 30  1  0
 29 92  1  0
 29 93  1  0
 29 94  1  0
 30 52  1  0
 30 31  1  0
 30 95  1  6
 62 31  1  6
 31 32  1  6
 31 33  1  0
 32 96  1  0
 33 34  1  0
 34 44  1  0
 34 35  1  0
 34 97  1  6
 35 36  1  0
 35 98  1  0
 35 99  1  0
 36 42  1  0
 36 37  1  6
 36 46  1  0
 37 38  1  0
 37100  1  0
 37101  1  0
 38 39  1  0
 38102  1  0
 38103  1  0
 39 40  1  0
 39 41  1  0
 39 42  1  0
 40104  1  0
 40105  1  0
 40106  1  0
 41107  1  0
 41108  1  0
 41109  1  0
 42 43  1  1
 42 44  1  0
 43110  1  0
 43111  1  0
 43112  1  0
 44 45  1  0
 44113  1  1
 45114  1  0
 46 47  1  0
 46115  1  0
 46116  1  0
 47 48  1  0
 47 62  1  0
 47117  1  1
 48 49  1  0
 48118  1  0
 48119  1  0
 49 50  1  0
 49120  1  6
 50 51  1  1
 50 52  1  0
 51121  1  0
 51122  1  0
 51123  1  0
 52 53  1  1
 52 54  1  0
 53124  1  0
 54 60  1  0
 54 55  1  6
 55 56  1  0
 56 57  1  6
 56 58  1  0
 57125  1  0
 57126  1  0
 57127  1  0
 58 59  1  0
 58 60  1  0
 58128  1  1
 59129  1  0
 60 61  1  0
 60130  1  1
 61131  1  0
 62 63  2  0
M  END
>  <i_m_ct_stereo_status>  (79) 
1

>  <s_m_source_file>  (79) 
/var/tmp/pbs.5075288.sched01/tmphpu8_cit/24996nucuhu.sdf

>  <i_m_source_file_index>  (79) 
45

>  <i_lp_mmshare_version>  (79) 
48012

>  <i_f3d_flags>  (79) 
0

>  <s_epik_input>  (79) 
W0NIM11DKFtDSDNdKShbT0hdKU9DKD1PKVtDQF0xKFtDSDNdKVtDQEhdKE9DKD1PKVtDSDNdKVtDSDJdW0NAQEhdKE9DKD1PKVtDSDNdKVtDQF0oW0NIM10pKFtDQEBIXShbT0hdKVtDQEhdMltPSF0pT1tDQF0yKFtDQEBdMzRbT0hdKVtDQEhdMVtDQEBIXShbT0hdKVtDQF0oW09IXSkoW0NIMl1bQ0gyXTUpW0NASF0oW0NIMl1bQ0BASF0oW0NIMl02KVtTK103W08tXSlbQ0BAXTQoW0NIM10pW0NAXTUoW0NIM10pW0NASF0zW0NAXTcoW09IXSlPW0NAQEhdKFtDSDJdOClbQ0BIXShbT0hdKVtDQF0oW0NAQF02ODkpKFtDSDNdKUMoW0NIM10pKFtDSDNdKVtDSDJdW0NIMl05

>  <s_epik_cmdline>  (79) 
J2VwaWtfcHl0aG9uJywgJy1waHQnLCAnMi4wJywgJy1waCcsICc3LjAnLCAnLXRuJywgJzgnLCAnLW1hJywgJzIwMCcsICctaW1hZScsICc8aW5maWxlLm1hZT4nLCAnLW9tYWUnLCAnPG91dGZpbGUubWFlPic=

>  <r_lp_tautomer_probability>  (79) 
1

>  <r_epik_Ionization_Penalty>  (79) 
2.88481e-06

>  <r_epik_Ionization_Penalty_Charging>  (79) 
0

>  <r_epik_Ionization_Penalty_Neutral>  (79) 
2.88481e-06

>  <r_epik_State_Penalty>  (79) 
-0

>  <r_epik_Charging_Adjusted_Penalty>  (79) 
0

>  <i_epik_Tot_Q>  (79) 
0

>  <i_epik_Tot_abs_Q>  (79) 
2

>  <s_epik_Chemistry_Notes>  (79) 
This compound has an ester and may undergo hydrolysis at high or low pH.

>  <s_lp_Force_Field>  (79) 
OPLS3e

>  <r_lp_Energy>  (79) 
551.256

>  <b_lp_Chiralities_Consistent>  (79) 
1

>  <s_lp_Variant>  (79) 
87:0-1

>  <s_i_glide_gridfile>  (79) 
pfpi4k_grid

>  <i_i_glide_lignum>  (79) 
45

>  <i_i_glide_rotatable_bonds>  (79) 
15

>  <r_i_docking_score>  (79) 
-1.47946

>  <r_i_glide_ligand_efficiency>  (79) 
-0.0234835

>  <r_i_glide_ligand_efficiency_sa>  (79) 
-0.0934421

>  <r_i_glide_ligand_efficiency_ln>  (79) 
-0.287657

>  <r_i_glide_gscore>  (79) 
-1.47946

>  <r_i_glide_lipo>  (79) 
-0.463436

>  <r_i_glide_hbond>  (79) 
-0.0286921

>  <r_i_glide_metal>  (79) 
-0

>  <r_i_glide_rewards>  (79) 
0

>  <r_i_glide_evdw>  (79) 
-3.99191

>  <r_i_glide_ecoul>  (79) 
-5.32353

>  <r_i_glide_erotb>  (79) 
0.13243

>  <r_i_glide_esite>  (79) 
-0.121638

>  <r_i_glide_emodel>  (79) 
-4.56167

>  <r_i_glide_energy>  (79) 
-9.31544

>  <r_i_glide_einternal>  (79) 
13.479

>  <r_i_glide_intrahb_reward>  (79) 
-0

>  <i_i_glide_confnum>  (79) 
6

>  <i_i_glide_posenum>  (79) 
2

>  <r_i_glide_eff_state_penalty>  (79) 
0

>  <ligand_id>  (79) 
87

>  <original_smiles>  (79) 
CC(=O)OC1CC(OC(C)=O)C(C)(C(=O)OC(C)(C)O)C2C(O)C3(O)CCC4(C)C5C6(O)OC7CC8(CCC(C)(C)C8(C)C7O)CC(CC3C4(C)C5(O)C23OC1(C)C(O)C3O)[S+]6[O-]

>  <smiles>  (79) 
[H]OC12OC3([H])C([H])([H])C4(C([H])([H])C([H])([H])C(C([H])([H])[H])(C([H])([H])[H])C4(C([H])([H])[H])C3([H])O[H])C([H])([H])C([H])(S1=O)C([H])([H])C1([H])C3(O[H])C([H])([H])C([H])([H])C4(C([H])([H])[H])C2([H])C(O[H])(C25OC(C([H])([H])[H])(C([H])(OC(=O)C([H])([H])[H])C([H])([H])C([H])(OC(=O)C([H])([H])[H])C(C(=O)OC(O[H])(C([H])([H])[H])C([H])([H])[H])(C([H])([H])[H])C2([H])C3([H])O[H])C([H])(O[H])C5([H])O[H])C14C([H])([H])[H]

$$$$
87:0:1
     RDKit          3D

131139  0  0  1  0  0  0  0  0999 V2000
   -2.7888   -4.6553    7.4092 C   0  0  0  0  0  0  0  0  0  0  0  0
   -1.5076   -3.8515    7.3575 C   0  0  0  0  0  0  0  0  0  0  0  0
   -0.9864   -3.4663    8.3989 O   0  0  0  0  0  0  0  0  0  0  0  0
   -0.9923   -3.7374    6.1008 O   0  0  0  0  0  0  0  0  0  0  0  0
    0.3219   -3.2504    5.8545 C   0  0  2  0  0  0  0  0  0  0  0  0
    0.7558   -3.5538    4.3262 C   0  0  0  0  0  0  0  0  0  0  0  0
    1.7860   -4.6985    3.9847 C   0  0  1  0  0  0  0  0  0  0  0  0
    1.2349   -5.5016    2.9134 O   0  0  0  0  0  0  0  0  0  0  0  0
    0.5228   -6.6598    3.0800 C   0  0  0  0  0  0  0  0  0  0  0  0
    0.6189   -7.3297    4.4535 C   0  0  0  0  0  0  0  0  0  0  0  0
   -0.1787   -7.1521    2.1887 O   0  0  0  0  0  0  0  0  0  0  0  0
    3.3424   -4.3804    3.8756 C   0  0  1  0  0  0  0  0  0  0  0  0
    4.1304   -5.6506    4.3444 C   0  0  0  0  0  0  0  0  0  0  0  0
    3.4548   -4.1663    2.2985 C   0  0  0  0  0  0  0  0  0  0  0  0
    3.8369   -5.0786    1.5605 O   0  0  0  0  0  0  0  0  0  0  0  0
    3.3308   -2.8388    1.9266 O   0  0  0  0  0  0  0  0  0  0  0  0
    3.7942   -2.3745    0.6743 C   0  0  0  0  0  0  0  0  0  0  0  0
    3.4701   -0.8792    0.6712 C   0  0  0  0  0  0  0  0  0  0  0  0
    5.3288   -2.5982    0.4844 C   0  0  0  0  0  0  0  0  0  0  0  0
    3.1190   -2.9837   -0.3979 O   0  0  0  0  0  0  0  0  0  0  0  0
    3.9827   -3.1350    4.8026 C   0  0  2  0  0  0  0  0  0  0  0  0
    5.4369   -2.5043    4.2832 C   0  0  1  0  0  0  0  0  0  0  0  0
    5.7959   -3.3453    3.2371 O   0  0  0  0  0  0  0  0  0  0  0  0
    5.7798   -0.8670    4.0574 C   0  0  2  0  0  0  0  0  0  0  0  0
    6.1192   -0.5842    2.7132 O   0  0  0  0  0  0  0  0  0  0  0  0
    6.7348    0.1601    4.9267 C   0  0  0  0  0  0  0  0  0  0  0  0
    6.0052    1.1116    6.0850 C   0  0  0  0  0  0  0  0  0  0  0  0
    4.8766    0.4567    7.0525 C   0  0  1  0  0  0  0  0  0  0  0  0
    5.5306    0.5027    8.4730 C   0  0  0  0  0  0  0  0  0  0  0  0
    3.3028    0.2258    7.2622 C   0  0  1  0  0  0  0  0  0  0  0  0
    2.3678    1.4774    7.1931 C   0  0  2  0  0  0  0  0  0  0  0  0
    2.4894    2.1959    8.3957 O   0  0  0  0  0  0  0  0  0  0  0  0
    1.0108    1.0135    7.0727 O   0  0  0  0  0  0  0  0  0  0  0  0
    0.1109    1.5352    6.0685 C   0  0  1  0  0  0  0  0  0  0  0  0
   -0.4204    0.8391    4.8159 C   0  0  0  0  0  0  0  0  0  0  0  0
    0.0098    1.8643    3.7109 C   0  0  1  0  0  0  0  0  0  0  0  0
   -0.8316    1.6831    2.4399 C   0  0  0  0  0  0  0  0  0  0  0  0
   -2.1739    2.2657    2.7847 C   0  0  0  0  0  0  0  0  0  0  0  0
   -1.9787    3.3899    3.7950 C   0  0  0  0  0  0  0  0  0  0  0  0
   -2.2656    4.6772    3.0043 C   0  0  0  0  0  0  0  0  0  0  0  0
   -3.1103    3.2755    4.8491 C   0  0  0  0  0  0  0  0  0  0  0  0
   -0.4654    3.2338    4.3391 C   0  0  2  0  0  0  0  0  0  0  0  0
    0.4239    4.4063    3.8561 C   0  0  0  0  0  0  0  0  0  0  0  0
   -0.2108    3.0306    5.8957 C   0  0  1  0  0  0  0  0  0  0  0  0
   -1.1718    3.4843    6.8273 O   0  0  0  0  0  0  0  0  0  0  0  0
    1.5480    1.6330    3.3090 C   0  0  0  0  0  0  0  0  0  0  0  0
    2.9135    1.9614    4.1054 C   0  0  2  0  0  0  0  0  0  0  0  0
    4.1545    1.0889    3.8076 C   0  0  0  0  0  0  0  0  0  0  0  0
    4.5344   -0.3086    4.4893 C   0  0  2  0  0  0  0  0  0  0  0  0
    4.5985   -0.7049    6.1081 C   0  0  1  0  0  0  0  0  0  0  0  0
    5.7237   -1.7061    6.8292 C   0  0  0  0  0  0  0  0  0  0  0  0
    3.1356   -1.0528    6.3292 C   0  0  2  0  0  0  0  0  0  0  0  0
    2.1270   -0.8425    5.3628 O   0  0  0  0  0  0  0  0  0  0  0  0
    3.3429   -2.6458    6.2874 C   0  0  1  0  0  0  0  0  0  0  0  0
    2.4181   -3.6862    6.1769 O   0  0  0  0  0  0  0  0  0  0  0  0
    1.2897   -3.8434    6.9387 C   0  0  2  0  0  0  0  0  0  0  0  0
    1.0255   -5.3466    7.2737 C   0  0  0  0  0  0  0  0  0  0  0  0
    1.8681   -3.0799    8.1260 C   0  0  1  0  0  0  0  0  0  0  0  0
    1.6118   -3.6070    9.4180 O   0  0  0  0  0  0  0  0  0  0  0  0
    3.3717   -3.1152    7.7802 C   0  0  1  0  0  0  0  0  0  0  0  0
    4.0587   -4.3335    8.0653 O   0  0  0  0  0  0  0  0  0  0  0  0
    3.0839    2.5888    5.8642 S   0  0  0  0  0  0  0  0  0  0  0  0
    2.8242    4.0861    6.0362 O   0  0  0  0  0  0  0  0  0  0  0  0
   -2.5875   -5.6278    6.9813 H   0  0  0  0  0  0  0  0  0  0  0  0
   -3.5520   -4.1813    6.8048 H   0  0  0  0  0  0  0  0  0  0  0  0
   -3.1310   -4.7673    8.4447 H   0  0  0  0  0  0  0  0  0  0  0  0
    0.2658   -2.1692    5.9597 H   0  0  0  0  0  0  0  0  0  0  0  0
   -0.1216   -3.8014    3.7648 H   0  0  0  0  0  0  0  0  0  0  0  0
    1.0543   -2.6344    3.8219 H   0  0  0  0  0  0  0  0  0  0  0  0
    1.8121   -5.2916    4.8400 H   0  0  0  0  0  0  0  0  0  0  0  0
    1.0254   -6.7000    5.1759 H   0  0  0  0  0  0  0  0  0  0  0  0
    1.3316   -8.1533    4.4462 H   0  0  0  0  0  0  0  0  0  0  0  0
   -0.3610   -7.6319    4.8262 H   0  0  0  0  0  0  0  0  0  0  0  0
    3.8898   -5.8958    5.3789 H   0  0  0  0  0  0  0  0  0  0  0  0
    5.2139   -5.5202    4.3265 H   0  0  0  0  0  0  0  0  0  0  0  0
    3.9102   -6.5351    3.7521 H   0  0  0  0  0  0  0  0  0  0  0  0
    2.3991   -0.7161    0.8165 H   0  0  0  0  0  0  0  0  0  0  0  0
    3.8098   -0.4005   -0.2479 H   0  0  0  0  0  0  0  0  0  0  0  0
    4.0005   -0.4351    1.4874 H   0  0  0  0  0  0  0  0  0  0  0  0
    5.5835   -3.6601    0.4449 H   0  0  0  0  0  0  0  0  0  0  0  0
    5.8924   -2.1738    1.2832 H   0  0  0  0  0  0  0  0  0  0  0  0
    5.6922   -2.0801   -0.4065 H   0  0  0  0  0  0  0  0  0  0  0  0
    3.4711   -3.8566   -0.4663 H   0  0  0  0  0  0  0  0  0  0  0  0
    3.2961   -2.5568    4.2491 H   0  0  0  0  0  0  0  0  0  0  0  0
    6.2486   -2.9431    4.8514 H   0  0  0  0  0  0  0  0  0  0  0  0
    5.4881   -3.0028    2.3690 H   0  0  0  0  0  0  0  0  0  0  0  0
    6.8721   -0.0151    2.6718 H   0  0  0  0  0  0  0  0  0  0  0  0
    7.6347   -0.2982    5.3064 H   0  0  0  0  0  0  0  0  0  0  0  0
    7.1706    0.8849    4.2222 H   0  0  0  0  0  0  0  0  0  0  0  0
    6.8493    1.4673    6.6730 H   0  0  0  0  0  0  0  0  0  0  0  0
    5.6766    2.0583    5.6688 H   0  0  0  0  0  0  0  0  0  0  0  0
    5.0385   -0.1346    9.2097 H   0  0  0  0  0  0  0  0  0  0  0  0
    5.4770    1.5106    8.8797 H   0  0  0  0  0  0  0  0  0  0  0  0
    6.5852    0.2235    8.4889 H   0  0  0  0  0  0  0  0  0  0  0  0
    3.1268   -0.1938    8.2524 H   0  0  0  0  0  0  0  0  0  0  0  0
    2.6487    1.5856    9.0906 H   0  0  0  0  0  0  0  0  0  0  0  0
    0.9993    1.3940    5.5502 H   0  0  0  0  0  0  0  0  0  0  0  0
   -0.0502   -0.1625    4.6090 H   0  0  0  0  0  0  0  0  0  0  0  0
   -1.4974    0.7174    4.9071 H   0  0  0  0  0  0  0  0  0  0  0  0
   -0.4235    2.2317    1.5972 H   0  0  0  0  0  0  0  0  0  0  0  0
   -0.9134    0.6411    2.1285 H   0  0  0  0  0  0  0  0  0  0  0  0
   -2.7965    2.5185    1.9244 H   0  0  0  0  0  0  0  0  0  0  0  0
   -2.6303    1.4751    3.3180 H   0  0  0  0  0  0  0  0  0  0  0  0
   -1.9332    5.4280    3.6672 H   0  0  0  0  0  0  0  0  0  0  0  0
   -3.3241    4.8048    2.7301 H   0  0  0  0  0  0  0  0  0  0  0  0
   -1.6728    4.8108    2.1004 H   0  0  0  0  0  0  0  0  0  0  0  0
   -3.1472    4.1306    5.5255 H   0  0  0  0  0  0  0  0  0  0  0  0
   -2.9742    2.3906    5.4659 H   0  0  0  0  0  0  0  0  0  0  0  0
   -4.0954    3.1971    4.3764 H   0  0  0  0  0  0  0  0  0  0  0  0
    0.1115    5.3696    4.2565 H   0  0  0  0  0  0  0  0  0  0  0  0
    0.4298    4.4886    2.7872 H   0  0  0  0  0  0  0  0  0  0  0  0
    1.4659    4.2867    4.1121 H   0  0  0  0  0  0  0  0  0  0  0  0
    0.6325    3.6225    6.1964 H   0  0  0  0  0  0  0  0  0  0  0  0
   -1.9774    3.0108    6.6963 H   0  0  0  0  0  0  0  0  0  0  0  0
    1.6110    0.5794    3.0309 H   0  0  0  0  0  0  0  0  0  0  0  0
    1.6784    2.1291    2.3435 H   0  0  0  0  0  0  0  0  0  0  0  0
    3.1883    2.8918    3.6042 H   0  0  0  0  0  0  0  0  0  0  0  0
    4.0486    0.9423    2.7462 H   0  0  0  0  0  0  0  0  0  0  0  0
    5.0136    1.7348    3.7925 H   0  0  0  0  0  0  0  0  0  0  0  0
    3.8383   -0.8217    3.8540 H   0  0  0  0  0  0  0  0  0  0  0  0
    5.6843   -2.7810    6.6910 H   0  0  0  0  0  0  0  0  0  0  0  0
    5.6341   -1.7720    7.9032 H   0  0  0  0  0  0  0  0  0  0  0  0
    6.7688   -1.4475    6.7198 H   0  0  0  0  0  0  0  0  0  0  0  0
    2.2239    0.0432    5.0484 H   0  0  0  0  0  0  0  0  0  0  0  0
    0.3793   -5.4714    8.1444 H   0  0  0  0  0  0  0  0  0  0  0  0
    1.9301   -5.9116    7.4668 H   0  0  0  0  0  0  0  0  0  0  0  0
    0.4081   -5.7935    6.5242 H   0  0  0  0  0  0  0  0  0  0  0  0
    1.4743   -2.0610    8.1079 H   0  0  0  0  0  0  0  0  0  0  0  0
    1.9441   -4.4895    9.4597 H   0  0  0  0  0  0  0  0  0  0  0  0
    3.7872   -2.3754    8.4470 H   0  0  0  0  0  0  0  0  0  0  0  0
    3.6895   -5.0295    7.5441 H   0  0  0  0  0  0  0  0  0  0  0  0
  1  2  1  0
  1 64  1  0
  1 65  1  0
  1 66  1  0
  2  3  2  0
  2  4  1  0
  4  5  1  0
  5 56  1  0
  5  6  1  0
  5 67  1  6
  6  7  1  0
  6 68  1  0
  6 69  1  0
  7  8  1  0
  7 12  1  0
  7 70  1  1
  8  9  1  0
  9 10  1  0
  9 11  2  0
 10 71  1  0
 10 72  1  0
 10 73  1  0
 12 13  1  1
 12 14  1  0
 12 21  1  0
 13 74  1  0
 13 75  1  0
 13 76  1  0
 14 15  2  0
 14 16  1  0
 16 17  1  0
 17 18  1  0
 17 19  1  0
 17 20  1  0
 18 77  1  0
 18 78  1  0
 18 79  1  0
 19 80  1  0
 19 81  1  0
 19 82  1  0
 20 83  1  0
 21 54  1  0
 21 22  1  0
 21 84  1  6
 22 23  1  0
 22 24  1  0
 22 85  1  1
 23 86  1  0
 24 49  1  0
 24 25  1  6
 24 26  1  0
 25 87  1  0
 26 27  1  0
 26 88  1  0
 26 89  1  0
 27 28  1  0
 27 90  1  0
 27 91  1  0
 28 50  1  0
 28 29  1  1
 28 30  1  0
 29 92  1  0
 29 93  1  0
 29 94  1  0
 30 52  1  0
 30 31  1  0
 30 95  1  1
 62 31  1  1
 31 32  1  1
 31 33  1  0
 32 96  1  0
 33 34  1  0
 34 44  1  0
 34 35  1  0
 34 97  1  1
 35 36  1  0
 35 98  1  0
 35 99  1  0
 36 42  1  0
 36 37  1  6
 36 46  1  0
 37 38  1  0
 37100  1  0
 37101  1  0
 38 39  1  0
 38102  1  0
 38103  1  0
 39 40  1  0
 39 41  1  0
 39 42  1  0
 40104  1  0
 40105  1  0
 40106  1  0
 41107  1  0
 41108  1  0
 41109  1  0
 42 43  1  6
 42 44  1  0
 43110  1  0
 43111  1  0
 43112  1  0
 44 45  1  0
 44113  1  1
 45114  1  0
 46 47  1  0
 46115  1  0
 46116  1  0
 47 48  1  0
 47 62  1  0
 47117  1  6
 48 49  1  0
 48118  1  0
 48119  1  0
 49 50  1  0
 49120  1  6
 50 51  1  6
 50 52  1  0
 51121  1  0
 51122  1  0
 51123  1  0
 52 53  1  6
 52 54  1  0
 53124  1  0
 54 60  1  0
 54 55  1  6
 55 56  1  0
 56 57  1  1
 56 58  1  0
 57125  1  0
 57126  1  0
 57127  1  0
 58 59  1  0
 58 60  1  0
 58128  1  1
 59129  1  0
 60 61  1  0
 60130  1  1
 61131  1  0
 62 63  2  0
M  END
>  <i_m_ct_stereo_status>  (80) 
1

>  <s_m_source_file>  (80) 
/var/tmp/pbs.5075288.sched01/tmphpu8_cit/24996nucuhu.sdf

>  <i_m_source_file_index>  (80) 
45

>  <i_lp_mmshare_version>  (80) 
48012

>  <i_f3d_flags>  (80) 
0

>  <s_epik_input>  (80) 
W0NIM11DKFtDSDNdKShbT0hdKU9DKD1PKVtDQF0xKFtDSDNdKVtDQEhdKE9DKD1PKVtDSDNdKVtDSDJdW0NAQEhdKE9DKD1PKVtDSDNdKVtDQF0oW0NIM10pKFtDQEBIXShbT0hdKVtDQEhdMltPSF0pT1tDQF0yKFtDQEBdMzRbT0hdKVtDQEhdMVtDQEBIXShbT0hdKVtDQF0oW09IXSkoW0NIMl1bQ0gyXTUpW0NASF0oW0NIMl1bQ0BASF0oW0NIMl02KVtTK103W08tXSlbQ0BAXTQoW0NIM10pW0NAXTUoW0NIM10pW0NASF0zW0NAXTcoW09IXSlPW0NAQEhdKFtDSDJdOClbQ0BIXShbT0hdKVtDQF0oW0NAQF02ODkpKFtDSDNdKUMoW0NIM10pKFtDSDNdKVtDSDJdW0NIMl05

>  <s_epik_cmdline>  (80) 
J2VwaWtfcHl0aG9uJywgJy1waHQnLCAnMi4wJywgJy1waCcsICc3LjAnLCAnLXRuJywgJzgnLCAnLW1hJywgJzIwMCcsICctaW1hZScsICc8aW5maWxlLm1hZT4nLCAnLW9tYWUnLCAnPG91dGZpbGUubWFlPic=

>  <r_lp_tautomer_probability>  (80) 
1

>  <r_epik_Ionization_Penalty>  (80) 
2.88481e-06

>  <r_epik_Ionization_Penalty_Charging>  (80) 
0

>  <r_epik_Ionization_Penalty_Neutral>  (80) 
2.88481e-06

>  <r_epik_State_Penalty>  (80) 
-0

>  <r_epik_Charging_Adjusted_Penalty>  (80) 
0

>  <i_epik_Tot_Q>  (80) 
0

>  <i_epik_Tot_abs_Q>  (80) 
2

>  <s_epik_Chemistry_Notes>  (80) 
This compound has an ester and may undergo hydrolysis at high or low pH.

>  <s_lp_Force_Field>  (80) 
OPLS3e

>  <r_lp_Energy>  (80) 
551.256

>  <b_lp_Chiralities_Consistent>  (80) 
1

>  <s_lp_Variant>  (80) 
87:0-1

>  <s_i_glide_gridfile>  (80) 
pfpi4k_grid

>  <i_i_glide_lignum>  (80) 
45

>  <i_i_glide_rotatable_bonds>  (80) 
15

>  <r_i_docking_score>  (80) 
2.54784

>  <r_i_glide_ligand_efficiency>  (80) 
0.040442

>  <r_i_glide_ligand_efficiency_sa>  (80) 
0.160921

>  <r_i_glide_ligand_efficiency_ln>  (80) 
0.495387

>  <r_i_glide_gscore>  (80) 
2.54784

>  <r_i_glide_lipo>  (80) 
-0.370705

>  <r_i_glide_hbond>  (80) 
-0.13746

>  <r_i_glide_metal>  (80) 
-0

>  <r_i_glide_rewards>  (80) 
-0.000864674

>  <r_i_glide_evdw>  (80) 
-1.24337

>  <r_i_glide_ecoul>  (80) 
-5.57623

>  <r_i_glide_erotb>  (80) 
0.13243

>  <r_i_glide_esite>  (80) 
-0.0970592

>  <r_i_glide_emodel>  (80) 
18.0961

>  <r_i_glide_energy>  (80) 
-6.8196

>  <r_i_glide_einternal>  (80) 
19.763

>  <r_i_glide_intrahb_reward>  (80) 
-0

>  <i_i_glide_confnum>  (80) 
2

>  <i_i_glide_posenum>  (80) 
10

>  <r_i_glide_eff_state_penalty>  (80) 
0

>  <ligand_id>  (80) 
87

>  <original_smiles>  (80) 
CC(=O)OC1CC(OC(C)=O)C(C)(C(=O)OC(C)(C)O)C2C(O)C3(O)CCC4(C)C5C6(O)OC7CC8(CCC(C)(C)C8(C)C7O)CC(CC3C4(C)C5(O)C23OC1(C)C(O)C3O)[S+]6[O-]

>  <smiles>  (80) 
[H]OC12OC3([H])C([H])([H])C4(C([H])([H])C([H])([H])C(C([H])([H])[H])(C([H])([H])[H])C4(C([H])([H])[H])C3([H])O[H])C([H])([H])C([H])(S1=O)C([H])([H])C1([H])C3(O[H])C([H])([H])C([H])([H])C4(C([H])([H])[H])C2([H])C(O[H])(C25OC(C([H])([H])[H])(C([H])(OC(=O)C([H])([H])[H])C([H])([H])C([H])(OC(=O)C([H])([H])[H])C(C(=O)OC(O[H])(C([H])([H])[H])C([H])([H])[H])(C([H])([H])[H])C2([H])C3([H])O[H])C([H])(O[H])C5([H])O[H])C14C([H])([H])[H]

$$$$
89:0:0
     RDKit          3D

123131  0  0  1  0  0  0  0  0999 V2000
    5.8545   -5.4607    6.9234 C   0  0  0  0  0  0  0  0  0  0  0  0
    5.9710   -4.1478    7.1611 C   0  0  0  0  0  0  0  0  0  0  0  0
    5.8625   -3.0605    6.1478 C   0  0  0  0  0  0  0  0  0  0  0  0
    4.8778   -2.1017    6.8396 C   0  0  1  0  0  0  0  0  0  0  0  0
    3.6187   -2.7367    6.6175 O   0  0  0  0  0  0  0  0  0  0  0  0
    2.6492   -2.1816    7.4967 C   0  0  1  0  0  0  0  0  0  0  0  0
    1.4305   -3.1793    7.6073 C   0  0  1  0  0  0  0  0  0  0  0  0
    1.6156   -4.3000    6.7333 O   0  0  0  0  0  0  0  0  0  0  0  0
    0.5648   -4.9703    6.2284 C   0  0  0  0  0  0  0  0  0  0  0  0
    0.9881   -6.1659    5.3832 C   0  0  0  0  0  0  0  0  0  0  0  0
   -0.6173   -4.7037    6.4389 O   0  0  0  0  0  0  0  0  0  0  0  0
    1.0663   -3.6530    9.0741 C   0  0  1  0  0  0  0  0  0  0  0  0
    1.7281   -4.8929    9.3564 O   0  0  0  0  0  0  0  0  0  0  0  0
    1.0841   -6.0790    9.3374 C   0  0  0  0  0  0  0  0  0  0  0  0
    1.9900   -7.2476    9.6949 C   0  0  0  0  0  0  0  0  0  0  0  0
   -0.1098   -6.2584    9.0770 O   0  0  0  0  0  0  0  0  0  0  0  0
    1.4057   -2.5487   10.1515 C   0  0  1  0  0  0  0  0  0  0  0  0
    0.6466   -1.2667    9.7010 C   0  0  0  0  0  0  0  0  0  0  0  0
    0.8537   -2.7383   11.6028 C   0  0  1  0  0  0  0  0  0  0  0  0
    1.0471   -4.0311   12.1880 O   0  0  0  0  0  0  0  0  0  0  0  0
    0.0665   -4.9439   12.2032 C   0  0  0  0  0  0  0  0  0  0  0  0
    0.5089   -6.2968   12.7847 C   0  0  0  0  0  0  0  0  0  0  0  0
   -1.0669   -4.7865   11.7478 O   0  0  0  0  0  0  0  0  0  0  0  0
    1.3783   -1.6386   12.5683 C   0  0  0  0  0  0  0  0  0  0  0  0
    2.5838   -0.7372   12.0905 C   0  0  1  0  0  0  0  0  0  0  0  0
    3.5982   -0.8180   13.0441 O   0  0  0  0  0  0  0  0  0  0  0  0
    4.6085    0.1792   12.9146 C   0  0  0  0  0  0  0  0  0  0  0  0
    3.0806   -0.9757   10.7773 O   0  0  0  0  0  0  0  0  0  0  0  0
    2.9660   -2.2850   10.2175 C   0  0  1  0  0  0  0  0  0  0  0  0
    3.7377   -3.2436   11.1773 C   0  0  0  0  0  0  0  0  0  0  0  0
    3.5849   -2.3834    8.7580 C   0  0  2  0  0  0  0  0  0  0  0  0
    5.0936   -2.1756    8.3784 C   0  0  2  0  0  0  0  0  0  0  0  0
    5.7752   -0.9224    9.0150 C   0  0  1  0  0  0  0  0  0  0  0  0
    6.3586   -1.2181   10.2659 O   0  0  0  0  0  0  0  0  0  0  0  0
    6.9043   -0.2298    8.2145 C   0  0  0  0  0  0  0  0  0  0  0  0
    6.4641    0.1513    6.4439 S   0  0  0  0  0  0  0  0  0  0  0  0
    6.2928    1.6806    6.2754 O   0  0  0  0  0  0  0  0  0  0  0  0
    4.8411   -0.7145    6.1820 C   0  0  2  0  0  0  0  0  0  0  0  0
    3.5509    0.1607    6.4428 C   0  0  1  0  0  0  0  0  0  0  0  0
    3.6201    1.0963    7.6856 C   0  0  0  0  0  0  0  0  0  0  0  0
    3.2998    1.1142    5.1951 C   0  0  1  0  0  0  0  0  0  0  0  0
    3.6052    0.5438    3.9398 O   0  0  0  0  0  0  0  0  0  0  0  0
    1.8701    1.6968    5.0792 C   0  0  0  0  0  0  0  0  0  0  0  0
    0.7138    0.6846    5.2532 C   0  0  2  0  0  0  0  0  0  0  0  0
    0.6206   -0.2460    4.0068 C   0  0  0  0  0  0  0  0  0  0  0  0
   -0.6534    1.4452    5.3333 C   0  0  1  0  0  0  0  0  0  0  0  0
   -1.7468    0.5514    5.2421 O   0  0  0  0  0  0  0  0  0  0  0  0
   -0.8201    2.2707    6.6195 C   0  0  1  0  0  0  0  0  0  0  0  0
   -2.1956    2.9643    6.7370 C   0  0  0  0  0  0  0  0  0  0  0  0
   -2.1427    3.9810    7.7249 O   0  0  0  0  0  0  0  0  0  0  0  0
   -2.4145    3.6461    9.0598 C   0  0  0  0  0  0  0  0  0  0  0  0
   -1.9265    4.8356    9.9040 C   0  0  0  0  0  0  0  0  0  0  0  0
   -3.9269    3.4577    9.2467 C   0  0  0  0  0  0  0  0  0  0  0  0
   -1.8165    2.4705    9.5133 O   0  0  0  0  0  0  0  0  0  0  0  0
   -0.4741    2.2146    9.1350 C   0  0  0  0  0  0  0  0  0  0  0  0
   -0.4822    1.3987    7.8340 C   0  0  2  0  0  0  0  0  0  0  0  0
    0.8087    0.8261    7.6571 O   0  0  0  0  0  0  0  0  0  0  0  0
    0.9452   -0.1035    6.5854 C   0  0  2  0  0  0  0  0  0  0  0  0
    2.3540   -0.8335    6.6274 C   0  0  2  0  0  0  0  0  0  0  0  0
    6.0545   -3.4374    8.4829 C   0  0  1  0  0  0  0  0  0  0  0  0
    5.9391   -4.3313    9.5727 O   0  0  0  0  0  0  0  0  0  0  0  0
    5.8505   -6.1720    7.7287 H   0  0  0  0  0  0  0  0  0  0  0  0
    5.7146   -5.8158    5.9210 H   0  0  0  0  0  0  0  0  0  0  0  0
    6.8612   -2.6301    6.0500 H   0  0  0  0  0  0  0  0  0  0  0  0
    5.5421   -3.4189    5.1647 H   0  0  0  0  0  0  0  0  0  0  0  0
    0.5540   -2.6681    7.2292 H   0  0  0  0  0  0  0  0  0  0  0  0
    1.5678   -5.8255    4.5276 H   0  0  0  0  0  0  0  0  0  0  0  0
    0.1234   -6.7263    5.0293 H   0  0  0  0  0  0  0  0  0  0  0  0
    1.6080   -6.8424    5.9691 H   0  0  0  0  0  0  0  0  0  0  0  0
   -0.0152   -3.8010    9.1241 H   0  0  0  0  0  0  0  0  0  0  0  0
    2.7667   -7.3903    8.9259 H   0  0  0  0  0  0  0  0  0  0  0  0
    1.3973   -8.1633    9.7467 H   0  0  0  0  0  0  0  0  0  0  0  0
    2.3957   -7.0699   10.7023 H   0  0  0  0  0  0  0  0  0  0  0  0
    0.1499   -0.7242   10.5021 H   0  0  0  0  0  0  0  0  0  0  0  0
   -0.1257   -1.4591    8.9644 H   0  0  0  0  0  0  0  0  0  0  0  0
    1.3522   -0.5571    9.3057 H   0  0  0  0  0  0  0  0  0  0  0  0
   -0.2242   -2.5653   11.5394 H   0  0  0  0  0  0  0  0  0  0  0  0
    1.2144   -6.7936   12.0834 H   0  0  0  0  0  0  0  0  0  0  0  0
   -0.3725   -6.9509   12.9428 H   0  0  0  0  0  0  0  0  0  0  0  0
    0.9979   -6.1677   13.7662 H   0  0  0  0  0  0  0  0  0  0  0  0
    0.5557   -0.9644   12.7999 H   0  0  0  0  0  0  0  0  0  0  0  0
    1.6499   -2.0954   13.5147 H   0  0  0  0  0  0  0  0  0  0  0  0
    2.2494    0.2999   12.0750 H   0  0  0  0  0  0  0  0  0  0  0  0
    5.3846   -0.0011   13.6570 H   0  0  0  0  0  0  0  0  0  0  0  0
    4.2272    1.1922   13.0615 H   0  0  0  0  0  0  0  0  0  0  0  0
    5.0778    0.1423   11.9352 H   0  0  0  0  0  0  0  0  0  0  0  0
    3.6853   -4.2810   10.8656 H   0  0  0  0  0  0  0  0  0  0  0  0
    3.3878   -3.2311   12.2021 H   0  0  0  0  0  0  0  0  0  0  0  0
    4.7765   -2.9457   11.2643 H   0  0  0  0  0  0  0  0  0  0  0  0
    3.6179   -3.4711    8.7302 H   0  0  0  0  0  0  0  0  0  0  0  0
    5.0263   -0.1941    9.2653 H   0  0  0  0  0  0  0  0  0  0  0  0
    6.9643   -1.9494   10.1556 H   0  0  0  0  0  0  0  0  0  0  0  0
    7.1856    0.7049    8.7111 H   0  0  0  0  0  0  0  0  0  0  0  0
    7.8170   -0.8355    8.2149 H   0  0  0  0  0  0  0  0  0  0  0  0
    4.8512   -0.9801    5.1279 H   0  0  0  0  0  0  0  0  0  0  0  0
    2.9860    1.9722    7.5781 H   0  0  0  0  0  0  0  0  0  0  0  0
    4.5981    1.5124    7.8921 H   0  0  0  0  0  0  0  0  0  0  0  0
    3.2517    0.6026    8.5800 H   0  0  0  0  0  0  0  0  0  0  0  0
    3.9873    1.9569    5.2825 H   0  0  0  0  0  0  0  0  0  0  0  0
    3.5903    1.2421    3.2861 H   0  0  0  0  0  0  0  0  0  0  0  0
    1.7871    2.4691    5.8334 H   0  0  0  0  0  0  0  0  0  0  0  0
    1.7641    2.2286    4.1301 H   0  0  0  0  0  0  0  0  0  0  0  0
   -0.1374   -1.0242    4.1129 H   0  0  0  0  0  0  0  0  0  0  0  0
    1.5432   -0.7713    3.7721 H   0  0  0  0  0  0  0  0  0  0  0  0
    0.3731    0.3343    3.1149 H   0  0  0  0  0  0  0  0  0  0  0  0
   -0.7263    2.1371    4.4883 H   0  0  0  0  0  0  0  0  0  0  0  0
   -1.9903    0.4995    4.3198 H   0  0  0  0  0  0  0  0  0  0  0  0
   -0.1036    3.0806    6.5792 H   0  0  0  0  0  0  0  0  0  0  0  0
   -2.3959    3.4724    5.7896 H   0  0  0  0  0  0  0  0  0  0  0  0
   -3.0107    2.2613    6.9115 H   0  0  0  0  0  0  0  0  0  0  0  0
   -0.8735    5.0396    9.7159 H   0  0  0  0  0  0  0  0  0  0  0  0
   -2.0689    4.6538   10.9736 H   0  0  0  0  0  0  0  0  0  0  0  0
   -2.4856    5.7328    9.6360 H   0  0  0  0  0  0  0  0  0  0  0  0
   -4.2734    2.5682    8.7203 H   0  0  0  0  0  0  0  0  0  0  0  0
   -4.4825    4.3226    8.8786 H   0  0  0  0  0  0  0  0  0  0  0  0
   -4.1556    3.3129   10.3100 H   0  0  0  0  0  0  0  0  0  0  0  0
    0.1458    3.1129    9.0702 H   0  0  0  0  0  0  0  0  0  0  0  0
   -0.0459    1.6065    9.9285 H   0  0  0  0  0  0  0  0  0  0  0  0
   -1.2132    0.5948    7.9374 H   0  0  0  0  0  0  0  0  0  0  0  0
    0.1472   -0.8289    6.6612 H   0  0  0  0  0  0  0  0  0  0  0  0
    2.3138   -1.3100    5.6492 H   0  0  0  0  0  0  0  0  0  0  0  0
    7.0894   -3.0894    8.5201 H   0  0  0  0  0  0  0  0  0  0  0  0
    5.0467   -4.6534    9.6141 H   0  0  0  0  0  0  0  0  0  0  0  0
  1  2  2  0
  1 62  1  0
  1 63  1  0
  2 60  1  0
  2  3  1  0
  3  4  1  0
  3 64  1  0
  3 65  1  0
 32  4  1  6
  4 38  1  0
  4  5  1  1
  6  5  1  6
  6 31  1  0
  6 59  1  0
  6  7  1  0
  7  8  1  0
  7 12  1  0
  7 66  1  6
  8  9  1  0
  9 10  1  0
  9 11  2  0
 10 67  1  0
 10 68  1  0
 10 69  1  0
 12 13  1  0
 12 17  1  0
 12 70  1  6
 13 14  1  0
 14 15  1  0
 14 16  2  0
 15 71  1  0
 15 72  1  0
 15 73  1  0
 17 29  1  0
 17 18  1  6
 17 19  1  0
 18 74  1  0
 18 75  1  0
 18 76  1  0
 19 20  1  0
 19 24  1  0
 19 77  1  6
 20 21  1  0
 21 22  1  0
 21 23  2  0
 22 78  1  0
 22 79  1  0
 22 80  1  0
 24 25  1  0
 24 81  1  0
 24 82  1  0
 25 26  1  0
 25 28  1  0
 25 83  1  6
 26 27  1  0
 27 84  1  0
 27 85  1  0
 27 86  1  0
 28 29  1  0
 29 30  1  1
 29 31  1  0
 30 87  1  0
 30 88  1  0
 30 89  1  0
 31 32  1  0
 31 90  1  6
 32 33  1  0
 32 60  1  0
 33 34  1  0
 33 35  1  0
 33 91  1  1
 34 92  1  0
 36 35  1  1
 35 93  1  0
 35 94  1  0
 36 37  2  0
 36 38  1  0
 38 39  1  0
 38 95  1  6
 39 59  1  0
 39 40  1  1
 39 41  1  0
 40 96  1  0
 40 97  1  0
 40 98  1  0
 41 42  1  0
 41 43  1  0
 41 99  1  1
 42100  1  0
 43 44  1  0
 43101  1  0
 43102  1  0
 44 58  1  0
 44 45  1  6
 44 46  1  0
 45103  1  0
 45104  1  0
 45105  1  0
 46 47  1  0
 46 48  1  0
 46106  1  6
 47107  1  0
 48 56  1  0
 48 49  1  0
 48108  1  6
 49 50  1  0
 49109  1  0
 49110  1  0
 50 51  1  0
 51 52  1  0
 51 53  1  0
 51 54  1  0
 52111  1  0
 52112  1  0
 52113  1  0
 53114  1  0
 53115  1  0
 53116  1  0
 54 55  1  0
 55 56  1  0
 55117  1  0
 55118  1  0
 56 57  1  0
 56119  1  1
 57 58  1  0
 58 59  1  0
 58120  1  1
 59121  1  6
 60 61  1  0
 60122  1  1
 61123  1  0
M  END
>  <i_m_ct_stereo_status>  (81) 
1

>  <s_m_source_file>  (81) 
/var/tmp/pbs.5075288.sched01/tmphpu8_cit/24996nucuhu.sdf

>  <i_m_source_file_index>  (81) 
47

>  <i_lp_mmshare_version>  (81) 
48012

>  <i_f3d_flags>  (81) 
0

>  <s_epik_input>  (81) 
W0NIM11DKD1PKU9bQ0BIXTFbQ0gyXVtDQEBIXShPW0NIM10pT1tDQEBdMihbQ0gzXSlbQ0BAXTEoW0NIM10pW0NASF0oT0MoPU8pW0NIM10pW0NASF0oT0MoPU8pW0NIM10pW0NAXShPMykoW0NASF0yW0NAXTQoW0NAXTM1NilbQ0BASF0oW09IXSlDKD1bQ0gyXSlbQ0gyXTUpW0NAQEhdN1tDQEBdKFtDSDNdKShbQ0hdNltTK10oW08tXSlbQ0gyXVtDSF00W09IXSlbQ0BASF0oW09IXSlbQ0gyXVtDQEBdOChbQ0gzXSlbQ0BASF03T1tDQEBIXTlbQ0BASF0oW0NAQEhdOFtPSF0pW0NIMl1PQyhbQ0gzXSkoW0NIM10pT1tDSDJdOQ==

>  <s_epik_cmdline>  (81) 
J2VwaWtfcHl0aG9uJywgJy1waHQnLCAnMi4wJywgJy1waCcsICc3LjAnLCAnLXRuJywgJzgnLCAnLW1hJywgJzIwMCcsICctaW1hZScsICc8aW5maWxlLm1hZT4nLCAnLW9tYWUnLCAnPG91dGZpbGUubWFlPic=

>  <r_lp_tautomer_probability>  (81) 
1

>  <r_epik_Ionization_Penalty>  (81) 
4.51478e-07

>  <r_epik_Ionization_Penalty_Charging>  (81) 
0

>  <r_epik_Ionization_Penalty_Neutral>  (81) 
4.51478e-07

>  <r_epik_State_Penalty>  (81) 
-0

>  <r_epik_Charging_Adjusted_Penalty>  (81) 
0

>  <i_epik_Tot_Q>  (81) 
0

>  <i_epik_Tot_abs_Q>  (81) 
2

>  <s_epik_Chemistry_Notes>  (81) 
This compound has an ester and may undergo hydrolysis at high or low pH. This compound contains an acetal/aminal-like group ( X-CH(R)-Y where X, Y are N, S, or O) that may be acid/base labile, releasing an aldehyde.

>  <s_lp_Force_Field>  (81) 
OPLS3e

>  <r_lp_Energy>  (81) 
128.966

>  <b_lp_Chiralities_Consistent>  (81) 
1

>  <s_lp_Variant>  (81) 
89:0-1

>  <s_i_glide_gridfile>  (81) 
pfpi4k_grid

>  <i_i_glide_lignum>  (81) 
47

>  <i_i_glide_rotatable_bonds>  (81) 
11

>  <r_i_docking_score>  (81) 
-2.88518

>  <r_i_glide_ligand_efficiency>  (81) 
-0.0472981

>  <r_i_glide_ligand_efficiency_sa>  (81) 
-0.186189

>  <r_i_glide_ligand_efficiency_ln>  (81) 
-0.564519

>  <r_i_glide_gscore>  (81) 
-2.88518

>  <r_i_glide_lipo>  (81) 
-0.301892

>  <r_i_glide_hbond>  (81) 
-0.309453

>  <r_i_glide_metal>  (81) 
-0

>  <r_i_glide_rewards>  (81) 
-0.113805

>  <r_i_glide_evdw>  (81) 
-28.3114

>  <r_i_glide_ecoul>  (81) 
-5.43536

>  <r_i_glide_erotb>  (81) 
0.084677

>  <r_i_glide_esite>  (81) 
-0.0138354

>  <r_i_glide_emodel>  (81) 
-37.2108

>  <r_i_glide_energy>  (81) 
-33.7468

>  <r_i_glide_einternal>  (81) 
2.39307

>  <r_i_glide_intrahb_reward>  (81) 
-0

>  <i_i_glide_confnum>  (81) 
5

>  <i_i_glide_posenum>  (81) 
21

>  <r_i_glide_eff_state_penalty>  (81) 
0

>  <ligand_id>  (81) 
89

>  <original_smiles>  (81) 
C=C1CC23OC45C(OC(C)=O)C(OC(C)=O)C6(C)C(OC(C)=O)CC(OC)OC6(C)C4C2(C(O)C[S+]([O-])C3C2(C)C(O)CC3(C)C(O)C4COC(C)(C)OCC4OC3C25)C1O

>  <smiles>  (81) 
[H]OC1([H])C(=C([H])[H])C([H])([H])C23OC45C([H])(OC(=O)C([H])([H])[H])C([H])(OC(=O)C([H])([H])[H])C6(C([H])([H])[H])C([H])(OC(=O)C([H])([H])[H])C([H])([H])C([H])(OC([H])([H])[H])OC6(C([H])([H])[H])C4([H])C12C([H])(O[H])C([H])([H])S(=O)C3([H])C1(C([H])([H])[H])C([H])(O[H])C([H])([H])C2(C([H])([H])[H])C([H])(O[H])C3([H])C([H])([H])OC(C([H])([H])[H])(C([H])([H])[H])OC([H])([H])C3([H])OC2([H])C51[H]

$$$$
89:0:1
     RDKit          3D

123131  0  0  1  0  0  0  0  0999 V2000
    5.5307   -5.6968    6.6214 C   0  0  0  0  0  0  0  0  0  0  0  0
    5.6877   -4.3845    6.8510 C   0  0  0  0  0  0  0  0  0  0  0  0
    5.5798   -3.3051    5.8350 C   0  0  0  0  0  0  0  0  0  0  0  0
    4.6427   -2.3183    6.5502 C   0  0  1  0  0  0  0  0  0  0  0  0
    3.3585   -2.9228    6.3671 O   0  0  0  0  0  0  0  0  0  0  0  0
    2.4296   -2.3424    7.2710 C   0  0  1  0  0  0  0  0  0  0  0  0
    1.1970   -3.3104    7.4291 C   0  0  1  0  0  0  0  0  0  0  0  0
    1.3398   -4.4596    6.5926 O   0  0  0  0  0  0  0  0  0  0  0  0
    0.8443   -4.4824    5.3485 C   0  0  0  0  0  0  0  0  0  0  0  0
    1.0703   -5.8213    4.6552 C   0  0  0  0  0  0  0  0  0  0  0  0
    0.2661   -3.5515    4.7907 O   0  0  0  0  0  0  0  0  0  0  0  0
    0.8687   -3.7603    8.9084 C   0  0  1  0  0  0  0  0  0  0  0  0
    1.5104   -5.0064    9.2150 O   0  0  0  0  0  0  0  0  0  0  0  0
    0.8987   -6.1863    9.0028 C   0  0  0  0  0  0  0  0  0  0  0  0
    1.7474   -7.3828    9.4353 C   0  0  0  0  0  0  0  0  0  0  0  0
   -0.2180   -6.3210    8.5082 O   0  0  0  0  0  0  0  0  0  0  0  0
    1.2616   -2.6612    9.9639 C   0  0  1  0  0  0  0  0  0  0  0  0
    0.5180   -1.3723    9.5306 C   0  0  0  0  0  0  0  0  0  0  0  0
    0.7402   -2.8428   11.4182 C   0  0  1  0  0  0  0  0  0  0  0  0
    0.9312   -4.1455   11.9953 O   0  0  0  0  0  0  0  0  0  0  0  0
   -0.0909   -5.0236   12.1043 C   0  0  0  0  0  0  0  0  0  0  0  0
    0.3226   -6.3596   12.7320 C   0  0  0  0  0  0  0  0  0  0  0  0
   -1.2349   -4.8227   11.7007 O   0  0  0  0  0  0  0  0  0  0  0  0
    1.3200   -1.7561   12.3731 C   0  0  0  0  0  0  0  0  0  0  0  0
    2.5338   -0.8793   11.8587 C   0  0  1  0  0  0  0  0  0  0  0  0
    3.5669   -0.9726   12.7833 O   0  0  0  0  0  0  0  0  0  0  0  0
    4.5497    0.0438   12.6629 C   0  0  0  0  0  0  0  0  0  0  0  0
    2.9845   -1.1363   10.5375 O   0  0  0  0  0  0  0  0  0  0  0  0
    2.8254   -2.4342    9.9851 C   0  0  1  0  0  0  0  0  0  0  0  0
    3.5985   -3.4110   10.9242 C   0  0  0  0  0  0  0  0  0  0  0  0
    3.3958   -2.5581    8.5063 C   0  0  2  0  0  0  0  0  0  0  0  0
    4.9002   -2.3966    8.0867 C   0  0  2  0  0  0  0  0  0  0  0  0
    5.6234   -1.1484    8.6979 C   0  0  1  0  0  0  0  0  0  0  0  0
    6.2244   -1.4437    9.9423 O   0  0  0  0  0  0  0  0  0  0  0  0
    6.7447   -0.4890    7.8603 C   0  0  0  0  0  0  0  0  0  0  0  0
    6.2598   -0.0878    6.0995 S   0  0  0  0  0  0  0  0  0  0  0  0
    6.1070    1.4285    5.9504 O   0  0  0  0  0  0  0  0  0  0  0  0
    4.6120   -0.9310    5.8903 C   0  0  2  0  0  0  0  0  0  0  0  0
    3.3480   -0.0269    6.1799 C   0  0  1  0  0  0  0  0  0  0  0  0
    3.4720    0.9106    7.4180 C   0  0  0  0  0  0  0  0  0  0  0  0
    3.0855    0.9176    4.9348 C   0  0  1  0  0  0  0  0  0  0  0  0
    3.3447    0.3552    3.6662 O   0  0  0  0  0  0  0  0  0  0  0  0
    1.6682    1.5387    4.8601 C   0  0  0  0  0  0  0  0  0  0  0  0
    0.4920    0.5552    5.0695 C   0  0  2  0  0  0  0  0  0  0  0  0
    0.3383   -0.3774    3.8306 C   0  0  0  0  0  0  0  0  0  0  0  0
   -0.8530    1.3450    5.1914 C   0  0  1  0  0  0  0  0  0  0  0  0
   -1.9467    0.4523    5.1392 O   0  0  0  0  0  0  0  0  0  0  0  0
   -0.9632    2.1846    6.4765 C   0  0  1  0  0  0  0  0  0  0  0  0
   -2.3189    2.9095    6.6364 C   0  0  0  0  0  0  0  0  0  0  0  0
   -2.2173    3.9303    7.6167 O   0  0  0  0  0  0  0  0  0  0  0  0
   -2.4612    3.6048    8.9641 C   0  0  0  0  0  0  0  0  0  0  0  0
   -1.9078    4.7867    9.7858 C   0  0  0  0  0  0  0  0  0  0  0  0
   -3.9728    3.4585    9.2050 C   0  0  0  0  0  0  0  0  0  0  0  0
   -1.8677    2.4209    9.4007 O   0  0  0  0  0  0  0  0  0  0  0  0
   -0.5461    2.1355    8.9810 C   0  0  0  0  0  0  0  0  0  0  0  0
   -0.6110    1.3184    7.6850 C   0  0  2  0  0  0  0  0  0  0  0  0
    0.6590    0.7035    7.4735 O   0  0  0  0  0  0  0  0  0  0  0  0
    0.7450   -0.2349    6.4013 C   0  0  2  0  0  0  0  0  0  0  0  0
    2.1394   -0.9910    6.4072 C   0  0  2  0  0  0  0  0  0  0  0  0
    5.8303   -3.6781    8.1657 C   0  0  1  0  0  0  0  0  0  0  0  0
    5.7229   -4.5665    9.2593 O   0  0  0  0  0  0  0  0  0  0  0  0
    5.5407   -6.4109    7.4337 H   0  0  0  0  0  0  0  0  0  0  0  0
    5.3570   -6.0573    5.6197 H   0  0  0  0  0  0  0  0  0  0  0  0
    6.5802   -2.8992    5.6989 H   0  0  0  0  0  0  0  0  0  0  0  0
    5.2147   -3.6593    4.8687 H   0  0  0  0  0  0  0  0  0  0  0  0
    0.3066   -2.7903    7.0925 H   0  0  0  0  0  0  0  0  0  0  0  0
    2.1358   -6.0477    4.6128 H   0  0  0  0  0  0  0  0  0  0  0  0
    0.6790   -5.8064    3.6380 H   0  0  0  0  0  0  0  0  0  0  0  0
    0.5734   -6.6229    5.2028 H   0  0  0  0  0  0  0  0  0  0  0  0
   -0.2158   -3.8987    8.9726 H   0  0  0  0  0  0  0  0  0  0  0  0
    2.6435   -7.4528    8.8119 H   0  0  0  0  0  0  0  0  0  0  0  0
    1.1796   -8.3016    9.3029 H   0  0  0  0  0  0  0  0  0  0  0  0
    2.0247   -7.2973   10.5002 H   0  0  0  0  0  0  0  0  0  0  0  0
    0.0457   -0.8184   10.3411 H   0  0  0  0  0  0  0  0  0  0  0  0
   -0.2639   -1.5524    8.7998 H   0  0  0  0  0  0  0  0  0  0  0  0
    1.2310   -0.6760    9.1158 H   0  0  0  0  0  0  0  0  0  0  0  0
   -0.3326   -2.6466   11.3921 H   0  0  0  0  0  0  0  0  0  0  0  0
    0.8988   -6.9496   12.0007 H   0  0  0  0  0  0  0  0  0  0  0  0
   -0.5638   -6.9255   13.0266 H   0  0  0  0  0  0  0  0  0  0  0  0
    0.9290   -6.2016   13.6306 H   0  0  0  0  0  0  0  0  0  0  0  0
    0.5181   -1.0630   12.6292 H   0  0  0  0  0  0  0  0  0  0  0  0
    1.6069   -2.2196   13.3192 H   0  0  0  0  0  0  0  0  0  0  0  0
    2.2046    0.1622   11.8487 H   0  0  0  0  0  0  0  0  0  0  0  0
    5.3517   -0.1411   13.3799 H   0  0  0  0  0  0  0  0  0  0  0  0
    4.1520    1.0404   12.8676 H   0  0  0  0  0  0  0  0  0  0  0  0
    4.9987    0.0595   11.6696 H   0  0  0  0  0  0  0  0  0  0  0  0
    3.5160   -4.4554   10.6180 H   0  0  0  0  0  0  0  0  0  0  0  0
    3.2801   -3.3905   11.9604 H   0  0  0  0  0  0  0  0  0  0  0  0
    4.6490   -3.1424   10.9770 H   0  0  0  0  0  0  0  0  0  0  0  0
    3.4027   -3.6464    8.4821 H   0  0  0  0  0  0  0  0  0  0  0  0
    4.8928   -0.4024    8.9598 H   0  0  0  0  0  0  0  0  0  0  0  0
    6.8387   -2.1595    9.8167 H   0  0  0  0  0  0  0  0  0  0  0  0
    7.0613    0.4346    8.3424 H   0  0  0  0  0  0  0  0  0  0  0  0
    7.6345   -1.1158    7.8330 H   0  0  0  0  0  0  0  0  0  0  0  0
    4.5836   -1.2067    4.8399 H   0  0  0  0  0  0  0  0  0  0  0  0
    2.8572    1.8002    7.3248 H   0  0  0  0  0  0  0  0  0  0  0  0
    4.4656    1.3053    7.5960 H   0  0  0  0  0  0  0  0  0  0  0  0
    3.1216    0.4287    8.3280 H   0  0  0  0  0  0  0  0  0  0  0  0
    3.7897    1.7446    4.9992 H   0  0  0  0  0  0  0  0  0  0  0  0
    2.6506   -0.2597    3.4616 H   0  0  0  0  0  0  0  0  0  0  0  0
    1.6217    2.3199    5.6134 H   0  0  0  0  0  0  0  0  0  0  0  0
    1.5487    2.0669    3.9089 H   0  0  0  0  0  0  0  0  0  0  0  0
   -0.4455   -1.1209    3.9654 H   0  0  0  0  0  0  0  0  0  0  0  0
    1.2269   -0.9477    3.5760 H   0  0  0  0  0  0  0  0  0  0  0  0
    0.0805    0.2096    2.9461 H   0  0  0  0  0  0  0  0  0  0  0  0
   -0.9407    2.0312    4.3407 H   0  0  0  0  0  0  0  0  0  0  0  0
   -2.2811    0.4616    4.2486 H   0  0  0  0  0  0  0  0  0  0  0  0
   -0.2290    2.9817    6.4063 H   0  0  0  0  0  0  0  0  0  0  0  0
   -2.5415    3.4140    5.6933 H   0  0  0  0  0  0  0  0  0  0  0  0
   -3.1421    2.2260    6.8417 H   0  0  0  0  0  0  0  0  0  0  0  0
   -0.8591    4.9656    9.5628 H   0  0  0  0  0  0  0  0  0  0  0  0
   -2.0259    4.6136   10.8559 H   0  0  0  0  0  0  0  0  0  0  0  0
   -2.4558    5.6915    9.5273 H   0  0  0  0  0  0  0  0  0  0  0  0
   -4.3654    2.5791    8.6744 H   0  0  0  0  0  0  0  0  0  0  0  0
   -4.5002    4.3605    8.8941 H   0  0  0  0  0  0  0  0  0  0  0  0
   -4.1491    3.2912   10.2703 H   0  0  0  0  0  0  0  0  0  0  0  0
    0.0922    3.0157    8.8974 H   0  0  0  0  0  0  0  0  0  0  0  0
   -0.1065    1.5152    9.7646 H   0  0  0  0  0  0  0  0  0  0  0  0
   -1.3662    0.5459    7.8137 H   0  0  0  0  0  0  0  0  0  0  0  0
   -0.0688   -0.9413    6.5044 H   0  0  0  0  0  0  0  0  0  0  0  0
    2.0540   -1.4696    5.4362 H   0  0  0  0  0  0  0  0  0  0  0  0
    6.8742   -3.3498    8.1733 H   0  0  0  0  0  0  0  0  0  0  0  0
    4.8389   -4.9094    9.2962 H   0  0  0  0  0  0  0  0  0  0  0  0
  1  2  2  0
  1 62  1  0
  1 63  1  0
  2 60  1  0
  2  3  1  0
  3  4  1  0
  3 64  1  0
  3 65  1  0
 32  4  1  6
  4 38  1  0
  4  5  1  1
  6  5  1  6
  6 31  1  0
  6 59  1  0
  6  7  1  0
  7  8  1  0
  7 12  1  0
  7 66  1  6
  8  9  1  0
  9 10  1  0
  9 11  2  0
 10 67  1  0
 10 68  1  0
 10 69  1  0
 12 13  1  0
 12 17  1  0
 12 70  1  6
 13 14  1  0
 14 15  1  0
 14 16  2  0
 15 71  1  0
 15 72  1  0
 15 73  1  0
 17 29  1  0
 17 18  1  6
 17 19  1  0
 18 74  1  0
 18 75  1  0
 18 76  1  0
 19 20  1  0
 19 24  1  0
 19 77  1  6
 20 21  1  0
 21 22  1  0
 21 23  2  0
 22 78  1  0
 22 79  1  0
 22 80  1  0
 24 25  1  0
 24 81  1  0
 24 82  1  0
 25 26  1  0
 25 28  1  0
 25 83  1  6
 26 27  1  0
 27 84  1  0
 27 85  1  0
 27 86  1  0
 28 29  1  0
 29 30  1  1
 29 31  1  0
 30 87  1  0
 30 88  1  0
 30 89  1  0
 31 32  1  0
 31 90  1  6
 32 33  1  0
 32 60  1  0
 33 34  1  0
 33 35  1  0
 33 91  1  1
 34 92  1  0
 36 35  1  1
 35 93  1  0
 35 94  1  0
 36 37  2  0
 36 38  1  0
 38 39  1  0
 38 95  1  6
 39 59  1  0
 39 40  1  1
 39 41  1  0
 40 96  1  0
 40 97  1  0
 40 98  1  0
 41 42  1  0
 41 43  1  0
 41 99  1  1
 42100  1  0
 43 44  1  0
 43101  1  0
 43102  1  0
 44 58  1  0
 44 45  1  6
 44 46  1  0
 45103  1  0
 45104  1  0
 45105  1  0
 46 47  1  0
 46 48  1  0
 46106  1  6
 47107  1  0
 48 56  1  0
 48 49  1  0
 48108  1  6
 49 50  1  0
 49109  1  0
 49110  1  0
 50 51  1  0
 51 52  1  0
 51 53  1  0
 51 54  1  0
 52111  1  0
 52112  1  0
 52113  1  0
 53114  1  0
 53115  1  0
 53116  1  0
 54 55  1  0
 55 56  1  0
 55117  1  0
 55118  1  0
 56 57  1  0
 56119  1  1
 57 58  1  0
 58 59  1  0
 58120  1  1
 59121  1  6
 60 61  1  0
 60122  1  6
 61123  1  0
M  END
>  <i_m_ct_stereo_status>  (82) 
1

>  <s_m_source_file>  (82) 
/var/tmp/pbs.5075288.sched01/tmphpu8_cit/24996nucuhu.sdf

>  <i_m_source_file_index>  (82) 
47

>  <i_lp_mmshare_version>  (82) 
48012

>  <i_f3d_flags>  (82) 
0

>  <s_epik_input>  (82) 
W0NIM11DKD1PKU9bQ0BIXTFbQ0gyXVtDQEBIXShPW0NIM10pT1tDQEBdMihbQ0gzXSlbQ0BAXTEoW0NIM10pW0NASF0oT0MoPU8pW0NIM10pW0NASF0oT0MoPU8pW0NIM10pW0NAXShPMykoW0NASF0yW0NAXTQoW0NAXTM1NilbQ0BASF0oW09IXSlDKD1bQ0gyXSlbQ0gyXTUpW0NAQEhdN1tDQEBdKFtDSDNdKShbQ0hdNltTK10oW08tXSlbQ0gyXVtDSF00W09IXSlbQ0BASF0oW09IXSlbQ0gyXVtDQEBdOChbQ0gzXSlbQ0BASF03T1tDQEBIXTlbQ0BASF0oW0NAQEhdOFtPSF0pW0NIMl1PQyhbQ0gzXSkoW0NIM10pT1tDSDJdOQ==

>  <s_epik_cmdline>  (82) 
J2VwaWtfcHl0aG9uJywgJy1waHQnLCAnMi4wJywgJy1waCcsICc3LjAnLCAnLXRuJywgJzgnLCAnLW1hJywgJzIwMCcsICctaW1hZScsICc8aW5maWxlLm1hZT4nLCAnLW9tYWUnLCAnPG91dGZpbGUubWFlPic=

>  <r_lp_tautomer_probability>  (82) 
1

>  <r_epik_Ionization_Penalty>  (82) 
4.51478e-07

>  <r_epik_Ionization_Penalty_Charging>  (82) 
0

>  <r_epik_Ionization_Penalty_Neutral>  (82) 
4.51478e-07

>  <r_epik_State_Penalty>  (82) 
-0

>  <r_epik_Charging_Adjusted_Penalty>  (82) 
0

>  <i_epik_Tot_Q>  (82) 
0

>  <i_epik_Tot_abs_Q>  (82) 
2

>  <s_epik_Chemistry_Notes>  (82) 
This compound has an ester and may undergo hydrolysis at high or low pH. This compound contains an acetal/aminal-like group ( X-CH(R)-Y where X, Y are N, S, or O) that may be acid/base labile, releasing an aldehyde.

>  <s_lp_Force_Field>  (82) 
OPLS3e

>  <r_lp_Energy>  (82) 
128.966

>  <b_lp_Chiralities_Consistent>  (82) 
1

>  <s_lp_Variant>  (82) 
89:0-1

>  <s_i_glide_gridfile>  (82) 
pfpi4k_grid

>  <i_i_glide_lignum>  (82) 
47

>  <i_i_glide_rotatable_bonds>  (82) 
11

>  <r_i_docking_score>  (82) 
-2.37842

>  <r_i_glide_ligand_efficiency>  (82) 
-0.0389905

>  <r_i_glide_ligand_efficiency_sa>  (82) 
-0.153486

>  <r_i_glide_ligand_efficiency_ln>  (82) 
-0.465364

>  <r_i_glide_gscore>  (82) 
-2.37842

>  <r_i_glide_lipo>  (82) 
-0.303077

>  <r_i_glide_hbond>  (82) 
-0.260214

>  <r_i_glide_metal>  (82) 
-0

>  <r_i_glide_rewards>  (82) 
-0.0956442

>  <r_i_glide_evdw>  (82) 
-28.2497

>  <r_i_glide_ecoul>  (82) 
-2.50771

>  <r_i_glide_erotb>  (82) 
0.084677

>  <r_i_glide_esite>  (82) 
-0.0155198

>  <r_i_glide_emodel>  (82) 
-33.9549

>  <r_i_glide_energy>  (82) 
-30.7574

>  <r_i_glide_einternal>  (82) 
2.06802

>  <r_i_glide_intrahb_reward>  (82) 
-0

>  <i_i_glide_confnum>  (82) 
5

>  <i_i_glide_posenum>  (82) 
33

>  <r_i_glide_eff_state_penalty>  (82) 
0

>  <ligand_id>  (82) 
89

>  <original_smiles>  (82) 
C=C1CC23OC45C(OC(C)=O)C(OC(C)=O)C6(C)C(OC(C)=O)CC(OC)OC6(C)C4C2(C(O)C[S+]([O-])C3C2(C)C(O)CC3(C)C(O)C4COC(C)(C)OCC4OC3C25)C1O

>  <smiles>  (82) 
[H]OC1([H])C(=C([H])[H])C([H])([H])C23OC45C([H])(OC(=O)C([H])([H])[H])C([H])(OC(=O)C([H])([H])[H])C6(C([H])([H])[H])C([H])(OC(=O)C([H])([H])[H])C([H])([H])C([H])(OC([H])([H])[H])OC6(C([H])([H])[H])C4([H])C12C([H])(O[H])C([H])([H])S(=O)C3([H])C1(C([H])([H])[H])C([H])(O[H])C([H])([H])C2(C([H])([H])[H])C([H])(O[H])C3([H])C([H])([H])OC(C([H])([H])[H])(C([H])([H])[H])OC([H])([H])C3([H])OC2([H])C51[H]

$$$$
89:0:2
     RDKit          3D

123131  0  0  1  0  0  0  0  0999 V2000
    6.2123   -6.6368    7.8806 C   0  0  0  0  0  0  0  0  0  0  0  0
    6.3915   -5.3258    8.0594 C   0  0  0  0  0  0  0  0  0  0  0  0
    6.6323   -4.3187    6.9906 C   0  0  0  0  0  0  0  0  0  0  0  0
    5.5947   -3.2435    7.3534 C   0  0  1  0  0  0  0  0  0  0  0  0
    4.3792   -3.8007    6.8436 O   0  0  0  0  0  0  0  0  0  0  0  0
    3.2748   -3.1140    7.4146 C   0  0  1  0  0  0  0  0  0  0  0  0
    1.9840   -4.0079    7.2762 C   0  0  1  0  0  0  0  0  0  0  0  0
    2.2703   -5.2200    6.5667 O   0  0  0  0  0  0  0  0  0  0  0  0
    1.3846   -5.7484    5.7003 C   0  0  0  0  0  0  0  0  0  0  0  0
    1.8686   -7.0690    5.1138 C   0  0  0  0  0  0  0  0  0  0  0  0
    0.2911   -5.2681    5.4010 O   0  0  0  0  0  0  0  0  0  0  0  0
    1.2235   -4.3117    8.6249 C   0  0  1  0  0  0  0  0  0  0  0  0
    1.6499   -5.5637    9.1709 O   0  0  0  0  0  0  0  0  0  0  0  0
    0.9030   -6.6747    9.0696 C   0  0  0  0  0  0  0  0  0  0  0  0
    1.5271   -7.8828    9.7419 C   0  0  0  0  0  0  0  0  0  0  0  0
   -0.1917   -6.7576    8.4999 O   0  0  0  0  0  0  0  0  0  0  0  0
    1.3958   -3.1498    9.6667 C   0  0  1  0  0  0  0  0  0  0  0  0
    0.8853   -1.8731    8.9636 C   0  0  0  0  0  0  0  0  0  0  0  0
    0.4780   -3.1875   10.9088 C   0  0  1  0  0  0  0  0  0  0  0  0
    0.4225   -4.4479   11.5586 O   0  0  0  0  0  0  0  0  0  0  0  0
   -0.6964   -4.9514   12.1271 C   0  0  0  0  0  0  0  0  0  0  0  0
   -1.9441   -4.0659   12.0795 C   0  0  0  0  0  0  0  0  0  0  0  0
   -0.7357   -6.0537   12.6414 O   0  0  0  0  0  0  0  0  0  0  0  0
    0.8357   -2.0656   11.9358 C   0  0  0  0  0  0  0  0  0  0  0  0
    2.1964   -1.2933   11.7421 C   0  0  1  0  0  0  0  0  0  0  0  0
    2.9181   -1.3822   12.9285 O   0  0  0  0  0  0  0  0  0  0  0  0
    4.0351   -0.5098   13.0011 C   0  0  0  0  0  0  0  0  0  0  0  0
    2.9823   -1.6664   10.6181 O   0  0  0  0  0  0  0  0  0  0  0  0
    2.8984   -3.0052   10.1268 C   0  0  1  0  0  0  0  0  0  0  0  0
    3.3130   -3.9437   11.3061 C   0  0  0  0  0  0  0  0  0  0  0  0
    3.8429   -3.2805    8.8836 C   0  0  2  0  0  0  0  0  0  0  0  0
    5.4118   -3.2132    8.8956 C   0  0  2  0  0  0  0  0  0  0  0  0
    6.0155   -1.9626    9.6214 C   0  0  1  0  0  0  0  0  0  0  0  0
    6.2371   -2.2056   10.9871 O   0  0  0  0  0  0  0  0  0  0  0  0
    7.3629   -1.4106    9.1115 C   0  0  0  0  0  0  0  0  0  0  0  0
    7.4128   -1.1302    7.2716 S   0  0  0  0  0  0  0  0  0  0  0  0
    7.4236    0.3674    6.9729 O   0  0  0  0  0  0  0  0  0  0  0  0
    5.8389   -1.9108    6.6370 C   0  0  2  0  0  0  0  0  0  0  0  0
    4.6107   -0.9273    6.4948 C   0  0  1  0  0  0  0  0  0  0  0  0
    4.4462    0.0943    7.6559 C   0  0  0  0  0  0  0  0  0  0  0  0
    4.7699   -0.0649    5.1702 C   0  0  1  0  0  0  0  0  0  0  0  0
    5.3471   -0.7192    4.0658 O   0  0  0  0  0  0  0  0  0  0  0  0
    3.4779    0.6106    4.6562 C   0  0  0  0  0  0  0  0  0  0  0  0
    2.2241   -0.3018    4.5832 C   0  0  2  0  0  0  0  0  0  0  0  0
    2.3653   -1.3183    3.4130 C   0  0  0  0  0  0  0  0  0  0  0  0
    0.9584    0.5654    4.2589 C   0  0  1  0  0  0  0  0  0  0  0  0
   -0.1478   -0.2558    3.9482 O   0  0  0  0  0  0  0  0  0  0  0  0
    0.5457    1.4983    5.4097 C   0  0  1  0  0  0  0  0  0  0  0  0
   -0.7431    2.2974    5.1292 C   0  0  0  0  0  0  0  0  0  0  0  0
   -0.8510    3.3728    6.0471 O   0  0  0  0  0  0  0  0  0  0  0  0
   -1.4813    3.1621    7.2830 C   0  0  0  0  0  0  0  0  0  0  0  0
   -1.1158    4.3793    8.1516 C   0  0  0  0  0  0  0  0  0  0  0  0
   -2.9976    3.0872    7.0780 C   0  0  0  0  0  0  0  0  0  0  0  0
   -1.1240    1.9836    7.9435 O   0  0  0  0  0  0  0  0  0  0  0  0
    0.2405    1.6098    7.9311 C   0  0  0  0  0  0  0  0  0  0  0  0
    0.4828    0.7013    6.7179 C   0  0  2  0  0  0  0  0  0  0  0  0
    1.7215    0.0297    6.9145 O   0  0  0  0  0  0  0  0  0  0  0  0
    2.0435   -0.9971    5.9775 C   0  0  2  0  0  0  0  0  0  0  0  0
    3.3244   -1.8209    6.4226 C   0  0  2  0  0  0  0  0  0  0  0  0
    6.1957   -4.5292    9.3212 C   0  0  1  0  0  0  0  0  0  0  0  0
    5.7302   -5.3239   10.3850 O   0  0  0  0  0  0  0  0  0  0  0  0
    5.9437   -7.2872    8.6973 H   0  0  0  0  0  0  0  0  0  0  0  0
    6.3011   -7.0671    6.8950 H   0  0  0  0  0  0  0  0  0  0  0  0
    7.6552   -3.9619    7.1219 H   0  0  0  0  0  0  0  0  0  0  0  0
    6.5354   -4.7323    5.9829 H   0  0  0  0  0  0  0  0  0  0  0  0
    1.2853   -3.4536    6.6613 H   0  0  0  0  0  0  0  0  0  0  0  0
    2.8007   -6.9211    4.5688 H   0  0  0  0  0  0  0  0  0  0  0  0
    1.1304   -7.4942    4.4342 H   0  0  0  0  0  0  0  0  0  0  0  0
    2.0488   -7.7887    5.9123 H   0  0  0  0  0  0  0  0  0  0  0  0
    0.1566   -4.3690    8.3980 H   0  0  0  0  0  0  0  0  0  0  0  0
    2.5147   -8.0822    9.3243 H   0  0  0  0  0  0  0  0  0  0  0  0
    0.9110   -8.7721    9.6004 H   0  0  0  0  0  0  0  0  0  0  0  0
    1.6262   -7.6983   10.8120 H   0  0  0  0  0  0  0  0  0  0  0  0
    0.2517   -1.2368    9.5821 H   0  0  0  0  0  0  0  0  0  0  0  0
    0.2965   -2.0769    8.0731 H   0  0  0  0  0  0  0  0  0  0  0  0
    1.7232   -1.2465    8.7171 H   0  0  0  0  0  0  0  0  0  0  0  0
   -0.5373   -3.0097   10.5263 H   0  0  0  0  0  0  0  0  0  0  0  0
   -1.7973   -3.1744   12.6857 H   0  0  0  0  0  0  0  0  0  0  0  0
   -2.8223   -4.5860   12.4816 H   0  0  0  0  0  0  0  0  0  0  0  0
   -2.1310   -3.7451   11.0535 H   0  0  0  0  0  0  0  0  0  0  0  0
    0.0423   -1.3284   11.9140 H   0  0  0  0  0  0  0  0  0  0  0  0
    0.8220   -2.4664   12.9512 H   0  0  0  0  0  0  0  0  0  0  0  0
    1.9658   -0.2381   11.5942 H   0  0  0  0  0  0  0  0  0  0  0  0
    4.5772   -0.6897   13.9297 H   0  0  0  0  0  0  0  0  0  0  0  0
    3.7613    0.5469   12.9556 H   0  0  0  0  0  0  0  0  0  0  0  0
    4.7188   -0.7019   12.1806 H   0  0  0  0  0  0  0  0  0  0  0  0
    3.2437   -4.9993   11.0528 H   0  0  0  0  0  0  0  0  0  0  0  0
    2.7195   -3.8324   12.2049 H   0  0  0  0  0  0  0  0  0  0  0  0
    4.3226   -3.7258   11.6472 H   0  0  0  0  0  0  0  0  0  0  0  0
    3.7853   -4.3689    8.9268 H   0  0  0  0  0  0  0  0  0  0  0  0
    5.2890   -1.1673    9.6205 H   0  0  0  0  0  0  0  0  0  0  0  0
    6.8659   -2.9370   11.0721 H   0  0  0  0  0  0  0  0  0  0  0  0
    7.5905   -0.4637    9.6100 H   0  0  0  0  0  0  0  0  0  0  0  0
    8.1846   -2.0811    9.3746 H   0  0  0  0  0  0  0  0  0  0  0  0
    6.0935   -2.2546    5.6392 H   0  0  0  0  0  0  0  0  0  0  0  0
    3.9434    1.0026    7.3367 H   0  0  0  0  0  0  0  0  0  0  0  0
    5.3733    0.4576    8.0838 H   0  0  0  0  0  0  0  0  0  0  0  0
    3.8242   -0.2981    8.4553 H   0  0  0  0  0  0  0  0  0  0  0  0
    5.4825    0.7309    5.3891 H   0  0  0  0  0  0  0  0  0  0  0  0
    4.7040   -1.3451    3.7184 H   0  0  0  0  0  0  0  0  0  0  0  0
    3.2771    1.4444    5.3171 H   0  0  0  0  0  0  0  0  0  0  0  0
    3.6656    1.0712    3.6823 H   0  0  0  0  0  0  0  0  0  0  0  0
    1.5295   -2.0157    3.3656 H   0  0  0  0  0  0  0  0  0  0  0  0
    3.2536   -1.9385    3.4552 H   0  0  0  0  0  0  0  0  0  0  0  0
    2.4054   -0.7922    2.4578 H   0  0  0  0  0  0  0  0  0  0  0  0
    1.1716    1.1785    3.3795 H   0  0  0  0  0  0  0  0  0  0  0  0
   -0.7585    0.2759    3.4348 H   0  0  0  0  0  0  0  0  0  0  0  0
    1.3199    2.2521    5.5091 H   0  0  0  0  0  0  0  0  0  0  0  0
   -0.6532    2.7443    4.1355 H   0  0  0  0  0  0  0  0  0  0  0  0
   -1.6379    1.6726    5.1286 H   0  0  0  0  0  0  0  0  0  0  0  0
   -0.0362    4.4928    8.2268 H   0  0  0  0  0  0  0  0  0  0  0  0
   -1.5401    4.2990    9.1551 H   0  0  0  0  0  0  0  0  0  0  0  0
   -1.4981    5.2903    7.6893 H   0  0  0  0  0  0  0  0  0  0  0  0
   -3.2730    2.1783    6.5489 H   0  0  0  0  0  0  0  0  0  0  0  0
   -3.3435    3.9401    6.5004 H   0  0  0  0  0  0  0  0  0  0  0  0
   -3.5078    3.0753    8.0467 H   0  0  0  0  0  0  0  0  0  0  0  0
    0.9282    2.4560    7.9737 H   0  0  0  0  0  0  0  0  0  0  0  0
    0.4069    1.0384    8.8422 H   0  0  0  0  0  0  0  0  0  0  0  0
   -0.3172   -0.0425    6.6739 H   0  0  0  0  0  0  0  0  0  0  0  0
    1.1852   -1.6504    5.8822 H   0  0  0  0  0  0  0  0  0  0  0  0
    3.4835   -2.3699    5.4959 H   0  0  0  0  0  0  0  0  0  0  0  0
    7.2117   -4.2482    9.6042 H   0  0  0  0  0  0  0  0  0  0  0  0
    4.8700   -5.6827   10.1558 H   0  0  0  0  0  0  0  0  0  0  0  0
  1  2  2  0
  1 62  1  0
  1 63  1  0
  2 60  1  0
  2  3  1  0
  3  4  1  0
  3 64  1  0
  3 65  1  0
 32  4  1  6
  4 38  1  0
  4  5  1  6
  6  5  1  6
  6 31  1  0
  6 59  1  0
  6  7  1  0
  7  8  1  0
  7 12  1  0
  7 66  1  6
  8  9  1  0
  9 10  1  0
  9 11  2  0
 10 67  1  0
 10 68  1  0
 10 69  1  0
 12 13  1  0
 12 17  1  0
 12 70  1  6
 13 14  1  0
 14 15  1  0
 14 16  2  0
 15 71  1  0
 15 72  1  0
 15 73  1  0
 17 29  1  0
 17 18  1  6
 17 19  1  0
 18 74  1  0
 18 75  1  0
 18 76  1  0
 19 20  1  0
 19 24  1  0
 19 77  1  6
 20 21  1  0
 21 22  1  0
 21 23  2  0
 22 78  1  0
 22 79  1  0
 22 80  1  0
 24 25  1  0
 24 81  1  0
 24 82  1  0
 25 26  1  0
 25 28  1  0
 25 83  1  6
 26 27  1  0
 27 84  1  0
 27 85  1  0
 27 86  1  0
 28 29  1  0
 29 30  1  1
 29 31  1  0
 30 87  1  0
 30 88  1  0
 30 89  1  0
 31 32  1  0
 31 90  1  6
 32 33  1  0
 32 60  1  0
 33 34  1  0
 33 35  1  0
 33 91  1  1
 34 92  1  0
 36 35  1  1
 35 93  1  0
 35 94  1  0
 36 37  2  0
 36 38  1  0
 38 39  1  0
 38 95  1  6
 39 59  1  0
 39 40  1  1
 39 41  1  0
 40 96  1  0
 40 97  1  0
 40 98  1  0
 41 42  1  0
 41 43  1  0
 41 99  1  1
 42100  1  0
 43 44  1  0
 43101  1  0
 43102  1  0
 44 58  1  0
 44 45  1  6
 44 46  1  0
 45103  1  0
 45104  1  0
 45105  1  0
 46 47  1  0
 46 48  1  0
 46106  1  6
 47107  1  0
 48 56  1  0
 48 49  1  0
 48108  1  1
 49 50  1  0
 49109  1  0
 49110  1  0
 50 51  1  0
 51 52  1  0
 51 53  1  0
 51 54  1  0
 52111  1  0
 52112  1  0
 52113  1  0
 53114  1  0
 53115  1  0
 53116  1  0
 54 55  1  0
 55 56  1  0
 55117  1  0
 55118  1  0
 56 57  1  0
 56119  1  6
 57 58  1  0
 58 59  1  0
 58120  1  6
 59121  1  6
 60 61  1  0
 60122  1  1
 61123  1  0
M  END
>  <i_m_ct_stereo_status>  (83) 
1

>  <s_m_source_file>  (83) 
/var/tmp/pbs.5075288.sched01/tmphpu8_cit/24996nucuhu.sdf

>  <i_m_source_file_index>  (83) 
47

>  <i_lp_mmshare_version>  (83) 
48012

>  <i_f3d_flags>  (83) 
0

>  <s_epik_input>  (83) 
W0NIM11DKD1PKU9bQ0BIXTFbQ0gyXVtDQEBIXShPW0NIM10pT1tDQEBdMihbQ0gzXSlbQ0BAXTEoW0NIM10pW0NASF0oT0MoPU8pW0NIM10pW0NASF0oT0MoPU8pW0NIM10pW0NAXShPMykoW0NASF0yW0NAXTQoW0NAXTM1NilbQ0BASF0oW09IXSlDKD1bQ0gyXSlbQ0gyXTUpW0NAQEhdN1tDQEBdKFtDSDNdKShbQ0hdNltTK10oW08tXSlbQ0gyXVtDSF00W09IXSlbQ0BASF0oW09IXSlbQ0gyXVtDQEBdOChbQ0gzXSlbQ0BASF03T1tDQEBIXTlbQ0BASF0oW0NAQEhdOFtPSF0pW0NIMl1PQyhbQ0gzXSkoW0NIM10pT1tDSDJdOQ==

>  <s_epik_cmdline>  (83) 
J2VwaWtfcHl0aG9uJywgJy1waHQnLCAnMi4wJywgJy1waCcsICc3LjAnLCAnLXRuJywgJzgnLCAnLW1hJywgJzIwMCcsICctaW1hZScsICc8aW5maWxlLm1hZT4nLCAnLW9tYWUnLCAnPG91dGZpbGUubWFlPic=

>  <r_lp_tautomer_probability>  (83) 
1

>  <r_epik_Ionization_Penalty>  (83) 
4.51478e-07

>  <r_epik_Ionization_Penalty_Charging>  (83) 
0

>  <r_epik_Ionization_Penalty_Neutral>  (83) 
4.51478e-07

>  <r_epik_State_Penalty>  (83) 
-0

>  <r_epik_Charging_Adjusted_Penalty>  (83) 
0

>  <i_epik_Tot_Q>  (83) 
0

>  <i_epik_Tot_abs_Q>  (83) 
2

>  <s_epik_Chemistry_Notes>  (83) 
This compound has an ester and may undergo hydrolysis at high or low pH. This compound contains an acetal/aminal-like group ( X-CH(R)-Y where X, Y are N, S, or O) that may be acid/base labile, releasing an aldehyde.

>  <s_lp_Force_Field>  (83) 
OPLS3e

>  <r_lp_Energy>  (83) 
128.966

>  <b_lp_Chiralities_Consistent>  (83) 
1

>  <s_lp_Variant>  (83) 
89:0-1

>  <s_i_glide_gridfile>  (83) 
pfpi4k_grid

>  <i_i_glide_lignum>  (83) 
47

>  <i_i_glide_rotatable_bonds>  (83) 
11

>  <r_i_docking_score>  (83) 
-2.11445

>  <r_i_glide_ligand_efficiency>  (83) 
-0.034663

>  <r_i_glide_ligand_efficiency_sa>  (83) 
-0.136451

>  <r_i_glide_ligand_efficiency_ln>  (83) 
-0.413715

>  <r_i_glide_gscore>  (83) 
-2.11445

>  <r_i_glide_lipo>  (83) 
-0.24053

>  <r_i_glide_hbond>  (83) 
-0.217625

>  <r_i_glide_metal>  (83) 
-0

>  <r_i_glide_rewards>  (83) 
-0.152691

>  <r_i_glide_evdw>  (83) 
-24.7646

>  <r_i_glide_ecoul>  (83) 
-2.22958

>  <r_i_glide_erotb>  (83) 
0.084677

>  <r_i_glide_esite>  (83) 
-0.0156096

>  <r_i_glide_emodel>  (83) 
-27.5456

>  <r_i_glide_energy>  (83) 
-26.9942

>  <r_i_glide_einternal>  (83) 
6.05179

>  <r_i_glide_intrahb_reward>  (83) 
-0

>  <i_i_glide_confnum>  (83) 
1

>  <i_i_glide_posenum>  (83) 
19

>  <r_i_glide_eff_state_penalty>  (83) 
0

>  <ligand_id>  (83) 
89

>  <original_smiles>  (83) 
C=C1CC23OC45C(OC(C)=O)C(OC(C)=O)C6(C)C(OC(C)=O)CC(OC)OC6(C)C4C2(C(O)C[S+]([O-])C3C2(C)C(O)CC3(C)C(O)C4COC(C)(C)OCC4OC3C25)C1O

>  <smiles>  (83) 
[H]OC1([H])C(=C([H])[H])C([H])([H])C23OC45C([H])(OC(=O)C([H])([H])[H])C([H])(OC(=O)C([H])([H])[H])C6(C([H])([H])[H])C([H])(OC(=O)C([H])([H])[H])C([H])([H])C([H])(OC([H])([H])[H])OC6(C([H])([H])[H])C4([H])C12C([H])(O[H])C([H])([H])S(=O)C3([H])C1(C([H])([H])[H])C([H])(O[H])C([H])([H])C2(C([H])([H])[H])C([H])(O[H])C3([H])C([H])([H])OC(C([H])([H])[H])(C([H])([H])[H])OC([H])([H])C3([H])OC2([H])C51[H]

$$$$
92:0:0
     RDKit          3D

 82 88  0  0  1  0  0  0  0  0999 V2000
    3.7139   -7.2853    8.4397 C   0  0  0  0  0  0  0  0  0  0  0  0
    3.1548   -6.3498    7.5201 O   0  0  0  0  0  0  0  0  0  0  0  0
    2.6458   -6.8694    6.2945 C   0  0  2  0  0  0  0  0  0  0  0  0
    3.9711   -7.2834    5.4186 C   0  0  0  0  0  0  0  0  0  0  0  0
    4.2970   -7.0097    3.8496 C   0  0  2  0  0  0  0  0  0  0  0  0
    5.6511   -7.7670    3.7060 C   0  0  0  0  0  0  0  0  0  0  0  0
    4.6302   -5.4889    3.1997 C   0  0  1  0  0  0  0  0  0  0  0  0
    4.1865   -5.6193    1.7329 C   0  0  0  0  0  0  0  0  0  0  0  0
    3.7084   -7.0648    1.4951 C   0  0  0  0  0  0  0  0  0  0  0  0
    3.3082   -7.7592    2.8439 C   0  0  2  0  0  0  0  0  0  0  0  0
    1.7305   -8.0942    3.0380 C   0  0  2  0  0  0  0  0  0  0  0  0
    1.2489   -8.8195    1.7503 C   0  0  0  0  0  0  0  0  0  0  0  0
    0.6471   -6.6108    3.0157 S   0  0  0  0  0  0  0  0  0  0  0  0
    0.8484   -5.8610    1.6847 O   0  0  0  0  0  0  0  0  0  0  0  0
    1.3334   -5.5846    4.3859 C   0  0  2  0  0  0  0  0  0  0  0  0
    2.6288   -5.2236    4.2797 O   0  0  0  0  0  0  0  0  0  0  0  0
    3.6161   -4.5440    5.1060 C   0  0  2  0  0  0  0  0  0  0  0  0
    3.2516   -3.5428    5.9615 O   0  0  0  0  0  0  0  0  0  0  0  0
    1.9786   -3.2401    5.7060 C   0  0  1  0  0  0  0  0  0  0  0  0
    1.8663   -2.9485    4.2800 O   0  0  0  0  0  0  0  0  0  0  0  0
    3.1173   -2.9285    3.4827 C   0  0  1  0  0  0  0  0  0  0  0  0
    3.6597   -1.6500    3.6310 O   0  0  0  0  0  0  0  0  0  0  0  0
    3.0668   -0.5504    3.0290 C   0  0  0  0  0  0  0  0  0  0  0  0
    3.6822   -0.3566    1.3222 Cl  0  0  0  0  0  0  0  0  0  0  0  0
    1.2246   -0.5921    2.9599 Cl  0  0  0  0  0  0  0  0  0  0  0  0
    3.5344    0.6467    3.9176 C   0  0  0  0  0  0  0  0  0  0  0  0
    3.4473    0.3081    5.2080 F   0  0  0  0  0  0  0  0  0  0  0  0
    4.8267    0.8859    3.6753 F   0  0  0  0  0  0  0  0  0  0  0  0
    2.7446    1.9715    3.7709 C   0  0  0  0  0  0  0  0  0  0  0  0
    2.6050    2.3203    2.4959 F   0  0  0  0  0  0  0  0  0  0  0  0
    1.5320    1.8702    4.3140 F   0  0  0  0  0  0  0  0  0  0  0  0
    3.3831    2.9387    4.4264 F   0  0  0  0  0  0  0  0  0  0  0  0
    4.2570   -4.0342    3.9497 C   0  0  2  0  0  0  0  0  0  0  0  0
    1.0784   -4.4526    6.4007 C   0  0  0  0  0  0  0  0  0  0  0  0
    1.3141   -4.3471    7.9281 C   0  0  0  0  0  0  0  0  0  0  0  0
   -0.3982   -3.9739    6.2956 C   0  0  0  0  0  0  0  0  0  0  0  0
    1.3356   -5.9932    5.8056 C   0  0  2  0  0  0  0  0  0  0  0  0
    0.1215   -6.9561    5.9446 C   0  0  0  0  0  0  0  0  0  0  0  0
    0.0930   -8.4118    5.2952 C   0  0  1  0  0  0  0  0  0  0  0  0
   -1.2026   -8.5953    4.7446 O   0  0  0  0  0  0  0  0  0  0  0  0
    1.2386   -8.9872    4.3073 C   0  0  0  0  0  0  0  0  0  0  0  0
    0.6960  -10.1862    3.8368 O   0  0  0  0  0  0  0  0  0  0  0  0
    1.2332  -11.2729    4.5733 C   0  0  0  0  0  0  0  0  0  0  0  0
    2.1527  -10.6222    5.5972 C   0  0  0  0  0  0  0  0  0  0  0  0
    2.3813   -9.3911    4.9738 O   0  0  0  0  0  0  0  0  0  0  0  0
    4.0634   -6.7488    9.3196 H   0  0  0  0  0  0  0  0  0  0  0  0
    4.5696   -7.8123    8.0218 H   0  0  0  0  0  0  0  0  0  0  0  0
    2.9842   -8.0234    8.7741 H   0  0  0  0  0  0  0  0  0  0  0  0
    2.2280   -7.8071    6.6518 H   0  0  0  0  0  0  0  0  0  0  0  0
    4.8455   -6.9140    5.9566 H   0  0  0  0  0  0  0  0  0  0  0  0
    4.1908   -8.3255    5.6442 H   0  0  0  0  0  0  0  0  0  0  0  0
    6.0536   -7.7385    2.6913 H   0  0  0  0  0  0  0  0  0  0  0  0
    5.5620   -8.8231    3.9694 H   0  0  0  0  0  0  0  0  0  0  0  0
    6.4195   -7.3463    4.3582 H   0  0  0  0  0  0  0  0  0  0  0  0
    5.7144   -5.4438    3.1584 H   0  0  0  0  0  0  0  0  0  0  0  0
    3.3624   -4.9452    1.5050 H   0  0  0  0  0  0  0  0  0  0  0  0
    5.0040   -5.3602    1.0524 H   0  0  0  0  0  0  0  0  0  0  0  0
    2.9445   -7.0313    0.7300 H   0  0  0  0  0  0  0  0  0  0  0  0
    4.5192   -7.6297    1.0434 H   0  0  0  0  0  0  0  0  0  0  0  0
    3.6894   -8.7746    2.7527 H   0  0  0  0  0  0  0  0  0  0  0  0
    1.8208   -9.7259    1.5712 H   0  0  0  0  0  0  0  0  0  0  0  0
    1.3160   -8.2159    0.8528 H   0  0  0  0  0  0  0  0  0  0  0  0
    0.1963   -9.0746    1.8051 H   0  0  0  0  0  0  0  0  0  0  0  0
    0.6594   -4.7754    4.1488 H   0  0  0  0  0  0  0  0  0  0  0  0
    4.3791   -5.0261    5.6918 H   0  0  0  0  0  0  0  0  0  0  0  0
    1.7956   -2.2965    6.2102 H   0  0  0  0  0  0  0  0  0  0  0  0
    2.8637   -3.0855    2.4322 H   0  0  0  0  0  0  0  0  0  0  0  0
    5.1660   -3.5141    4.2635 H   0  0  0  0  0  0  0  0  0  0  0  0
    0.8712   -5.1879    8.4656 H   0  0  0  0  0  0  0  0  0  0  0  0
    0.8733   -3.4378    8.3380 H   0  0  0  0  0  0  0  0  0  0  0  0
    2.3668   -4.2796    8.1924 H   0  0  0  0  0  0  0  0  0  0  0  0
   -1.0820   -4.5922    6.8855 H   0  0  0  0  0  0  0  0  0  0  0  0
   -0.7687   -3.9246    5.2780 H   0  0  0  0  0  0  0  0  0  0  0  0
   -0.5095   -2.9541    6.6660 H   0  0  0  0  0  0  0  0  0  0  0  0
   -0.0233   -7.0863    7.0164 H   0  0  0  0  0  0  0  0  0  0  0  0
   -0.7802   -6.4268    5.6274 H   0  0  0  0  0  0  0  0  0  0  0  0
    0.0213   -9.0560    6.1588 H   0  0  0  0  0  0  0  0  0  0  0  0
   -1.4399   -9.5363    4.8397 H   0  0  0  0  0  0  0  0  0  0  0  0
    0.4435  -11.8730    5.0266 H   0  0  0  0  0  0  0  0  0  0  0  0
    1.8159  -11.8878    3.8920 H   0  0  0  0  0  0  0  0  0  0  0  0
    1.6717  -10.4413    6.5576 H   0  0  0  0  0  0  0  0  0  0  0  0
    3.0951  -11.1554    5.7649 H   0  0  0  0  0  0  0  0  0  0  0  0
  1  2  1  0
  1 46  1  0
  1 47  1  0
  1 48  1  0
  2  3  1  0
  3 37  1  0
  3  4  1  0
  3 49  1  1
  4  5  1  0
  4 50  1  0
  4 51  1  0
  5 10  1  0
  5  6  1  6
  5  7  1  0
  6 52  1  0
  6 53  1  0
  6 54  1  0
  7 33  1  0
  7  8  1  0
  7 55  1  6
  8  9  1  0
  8 56  1  0
  8 57  1  0
  9 10  1  0
  9 58  1  0
  9 59  1  0
 10 11  1  0
 10 60  1  6
 11 41  1  0
 11 12  1  6
 13 11  1  6
 12 61  1  0
 12 62  1  0
 12 63  1  0
 13 14  2  0
 13 15  1  0
 15 37  1  0
 15 16  1  0
 15 64  1  1
 16 17  1  0
 17 33  1  0
 17 18  1  0
 17 65  1  1
 18 19  1  0
 19 20  1  0
 19 34  1  0
 19 66  1  1
 20 21  1  0
 21 22  1  0
 21 33  1  0
 21 67  1  6
 22 23  1  0
 23 24  1  0
 23 25  1  0
 23 26  1  0
 26 27  1  0
 26 28  1  0
 26 29  1  0
 29 30  1  0
 29 31  1  0
 29 32  1  0
 33 68  1  1
 34 35  1  0
 34 36  1  0
 37 34  1  1
 35 69  1  0
 35 70  1  0
 35 71  1  0
 36 72  1  0
 36 73  1  0
 36 74  1  0
 37 38  1  0
 38 39  1  0
 38 75  1  0
 38 76  1  0
 39 40  1  0
 39 41  1  0
 39 77  1  1
 40 78  1  0
 41 45  1  0
 41 42  1  0
 42 43  1  0
 43 44  1  0
 43 79  1  0
 43 80  1  0
 44 45  1  0
 44 81  1  0
 44 82  1  0
M  END
>  <i_m_ct_stereo_status>  (84) 
1

>  <s_m_source_file>  (84) 
/var/tmp/pbs.5075288.sched01/tmphpu8_cit/24996nucuhu.sdf

>  <i_m_source_file_index>  (84) 
53

>  <i_lp_mmshare_version>  (84) 
48012

>  <i_f3d_flags>  (84) 
0

>  <s_epik_input>  (84) 
TzFbQ0gyXVtDSDJdT0MxKFtDQEBIXShbQ0gyXTIpW09IXSlbQ0BAXShbQ0gzXSkoW1MrXShbTy1dKVtDQEhdM1tDQEBdMjQ1KVtDQEBIXTZbQ0BdKFtDSDNdKShbQ0gyXVtDQEhdNE9bQ0gzXSlbQ0BASF0oW0NIMl1bQ0gyXTYpW0NAQEhdN1tDQEhdKE8zKU9bQ0BIXShDNShbQ0gzXSlbQ0gzXSlPW0NASF03T0MoQ2wpKENsKUMoRikoRilDKEYpKEYpRg==

>  <s_epik_cmdline>  (84) 
J2VwaWtfcHl0aG9uJywgJy1waHQnLCAnMi4wJywgJy1waCcsICc3LjAnLCAnLXRuJywgJzgnLCAnLW1hJywgJzIwMCcsICctaW1hZScsICc8aW5maWxlLm1hZT4nLCAnLW9tYWUnLCAnPG91dGZpbGUubWFlPic=

>  <r_lp_tautomer_probability>  (84) 
1

>  <r_epik_Ionization_Penalty>  (84) 
9.16938e-08

>  <r_epik_Ionization_Penalty_Charging>  (84) 
0

>  <r_epik_Ionization_Penalty_Neutral>  (84) 
9.16938e-08

>  <r_epik_State_Penalty>  (84) 
-0

>  <r_epik_Charging_Adjusted_Penalty>  (84) 
0

>  <i_epik_Tot_Q>  (84) 
0

>  <i_epik_Tot_abs_Q>  (84) 
2

>  <s_epik_Chemistry_Notes>  (84) 
This compound contains an acetal/aminal-like group ( X-CH(R)-Y where X, Y are N, S, or O) that may be acid/base labile, releasing an aldehyde.

>  <s_lp_Force_Field>  (84) 
OPLS3e

>  <r_lp_Energy>  (84) 
275.829

>  <b_lp_Chiralities_Consistent>  (84) 
1

>  <s_lp_Variant>  (84) 
92:0-1

>  <s_i_glide_gridfile>  (84) 
pfpi4k_grid

>  <i_i_glide_lignum>  (84) 
53

>  <i_i_glide_rotatable_bonds>  (84) 
6

>  <r_i_docking_score>  (84) 
-2.59536

>  <r_i_glide_ligand_efficiency>  (84) 
-0.0576747

>  <r_i_glide_ligand_efficiency_sa>  (84) 
-0.205143

>  <r_i_glide_ligand_efficiency_ln>  (84) 
-0.539951

>  <r_i_glide_gscore>  (84) 
-2.59536

>  <r_i_glide_lipo>  (84) 
-0.110616

>  <r_i_glide_hbond>  (84) 
-0.136556

>  <r_i_glide_metal>  (84) 
-0

>  <r_i_glide_rewards>  (84) 
-0.0144295

>  <r_i_glide_evdw>  (84) 
-23.8694

>  <r_i_glide_ecoul>  (84) 
-7.62414

>  <r_i_glide_erotb>  (84) 
0.125949

>  <r_i_glide_esite>  (84) 
-0.122616

>  <r_i_glide_emodel>  (84) 
-33.6749

>  <r_i_glide_energy>  (84) 
-31.4936

>  <r_i_glide_einternal>  (84) 
5.65858

>  <r_i_glide_intrahb_reward>  (84) 
-0

>  <i_i_glide_confnum>  (84) 
1

>  <i_i_glide_posenum>  (84) 
38

>  <r_i_glide_eff_state_penalty>  (84) 
0

>  <ligand_id>  (84) 
92

>  <original_smiles>  (84) 
COC1CC2(C)C3CCC2C2(C)[S+]([O-])C4OC5OC(OC(OC(Cl)(Cl)C(F)(F)C(F)(F)F)C53)C(C)(C)C14CC(O)C21OCCO1

>  <smiles>  (84) 
[H]OC1([H])C([H])([H])C23C4([H])OC5([H])OC([H])(OC([H])(OC(Cl)(Cl)C(F)(F)C(F)(F)F)C5([H])C5([H])C([H])([H])C([H])([H])C([H])(C(C([H])([H])[H])(S4=O)C14OC([H])([H])C([H])([H])O4)C5(C([H])([H])[H])C([H])([H])C2([H])OC([H])([H])[H])C3(C([H])([H])[H])C([H])([H])[H]

$$$$
92:0:1
     RDKit          3D

 82 88  0  0  1  0  0  0  0  0999 V2000
    0.9900   -9.4131    7.5038 C   0  0  0  0  0  0  0  0  0  0  0  0
    1.6530   -8.3984    6.7489 O   0  0  0  0  0  0  0  0  0  0  0  0
    2.5493   -8.8322    5.7226 C   0  0  2  0  0  0  0  0  0  0  0  0
    3.9786   -8.1472    6.1349 C   0  0  0  0  0  0  0  0  0  0  0  0
    5.0857   -7.4197    5.1838 C   0  0  2  0  0  0  0  0  0  0  0  0
    6.2101   -7.1211    6.2275 C   0  0  0  0  0  0  0  0  0  0  0  0
    4.8647   -5.9284    4.4431 C   0  0  1  0  0  0  0  0  0  0  0  0
    5.7728   -5.9980    3.2023 C   0  0  0  0  0  0  0  0  0  0  0  0
    6.5291   -7.3412    3.2259 C   0  0  0  0  0  0  0  0  0  0  0  0
    5.7751   -8.3899    4.1160 C   0  0  2  0  0  0  0  0  0  0  0  0
    5.1349   -9.6433    3.3231 C   0  0  2  0  0  0  0  0  0  0  0  0
    6.2383  -10.2472    2.3910 C   0  0  0  0  0  0  0  0  0  0  0  0
    3.8383   -9.1795    2.0970 S   0  0  0  0  0  0  0  0  0  0  0  0
    4.4208   -8.1731    1.1029 O   0  0  0  0  0  0  0  0  0  0  0  0
    2.6097   -8.2606    3.1256 C   0  0  2  0  0  0  0  0  0  0  0  0
    3.0557   -7.1595    3.7542 O   0  0  0  0  0  0  0  0  0  0  0  0
    2.5318   -6.2392    4.7307 C   0  0  2  0  0  0  0  0  0  0  0  0
    1.2331   -5.8470    4.7203 O   0  0  0  0  0  0  0  0  0  0  0  0
    0.6770   -6.3353    3.6191 C   0  0  1  0  0  0  0  0  0  0  0  0
    1.4623   -5.8354    2.4896 O   0  0  0  0  0  0  0  0  0  0  0  0
    2.6242   -4.9427    2.7890 C   0  0  1  0  0  0  0  0  0  0  0  0
    2.1817   -3.6100    2.7638 O   0  0  0  0  0  0  0  0  0  0  0  0
    3.0158   -2.6469    2.2574 C   0  0  0  0  0  0  0  0  0  0  0  0
    4.6165   -2.6231    3.1520 Cl  0  0  0  0  0  0  0  0  0  0  0  0
    3.3172   -2.9314    0.4662 Cl  0  0  0  0  0  0  0  0  0  0  0  0
    2.2935   -1.2832    2.4607 C   0  0  0  0  0  0  0  0  0  0  0  0
    1.1994   -1.2838    1.7057 F   0  0  0  0  0  0  0  0  0  0  0  0
    1.9037   -1.1782    3.7313 F   0  0  0  0  0  0  0  0  0  0  0  0
    3.0835    0.0108    2.1317 C   0  0  0  0  0  0  0  0  0  0  0  0
    4.1152    0.1765    2.9571 F   0  0  0  0  0  0  0  0  0  0  0  0
    3.5475   -0.0107    0.8860 F   0  0  0  0  0  0  0  0  0  0  0  0
    2.2779    1.0644    2.2677 F   0  0  0  0  0  0  0  0  0  0  0  0
    3.3679   -5.2194    4.2309 C   0  0  2  0  0  0  0  0  0  0  0  0
    0.4582   -7.9735    3.9098 C   0  0  0  0  0  0  0  0  0  0  0  0
   -0.5936   -8.0395    5.0396 C   0  0  0  0  0  0  0  0  0  0  0  0
   -0.3747   -8.5295    2.7098 C   0  0  0  0  0  0  0  0  0  0  0  0
    1.8344   -8.8752    4.2327 C   0  0  2  0  0  0  0  0  0  0  0  0
    1.7328  -10.3892    3.8884 C   0  0  0  0  0  0  0  0  0  0  0  0
    2.9888  -11.3653    3.9855 C   0  0  1  0  0  0  0  0  0  0  0  0
    2.8919  -12.2452    2.8758 O   0  0  0  0  0  0  0  0  0  0  0  0
    4.5300  -10.8739    4.1970 C   0  0  0  0  0  0  0  0  0  0  0  0
    5.2822  -12.0333    3.9619 O   0  0  0  0  0  0  0  0  0  0  0  0
    5.5870  -12.6768    5.1862 C   0  0  0  0  0  0  0  0  0  0  0  0
    4.9144  -11.8393    6.2452 C   0  0  0  0  0  0  0  0  0  0  0  0
    4.7857  -10.6390    5.5311 O   0  0  0  0  0  0  0  0  0  0  0  0
    0.2950   -8.9361    8.1965 H   0  0  0  0  0  0  0  0  0  0  0  0
    1.6946  -10.0066    8.0850 H   0  0  0  0  0  0  0  0  0  0  0  0
    0.4145  -10.0924    6.8769 H   0  0  0  0  0  0  0  0  0  0  0  0
    2.7065   -9.8658    6.0044 H   0  0  0  0  0  0  0  0  0  0  0  0
    3.7722   -7.4554    6.9534 H   0  0  0  0  0  0  0  0  0  0  0  0
    4.4915   -8.8469    6.7946 H   0  0  0  0  0  0  0  0  0  0  0  0
    7.0887   -6.6393    5.7901 H   0  0  0  0  0  0  0  0  0  0  0  0
    6.5765   -8.0275    6.7187 H   0  0  0  0  0  0  0  0  0  0  0  0
    5.8618   -6.4562    7.0231 H   0  0  0  0  0  0  0  0  0  0  0  0
    5.3494   -5.2073    5.1024 H   0  0  0  0  0  0  0  0  0  0  0  0
    5.2010   -5.9478    2.2802 H   0  0  0  0  0  0  0  0  0  0  0  0
    6.4673   -5.1542    3.1826 H   0  0  0  0  0  0  0  0  0  0  0  0
    6.7240   -7.6312    2.1985 H   0  0  0  0  0  0  0  0  0  0  0  0
    7.5204   -7.1666    3.6451 H   0  0  0  0  0  0  0  0  0  0  0  0
    6.5723   -8.9009    4.6518 H   0  0  0  0  0  0  0  0  0  0  0  0
    7.1158  -10.5376    2.9666 H   0  0  0  0  0  0  0  0  0  0  0  0
    6.5899   -9.5755    1.6084 H   0  0  0  0  0  0  0  0  0  0  0  0
    5.8930  -11.1182    1.8391 H   0  0  0  0  0  0  0  0  0  0  0  0
    2.0321   -7.9931    2.2505 H   0  0  0  0  0  0  0  0  0  0  0  0
    2.7155   -6.2572    5.7844 H   0  0  0  0  0  0  0  0  0  0  0  0
   -0.2995   -5.8577    3.5470 H   0  0  0  0  0  0  0  0  0  0  0  0
    3.3103   -5.1225    1.9620 H   0  0  0  0  0  0  0  0  0  0  0  0
    3.2454   -4.3464    4.8795 H   0  0  0  0  0  0  0  0  0  0  0  0
   -0.7808   -9.0663    5.3365 H   0  0  0  0  0  0  0  0  0  0  0  0
   -1.5614   -7.6507    4.7222 H   0  0  0  0  0  0  0  0  0  0  0  0
   -0.3094   -7.4461    5.9041 H   0  0  0  0  0  0  0  0  0  0  0  0
   -0.7561   -9.5308    2.9253 H   0  0  0  0  0  0  0  0  0  0  0  0
    0.1425   -8.5877    1.7514 H   0  0  0  0  0  0  0  0  0  0  0  0
   -1.2524   -7.9080    2.5353 H   0  0  0  0  0  0  0  0  0  0  0  0
    0.9801  -10.7997    4.5581 H   0  0  0  0  0  0  0  0  0  0  0  0
    1.2780  -10.4952    2.8997 H   0  0  0  0  0  0  0  0  0  0  0  0
    2.7205  -12.0765    4.7646 H   0  0  0  0  0  0  0  0  0  0  0  0
    2.3429  -12.9881    3.1077 H   0  0  0  0  0  0  0  0  0  0  0  0
    5.2553  -13.7114    5.1702 H   0  0  0  0  0  0  0  0  0  0  0  0
    6.6641  -12.6511    5.3108 H   0  0  0  0  0  0  0  0  0  0  0  0
    3.9416  -12.2208    6.5452 H   0  0  0  0  0  0  0  0  0  0  0  0
    5.5153  -11.6827    7.1418 H   0  0  0  0  0  0  0  0  0  0  0  0
  1  2  1  0
  1 46  1  0
  1 47  1  0
  1 48  1  0
  2  3  1  0
  3 37  1  0
  3  4  1  0
  3 49  1  1
  4  5  1  0
  4 50  1  0
  4 51  1  0
  5 10  1  0
  5  6  1  1
  5  7  1  0
  6 52  1  0
  6 53  1  0
  6 54  1  0
  7 33  1  0
  7  8  1  0
  7 55  1  1
  8  9  1  0
  8 56  1  0
  8 57  1  0
  9 10  1  0
  9 58  1  0
  9 59  1  0
 10 11  1  0
 10 60  1  1
 11 41  1  0
 11 12  1  6
 13 11  1  1
 12 61  1  0
 12 62  1  0
 12 63  1  0
 13 14  2  0
 13 15  1  0
 15 37  1  0
 15 16  1  0
 15 64  1  6
 16 17  1  0
 17 33  1  0
 17 18  1  0
 17 65  1  1
 18 19  1  0
 19 20  1  0
 19 34  1  0
 19 66  1  6
 20 21  1  0
 21 22  1  0
 21 33  1  0
 21 67  1  6
 22 23  1  0
 23 24  1  0
 23 25  1  0
 23 26  1  0
 26 27  1  0
 26 28  1  0
 26 29  1  0
 29 30  1  0
 29 31  1  0
 29 32  1  0
 33 68  1  1
 34 35  1  0
 34 36  1  0
 37 34  1  1
 35 69  1  0
 35 70  1  0
 35 71  1  0
 36 72  1  0
 36 73  1  0
 36 74  1  0
 37 38  1  0
 38 39  1  0
 38 75  1  0
 38 76  1  0
 39 40  1  0
 39 41  1  0
 39 77  1  1
 40 78  1  0
 41 45  1  0
 41 42  1  0
 42 43  1  0
 43 44  1  0
 43 79  1  0
 43 80  1  0
 44 45  1  0
 44 81  1  0
 44 82  1  0
M  END
>  <i_m_ct_stereo_status>  (85) 
1

>  <s_m_source_file>  (85) 
/var/tmp/pbs.5075288.sched01/tmphpu8_cit/24996nucuhu.sdf

>  <i_m_source_file_index>  (85) 
53

>  <i_lp_mmshare_version>  (85) 
48012

>  <i_f3d_flags>  (85) 
0

>  <s_epik_input>  (85) 
TzFbQ0gyXVtDSDJdT0MxKFtDQEBIXShbQ0gyXTIpW09IXSlbQ0BAXShbQ0gzXSkoW1MrXShbTy1dKVtDQEhdM1tDQEBdMjQ1KVtDQEBIXTZbQ0BdKFtDSDNdKShbQ0gyXVtDQEhdNE9bQ0gzXSlbQ0BASF0oW0NIMl1bQ0gyXTYpW0NAQEhdN1tDQEhdKE8zKU9bQ0BIXShDNShbQ0gzXSlbQ0gzXSlPW0NASF03T0MoQ2wpKENsKUMoRikoRilDKEYpKEYpRg==

>  <s_epik_cmdline>  (85) 
J2VwaWtfcHl0aG9uJywgJy1waHQnLCAnMi4wJywgJy1waCcsICc3LjAnLCAnLXRuJywgJzgnLCAnLW1hJywgJzIwMCcsICctaW1hZScsICc8aW5maWxlLm1hZT4nLCAnLW9tYWUnLCAnPG91dGZpbGUubWFlPic=

>  <r_lp_tautomer_probability>  (85) 
1

>  <r_epik_Ionization_Penalty>  (85) 
9.16938e-08

>  <r_epik_Ionization_Penalty_Charging>  (85) 
0

>  <r_epik_Ionization_Penalty_Neutral>  (85) 
9.16938e-08

>  <r_epik_State_Penalty>  (85) 
-0

>  <r_epik_Charging_Adjusted_Penalty>  (85) 
0

>  <i_epik_Tot_Q>  (85) 
0

>  <i_epik_Tot_abs_Q>  (85) 
2

>  <s_epik_Chemistry_Notes>  (85) 
This compound contains an acetal/aminal-like group ( X-CH(R)-Y where X, Y are N, S, or O) that may be acid/base labile, releasing an aldehyde.

>  <s_lp_Force_Field>  (85) 
OPLS3e

>  <r_lp_Energy>  (85) 
275.829

>  <b_lp_Chiralities_Consistent>  (85) 
1

>  <s_lp_Variant>  (85) 
92:0-1

>  <s_i_glide_gridfile>  (85) 
pfpi4k_grid

>  <i_i_glide_lignum>  (85) 
53

>  <i_i_glide_rotatable_bonds>  (85) 
6

>  <r_i_docking_score>  (85) 
-2.15361

>  <r_i_glide_ligand_efficiency>  (85) 
-0.0478579

>  <r_i_glide_ligand_efficiency_sa>  (85) 
-0.170226

>  <r_i_glide_ligand_efficiency_ln>  (85) 
-0.448046

>  <r_i_glide_gscore>  (85) 
-2.15361

>  <r_i_glide_lipo>  (85) 
-0.0503133

>  <r_i_glide_hbond>  (85) 
0

>  <r_i_glide_metal>  (85) 
-0

>  <r_i_glide_rewards>  (85) 
-0.00305437

>  <r_i_glide_evdw>  (85) 
-26.9754

>  <r_i_glide_ecoul>  (85) 
-4.54391

>  <r_i_glide_erotb>  (85) 
0.125949

>  <r_i_glide_esite>  (85) 
-0.195831

>  <r_i_glide_emodel>  (85) 
-33.3646

>  <r_i_glide_energy>  (85) 
-31.5193

>  <r_i_glide_einternal>  (85) 
4.60813

>  <r_i_glide_intrahb_reward>  (85) 
-0

>  <i_i_glide_confnum>  (85) 
1

>  <i_i_glide_posenum>  (85) 
2

>  <r_i_glide_eff_state_penalty>  (85) 
0

>  <ligand_id>  (85) 
92

>  <original_smiles>  (85) 
COC1CC2(C)C3CCC2C2(C)[S+]([O-])C4OC5OC(OC(OC(Cl)(Cl)C(F)(F)C(F)(F)F)C53)C(C)(C)C14CC(O)C21OCCO1

>  <smiles>  (85) 
[H]OC1([H])C([H])([H])C23C4([H])OC5([H])OC([H])(OC([H])(OC(Cl)(Cl)C(F)(F)C(F)(F)F)C5([H])C5([H])C([H])([H])C([H])([H])C([H])(C(C([H])([H])[H])(S4=O)C14OC([H])([H])C([H])([H])O4)C5(C([H])([H])[H])C([H])([H])C2([H])OC([H])([H])[H])C3(C([H])([H])[H])C([H])([H])[H]

$$$$
92:0:2
     RDKit          3D

 82 88  0  0  1  0  0  0  0  0999 V2000
    6.6862   -8.2955    5.5146 C   0  0  0  0  0  0  0  0  0  0  0  0
    5.6579   -7.3179    5.6671 O   0  0  0  0  0  0  0  0  0  0  0  0
    4.3616   -7.6520    5.1736 C   0  0  2  0  0  0  0  0  0  0  0  0
    4.4889   -7.5909    3.5403 C   0  0  0  0  0  0  0  0  0  0  0  0
    3.4885   -6.9317    2.4433 C   0  0  2  0  0  0  0  0  0  0  0  0
    4.2115   -7.3492    1.1242 C   0  0  0  0  0  0  0  0  0  0  0  0
    3.2674   -5.2761    2.2449 C   0  0  1  0  0  0  0  0  0  0  0  0
    1.8361   -5.1702    1.6817 C   0  0  0  0  0  0  0  0  0  0  0  0
    1.2742   -6.5900    1.4828 C   0  0  0  0  0  0  0  0  0  0  0  0
    2.0499   -7.6254    2.3571 C   0  0  2  0  0  0  0  0  0  0  0  0
    1.1852   -8.3156    3.5546 C   0  0  2  0  0  0  0  0  0  0  0  0
   -0.1514   -8.8449    2.9329 C   0  0  0  0  0  0  0  0  0  0  0  0
    0.5551   -7.1134    4.7933 S   0  0  0  0  0  0  0  0  0  0  0  0
   -0.2583   -6.0270    4.0710 O   0  0  0  0  0  0  0  0  0  0  0  0
    2.0947   -6.2986    5.4021 C   0  0  2  0  0  0  0  0  0  0  0  0
    2.8206   -5.6454    4.4769 O   0  0  0  0  0  0  0  0  0  0  0  0
    4.1113   -4.9860    4.4359 C   0  0  2  0  0  0  0  0  0  0  0  0
    4.5902   -4.2693    5.4972 O   0  0  0  0  0  0  0  0  0  0  0  0
    3.6105   -4.1776    6.3920 C   0  0  1  0  0  0  0  0  0  0  0  0
    2.4725   -3.5818    5.6980 O   0  0  0  0  0  0  0  0  0  0  0  0
    2.6383   -3.2015    4.2649 C   0  0  1  0  0  0  0  0  0  0  0  0
    3.1206   -1.8800    4.1727 O   0  0  0  0  0  0  0  0  0  0  0  0
    2.2230   -0.8570    4.2491 C   0  0  0  0  0  0  0  0  0  0  0  0
    1.0481   -0.9182    2.8551 Cl  0  0  0  0  0  0  0  0  0  0  0  0
    1.2984   -0.8890    5.8319 Cl  0  0  0  0  0  0  0  0  0  0  0  0
    3.0434    0.4675    4.1517 C   0  0  0  0  0  0  0  0  0  0  0  0
    3.9067    0.4989    5.1670 F   0  0  0  0  0  0  0  0  0  0  0  0
    3.7559    0.4397    3.0265 F   0  0  0  0  0  0  0  0  0  0  0  0
    2.2838    1.8204    4.1684 C   0  0  0  0  0  0  0  0  0  0  0  0
    1.4496    1.9368    3.1413 F   0  0  0  0  0  0  0  0  0  0  0  0
    1.5851    1.9593    5.2901 F   0  0  0  0  0  0  0  0  0  0  0  0
    3.1614    2.8214    4.1040 F   0  0  0  0  0  0  0  0  0  0  0  0
    3.6682   -4.1365    3.3992 C   0  0  2  0  0  0  0  0  0  0  0  0
    3.5192   -5.6907    7.1159 C   0  0  0  0  0  0  0  0  0  0  0  0
    4.8586   -5.8754    7.8745 C   0  0  0  0  0  0  0  0  0  0  0  0
    2.5088   -5.5376    8.2977 C   0  0  0  0  0  0  0  0  0  0  0  0
    3.1850   -6.9937    6.1179 C   0  0  2  0  0  0  0  0  0  0  0  0
    2.5012   -8.2161    6.8126 C   0  0  0  0  0  0  0  0  0  0  0  0
    1.9445   -9.4760    6.0123 C   0  0  1  0  0  0  0  0  0  0  0  0
    0.7498   -9.8533    6.6639 O   0  0  0  0  0  0  0  0  0  0  0  0
    1.8313   -9.5327    4.3986 C   0  0  0  0  0  0  0  0  0  0  0  0
    1.1073  -10.7066    4.1518 O   0  0  0  0  0  0  0  0  0  0  0  0
    1.9533  -11.6834    3.5982 C   0  0  0  0  0  0  0  0  0  0  0  0
    3.0041  -10.8398    2.9359 C   0  0  0  0  0  0  0  0  0  0  0  0
    3.0847   -9.8151    3.8913 O   0  0  0  0  0  0  0  0  0  0  0  0
    7.6087   -7.9020    5.9375 H   0  0  0  0  0  0  0  0  0  0  0  0
    6.8799   -8.5305    4.4697 H   0  0  0  0  0  0  0  0  0  0  0  0
    6.4549   -9.2233    6.0381 H   0  0  0  0  0  0  0  0  0  0  0  0
    4.3514   -8.7103    5.4216 H   0  0  0  0  0  0  0  0  0  0  0  0
    5.4682   -7.1729    3.3128 H   0  0  0  0  0  0  0  0  0  0  0  0
    4.7622   -8.5910    3.2058 H   0  0  0  0  0  0  0  0  0  0  0  0
    3.6943   -7.0105    0.2242 H   0  0  0  0  0  0  0  0  0  0  0  0
    4.3106   -8.4345    1.0345 H   0  0  0  0  0  0  0  0  0  0  0  0
    5.2237   -6.9379    1.0634 H   0  0  0  0  0  0  0  0  0  0  0  0
    3.9315   -4.9884    1.4191 H   0  0  0  0  0  0  0  0  0  0  0  0
    1.1755   -4.6455    2.3736 H   0  0  0  0  0  0  0  0  0  0  0  0
    1.8471   -4.6100    0.7375 H   0  0  0  0  0  0  0  0  0  0  0  0
    0.1973   -6.5600    1.5961 H   0  0  0  0  0  0  0  0  0  0  0  0
    1.4148   -6.8599    0.4437 H   0  0  0  0  0  0  0  0  0  0  0  0
    2.1485   -8.4618    1.6753 H   0  0  0  0  0  0  0  0  0  0  0  0
    0.0527   -9.5503    2.1373 H   0  0  0  0  0  0  0  0  0  0  0  0
   -0.8052   -8.0854    2.5172 H   0  0  0  0  0  0  0  0  0  0  0  0
   -0.7799   -9.3399    3.6640 H   0  0  0  0  0  0  0  0  0  0  0  0
    1.5247   -5.5950    5.9905 H   0  0  0  0  0  0  0  0  0  0  0  0
    5.0343   -5.4098    4.0857 H   0  0  0  0  0  0  0  0  0  0  0  0
    3.9280   -3.4371    7.1359 H   0  0  0  0  0  0  0  0  0  0  0  0
    1.6368   -3.2605    3.8413 H   0  0  0  0  0  0  0  0  0  0  0  0
    4.5016   -3.5186    3.0715 H   0  0  0  0  0  0  0  0  0  0  0  0
    4.9690   -6.8861    8.2742 H   0  0  0  0  0  0  0  0  0  0  0  0
    4.9365   -5.1889    8.7169 H   0  0  0  0  0  0  0  0  0  0  0  0
    5.7312   -5.6507    7.2629 H   0  0  0  0  0  0  0  0  0  0  0  0
    2.5471   -6.3936    8.9777 H   0  0  0  0  0  0  0  0  0  0  0  0
    1.4642   -5.3982    8.0180 H   0  0  0  0  0  0  0  0  0  0  0  0
    2.7640   -4.6620    8.8957 H   0  0  0  0  0  0  0  0  0  0  0  0
    3.2262   -8.6070    7.5314 H   0  0  0  0  0  0  0  0  0  0  0  0
    1.6927   -7.8359    7.4441 H   0  0  0  0  0  0  0  0  0  0  0  0
    2.6040  -10.2949    6.2527 H   0  0  0  0  0  0  0  0  0  0  0  0
    0.8367  -10.7710    6.9138 H   0  0  0  0  0  0  0  0  0  0  0  0
    2.3735  -12.2998    4.3922 H   0  0  0  0  0  0  0  0  0  0  0  0
    1.3962  -12.3064    2.9094 H   0  0  0  0  0  0  0  0  0  0  0  0
    3.9576  -11.3454    2.7878 H   0  0  0  0  0  0  0  0  0  0  0  0
    2.6395  -10.4789    1.9767 H   0  0  0  0  0  0  0  0  0  0  0  0
  1  2  1  0
  1 46  1  0
  1 47  1  0
  1 48  1  0
  2  3  1  0
  3 37  1  0
  3  4  1  0
  3 49  1  6
  4  5  1  0
  4 50  1  0
  4 51  1  0
  5 10  1  0
  5  6  1  6
  5  7  1  0
  6 52  1  0
  6 53  1  0
  6 54  1  0
  7 33  1  0
  7  8  1  0
  7 55  1  6
  8  9  1  0
  8 56  1  0
  8 57  1  0
  9 10  1  0
  9 58  1  0
  9 59  1  0
 10 11  1  0
 10 60  1  6
 11 41  1  0
 11 12  1  6
 13 11  1  6
 12 61  1  0
 12 62  1  0
 12 63  1  0
 13 14  2  0
 13 15  1  0
 15 37  1  0
 15 16  1  0
 15 64  1  1
 16 17  1  0
 17 33  1  0
 17 18  1  0
 17 65  1  6
 18 19  1  0
 19 20  1  0
 19 34  1  0
 19 66  1  1
 20 21  1  0
 21 22  1  0
 21 33  1  0
 21 67  1  6
 22 23  1  0
 23 24  1  0
 23 25  1  0
 23 26  1  0
 26 27  1  0
 26 28  1  0
 26 29  1  0
 29 30  1  0
 29 31  1  0
 29 32  1  0
 33 68  1  6
 34 35  1  0
 34 36  1  0
 37 34  1  1
 35 69  1  0
 35 70  1  0
 35 71  1  0
 36 72  1  0
 36 73  1  0
 36 74  1  0
 37 38  1  0
 38 39  1  0
 38 75  1  0
 38 76  1  0
 39 40  1  0
 39 41  1  0
 39 77  1  1
 40 78  1  0
 41 45  1  0
 41 42  1  0
 42 43  1  0
 43 44  1  0
 43 79  1  0
 43 80  1  0
 44 45  1  0
 44 81  1  0
 44 82  1  0
M  END
>  <i_m_ct_stereo_status>  (86) 
1

>  <s_m_source_file>  (86) 
/var/tmp/pbs.5075288.sched01/tmphpu8_cit/24996nucuhu.sdf

>  <i_m_source_file_index>  (86) 
53

>  <i_lp_mmshare_version>  (86) 
48012

>  <i_f3d_flags>  (86) 
0

>  <s_epik_input>  (86) 
TzFbQ0gyXVtDSDJdT0MxKFtDQEBIXShbQ0gyXTIpW09IXSlbQ0BAXShbQ0gzXSkoW1MrXShbTy1dKVtDQEhdM1tDQEBdMjQ1KVtDQEBIXTZbQ0BdKFtDSDNdKShbQ0gyXVtDQEhdNE9bQ0gzXSlbQ0BASF0oW0NIMl1bQ0gyXTYpW0NAQEhdN1tDQEhdKE8zKU9bQ0BIXShDNShbQ0gzXSlbQ0gzXSlPW0NASF03T0MoQ2wpKENsKUMoRikoRilDKEYpKEYpRg==

>  <s_epik_cmdline>  (86) 
J2VwaWtfcHl0aG9uJywgJy1waHQnLCAnMi4wJywgJy1waCcsICc3LjAnLCAnLXRuJywgJzgnLCAnLW1hJywgJzIwMCcsICctaW1hZScsICc8aW5maWxlLm1hZT4nLCAnLW9tYWUnLCAnPG91dGZpbGUubWFlPic=

>  <r_lp_tautomer_probability>  (86) 
1

>  <r_epik_Ionization_Penalty>  (86) 
9.16938e-08

>  <r_epik_Ionization_Penalty_Charging>  (86) 
0

>  <r_epik_Ionization_Penalty_Neutral>  (86) 
9.16938e-08

>  <r_epik_State_Penalty>  (86) 
-0

>  <r_epik_Charging_Adjusted_Penalty>  (86) 
0

>  <i_epik_Tot_Q>  (86) 
0

>  <i_epik_Tot_abs_Q>  (86) 
2

>  <s_epik_Chemistry_Notes>  (86) 
This compound contains an acetal/aminal-like group ( X-CH(R)-Y where X, Y are N, S, or O) that may be acid/base labile, releasing an aldehyde.

>  <s_lp_Force_Field>  (86) 
OPLS3e

>  <r_lp_Energy>  (86) 
275.829

>  <b_lp_Chiralities_Consistent>  (86) 
1

>  <s_lp_Variant>  (86) 
92:0-1

>  <s_i_glide_gridfile>  (86) 
pfpi4k_grid

>  <i_i_glide_lignum>  (86) 
53

>  <i_i_glide_rotatable_bonds>  (86) 
6

>  <r_i_docking_score>  (86) 
-2.10511

>  <r_i_glide_ligand_efficiency>  (86) 
-0.0467802

>  <r_i_glide_ligand_efficiency_sa>  (86) 
-0.166392

>  <r_i_glide_ligand_efficiency_ln>  (86) 
-0.437957

>  <r_i_glide_gscore>  (86) 
-2.10511

>  <r_i_glide_lipo>  (86) 
-0.112569

>  <r_i_glide_hbond>  (86) 
-0.0369651

>  <r_i_glide_metal>  (86) 
-0

>  <r_i_glide_rewards>  (86) 
-0.00203367

>  <r_i_glide_evdw>  (86) 
-24.2085

>  <r_i_glide_ecoul>  (86) 
-5.24646

>  <r_i_glide_erotb>  (86) 
0.125949

>  <r_i_glide_esite>  (86) 
-0.0820972

>  <r_i_glide_emodel>  (86) 
-33.1783

>  <r_i_glide_energy>  (86) 
-29.455

>  <r_i_glide_einternal>  (86) 
1.41533

>  <r_i_glide_intrahb_reward>  (86) 
-0

>  <i_i_glide_confnum>  (86) 
2

>  <i_i_glide_posenum>  (86) 
18

>  <r_i_glide_eff_state_penalty>  (86) 
0

>  <ligand_id>  (86) 
92

>  <original_smiles>  (86) 
COC1CC2(C)C3CCC2C2(C)[S+]([O-])C4OC5OC(OC(OC(Cl)(Cl)C(F)(F)C(F)(F)F)C53)C(C)(C)C14CC(O)C21OCCO1

>  <smiles>  (86) 
[H]OC1([H])C([H])([H])C23C4([H])OC5([H])OC([H])(OC([H])(OC(Cl)(Cl)C(F)(F)C(F)(F)F)C5([H])C5([H])C([H])([H])C([H])([H])C([H])(C(C([H])([H])[H])(S4=O)C14OC([H])([H])C([H])([H])O4)C5(C([H])([H])[H])C([H])([H])C2([H])OC([H])([H])[H])C3(C([H])([H])[H])C([H])([H])[H]

$$$$
99:1:0
     RDKit          3D

165176  0  0  1  0  0  0  0  0999 V2000
    4.3503    1.9748    8.3801 C   0  0  0  0  0  0  0  0  0  0  0  0
    3.3985    1.0248    8.1941 C   0  0  0  0  0  0  0  0  0  0  0  0
    3.8608   -0.4540    8.4638 C   0  0  1  0  0  0  0  0  0  0  0  0
    4.5606   -0.4750    9.8777 C   0  0  0  0  0  0  0  0  0  0  0  0
    2.6155   -1.3558    8.7494 C   0  0  0  0  0  0  0  0  0  0  0  0
    1.3011   -0.8645    8.2218 C   0  0  1  0  0  0  0  0  0  0  0  0
    1.0385    0.5060    8.9286 C   0  0  1  0  0  0  0  0  0  0  0  0
   -0.4513    0.7694    9.2546 C   0  0  0  0  0  0  0  0  0  0  0  0
    1.5453    0.6009   10.2531 O   0  0  0  0  0  0  0  0  0  0  0  0
    1.8592    1.3614    7.9328 C   0  0  1  0  0  0  0  0  0  0  0  0
    1.5103    2.9327    7.8413 C   0  0  0  0  0  0  0  0  0  0  0  0
    2.2663    3.6597    6.6829 C   0  0  0  0  0  0  0  0  0  0  0  0
    0.0099    3.3354    7.7630 C   0  0  0  0  0  0  0  0  0  0  0  0
    1.9343    3.5598    9.0304 O   0  0  0  0  0  0  0  0  0  0  0  0
    1.3559    0.7474    6.7087 O   0  0  0  0  0  0  0  0  0  0  0  0
    1.1537   -0.6901    6.6262 C   0  0  2  0  0  0  0  0  0  0  0  0
   -0.4812   -0.8336    6.4032 C   0  0  0  0  0  0  0  0  0  0  0  0
   -1.1652   -2.1498    5.9632 C   0  0  0  0  0  0  0  0  0  0  0  0
   -1.3394    0.3722    5.8987 C   0  0  0  0  0  0  0  0  0  0  0  0
    2.2803   -1.3522    5.4577 C   0  0  2  0  0  0  0  0  0  0  0  0
    2.8894   -2.8941    5.8828 C   0  0  2  0  0  0  0  0  0  0  0  0
    2.2807   -4.4089    6.2146 C   0  0  1  0  0  0  0  0  0  0  0  0
    2.9154   -5.6338    5.3201 C   0  0  2  0  0  0  0  0  0  0  0  0
    3.9447   -6.2946    6.0196 O   0  0  0  0  0  0  0  0  0  0  0  0
    3.8169   -7.5155    6.6063 C   0  0  0  0  0  0  0  0  0  0  0  0
    4.7745   -8.2731    6.6533 O   0  0  0  0  0  0  0  0  0  0  0  0
    2.4692   -7.8217    7.2567 C   0  0  2  0  0  0  0  0  0  0  0  0
    2.6454   -9.0065    8.0095 O   0  0  0  0  0  0  0  0  0  0  0  0
    1.4306   -8.0333    6.2669 O   0  0  0  0  0  0  0  0  0  0  0  0
    0.4886   -7.3431    7.1310 C   0  0  0  0  0  0  0  0  0  0  0  0
   -0.5002   -6.5022    6.3252 C   0  0  0  0  0  0  0  0  0  0  0  0
   -0.3277   -8.4926    7.8158 C   0  0  0  0  0  0  0  0  0  0  0  0
    1.6441   -6.6485    7.9112 C   0  0  1  0  0  0  0  0  0  0  0  0
    1.2088   -6.9133    9.2868 O   0  0  0  0  0  0  0  0  0  0  0  0
    2.0486   -7.4195   10.3184 C   0  0  0  0  0  0  0  0  0  0  0  0
    2.0498   -5.0572    7.7645 C   0  0  1  0  0  0  0  0  0  0  0  0
    3.3078   -4.9532    8.7117 C   0  0  0  0  0  0  0  0  0  0  0  0
    0.9153   -4.3191    8.5236 C   0  0  0  0  0  0  0  0  0  0  0  0
   -0.1674   -4.0706    7.9203 O   0  0  0  0  0  0  0  0  0  0  0  0
    1.0569   -4.0403    9.7088 O   0  0  0  0  0  0  0  0  0  0  0  0
    3.2844   -5.8658    3.7447 C   0  0  1  0  0  0  0  0  0  0  0  0
    3.0650   -7.2777    3.5130 O   0  0  0  0  0  0  0  0  0  0  0  0
    2.5001   -7.5938    2.2204 C   0  0  1  0  0  0  0  0  0  0  0  0
    1.4265   -8.6791    2.3812 C   0  0  0  0  0  0  0  0  0  0  0  0
    2.0588   -6.2468    1.6033 C   0  0  0  0  0  0  0  0  0  0  0  0
    2.1368   -5.3622    2.8421 C   0  0  1  0  0  0  0  0  0  0  0  0
    0.6972   -5.5453    3.3878 C   0  0  0  0  0  0  0  0  0  0  0  0
    2.3150   -3.9722    2.8518 O   0  0  0  0  0  0  0  0  0  0  0  0
    2.8830   -3.0971    1.9463 C   0  0  1  0  0  0  0  0  0  0  0  0
    2.2022   -3.2048    0.7127 O   0  0  0  0  0  0  0  0  0  0  0  0
    2.4738   -1.6372    2.5955 C   0  0  2  0  0  0  0  0  0  0  0  0
    3.4038   -0.4682    2.3533 C   0  0  0  0  0  0  0  0  0  0  0  0
    4.2100   -0.2350    3.6164 C   0  0  0  0  0  0  0  0  0  0  0  0
    3.5849   -0.3287    5.0788 C   0  0  1  0  0  0  0  0  0  0  0  0
    3.1900    1.0202    5.1016 O   0  0  0  0  0  0  0  0  0  0  0  0
    4.9056   -0.3646    5.9687 C   0  0  1  0  0  0  0  0  0  0  0  0
    5.5723    0.9215    6.0568 O   0  0  0  0  0  0  0  0  0  0  0  0
    6.8758    1.1062    5.7922 C   0  0  0  0  0  0  0  0  0  0  0  0
    7.4666    2.3484    6.4265 C   0  0  0  0  0  0  0  0  0  0  0  0
    7.5911    0.3692    5.1485 O   0  0  0  0  0  0  0  0  0  0  0  0
    4.8806   -1.0417    7.3593 C   0  0  1  0  0  0  0  0  0  0  0  0
    6.2023   -0.8806    7.9295 O   0  0  0  0  0  0  0  0  0  0  0  0
    7.3254   -1.5601    7.6351 C   0  0  0  0  0  0  0  0  0  0  0  0
    8.5876   -0.8820    8.1886 C   0  0  0  0  0  0  0  0  0  0  0  0
    7.4237   -2.5684    6.9736 O   0  0  0  0  0  0  0  0  0  0  0  0
    4.4076   -2.7793    6.9291 S   0  0  0  0  0  0  0  0  0  0  0  0
    5.4550   -3.8652    6.6266 O   0  0  0  0  0  0  0  0  0  0  0  0
    1.5904   -1.4285    3.9543 C   0  0  1  0  0  0  0  0  0  0  0  0
    0.7133   -2.5010    4.0081 O   0  0  0  0  0  0  0  0  0  0  0  0
    0.6300   -0.2089    3.6050 C   0  0  0  0  0  0  0  0  0  0  0  0
   -0.5347   -0.3848    3.3715 O   0  0  0  0  0  0  0  0  0  0  0  0
    1.1369    1.0124    3.4387 O   0  0  0  0  0  0  0  0  0  0  0  0
    0.3384    1.9803    2.7817 C   0  0  0  0  0  0  0  0  0  0  0  0
    4.4062   -3.5386    1.6012 C   0  0  1  0  0  0  0  0  0  0  0  0
    5.1267   -2.5068    0.9525 O   0  0  0  0  0  0  0  0  0  0  0  0
    5.2900   -4.2470    2.6994 C   0  0  2  0  0  0  0  0  0  0  0  0
    5.7578   -3.2238    3.7194 C   0  0  0  0  0  0  0  0  0  0  0  0
    6.6308   -4.8912    2.1422 C   0  0  1  0  0  0  0  0  0  0  0  0
    7.5263   -4.0200    1.5099 O   0  0  0  0  0  0  0  0  0  0  0  0
    7.2559   -5.6814    3.3292 C   0  0  0  0  0  0  0  0  0  0  0  0
    5.9894   -6.1235    4.0877 C   0  0  0  0  0  0  0  0  0  0  0  0
    4.8107   -5.6438    3.1793 C   0  0  1  0  0  0  0  0  0  0  0  0
    5.1407   -6.4731    1.8744 C   0  0  0  0  0  0  0  0  0  0  0  0
    6.2341   -5.8664    1.2612 O   0  0  0  0  0  0  0  0  0  0  0  0
    4.1619    3.0209    8.3424 H   0  0  0  0  0  0  0  0  0  0  0  0
    5.3687    1.6638    8.5618 H   0  0  0  0  0  0  0  0  0  0  0  0
    4.8261   -1.4854   10.1948 H   0  0  0  0  0  0  0  0  0  0  0  0
    3.9131   -0.0591   10.6506 H   0  0  0  0  0  0  0  0  0  0  0  0
    5.4673    0.1206    9.9548 H   0  0  0  0  0  0  0  0  0  0  0  0
    2.5888   -2.3641    8.4392 H   0  0  0  0  0  0  0  0  0  0  0  0
    2.4905   -1.5384    9.8214 H   0  0  0  0  0  0  0  0  0  0  0  0
    0.6003   -1.6062    8.6158 H   0  0  0  0  0  0  0  0  0  0  0  0
   -1.0580    1.0343    8.3978 H   0  0  0  0  0  0  0  0  0  0  0  0
   -0.5926    1.6315    9.9180 H   0  0  0  0  0  0  0  0  0  0  0  0
   -0.9001   -0.1011    9.7312 H   0  0  0  0  0  0  0  0  0  0  0  0
    1.1336    1.3319   10.6884 H   0  0  0  0  0  0  0  0  0  0  0  0
    1.9850    3.2397    5.7098 H   0  0  0  0  0  0  0  0  0  0  0  0
    3.3493    3.6747    6.7595 H   0  0  0  0  0  0  0  0  0  0  0  0
    1.9333    4.7010    6.6245 H   0  0  0  0  0  0  0  0  0  0  0  0
   -0.4857    2.8306    6.9475 H   0  0  0  0  0  0  0  0  0  0  0  0
   -0.0714    4.4030    7.5081 H   0  0  0  0  0  0  0  0  0  0  0  0
   -0.5193    3.1569    8.6906 H   0  0  0  0  0  0  0  0  0  0  0  0
    1.4861    3.1604    9.7622 H   0  0  0  0  0  0  0  0  0  0  0  0
   -0.8428   -0.8706    7.4100 H   0  0  0  0  0  0  0  0  0  0  0  0
   -1.6088   -2.0429    4.9713 H   0  0  0  0  0  0  0  0  0  0  0  0
   -1.9872   -2.4442    6.6093 H   0  0  0  0  0  0  0  0  0  0  0  0
   -0.4986   -3.0027    5.9638 H   0  0  0  0  0  0  0  0  0  0  0  0
   -1.8554    0.1477    4.9688 H   0  0  0  0  0  0  0  0  0  0  0  0
   -0.7486    1.2607    5.7556 H   0  0  0  0  0  0  0  0  0  0  0  0
   -2.1405    0.5864    6.6074 H   0  0  0  0  0  0  0  0  0  0  0  0
    3.2071   -3.1653    4.8947 H   0  0  0  0  0  0  0  0  0  0  0  0
    1.2932   -4.2390    5.8378 H   0  0  0  0  0  0  0  0  0  0  0  0
    2.0360   -6.2533    5.3083 H   0  0  0  0  0  0  0  0  0  0  0  0
    1.8603   -9.5371    7.8626 H   0  0  0  0  0  0  0  0  0  0  0  0
   -1.3606   -6.1459    6.9410 H   0  0  0  0  0  0  0  0  0  0  0  0
   -0.9047   -7.1047    5.5258 H   0  0  0  0  0  0  0  0  0  0  0  0
   -0.0594   -5.6467    5.9029 H   0  0  0  0  0  0  0  0  0  0  0  0
   -1.0193   -8.0597    8.5112 H   0  0  0  0  0  0  0  0  0  0  0  0
    0.2563   -9.1915    8.4314 H   0  0  0  0  0  0  0  0  0  0  0  0
   -0.8830   -9.0801    7.1020 H   0  0  0  0  0  0  0  0  0  0  0  0
    1.7051   -6.9419   11.2361 H   0  0  0  0  0  0  0  0  0  0  0  0
    3.1040   -7.1999   10.1852 H   0  0  0  0  0  0  0  0  0  0  0  0
    1.8807   -8.4882   10.4682 H   0  0  0  0  0  0  0  0  0  0  0  0
    4.2102   -5.3918    8.2873 H   0  0  0  0  0  0  0  0  0  0  0  0
    3.1577   -5.3863    9.6702 H   0  0  0  0  0  0  0  0  0  0  0  0
    3.6061   -3.9589    9.0011 H   0  0  0  0  0  0  0  0  0  0  0  0
    3.2387   -8.0628    1.5749 H   0  0  0  0  0  0  0  0  0  0  0  0
    0.9593   -8.8734    1.4217 H   0  0  0  0  0  0  0  0  0  0  0  0
    0.6432   -8.4459    3.0982 H   0  0  0  0  0  0  0  0  0  0  0  0
    1.8845   -9.6102    2.7185 H   0  0  0  0  0  0  0  0  0  0  0  0
    2.6560   -5.8715    0.7819 H   0  0  0  0  0  0  0  0  0  0  0  0
    1.0768   -6.3406    1.1413 H   0  0  0  0  0  0  0  0  0  0  0  0
    0.5086   -6.5295    3.7990 H   0  0  0  0  0  0  0  0  0  0  0  0
   -0.0255   -5.4279    2.5930 H   0  0  0  0  0  0  0  0  0  0  0  0
    0.3978   -4.8254    4.1228 H   0  0  0  0  0  0  0  0  0  0  0  0
    2.2851   -2.3612    0.2690 H   0  0  0  0  0  0  0  0  0  0  0  0
    1.7127   -1.3822    1.8503 H   0  0  0  0  0  0  0  0  0  0  0  0
    4.0155   -0.5696    1.4683 H   0  0  0  0  0  0  0  0  0  0  0  0
    2.8443    0.4316    2.1249 H   0  0  0  0  0  0  0  0  0  0  0  0
    5.0805   -0.8341    3.5149 H   0  0  0  0  0  0  0  0  0  0  0  0
    4.7028    0.7254    3.4864 H   0  0  0  0  0  0  0  0  0  0  0  0
    2.4531    1.1191    4.5098 H   0  0  0  0  0  0  0  0  0  0  0  0
    5.5991   -1.0245    5.4442 H   0  0  0  0  0  0  0  0  0  0  0  0
    7.0316    3.2548    6.0032 H   0  0  0  0  0  0  0  0  0  0  0  0
    8.5436    2.3526    6.2494 H   0  0  0  0  0  0  0  0  0  0  0  0
    7.3180    2.3066    7.5053 H   0  0  0  0  0  0  0  0  0  0  0  0
    8.5203   -0.7059    9.2740 H   0  0  0  0  0  0  0  0  0  0  0  0
    8.7265    0.0906    7.6979 H   0  0  0  0  0  0  0  0  0  0  0  0
    9.4904   -1.4699    7.9872 H   0  0  0  0  0  0  0  0  0  0  0  0
    1.2098   -3.3096    4.1287 H   0  0  0  0  0  0  0  0  0  0  0  0
    0.9198    2.8500    2.5114 H   0  0  0  0  0  0  0  0  0  0  0  0
   -0.5176    2.2928    3.3712 H   0  0  0  0  0  0  0  0  0  0  0  0
   -0.0768    1.5812    1.8608 H   0  0  0  0  0  0  0  0  0  0  0  0
    4.3003   -4.2582    0.7911 H   0  0  0  0  0  0  0  0  0  0  0  0
    5.3244   -1.8409    1.5973 H   0  0  0  0  0  0  0  0  0  0  0  0
    6.2842   -3.6355    4.5812 H   0  0  0  0  0  0  0  0  0  0  0  0
    4.9419   -2.7474    4.1739 H   0  0  0  0  0  0  0  0  0  0  0  0
    6.2513   -2.4134    3.2183 H   0  0  0  0  0  0  0  0  0  0  0  0
    8.3559   -4.4764    1.4452 H   0  0  0  0  0  0  0  0  0  0  0  0
    7.8285   -6.5221    2.9409 H   0  0  0  0  0  0  0  0  0  0  0  0
    7.9320   -5.1036    3.9740 H   0  0  0  0  0  0  0  0  0  0  0  0
    5.9760   -7.1949    4.2735 H   0  0  0  0  0  0  0  0  0  0  0  0
    5.9935   -5.6716    5.0738 H   0  0  0  0  0  0  0  0  0  0  0  0
    5.3927   -7.5171    2.0805 H   0  0  0  0  0  0  0  0  0  0  0  0
    4.4821   -6.4364    1.0293 H   0  0  0  0  0  0  0  0  0  0  0  0
  1  2  2  0
  1 85  1  0
  1 86  1  0
  2 10  1  0
  2  3  1  0
  3 61  1  0
  3  4  1  1
  3  5  1  0
  4 87  1  0
  4 88  1  0
  4 89  1  0
  5  6  1  0
  5 90  1  0
  5 91  1  0
  6 16  1  0
  6  7  1  0
  6 92  1  1
  7  8  1  0
  7  9  1  1
  7 10  1  0
  8 93  1  0
  8 94  1  0
  8 95  1  0
  9 96  1  0
 10 11  1  6
 10 15  1  0
 11 12  1  0
 11 13  1  0
 11 14  1  0
 12 97  1  0
 12 98  1  0
 12 99  1  0
 13100  1  0
 13101  1  0
 13102  1  0
 14103  1  0
 15 16  1  0
 16 17  1  6
 16 20  1  0
 17 18  1  0
 17 19  1  0
 17104  1  0
 18105  1  0
 18106  1  0
 18107  1  0
 19108  1  0
 19109  1  0
 19110  1  0
 20 54  1  0
 20 68  1  6
 20 21  1  0
 21 66  1  0
 21 22  1  0
 21111  1  6
 22 36  1  0
 22 23  1  0
 22112  1  6
 23 24  1  0
 23 41  1  0
 23113  1  6
 24 25  1  0
 25 26  2  0
 25 27  1  0
 27 33  1  0
 27 28  1  1
 27 29  1  0
 28114  1  0
 29 30  1  0
 30 31  1  0
 30 32  1  0
 30 33  1  0
 31115  1  0
 31116  1  0
 31117  1  0
 32118  1  0
 32119  1  0
 32120  1  0
 33 34  1  1
 33 36  1  0
 34 35  1  0
 35121  1  0
 35122  1  0
 35123  1  0
 36 37  1  1
 36 38  1  0
 37124  1  0
 37125  1  0
 37126  1  0
 38 39  1  0
 38 40  2  0
 41 46  1  0
 41 82  1  0
 41 42  1  1
 42 43  1  0
 43 44  1  0
 43 45  1  0
 43127  1  6
 44128  1  0
 44129  1  0
 44130  1  0
 45 46  1  0
 45131  1  0
 45132  1  0
 46 47  1  1
 46 48  1  0
 47133  1  0
 47134  1  0
 47135  1  0
 48 49  1  0
 49 50  1  6
 49 51  1  0
 49 74  1  0
 50136  1  0
 51 52  1  0
 51 68  1  0
 51137  1  6
 52 53  1  0
 52138  1  0
 52139  1  0
 53 54  1  0
 53140  1  0
 53141  1  0
 54 55  1  1
 54 56  1  0
 55142  1  0
 56 57  1  0
 56 61  1  0
 56143  1  6
 57 58  1  0
 58 59  1  0
 58 60  2  0
 59144  1  0
 59145  1  0
 59146  1  0
 61 62  1  1
 66 61  1  6
 62 63  1  0
 63 64  1  0
 63 65  2  0
 64147  1  0
 64148  1  0
 64149  1  0
 66 67  2  0
 68 69  1  1
 68 70  1  0
 69150  1  0
 70 71  2  0
 70 72  1  0
 72 73  1  0
 73151  1  0
 73152  1  0
 73153  1  0
 74 75  1  0
 74 76  1  0
 74154  1  6
 75155  1  0
 76 82  1  0
 76 77  1  1
 76 78  1  0
 77156  1  0
 77157  1  0
 77158  1  0
 78 84  1  0
 78 79  1  6
 78 80  1  0
 79159  1  0
 80 81  1  0
 80160  1  0
 80161  1  0
 82 81  1  1
 81162  1  0
 81163  1  0
 82 83  1  0
 83 84  1  0
 83164  1  0
 83165  1  0
M  CHG  1  39  -1
M  END
>  <i_m_ct_stereo_status>  (87) 
1

>  <s_m_source_file>  (87) 
/var/tmp/pbs.5075288.sched01/tmphpu8_cit/24996nucuhu.sdf

>  <i_m_source_file_index>  (87) 
65

>  <i_lp_mmshare_version>  (87) 
48012

>  <i_f3d_flags>  (87) 
0

>  <s_epik_input>  (87) 
W0NIM11bQ0hdKFtDSDNdKVtDQF0xKFtDQF0yMzQpW0NASF01W0NIMl1bQ0BdKFtDSDNdKShDKD1bQ0gyXSlbQ0BAXShPMSkoW0NAXTUoW0NIM10pW09IXSlDKFtDSDNdKShbQ0gzXSlbT0hdKVtDQF02KE9DKD1PKVtDSDNdKVtDQEhdKE9DKD1PKVtDSDNdKVtDQEBdMyhbT0hdKVtDSDJdW0NIMl1bQ0BIXShDNChbT0hdKUMoPU8pT1tDSDNdKVtDQF03KFtPSF0pT1tDQF04KFtDSDNdKVtDQEBdKE9bQ0BASF0oW0NIM10pW0NIMl04KShbQ0BdMTlbQ0BdKFtDSDNdKShbQ0BASF03W09IXSlbQ0BAXShbT0hdKShbQ0gyXVtDSDJdOSlPW0NIMl0xKVtDQEBIXTFbQ0BIXShbQ0BIXTJbUytdNltPLV0pW0NAQF0oW0NIM10pKEMoPU8pW09IXSlbQ0BdMihPW0NIM10pW0NAQF0oQyhPMSk9TykoW09IXSlPQzIoW0NIM10pW0NIM10=

>  <s_epik_cmdline>  (87) 
J2VwaWtfcHl0aG9uJywgJy1waHQnLCAnMi4wJywgJy1waCcsICc3LjAnLCAnLXRuJywgJzgnLCAnLW1hJywgJzIwMCcsICctaW1hZScsICc8aW5maWxlLm1hZT4nLCAnLW9tYWUnLCAnPG91dGZpbGUubWFlPic=

>  <r_lp_tautomer_probability>  (87) 
1

>  <r_epik_Ionization_Penalty>  (87) 
0.000596268

>  <r_epik_Ionization_Penalty_Charging>  (87) 
0.000164927

>  <r_epik_Ionization_Penalty_Neutral>  (87) 
0.000431341

>  <r_epik_State_Penalty>  (87) 
-0

>  <r_epik_Charging_Adjusted_Penalty>  (87) 
0.000164927

>  <i_epik_Tot_Q>  (87) 
-1

>  <i_epik_Tot_abs_Q>  (87) 
3

>  <s_epik_Chemistry_Notes>  (87) 
This compound has an ester and may undergo hydrolysis at high or low pH.

>  <s_lp_Force_Field>  (87) 
OPLS3e

>  <r_lp_Energy>  (87) 
451.903

>  <b_lp_Chiralities_Consistent>  (87) 
1

>  <s_lp_Variant>  (87) 
99:0-2

>  <s_i_glide_gridfile>  (87) 
pfpi4k_grid

>  <i_i_glide_lignum>  (87) 
65

>  <i_i_glide_rotatable_bonds>  (87) 
18

>  <r_i_docking_score>  (87) 
-1.25086

>  <r_i_glide_ligand_efficiency>  (87) 
-0.0148912

>  <r_i_glide_ligand_efficiency_sa>  (87) 
-0.0652162

>  <r_i_glide_ligand_efficiency_ln>  (87) 
-0.230326

>  <r_i_glide_gscore>  (87) 
-1.25086

>  <r_i_glide_lipo>  (87) 
-0.332207

>  <r_i_glide_hbond>  (87) 
0

>  <r_i_glide_metal>  (87) 
-0

>  <r_i_glide_rewards>  (87) 
-1.32529

>  <r_i_glide_evdw>  (87) 
-11.0955

>  <r_i_glide_ecoul>  (87) 
0.0243071

>  <r_i_glide_erotb>  (87) 
0.0617948

>  <r_i_glide_esite>  (87) 
-0.0271576

>  <r_i_glide_emodel>  (87) 
-6.41588

>  <r_i_glide_energy>  (87) 
-11.0712

>  <r_i_glide_einternal>  (87) 
19.0358

>  <r_i_glide_intrahb_reward>  (87) 
-1

>  <i_i_glide_confnum>  (87) 
6

>  <i_i_glide_posenum>  (87) 
36

>  <r_i_glide_eff_state_penalty>  (87) 
0

>  <ligand_id>  (87) 
99

>  <original_smiles>  (87) 
C=C1C2(C)CC3C(C)(O)C1(C(C)(C)O)OC3(C(C)C)C13C4C5C(OC(=O)C6(O)OC(C)(C)C6(OC)C5(C)C(=O)O)C56OC(C)CC5(C)OC(O)(C(CCC1(O)C(OC(C)=O)C2(OC(C)=O)[S+]4[O-])C3(O)C(=O)OC)C(O)C1(C)C2(O)CCC16CO2

>  <smiles>  (87) 
[H]OC12OC(C([H])([H])[H])(C([H])([H])[H])C1(OC([H])([H])[H])C(C(=O)[O-])(C([H])([H])[H])C1([H])C([H])(OC2=O)C23OC([H])(C([H])([H])[H])C([H])([H])C2(C([H])([H])[H])OC(O[H])(C([H])(O[H])C2(C([H])([H])[H])C4(O[H])OC([H])([H])C32C([H])([H])C4([H])[H])C2([H])C([H])([H])C([H])([H])C3(O[H])C([H])(OC(=O)C([H])([H])[H])C4(OC(=O)C([H])([H])[H])S(=O)C1([H])C3(C2(O[H])C(=O)OC([H])([H])[H])C1(C([H])(C([H])([H])[H])C([H])([H])[H])OC2(C(O[H])(C([H])([H])[H])C([H])([H])[H])C(=C([H])[H])C4(C([H])([H])[H])C([H])([H])C1([H])C2(O[H])C([H])([H])[H]

$$$$
100:0:0
     RDKit          3D

109116  0  0  1  0  0  0  0  0999 V2000
    6.5280   -2.2942   10.0686 C   0  0  0  0  0  0  0  0  0  0  0  0
    6.7569   -1.4673    9.0316 C   0  0  0  0  0  0  0  0  0  0  0  0
    7.9748   -1.5309    8.2269 C   0  0  0  0  0  0  0  0  0  0  0  0
    8.8364   -2.4085    8.2488 O   0  0  0  0  0  0  0  0  0  0  0  0
    7.9916   -0.4585    7.4344 O   0  0  0  0  0  0  0  0  0  0  0  0
    7.0006    0.5163    7.7456 C   0  0  1  0  0  0  0  0  0  0  0  0
    7.7622    1.5991    8.5485 C   0  0  0  0  0  0  0  0  0  0  0  0
    6.4240    1.0972    6.4592 C   0  0  0  0  0  0  0  0  0  0  0  0
    5.7899    0.0369    5.5473 C   0  0  2  0  0  0  0  0  0  0  0  0
    4.9569    0.7728    4.6899 O   0  0  0  0  0  0  0  0  0  0  0  0
    4.0503   -0.1015    4.0591 C   0  0  2  0  0  0  0  0  0  0  0  0
    3.0445    0.7177    3.2216 C   0  0  0  0  0  0  0  0  0  0  0  0
    1.4907    0.4646    3.1822 C   0  0  1  0  0  0  0  0  0  0  0  0
    1.0584    0.0300    1.7402 C   0  0  0  0  0  0  0  0  0  0  0  0
    1.0341   -1.1348    4.1037 S   0  0  0  0  0  0  0  0  0  0  0  0
    1.2199   -2.3855    3.2401 O   0  0  0  0  0  0  0  0  0  0  0  0
    2.1327   -1.2074    5.6214 C   0  0  2  0  0  0  0  0  0  0  0  0
    1.7811   -2.5976    6.2408 C   0  0  0  0  0  0  0  0  0  0  0  0
    1.4372   -0.1189    6.5074 C   0  0  1  0  0  0  0  0  0  0  0  0
    1.8306    0.0155    7.8806 O   0  0  0  0  0  0  0  0  0  0  0  0
    0.9784    0.3902    8.8995 C   0  0  0  0  0  0  0  0  0  0  0  0
   -0.3865    0.8049    8.4259 C   0  0  0  0  0  0  0  0  0  0  0  0
    1.3158    0.5195   10.0753 O   0  0  0  0  0  0  0  0  0  0  0  0
    1.0314    1.2153    5.8832 C   0  0  0  0  0  0  0  0  0  0  0  0
   -0.0507    1.4617    5.1034 C   0  0  0  0  0  0  0  0  0  0  0  0
   -0.7648    2.8246    5.4377 C   0  0  0  0  0  0  0  0  0  0  0  0
   -2.2269    2.9182    4.9444 C   0  0  0  0  0  0  0  0  0  0  0  0
   -0.8812    3.2990    6.9077 C   0  0  0  0  0  0  0  0  0  0  0  0
    0.1472    3.7372    4.8753 O   0  0  0  0  0  0  0  0  0  0  0  0
    1.3073    3.0009    4.4077 C   0  0  1  0  0  0  0  0  0  0  0  0
    2.2024    3.9709    3.6244 C   0  0  0  0  0  0  0  0  0  0  0  0
    2.5236    3.7542    2.4650 O   0  0  0  0  0  0  0  0  0  0  0  0
    2.5589    5.0646    4.3328 O   0  0  0  0  0  0  0  0  0  0  0  0
    3.2782    6.1015    3.6844 C   0  0  0  0  0  0  0  0  0  0  0  0
    1.9841    2.2651    5.5990 C   0  0  0  0  0  0  0  0  0  0  0  0
    3.0950    2.4605    6.0938 O   0  0  0  0  0  0  0  0  0  0  0  0
    0.6051    1.7607    3.7351 C   0  0  1  0  0  0  0  0  0  0  0  0
   -0.3612    2.2253    2.6063 C   0  0  0  0  0  0  0  0  0  0  0  0
    3.6732   -1.1919    5.1427 C   0  0  1  0  0  0  0  0  0  0  0  0
    3.7086   -2.4896    4.4449 O   0  0  0  0  0  0  0  0  0  0  0  0
    4.7480   -3.0441    3.6534 C   0  0  2  0  0  0  0  0  0  0  0  0
    4.9760   -2.3596    2.4751 O   0  0  0  0  0  0  0  0  0  0  0  0
    4.0027   -2.3878    1.4249 C   0  0  1  0  0  0  0  0  0  0  0  0
    3.9304   -1.0099    0.7240 C   0  0  0  0  0  0  0  0  0  0  0  0
    3.4209   -1.0686   -0.5947 O   0  0  0  0  0  0  0  0  0  0  0  0
    4.5081   -3.3975    0.3788 C   0  0  1  0  0  0  0  0  0  0  0  0
    5.8033   -2.9635    0.0072 O   0  0  0  0  0  0  0  0  0  0  0  0
    4.4535   -4.8406    0.8349 C   0  0  1  0  0  0  0  0  0  0  0  0
    4.9901   -5.6151   -0.2144 O   0  0  0  0  0  0  0  0  0  0  0  0
    5.1625   -5.1295    2.1722 C   0  0  1  0  0  0  0  0  0  0  0  0
    6.5094   -4.6938    2.1262 O   0  0  0  0  0  0  0  0  0  0  0  0
    4.4013   -4.5499    3.3875 C   0  0  1  0  0  0  0  0  0  0  0  0
    4.7619   -5.3149    4.5168 O   0  0  0  0  0  0  0  0  0  0  0  0
    4.8765   -1.0433    6.2087 C   0  0  1  0  0  0  0  0  0  0  0  0
    5.5932   -2.2549    6.3470 O   0  0  0  0  0  0  0  0  0  0  0  0
    4.6514   -0.6471    7.6999 C   0  0  1  0  0  0  0  0  0  0  0  0
    3.9233   -1.6399    8.4198 O   0  0  0  0  0  0  0  0  0  0  0  0
    5.9320   -0.2859    8.5547 C   0  0  1  0  0  0  0  0  0  0  0  0
    5.4484    0.4612    9.6659 O   0  0  0  0  0  0  0  0  0  0  0  0
    5.6436   -2.1980   10.6743 H   0  0  0  0  0  0  0  0  0  0  0  0
    7.2247   -3.0814   10.3242 H   0  0  0  0  0  0  0  0  0  0  0  0
    7.1138    2.4340    8.8126 H   0  0  0  0  0  0  0  0  0  0  0  0
    8.5930    2.0062    7.9668 H   0  0  0  0  0  0  0  0  0  0  0  0
    8.1868    1.2018    9.4701 H   0  0  0  0  0  0  0  0  0  0  0  0
    5.6795    1.8513    6.7274 H   0  0  0  0  0  0  0  0  0  0  0  0
    7.2035    1.6295    5.9069 H   0  0  0  0  0  0  0  0  0  0  0  0
    6.5803   -0.4080    4.9498 H   0  0  0  0  0  0  0  0  0  0  0  0
    4.7120   -0.4756    3.3381 H   0  0  0  0  0  0  0  0  0  0  0  0
    3.2858    1.7423    3.4475 H   0  0  0  0  0  0  0  0  0  0  0  0
    3.4799    0.9032    2.2911 H   0  0  0  0  0  0  0  0  0  0  0  0
    1.3766    0.7607    0.9829 H   0  0  0  0  0  0  0  0  0  0  0  0
    0.0110   -0.1823    1.6232 H   0  0  0  0  0  0  0  0  0  0  0  0
    1.4538   -0.9262    1.4354 H   0  0  0  0  0  0  0  0  0  0  0  0
    2.5915   -2.9945    6.8414 H   0  0  0  0  0  0  0  0  0  0  0  0
    1.5838   -3.3613    5.4871 H   0  0  0  0  0  0  0  0  0  0  0  0
    0.8956   -2.5738    6.8768 H   0  0  0  0  0  0  0  0  0  0  0  0
    0.4498   -0.5619    6.5747 H   0  0  0  0  0  0  0  0  0  0  0  0
   -0.0220    1.5620    7.8093 H   0  0  0  0  0  0  0  0  0  0  0  0
   -1.0248    1.3143    9.1537 H   0  0  0  0  0  0  0  0  0  0  0  0
   -0.9194    0.1017    7.7623 H   0  0  0  0  0  0  0  0  0  0  0  0
   -2.9177    2.4270    5.6299 H   0  0  0  0  0  0  0  0  0  0  0  0
   -2.4396    2.4740    3.9780 H   0  0  0  0  0  0  0  0  0  0  0  0
   -2.5471    3.9633    4.8985 H   0  0  0  0  0  0  0  0  0  0  0  0
   -1.5418    2.6115    7.4700 H   0  0  0  0  0  0  0  0  0  0  0  0
   -1.3285    4.2462    7.0788 H   0  0  0  0  0  0  0  0  0  0  0  0
    0.1105    3.3567    7.4131 H   0  0  0  0  0  0  0  0  0  0  0  0
    3.4990    6.8991    4.3908 H   0  0  0  0  0  0  0  0  0  0  0  0
    2.6856    6.5334    2.8843 H   0  0  0  0  0  0  0  0  0  0  0  0
    4.2162    5.7408    3.2688 H   0  0  0  0  0  0  0  0  0  0  0  0
    0.1643    2.3807    1.6715 H   0  0  0  0  0  0  0  0  0  0  0  0
   -0.8179    3.1996    2.7714 H   0  0  0  0  0  0  0  0  0  0  0  0
   -1.1549    1.5014    2.4192 H   0  0  0  0  0  0  0  0  0  0  0  0
    5.7012   -3.0026    4.1629 H   0  0  0  0  0  0  0  0  0  0  0  0
    3.0132   -2.6525    1.8211 H   0  0  0  0  0  0  0  0  0  0  0  0
    3.2406   -0.5040    1.1888 H   0  0  0  0  0  0  0  0  0  0  0  0
    4.8641   -0.4454    0.8249 H   0  0  0  0  0  0  0  0  0  0  0  0
    2.4778   -1.0735   -0.5300 H   0  0  0  0  0  0  0  0  0  0  0  0
    3.8736   -3.3075   -0.4966 H   0  0  0  0  0  0  0  0  0  0  0  0
    6.3701   -3.1144    0.7350 H   0  0  0  0  0  0  0  0  0  0  0  0
    3.4013   -5.1260    0.9076 H   0  0  0  0  0  0  0  0  0  0  0  0
    4.4482   -5.5130   -0.9812 H   0  0  0  0  0  0  0  0  0  0  0  0
    5.1836   -6.2078    2.2633 H   0  0  0  0  0  0  0  0  0  0  0  0
    6.5037   -3.7577    2.0826 H   0  0  0  0  0  0  0  0  0  0  0  0
    3.3305   -4.6337    3.2421 H   0  0  0  0  0  0  0  0  0  0  0  0
    5.6942   -5.2625    4.6283 H   0  0  0  0  0  0  0  0  0  0  0  0
    5.8102   -2.5898    5.5003 H   0  0  0  0  0  0  0  0  0  0  0  0
    4.0812    0.2747    7.6557 H   0  0  0  0  0  0  0  0  0  0  0  0
    3.7407   -1.3221    9.2842 H   0  0  0  0  0  0  0  0  0  0  0  0
    4.7760   -0.0342   10.0988 H   0  0  0  0  0  0  0  0  0  0  0  0
  1  2  2  0
  1 60  1  0
  1 61  1  0
  2 58  1  0
  2  3  1  0
  3  4  2  0
  3  5  1  0
  5  6  1  0
  6 58  1  0
  6  7  1  1
  6  8  1  0
  7 62  1  0
  7 63  1  0
  7 64  1  0
  8  9  1  0
  8 65  1  0
  8 66  1  0
  9 54  1  0
  9 10  1  0
  9 67  1  6
 10 11  1  0
 11 39  1  0
 11 12  1  0
 11 68  1  6
 12 13  1  0
 12 69  1  0
 12 70  1  0
 13 37  1  0
 13 14  1  6
 15 13  1  6
 14 71  1  0
 14 72  1  0
 14 73  1  0
 15 16  2  0
 15 17  1  0
 17 18  1  1
 17 19  1  0
 17 39  1  0
 18 74  1  0
 18 75  1  0
 18 76  1  0
 19 20  1  0
 19 24  1  0
 19 77  1  1
 20 21  1  0
 21 22  1  0
 21 23  2  0
 22 78  1  0
 22 79  1  0
 22 80  1  0
 24 35  1  0
 24 25  2  0
 25 37  1  0
 25 26  1  0
 26 27  1  0
 26 28  1  0
 26 29  1  0
 27 81  1  0
 27 82  1  0
 27 83  1  0
 28 84  1  0
 28 85  1  0
 28 86  1  0
 29 30  1  0
 30 31  1  6
 30 35  1  0
 30 37  1  0
 31 32  2  0
 31 33  1  0
 33 34  1  0
 34 87  1  0
 34 88  1  0
 34 89  1  0
 35 36  2  0
 37 38  1  6
 38 90  1  0
 38 91  1  0
 38 92  1  0
 39 40  1  6
 39 54  1  0
 40 41  1  0
 41 52  1  0
 41 42  1  0
 41 93  1  1
 42 43  1  0
 43 44  1  0
 43 46  1  0
 43 94  1  1
 44 45  1  0
 44 95  1  0
 44 96  1  0
 45 97  1  0
 46 47  1  0
 46 48  1  0
 46 98  1  6
 47 99  1  0
 48 49  1  0
 48 50  1  0
 48100  1  1
 49101  1  0
 50 51  1  0
 50 52  1  0
 50102  1  1
 51103  1  0
 52 53  1  0
 52104  1  6
 53105  1  0
 54 55  1  1
 54 56  1  0
 55106  1  0
 56 57  1  0
 56 58  1  0
 56107  1  6
 57108  1  0
 58 59  1  1
 59109  1  0
M  END
>  <i_m_ct_stereo_status>  (88) 
1

>  <s_m_source_file>  (88) 
/var/tmp/pbs.5075288.sched01/tmphpu8_cit/24996nucuhu.sdf

>  <i_m_source_file_index>  (88) 
72

>  <i_lp_mmshare_version>  (88) 
48012

>  <i_f3d_flags>  (88) 
0

>  <s_epik_input>  (88) 
Tz1DKE8xKUMoPVtDSDJdKVtDQEBdKFtPSF0pKFtDQEBdMTJbQ0gzXSlbQ0BIXShbT0hdKVtDQF0zKFtPSF0pW0NASF0oW0NIMl0yKU9bQ0BIXTRbQ0BdMyhPW0NAQEhdNU9bQ0BASF0oW0NIMl1bT0hdKVtDQEBIXShbT0hdKVtDQEBIXShbT0hdKVtDQEBIXShbT0hdKVtDQEhdNVtPSF0pW0NAXTYoW0NIM10pW1MrXShbTy1dKVtDQEBdKFtDSDJdNCkoW0NIM10pW0NAQF03KFtDSDNdKUM4PUMoW0NAQEhdNk9DKD1PKVtDSDNdKUMoPU8pW0NAQF03KE9DOChbQ0gzXSlbQ0gzXSlDKD1PKU9bQ0gzXQ==

>  <s_epik_cmdline>  (88) 
J2VwaWtfcHl0aG9uJywgJy1waHQnLCAnMi4wJywgJy1waCcsICc3LjAnLCAnLXRuJywgJzgnLCAnLW1hJywgJzIwMCcsICctaW1hZScsICc8aW5maWxlLm1hZT4nLCAnLW9tYWUnLCAnPG91dGZpbGUubWFlPic=

>  <r_lp_tautomer_probability>  (88) 
1

>  <r_epik_Ionization_Penalty>  (88) 
0.000364244

>  <r_epik_Ionization_Penalty_Charging>  (88) 
0

>  <r_epik_Ionization_Penalty_Neutral>  (88) 
0.000364244

>  <r_epik_State_Penalty>  (88) 
-0

>  <r_epik_Charging_Adjusted_Penalty>  (88) 
0

>  <i_epik_Tot_Q>  (88) 
0

>  <i_epik_Tot_abs_Q>  (88) 
2

>  <s_epik_Chemistry_Notes>  (88) 
This compound has an ester and may undergo hydrolysis at high or low pH. This compound contains an acetal/aminal-like group ( X-CH(R)-Y where X, Y are N, S, or O) that may be acid/base labile, releasing an aldehyde.

>  <s_lp_Force_Field>  (88) 
OPLS3e

>  <r_lp_Energy>  (88) 
186.667

>  <b_lp_Chiralities_Consistent>  (88) 
1

>  <s_lp_Variant>  (88) 
100:0-1

>  <s_i_glide_gridfile>  (88) 
pfpi4k_grid

>  <i_i_glide_lignum>  (88) 
72

>  <i_i_glide_rotatable_bonds>  (88) 
15

>  <r_i_docking_score>  (88) 
0.0758802

>  <r_i_glide_ligand_efficiency>  (88) 
0.0012861

>  <r_i_glide_ligand_efficiency_sa>  (88) 
0.0050068

>  <r_i_glide_ligand_efficiency_ln>  (88) 
0.0149443

>  <r_i_glide_gscore>  (88) 
0.0758802

>  <r_i_glide_lipo>  (88) 
-0.342397

>  <r_i_glide_hbond>  (88) 
0

>  <r_i_glide_metal>  (88) 
-0

>  <r_i_glide_rewards>  (88) 
-0.135952

>  <r_i_glide_evdw>  (88) 
-35.2561

>  <r_i_glide_ecoul>  (88) 
-3.32436

>  <r_i_glide_erotb>  (88) 
0.148751

>  <r_i_glide_esite>  (88) 
-0.0424355

>  <r_i_glide_emodel>  (88) 
-24.3855

>  <r_i_glide_energy>  (88) 
-38.5805

>  <r_i_glide_einternal>  (88) 
12.2708

>  <r_i_glide_intrahb_reward>  (88) 
-0

>  <i_i_glide_confnum>  (88) 
2

>  <i_i_glide_posenum>  (88) 
34

>  <r_i_glide_eff_state_penalty>  (88) 
0

>  <ligand_id>  (88) 
100

>  <original_smiles>  (88) 
C=C1C(=O)OC2(C)CC3OC4CC5(C)[S+]([O-])C(C)(C(OC(C)=O)C6=C7C(C)(C)OC(C(=O)OC)(C6=O)C75C)C4(OC4OC(CO)C(O)C(O)C(O)C4O)C3(O)C(O)C12O

>  <smiles>  (88) 
[H]OC([H])([H])C1([H])OC([H])(OC23C([H])(OC4([H])C([H])([H])C5(C([H])([H])[H])OC(=O)C(=C([H])[H])C5(O[H])C([H])(O[H])C42O[H])C([H])([H])C2(C([H])([H])[H])S(=O)C3(C([H])([H])[H])C([H])(OC(=O)C([H])([H])[H])C3=C4C(C([H])([H])[H])(C([H])([H])[H])OC(C(=O)OC([H])([H])[H])(C3=O)C42C([H])([H])[H])C([H])(O[H])C([H])(O[H])C([H])(O[H])C1([H])O[H]

$$$$
103:0:0
     RDKit          3D

123133  0  0  1  0  0  0  0  0999 V2000
    4.8894   -8.8703    0.7884 C   0  0  0  0  0  0  0  0  0  0  0  0
    5.3604   -8.9183    2.0170 C   0  0  0  0  0  0  0  0  0  0  0  0
    5.8704  -10.1474    2.6555 C   0  0  0  0  0  0  0  0  0  0  0  0
    6.0703  -11.2243    2.0943 O   0  0  0  0  0  0  0  0  0  0  0  0
    6.2443   -9.9125    3.9161 O   0  0  0  0  0  0  0  0  0  0  0  0
    5.8262   -8.6730    4.4212 C   0  0  2  0  0  0  0  0  0  0  0  0
    6.9613   -8.0714    5.0539 O   0  0  0  0  0  0  0  0  0  0  0  0
    4.8447   -9.2116    5.6775 C   0  0  1  0  0  0  0  0  0  0  0  0
    5.6351   -8.8303    7.3725 S   0  0  0  0  0  0  0  0  0  0  0  0
    5.8586  -10.1920    8.0469 O   0  0  0  0  0  0  0  0  0  0  0  0
    4.5032   -7.7621    8.4874 C   0  0  1  0  0  0  0  0  0  0  0  0
    5.2466   -6.9897    9.4056 O   0  0  0  0  0  0  0  0  0  0  0  0
    3.4895   -6.8083    7.6581 C   0  0  2  0  0  0  0  0  0  0  0  0
    4.1224   -5.5295    7.7534 O   0  0  0  0  0  0  0  0  0  0  0  0
    1.9371   -6.5079    7.8984 C   0  0  1  0  0  0  0  0  0  0  0  0
    1.1422   -7.6614    8.5246 C   0  0  0  0  0  0  0  0  0  0  0  0
    1.7429   -5.4407    9.0672 C   0  0  0  0  0  0  0  0  0  0  0  0
    0.4415   -4.6353    8.9471 C   0  0  0  0  0  0  0  0  0  0  0  0
    0.3849   -3.9131    7.5903 C   0  0  1  0  0  0  0  0  0  0  0  0
    0.4039   -2.5176    7.8252 O   0  0  0  0  0  0  0  0  0  0  0  0
    1.5489   -4.3148    6.6650 C   0  0  0  0  0  0  0  0  0  0  0  0
    1.5396   -5.8806    6.4272 C   0  0  1  0  0  0  0  0  0  0  0  0
    2.4360   -6.6322    5.6695 O   0  0  0  0  0  0  0  0  0  0  0  0
    3.4702   -7.2497    6.2201 C   0  0  1  0  0  0  0  0  0  0  0  0
    4.6068   -6.6306    5.6178 O   0  0  0  0  0  0  0  0  0  0  0  0
    3.3241   -8.8537    5.8664 C   0  0  2  0  0  0  0  0  0  0  0  0
    2.8965   -9.8411    7.0408 C   0  0  0  0  0  0  0  0  0  0  0  0
    2.2052   -9.3393    4.7590 C   0  0  2  0  0  0  0  0  0  0  0  0
    2.3383  -10.7719    4.6859 O   0  0  0  0  0  0  0  0  0  0  0  0
    2.5769   -8.8991    3.3662 C   0  0  1  0  0  0  0  0  0  0  0  0
    2.5373   -9.8677    2.3219 O   0  0  0  0  0  0  0  0  0  0  0  0
    1.8563   -7.5928    3.0152 C   0  0  2  0  0  0  0  0  0  0  0  0
    1.0463   -7.9168    1.8698 O   0  0  0  0  0  0  0  0  0  0  0  0
    2.9581   -6.4053    2.6682 C   0  0  2  0  0  0  0  0  0  0  0  0
    2.8988   -6.5351    1.2842 O   0  0  0  0  0  0  0  0  0  0  0  0
    4.5569   -6.4989    2.7878 C   0  0  0  0  0  0  0  0  0  0  0  0
    5.2598   -5.4658    2.4381 N   0  0  0  0  0  0  0  0  0  0  0  0
    5.0895   -4.1655    1.7477 C   0  0  1  0  0  0  0  0  0  0  0  0
    6.5519   -3.8383    1.4772 C   0  0  0  0  0  0  0  0  0  0  0  0
    4.4036   -4.2029    0.3886 C   0  0  1  0  0  0  0  0  0  0  0  0
    4.6432   -5.3916   -0.3153 O   0  0  0  0  0  0  0  0  0  0  0  0
    2.9549   -3.7672    0.6985 C   0  0  1  0  0  0  0  0  0  0  0  0
    2.0543   -4.4728   -0.1320 O   0  0  0  0  0  0  0  0  0  0  0  0
    2.7938   -3.5874    2.2945 C   0  0  2  0  0  0  0  0  0  0  0  0
    1.8124   -2.3949    2.6738 C   0  0  1  0  0  0  0  0  0  0  0  0
    1.8880   -1.9908    4.0321 O   0  0  0  0  0  0  0  0  0  0  0  0
    2.0624   -1.0506    1.9364 C   0  0  1  0  0  0  0  0  0  0  0  0
    1.0552   -0.1160    2.3607 O   0  0  0  0  0  0  0  0  0  0  0  0
    0.9617    1.0735    1.5725 C   0  0  0  0  0  0  0  0  0  0  0  0
    3.4671   -0.5332    2.2671 C   0  0  0  0  0  0  0  0  0  0  0  0
    4.5797   -1.5776    2.0611 C   0  0  1  0  0  0  0  0  0  0  0  0
    5.7981   -0.9298    2.7516 C   0  0  0  0  0  0  0  0  0  0  0  0
    4.2902   -3.0775    2.5465 C   0  0  2  0  0  0  0  0  0  0  0  0
    2.4345   -4.9463    3.1727 C   0  0  2  0  0  0  0  0  0  0  0  0
    3.1406   -4.6267    4.3319 O   0  0  0  0  0  0  0  0  0  0  0  0
    0.9790   -5.0714    3.8293 C   0  0  0  0  0  0  0  0  0  0  0  0
    0.6971   -6.1443    5.0207 C   0  0  1  0  0  0  0  0  0  0  0  0
    0.6857   -7.4737    4.1342 C   0  0  1  0  0  0  0  0  0  0  0  0
   -0.6421   -7.3308    3.5830 O   0  0  0  0  0  0  0  0  0  0  0  0
    0.6545   -8.9229    4.7505 C   0  0  0  0  0  0  0  0  0  0  0  0
   -0.1193   -9.9571    3.8356 C   0  0  0  0  0  0  0  0  0  0  0  0
   -0.2565   -8.9657    5.9922 C   0  0  0  0  0  0  0  0  0  0  0  0
    5.5653   -7.8083    3.0216 C   0  0  2  0  0  0  0  0  0  0  0  0
    6.8714   -7.3914    2.5916 O   0  0  0  0  0  0  0  0  0  0  0  0
    4.6130   -7.9576    0.2700 H   0  0  0  0  0  0  0  0  0  0  0  0
    4.7750   -9.7845    0.2179 H   0  0  0  0  0  0  0  0  0  0  0  0
    7.2703   -8.6388    5.7281 H   0  0  0  0  0  0  0  0  0  0  0  0
    4.8573  -10.3016    5.5600 H   0  0  0  0  0  0  0  0  0  0  0  0
    3.9922   -8.3969    9.2081 H   0  0  0  0  0  0  0  0  0  0  0  0
    4.9292   -7.1319   10.2782 H   0  0  0  0  0  0  0  0  0  0  0  0
    5.0299   -5.6545    7.5661 H   0  0  0  0  0  0  0  0  0  0  0  0
    0.0965   -7.3991    8.7141 H   0  0  0  0  0  0  0  0  0  0  0  0
    1.5723   -7.9975    9.4656 H   0  0  0  0  0  0  0  0  0  0  0  0
    1.1218   -8.5353    7.9317 H   0  0  0  0  0  0  0  0  0  0  0  0
    1.7358   -5.9257   10.0464 H   0  0  0  0  0  0  0  0  0  0  0  0
    2.5410   -4.7219    9.1934 H   0  0  0  0  0  0  0  0  0  0  0  0
   -0.4272   -5.2747    9.0629 H   0  0  0  0  0  0  0  0  0  0  0  0
    0.3780   -3.9303    9.7787 H   0  0  0  0  0  0  0  0  0  0  0  0
   -0.5701   -4.1306    7.1173 H   0  0  0  0  0  0  0  0  0  0  0  0
    0.6624   -2.0872    7.0256 H   0  0  0  0  0  0  0  0  0  0  0  0
    1.4435   -3.6873    5.8035 H   0  0  0  0  0  0  0  0  0  0  0  0
    2.4932   -3.9611    7.0594 H   0  0  0  0  0  0  0  0  0  0  0  0
    5.3991   -6.9461    6.0083 H   0  0  0  0  0  0  0  0  0  0  0  0
    1.8839  -10.2141    6.9718 H   0  0  0  0  0  0  0  0  0  0  0  0
    2.9571   -9.5354    8.0632 H   0  0  0  0  0  0  0  0  0  0  0  0
    3.4696  -10.7788    7.0239 H   0  0  0  0  0  0  0  0  0  0  0  0
    2.0242  -11.1449    5.4969 H   0  0  0  0  0  0  0  0  0  0  0  0
    3.5685   -8.7439    3.5385 H   0  0  0  0  0  0  0  0  0  0  0  0
    3.0234  -10.6199    2.6253 H   0  0  0  0  0  0  0  0  0  0  0  0
    0.8878   -8.8497    1.9036 H   0  0  0  0  0  0  0  0  0  0  0  0
    2.8912   -7.4584    1.0892 H   0  0  0  0  0  0  0  0  0  0  0  0
    6.6924   -2.9187    0.8876 H   0  0  0  0  0  0  0  0  0  0  0  0
    7.0259   -4.6543    0.9033 H   0  0  0  0  0  0  0  0  0  0  0  0
    6.9521   -3.7798    2.4750 H   0  0  0  0  0  0  0  0  0  0  0  0
    4.8368   -3.4243   -0.2303 H   0  0  0  0  0  0  0  0  0  0  0  0
    4.0251   -5.9947    0.0747 H   0  0  0  0  0  0  0  0  0  0  0  0
    2.9546   -2.7897    0.2312 H   0  0  0  0  0  0  0  0  0  0  0  0
    2.0578   -4.0513   -0.9765 H   0  0  0  0  0  0  0  0  0  0  0  0
    0.7774   -2.6598    2.4975 H   0  0  0  0  0  0  0  0  0  0  0  0
    1.3048   -1.2551    4.0898 H   0  0  0  0  0  0  0  0  0  0  0  0
    1.9745   -1.1729    0.8890 H   0  0  0  0  0  0  0  0  0  0  0  0
    0.1130    1.6715    1.8977 H   0  0  0  0  0  0  0  0  0  0  0  0
    0.8191    0.8571    0.5105 H   0  0  0  0  0  0  0  0  0  0  0  0
    1.8638    1.6913    1.6683 H   0  0  0  0  0  0  0  0  0  0  0  0
    3.6720    0.3083    1.5980 H   0  0  0  0  0  0  0  0  0  0  0  0
    3.5088   -0.1037    3.2617 H   0  0  0  0  0  0  0  0  0  0  0  0
    4.8071   -1.5855    1.0060 H   0  0  0  0  0  0  0  0  0  0  0  0
    5.6526   -0.8404    3.8272 H   0  0  0  0  0  0  0  0  0  0  0  0
    5.9709    0.0770    2.3664 H   0  0  0  0  0  0  0  0  0  0  0  0
    6.6779   -1.5080    2.5376 H   0  0  0  0  0  0  0  0  0  0  0  0
    4.5945   -3.0256    3.5946 H   0  0  0  0  0  0  0  0  0  0  0  0
    4.0544   -4.6151    4.1102 H   0  0  0  0  0  0  0  0  0  0  0  0
    0.5494   -4.1157    4.1074 H   0  0  0  0  0  0  0  0  0  0  0  0
    0.3589   -5.2899    2.9663 H   0  0  0  0  0  0  0  0  0  0  0  0
   -0.3279   -5.9702    5.3437 H   0  0  0  0  0  0  0  0  0  0  0  0
   -0.8193   -8.1606    3.1845 H   0  0  0  0  0  0  0  0  0  0  0  0
   -1.1698   -9.7112    3.6750 H   0  0  0  0  0  0  0  0  0  0  0  0
   -0.1470  -10.9350    4.3104 H   0  0  0  0  0  0  0  0  0  0  0  0
    0.2753  -10.1444    2.8474 H   0  0  0  0  0  0  0  0  0  0  0  0
   -1.3081   -9.0401    5.7050 H   0  0  0  0  0  0  0  0  0  0  0  0
   -0.2249   -8.0300    6.5275 H   0  0  0  0  0  0  0  0  0  0  0  0
   -0.1151   -9.8209    6.6494 H   0  0  0  0  0  0  0  0  0  0  0  0
    7.5046   -8.0088    2.9207 H   0  0  0  0  0  0  0  0  0  0  0  0
  1  2  2  0
  1 65  1  0
  1 66  1  0
  2 63  1  0
  2  3  1  0
  3  4  2  0
  3  5  1  0
  5  6  1  0
  6 63  1  0
  6  7  1  1
  6  8  1  0
  7 67  1  0
  8 26  1  0
  8  9  1  0
  8 68  1  6
  9 10  2  0
  9 11  1  1
 11 12  1  0
 11 13  1  0
 11 69  1  1
 12 70  1  0
 13 24  1  0
 13 14  1  6
 13 15  1  0
 14 71  1  0
 15 22  1  0
 15 16  1  1
 15 17  1  0
 16 72  1  0
 16 73  1  0
 16 74  1  0
 17 18  1  0
 17 75  1  0
 17 76  1  0
 18 19  1  0
 18 77  1  0
 18 78  1  0
 19 20  1  0
 19 21  1  0
 19 79  1  6
 20 80  1  0
 22 21  1  1
 21 81  1  0
 21 82  1  0
 22 57  1  0
 22 23  1  0
 23 24  1  0
 24 25  1  6
 24 26  1  0
 25 83  1  0
 26 27  1  1
 26 28  1  0
 27 84  1  0
 27 85  1  0
 27 86  1  0
 28 60  1  0
 28 29  1  6
 28 30  1  0
 29 87  1  0
 30 31  1  0
 30 32  1  0
 30 88  1  1
 31 89  1  0
 32 58  1  0
 32 33  1  6
 32 34  1  0
 33 90  1  0
 34 54  1  0
 34 35  1  6
 34 36  1  0
 35 91  1  0
 36 37  2  0
 36 63  1  0
 37 38  1  0
 38 53  1  0
 38 39  1  6
 38 40  1  0
 39 92  1  0
 39 93  1  0
 39 94  1  0
 40 41  1  0
 40 42  1  0
 40 95  1  6
 41 96  1  0
 42 43  1  0
 42 44  1  0
 42 97  1  6
 43 98  1  0
 44 53  1  0
 44 45  1  0
 44 54  1  1
 45 46  1  0
 45 47  1  0
 45 99  1  1
 46100  1  0
 47 48  1  0
 47 50  1  0
 47101  1  6
 48 49  1  0
 49102  1  0
 49103  1  0
 49104  1  0
 50 51  1  0
 50105  1  0
 50106  1  0
 51 52  1  0
 51 53  1  0
 51107  1  6
 52108  1  0
 52109  1  0
 52110  1  0
 53111  1  1
 54 55  1  1
 54 56  1  0
 55112  1  0
 56 57  1  0
 56113  1  0
 56114  1  0
 57 58  1  0
 57115  1  1
 58 59  1  6
 58 60  1  0
 59116  1  0
 60 61  1  0
 60 62  1  0
 61117  1  0
 61118  1  0
 61119  1  0
 62120  1  0
 62121  1  0
 62122  1  0
 63 64  1  6
 64123  1  0
M  END
>  <i_m_ct_stereo_status>  (89) 
1

>  <s_m_source_file>  (89) 
/var/tmp/pbs.5075288.sched01/tmphpu8_cit/24996nucuhu.sdf

>  <i_m_source_file_index>  (89) 
76

>  <i_lp_mmshare_version>  (89) 
48012

>  <i_f3d_flags>  (89) 
0

>  <s_epik_input>  (89) 
W09IXVtDQEBIXShbQ0gyXTEpW0NIMl1bQ0gyXVtDQF0oW0NAQF0xMjMpKFtDSDNdKVtDQF00KFtPSF0pW0NAQF0oTzIpKFtPSF0pW0NAXTUoW0NIM10pW0NASF0oW1MrXShbTy1dKVtDQEhdNFtPSF0pW0NAXTYoW09IXSlbQ0BAXShbT0hdKShDKD1bQ0gyXSlDKD1PKU82KUM9N1tDQEBdOChbT0hdKVtDQF05KFtPSF0pW0NAQF0oW09IXSkoQyhbQ0gzXSkoW0NIM10pW0NAQF01KFtPSF0pW0NASF05W09IXSlbQ0BASF0zW0NIMl1bQ0BdOChbT0hdKVtDQEBdMTJbQ0BASF0oW0NAXShONykoW0NIM10pW0NAQEhdKFtPSF0pW0NASF0xW09IXSlbQ0BIXShbQ0gzXSlbQ0gyXVtDQEBIXShbQ0BASF0yW09IXSlPW0NIM10=

>  <s_epik_cmdline>  (89) 
J2VwaWtfcHl0aG9uJywgJy1waHQnLCAnMi4wJywgJy1waCcsICc3LjAnLCAnLXRuJywgJzgnLCAnLW1hJywgJzIwMCcsICctaW1hZScsICc8aW5maWxlLm1hZT4nLCAnLW9tYWUnLCAnPG91dGZpbGUubWFlPic=

>  <r_epik_Ionization_Penalty>  (89) 
0.13752

>  <r_epik_Ionization_Penalty_Charging>  (89) 
0

>  <r_epik_Ionization_Penalty_Neutral>  (89) 
0.13752

>  <r_epik_State_Penalty>  (89) 
0.105157

>  <r_epik_Charging_Adjusted_Penalty>  (89) 
0.105157

>  <i_epik_Tot_Q>  (89) 
0

>  <i_epik_Tot_abs_Q>  (89) 
2

>  <s_epik_Chemistry_Notes>  (89) 
This compound has an ester and may undergo hydrolysis at high or low pH. This compound has an imine and may undergo hydrolysis. This compound contains an acetal/aminal-like group ( X-CH(R)-Y where X, Y are N, S, or O) that may be acid/base labile, releasing an aldehyde.

>  <s_lp_Force_Field>  (89) 
OPLS3e

>  <r_lp_Energy>  (89) 
520.058

>  <b_lp_Chiralities_Consistent>  (89) 
1

>  <s_lp_Variant>  (89) 
103:0-1

>  <s_i_glide_gridfile>  (89) 
pfpi4k_grid

>  <i_i_glide_lignum>  (89) 
76

>  <i_i_glide_rotatable_bonds>  (89) 
16

>  <r_i_docking_score>  (89) 
-3.11855

>  <r_i_glide_ligand_efficiency>  (89) 
-0.0487273

>  <r_i_glide_ligand_efficiency_sa>  (89) 
-0.194909

>  <r_i_glide_ligand_efficiency_ln>  (89) 
-0.604501

>  <r_i_glide_gscore>  (89) 
-3.11855

>  <r_i_glide_lipo>  (89) 
-0.279781

>  <r_i_glide_hbond>  (89) 
0

>  <r_i_glide_metal>  (89) 
-0

>  <r_i_glide_rewards>  (89) 
-0.5

>  <r_i_glide_evdw>  (89) 
-30.6381

>  <r_i_glide_ecoul>  (89) 
-7.21317

>  <r_i_glide_erotb>  (89) 
0

>  <r_i_glide_esite>  (89) 
-0.0282468

>  <r_i_glide_emodel>  (89) 
-39.6824

>  <r_i_glide_energy>  (89) 
-37.8513

>  <r_i_glide_einternal>  (89) 
4.46414

>  <r_i_glide_intrahb_reward>  (89) 
-0.5

>  <i_i_glide_confnum>  (89) 
2

>  <i_i_glide_posenum>  (89) 
15

>  <r_i_glide_eff_state_penalty>  (89) 
0

>  <ligand_id>  (89) 
103

>  <original_smiles>  (89) 
C=C1C(=O)OC2(O)C3[S+]([O-])C(O)C4(O)C5(C)CCC(O)CC56OC4(O)C3(C)C3(O)C(O)C4(O)C5(O)C(=NC7(C)C(O)C(O)C8(C(O)C(OC)CC(C)C78)C5(O)CC6C4(O)C3(C)C)C12O

>  <smiles>  (89) 
[H]OC12C3=NC4(C([H])([H])[H])C([H])(O[H])C([H])(O[H])C5(C([H])(O[H])C([H])(OC([H])([H])[H])C([H])([H])C([H])(C([H])([H])[H])C45[H])C4(O[H])C([H])([H])C5([H])C6(O[H])C(O[H])(C([H])(O[H])C(O[H])(C7(C([H])([H])[H])C8(O[H])OC59C([H])([H])C([H])(O[H])C([H])([H])C([H])([H])C9(C([H])([H])[H])C8(O[H])C([H])(O[H])S(=O)C7([H])C1(O[H])OC(=O)C2=C([H])[H])C6(C([H])([H])[H])C([H])([H])[H])C34O[H]

$$$$
103:0:1
     RDKit          3D

123133  0  0  1  0  0  0  0  0999 V2000
    4.9069   -7.9655    0.4134 C   0  0  0  0  0  0  0  0  0  0  0  0
    5.3207   -8.1089    1.6690 C   0  0  0  0  0  0  0  0  0  0  0  0
    5.8492   -9.3546    2.2059 C   0  0  0  0  0  0  0  0  0  0  0  0
    6.1108  -10.3486    1.5442 O   0  0  0  0  0  0  0  0  0  0  0  0
    6.1620   -9.2133    3.5114 O   0  0  0  0  0  0  0  0  0  0  0  0
    5.6766   -8.0379    4.0969 C   0  0  2  0  0  0  0  0  0  0  0  0
    6.7479   -7.4577    4.8242 O   0  0  0  0  0  0  0  0  0  0  0  0
    4.6237   -8.6870    5.2292 C   0  0  1  0  0  0  0  0  0  0  0  0
    5.3152   -8.4143    6.9913 S   0  0  0  0  0  0  0  0  0  0  0  0
    5.5436   -9.8094    7.5865 O   0  0  0  0  0  0  0  0  0  0  0  0
    4.0745   -7.4718    8.0964 C   0  0  1  0  0  0  0  0  0  0  0  0
    4.8141   -6.8424    9.1225 O   0  0  0  0  0  0  0  0  0  0  0  0
    3.1079   -6.4666    7.3082 C   0  0  2  0  0  0  0  0  0  0  0  0
    3.7103   -5.1924    7.5680 O   0  0  0  0  0  0  0  0  0  0  0  0
    1.5353   -6.2187    7.4622 C   0  0  1  0  0  0  0  0  0  0  0  0
    0.7254   -7.4390    7.9443 C   0  0  0  0  0  0  0  0  0  0  0  0
    1.2247   -5.2588    8.7004 C   0  0  0  0  0  0  0  0  0  0  0  0
   -0.0823   -4.4626    8.5519 C   0  0  0  0  0  0  0  0  0  0  0  0
   -0.0764   -3.6402    7.2559 C   0  0  1  0  0  0  0  0  0  0  0  0
   -0.1045   -2.2683    7.5925 O   0  0  0  0  0  0  0  0  0  0  0  0
    1.1521   -3.9490    6.3706 C   0  0  0  0  0  0  0  0  0  0  0  0
    1.1944   -5.4870    6.0276 C   0  0  1  0  0  0  0  0  0  0  0  0
    2.1598   -6.1604    5.2754 O   0  0  0  0  0  0  0  0  0  0  0  0
    3.1774   -6.8023    5.8260 C   0  0  1  0  0  0  0  0  0  0  0  0
    4.3110   -6.1064    5.3509 O   0  0  0  0  0  0  0  0  0  0  0  0
    3.0756   -8.3706    5.3596 C   0  0  2  0  0  0  0  0  0  0  0  0
    2.6266   -9.4678    6.4293 C   0  0  0  0  0  0  0  0  0  0  0  0
    2.0482   -8.8050    4.1458 C   0  0  2  0  0  0  0  0  0  0  0  0
    2.2321  -10.2199    3.9720 O   0  0  0  0  0  0  0  0  0  0  0  0
    2.4803   -8.2585    2.8107 C   0  0  1  0  0  0  0  0  0  0  0  0
    2.5313   -9.1690    1.7084 O   0  0  0  0  0  0  0  0  0  0  0  0
    1.7635   -6.9473    2.5159 C   0  0  2  0  0  0  0  0  0  0  0  0
    1.0294   -7.2068    1.2898 O   0  0  0  0  0  0  0  0  0  0  0  0
    2.8388   -5.6943    2.3249 C   0  0  2  0  0  0  0  0  0  0  0  0
    2.8189   -5.6620    0.9315 O   0  0  0  0  0  0  0  0  0  0  0  0
    4.4533   -5.7464    2.5212 C   0  0  0  0  0  0  0  0  0  0  0  0
    5.1699   -4.6754    2.3243 N   0  0  0  0  0  0  0  0  0  0  0  0
    5.0194   -3.3325    1.7031 C   0  0  1  0  0  0  0  0  0  0  0  0
    6.4826   -2.9145    1.5116 C   0  0  0  0  0  0  0  0  0  0  0  0
    4.3860   -3.3047    0.3308 C   0  0  1  0  0  0  0  0  0  0  0  0
    4.6821   -4.4081   -0.5005 O   0  0  0  0  0  0  0  0  0  0  0  0
    2.9199   -2.9131    0.5652 C   0  0  1  0  0  0  0  0  0  0  0  0
    2.0702   -3.4339   -0.4270 O   0  0  0  0  0  0  0  0  0  0  0  0
    2.6393   -2.8727    2.1405 C   0  0  2  0  0  0  0  0  0  0  0  0
    1.6086   -1.7295    2.5330 C   0  0  1  0  0  0  0  0  0  0  0  0
    1.5483   -1.4643    3.9275 O   0  0  0  0  0  0  0  0  0  0  0  0
    1.8807   -0.3277    1.9700 C   0  0  1  0  0  0  0  0  0  0  0  0
    0.8227    0.5313    2.4085 O   0  0  0  0  0  0  0  0  0  0  0  0
    0.6690    1.7034    1.6204 C   0  0  0  0  0  0  0  0  0  0  0  0
    3.2542    0.1978    2.4071 C   0  0  0  0  0  0  0  0  0  0  0  0
    4.4249   -0.8186    2.2143 C   0  0  1  0  0  0  0  0  0  0  0  0
    5.5867   -0.2707    3.0741 C   0  0  0  0  0  0  0  0  0  0  0  0
    4.1161   -2.3484    2.5199 C   0  0  2  0  0  0  0  0  0  0  0  0
    2.2570   -4.3031    2.9086 C   0  0  2  0  0  0  0  0  0  0  0  0
    2.8919   -4.0504    4.1265 O   0  0  0  0  0  0  0  0  0  0  0  0
    0.7827   -4.5171    3.4780 C   0  0  0  0  0  0  0  0  0  0  0  0
    0.4669   -5.6843    4.5628 C   0  0  1  0  0  0  0  0  0  0  0  0
    0.5241   -6.9388    3.5631 C   0  0  1  0  0  0  0  0  0  0  0  0
   -0.7762   -6.7934    2.9571 O   0  0  0  0  0  0  0  0  0  0  0  0
    0.4856   -8.4255    4.0848 C   0  0  0  0  0  0  0  0  0  0  0  0
   -0.2190   -9.4284    3.0750 C   0  0  0  0  0  0  0  0  0  0  0  0
   -0.5062   -8.5683    5.2640 C   0  0  0  0  0  0  0  0  0  0  0  0
    5.4568   -7.0587    2.7488 C   0  0  2  0  0  0  0  0  0  0  0  0
    6.7954   -6.5755    2.4457 O   0  0  0  0  0  0  0  0  0  0  0  0
    4.6066   -6.9963    0.0502 H   0  0  0  0  0  0  0  0  0  0  0  0
    4.8519   -8.7590   -0.3184 H   0  0  0  0  0  0  0  0  0  0  0  0
    7.0346   -8.0541    5.4961 H   0  0  0  0  0  0  0  0  0  0  0  0
    4.6818   -9.7667    5.0327 H   0  0  0  0  0  0  0  0  0  0  0  0
    3.5382   -8.1588    8.7403 H   0  0  0  0  0  0  0  0  0  0  0  0
    5.5649   -7.3871    9.3327 H   0  0  0  0  0  0  0  0  0  0  0  0
    4.6289   -5.2760    7.3791 H   0  0  0  0  0  0  0  0  0  0  0  0
   -0.3310   -7.2124    8.0974 H   0  0  0  0  0  0  0  0  0  0  0  0
    1.1120   -7.8381    8.8852 H   0  0  0  0  0  0  0  0  0  0  0  0
    0.7627   -8.2584    7.2809 H   0  0  0  0  0  0  0  0  0  0  0  0
    1.1792   -5.8084    9.6325 H   0  0  0  0  0  0  0  0  0  0  0  0
    1.9987   -4.5113    8.9186 H   0  0  0  0  0  0  0  0  0  0  0  0
   -0.9480   -5.1289    8.5663 H   0  0  0  0  0  0  0  0  0  0  0  0
   -0.2166   -3.8255    9.4293 H   0  0  0  0  0  0  0  0  0  0  0  0
   -0.9990   -3.8436    6.7028 H   0  0  0  0  0  0  0  0  0  0  0  0
    0.2156   -1.7783    6.8474 H   0  0  0  0  0  0  0  0  0  0  0  0
    1.0770   -3.2637    5.5560 H   0  0  0  0  0  0  0  0  0  0  0  0
    2.0600   -3.5998    6.8592 H   0  0  0  0  0  0  0  0  0  0  0  0
    5.0923   -6.4535    5.7540 H   0  0  0  0  0  0  0  0  0  0  0  0
    1.6308   -9.8578    6.2676 H   0  0  0  0  0  0  0  0  0  0  0  0
    2.6069   -9.2327    7.4614 H   0  0  0  0  0  0  0  0  0  0  0  0
    3.2389  -10.3694    6.3803 H   0  0  0  0  0  0  0  0  0  0  0  0
    1.8955  -10.6464    4.7480 H   0  0  0  0  0  0  0  0  0  0  0  0
    3.4573   -8.0742    3.0662 H   0  0  0  0  0  0  0  0  0  0  0  0
    2.9823   -9.9464    2.0208 H   0  0  0  0  0  0  0  0  0  0  0  0
    0.8487   -8.1416    1.2804 H   0  0  0  0  0  0  0  0  0  0  0  0
    3.0412   -6.5367    0.6234 H   0  0  0  0  0  0  0  0  0  0  0  0
    6.5602   -2.0106    0.9024 H   0  0  0  0  0  0  0  0  0  0  0  0
    6.9709   -3.6950    0.9360 H   0  0  0  0  0  0  0  0  0  0  0  0
    6.9654   -2.8604    2.4543 H   0  0  0  0  0  0  0  0  0  0  0  0
    4.8030   -2.4746   -0.2274 H   0  0  0  0  0  0  0  0  0  0  0  0
    4.0984   -5.0992   -0.2005 H   0  0  0  0  0  0  0  0  0  0  0  0
    2.9317   -1.8909    0.1999 H   0  0  0  0  0  0  0  0  0  0  0  0
    1.5534   -2.7029   -0.7618 H   0  0  0  0  0  0  0  0  0  0  0  0
    0.6165   -2.0063    2.1886 H   0  0  0  0  0  0  0  0  0  0  0  0
    1.0068   -0.6870    4.0113 H   0  0  0  0  0  0  0  0  0  0  0  0
    1.8330   -0.3433    0.8827 H   0  0  0  0  0  0  0  0  0  0  0  0
   -0.1990    2.2736    1.9404 H   0  0  0  0  0  0  0  0  0  0  0  0
    0.4985    1.4102    0.5886 H   0  0  0  0  0  0  0  0  0  0  0  0
    1.5390    2.3576    1.6915 H   0  0  0  0  0  0  0  0  0  0  0  0
    3.4521    1.0890    1.8081 H   0  0  0  0  0  0  0  0  0  0  0  0
    3.2109    0.5586    3.4494 H   0  0  0  0  0  0  0  0  0  0  0  0
    4.6925   -0.7258    1.1541 H   0  0  0  0  0  0  0  0  0  0  0  0
    5.3091   -0.2520    4.1311 H   0  0  0  0  0  0  0  0  0  0  0  0
    5.7922    0.7655    2.8533 H   0  0  0  0  0  0  0  0  0  0  0  0
    6.5361   -0.7847    2.9302 H   0  0  0  0  0  0  0  0  0  0  0  0
    4.3283   -2.3683    3.5951 H   0  0  0  0  0  0  0  0  0  0  0  0
    3.8245   -3.9937    3.9735 H   0  0  0  0  0  0  0  0  0  0  0  0
    0.3020   -3.5877    3.7664 H   0  0  0  0  0  0  0  0  0  0  0  0
    0.1929   -4.7237    2.5728 H   0  0  0  0  0  0  0  0  0  0  0  0
   -0.5771   -5.5399    4.8257 H   0  0  0  0  0  0  0  0  0  0  0  0
   -0.9337   -7.6258    2.5374 H   0  0  0  0  0  0  0  0  0  0  0  0
   -1.2675   -9.2114    2.8747 H   0  0  0  0  0  0  0  0  0  0  0  0
   -0.2266  -10.4403    3.4751 H   0  0  0  0  0  0  0  0  0  0  0  0
    0.2333   -9.5117    2.0973 H   0  0  0  0  0  0  0  0  0  0  0  0
   -1.5358   -8.6525    4.9105 H   0  0  0  0  0  0  0  0  0  0  0  0
   -0.5601   -7.6667    5.8524 H   0  0  0  0  0  0  0  0  0  0  0  0
   -0.3602   -9.4621    5.8659 H   0  0  0  0  0  0  0  0  0  0  0  0
    7.4091   -7.2967    2.5036 H   0  0  0  0  0  0  0  0  0  0  0  0
  1  2  2  0
  1 65  1  0
  1 66  1  0
  2 63  1  0
  2  3  1  0
  3  4  2  0
  3  5  1  0
  5  6  1  0
  6 63  1  0
  6  7  1  1
  6  8  1  0
  7 67  1  0
  8 26  1  0
  8  9  1  0
  8 68  1  6
  9 10  2  0
  9 11  1  1
 11 12  1  0
 11 13  1  0
 11 69  1  1
 12 70  1  0
 13 24  1  0
 13 14  1  6
 13 15  1  0
 14 71  1  0
 15 22  1  0
 15 16  1  1
 15 17  1  0
 16 72  1  0
 16 73  1  0
 16 74  1  0
 17 18  1  0
 17 75  1  0
 17 76  1  0
 18 19  1  0
 18 77  1  0
 18 78  1  0
 19 20  1  0
 19 21  1  0
 19 79  1  6
 20 80  1  0
 22 21  1  1
 21 81  1  0
 21 82  1  0
 22 57  1  0
 22 23  1  0
 23 24  1  0
 24 25  1  6
 24 26  1  0
 25 83  1  0
 26 27  1  1
 26 28  1  0
 27 84  1  0
 27 85  1  0
 27 86  1  0
 28 60  1  0
 28 29  1  6
 28 30  1  0
 29 87  1  0
 30 31  1  0
 30 32  1  0
 30 88  1  1
 31 89  1  0
 32 58  1  0
 32 33  1  6
 32 34  1  0
 33 90  1  0
 34 54  1  0
 34 35  1  6
 34 36  1  0
 35 91  1  0
 36 37  2  0
 36 63  1  0
 37 38  1  0
 38 53  1  0
 38 39  1  6
 38 40  1  0
 39 92  1  0
 39 93  1  0
 39 94  1  0
 40 41  1  0
 40 42  1  0
 40 95  1  6
 41 96  1  0
 42 43  1  0
 42 44  1  0
 42 97  1  6
 43 98  1  0
 44 53  1  0
 44 45  1  0
 44 54  1  1
 45 46  1  0
 45 47  1  0
 45 99  1  6
 46100  1  0
 47 48  1  0
 47 50  1  0
 47101  1  6
 48 49  1  0
 49102  1  0
 49103  1  0
 49104  1  0
 50 51  1  0
 50105  1  0
 50106  1  0
 51 52  1  0
 51 53  1  0
 51107  1  6
 52108  1  0
 52109  1  0
 52110  1  0
 53111  1  1
 54 55  1  1
 54 56  1  0
 55112  1  0
 56 57  1  0
 56113  1  0
 56114  1  0
 57 58  1  0
 57115  1  1
 58 59  1  6
 58 60  1  0
 59116  1  0
 60 61  1  0
 60 62  1  0
 61117  1  0
 61118  1  0
 61119  1  0
 62120  1  0
 62121  1  0
 62122  1  0
 63 64  1  6
 64123  1  0
M  END
>  <i_m_ct_stereo_status>  (90) 
1

>  <s_m_source_file>  (90) 
/var/tmp/pbs.5075288.sched01/tmphpu8_cit/24996nucuhu.sdf

>  <i_m_source_file_index>  (90) 
76

>  <i_lp_mmshare_version>  (90) 
48012

>  <i_f3d_flags>  (90) 
0

>  <s_epik_input>  (90) 
W09IXVtDQEBIXShbQ0gyXTEpW0NIMl1bQ0gyXVtDQF0oW0NAQF0xMjMpKFtDSDNdKVtDQF00KFtPSF0pW0NAQF0oTzIpKFtPSF0pW0NAXTUoW0NIM10pW0NASF0oW1MrXShbTy1dKVtDQEhdNFtPSF0pW0NAXTYoW09IXSlbQ0BAXShbT0hdKShDKD1bQ0gyXSlDKD1PKU82KUM9N1tDQEBdOChbT0hdKVtDQF05KFtPSF0pW0NAQF0oW09IXSkoQyhbQ0gzXSkoW0NIM10pW0NAQF01KFtPSF0pW0NASF05W09IXSlbQ0BASF0zW0NIMl1bQ0BdOChbT0hdKVtDQEBdMTJbQ0BASF0oW0NAXShONykoW0NIM10pW0NAQEhdKFtPSF0pW0NASF0xW09IXSlbQ0BIXShbQ0gzXSlbQ0gyXVtDQEBIXShbQ0BASF0yW09IXSlPW0NIM10=

>  <s_epik_cmdline>  (90) 
J2VwaWtfcHl0aG9uJywgJy1waHQnLCAnMi4wJywgJy1waCcsICc3LjAnLCAnLXRuJywgJzgnLCAnLW1hJywgJzIwMCcsICctaW1hZScsICc8aW5maWxlLm1hZT4nLCAnLW9tYWUnLCAnPG91dGZpbGUubWFlPic=

>  <r_epik_Ionization_Penalty>  (90) 
0.13752

>  <r_epik_Ionization_Penalty_Charging>  (90) 
0

>  <r_epik_Ionization_Penalty_Neutral>  (90) 
0.13752

>  <r_epik_State_Penalty>  (90) 
0.105157

>  <r_epik_Charging_Adjusted_Penalty>  (90) 
0.105157

>  <i_epik_Tot_Q>  (90) 
0

>  <i_epik_Tot_abs_Q>  (90) 
2

>  <s_epik_Chemistry_Notes>  (90) 
This compound has an ester and may undergo hydrolysis at high or low pH. This compound has an imine and may undergo hydrolysis. This compound contains an acetal/aminal-like group ( X-CH(R)-Y where X, Y are N, S, or O) that may be acid/base labile, releasing an aldehyde.

>  <s_lp_Force_Field>  (90) 
OPLS3e

>  <r_lp_Energy>  (90) 
520.058

>  <b_lp_Chiralities_Consistent>  (90) 
1

>  <s_lp_Variant>  (90) 
103:0-1

>  <s_i_glide_gridfile>  (90) 
pfpi4k_grid

>  <i_i_glide_lignum>  (90) 
76

>  <i_i_glide_rotatable_bonds>  (90) 
16

>  <r_i_docking_score>  (90) 
-2.93621

>  <r_i_glide_ligand_efficiency>  (90) 
-0.0458783

>  <r_i_glide_ligand_efficiency_sa>  (90) 
-0.183513

>  <r_i_glide_ligand_efficiency_ln>  (90) 
-0.569156

>  <r_i_glide_gscore>  (90) 
-2.93621

>  <r_i_glide_lipo>  (90) 
-0.412522

>  <r_i_glide_hbond>  (90) 
-0.0459108

>  <r_i_glide_metal>  (90) 
-0

>  <r_i_glide_rewards>  (90) 
0

>  <r_i_glide_evdw>  (90) 
-22.591

>  <r_i_glide_ecoul>  (90) 
-11.7717

>  <r_i_glide_erotb>  (90) 
0

>  <r_i_glide_esite>  (90) 
-0.00724548

>  <r_i_glide_emodel>  (90) 
-29.5924

>  <r_i_glide_energy>  (90) 
-34.3627

>  <r_i_glide_einternal>  (90) 
6.54343

>  <r_i_glide_intrahb_reward>  (90) 
-0

>  <i_i_glide_confnum>  (90) 
1

>  <i_i_glide_posenum>  (90) 
21

>  <r_i_glide_eff_state_penalty>  (90) 
0

>  <ligand_id>  (90) 
103

>  <original_smiles>  (90) 
C=C1C(=O)OC2(O)C3[S+]([O-])C(O)C4(O)C5(C)CCC(O)CC56OC4(O)C3(C)C3(O)C(O)C4(O)C5(O)C(=NC7(C)C(O)C(O)C8(C(O)C(OC)CC(C)C78)C5(O)CC6C4(O)C3(C)C)C12O

>  <smiles>  (90) 
[H]OC12C3=NC4(C([H])([H])[H])C([H])(O[H])C([H])(O[H])C5(C([H])(O[H])C([H])(OC([H])([H])[H])C([H])([H])C([H])(C([H])([H])[H])C45[H])C4(O[H])C([H])([H])C5([H])C6(O[H])C(O[H])(C([H])(O[H])C(O[H])(C7(C([H])([H])[H])C8(O[H])OC59C([H])([H])C([H])(O[H])C([H])([H])C([H])([H])C9(C([H])([H])[H])C8(O[H])C([H])(O[H])S(=O)C7([H])C1(O[H])OC(=O)C2=C([H])[H])C6(C([H])([H])[H])C([H])([H])[H])C34O[H]

$$$$
103:0:2
     RDKit          3D

123133  0  0  1  0  0  0  0  0999 V2000
    4.8209   -8.1369    0.5035 C   0  0  0  0  0  0  0  0  0  0  0  0
    5.3341   -8.2630    1.7002 C   0  0  0  0  0  0  0  0  0  0  0  0
    5.8325   -9.5218    2.2668 C   0  0  0  0  0  0  0  0  0  0  0  0
    6.0976  -10.5331    1.6194 O   0  0  0  0  0  0  0  0  0  0  0  0
    6.1701   -9.3556    3.5476 O   0  0  0  0  0  0  0  0  0  0  0  0
    5.6947   -8.1572    4.1140 C   0  0  2  0  0  0  0  0  0  0  0  0
    6.7805   -7.5808    4.8327 O   0  0  0  0  0  0  0  0  0  0  0  0
    4.6581   -8.7762    5.2788 C   0  0  1  0  0  0  0  0  0  0  0  0
    5.3722   -8.5050    7.0347 S   0  0  0  0  0  0  0  0  0  0  0  0
    5.5865   -9.8829    7.6329 O   0  0  0  0  0  0  0  0  0  0  0  0
    4.1713   -7.5008    8.1413 C   0  0  1  0  0  0  0  0  0  0  0  0
    4.8883   -6.8104    9.1413 O   0  0  0  0  0  0  0  0  0  0  0  0
    3.1938   -6.5100    7.3468 C   0  0  2  0  0  0  0  0  0  0  0  0
    3.8078   -5.2326    7.5273 O   0  0  0  0  0  0  0  0  0  0  0  0
    1.6260   -6.2390    7.5149 C   0  0  1  0  0  0  0  0  0  0  0  0
    0.8140   -7.4389    8.0288 C   0  0  0  0  0  0  0  0  0  0  0  0
    1.3583   -5.2568    8.7373 C   0  0  0  0  0  0  0  0  0  0  0  0
    0.0661   -4.4490    8.5942 C   0  0  0  0  0  0  0  0  0  0  0  0
    0.0583   -3.6477    7.2899 C   0  0  1  0  0  0  0  0  0  0  0  0
    0.0613   -2.2746    7.6156 O   0  0  0  0  0  0  0  0  0  0  0  0
    1.2612   -3.9840    6.3866 C   0  0  0  0  0  0  0  0  0  0  0  0
    1.2793   -5.5283    6.0665 C   0  0  1  0  0  0  0  0  0  0  0  0
    2.2213   -6.2158    5.3043 O   0  0  0  0  0  0  0  0  0  0  0  0
    3.2379   -6.8612    5.8594 C   0  0  1  0  0  0  0  0  0  0  0  0
    4.3856   -6.2022    5.3431 O   0  0  0  0  0  0  0  0  0  0  0  0
    3.1256   -8.4441    5.4167 C   0  0  2  0  0  0  0  0  0  0  0  0
    2.6678   -9.5166    6.5118 C   0  0  0  0  0  0  0  0  0  0  0  0
    2.0590   -8.8932    4.2280 C   0  0  2  0  0  0  0  0  0  0  0  0
    2.2271  -10.3134    4.0859 O   0  0  0  0  0  0  0  0  0  0  0  0
    2.4673   -8.3715    2.8707 C   0  0  1  0  0  0  0  0  0  0  0  0
    2.4786   -9.3050    1.7902 O   0  0  0  0  0  0  0  0  0  0  0  0
    1.7516   -7.0559    2.5744 C   0  0  2  0  0  0  0  0  0  0  0  0
    0.9611   -7.3428    1.3897 O   0  0  0  0  0  0  0  0  0  0  0  0
    2.8444   -5.8146    2.3455 C   0  0  2  0  0  0  0  0  0  0  0  0
    2.6965   -5.7739    0.9643 O   0  0  0  0  0  0  0  0  0  0  0  0
    4.4528   -5.8921    2.5131 C   0  0  0  0  0  0  0  0  0  0  0  0
    5.1855   -4.8316    2.2850 N   0  0  0  0  0  0  0  0  0  0  0  0
    5.0520   -3.4950    1.6708 C   0  0  1  0  0  0  0  0  0  0  0  0
    6.4971   -3.1051    1.4438 C   0  0  0  0  0  0  0  0  0  0  0  0
    4.4134   -3.4780    0.2785 C   0  0  1  0  0  0  0  0  0  0  0  0
    4.5781   -4.6683   -0.4795 O   0  0  0  0  0  0  0  0  0  0  0  0
    2.9637   -3.0332    0.5233 C   0  0  1  0  0  0  0  0  0  0  0  0
    2.1235   -3.5651   -0.4774 O   0  0  0  0  0  0  0  0  0  0  0  0
    2.6814   -2.9996    2.1093 C   0  0  2  0  0  0  0  0  0  0  0  0
    1.6671   -1.8404    2.5099 C   0  0  1  0  0  0  0  0  0  0  0  0
    1.6344   -1.5577    3.8999 O   0  0  0  0  0  0  0  0  0  0  0  0
    1.9533   -0.4363    1.9525 C   0  0  1  0  0  0  0  0  0  0  0  0
    0.9132    0.4455    2.3880 O   0  0  0  0  0  0  0  0  0  0  0  0
    0.7133    1.5733    1.5447 C   0  0  0  0  0  0  0  0  0  0  0  0
    3.3424    0.0641    2.3290 C   0  0  0  0  0  0  0  0  0  0  0  0
    4.4733   -0.9793    2.1263 C   0  0  1  0  0  0  0  0  0  0  0  0
    5.6700   -0.4552    2.9349 C   0  0  0  0  0  0  0  0  0  0  0  0
    4.1559   -2.4915    2.4610 C   0  0  2  0  0  0  0  0  0  0  0  0
    2.3080   -4.4102    2.9221 C   0  0  2  0  0  0  0  0  0  0  0  0
    2.9685   -4.1426    4.1272 O   0  0  0  0  0  0  0  0  0  0  0  0
    0.8448   -4.5911    3.5136 C   0  0  0  0  0  0  0  0  0  0  0  0
    0.5128   -5.7359    4.6195 C   0  0  1  0  0  0  0  0  0  0  0  0
    0.5386   -7.0154    3.6548 C   0  0  1  0  0  0  0  0  0  0  0  0
   -0.7781   -6.8731    3.0786 O   0  0  0  0  0  0  0  0  0  0  0  0
    0.4982   -8.4967    4.1900 C   0  0  0  0  0  0  0  0  0  0  0  0
   -0.2342   -9.5009    3.2071 C   0  0  0  0  0  0  0  0  0  0  0  0
   -0.4662   -8.6007    5.3853 C   0  0  0  0  0  0  0  0  0  0  0  0
    5.4717   -7.2020    2.7580 C   0  0  2  0  0  0  0  0  0  0  0  0
    6.8129   -6.7515    2.4435 O   0  0  0  0  0  0  0  0  0  0  0  0
    4.5110   -7.1929    0.0852 H   0  0  0  0  0  0  0  0  0  0  0  0
    4.6925   -9.0413   -0.1222 H   0  0  0  0  0  0  0  0  0  0  0  0
    7.0941   -8.1908    5.4725 H   0  0  0  0  0  0  0  0  0  0  0  0
    4.6880   -9.8535    5.1066 H   0  0  0  0  0  0  0  0  0  0  0  0
    3.6427   -8.1769    8.7925 H   0  0  0  0  0  0  0  0  0  0  0  0
    4.5537   -7.0330    9.9985 H   0  0  0  0  0  0  0  0  0  0  0  0
    4.7196   -5.3467    7.3269 H   0  0  0  0  0  0  0  0  0  0  0  0
   -0.2331   -7.1948    8.1893 H   0  0  0  0  0  0  0  0  0  0  0  0
    1.2082   -7.8194    8.9705 H   0  0  0  0  0  0  0  0  0  0  0  0
    0.8326   -8.2760    7.3838 H   0  0  0  0  0  0  0  0  0  0  0  0
    1.3240   -5.7829    9.6849 H   0  0  0  0  0  0  0  0  0  0  0  0
    2.1336   -4.5196    8.9291 H   0  0  0  0  0  0  0  0  0  0  0  0
   -0.8020   -5.1013    8.6350 H   0  0  0  0  0  0  0  0  0  0  0  0
   -0.0519   -3.7943    9.4613 H   0  0  0  0  0  0  0  0  0  0  0  0
   -0.8725   -3.8420    6.7559 H   0  0  0  0  0  0  0  0  0  0  0  0
    0.6001   -1.8206    6.9839 H   0  0  0  0  0  0  0  0  0  0  0  0
    1.1850   -3.3093    5.5568 H   0  0  0  0  0  0  0  0  0  0  0  0
    2.1861   -3.6415    6.8457 H   0  0  0  0  0  0  0  0  0  0  0  0
    5.1719   -6.5961    5.6772 H   0  0  0  0  0  0  0  0  0  0  0  0
    1.6606   -9.8947    6.3745 H   0  0  0  0  0  0  0  0  0  0  0  0
    2.6680   -9.2603    7.5485 H   0  0  0  0  0  0  0  0  0  0  0  0
    3.2656  -10.4341    6.4699 H   0  0  0  0  0  0  0  0  0  0  0  0
    1.8743  -10.7182    4.8661 H   0  0  0  0  0  0  0  0  0  0  0  0
    3.4549   -8.1999    3.1102 H   0  0  0  0  0  0  0  0  0  0  0  0
    2.9285  -10.0755    2.1134 H   0  0  0  0  0  0  0  0  0  0  0  0
    0.8614   -8.2854    1.3544 H   0  0  0  0  0  0  0  0  0  0  0  0
    3.4180   -5.3012    0.5516 H   0  0  0  0  0  0  0  0  0  0  0  0
    6.6207   -2.2012    0.8838 H   0  0  0  0  0  0  0  0  0  0  0  0
    7.0147   -3.8983    0.9385 H   0  0  0  0  0  0  0  0  0  0  0  0
    7.0026   -2.9811    2.3837 H   0  0  0  0  0  0  0  0  0  0  0  0
    4.8506   -2.6864   -0.3362 H   0  0  0  0  0  0  0  0  0  0  0  0
    4.0459   -4.5759   -1.2619 H   0  0  0  0  0  0  0  0  0  0  0  0
    2.9651   -2.0108    0.1517 H   0  0  0  0  0  0  0  0  0  0  0  0
    1.7445   -2.8350   -0.9416 H   0  0  0  0  0  0  0  0  0  0  0  0
    0.6596   -2.1040    2.1968 H   0  0  0  0  0  0  0  0  0  0  0  0
    1.0943   -0.7803    3.9722 H   0  0  0  0  0  0  0  0  0  0  0  0
    1.9155   -0.4605    0.8847 H   0  0  0  0  0  0  0  0  0  0  0  0
   -0.1602    2.1492    1.8541 H   0  0  0  0  0  0  0  0  0  0  0  0
    0.5029    1.2304    0.5349 H   0  0  0  0  0  0  0  0  0  0  0  0
    1.5884    2.2302    1.5053 H   0  0  0  0  0  0  0  0  0  0  0  0
    3.5451    0.9367    1.7043 H   0  0  0  0  0  0  0  0  0  0  0  0
    3.3355    0.4384    3.3545 H   0  0  0  0  0  0  0  0  0  0  0  0
    4.7342   -0.9096    1.0761 H   0  0  0  0  0  0  0  0  0  0  0  0
    5.4150   -0.3709    3.9973 H   0  0  0  0  0  0  0  0  0  0  0  0
    5.8924    0.5469    2.5546 H   0  0  0  0  0  0  0  0  0  0  0  0
    6.5989   -1.0078    2.8247 H   0  0  0  0  0  0  0  0  0  0  0  0
    4.3945   -2.5064    3.5171 H   0  0  0  0  0  0  0  0  0  0  0  0
    3.8922   -4.1045    3.9417 H   0  0  0  0  0  0  0  0  0  0  0  0
    0.3664   -3.6602    3.7916 H   0  0  0  0  0  0  0  0  0  0  0  0
    0.2886   -4.8136    2.6012 H   0  0  0  0  0  0  0  0  0  0  0  0
   -0.5202   -5.5778    4.9056 H   0  0  0  0  0  0  0  0  0  0  0  0
   -0.9144   -7.6966    2.6388 H   0  0  0  0  0  0  0  0  0  0  0  0
   -1.2835   -9.2735    3.0311 H   0  0  0  0  0  0  0  0  0  0  0  0
   -0.2354  -10.5048    3.6284 H   0  0  0  0  0  0  0  0  0  0  0  0
    0.1833   -9.6022    2.2157 H   0  0  0  0  0  0  0  0  0  0  0  0
   -1.5011   -8.6708    5.0560 H   0  0  0  0  0  0  0  0  0  0  0  0
   -0.4992   -7.6921    5.9647 H   0  0  0  0  0  0  0  0  0  0  0  0
   -0.3281   -9.4851    5.9992 H   0  0  0  0  0  0  0  0  0  0  0  0
    7.3933   -7.4982    2.3866 H   0  0  0  0  0  0  0  0  0  0  0  0
  1  2  2  0
  1 65  1  0
  1 66  1  0
  2 63  1  0
  2  3  1  0
  3  4  2  0
  3  5  1  0
  5  6  1  0
  6 63  1  0
  6  7  1  1
  6  8  1  0
  7 67  1  0
  8 26  1  0
  8  9  1  0
  8 68  1  6
  9 10  2  0
  9 11  1  1
 11 12  1  0
 11 13  1  0
 11 69  1  1
 12 70  1  0
 13 24  1  0
 13 14  1  6
 13 15  1  0
 14 71  1  0
 15 22  1  0
 15 16  1  1
 15 17  1  0
 16 72  1  0
 16 73  1  0
 16 74  1  0
 17 18  1  0
 17 75  1  0
 17 76  1  0
 18 19  1  0
 18 77  1  0
 18 78  1  0
 19 20  1  0
 19 21  1  0
 19 79  1  6
 20 80  1  0
 22 21  1  1
 21 81  1  0
 21 82  1  0
 22 57  1  0
 22 23  1  0
 23 24  1  0
 24 25  1  6
 24 26  1  0
 25 83  1  0
 26 27  1  1
 26 28  1  0
 27 84  1  0
 27 85  1  0
 27 86  1  0
 28 60  1  0
 28 29  1  6
 28 30  1  0
 29 87  1  0
 30 31  1  0
 30 32  1  0
 30 88  1  1
 31 89  1  0
 32 58  1  0
 32 33  1  6
 32 34  1  0
 33 90  1  0
 34 54  1  0
 34 35  1  6
 34 36  1  0
 35 91  1  0
 36 37  2  0
 36 63  1  0
 37 38  1  0
 38 53  1  0
 38 39  1  6
 38 40  1  0
 39 92  1  0
 39 93  1  0
 39 94  1  0
 40 41  1  0
 40 42  1  0
 40 95  1  6
 41 96  1  0
 42 43  1  0
 42 44  1  0
 42 97  1  6
 43 98  1  0
 44 53  1  0
 44 45  1  0
 44 54  1  1
 45 46  1  0
 45 47  1  0
 45 99  1  6
 46100  1  0
 47 48  1  0
 47 50  1  0
 47101  1  6
 48 49  1  0
 49102  1  0
 49103  1  0
 49104  1  0
 50 51  1  0
 50105  1  0
 50106  1  0
 51 52  1  0
 51 53  1  0
 51107  1  6
 52108  1  0
 52109  1  0
 52110  1  0
 53111  1  1
 54 55  1  1
 54 56  1  0
 55112  1  0
 56 57  1  0
 56113  1  0
 56114  1  0
 57 58  1  0
 57115  1  1
 58 59  1  6
 58 60  1  0
 59116  1  0
 60 61  1  0
 60 62  1  0
 61117  1  0
 61118  1  0
 61119  1  0
 62120  1  0
 62121  1  0
 62122  1  0
 63 64  1  6
 64123  1  0
M  END
>  <i_m_ct_stereo_status>  (91) 
1

>  <s_m_source_file>  (91) 
/var/tmp/pbs.5075288.sched01/tmphpu8_cit/24996nucuhu.sdf

>  <i_m_source_file_index>  (91) 
76

>  <i_lp_mmshare_version>  (91) 
48012

>  <i_f3d_flags>  (91) 
0

>  <s_epik_input>  (91) 
W09IXVtDQEBIXShbQ0gyXTEpW0NIMl1bQ0gyXVtDQF0oW0NAQF0xMjMpKFtDSDNdKVtDQF00KFtPSF0pW0NAQF0oTzIpKFtPSF0pW0NAXTUoW0NIM10pW0NASF0oW1MrXShbTy1dKVtDQEhdNFtPSF0pW0NAXTYoW09IXSlbQ0BAXShbT0hdKShDKD1bQ0gyXSlDKD1PKU82KUM9N1tDQEBdOChbT0hdKVtDQF05KFtPSF0pW0NAQF0oW09IXSkoQyhbQ0gzXSkoW0NIM10pW0NAQF01KFtPSF0pW0NASF05W09IXSlbQ0BASF0zW0NIMl1bQ0BdOChbT0hdKVtDQEBdMTJbQ0BASF0oW0NAXShONykoW0NIM10pW0NAQEhdKFtPSF0pW0NASF0xW09IXSlbQ0BIXShbQ0gzXSlbQ0gyXVtDQEBIXShbQ0BASF0yW09IXSlPW0NIM10=

>  <s_epik_cmdline>  (91) 
J2VwaWtfcHl0aG9uJywgJy1waHQnLCAnMi4wJywgJy1waCcsICc3LjAnLCAnLXRuJywgJzgnLCAnLW1hJywgJzIwMCcsICctaW1hZScsICc8aW5maWxlLm1hZT4nLCAnLW9tYWUnLCAnPG91dGZpbGUubWFlPic=

>  <r_epik_Ionization_Penalty>  (91) 
0.13752

>  <r_epik_Ionization_Penalty_Charging>  (91) 
0

>  <r_epik_Ionization_Penalty_Neutral>  (91) 
0.13752

>  <r_epik_State_Penalty>  (91) 
0.105157

>  <r_epik_Charging_Adjusted_Penalty>  (91) 
0.105157

>  <i_epik_Tot_Q>  (91) 
0

>  <i_epik_Tot_abs_Q>  (91) 
2

>  <s_epik_Chemistry_Notes>  (91) 
This compound has an ester and may undergo hydrolysis at high or low pH. This compound has an imine and may undergo hydrolysis. This compound contains an acetal/aminal-like group ( X-CH(R)-Y where X, Y are N, S, or O) that may be acid/base labile, releasing an aldehyde.

>  <s_lp_Force_Field>  (91) 
OPLS3e

>  <r_lp_Energy>  (91) 
520.058

>  <b_lp_Chiralities_Consistent>  (91) 
1

>  <s_lp_Variant>  (91) 
103:0-1

>  <s_i_glide_gridfile>  (91) 
pfpi4k_grid

>  <i_i_glide_lignum>  (91) 
76

>  <i_i_glide_rotatable_bonds>  (91) 
16

>  <r_i_docking_score>  (91) 
-2.89102

>  <r_i_glide_ligand_efficiency>  (91) 
-0.0451722

>  <r_i_glide_ligand_efficiency_sa>  (91) 
-0.180689

>  <r_i_glide_ligand_efficiency_ln>  (91) 
-0.560396

>  <r_i_glide_gscore>  (91) 
-2.89102

>  <r_i_glide_lipo>  (91) 
-0.388364

>  <r_i_glide_hbond>  (91) 
-0.0203893

>  <r_i_glide_metal>  (91) 
-0

>  <r_i_glide_rewards>  (91) 
0

>  <r_i_glide_evdw>  (91) 
-30.3878

>  <r_i_glide_ecoul>  (91) 
-12.8537

>  <r_i_glide_erotb>  (91) 
0

>  <r_i_glide_esite>  (91) 
-0.0159424

>  <r_i_glide_emodel>  (91) 
-36.9383

>  <r_i_glide_energy>  (91) 
-43.2415

>  <r_i_glide_einternal>  (91) 
6.43607

>  <r_i_glide_intrahb_reward>  (91) 
-0

>  <i_i_glide_confnum>  (91) 
1

>  <i_i_glide_posenum>  (91) 
7

>  <r_i_glide_eff_state_penalty>  (91) 
0

>  <ligand_id>  (91) 
103

>  <original_smiles>  (91) 
C=C1C(=O)OC2(O)C3[S+]([O-])C(O)C4(O)C5(C)CCC(O)CC56OC4(O)C3(C)C3(O)C(O)C4(O)C5(O)C(=NC7(C)C(O)C(O)C8(C(O)C(OC)CC(C)C78)C5(O)CC6C4(O)C3(C)C)C12O

>  <smiles>  (91) 
[H]OC12C3=NC4(C([H])([H])[H])C([H])(O[H])C([H])(O[H])C5(C([H])(O[H])C([H])(OC([H])([H])[H])C([H])([H])C([H])(C([H])([H])[H])C45[H])C4(O[H])C([H])([H])C5([H])C6(O[H])C(O[H])(C([H])(O[H])C(O[H])(C7(C([H])([H])[H])C8(O[H])OC59C([H])([H])C([H])(O[H])C([H])([H])C([H])([H])C9(C([H])([H])[H])C8(O[H])C([H])(O[H])S(=O)C7([H])C1(O[H])OC(=O)C2=C([H])[H])C6(C([H])([H])[H])C([H])([H])[H])C34O[H]

$$$$
103:2:0
     RDKit          3D

122132  0  0  1  0  0  0  0  0999 V2000
    0.4723   -3.4176    9.3022 C   0  0  0  0  0  0  0  0  0  0  0  0
    0.3117   -4.3383    8.3322 C   0  0  0  0  0  0  0  0  0  0  0  0
    0.2350   -5.7585    8.6122 C   0  0  0  0  0  0  0  0  0  0  0  0
    0.2112   -6.3022    9.7259 O   0  0  0  0  0  0  0  0  0  0  0  0
    0.1195   -6.4382    7.4861 O   0  0  0  0  0  0  0  0  0  0  0  0
    0.2342   -5.6908    6.2696 C   0  0  2  0  0  0  0  0  0  0  0  0
   -0.8794   -5.9063    5.5181 O   0  0  0  0  0  0  0  0  0  0  0  0
    1.4458   -6.5945    5.5390 C   0  0  1  0  0  0  0  0  0  0  0  0
    0.8922   -7.4849    3.9112 S   0  0  0  0  0  0  0  0  0  0  0  0
    0.9724   -8.9727    4.1685 O   0  0  0  0  0  0  0  0  0  0  0  0
    2.1244   -7.1295    2.4835 C   0  0  1  0  0  0  0  0  0  0  0  0
    1.4967   -7.3999    1.2378 O   0  0  0  0  0  0  0  0  0  0  0  0
    2.8122   -5.6903    2.5656 C   0  0  2  0  0  0  0  0  0  0  0  0
    2.0183   -4.9845    1.6141 O   0  0  0  0  0  0  0  0  0  0  0  0
    4.3193   -5.2184    2.2831 C   0  0  1  0  0  0  0  0  0  0  0  0
    5.3763   -6.3130    2.5581 C   0  0  0  0  0  0  0  0  0  0  0  0
    4.6273   -5.0356    0.7200 C   0  0  0  0  0  0  0  0  0  0  0  0
    5.7391   -4.0111    0.4261 C   0  0  0  0  0  0  0  0  0  0  0  0
    5.3629   -2.6274    0.9724 C   0  0  1  0  0  0  0  0  0  0  0  0
    5.1338   -1.7381   -0.1059 O   0  0  0  0  0  0  0  0  0  0  0  0
    4.1293   -2.6910    1.9035 C   0  0  0  0  0  0  0  0  0  0  0  0
    4.3220   -3.7584    3.0619 C   0  0  1  0  0  0  0  0  0  0  0  0
    3.3958   -4.0865    4.0494 O   0  0  0  0  0  0  0  0  0  0  0  0
    2.6185   -5.1430    3.9713 C   0  0  1  0  0  0  0  0  0  0  0  0
    1.3250   -4.5777    3.9207 O   0  0  0  0  0  0  0  0  0  0  0  0
    2.9400   -6.1231    5.2595 C   0  0  2  0  0  0  0  0  0  0  0  0
    3.6719   -7.5142    5.0058 C   0  0  0  0  0  0  0  0  0  0  0  0
    3.8831   -5.5713    6.5006 C   0  0  2  0  0  0  0  0  0  0  0  0
    3.9703   -6.6534    7.4373 O   0  0  0  0  0  0  0  0  0  0  0  0
    3.2226   -4.4986    7.3282 C   0  0  1  0  0  0  0  0  0  0  0  0
    3.2368   -4.6173    8.7451 O   0  0  0  0  0  0  0  0  0  0  0  0
    3.6179   -3.1191    6.8123 C   0  0  2  0  0  0  0  0  0  0  0  0
    4.2570   -2.4397    7.9254 O   0  0  0  0  0  0  0  0  0  0  0  0
    2.2906   -2.2582    6.2876 C   0  0  2  0  0  0  0  0  0  0  0  0
    2.1323   -1.4769    7.4281 O   0  0  0  0  0  0  0  0  0  0  0  0
    0.7635   -2.8013    6.1808 C   0  0  0  0  0  0  0  0  0  0  0  0
   -0.1410   -2.0909    5.6116 N   0  0  0  0  0  0  0  0  0  0  0  0
   -0.3620   -0.6568    5.3673 C   0  0  1  0  0  0  0  0  0  0  0  0
   -1.8916   -0.6596    5.1934 C   0  0  0  0  0  0  0  0  0  0  0  0
    0.0403    0.2752    6.5218 C   0  0  1  0  0  0  0  0  0  0  0  0
   -0.1155   -0.2332    7.8188 O   0  0  0  0  0  0  0  0  0  0  0  0
    1.4186    0.8499    6.0966 C   0  0  1  0  0  0  0  0  0  0  0  0
    2.4178    1.0980    7.0669 O   0  0  0  0  0  0  0  0  0  0  0  0
    1.8825    0.1128    4.7832 C   0  0  2  0  0  0  0  0  0  0  0  0
    2.7387    1.0966    3.8959 C   0  0  1  0  0  0  0  0  0  0  0  0
    2.9115    0.5158    2.6148 O   0  0  0  0  0  0  0  0  0  0  0  0
    2.1019    2.4865    3.6511 C   0  0  1  0  0  0  0  0  0  0  0  0
    2.9981    3.2854    2.8957 O   0  0  0  0  0  0  0  0  0  0  0  0
    2.7257    4.6720    2.8137 C   0  0  0  0  0  0  0  0  0  0  0  0
    0.7632    2.3323    2.9413 C   0  0  0  0  0  0  0  0  0  0  0  0
   -0.1966    1.3028    3.5892 C   0  0  1  0  0  0  0  0  0  0  0  0
   -1.2736    1.0739    2.5290 C   0  0  0  0  0  0  0  0  0  0  0  0
    0.4260   -0.0521    4.1521 C   0  0  2  0  0  0  0  0  0  0  0  0
    2.6745   -1.3272    5.0020 C   0  0  2  0  0  0  0  0  0  0  0  0
    2.2043   -1.9292    3.8477 O   0  0  0  0  0  0  0  0  0  0  0  0
    4.2396   -1.4548    4.6440 C   0  0  0  0  0  0  0  0  0  0  0  0
    4.8917   -2.9305    4.3861 C   0  0  1  0  0  0  0  0  0  0  0  0
    4.9465   -3.4220    5.9192 C   0  0  1  0  0  0  0  0  0  0  0  0
    6.1131   -2.6799    6.3344 O   0  0  0  0  0  0  0  0  0  0  0  0
    5.3275   -4.9034    6.2981 C   0  0  0  0  0  0  0  0  0  0  0  0
    6.1162   -5.0079    7.6695 C   0  0  0  0  0  0  0  0  0  0  0  0
    6.4381   -5.4691    5.3711 C   0  0  0  0  0  0  0  0  0  0  0  0
    0.0796   -4.1404    6.8551 C   0  0  2  0  0  0  0  0  0  0  0  0
   -1.3461   -3.9276    6.9203 O   0  0  0  0  0  0  0  0  0  0  0  0
    0.4903   -2.3727    9.0801 H   0  0  0  0  0  0  0  0  0  0  0  0
    0.5994   -3.7442   10.3215 H   0  0  0  0  0  0  0  0  0  0  0  0
    1.5326   -7.4545    6.2201 H   0  0  0  0  0  0  0  0  0  0  0  0
    2.8470   -7.9318    2.3795 H   0  0  0  0  0  0  0  0  0  0  0  0
    1.2388   -8.3129    1.2110 H   0  0  0  0  0  0  0  0  0  0  0  0
    2.3056   -4.0895    1.6777 H   0  0  0  0  0  0  0  0  0  0  0  0
    6.3990   -6.0042    2.3237 H   0  0  0  0  0  0  0  0  0  0  0  0
    5.1781   -7.2158    1.9772 H   0  0  0  0  0  0  0  0  0  0  0  0
    5.3793   -6.6591    3.5575 H   0  0  0  0  0  0  0  0  0  0  0  0
    4.9200   -5.9705    0.2453 H   0  0  0  0  0  0  0  0  0  0  0  0
    3.7757   -4.7330    0.1063 H   0  0  0  0  0  0  0  0  0  0  0  0
    6.6823   -4.3371    0.8625 H   0  0  0  0  0  0  0  0  0  0  0  0
    5.9392   -3.9679   -0.6481 H   0  0  0  0  0  0  0  0  0  0  0  0
    6.2292   -2.2308    1.5107 H   0  0  0  0  0  0  0  0  0  0  0  0
    4.3107   -1.9656   -0.5244 H   0  0  0  0  0  0  0  0  0  0  0  0
    3.9990   -1.6694    2.1968 H   0  0  0  0  0  0  0  0  0  0  0  0
    3.2364   -2.8794    1.3133 H   0  0  0  0  0  0  0  0  0  0  0  0
    1.1782   -4.0223    4.6667 H   0  0  0  0  0  0  0  0  0  0  0  0
    4.6991   -7.5150    5.3295 H   0  0  0  0  0  0  0  0  0  0  0  0
    3.7631   -7.9032    4.0245 H   0  0  0  0  0  0  0  0  0  0  0  0
    3.2277   -8.3412    5.5700 H   0  0  0  0  0  0  0  0  0  0  0  0
    4.3520   -7.3864    6.9771 H   0  0  0  0  0  0  0  0  0  0  0  0
    2.2670   -4.7387    7.0712 H   0  0  0  0  0  0  0  0  0  0  0  0
    4.1474   -4.5434    8.9936 H   0  0  0  0  0  0  0  0  0  0  0  0
    4.8196   -1.7637    7.5589 H   0  0  0  0  0  0  0  0  0  0  0  0
    2.9120   -0.9486    7.5510 H   0  0  0  0  0  0  0  0  0  0  0  0
   -2.3067    0.3427    5.1202 H   0  0  0  0  0  0  0  0  0  0  0  0
   -2.3530   -1.1390    6.0525 H   0  0  0  0  0  0  0  0  0  0  0  0
   -2.1886   -1.2395    4.3181 H   0  0  0  0  0  0  0  0  0  0  0  0
   -0.6812    1.0853    6.5091 H   0  0  0  0  0  0  0  0  0  0  0  0
    0.6700   -0.7658    7.9733 H   0  0  0  0  0  0  0  0  0  0  0  0
    1.0907    1.8613    5.8967 H   0  0  0  0  0  0  0  0  0  0  0  0
    3.0241    1.7401    6.7221 H   0  0  0  0  0  0  0  0  0  0  0  0
    3.7072    1.2766    4.3597 H   0  0  0  0  0  0  0  0  0  0  0  0
    2.1087    0.6382    2.1186 H   0  0  0  0  0  0  0  0  0  0  0  0
    1.9784    3.0452    4.5724 H   0  0  0  0  0  0  0  0  0  0  0  0
    3.5377    5.1623    2.2700 H   0  0  0  0  0  0  0  0  0  0  0  0
    2.6618    5.1330    3.7985 H   0  0  0  0  0  0  0  0  0  0  0  0
    1.8145    4.8738    2.2596 H   0  0  0  0  0  0  0  0  0  0  0  0
    0.2572    3.3003    2.9179 H   0  0  0  0  0  0  0  0  0  0  0  0
    0.9139    2.0881    1.8894 H   0  0  0  0  0  0  0  0  0  0  0  0
   -0.6718    1.8277    4.4156 H   0  0  0  0  0  0  0  0  0  0  0  0
   -0.8532    0.6126    1.6377 H   0  0  0  0  0  0  0  0  0  0  0  0
   -1.7520    2.0106    2.2346 H   0  0  0  0  0  0  0  0  0  0  0  0
   -2.0169    0.4101    2.9184 H   0  0  0  0  0  0  0  0  0  0  0  0
    0.3885   -0.7058    3.2746 H   0  0  0  0  0  0  0  0  0  0  0  0
    2.4787   -1.3465    3.1468 H   0  0  0  0  0  0  0  0  0  0  0  0
    4.5618   -0.7763    3.8614 H   0  0  0  0  0  0  0  0  0  0  0  0
    4.7354   -0.9589    5.4747 H   0  0  0  0  0  0  0  0  0  0  0  0
    5.9028   -2.7083    4.0557 H   0  0  0  0  0  0  0  0  0  0  0  0
    6.8396   -3.0518    5.8544 H   0  0  0  0  0  0  0  0  0  0  0  0
    7.1021   -4.5477    7.6479 H   0  0  0  0  0  0  0  0  0  0  0  0
    6.3150   -6.0434    7.9496 H   0  0  0  0  0  0  0  0  0  0  0  0
    5.6390   -4.5353    8.5151 H   0  0  0  0  0  0  0  0  0  0  0  0
    7.4344   -5.1413    5.6711 H   0  0  0  0  0  0  0  0  0  0  0  0
    6.3884   -5.0630    4.3726 H   0  0  0  0  0  0  0  0  0  0  0  0
    6.5281   -6.5570    5.3776 H   0  0  0  0  0  0  0  0  0  0  0  0
   -1.7002   -4.8200    6.8279 H   0  0  0  0  0  0  0  0  0  0  0  0
  1  2  2  0
  1 65  1  0
  1 66  1  0
  2 63  1  0
  2  3  1  0
  3  4  2  0
  3  5  1  0
  5  6  1  0
  6 63  1  0
  6  7  1  6
  6  8  1  0
  8 26  1  0
  8  9  1  0
  8 67  1  1
  9 10  2  0
  9 11  1  6
 11 12  1  0
 11 13  1  0
 11 68  1  1
 12 69  1  0
 13 24  1  0
 13 14  1  6
 13 15  1  0
 14 70  1  0
 15 22  1  0
 15 16  1  1
 15 17  1  0
 16 71  1  0
 16 72  1  0
 16 73  1  0
 17 18  1  0
 17 74  1  0
 17 75  1  0
 18 19  1  0
 18 76  1  0
 18 77  1  0
 19 20  1  0
 19 21  1  0
 19 78  1  1
 20 79  1  0
 22 21  1  6
 21 80  1  0
 21 81  1  0
 22 57  1  0
 22 23  1  0
 23 24  1  0
 24 25  1  6
 24 26  1  0
 25 82  1  0
 26 27  1  6
 26 28  1  0
 27 83  1  0
 27 84  1  0
 27 85  1  0
 28 60  1  0
 28 29  1  1
 28 30  1  0
 29 86  1  0
 30 31  1  0
 30 32  1  0
 30 87  1  6
 31 88  1  0
 32 58  1  0
 32 33  1  1
 32 34  1  0
 33 89  1  0
 34 54  1  0
 34 35  1  1
 34 36  1  0
 35 90  1  0
 36 37  2  0
 36 63  1  0
 37 38  1  0
 38 53  1  0
 38 39  1  6
 38 40  1  0
 39 91  1  0
 39 92  1  0
 39 93  1  0
 40 41  1  0
 40 42  1  0
 40 94  1  1
 41 95  1  0
 42 43  1  0
 42 44  1  0
 42 96  1  6
 43 97  1  0
 44 53  1  0
 44 45  1  0
 44 54  1  1
 45 46  1  0
 45 47  1  0
 45 98  1  1
 46 99  1  0
 47 48  1  0
 47 50  1  0
 47100  1  1
 48 49  1  0
 49101  1  0
 49102  1  0
 49103  1  0
 50 51  1  0
 50104  1  0
 50105  1  0
 51 52  1  0
 51 53  1  0
 51106  1  1
 52107  1  0
 52108  1  0
 52109  1  0
 53110  1  6
 54 55  1  6
 54 56  1  0
 55111  1  0
 56 57  1  0
 56112  1  0
 56113  1  0
 57 58  1  0
 57114  1  6
 58 59  1  1
 58 60  1  0
 59115  1  0
 60 61  1  0
 60 62  1  0
 61116  1  0
 61117  1  0
 61118  1  0
 62119  1  0
 62120  1  0
 62121  1  0
 63 64  1  1
 64122  1  0
M  CHG  1   7  -1
M  END
>  <i_m_ct_stereo_status>  (92) 
1

>  <s_m_source_file>  (92) 
/var/tmp/pbs.5075288.sched01/tmphpu8_cit/24996nucuhu.sdf

>  <i_m_source_file_index>  (92) 
78

>  <i_lp_mmshare_version>  (92) 
48012

>  <i_f3d_flags>  (92) 
0

>  <s_epik_input>  (92) 
W09IXVtDQEBIXShbQ0gyXTEpW0NIMl1bQ0gyXVtDQF0oW0NAQF0xMjMpKFtDSDNdKVtDQF00KFtPSF0pW0NAQF0oTzIpKFtPSF0pW0NAXTUoW0NIM10pW0NASF0oW1MrXShbTy1dKVtDQEhdNFtPSF0pW0NAXTYoW09IXSlbQ0BAXShbT0hdKShDKD1bQ0gyXSlDKD1PKU82KUM9N1tDQEBdOChbT0hdKVtDQF05KFtPSF0pW0NAQF0oW09IXSkoQyhbQ0gzXSkoW0NIM10pW0NAQF01KFtPSF0pW0NASF05W09IXSlbQ0BASF0zW0NIMl1bQ0BdOChbT0hdKVtDQEBdMTJbQ0BASF0oW0NAXShONykoW0NIM10pW0NAQEhdKFtPSF0pW0NASF0xW09IXSlbQ0BIXShbQ0gzXSlbQ0gyXVtDQEBIXShbQ0BASF0yW09IXSlPW0NIM10=

>  <s_epik_cmdline>  (92) 
J2VwaWtfcHl0aG9uJywgJy1waHQnLCAnMi4wJywgJy1waCcsICc3LjAnLCAnLXRuJywgJzgnLCAnLW1hJywgJzIwMCcsICctaW1hZScsICc8aW5maWxlLm1hZT4nLCAnLW9tYWUnLCAnPG91dGZpbGUubWFlPic=

>  <r_epik_Ionization_Penalty>  (92) 
1.56795

>  <r_epik_Ionization_Penalty_Charging>  (92) 
1.56725

>  <r_epik_Ionization_Penalty_Neutral>  (92) 
0.000702507

>  <r_epik_State_Penalty>  (92) 
1.9692

>  <r_epik_Charging_Adjusted_Penalty>  (92) 
3.53645

>  <i_epik_Tot_Q>  (92) 
-1

>  <i_epik_Tot_abs_Q>  (92) 
3

>  <s_epik_Chemistry_Notes>  (92) 
This compound has an ester and may undergo hydrolysis at high or low pH. This compound has an imine and may undergo hydrolysis. This compound contains an acetal/aminal-like group ( X-CH(R)-Y where X, Y are N, S, or O) that may be acid/base labile, releasing an aldehyde.

>  <s_lp_Force_Field>  (92) 
OPLS3e

>  <r_lp_Energy>  (92) 
539.838

>  <b_lp_Chiralities_Consistent>  (92) 
1

>  <s_lp_Variant>  (92) 
103:0-3

>  <s_i_glide_gridfile>  (92) 
pfpi4k_grid

>  <i_i_glide_lignum>  (92) 
78

>  <i_i_glide_rotatable_bonds>  (92) 
15

>  <r_i_docking_score>  (92) 
-4.08283

>  <r_i_glide_ligand_efficiency>  (92) 
-0.0637942

>  <r_i_glide_ligand_efficiency_sa>  (92) 
-0.255177

>  <r_i_glide_ligand_efficiency_ln>  (92) 
-0.791418

>  <r_i_glide_gscore>  (92) 
-4.08283

>  <r_i_glide_lipo>  (92) 
-0.242739

>  <r_i_glide_hbond>  (92) 
-0.228891

>  <r_i_glide_metal>  (92) 
-0

>  <r_i_glide_rewards>  (92) 
-1

>  <r_i_glide_evdw>  (92) 
-32.5557

>  <r_i_glide_ecoul>  (92) 
-6.29838

>  <r_i_glide_erotb>  (92) 
0

>  <r_i_glide_esite>  (92) 
-0.0386566

>  <r_i_glide_emodel>  (92) 
-59.1703

>  <r_i_glide_energy>  (92) 
-38.8541

>  <r_i_glide_einternal>  (92) 
2.58683

>  <r_i_glide_intrahb_reward>  (92) 
-1

>  <i_i_glide_confnum>  (92) 
1

>  <i_i_glide_posenum>  (92) 
20

>  <r_i_glide_eff_state_penalty>  (92) 
0

>  <ligand_id>  (92) 
103

>  <original_smiles>  (92) 
C=C1C(=O)OC2(O)C3[S+]([O-])C(O)C4(O)C5(C)CCC(O)CC56OC4(O)C3(C)C3(O)C(O)C4(O)C5(O)C(=NC7(C)C(O)C(O)C8(C(O)C(OC)CC(C)C78)C5(O)CC6C4(O)C3(C)C)C12O

>  <smiles>  (92) 
[H]OC12C3=NC4(C([H])([H])[H])C([H])(O[H])C([H])(O[H])C5(C([H])(O[H])C([H])(OC([H])([H])[H])C([H])([H])C([H])(C([H])([H])[H])C45[H])C4(O[H])C([H])([H])C5([H])C6(O[H])C(O[H])(C([H])(O[H])C(O[H])(C7(C([H])([H])[H])C8(O[H])OC59C([H])([H])C([H])(O[H])C([H])([H])C([H])([H])C9(C([H])([H])[H])C8(O[H])C([H])(O[H])S(=O)C7([H])C1([O-])OC(=O)C2=C([H])[H])C6(C([H])([H])[H])C([H])([H])[H])C34O[H]

$$$$
103:2:1
     RDKit          3D

122132  0  0  1  0  0  0  0  0999 V2000
    0.4076   -3.3431    9.3702 C   0  0  0  0  0  0  0  0  0  0  0  0
    0.2704   -4.2261    8.3946 C   0  0  0  0  0  0  0  0  0  0  0  0
    0.2134   -5.6605    8.6332 C   0  0  0  0  0  0  0  0  0  0  0  0
    0.1443   -6.2252    9.7377 O   0  0  0  0  0  0  0  0  0  0  0  0
    0.1805   -6.3213    7.5050 O   0  0  0  0  0  0  0  0  0  0  0  0
    0.2831   -5.5603    6.3001 C   0  0  2  0  0  0  0  0  0  0  0  0
   -0.8198   -5.8226    5.5595 O   0  0  0  0  0  0  0  0  0  0  0  0
    1.5138   -6.4155    5.5646 C   0  0  1  0  0  0  0  0  0  0  0  0
    1.0184   -7.2375    3.8786 S   0  0  0  0  0  0  0  0  0  0  0  0
    1.0904   -8.7234    4.0932 O   0  0  0  0  0  0  0  0  0  0  0  0
    2.3023   -6.8263    2.5078 C   0  0  1  0  0  0  0  0  0  0  0  0
    1.7386   -7.0387    1.2235 O   0  0  0  0  0  0  0  0  0  0  0  0
    2.9821   -5.3936    2.6723 C   0  0  2  0  0  0  0  0  0  0  0  0
    2.2226   -4.6407    1.7300 O   0  0  0  0  0  0  0  0  0  0  0  0
    4.5020   -4.9241    2.4603 C   0  0  1  0  0  0  0  0  0  0  0  0
    5.5438   -6.0349    2.7372 C   0  0  0  0  0  0  0  0  0  0  0  0
    4.8649   -4.6884    0.9186 C   0  0  0  0  0  0  0  0  0  0  0  0
    5.9944   -3.6681    0.7010 C   0  0  0  0  0  0  0  0  0  0  0  0
    5.6052   -2.3018    1.2788 C   0  0  1  0  0  0  0  0  0  0  0  0
    5.4075   -1.3752    0.2244 O   0  0  0  0  0  0  0  0  0  0  0  0
    4.3407   -2.3879    2.1640 C   0  0  0  0  0  0  0  0  0  0  0  0
    4.4784   -3.4929    3.2922 C   0  0  1  0  0  0  0  0  0  0  0  0
    3.5195   -3.8514    4.2432 O   0  0  0  0  0  0  0  0  0  0  0  0
    2.7377   -4.9020    4.0974 C   0  0  1  0  0  0  0  0  0  0  0  0
    1.4383   -4.3441    4.0321 O   0  0  0  0  0  0  0  0  0  0  0  0
    3.0092   -5.9294    5.3572 C   0  0  2  0  0  0  0  0  0  0  0  0
    3.7526   -7.3082    5.0839 C   0  0  0  0  0  0  0  0  0  0  0  0
    3.9095   -5.4174    6.6429 C   0  0  2  0  0  0  0  0  0  0  0  0
    3.9688   -6.5255    7.5473 O   0  0  0  0  0  0  0  0  0  0  0  0
    3.2255   -4.3709    7.4828 C   0  0  1  0  0  0  0  0  0  0  0  0
    3.1942   -4.5403    8.8968 O   0  0  0  0  0  0  0  0  0  0  0  0
    3.6567   -2.9772    7.0338 C   0  0  2  0  0  0  0  0  0  0  0  0
    4.2567   -2.3623    8.2068 O   0  0  0  0  0  0  0  0  0  0  0  0
    2.3490   -2.0946    6.4831 C   0  0  2  0  0  0  0  0  0  0  0  0
    2.1581   -1.3479    7.6430 O   0  0  0  0  0  0  0  0  0  0  0  0
    0.8231   -2.6445    6.2964 C   0  0  0  0  0  0  0  0  0  0  0  0
   -0.0744   -1.9048    5.7422 N   0  0  0  0  0  0  0  0  0  0  0  0
   -0.2730   -0.4660    5.5186 C   0  0  1  0  0  0  0  0  0  0  0  0
   -1.7920   -0.4443    5.2752 C   0  0  0  0  0  0  0  0  0  0  0  0
    0.0866    0.4224    6.7231 C   0  0  1  0  0  0  0  0  0  0  0  0
   -0.2335   -0.0832    7.9985 O   0  0  0  0  0  0  0  0  0  0  0  0
    1.4901    1.0123    6.3801 C   0  0  1  0  0  0  0  0  0  0  0  0
    2.4431    1.2385    7.4008 O   0  0  0  0  0  0  0  0  0  0  0  0
    2.0007    0.3327    5.0557 C   0  0  2  0  0  0  0  0  0  0  0  0
    2.8911    1.3618    4.2517 C   0  0  1  0  0  0  0  0  0  0  0  0
    3.1522    0.8604    2.9526 O   0  0  0  0  0  0  0  0  0  0  0  0
    2.2552    2.7506    4.0007 C   0  0  1  0  0  0  0  0  0  0  0  0
    3.1862    3.5547    3.2816 O   0  0  0  0  0  0  0  0  0  0  0  0
    2.7916    4.8932    3.0084 C   0  0  0  0  0  0  0  0  0  0  0  0
    0.9343    2.5943    3.2484 C   0  0  0  0  0  0  0  0  0  0  0  0
   -0.0441    1.5564    3.8312 C   0  0  1  0  0  0  0  0  0  0  0  0
   -1.0927    1.3695    2.7274 C   0  0  0  0  0  0  0  0  0  0  0  0
    0.5681    0.1836    4.3608 C   0  0  2  0  0  0  0  0  0  0  0  0
    2.7803   -1.1192    5.2422 C   0  0  2  0  0  0  0  0  0  0  0  0
    2.3573   -1.6728    4.0464 O   0  0  0  0  0  0  0  0  0  0  0  0
    4.3561   -1.2399    4.9416 C   0  0  0  0  0  0  0  0  0  0  0  0
    5.0059   -2.7177    4.6639 C   0  0  1  0  0  0  0  0  0  0  0  0
    5.0082   -3.2658    6.1760 C   0  0  1  0  0  0  0  0  0  0  0  0
    6.1823   -2.5831    6.6467 O   0  0  0  0  0  0  0  0  0  0  0  0
    5.3665   -4.7571    6.5220 C   0  0  0  0  0  0  0  0  0  0  0  0
    6.1099   -4.9069    7.9165 C   0  0  0  0  0  0  0  0  0  0  0  0
    6.5081   -5.2920    5.6170 C   0  0  0  0  0  0  0  0  0  0  0  0
    0.1038   -4.0116    6.8930 C   0  0  2  0  0  0  0  0  0  0  0  0
   -1.3217   -3.8110    6.9078 O   0  0  0  0  0  0  0  0  0  0  0  0
    0.4504   -2.2824    9.1948 H   0  0  0  0  0  0  0  0  0  0  0  0
    0.5054   -3.6888   10.3947 H   0  0  0  0  0  0  0  0  0  0  0  0
    1.5800   -7.2958    6.2202 H   0  0  0  0  0  0  0  0  0  0  0  0
    3.0256   -7.6248    2.4112 H   0  0  0  0  0  0  0  0  0  0  0  0
    1.6176   -7.9722    1.0992 H   0  0  0  0  0  0  0  0  0  0  0  0
    2.4977   -3.7440    1.8252 H   0  0  0  0  0  0  0  0  0  0  0  0
    6.5751   -5.7248    2.5501 H   0  0  0  0  0  0  0  0  0  0  0  0
    5.3652   -6.9161    2.1182 H   0  0  0  0  0  0  0  0  0  0  0  0
    5.5111   -6.4145    3.7235 H   0  0  0  0  0  0  0  0  0  0  0  0
    5.1735   -5.6093    0.4313 H   0  0  0  0  0  0  0  0  0  0  0  0
    4.0324   -4.3682    0.2863 H   0  0  0  0  0  0  0  0  0  0  0  0
    6.9175   -4.0091    1.1627 H   0  0  0  0  0  0  0  0  0  0  0  0
    6.2329   -3.5885   -0.3612 H   0  0  0  0  0  0  0  0  0  0  0  0
    6.4543   -1.9215    1.8577 H   0  0  0  0  0  0  0  0  0  0  0  0
    4.5914   -1.5790   -0.2235 H   0  0  0  0  0  0  0  0  0  0  0  0
    4.1991   -1.3762    2.4816 H   0  0  0  0  0  0  0  0  0  0  0  0
    3.4708   -2.5495    1.5365 H   0  0  0  0  0  0  0  0  0  0  0  0
    1.2722   -3.8180    4.7979 H   0  0  0  0  0  0  0  0  0  0  0  0
    4.7694   -7.3257    5.4430 H   0  0  0  0  0  0  0  0  0  0  0  0
    3.8739   -7.6666    4.0933 H   0  0  0  0  0  0  0  0  0  0  0  0
    3.2888   -8.1529    5.6053 H   0  0  0  0  0  0  0  0  0  0  0  0
    4.3773   -7.2444    7.0873 H   0  0  0  0  0  0  0  0  0  0  0  0
    2.2771   -4.6009    7.1887 H   0  0  0  0  0  0  0  0  0  0  0  0
    4.0958   -4.4605    9.1826 H   0  0  0  0  0  0  0  0  0  0  0  0
    4.7382   -1.5938    7.9362 H   0  0  0  0  0  0  0  0  0  0  0  0
    2.9315   -0.8147    7.7994 H   0  0  0  0  0  0  0  0  0  0  0  0
   -2.1939    0.5646    5.2334 H   0  0  0  0  0  0  0  0  0  0  0  0
   -2.2967   -0.9556    6.0834 H   0  0  0  0  0  0  0  0  0  0  0  0
   -2.0722   -0.9944    4.3742 H   0  0  0  0  0  0  0  0  0  0  0  0
   -0.6014    1.2584    6.7047 H   0  0  0  0  0  0  0  0  0  0  0  0
    0.2377    0.4538    8.6207 H   0  0  0  0  0  0  0  0  0  0  0  0
    1.1825    2.0314    6.1883 H   0  0  0  0  0  0  0  0  0  0  0  0
    3.0622    1.8877    7.0911 H   0  0  0  0  0  0  0  0  0  0  0  0
    3.8458    1.5212    4.7584 H   0  0  0  0  0  0  0  0  0  0  0  0
    3.6717    1.5227    2.4954 H   0  0  0  0  0  0  0  0  0  0  0  0
    2.1020    3.2925    4.9327 H   0  0  0  0  0  0  0  0  0  0  0  0
    3.6279    5.4168    2.5478 H   0  0  0  0  0  0  0  0  0  0  0  0
    2.5222    5.4269    3.9201 H   0  0  0  0  0  0  0  0  0  0  0  0
    1.9604    4.9451    2.3051 H   0  0  0  0  0  0  0  0  0  0  0  0
    0.4295    3.5590    3.2443 H   0  0  0  0  0  0  0  0  0  0  0  0
    1.1253    2.3818    2.1951 H   0  0  0  0  0  0  0  0  0  0  0  0
   -0.5427    2.0611    4.6557 H   0  0  0  0  0  0  0  0  0  0  0  0
   -0.6570    0.9321    1.8325 H   0  0  0  0  0  0  0  0  0  0  0  0
   -1.5338    2.3236    2.4406 H   0  0  0  0  0  0  0  0  0  0  0  0
   -1.8881    0.7262    3.0490 H   0  0  0  0  0  0  0  0  0  0  0  0
    0.5635   -0.4334    3.4550 H   0  0  0  0  0  0  0  0  0  0  0  0
    2.6000   -1.0308    3.3797 H   0  0  0  0  0  0  0  0  0  0  0  0
    4.7070   -0.5436    4.1877 H   0  0  0  0  0  0  0  0  0  0  0  0
    4.8141   -0.7701    5.8072 H   0  0  0  0  0  0  0  0  0  0  0  0
    6.0415   -2.5476    4.3908 H   0  0  0  0  0  0  0  0  0  0  0  0
    6.0859   -1.6624    6.4648 H   0  0  0  0  0  0  0  0  0  0  0  0
    7.0980   -4.4478    7.9388 H   0  0  0  0  0  0  0  0  0  0  0  0
    6.2973   -5.9517    8.1604 H   0  0  0  0  0  0  0  0  0  0  0  0
    5.6070   -4.4596    8.7605 H   0  0  0  0  0  0  0  0  0  0  0  0
    7.4915   -4.9692    5.9595 H   0  0  0  0  0  0  0  0  0  0  0  0
    6.4896   -4.8559    4.6319 H   0  0  0  0  0  0  0  0  0  0  0  0
    6.5972   -6.3771    5.5940 H   0  0  0  0  0  0  0  0  0  0  0  0
   -1.6684   -4.7014    6.7657 H   0  0  0  0  0  0  0  0  0  0  0  0
  1  2  2  0
  1 65  1  0
  1 66  1  0
  2 63  1  0
  2  3  1  0
  3  4  2  0
  3  5  1  0
  5  6  1  0
  6 63  1  0
  6  7  1  6
  6  8  1  0
  8 26  1  0
  8  9  1  0
  8 67  1  1
  9 10  2  0
  9 11  1  6
 11 12  1  0
 11 13  1  0
 11 68  1  1
 12 69  1  0
 13 24  1  0
 13 14  1  6
 13 15  1  0
 14 70  1  0
 15 22  1  0
 15 16  1  1
 15 17  1  0
 16 71  1  0
 16 72  1  0
 16 73  1  0
 17 18  1  0
 17 74  1  0
 17 75  1  0
 18 19  1  0
 18 76  1  0
 18 77  1  0
 19 20  1  0
 19 21  1  0
 19 78  1  1
 20 79  1  0
 22 21  1  6
 21 80  1  0
 21 81  1  0
 22 57  1  0
 22 23  1  0
 23 24  1  0
 24 25  1  6
 24 26  1  0
 25 82  1  0
 26 27  1  6
 26 28  1  0
 27 83  1  0
 27 84  1  0
 27 85  1  0
 28 60  1  0
 28 29  1  1
 28 30  1  0
 29 86  1  0
 30 31  1  0
 30 32  1  0
 30 87  1  6
 31 88  1  0
 32 58  1  0
 32 33  1  1
 32 34  1  0
 33 89  1  0
 34 54  1  0
 34 35  1  1
 34 36  1  0
 35 90  1  0
 36 37  2  0
 36 63  1  0
 37 38  1  0
 38 53  1  0
 38 39  1  6
 38 40  1  0
 39 91  1  0
 39 92  1  0
 39 93  1  0
 40 41  1  0
 40 42  1  0
 40 94  1  6
 41 95  1  0
 42 43  1  0
 42 44  1  0
 42 96  1  6
 43 97  1  0
 44 53  1  0
 44 45  1  0
 44 54  1  1
 45 46  1  0
 45 47  1  0
 45 98  1  1
 46 99  1  0
 47 48  1  0
 47 50  1  0
 47100  1  1
 48 49  1  0
 49101  1  0
 49102  1  0
 49103  1  0
 50 51  1  0
 50104  1  0
 50105  1  0
 51 52  1  0
 51 53  1  0
 51106  1  1
 52107  1  0
 52108  1  0
 52109  1  0
 53110  1  6
 54 55  1  6
 54 56  1  0
 55111  1  0
 56 57  1  0
 56112  1  0
 56113  1  0
 57 58  1  0
 57114  1  6
 58 59  1  1
 58 60  1  0
 59115  1  0
 60 61  1  0
 60 62  1  0
 61116  1  0
 61117  1  0
 61118  1  0
 62119  1  0
 62120  1  0
 62121  1  0
 63 64  1  1
 64122  1  0
M  CHG  1   7  -1
M  END
>  <i_m_ct_stereo_status>  (93) 
1

>  <s_m_source_file>  (93) 
/var/tmp/pbs.5075288.sched01/tmphpu8_cit/24996nucuhu.sdf

>  <i_m_source_file_index>  (93) 
78

>  <i_lp_mmshare_version>  (93) 
48012

>  <i_f3d_flags>  (93) 
0

>  <s_epik_input>  (93) 
W09IXVtDQEBIXShbQ0gyXTEpW0NIMl1bQ0gyXVtDQF0oW0NAQF0xMjMpKFtDSDNdKVtDQF00KFtPSF0pW0NAQF0oTzIpKFtPSF0pW0NAXTUoW0NIM10pW0NASF0oW1MrXShbTy1dKVtDQEhdNFtPSF0pW0NAXTYoW09IXSlbQ0BAXShbT0hdKShDKD1bQ0gyXSlDKD1PKU82KUM9N1tDQEBdOChbT0hdKVtDQF05KFtPSF0pW0NAQF0oW09IXSkoQyhbQ0gzXSkoW0NIM10pW0NAQF01KFtPSF0pW0NASF05W09IXSlbQ0BASF0zW0NIMl1bQ0BdOChbT0hdKVtDQEBdMTJbQ0BASF0oW0NAXShONykoW0NIM10pW0NAQEhdKFtPSF0pW0NASF0xW09IXSlbQ0BIXShbQ0gzXSlbQ0gyXVtDQEBIXShbQ0BASF0yW09IXSlPW0NIM10=

>  <s_epik_cmdline>  (93) 
J2VwaWtfcHl0aG9uJywgJy1waHQnLCAnMi4wJywgJy1waCcsICc3LjAnLCAnLXRuJywgJzgnLCAnLW1hJywgJzIwMCcsICctaW1hZScsICc8aW5maWxlLm1hZT4nLCAnLW9tYWUnLCAnPG91dGZpbGUubWFlPic=

>  <r_epik_Ionization_Penalty>  (93) 
1.56795

>  <r_epik_Ionization_Penalty_Charging>  (93) 
1.56725

>  <r_epik_Ionization_Penalty_Neutral>  (93) 
0.000702507

>  <r_epik_State_Penalty>  (93) 
1.9692

>  <r_epik_Charging_Adjusted_Penalty>  (93) 
3.53645

>  <i_epik_Tot_Q>  (93) 
-1

>  <i_epik_Tot_abs_Q>  (93) 
3

>  <s_epik_Chemistry_Notes>  (93) 
This compound has an ester and may undergo hydrolysis at high or low pH. This compound has an imine and may undergo hydrolysis. This compound contains an acetal/aminal-like group ( X-CH(R)-Y where X, Y are N, S, or O) that may be acid/base labile, releasing an aldehyde.

>  <s_lp_Force_Field>  (93) 
OPLS3e

>  <r_lp_Energy>  (93) 
539.838

>  <b_lp_Chiralities_Consistent>  (93) 
1

>  <s_lp_Variant>  (93) 
103:0-3

>  <s_i_glide_gridfile>  (93) 
pfpi4k_grid

>  <i_i_glide_lignum>  (93) 
78

>  <i_i_glide_rotatable_bonds>  (93) 
15

>  <r_i_docking_score>  (93) 
-3.79014

>  <r_i_glide_ligand_efficiency>  (93) 
-0.059221

>  <r_i_glide_ligand_efficiency_sa>  (93) 
-0.236884

>  <r_i_glide_ligand_efficiency_ln>  (93) 
-0.734683

>  <r_i_glide_gscore>  (93) 
-3.79014

>  <r_i_glide_lipo>  (93) 
-0.320155

>  <r_i_glide_hbond>  (93) 
-0.254269

>  <r_i_glide_metal>  (93) 
-0

>  <r_i_glide_rewards>  (93) 
-0.5

>  <r_i_glide_evdw>  (93) 
-32.6444

>  <r_i_glide_ecoul>  (93) 
-6.99545

>  <r_i_glide_erotb>  (93) 
0

>  <r_i_glide_esite>  (93) 
-0.0341799

>  <r_i_glide_emodel>  (93) 
-54.3254

>  <r_i_glide_energy>  (93) 
-39.6399

>  <r_i_glide_einternal>  (93) 
2.85363

>  <r_i_glide_intrahb_reward>  (93) 
-0.5

>  <i_i_glide_confnum>  (93) 
2

>  <i_i_glide_posenum>  (93) 
9

>  <r_i_glide_eff_state_penalty>  (93) 
0

>  <ligand_id>  (93) 
103

>  <original_smiles>  (93) 
C=C1C(=O)OC2(O)C3[S+]([O-])C(O)C4(O)C5(C)CCC(O)CC56OC4(O)C3(C)C3(O)C(O)C4(O)C5(O)C(=NC7(C)C(O)C(O)C8(C(O)C(OC)CC(C)C78)C5(O)CC6C4(O)C3(C)C)C12O

>  <smiles>  (93) 
[H]OC12C3=NC4(C([H])([H])[H])C([H])(O[H])C([H])(O[H])C5(C([H])(O[H])C([H])(OC([H])([H])[H])C([H])([H])C([H])(C([H])([H])[H])C45[H])C4(O[H])C([H])([H])C5([H])C6(O[H])C(O[H])(C([H])(O[H])C(O[H])(C7(C([H])([H])[H])C8(O[H])OC59C([H])([H])C([H])(O[H])C([H])([H])C([H])([H])C9(C([H])([H])[H])C8(O[H])C([H])(O[H])S(=O)C7([H])C1([O-])OC(=O)C2=C([H])[H])C6(C([H])([H])[H])C([H])([H])[H])C34O[H]

$$$$
103:2:2
     RDKit          3D

122132  0  0  1  0  0  0  0  0999 V2000
    0.2496   -2.9758    9.4344 C   0  0  0  0  0  0  0  0  0  0  0  0
    0.1369   -3.9191    8.5135 C   0  0  0  0  0  0  0  0  0  0  0  0
    0.0802   -5.3379    8.8336 C   0  0  0  0  0  0  0  0  0  0  0  0
    0.0183   -5.8351    9.9715 O   0  0  0  0  0  0  0  0  0  0  0  0
    0.0327   -6.0610    7.7340 O   0  0  0  0  0  0  0  0  0  0  0  0
    0.1849   -5.3624    6.4927 C   0  0  2  0  0  0  0  0  0  0  0  0
   -0.9048   -5.6597    5.7290 O   0  0  0  0  0  0  0  0  0  0  0  0
    1.4319   -6.2567    5.8289 C   0  0  1  0  0  0  0  0  0  0  0  0
    0.9715   -7.1971    4.1860 S   0  0  0  0  0  0  0  0  0  0  0  0
    1.0681   -8.6594    4.5180 O   0  0  0  0  0  0  0  0  0  0  0  0
    2.2715   -6.8398    2.7988 C   0  0  1  0  0  0  0  0  0  0  0  0
    1.7721   -7.1015    1.4951 O   0  0  0  0  0  0  0  0  0  0  0  0
    2.9416   -5.3909    2.9054 C   0  0  2  0  0  0  0  0  0  0  0  0
    2.2175   -4.6666    1.9185 O   0  0  0  0  0  0  0  0  0  0  0  0
    4.4554   -4.9290    2.6756 C   0  0  1  0  0  0  0  0  0  0  0  0
    5.5024   -6.0065    3.0398 C   0  0  0  0  0  0  0  0  0  0  0  0
    4.8379   -4.7930    1.1244 C   0  0  0  0  0  0  0  0  0  0  0  0
    5.9453   -3.7678    0.8541 C   0  0  0  0  0  0  0  0  0  0  0  0
    5.5175   -2.3738    1.3359 C   0  0  1  0  0  0  0  0  0  0  0  0
    5.3256   -1.5238    0.2175 O   0  0  0  0  0  0  0  0  0  0  0  0
    4.2473   -2.4193    2.2136 C   0  0  0  0  0  0  0  0  0  0  0  0
    4.3926   -3.4471    3.4097 C   0  0  1  0  0  0  0  0  0  0  0  0
    3.4346   -3.7613    4.3780 O   0  0  0  0  0  0  0  0  0  0  0  0
    2.6670   -4.8275    4.2906 C   0  0  1  0  0  0  0  0  0  0  0  0
    1.3613   -4.3003    4.1724 O   0  0  0  0  0  0  0  0  0  0  0  0
    2.9317   -5.7690    5.6142 C   0  0  2  0  0  0  0  0  0  0  0  0
    3.6971   -7.1519    5.4374 C   0  0  0  0  0  0  0  0  0  0  0  0
    3.8109   -5.1631    6.8766 C   0  0  2  0  0  0  0  0  0  0  0  0
    3.8748   -6.2132    7.8518 O   0  0  0  0  0  0  0  0  0  0  0  0
    3.1085   -4.0697    7.6438 C   0  0  1  0  0  0  0  0  0  0  0  0
    3.0602   -4.1424    9.0658 O   0  0  0  0  0  0  0  0  0  0  0  0
    3.5143   -2.6995    7.1051 C   0  0  2  0  0  0  0  0  0  0  0  0
    4.0948   -1.9687    8.2206 O   0  0  0  0  0  0  0  0  0  0  0  0
    2.1980   -1.8806    6.4886 C   0  0  2  0  0  0  0  0  0  0  0  0
    1.9762   -1.0640    7.5989 O   0  0  0  0  0  0  0  0  0  0  0  0
    0.6857   -2.4640    6.3196 C   0  0  0  0  0  0  0  0  0  0  0  0
   -0.2127   -1.7762    5.7049 N   0  0  0  0  0  0  0  0  0  0  0  0
   -0.4288   -0.3529    5.3944 C   0  0  1  0  0  0  0  0  0  0  0  0
   -1.9490   -0.3795    5.1475 C   0  0  0  0  0  0  0  0  0  0  0  0
   -0.0888    0.6338    6.5367 C   0  0  1  0  0  0  0  0  0  0  0  0
   -0.2937    0.1750    7.8484 O   0  0  0  0  0  0  0  0  0  0  0  0
    1.3037    1.2165    6.1582 C   0  0  1  0  0  0  0  0  0  0  0  0
    2.2501    1.5079    7.1689 O   0  0  0  0  0  0  0  0  0  0  0  0
    1.8343    0.4450    4.8936 C   0  0  2  0  0  0  0  0  0  0  0  0
    2.7190    1.4060    4.0143 C   0  0  1  0  0  0  0  0  0  0  0  0
    2.9676    0.7918    2.7587 O   0  0  0  0  0  0  0  0  0  0  0  0
    2.0836    2.7807    3.6929 C   0  0  1  0  0  0  0  0  0  0  0  0
    3.0185    3.5647    2.9537 O   0  0  0  0  0  0  0  0  0  0  0  0
    2.7458    4.9597    2.8813 C   0  0  0  0  0  0  0  0  0  0  0  0
    0.7713    2.5792    2.9388 C   0  0  0  0  0  0  0  0  0  0  0  0
   -0.2048    1.5652    3.5686 C   0  0  1  0  0  0  0  0  0  0  0  0
   -1.2361    1.2976    2.4638 C   0  0  0  0  0  0  0  0  0  0  0  0
    0.4108    0.2343    4.1987 C   0  0  2  0  0  0  0  0  0  0  0  0
    2.6292   -0.9773    5.1964 C   0  0  2  0  0  0  0  0  0  0  0  0
    2.2218   -1.6289    4.0474 O   0  0  0  0  0  0  0  0  0  0  0  0
    4.2070   -1.0964    4.9149 C   0  0  0  0  0  0  0  0  0  0  0  0
    4.8799   -2.5724    4.7329 C   0  0  1  0  0  0  0  0  0  0  0  0
    4.8744   -3.0210    6.2788 C   0  0  1  0  0  0  0  0  0  0  0  0
    6.0085   -2.2489    6.7104 O   0  0  0  0  0  0  0  0  0  0  0  0
    5.2623   -4.4828    6.7275 C   0  0  0  0  0  0  0  0  0  0  0  0
    5.9925   -4.5309    8.1373 C   0  0  0  0  0  0  0  0  0  0  0  0
    6.4235   -5.0605    5.8693 C   0  0  0  0  0  0  0  0  0  0  0  0
   -0.0131   -3.7966    7.0034 C   0  0  2  0  0  0  0  0  0  0  0  0
   -1.4367   -3.6428    6.9777 O   0  0  0  0  0  0  0  0  0  0  0  0
    0.2759   -1.9279    9.1961 H   0  0  0  0  0  0  0  0  0  0  0  0
    0.3339   -3.2544   10.4807 H   0  0  0  0  0  0  0  0  0  0  0  0
    1.5053   -7.0903    6.5413 H   0  0  0  0  0  0  0  0  0  0  0  0
    2.9904   -7.6502    2.7821 H   0  0  0  0  0  0  0  0  0  0  0  0
    1.9444   -8.0092    1.2728 H   0  0  0  0  0  0  0  0  0  0  0  0
    2.5238   -4.9981    1.0906 H   0  0  0  0  0  0  0  0  0  0  0  0
    6.5312   -5.6918    2.8428 H   0  0  0  0  0  0  0  0  0  0  0  0
    5.3418   -6.9283    2.4770 H   0  0  0  0  0  0  0  0  0  0  0  0
    5.4620   -6.3204    4.0484 H   0  0  0  0  0  0  0  0  0  0  0  0
    5.1532   -5.7426    0.6965 H   0  0  0  0  0  0  0  0  0  0  0  0
    4.0240   -4.5095    0.4547 H   0  0  0  0  0  0  0  0  0  0  0  0
    6.8659   -4.0595    1.3464 H   0  0  0  0  0  0  0  0  0  0  0  0
    6.1881   -3.7535   -0.2087 H   0  0  0  0  0  0  0  0  0  0  0  0
    6.3501   -1.9390    1.8991 H   0  0  0  0  0  0  0  0  0  0  0  0
    4.5228   -1.7712   -0.2286 H   0  0  0  0  0  0  0  0  0  0  0  0
    4.0814   -1.3947    2.4675 H   0  0  0  0  0  0  0  0  0  0  0  0
    3.3867   -2.6318    1.5918 H   0  0  0  0  0  0  0  0  0  0  0  0
    1.1893   -3.7082    4.8858 H   0  0  0  0  0  0  0  0  0  0  0  0
    4.7115   -7.1321    5.8095 H   0  0  0  0  0  0  0  0  0  0  0  0
    3.8342   -7.5708    4.4710 H   0  0  0  0  0  0  0  0  0  0  0  0
    3.2431   -7.9686    6.0106 H   0  0  0  0  0  0  0  0  0  0  0  0
    4.2867   -6.9582    7.4381 H   0  0  0  0  0  0  0  0  0  0  0  0
    2.1668   -4.3259    7.3555 H   0  0  0  0  0  0  0  0  0  0  0  0
    3.9572   -4.0656    9.3604 H   0  0  0  0  0  0  0  0  0  0  0  0
    4.6740   -1.3088    7.8542 H   0  0  0  0  0  0  0  0  0  0  0  0
    2.7762   -0.5817    7.7853 H   0  0  0  0  0  0  0  0  0  0  0  0
   -2.3663    0.6130    5.0171 H   0  0  0  0  0  0  0  0  0  0  0  0
   -2.4470   -0.8237    6.0042 H   0  0  0  0  0  0  0  0  0  0  0  0
   -2.2145   -0.9973    4.2858 H   0  0  0  0  0  0  0  0  0  0  0  0
   -0.8176    1.4351    6.4627 H   0  0  0  0  0  0  0  0  0  0  0  0
    0.4850   -0.3451    8.0535 H   0  0  0  0  0  0  0  0  0  0  0  0
    0.9734    2.2160    5.9098 H   0  0  0  0  0  0  0  0  0  0  0  0
    2.8886    2.1121    6.8161 H   0  0  0  0  0  0  0  0  0  0  0  0
    3.6688    1.6116    4.5164 H   0  0  0  0  0  0  0  0  0  0  0  0
    2.1766    0.8748    2.2326 H   0  0  0  0  0  0  0  0  0  0  0  0
    1.9156    3.3631    4.5957 H   0  0  0  0  0  0  0  0  0  0  0  0
    3.5666    5.4466    2.3585 H   0  0  0  0  0  0  0  0  0  0  0  0
    2.6907    5.4066    3.8740 H   0  0  0  0  0  0  0  0  0  0  0  0
    1.8261    5.1782    2.3388 H   0  0  0  0  0  0  0  0  0  0  0  0
    0.2654    3.5440    2.8806 H   0  0  0  0  0  0  0  0  0  0  0  0
    0.9822    2.3088    1.9035 H   0  0  0  0  0  0  0  0  0  0  0  0
   -0.7242    2.1074    4.3531 H   0  0  0  0  0  0  0  0  0  0  0  0
   -0.7793    0.8029    1.6112 H   0  0  0  0  0  0  0  0  0  0  0  0
   -1.6892    2.2236    2.1120 H   0  0  0  0  0  0  0  0  0  0  0  0
   -2.0252    0.6676    2.8209 H   0  0  0  0  0  0  0  0  0  0  0  0
    0.4194   -0.4449    3.3432 H   0  0  0  0  0  0  0  0  0  0  0  0
    2.5184   -1.0760    3.3298 H   0  0  0  0  0  0  0  0  0  0  0  0
    4.5624   -0.4448    4.1267 H   0  0  0  0  0  0  0  0  0  0  0  0
    4.6644   -0.5696    5.7481 H   0  0  0  0  0  0  0  0  0  0  0  0
    5.9013   -2.3709    4.4345 H   0  0  0  0  0  0  0  0  0  0  0  0
    6.7704   -2.6250    6.2953 H   0  0  0  0  0  0  0  0  0  0  0  0
    6.9730   -4.0564    8.1416 H   0  0  0  0  0  0  0  0  0  0  0  0
    6.1890   -5.5564    8.4535 H   0  0  0  0  0  0  0  0  0  0  0  0
    5.4685   -4.0378    8.9427 H   0  0  0  0  0  0  0  0  0  0  0  0
    7.3992   -4.7102    6.2004 H   0  0  0  0  0  0  0  0  0  0  0  0
    6.4095   -4.6861    4.8598 H   0  0  0  0  0  0  0  0  0  0  0  0
    6.5240   -6.1452    5.9139 H   0  0  0  0  0  0  0  0  0  0  0  0
   -1.6931   -4.5184    6.6350 H   0  0  0  0  0  0  0  0  0  0  0  0
  1  2  2  0
  1 65  1  0
  1 66  1  0
  2 63  1  0
  2  3  1  0
  3  4  2  0
  3  5  1  0
  5  6  1  0
  6 63  1  0
  6  7  1  6
  6  8  1  0
  8 26  1  0
  8  9  1  0
  8 67  1  1
  9 10  2  0
  9 11  1  6
 11 12  1  0
 11 13  1  0
 11 68  1  1
 12 69  1  0
 13 24  1  0
 13 14  1  6
 13 15  1  0
 14 70  1  0
 15 22  1  0
 15 16  1  1
 15 17  1  0
 16 71  1  0
 16 72  1  0
 16 73  1  0
 17 18  1  0
 17 74  1  0
 17 75  1  0
 18 19  1  0
 18 76  1  0
 18 77  1  0
 19 20  1  0
 19 21  1  0
 19 78  1  1
 20 79  1  0
 22 21  1  6
 21 80  1  0
 21 81  1  0
 22 57  1  0
 22 23  1  0
 23 24  1  0
 24 25  1  6
 24 26  1  0
 25 82  1  0
 26 27  1  6
 26 28  1  0
 27 83  1  0
 27 84  1  0
 27 85  1  0
 28 60  1  0
 28 29  1  1
 28 30  1  0
 29 86  1  0
 30 31  1  0
 30 32  1  0
 30 87  1  6
 31 88  1  0
 32 58  1  0
 32 33  1  1
 32 34  1  0
 33 89  1  0
 34 54  1  0
 34 35  1  1
 34 36  1  0
 35 90  1  0
 36 37  2  0
 36 63  1  0
 37 38  1  0
 38 53  1  0
 38 39  1  6
 38 40  1  0
 39 91  1  0
 39 92  1  0
 39 93  1  0
 40 41  1  0
 40 42  1  0
 40 94  1  6
 41 95  1  0
 42 43  1  0
 42 44  1  0
 42 96  1  6
 43 97  1  0
 44 53  1  0
 44 45  1  0
 44 54  1  1
 45 46  1  0
 45 47  1  0
 45 98  1  1
 46 99  1  0
 47 48  1  0
 47 50  1  0
 47100  1  1
 48 49  1  0
 49101  1  0
 49102  1  0
 49103  1  0
 50 51  1  0
 50104  1  0
 50105  1  0
 51 52  1  0
 51 53  1  0
 51106  1  1
 52107  1  0
 52108  1  0
 52109  1  0
 53110  1  6
 54 55  1  6
 54 56  1  0
 55111  1  0
 56 57  1  0
 56112  1  0
 56113  1  0
 57 58  1  0
 57114  1  6
 58 59  1  1
 58 60  1  0
 59115  1  0
 60 61  1  0
 60 62  1  0
 61116  1  0
 61117  1  0
 61118  1  0
 62119  1  0
 62120  1  0
 62121  1  0
 63 64  1  1
 64122  1  0
M  CHG  1   7  -1
M  END
>  <i_m_ct_stereo_status>  (94) 
1

>  <s_m_source_file>  (94) 
/var/tmp/pbs.5075288.sched01/tmphpu8_cit/24996nucuhu.sdf

>  <i_m_source_file_index>  (94) 
78

>  <i_lp_mmshare_version>  (94) 
48012

>  <i_f3d_flags>  (94) 
0

>  <s_epik_input>  (94) 
W09IXVtDQEBIXShbQ0gyXTEpW0NIMl1bQ0gyXVtDQF0oW0NAQF0xMjMpKFtDSDNdKVtDQF00KFtPSF0pW0NAQF0oTzIpKFtPSF0pW0NAXTUoW0NIM10pW0NASF0oW1MrXShbTy1dKVtDQEhdNFtPSF0pW0NAXTYoW09IXSlbQ0BAXShbT0hdKShDKD1bQ0gyXSlDKD1PKU82KUM9N1tDQEBdOChbT0hdKVtDQF05KFtPSF0pW0NAQF0oW09IXSkoQyhbQ0gzXSkoW0NIM10pW0NAQF01KFtPSF0pW0NASF05W09IXSlbQ0BASF0zW0NIMl1bQ0BdOChbT0hdKVtDQEBdMTJbQ0BASF0oW0NAXShONykoW0NIM10pW0NAQEhdKFtPSF0pW0NASF0xW09IXSlbQ0BIXShbQ0gzXSlbQ0gyXVtDQEBIXShbQ0BASF0yW09IXSlPW0NIM10=

>  <s_epik_cmdline>  (94) 
J2VwaWtfcHl0aG9uJywgJy1waHQnLCAnMi4wJywgJy1waCcsICc3LjAnLCAnLXRuJywgJzgnLCAnLW1hJywgJzIwMCcsICctaW1hZScsICc8aW5maWxlLm1hZT4nLCAnLW9tYWUnLCAnPG91dGZpbGUubWFlPic=

>  <r_epik_Ionization_Penalty>  (94) 
1.56795

>  <r_epik_Ionization_Penalty_Charging>  (94) 
1.56725

>  <r_epik_Ionization_Penalty_Neutral>  (94) 
0.000702507

>  <r_epik_State_Penalty>  (94) 
1.9692

>  <r_epik_Charging_Adjusted_Penalty>  (94) 
3.53645

>  <i_epik_Tot_Q>  (94) 
-1

>  <i_epik_Tot_abs_Q>  (94) 
3

>  <s_epik_Chemistry_Notes>  (94) 
This compound has an ester and may undergo hydrolysis at high or low pH. This compound has an imine and may undergo hydrolysis. This compound contains an acetal/aminal-like group ( X-CH(R)-Y where X, Y are N, S, or O) that may be acid/base labile, releasing an aldehyde.

>  <s_lp_Force_Field>  (94) 
OPLS3e

>  <r_lp_Energy>  (94) 
539.838

>  <b_lp_Chiralities_Consistent>  (94) 
1

>  <s_lp_Variant>  (94) 
103:0-3

>  <s_i_glide_gridfile>  (94) 
pfpi4k_grid

>  <i_i_glide_lignum>  (94) 
78

>  <i_i_glide_rotatable_bonds>  (94) 
15

>  <r_i_docking_score>  (94) 
-3.65757

>  <r_i_glide_ligand_efficiency>  (94) 
-0.0571495

>  <r_i_glide_ligand_efficiency_sa>  (94) 
-0.228598

>  <r_i_glide_ligand_efficiency_ln>  (94) 
-0.708984

>  <r_i_glide_gscore>  (94) 
-3.65757

>  <r_i_glide_lipo>  (94) 
-0.260363

>  <r_i_glide_hbond>  (94) 
-0.185383

>  <r_i_glide_metal>  (94) 
-0

>  <r_i_glide_rewards>  (94) 
-1

>  <r_i_glide_evdw>  (94) 
-32.886

>  <r_i_glide_ecoul>  (94) 
-3.5867

>  <r_i_glide_erotb>  (94) 
0

>  <r_i_glide_esite>  (94) 
-0.0295168

>  <r_i_glide_emodel>  (94) 
-55.0323

>  <r_i_glide_energy>  (94) 
-36.4727

>  <r_i_glide_einternal>  (94) 
2.2478

>  <r_i_glide_intrahb_reward>  (94) 
-1

>  <i_i_glide_confnum>  (94) 
2

>  <i_i_glide_posenum>  (94) 
1

>  <r_i_glide_eff_state_penalty>  (94) 
0

>  <ligand_id>  (94) 
103

>  <original_smiles>  (94) 
C=C1C(=O)OC2(O)C3[S+]([O-])C(O)C4(O)C5(C)CCC(O)CC56OC4(O)C3(C)C3(O)C(O)C4(O)C5(O)C(=NC7(C)C(O)C(O)C8(C(O)C(OC)CC(C)C78)C5(O)CC6C4(O)C3(C)C)C12O

>  <smiles>  (94) 
[H]OC12C3=NC4(C([H])([H])[H])C([H])(O[H])C([H])(O[H])C5(C([H])(O[H])C([H])(OC([H])([H])[H])C([H])([H])C([H])(C([H])([H])[H])C45[H])C4(O[H])C([H])([H])C5([H])C6(O[H])C(O[H])(C([H])(O[H])C(O[H])(C7(C([H])([H])[H])C8(O[H])OC59C([H])([H])C([H])(O[H])C([H])([H])C([H])([H])C9(C([H])([H])[H])C8(O[H])C([H])(O[H])S(=O)C7([H])C1([O-])OC(=O)C2=C([H])[H])C6(C([H])([H])[H])C([H])([H])[H])C34O[H]

$$$$
105:0:0
     RDKit          3D

102107  0  0  1  0  0  0  0  0999 V2000
   -1.0636   -8.2593    4.0967 C   0  0  0  0  0  0  0  0  0  0  0  0
    0.2067   -7.9349    4.3566 C   0  0  0  0  0  0  0  0  0  0  0  0
    0.9013   -8.4867    5.6278 C   0  0  1  0  0  0  0  0  0  0  0  0
    0.2914   -9.7260    6.0107 O   0  0  0  0  0  0  0  0  0  0  0  0
    2.4470   -8.6179    5.5049 C   0  0  1  0  0  0  0  0  0  0  0  0
    2.7071   -9.1914    6.7869 O   0  0  0  0  0  0  0  0  0  0  0  0
    2.5328   -9.9138    4.1690 S   0  0  0  0  0  0  0  0  0  0  0  0
    3.6696  -10.8592    4.5777 O   0  0  0  0  0  0  0  0  0  0  0  0
    2.8397   -8.7055    2.7996 C   0  0  2  0  0  0  0  0  0  0  0  0
    2.3860   -9.1813    1.4351 C   0  0  0  0  0  0  0  0  0  0  0  0
    3.7101   -8.8716    0.8897 O   0  0  0  0  0  0  0  0  0  0  0  0
    4.2761   -8.9867    2.2018 C   0  0  2  0  0  0  0  0  0  0  0  0
    4.6619  -10.3406    2.3354 O   0  0  0  0  0  0  0  0  0  0  0  0
    5.6486   -8.1945    2.5093 C   0  0  1  0  0  0  0  0  0  0  0  0
    6.8048   -9.0875    1.8256 C   0  0  0  0  0  0  0  0  0  0  0  0
    5.9744   -6.8051    1.6341 C   0  0  1  0  0  0  0  0  0  0  0  0
    4.9528   -5.7872    0.9232 C   0  0  2  0  0  0  0  0  0  0  0  0
    3.7073   -6.2453    0.1767 C   0  0  0  0  0  0  0  0  0  0  0  0
    5.5702   -5.1848   -0.1941 O   0  0  0  0  0  0  0  0  0  0  0  0
    7.2494   -6.0360    2.1914 C   0  0  1  0  0  0  0  0  0  0  0  0
    7.6255   -4.6500    1.6269 C   0  0  0  0  0  0  0  0  0  0  0  0
    7.2718   -5.9472    3.7062 C   0  0  0  0  0  0  0  0  0  0  0  0
    7.3235   -7.3413    4.3182 C   0  0  1  0  0  0  0  0  0  0  0  0
    7.8886   -7.2542    5.6261 O   0  0  0  0  0  0  0  0  0  0  0  0
    9.2252   -7.2403    5.8826 C   0  0  0  0  0  0  0  0  0  0  0  0
   10.2084   -7.2072    4.7057 C   0  0  0  0  0  0  0  0  0  0  0  0
    9.6640   -7.2190    7.0374 O   0  0  0  0  0  0  0  0  0  0  0  0
    5.9948   -8.1493    4.1601 C   0  0  2  0  0  0  0  0  0  0  0  0
    6.5045   -9.4505    4.4282 O   0  0  0  0  0  0  0  0  0  0  0  0
    4.9616   -8.1265    5.4702 C   0  0  1  0  0  0  0  0  0  0  0  0
    5.5916   -7.9771    6.7496 O   0  0  0  0  0  0  0  0  0  0  0  0
    5.8859   -9.0245    7.5636 C   0  0  0  0  0  0  0  0  0  0  0  0
    6.4389   -8.5767    8.9135 C   0  0  0  0  0  0  0  0  0  0  0  0
    5.7363  -10.2150    7.3064 O   0  0  0  0  0  0  0  0  0  0  0  0
    3.5565   -7.3735    5.5388 C   0  0  1  0  0  0  0  0  0  0  0  0
    4.0456   -6.0816    4.7276 C   0  0  0  0  0  0  0  0  0  0  0  0
    4.2436   -5.7916    3.5830 O   0  0  0  0  0  0  0  0  0  0  0  0
    4.0937   -5.1686    5.9845 C   0  0  0  0  0  0  0  0  0  0  0  0
    5.3993   -5.1816    6.8029 C   0  0  0  0  0  0  0  0  0  0  0  0
    3.8875   -3.6910    5.5776 C   0  0  0  0  0  0  0  0  0  0  0  0
    2.9046   -6.0979    6.3185 C   0  0  2  0  0  0  0  0  0  0  0  0
    2.8209   -6.4831    7.6947 O   0  0  0  0  0  0  0  0  0  0  0  0
    2.7361   -5.6217    8.7249 C   0  0  0  0  0  0  0  0  0  0  0  0
    2.7000   -6.3492   10.0621 C   0  0  0  0  0  0  0  0  0  0  0  0
    2.7171   -4.3965    8.6648 O   0  0  0  0  0  0  0  0  0  0  0  0
    1.4823   -5.5789    5.7754 C   0  0  1  0  0  0  0  0  0  0  0  0
    1.1844   -4.2429    6.2086 O   0  0  0  0  0  0  0  0  0  0  0  0
   -0.0073   -3.8708    6.7606 C   0  0  0  0  0  0  0  0  0  0  0  0
   -1.0842   -4.9415    6.9012 C   0  0  0  0  0  0  0  0  0  0  0  0
   -0.2428   -2.7145    7.1441 O   0  0  0  0  0  0  0  0  0  0  0  0
    1.1303   -5.5925    4.2091 C   0  0  0  0  0  0  0  0  0  0  0  0
    1.0247   -6.9759    3.4648 C   0  0  2  0  0  0  0  0  0  0  0  0
    0.2768   -6.7397    2.2709 O   0  0  0  0  0  0  0  0  0  0  0  0
    2.3350   -7.3675    3.0625 O   0  0  0  0  0  0  0  0  0  0  0  0
   -1.6024   -7.8859    3.2255 H   0  0  0  0  0  0  0  0  0  0  0  0
   -1.6576   -8.8849    4.7519 H   0  0  0  0  0  0  0  0  0  0  0  0
    0.6326   -7.9627    6.5269 H   0  0  0  0  0  0  0  0  0  0  0  0
   -0.4004   -9.9866    5.4177 H   0  0  0  0  0  0  0  0  0  0  0  0
    2.3728  -10.0812    6.7671 H   0  0  0  0  0  0  0  0  0  0  0  0
    2.1689  -10.2404    1.3703 H   0  0  0  0  0  0  0  0  0  0  0  0
    1.5949   -8.5866    0.9850 H   0  0  0  0  0  0  0  0  0  0  0  0
    4.3350  -10.8305    1.5786 H   0  0  0  0  0  0  0  0  0  0  0  0
    7.7942   -8.6523    1.8704 H   0  0  0  0  0  0  0  0  0  0  0  0
    6.6040   -9.2829    0.7699 H   0  0  0  0  0  0  0  0  0  0  0  0
    6.9790  -10.0883    2.2283 H   0  0  0  0  0  0  0  0  0  0  0  0
    6.3639   -7.1891    0.6975 H   0  0  0  0  0  0  0  0  0  0  0  0
    4.7076   -4.9263    1.5409 H   0  0  0  0  0  0  0  0  0  0  0  0
    2.9557   -6.6470    0.8409 H   0  0  0  0  0  0  0  0  0  0  0  0
    3.9837   -6.9573   -0.6065 H   0  0  0  0  0  0  0  0  0  0  0  0
    3.2193   -5.3992   -0.3144 H   0  0  0  0  0  0  0  0  0  0  0  0
    6.3068   -4.6931    0.1238 H   0  0  0  0  0  0  0  0  0  0  0  0
    8.1280   -6.6189    1.9209 H   0  0  0  0  0  0  0  0  0  0  0  0
    6.8458   -3.9157    1.8273 H   0  0  0  0  0  0  0  0  0  0  0  0
    7.8563   -4.6716    0.5650 H   0  0  0  0  0  0  0  0  0  0  0  0
    8.5429   -4.2813    2.0738 H   0  0  0  0  0  0  0  0  0  0  0  0
    8.1806   -5.4493    4.0086 H   0  0  0  0  0  0  0  0  0  0  0  0
    6.4846   -5.3122    4.0920 H   0  0  0  0  0  0  0  0  0  0  0  0
    8.0401   -7.9139    3.7449 H   0  0  0  0  0  0  0  0  0  0  0  0
   10.1050   -6.2823    4.1385 H   0  0  0  0  0  0  0  0  0  0  0  0
   10.0649   -8.0483    4.0216 H   0  0  0  0  0  0  0  0  0  0  0  0
   11.2467   -7.2279    5.0487 H   0  0  0  0  0  0  0  0  0  0  0  0
    5.8043  -10.0839    4.3430 H   0  0  0  0  0  0  0  0  0  0  0  0
    4.6755   -9.1681    5.5094 H   0  0  0  0  0  0  0  0  0  0  0  0
    7.0937   -7.7131    8.7972 H   0  0  0  0  0  0  0  0  0  0  0  0
    7.0110   -9.3824    9.3764 H   0  0  0  0  0  0  0  0  0  0  0  0
    5.6226   -8.3130    9.5868 H   0  0  0  0  0  0  0  0  0  0  0  0
    5.6532   -4.1867    7.1741 H   0  0  0  0  0  0  0  0  0  0  0  0
    6.2589   -5.5049    6.2282 H   0  0  0  0  0  0  0  0  0  0  0  0
    5.3330   -5.7970    7.6979 H   0  0  0  0  0  0  0  0  0  0  0  0
    3.5513   -3.1018    6.4308 H   0  0  0  0  0  0  0  0  0  0  0  0
    3.1564   -3.5475    4.7868 H   0  0  0  0  0  0  0  0  0  0  0  0
    4.8068   -3.2192    5.2266 H   0  0  0  0  0  0  0  0  0  0  0  0
    1.7453   -6.8636   10.1838 H   0  0  0  0  0  0  0  0  0  0  0  0
    2.8237   -5.6393   10.8838 H   0  0  0  0  0  0  0  0  0  0  0  0
    3.5039   -7.0866   10.1180 H   0  0  0  0  0  0  0  0  0  0  0  0
    0.7641   -6.1579    6.2964 H   0  0  0  0  0  0  0  0  0  0  0  0
   -2.0406   -4.5316    7.2226 H   0  0  0  0  0  0  0  0  0  0  0  0
   -0.7731   -5.6835    7.6437 H   0  0  0  0  0  0  0  0  0  0  0  0
   -1.2473   -5.4522    5.9476 H   0  0  0  0  0  0  0  0  0  0  0  0
    0.1418   -5.1480    4.1393 H   0  0  0  0  0  0  0  0  0  0  0  0
    1.7615   -4.9221    3.6195 H   0  0  0  0  0  0  0  0  0  0  0  0
    0.2184   -7.5567    1.8177 H   0  0  0  0  0  0  0  0  0  0  0  0
  1  2  2  0
  1 55  1  0
  1 56  1  0
  2 52  1  0
  2  3  1  0
  3  4  1  0
  3  5  1  0
  3 57  1  1
  4 58  1  0
  5 35  1  0
  5  6  1  1
  5  7  1  0
  6 59  1  0
  7  8  2  0
  7  9  1  6
  9 12  1  0
  9 54  1  1
  9 10  1  0
 10 11  1  0
 10 60  1  0
 10 61  1  0
 11 12  1  0
 12 13  1  6
 12 14  1  0
 13 62  1  0
 14 28  1  0
 14 15  1  6
 14 16  1  0
 15 63  1  0
 15 64  1  0
 15 65  1  0
 16 17  1  0
 16 20  1  0
 16 66  1  6
 17 18  1  0
 17 19  1  0
 17 67  1  1
 18 68  1  0
 18 69  1  0
 18 70  1  0
 19 71  1  0
 20 21  1  0
 20 22  1  0
 20 72  1  1
 21 73  1  0
 21 74  1  0
 21 75  1  0
 22 23  1  0
 22 76  1  0
 22 77  1  0
 23 24  1  0
 23 28  1  0
 23 78  1  6
 24 25  1  0
 25 26  1  0
 25 27  2  0
 26 79  1  0
 26 80  1  0
 26 81  1  0
 28 29  1  1
 28 30  1  0
 29 82  1  0
 30 31  1  0
 30 35  1  0
 30 83  1  1
 31 32  1  0
 32 33  1  0
 32 34  2  0
 33 84  1  0
 33 85  1  0
 33 86  1  0
 35 41  1  0
 35 36  1  6
 36 37  2  0
 36 38  1  0
 38 39  1  0
 38 40  1  0
 38 41  1  0
 39 87  1  0
 39 88  1  0
 39 89  1  0
 40 90  1  0
 40 91  1  0
 40 92  1  0
 41 42  1  1
 41 46  1  0
 42 43  1  0
 43 44  1  0
 43 45  2  0
 44 93  1  0
 44 94  1  0
 44 95  1  0
 46 47  1  0
 46 51  1  0
 46 96  1  1
 47 48  1  0
 48 49  1  0
 48 50  2  0
 49 97  1  0
 49 98  1  0
 49 99  1  0
 51 52  1  0
 51100  1  0
 51101  1  0
 52 53  1  6
 52 54  1  0
 53102  1  0
M  END
>  <i_m_ct_stereo_status>  (95) 
1

>  <s_m_source_file>  (95) 
/var/tmp/pbs.5075288.sched01/tmphpu8_cit/24996nucuhu.sdf

>  <i_m_source_file_index>  (95) 
81

>  <i_lp_mmshare_version>  (95) 
48012

>  <i_f3d_flags>  (95) 
0

>  <s_epik_input>  (95) 
Tz1DMUMoW0NIM10pKFtDSDNdKVtDQEBdMihPQyg9TylbQ0gzXSlbQ0BASF0oT0MoPU8pW0NIM10pW0NIMl1bQ0BdKE8zKShbT0hdKUMoPVtDSDJdKVtDQEBIXShbT0hdKVtDQEBdKFtPSF0pKFtTK100W08tXSlbQ0BAXTEyW0NASF0oT0MoPU8pW0NIM10pW0NAQF0oW09IXSkoW0NAQF01KFtDSDNdKVtDQF0oW0NAXTM0NikoW09IXSlPW0NIMl02KVtDQEhdKE9DKD1PKVtDSDNdKVtDSDJdW0NASF0oW0NIM10pW0NAQEhdNVtDQEhdKFtDSDNdKVtPSF0=

>  <s_epik_cmdline>  (95) 
J2VwaWtfcHl0aG9uJywgJy1waHQnLCAnMi4wJywgJy1waCcsICc3LjAnLCAnLXRuJywgJzgnLCAnLW1hJywgJzIwMCcsICctaW1hZScsICc8aW5maWxlLm1hZT4nLCAnLW9tYWUnLCAnPG91dGZpbGUubWFlPic=

>  <r_lp_tautomer_probability>  (95) 
1

>  <r_epik_Ionization_Penalty>  (95) 
6.27489e-05

>  <r_epik_Ionization_Penalty_Charging>  (95) 
0

>  <r_epik_Ionization_Penalty_Neutral>  (95) 
6.27489e-05

>  <r_epik_State_Penalty>  (95) 
-0

>  <r_epik_Charging_Adjusted_Penalty>  (95) 
0

>  <i_epik_Tot_Q>  (95) 
0

>  <i_epik_Tot_abs_Q>  (95) 
2

>  <s_epik_Chemistry_Notes>  (95) 
This compound has an ester and may undergo hydrolysis at high or low pH.

>  <s_lp_Force_Field>  (95) 
OPLS3e

>  <r_lp_Energy>  (95) 
238.428

>  <b_lp_Chiralities_Consistent>  (95) 
1

>  <s_lp_Variant>  (95) 
105:0-1

>  <s_i_glide_gridfile>  (95) 
pfpi4k_grid

>  <i_i_glide_lignum>  (95) 
81

>  <i_i_glide_rotatable_bonds>  (95) 
15

>  <r_i_docking_score>  (95) 
-4.17736

>  <r_i_glide_ligand_efficiency>  (95) 
-0.0773586

>  <r_i_glide_ligand_efficiency_sa>  (95) 
-0.292397

>  <r_i_glide_ligand_efficiency_ln>  (95) 
-0.837317

>  <r_i_glide_gscore>  (95) 
-4.17736

>  <r_i_glide_lipo>  (95) 
-0.468134

>  <r_i_glide_hbond>  (95) 
0

>  <r_i_glide_metal>  (95) 
-0

>  <r_i_glide_rewards>  (95) 
-1.00498

>  <r_i_glide_evdw>  (95) 
-29.9924

>  <r_i_glide_ecoul>  (95) 
-8.71661

>  <r_i_glide_erotb>  (95) 
0.174725

>  <r_i_glide_esite>  (95) 
-0.0718624

>  <r_i_glide_emodel>  (95) 
-52.7949

>  <r_i_glide_energy>  (95) 
-38.709

>  <r_i_glide_einternal>  (95) 
14.564

>  <r_i_glide_intrahb_reward>  (95) 
-1

>  <i_i_glide_confnum>  (95) 
3

>  <i_i_glide_posenum>  (95) 
3

>  <r_i_glide_eff_state_penalty>  (95) 
0

>  <ligand_id>  (95) 
105

>  <original_smiles>  (95) 
C=C1C(O)C2(O)[S+]([O-])C34COC3(O)C3(C)C(C(C)O)C(C)CC(OC(C)=O)C3(O)C(OC(C)=O)C23C(=O)C(C)(C)C3(OC(C)=O)C(OC(C)=O)CC1(O)O4

>  <smiles>  (95) 
[H]OC1([H])C(=C([H])[H])C2(O[H])OC34S(=O)C1(O[H])C1(C(=O)C(C([H])([H])[H])(C([H])([H])[H])C1(OC(=O)C([H])([H])[H])C([H])(OC(=O)C([H])([H])[H])C2([H])[H])C([H])(OC(=O)C([H])([H])[H])C1(O[H])C([H])(OC(=O)C([H])([H])[H])C([H])([H])C([H])(C([H])([H])[H])C([H])(C([H])(O[H])C([H])([H])[H])C1(C([H])([H])[H])C3(O[H])OC4([H])[H]

$$$$
105:0:1
     RDKit          3D

102107  0  0  1  0  0  0  0  0999 V2000
   -1.3125   -8.0891    4.2575 C   0  0  0  0  0  0  0  0  0  0  0  0
   -0.0035   -7.8517    4.5742 C   0  0  0  0  0  0  0  0  0  0  0  0
    0.6104   -8.4579    5.8397 C   0  0  1  0  0  0  0  0  0  0  0  0
   -0.1326   -9.5949    6.2657 O   0  0  0  0  0  0  0  0  0  0  0  0
    2.1513   -8.7218    5.7470 C   0  0  1  0  0  0  0  0  0  0  0  0
    2.3439   -9.3339    7.0213 O   0  0  0  0  0  0  0  0  0  0  0  0
    2.1639   -9.9977    4.3918 S   0  0  0  0  0  0  0  0  0  0  0  0
    3.2273  -11.0101    4.8081 O   0  0  0  0  0  0  0  0  0  0  0  0
    2.5896   -8.7905    3.0583 C   0  0  2  0  0  0  0  0  0  0  0  0
    2.1332   -9.2033    1.6739 C   0  0  0  0  0  0  0  0  0  0  0  0
    3.4698   -8.9897    1.1497 O   0  0  0  0  0  0  0  0  0  0  0  0
    4.0112   -9.1847    2.4713 C   0  0  2  0  0  0  0  0  0  0  0  0
    4.2782  -10.5829    2.5438 O   0  0  0  0  0  0  0  0  0  0  0  0
    5.4369   -8.4947    2.8246 C   0  0  1  0  0  0  0  0  0  0  0  0
    6.5377   -9.4623    2.1592 C   0  0  0  0  0  0  0  0  0  0  0  0
    5.8852   -7.1268    1.9732 C   0  0  1  0  0  0  0  0  0  0  0  0
    4.9526   -6.0282    1.2471 C   0  0  2  0  0  0  0  0  0  0  0  0
    3.6576   -6.3583    0.5112 C   0  0  0  0  0  0  0  0  0  0  0  0
    5.6350   -5.5099    0.1243 O   0  0  0  0  0  0  0  0  0  0  0  0
    7.2049   -6.4470    2.5630 C   0  0  1  0  0  0  0  0  0  0  0  0
    7.6671   -5.0775    2.0144 C   0  0  0  0  0  0  0  0  0  0  0  0
    7.2503   -6.3890    4.0862 C   0  0  0  0  0  0  0  0  0  0  0  0
    7.1691   -7.7851    4.6974 C   0  0  1  0  0  0  0  0  0  0  0  0
    7.6420   -7.7114    6.0446 O   0  0  0  0  0  0  0  0  0  0  0  0
    8.9488   -7.8977    6.3422 C   0  0  0  0  0  0  0  0  0  0  0  0
    9.2225   -7.8569    7.8426 C   0  0  0  0  0  0  0  0  0  0  0  0
    9.8556   -8.0733    5.5353 O   0  0  0  0  0  0  0  0  0  0  0  0
    5.7732   -8.4801    4.4833 C   0  0  2  0  0  0  0  0  0  0  0  0
    6.1668   -9.8176    4.7400 O   0  0  0  0  0  0  0  0  0  0  0  0
    4.7026   -8.3898    5.7680 C   0  0  1  0  0  0  0  0  0  0  0  0
    5.2987   -8.3054    7.0675 O   0  0  0  0  0  0  0  0  0  0  0  0
    5.5181   -9.3797    7.8657 C   0  0  0  0  0  0  0  0  0  0  0  0
    6.0448   -8.9906    9.2412 C   0  0  0  0  0  0  0  0  0  0  0  0
    5.3319  -10.5584    7.5691 O   0  0  0  0  0  0  0  0  0  0  0  0
    3.3428   -7.5502    5.8147 C   0  0  1  0  0  0  0  0  0  0  0  0
    3.9417   -6.2861    5.0486 C   0  0  0  0  0  0  0  0  0  0  0  0
    4.1809   -5.9880    3.8823 O   0  0  0  0  0  0  0  0  0  0  0  0
    4.0129   -5.3865    6.3026 C   0  0  0  0  0  0  0  0  0  0  0  0
    5.2975   -5.5020    7.1518 C   0  0  0  0  0  0  0  0  0  0  0  0
    3.9263   -3.8956    5.9126 C   0  0  0  0  0  0  0  0  0  0  0  0
    2.7566   -6.2362    6.5984 C   0  0  2  0  0  0  0  0  0  0  0  0
    2.6182   -6.6261    7.9634 O   0  0  0  0  0  0  0  0  0  0  0  0
    2.5604   -5.7697    9.0107 C   0  0  0  0  0  0  0  0  0  0  0  0
    2.4671   -6.5027   10.3387 C   0  0  0  0  0  0  0  0  0  0  0  0
    2.6076   -4.5427    8.9603 O   0  0  0  0  0  0  0  0  0  0  0  0
    1.3939   -5.6018    6.0297 C   0  0  1  0  0  0  0  0  0  0  0  0
    1.1752   -4.2541    6.4634 O   0  0  0  0  0  0  0  0  0  0  0  0
   -0.0159   -3.7848    6.9782 C   0  0  0  0  0  0  0  0  0  0  0  0
   -1.1639   -4.7886    7.0842 C   0  0  0  0  0  0  0  0  0  0  0  0
   -0.1761   -2.6289    7.3485 O   0  0  0  0  0  0  0  0  0  0  0  0
    1.0709   -5.5805    4.4684 C   0  0  0  0  0  0  0  0  0  0  0  0
    0.8752   -6.9456    3.6887 C   0  0  2  0  0  0  0  0  0  0  0  0
    0.1831   -6.6380    2.4995 O   0  0  0  0  0  0  0  0  0  0  0  0
    2.1790   -7.4318    3.3214 O   0  0  0  0  0  0  0  0  0  0  0  0
   -1.7984   -7.6607    3.3935 H   0  0  0  0  0  0  0  0  0  0  0  0
   -1.9475   -8.6752    4.8997 H   0  0  0  0  0  0  0  0  0  0  0  0
    0.3780   -7.9118    6.7402 H   0  0  0  0  0  0  0  0  0  0  0  0
   -0.4875  -10.0946    5.5318 H   0  0  0  0  0  0  0  0  0  0  0  0
    2.1069  -10.2471    6.9495 H   0  0  0  0  0  0  0  0  0  0  0  0
    1.8162  -10.2508    1.6044 H   0  0  0  0  0  0  0  0  0  0  0  0
    1.3918   -8.5560    1.2286 H   0  0  0  0  0  0  0  0  0  0  0  0
    4.2161  -10.9487    1.6593 H   0  0  0  0  0  0  0  0  0  0  0  0
    7.5469   -9.0823    2.2512 H   0  0  0  0  0  0  0  0  0  0  0  0
    6.3514   -9.6242    1.0965 H   0  0  0  0  0  0  0  0  0  0  0  0
    6.6246  -10.4755    2.5488 H   0  0  0  0  0  0  0  0  0  0  0  0
    6.2517   -7.5371    1.0332 H   0  0  0  0  0  0  0  0  0  0  0  0
    4.7845   -5.1470    1.8613 H   0  0  0  0  0  0  0  0  0  0  0  0
    2.8762   -6.7059    1.1708 H   0  0  0  0  0  0  0  0  0  0  0  0
    3.8510   -7.0705   -0.2932 H   0  0  0  0  0  0  0  0  0  0  0  0
    3.2456   -5.4650    0.0311 H   0  0  0  0  0  0  0  0  0  0  0  0
    6.4111   -5.0828    0.4490 H   0  0  0  0  0  0  0  0  0  0  0  0
    8.0437   -7.0835    2.2886 H   0  0  0  0  0  0  0  0  0  0  0  0
    6.9198   -4.3024    2.1904 H   0  0  0  0  0  0  0  0  0  0  0  0
    7.9211   -5.1151    0.9589 H   0  0  0  0  0  0  0  0  0  0  0  0
    8.5951   -4.7562    2.4810 H   0  0  0  0  0  0  0  0  0  0  0  0
    8.1880   -5.9324    4.3951 H   0  0  0  0  0  0  0  0  0  0  0  0
    6.4890   -5.7276    4.4759 H   0  0  0  0  0  0  0  0  0  0  0  0
    7.8990   -8.3898    4.1636 H   0  0  0  0  0  0  0  0  0  0  0  0
    8.8096   -8.7360    8.3365 H   0  0  0  0  0  0  0  0  0  0  0  0
    8.7820   -6.9658    8.2892 H   0  0  0  0  0  0  0  0  0  0  0  0
   10.2959   -7.8361    8.0395 H   0  0  0  0  0  0  0  0  0  0  0  0
    5.4029  -10.3845    4.6400 H   0  0  0  0  0  0  0  0  0  0  0  0
    4.3466   -9.4075    5.7844 H   0  0  0  0  0  0  0  0  0  0  0  0
    6.7203   -8.1400    9.1720 H   0  0  0  0  0  0  0  0  0  0  0  0
    6.5814   -9.8255    9.6925 H   0  0  0  0  0  0  0  0  0  0  0  0
    5.2202   -8.7212    9.9025 H   0  0  0  0  0  0  0  0  0  0  0  0
    5.6116   -4.5306    7.5357 H   0  0  0  0  0  0  0  0  0  0  0  0
    6.1410   -5.8819    6.5898 H   0  0  0  0  0  0  0  0  0  0  0  0
    5.1655   -6.1184    8.0363 H   0  0  0  0  0  0  0  0  0  0  0  0
    3.6089   -3.2925    6.7636 H   0  0  0  0  0  0  0  0  0  0  0  0
    3.2224   -3.6871    5.1064 H   0  0  0  0  0  0  0  0  0  0  0  0
    4.8828   -3.4835    5.5894 H   0  0  0  0  0  0  0  0  0  0  0  0
    1.4869   -6.9693   10.4421 H   0  0  0  0  0  0  0  0  0  0  0  0
    2.6165   -5.8078   11.1691 H   0  0  0  0  0  0  0  0  0  0  0  0
    3.2349   -7.2787   10.3998 H   0  0  0  0  0  0  0  0  0  0  0  0
    0.6264   -6.1326    6.5374 H   0  0  0  0  0  0  0  0  0  0  0  0
   -2.1005   -4.3031    7.3744 H   0  0  0  0  0  0  0  0  0  0  0  0
   -0.9284   -5.5354    7.8429 H   0  0  0  0  0  0  0  0  0  0  0  0
   -1.3358   -5.2840    6.1314 H   0  0  0  0  0  0  0  0  0  0  0  0
    0.1107   -5.0620    4.3700 H   0  0  0  0  0  0  0  0  0  0  0  0
    1.7586   -4.9493    3.8942 H   0  0  0  0  0  0  0  0  0  0  0  0
    0.0882   -7.4565    2.0168 H   0  0  0  0  0  0  0  0  0  0  0  0
  1  2  2  0
  1 55  1  0
  1 56  1  0
  2 52  1  0
  2  3  1  0
  3  4  1  0
  3  5  1  0
  3 57  1  1
  4 58  1  0
  5 35  1  0
  5  6  1  1
  5  7  1  0
  6 59  1  0
  7  8  2  0
  7  9  1  6
  9 12  1  0
  9 54  1  1
  9 10  1  0
 10 11  1  0
 10 60  1  0
 10 61  1  0
 11 12  1  0
 12 13  1  6
 12 14  1  0
 13 62  1  0
 14 28  1  0
 14 15  1  6
 14 16  1  0
 15 63  1  0
 15 64  1  0
 15 65  1  0
 16 17  1  0
 16 20  1  0
 16 66  1  6
 17 18  1  0
 17 19  1  0
 17 67  1  1
 18 68  1  0
 18 69  1  0
 18 70  1  0
 19 71  1  0
 20 21  1  0
 20 22  1  0
 20 72  1  6
 21 73  1  0
 21 74  1  0
 21 75  1  0
 22 23  1  0
 22 76  1  0
 22 77  1  0
 23 24  1  0
 23 28  1  0
 23 78  1  6
 24 25  1  0
 25 26  1  0
 25 27  2  0
 26 79  1  0
 26 80  1  0
 26 81  1  0
 28 29  1  1
 28 30  1  0
 29 82  1  0
 30 31  1  0
 30 35  1  0
 30 83  1  1
 31 32  1  0
 32 33  1  0
 32 34  2  0
 33 84  1  0
 33 85  1  0
 33 86  1  0
 35 41  1  0
 35 36  1  6
 36 37  2  0
 36 38  1  0
 38 39  1  0
 38 40  1  0
 38 41  1  0
 39 87  1  0
 39 88  1  0
 39 89  1  0
 40 90  1  0
 40 91  1  0
 40 92  1  0
 41 42  1  1
 41 46  1  0
 42 43  1  0
 43 44  1  0
 43 45  2  0
 44 93  1  0
 44 94  1  0
 44 95  1  0
 46 47  1  0
 46 51  1  0
 46 96  1  1
 47 48  1  0
 48 49  1  0
 48 50  2  0
 49 97  1  0
 49 98  1  0
 49 99  1  0
 51 52  1  0
 51100  1  0
 51101  1  0
 52 53  1  6
 52 54  1  0
 53102  1  0
M  END
>  <i_m_ct_stereo_status>  (96) 
1

>  <s_m_source_file>  (96) 
/var/tmp/pbs.5075288.sched01/tmphpu8_cit/24996nucuhu.sdf

>  <i_m_source_file_index>  (96) 
81

>  <i_lp_mmshare_version>  (96) 
48012

>  <i_f3d_flags>  (96) 
0

>  <s_epik_input>  (96) 
Tz1DMUMoW0NIM10pKFtDSDNdKVtDQEBdMihPQyg9TylbQ0gzXSlbQ0BASF0oT0MoPU8pW0NIM10pW0NIMl1bQ0BdKE8zKShbT0hdKUMoPVtDSDJdKVtDQEBIXShbT0hdKVtDQEBdKFtPSF0pKFtTK100W08tXSlbQ0BAXTEyW0NASF0oT0MoPU8pW0NIM10pW0NAQF0oW09IXSkoW0NAQF01KFtDSDNdKVtDQF0oW0NAXTM0NikoW09IXSlPW0NIMl02KVtDQEhdKE9DKD1PKVtDSDNdKVtDSDJdW0NASF0oW0NIM10pW0NAQEhdNVtDQEhdKFtDSDNdKVtPSF0=

>  <s_epik_cmdline>  (96) 
J2VwaWtfcHl0aG9uJywgJy1waHQnLCAnMi4wJywgJy1waCcsICc3LjAnLCAnLXRuJywgJzgnLCAnLW1hJywgJzIwMCcsICctaW1hZScsICc8aW5maWxlLm1hZT4nLCAnLW9tYWUnLCAnPG91dGZpbGUubWFlPic=

>  <r_lp_tautomer_probability>  (96) 
1

>  <r_epik_Ionization_Penalty>  (96) 
6.27489e-05

>  <r_epik_Ionization_Penalty_Charging>  (96) 
0

>  <r_epik_Ionization_Penalty_Neutral>  (96) 
6.27489e-05

>  <r_epik_State_Penalty>  (96) 
-0

>  <r_epik_Charging_Adjusted_Penalty>  (96) 
0

>  <i_epik_Tot_Q>  (96) 
0

>  <i_epik_Tot_abs_Q>  (96) 
2

>  <s_epik_Chemistry_Notes>  (96) 
This compound has an ester and may undergo hydrolysis at high or low pH.

>  <s_lp_Force_Field>  (96) 
OPLS3e

>  <r_lp_Energy>  (96) 
238.428

>  <b_lp_Chiralities_Consistent>  (96) 
1

>  <s_lp_Variant>  (96) 
105:0-1

>  <s_i_glide_gridfile>  (96) 
pfpi4k_grid

>  <i_i_glide_lignum>  (96) 
81

>  <i_i_glide_rotatable_bonds>  (96) 
15

>  <r_i_docking_score>  (96) 
-4.14332

>  <r_i_glide_ligand_efficiency>  (96) 
-0.0767281

>  <r_i_glide_ligand_efficiency_sa>  (96) 
-0.290014

>  <r_i_glide_ligand_efficiency_ln>  (96) 
-0.830493

>  <r_i_glide_gscore>  (96) 
-4.14332

>  <r_i_glide_lipo>  (96) 
-0.39557

>  <r_i_glide_hbond>  (96) 
-0.00507216

>  <r_i_glide_metal>  (96) 
-0

>  <r_i_glide_rewards>  (96) 
-1

>  <r_i_glide_evdw>  (96) 
-29.6943

>  <r_i_glide_ecoul>  (96) 
-9.00641

>  <r_i_glide_erotb>  (96) 
0.174725

>  <r_i_glide_esite>  (96) 
-0.0817218

>  <r_i_glide_emodel>  (96) 
-55.7758

>  <r_i_glide_energy>  (96) 
-38.7007

>  <r_i_glide_einternal>  (96) 
9.0452

>  <r_i_glide_intrahb_reward>  (96) 
-1

>  <i_i_glide_confnum>  (96) 
1

>  <i_i_glide_posenum>  (96) 
7

>  <r_i_glide_eff_state_penalty>  (96) 
0

>  <ligand_id>  (96) 
105

>  <original_smiles>  (96) 
C=C1C(O)C2(O)[S+]([O-])C34COC3(O)C3(C)C(C(C)O)C(C)CC(OC(C)=O)C3(O)C(OC(C)=O)C23C(=O)C(C)(C)C3(OC(C)=O)C(OC(C)=O)CC1(O)O4

>  <smiles>  (96) 
[H]OC1([H])C(=C([H])[H])C2(O[H])OC34S(=O)C1(O[H])C1(C(=O)C(C([H])([H])[H])(C([H])([H])[H])C1(OC(=O)C([H])([H])[H])C([H])(OC(=O)C([H])([H])[H])C2([H])[H])C([H])(OC(=O)C([H])([H])[H])C1(O[H])C([H])(OC(=O)C([H])([H])[H])C([H])([H])C([H])(C([H])([H])[H])C([H])(C([H])(O[H])C([H])([H])[H])C1(C([H])([H])[H])C3(O[H])OC4([H])[H]

$$$$
105:0:2
     RDKit          3D

102107  0  0  1  0  0  0  0  0999 V2000
   -0.9249   -8.2960    4.2313 C   0  0  0  0  0  0  0  0  0  0  0  0
    0.3671   -7.9611    4.4751 C   0  0  0  0  0  0  0  0  0  0  0  0
    1.0584   -8.5481    5.7306 C   0  0  1  0  0  0  0  0  0  0  0  0
    0.3935   -9.7673    6.0801 O   0  0  0  0  0  0  0  0  0  0  0  0
    2.6017   -8.6644    5.5926 C   0  0  1  0  0  0  0  0  0  0  0  0
    2.8739   -9.2166    6.8935 O   0  0  0  0  0  0  0  0  0  0  0  0
    2.6663   -9.9311    4.2347 S   0  0  0  0  0  0  0  0  0  0  0  0
    3.7898  -10.8906    4.6372 O   0  0  0  0  0  0  0  0  0  0  0  0
    2.9516   -8.7053    2.8609 C   0  0  2  0  0  0  0  0  0  0  0  0
    2.4745   -9.1897    1.5083 C   0  0  0  0  0  0  0  0  0  0  0  0
    3.7825   -8.8821    0.9272 O   0  0  0  0  0  0  0  0  0  0  0  0
    4.3855   -8.9941    2.2424 C   0  0  2  0  0  0  0  0  0  0  0  0
    4.7663  -10.3376    2.3913 O   0  0  0  0  0  0  0  0  0  0  0  0
    5.7471   -8.1891    2.5306 C   0  0  1  0  0  0  0  0  0  0  0  0
    6.8826   -9.0768    1.8145 C   0  0  0  0  0  0  0  0  0  0  0  0
    6.0546   -6.7918    1.6725 C   0  0  1  0  0  0  0  0  0  0  0  0
    5.0002   -5.7734    0.9920 C   0  0  2  0  0  0  0  0  0  0  0  0
    3.7732   -6.2484    0.2178 C   0  0  0  0  0  0  0  0  0  0  0  0
    5.6007   -5.1613   -0.1261 O   0  0  0  0  0  0  0  0  0  0  0  0
    7.3551   -6.0352    2.2014 C   0  0  1  0  0  0  0  0  0  0  0  0
    7.7178   -4.6425    1.6462 C   0  0  0  0  0  0  0  0  0  0  0  0
    7.4630   -5.9748    3.7152 C   0  0  0  0  0  0  0  0  0  0  0  0
    7.5022   -7.3648    4.3380 C   0  0  1  0  0  0  0  0  0  0  0  0
    8.0107   -7.2456    5.6619 O   0  0  0  0  0  0  0  0  0  0  0  0
    9.3414   -7.2252    5.8999 C   0  0  0  0  0  0  0  0  0  0  0  0
    9.6714   -7.1798    7.3866 C   0  0  0  0  0  0  0  0  0  0  0  0
   10.2282   -7.2329    5.0494 O   0  0  0  0  0  0  0  0  0  0  0  0
    6.1527   -8.1604    4.1730 C   0  0  2  0  0  0  0  0  0  0  0  0
    6.6572   -9.4561    4.4206 O   0  0  0  0  0  0  0  0  0  0  0  0
    5.1258   -8.1492    5.5034 C   0  0  1  0  0  0  0  0  0  0  0  0
    5.7726   -8.0086    6.7646 O   0  0  0  0  0  0  0  0  0  0  0  0
    6.0667   -9.0592    7.5726 C   0  0  0  0  0  0  0  0  0  0  0  0
    6.6421   -8.6192    8.9125 C   0  0  0  0  0  0  0  0  0  0  0  0
    5.8967  -10.2446    7.3103 O   0  0  0  0  0  0  0  0  0  0  0  0
    3.7119   -7.4105    5.6048 C   0  0  1  0  0  0  0  0  0  0  0  0
    4.1958   -6.1109    4.8063 C   0  0  0  0  0  0  0  0  0  0  0  0
    4.4034   -5.8226    3.6571 O   0  0  0  0  0  0  0  0  0  0  0  0
    4.2303   -5.2078    6.0652 C   0  0  0  0  0  0  0  0  0  0  0  0
    5.5571   -5.2154    6.8639 C   0  0  0  0  0  0  0  0  0  0  0  0
    4.0260   -3.7355    5.6631 C   0  0  0  0  0  0  0  0  0  0  0  0
    3.0543   -6.1494    6.4120 C   0  0  2  0  0  0  0  0  0  0  0  0
    2.9874   -6.5380    7.7755 O   0  0  0  0  0  0  0  0  0  0  0  0
    2.9179   -5.6809    8.8171 C   0  0  0  0  0  0  0  0  0  0  0  0
    2.9221   -6.4154   10.1480 C   0  0  0  0  0  0  0  0  0  0  0  0
    2.8934   -4.4564    8.7600 O   0  0  0  0  0  0  0  0  0  0  0  0
    1.6045   -5.6272    5.8789 C   0  0  1  0  0  0  0  0  0  0  0  0
    1.3178   -4.3012    6.3224 O   0  0  0  0  0  0  0  0  0  0  0  0
    0.0939   -3.9064    6.8210 C   0  0  0  0  0  0  0  0  0  0  0  0
   -1.0174   -4.9410    6.8555 C   0  0  0  0  0  0  0  0  0  0  0  0
   -0.1137   -2.7586    7.2354 O   0  0  0  0  0  0  0  0  0  0  0  0
    1.2722   -5.6210    4.3221 C   0  0  0  0  0  0  0  0  0  0  0  0
    1.1385   -6.9925    3.5597 C   0  0  2  0  0  0  0  0  0  0  0  0
    0.3779   -6.7491    2.3952 O   0  0  0  0  0  0  0  0  0  0  0  0
    2.4616   -7.3733    3.1335 O   0  0  0  0  0  0  0  0  0  0  0  0
   -1.4857   -7.9143    3.3818 H   0  0  0  0  0  0  0  0  0  0  0  0
   -1.4657   -8.9449    4.8953 H   0  0  0  0  0  0  0  0  0  0  0  0
    0.8299   -8.0087    6.6302 H   0  0  0  0  0  0  0  0  0  0  0  0
    0.9900  -10.4024    6.4880 H   0  0  0  0  0  0  0  0  0  0  0  0
    2.8240  -10.1671    6.8331 H   0  0  0  0  0  0  0  0  0  0  0  0
    2.2698  -10.2591    1.4563 H   0  0  0  0  0  0  0  0  0  0  0  0
    1.6627   -8.6091    1.0802 H   0  0  0  0  0  0  0  0  0  0  0  0
    4.4557  -10.8380    1.6404 H   0  0  0  0  0  0  0  0  0  0  0  0
    7.8615   -8.6341    1.8749 H   0  0  0  0  0  0  0  0  0  0  0  0
    6.6575   -9.2608    0.7595 H   0  0  0  0  0  0  0  0  0  0  0  0
    7.0501  -10.0797    2.2018 H   0  0  0  0  0  0  0  0  0  0  0  0
    6.4175   -7.1556    0.7171 H   0  0  0  0  0  0  0  0  0  0  0  0
    4.7294   -4.9216    1.6248 H   0  0  0  0  0  0  0  0  0  0  0  0
    3.0042   -6.6564    0.8586 H   0  0  0  0  0  0  0  0  0  0  0  0
    4.0761   -6.9613   -0.5703 H   0  0  0  0  0  0  0  0  0  0  0  0
    3.2858   -5.4138   -0.2951 H   0  0  0  0  0  0  0  0  0  0  0  0
    6.3146   -4.6340    0.1862 H   0  0  0  0  0  0  0  0  0  0  0  0
    8.2159   -6.6229    1.8921 H   0  0  0  0  0  0  0  0  0  0  0  0
    6.9412   -3.9101    1.8664 H   0  0  0  0  0  0  0  0  0  0  0  0
    7.9324   -4.6603    0.5779 H   0  0  0  0  0  0  0  0  0  0  0  0
    8.6426   -4.2846    2.0955 H   0  0  0  0  0  0  0  0  0  0  0  0
    8.3901   -5.4633    3.9778 H   0  0  0  0  0  0  0  0  0  0  0  0
    6.6873   -5.3666    4.1488 H   0  0  0  0  0  0  0  0  0  0  0  0
    8.2566   -7.9265    3.7779 H   0  0  0  0  0  0  0  0  0  0  0  0
    9.4265   -8.1279    7.8665 H   0  0  0  0  0  0  0  0  0  0  0  0
    9.1151   -6.3834    7.8804 H   0  0  0  0  0  0  0  0  0  0  0  0
   10.7353   -6.9948    7.5367 H   0  0  0  0  0  0  0  0  0  0  0  0
    5.9256  -10.0720    4.3239 H   0  0  0  0  0  0  0  0  0  0  0  0
    4.8405   -9.1965    5.5293 H   0  0  0  0  0  0  0  0  0  0  0  0
    7.2912   -7.7506    8.7946 H   0  0  0  0  0  0  0  0  0  0  0  0
    7.2255   -9.4297    9.3550 H   0  0  0  0  0  0  0  0  0  0  0  0
    5.8395   -8.3620    9.6060 H   0  0  0  0  0  0  0  0  0  0  0  0
    5.8166   -4.2191    7.2196 H   0  0  0  0  0  0  0  0  0  0  0  0
    6.3960   -5.5232    6.2516 H   0  0  0  0  0  0  0  0  0  0  0  0
    5.5270   -5.8374    7.7532 H   0  0  0  0  0  0  0  0  0  0  0  0
    3.7014   -3.1326    6.5093 H   0  0  0  0  0  0  0  0  0  0  0  0
    3.2878   -3.5989    4.8734 H   0  0  0  0  0  0  0  0  0  0  0  0
    4.9411   -3.2750    5.2924 H   0  0  0  0  0  0  0  0  0  0  0  0
    1.9756   -6.9467   10.2842 H   0  0  0  0  0  0  0  0  0  0  0  0
    3.0542   -5.7060   10.9727 H   0  0  0  0  0  0  0  0  0  0  0  0
    3.7387   -7.1456   10.1819 H   0  0  0  0  0  0  0  0  0  0  0  0
    0.8747   -6.1874    6.4311 H   0  0  0  0  0  0  0  0  0  0  0  0
   -1.9832   -4.4822    7.1337 H   0  0  0  0  0  0  0  0  0  0  0  0
   -0.8207   -5.7126    7.6033 H   0  0  0  0  0  0  0  0  0  0  0  0
   -1.1806   -5.4231    5.8896 H   0  0  0  0  0  0  0  0  0  0  0  0
    0.2798   -5.1611    4.2295 H   0  0  0  0  0  0  0  0  0  0  0  0
    1.9048   -4.9509    3.7264 H   0  0  0  0  0  0  0  0  0  0  0  0
    0.2750   -7.5807    1.9444 H   0  0  0  0  0  0  0  0  0  0  0  0
  1  2  2  0
  1 55  1  0
  1 56  1  0
  2 52  1  0
  2  3  1  0
  3  4  1  0
  3  5  1  0
  3 57  1  1
  4 58  1  0
  5 35  1  0
  5  6  1  1
  5  7  1  0
  6 59  1  0
  7  8  2  0
  7  9  1  6
  9 12  1  0
  9 54  1  1
  9 10  1  0
 10 11  1  0
 10 60  1  0
 10 61  1  0
 11 12  1  0
 12 13  1  1
 12 14  1  0
 13 62  1  0
 14 28  1  0
 14 15  1  6
 14 16  1  0
 15 63  1  0
 15 64  1  0
 15 65  1  0
 16 17  1  0
 16 20  1  0
 16 66  1  6
 17 18  1  0
 17 19  1  0
 17 67  1  1
 18 68  1  0
 18 69  1  0
 18 70  1  0
 19 71  1  0
 20 21  1  0
 20 22  1  0
 20 72  1  6
 21 73  1  0
 21 74  1  0
 21 75  1  0
 22 23  1  0
 22 76  1  0
 22 77  1  0
 23 24  1  0
 23 28  1  0
 23 78  1  6
 24 25  1  0
 25 26  1  0
 25 27  2  0
 26 79  1  0
 26 80  1  0
 26 81  1  0
 28 29  1  1
 28 30  1  0
 29 82  1  0
 30 31  1  0
 30 35  1  0
 30 83  1  1
 31 32  1  0
 32 33  1  0
 32 34  2  0
 33 84  1  0
 33 85  1  0
 33 86  1  0
 35 41  1  0
 35 36  1  6
 36 37  2  0
 36 38  1  0
 38 39  1  0
 38 40  1  0
 38 41  1  0
 39 87  1  0
 39 88  1  0
 39 89  1  0
 40 90  1  0
 40 91  1  0
 40 92  1  0
 41 42  1  1
 41 46  1  0
 42 43  1  0
 43 44  1  0
 43 45  2  0
 44 93  1  0
 44 94  1  0
 44 95  1  0
 46 47  1  0
 46 51  1  0
 46 96  1  1
 47 48  1  0
 48 49  1  0
 48 50  2  0
 49 97  1  0
 49 98  1  0
 49 99  1  0
 51 52  1  0
 51100  1  0
 51101  1  0
 52 53  1  6
 52 54  1  0
 53102  1  0
M  END
>  <i_m_ct_stereo_status>  (97) 
1

>  <s_m_source_file>  (97) 
/var/tmp/pbs.5075288.sched01/tmphpu8_cit/24996nucuhu.sdf

>  <i_m_source_file_index>  (97) 
81

>  <i_lp_mmshare_version>  (97) 
48012

>  <i_f3d_flags>  (97) 
0

>  <s_epik_input>  (97) 
Tz1DMUMoW0NIM10pKFtDSDNdKVtDQEBdMihPQyg9TylbQ0gzXSlbQ0BASF0oT0MoPU8pW0NIM10pW0NIMl1bQ0BdKE8zKShbT0hdKUMoPVtDSDJdKVtDQEBIXShbT0hdKVtDQEBdKFtPSF0pKFtTK100W08tXSlbQ0BAXTEyW0NASF0oT0MoPU8pW0NIM10pW0NAQF0oW09IXSkoW0NAQF01KFtDSDNdKVtDQF0oW0NAXTM0NikoW09IXSlPW0NIMl02KVtDQEhdKE9DKD1PKVtDSDNdKVtDSDJdW0NASF0oW0NIM10pW0NAQEhdNVtDQEhdKFtDSDNdKVtPSF0=

>  <s_epik_cmdline>  (97) 
J2VwaWtfcHl0aG9uJywgJy1waHQnLCAnMi4wJywgJy1waCcsICc3LjAnLCAnLXRuJywgJzgnLCAnLW1hJywgJzIwMCcsICctaW1hZScsICc8aW5maWxlLm1hZT4nLCAnLW9tYWUnLCAnPG91dGZpbGUubWFlPic=

>  <r_lp_tautomer_probability>  (97) 
1

>  <r_epik_Ionization_Penalty>  (97) 
6.27489e-05

>  <r_epik_Ionization_Penalty_Charging>  (97) 
0

>  <r_epik_Ionization_Penalty_Neutral>  (97) 
6.27489e-05

>  <r_epik_State_Penalty>  (97) 
-0

>  <r_epik_Charging_Adjusted_Penalty>  (97) 
0

>  <i_epik_Tot_Q>  (97) 
0

>  <i_epik_Tot_abs_Q>  (97) 
2

>  <s_epik_Chemistry_Notes>  (97) 
This compound has an ester and may undergo hydrolysis at high or low pH.

>  <s_lp_Force_Field>  (97) 
OPLS3e

>  <r_lp_Energy>  (97) 
238.428

>  <b_lp_Chiralities_Consistent>  (97) 
1

>  <s_lp_Variant>  (97) 
105:0-1

>  <s_i_glide_gridfile>  (97) 
pfpi4k_grid

>  <i_i_glide_lignum>  (97) 
81

>  <i_i_glide_rotatable_bonds>  (97) 
15

>  <r_i_docking_score>  (97) 
-4.01185

>  <r_i_glide_ligand_efficiency>  (97) 
-0.0742935

>  <r_i_glide_ligand_efficiency_sa>  (97) 
-0.280812

>  <r_i_glide_ligand_efficiency_ln>  (97) 
-0.804141

>  <r_i_glide_gscore>  (97) 
-4.01185

>  <r_i_glide_lipo>  (97) 
-0.454191

>  <r_i_glide_hbond>  (97) 
0

>  <r_i_glide_metal>  (97) 
-0

>  <r_i_glide_rewards>  (97) 
-1.00587

>  <r_i_glide_evdw>  (97) 
-30.2419

>  <r_i_glide_ecoul>  (97) 
-7.67011

>  <r_i_glide_erotb>  (97) 
0.174725

>  <r_i_glide_esite>  (97) 
-0.0638946

>  <r_i_glide_emodel>  (97) 
-54.0155

>  <r_i_glide_energy>  (97) 
-37.912

>  <r_i_glide_einternal>  (97) 
9.64265

>  <r_i_glide_intrahb_reward>  (97) 
-1

>  <i_i_glide_confnum>  (97) 
6

>  <i_i_glide_posenum>  (97) 
15

>  <r_i_glide_eff_state_penalty>  (97) 
0

>  <ligand_id>  (97) 
105

>  <original_smiles>  (97) 
C=C1C(O)C2(O)[S+]([O-])C34COC3(O)C3(C)C(C(C)O)C(C)CC(OC(C)=O)C3(O)C(OC(C)=O)C23C(=O)C(C)(C)C3(OC(C)=O)C(OC(C)=O)CC1(O)O4

>  <smiles>  (97) 
[H]OC1([H])C(=C([H])[H])C2(O[H])OC34S(=O)C1(O[H])C1(C(=O)C(C([H])([H])[H])(C([H])([H])[H])C1(OC(=O)C([H])([H])[H])C([H])(OC(=O)C([H])([H])[H])C2([H])[H])C([H])(OC(=O)C([H])([H])[H])C1(O[H])C([H])(OC(=O)C([H])([H])[H])C([H])([H])C([H])(C([H])([H])[H])C([H])(C([H])(O[H])C([H])([H])[H])C1(C([H])([H])[H])C3(O[H])OC4([H])[H]

$$$$
