2:0:0
     RDKit          3D

103109  0  0  1  0  0  0  0  0999 V2000
   -2.2073    0.9070    6.4121 C   0  0  0  0  0  0  0  0  0  0  0  0
   -0.9025    0.3722    6.3142 O   0  0  0  0  0  0  0  0  0  0  0  0
   -0.5092   -0.4016    5.1639 C   0  0  1  0  0  0  0  0  0  0  0  0
   -1.6695   -1.4344    4.9863 C   0  0  0  0  0  0  0  0  0  0  0  0
   -0.6745    0.3349    3.7938 C   0  0  0  0  0  0  0  0  0  0  0  0
    0.0060    1.6689    3.6122 C   0  0  1  0  0  0  0  0  0  0  0  0
   -0.5282    2.6046    4.5472 O   0  0  0  0  0  0  0  0  0  0  0  0
   -1.6081    3.3651    4.2771 C   0  0  0  0  0  0  0  0  0  0  0  0
   -2.0616    4.1624    5.1202 O   0  0  0  0  0  0  0  0  0  0  0  0
   -2.3175    3.1280    2.9440 C   0  0  0  0  0  0  0  0  0  0  0  0
   -3.5631    3.7690    2.8266 O   0  0  0  0  0  0  0  0  0  0  0  0
    1.5161    1.5819    3.7166 C   0  0  1  0  0  0  0  0  0  0  0  0
    2.0190    0.6059    2.6188 C   0  0  0  0  0  0  0  0  0  0  0  0
    2.0997    3.0018    3.1913 C   0  0  2  0  0  0  0  0  0  0  0  0
    3.4165    3.5474    3.7413 C   0  0  0  0  0  0  0  0  0  0  0  0
    1.2610    4.1321    3.2723 O   0  0  0  0  0  0  0  0  0  0  0  0
    1.9713    1.0088    5.1447 C   0  0  1  0  0  0  0  0  0  0  0  0
    1.7055    1.3503    6.7161 C   0  0  1  0  0  0  0  0  0  0  0  0
    1.2610    0.2674    7.5772 O   0  0  0  0  0  0  0  0  0  0  0  0
    2.2410   -0.3287    8.4249 C   0  0  2  0  0  0  0  0  0  0  0  0
    1.6504   -0.3440    9.6952 O   0  0  0  0  0  0  0  0  0  0  0  0
    3.2152    0.6389    8.4406 O   0  0  0  0  0  0  0  0  0  0  0  0
    3.1063    1.3845    7.2576 C   0  0  2  0  0  0  0  0  0  0  0  0
    3.6414    2.6851    7.3499 O   0  0  0  0  0  0  0  0  0  0  0  0
    3.7227    0.5641    6.1918 C   0  0  1  0  0  0  0  0  0  0  0  0
    5.1496    0.6360    6.3865 O   0  0  0  0  0  0  0  0  0  0  0  0
    2.5533   -0.4569    5.4218 C   0  0  1  0  0  0  0  0  0  0  0  0
    0.9457   -1.1017    5.4666 C   0  0  1  0  0  0  0  0  0  0  0  0
    0.4850   -2.2065    6.9283 S   0  0  0  0  0  0  0  0  0  0  0  0
   -0.6168   -3.2622    6.6747 O   0  0  0  0  0  0  0  0  0  0  0  0
    2.0260   -3.0382    7.3862 C   0  0  2  0  0  0  0  0  0  0  0  0
    2.9105   -1.8891    8.0936 C   0  0  2  0  0  0  0  0  0  0  0  0
    3.2370   -2.4603    9.5131 C   0  0  0  0  0  0  0  0  0  0  0  0
    4.3315   -1.8928    7.5019 C   0  0  0  0  0  0  0  0  0  0  0  0
    4.6005   -1.9669    5.9899 C   0  0  0  0  0  0  0  0  0  0  0  0
    5.7834   -2.0748    5.6831 O   0  0  0  0  0  0  0  0  0  0  0  0
    3.5392   -1.6373    4.8842 C   0  0  1  0  0  0  0  0  0  0  0  0
    3.0957   -3.0599    4.1875 C   0  0  1  0  0  0  0  0  0  0  0  0
    2.6014   -2.6922    2.9155 O   0  0  0  0  0  0  0  0  0  0  0  0
    4.3231   -4.0097    3.9147 C   0  0  1  0  0  0  0  0  0  0  0  0
    5.3923   -3.3567    3.2270 O   0  0  0  0  0  0  0  0  0  0  0  0
    5.5846   -3.4375    1.8749 C   0  0  0  0  0  0  0  0  0  0  0  0
    4.6078   -4.2861    1.0555 C   0  0  0  0  0  0  0  0  0  0  0  0
    6.5133   -2.8632    1.3027 O   0  0  0  0  0  0  0  0  0  0  0  0
    4.8249   -4.7943    5.1911 C   0  0  0  0  0  0  0  0  0  0  0  0
    3.8200   -5.0049    6.3938 C   0  0  1  0  0  0  0  0  0  0  0  0
    4.4642   -5.0153    7.6461 O   0  0  0  0  0  0  0  0  0  0  0  0
    2.3757   -4.3159    6.3800 C   0  0  1  0  0  0  0  0  0  0  0  0
    1.4635   -5.4728    6.9311 C   0  0  0  0  0  0  0  0  0  0  0  0
    2.0596   -4.1158    4.8217 C   0  0  1  0  0  0  0  0  0  0  0  0
    0.7107   -3.8509    4.4848 O   0  0  0  0  0  0  0  0  0  0  0  0
    1.9660   -5.5240    4.0576 C   0  0  0  0  0  0  0  0  0  0  0  0
    1.8168   -5.4638    2.6412 O   0  0  0  0  0  0  0  0  0  0  0  0
   -2.2571    1.6733    7.1848 H   0  0  0  0  0  0  0  0  0  0  0  0
   -2.9668    0.1490    6.6390 H   0  0  0  0  0  0  0  0  0  0  0  0
   -2.4107    1.3630    5.4685 H   0  0  0  0  0  0  0  0  0  0  0  0
   -1.3418   -2.2627    4.3642 H   0  0  0  0  0  0  0  0  0  0  0  0
   -2.5754   -1.0435    4.5182 H   0  0  0  0  0  0  0  0  0  0  0  0
   -2.0717   -1.7792    5.9343 H   0  0  0  0  0  0  0  0  0  0  0  0
   -0.3884   -0.3282    2.9737 H   0  0  0  0  0  0  0  0  0  0  0  0
   -1.7093    0.5671    3.5662 H   0  0  0  0  0  0  0  0  0  0  0  0
   -0.1712    2.0129    2.5960 H   0  0  0  0  0  0  0  0  0  0  0  0
   -1.6885    3.4346    2.0905 H   0  0  0  0  0  0  0  0  0  0  0  0
   -2.5835    2.0848    2.8683 H   0  0  0  0  0  0  0  0  0  0  0  0
   -3.9668    3.5206    2.0087 H   0  0  0  0  0  0  0  0  0  0  0  0
    3.1065    0.5879    2.5485 H   0  0  0  0  0  0  0  0  0  0  0  0
    1.6267    0.8822    1.6383 H   0  0  0  0  0  0  0  0  0  0  0  0
    1.6951   -0.4107    2.7781 H   0  0  0  0  0  0  0  0  0  0  0  0
    2.2568    2.9279    2.1144 H   0  0  0  0  0  0  0  0  0  0  0  0
    4.1765    2.7677    3.7673 H   0  0  0  0  0  0  0  0  0  0  0  0
    3.2919    3.9530    4.7490 H   0  0  0  0  0  0  0  0  0  0  0  0
    3.7489    4.3613    3.1005 H   0  0  0  0  0  0  0  0  0  0  0  0
    0.8303    4.2144    2.4178 H   0  0  0  0  0  0  0  0  0  0  0  0
    2.4967    1.9418    5.1118 H   0  0  0  0  0  0  0  0  0  0  0  0
    1.1549    2.2833    6.8852 H   0  0  0  0  0  0  0  0  0  0  0  0
    1.4195    0.5476    9.8889 H   0  0  0  0  0  0  0  0  0  0  0  0
    4.5838    2.6073    7.4016 H   0  0  0  0  0  0  0  0  0  0  0  0
    4.1431    1.1334    5.3557 H   0  0  0  0  0  0  0  0  0  0  0  0
    5.5850    0.2252    5.6572 H   0  0  0  0  0  0  0  0  0  0  0  0
    0.9756   -1.6290    4.5308 H   0  0  0  0  0  0  0  0  0  0  0  0
    1.6316   -3.5575    8.2567 H   0  0  0  0  0  0  0  0  0  0  0  0
    3.7272   -3.4300    9.4788 H   0  0  0  0  0  0  0  0  0  0  0  0
    2.3489   -2.6223   10.1247 H   0  0  0  0  0  0  0  0  0  0  0  0
    3.8986   -1.7910   10.0634 H   0  0  0  0  0  0  0  0  0  0  0  0
    4.8942   -1.0739    7.9420 H   0  0  0  0  0  0  0  0  0  0  0  0
    4.8941   -2.7364    7.8844 H   0  0  0  0  0  0  0  0  0  0  0  0
    4.1310   -1.1320    4.1219 H   0  0  0  0  0  0  0  0  0  0  0  0
    1.8528   -2.1318    3.0389 H   0  0  0  0  0  0  0  0  0  0  0  0
    4.0383   -4.7836    3.2267 H   0  0  0  0  0  0  0  0  0  0  0  0
    4.5923   -5.3198    1.4366 H   0  0  0  0  0  0  0  0  0  0  0  0
    4.8757   -4.2850    0.0002 H   0  0  0  0  0  0  0  0  0  0  0  0
    3.5957   -3.8760    1.1034 H   0  0  0  0  0  0  0  0  0  0  0  0
    5.0749   -5.7766    4.8035 H   0  0  0  0  0  0  0  0  0  0  0  0
    5.8044   -4.4624    5.5461 H   0  0  0  0  0  0  0  0  0  0  0  0
    3.6562   -6.0769    6.2987 H   0  0  0  0  0  0  0  0  0  0  0  0
    4.7941   -4.1487    7.8181 H   0  0  0  0  0  0  0  0  0  0  0  0
    1.6276   -6.4399    6.4591 H   0  0  0  0  0  0  0  0  0  0  0  0
    0.4021   -5.2804    6.8134 H   0  0  0  0  0  0  0  0  0  0  0  0
    1.6570   -5.6556    7.9894 H   0  0  0  0  0  0  0  0  0  0  0  0
    0.4116   -3.0911    4.9567 H   0  0  0  0  0  0  0  0  0  0  0  0
    2.8016   -6.1944    4.2442 H   0  0  0  0  0  0  0  0  0  0  0  0
    1.1070   -6.1088    4.3905 H   0  0  0  0  0  0  0  0  0  0  0  0
    2.5711   -5.0291    2.2706 H   0  0  0  0  0  0  0  0  0  0  0  0
  1  2  1  0
  1 54  1  0
  1 55  1  0
  1 56  1  0
  3  2  1  1
  3 28  1  0
  3  4  1  0
  3  5  1  0
  4 57  1  0
  4 58  1  0
  4 59  1  0
  5  6  1  0
  5 60  1  0
  5 61  1  0
  6  7  1  0
  6 12  1  0
  6 62  1  6
  7  8  1  0
  8  9  2  0
  8 10  1  0
 10 11  1  0
 10 63  1  0
 10 64  1  0
 11 65  1  0
 12 13  1  6
 12 14  1  0
 12 17  1  0
 13 66  1  0
 13 67  1  0
 13 68  1  0
 14 15  1  0
 14 16  1  0
 14 69  1  6
 15 70  1  0
 15 71  1  0
 15 72  1  0
 16 73  1  0
 17 27  1  0
 17 18  1  0
 17 74  1  6
 18 23  1  0
 18 19  1  0
 18 75  1  6
 19 20  1  0
 20 32  1  0
 20 21  1  1
 20 22  1  0
 21 76  1  0
 22 23  1  0
 23 24  1  1
 23 25  1  0
 24 77  1  0
 25 26  1  0
 27 25  1  1
 25 78  1  6
 26 79  1  0
 27 28  1  0
 27 37  1  0
 29 28  1  6
 28 80  1  6
 29 30  2  0
 29 31  1  0
 31 48  1  0
 31 32  1  0
 31 81  1  1
 32 33  1  1
 32 34  1  0
 33 82  1  0
 33 83  1  0
 33 84  1  0
 34 85  1  0
 34 86  1  0
 34 35  1  0
 35 37  1  0
 35 36  2  0
 37 38  1  0
 37 87  1  6
 38 50  1  0
 38 39  1  6
 38 40  1  0
 39 88  1  0
 40 41  1  0
 40 45  1  0
 40 89  1  6
 41 42  1  0
 42 43  1  0
 42 44  2  0
 43 90  1  0
 43 91  1  0
 43 92  1  0
 45 46  1  0
 45 93  1  0
 45 94  1  0
 46 47  1  0
 46 48  1  0
 46 95  1  6
 47 96  1  0
 48 49  1  1
 48 50  1  0
 49 97  1  0
 49 98  1  0
 49 99  1  0
 50 51  1  1
 50 52  1  0
 51100  1  0
 52 53  1  0
 52101  1  0
 52102  1  0
 53103  1  0
M  END
>  <i_m_ct_stereo_status>  (1) 
1

>  <s_m_source_file>  (1) 
/var/tmp/pbs.5075288.sched01/tmphozr6t3_/0veliry26.sdf

>  <i_m_source_file_index>  (1) 
5

>  <i_lp_mmshare_version>  (1) 
48012

>  <i_f3d_flags>  (1) 
0

>  <s_epik_input>  (1) 
W09IXVtDSDJdQyg9TylPW0NAQEhdKFtDQEBdMShbQ0gzXSlbQ0BIXShbQ0gzXSlbT0hdKVtDSDJdW0NAXShbQ0gzXSkoT1tDSDNdKVtDQEBIXTJbUytdKFtPLV0pW0NASF0oW0NAXTMoW0NIM10pW0NAQF0oTzQpKFtPSF0pT1tDQF0oW09IXSkoW0NASF00W0NASF0xQzI1NilbQ0BIXTVbT0hdKVtDQF03KFtDSDNdKVtDQEhdKFtPSF0pW0NIMl1bQ0BIXShPQyg9TylbQ0gzXSlbQ0BdKFtPSF0pKFtDQEBIXTZDKD1bQ0hdXDMpXFtPSF0pW0NAQF03KFtPSF0pW0NIMl1bT0hd

>  <s_epik_cmdline>  (1) 
J2VwaWtfcHl0aG9uJywgJy1waHQnLCAnMi4wJywgJy1waCcsICc3LjAnLCAnLXRuJywgJzgnLCAnLW1hJywgJzIwMCcsICctaW1hZScsICc8aW5maWxlLm1hZT4nLCAnLW9tYWUnLCAnPG91dGZpbGUubWFlPic=

>  <r_lp_tautomer_probability>  (1) 
1

>  <r_epik_Ionization_Penalty>  (1) 
0.00139024

>  <r_epik_Ionization_Penalty_Charging>  (1) 
0

>  <r_epik_Ionization_Penalty_Neutral>  (1) 
0.00139024

>  <r_epik_State_Penalty>  (1) 
-0

>  <r_epik_Charging_Adjusted_Penalty>  (1) 
0

>  <i_epik_Tot_Q>  (1) 
0

>  <i_epik_Tot_abs_Q>  (1) 
0

>  <s_epik_Chemistry_Notes>  (1) 
This compound has an ester and may undergo hydrolysis at high or low pH.

>  <s_lp_Force_Field>  (1) 
OPLS3e

>  <r_lp_Energy>  (1) 
456.191

>  <b_lp_Chiralities_Consistent>  (1) 
1

>  <s_lp_Variant>  (1) 
2:0-1

>  <s_i_glide_gridfile>  (1) 
pfpi4k_grid

>  <i_i_glide_lignum>  (1) 
5

>  <i_i_glide_rotatable_bonds>  (1) 
17

>  <r_i_docking_score>  (1) 
-3.06015

>  <r_i_glide_ligand_efficiency>  (1) 
-0.0577386

>  <r_i_glide_ligand_efficiency_sa>  (1) 
-0.216883

>  <r_i_glide_ligand_efficiency_ln>  (1) 
-0.615687

>  <r_i_glide_gscore>  (1) 
-3.06015

>  <r_i_glide_lipo>  (1) 
-0.0339626

>  <r_i_glide_hbond>  (1) 
0

>  <r_i_glide_metal>  (1) 
-0

>  <r_i_glide_rewards>  (1) 
-0.0688113

>  <r_i_glide_evdw>  (1) 
-25.5748

>  <r_i_glide_ecoul>  (1) 
-10.8617

>  <r_i_glide_erotb>  (1) 
0.015166

>  <r_i_glide_esite>  (1) 
-0.0645431

>  <r_i_glide_emodel>  (1) 
-31.1443

>  <r_i_glide_energy>  (1) 
-36.4365

>  <r_i_glide_einternal>  (1) 
21.4762

>  <r_i_glide_intrahb_reward>  (1) 
-0

>  <i_i_glide_confnum>  (1) 
10

>  <i_i_glide_posenum>  (1) 
36

>  <r_i_glide_eff_state_penalty>  (1) 
0

>  <ligand_id>  (1) 
2

>  <original_smiles>  (1) 
COC1(C)CC(OC(=O)CO)C(C)(C(C)O)C2C3OC4(O)OC3(O)C(O)C23C1[S+]([O-])C1C4(C)C=C(O)C3C2(O)C(OC(C)=O)CC(O)C1(C)C2(O)CO

>  <smiles>  (1) 
[H]OC([H])([H])C(=O)OC1([H])C([H])([H])C(OC([H])([H])[H])(C([H])([H])[H])C2([H])S(=O)C3([H])C4(C([H])([H])[H])C5(O[H])OC6([H])C(O[H])(O5)C([H])(O[H])C2(C([H])(C(=O)C4([H])[H])C2(O[H])C([H])(OC(=O)C([H])([H])[H])C([H])([H])C([H])(O[H])C3(C([H])([H])[H])C2(O[H])C([H])([H])O[H])C6([H])C1(C([H])([H])[H])C([H])(O[H])C([H])([H])[H]

$$$$
2:0:1
     RDKit          3D

103109  0  0  1  0  0  0  0  0999 V2000
    1.5193   -3.5101    7.0615 C   0  0  0  0  0  0  0  0  0  0  0  0
    1.4090   -2.5694    5.9992 O   0  0  0  0  0  0  0  0  0  0  0  0
    1.0658   -2.9473    4.6555 C   0  0  1  0  0  0  0  0  0  0  0  0
    0.0681   -4.1481    4.7470 C   0  0  0  0  0  0  0  0  0  0  0  0
    0.0549   -1.8472    4.2631 C   0  0  0  0  0  0  0  0  0  0  0  0
    0.4863   -0.4004    4.3714 C   0  0  1  0  0  0  0  0  0  0  0  0
    0.7554   -0.0300    5.7294 O   0  0  0  0  0  0  0  0  0  0  0  0
   -0.2326    0.3229    6.5810 C   0  0  0  0  0  0  0  0  0  0  0  0
   -0.0656    0.4811    7.8039 O   0  0  0  0  0  0  0  0  0  0  0  0
   -1.6067    0.4997    5.9044 C   0  0  0  0  0  0  0  0  0  0  0  0
   -2.5917    0.9365    6.7934 O   0  0  0  0  0  0  0  0  0  0  0  0
    1.6188   -0.0504    3.4335 C   0  0  1  0  0  0  0  0  0  0  0  0
    1.2365   -0.3891    1.9691 C   0  0  0  0  0  0  0  0  0  0  0  0
    1.7204    1.5558    3.4566 C   0  0  2  0  0  0  0  0  0  0  0  0
    2.6312    2.2167    2.4136 C   0  0  0  0  0  0  0  0  0  0  0  0
    2.1424    2.0945    4.7061 O   0  0  0  0  0  0  0  0  0  0  0  0
    2.9150   -0.8788    3.7888 C   0  0  1  0  0  0  0  0  0  0  0  0
    3.6679   -1.2985    5.1744 C   0  0  1  0  0  0  0  0  0  0  0  0
    3.8769   -2.7097    5.5079 O   0  0  0  0  0  0  0  0  0  0  0  0
    5.1472   -3.2802    5.1629 C   0  0  2  0  0  0  0  0  0  0  0  0
    5.5473   -3.9996    6.3056 O   0  0  0  0  0  0  0  0  0  0  0  0
    5.8339   -2.1412    5.1114 O   0  0  0  0  0  0  0  0  0  0  0  0
    5.0512   -1.0755    4.7268 C   0  0  2  0  0  0  0  0  0  0  0  0
    5.5516    0.1818    5.1271 O   0  0  0  0  0  0  0  0  0  0  0  0
    4.8790   -1.2660    3.2764 C   0  0  1  0  0  0  0  0  0  0  0  0
    6.0192   -0.7560    2.5745 O   0  0  0  0  0  0  0  0  0  0  0  0
    3.4515   -2.1283    2.9332 C   0  0  1  0  0  0  0  0  0  0  0  0
    2.3082   -3.2250    3.6129 C   0  0  1  0  0  0  0  0  0  0  0  0
    2.9057   -4.9039    4.2901 S   0  0  0  0  0  0  0  0  0  0  0  0
    1.9145   -6.0693    4.2580 O   0  0  0  0  0  0  0  0  0  0  0  0
    4.3515   -5.3440    3.3031 C   0  0  2  0  0  0  0  0  0  0  0  0
    5.4616   -4.3440    3.7945 C   0  0  2  0  0  0  0  0  0  0  0  0
    6.6325   -5.3114    4.2923 C   0  0  0  0  0  0  0  0  0  0  0  0
    6.0771   -3.7281    2.4946 C   0  0  0  0  0  0  0  0  0  0  0  0
    5.3314   -3.0476    1.3284 C   0  0  0  0  0  0  0  0  0  0  0  0
    6.0167   -2.6460    0.3787 O   0  0  0  0  0  0  0  0  0  0  0  0
    3.8392   -2.6221    1.4165 C   0  0  1  0  0  0  0  0  0  0  0  0
    3.0733   -3.7474    0.5543 C   0  0  1  0  0  0  0  0  0  0  0  0
    1.9534   -3.0458    0.0603 O   0  0  0  0  0  0  0  0  0  0  0  0
    3.8162   -4.1110   -0.8037 C   0  0  1  0  0  0  0  0  0  0  0  0
    4.1829   -2.9341   -1.5455 O   0  0  0  0  0  0  0  0  0  0  0  0
    4.3069   -2.9226   -2.8845 C   0  0  0  0  0  0  0  0  0  0  0  0
    4.4983   -1.5139   -3.4183 C   0  0  0  0  0  0  0  0  0  0  0  0
    4.2947   -3.8865   -3.6352 O   0  0  0  0  0  0  0  0  0  0  0  0
    4.9694   -5.1867   -0.6633 C   0  0  0  0  0  0  0  0  0  0  0  0
    5.0120   -6.1059    0.6344 C   0  0  1  0  0  0  0  0  0  0  0  0
    6.3254   -6.3871    1.0605 O   0  0  0  0  0  0  0  0  0  0  0  0
    3.9435   -5.9395    1.8303 C   0  0  1  0  0  0  0  0  0  0  0  0
    3.5840   -7.4508    2.1387 C   0  0  0  0  0  0  0  0  0  0  0  0
    2.6861   -5.1942    1.1660 C   0  0  1  0  0  0  0  0  0  0  0  0
    1.4564   -5.3169    1.8659 O   0  0  0  0  0  0  0  0  0  0  0  0
    2.0466   -6.1333    0.1163 C   0  0  0  0  0  0  0  0  0  0  0  0
    1.0544   -5.5583   -0.7045 O   0  0  0  0  0  0  0  0  0  0  0  0
    1.9239   -2.9831    7.9255 H   0  0  0  0  0  0  0  0  0  0  0  0
    2.1942   -4.3303    6.8223 H   0  0  0  0  0  0  0  0  0  0  0  0
    0.5400   -3.9040    7.3365 H   0  0  0  0  0  0  0  0  0  0  0  0
   -0.1451   -4.5457    3.7655 H   0  0  0  0  0  0  0  0  0  0  0  0
   -0.8534   -3.8690    5.2434 H   0  0  0  0  0  0  0  0  0  0  0  0
    0.3694   -4.9775    5.3786 H   0  0  0  0  0  0  0  0  0  0  0  0
   -0.3263   -2.0642    3.2620 H   0  0  0  0  0  0  0  0  0  0  0  0
   -0.8162   -1.8602    4.9133 H   0  0  0  0  0  0  0  0  0  0  0  0
   -0.3322    0.2055    3.9995 H   0  0  0  0  0  0  0  0  0  0  0  0
   -1.5569    1.2751    5.1268 H   0  0  0  0  0  0  0  0  0  0  0  0
   -1.9610   -0.4574    5.4854 H   0  0  0  0  0  0  0  0  0  0  0  0
   -2.3896    1.8021    7.1341 H   0  0  0  0  0  0  0  0  0  0  0  0
    2.0242   -0.1148    1.2613 H   0  0  0  0  0  0  0  0  0  0  0  0
    0.3340    0.1520    1.6884 H   0  0  0  0  0  0  0  0  0  0  0  0
    1.0383   -1.4468    1.8134 H   0  0  0  0  0  0  0  0  0  0  0  0
    0.7252    1.9527    3.2781 H   0  0  0  0  0  0  0  0  0  0  0  0
    2.4859    1.8239    1.4056 H   0  0  0  0  0  0  0  0  0  0  0  0
    3.6510    2.0270    2.7357 H   0  0  0  0  0  0  0  0  0  0  0  0
    2.4737    3.3012    2.3788 H   0  0  0  0  0  0  0  0  0  0  0  0
    3.0599    1.9313    4.8258 H   0  0  0  0  0  0  0  0  0  0  0  0
    3.3433    0.1168    3.8002 H   0  0  0  0  0  0  0  0  0  0  0  0
    3.4318   -0.6844    6.0624 H   0  0  0  0  0  0  0  0  0  0  0  0
    6.4535   -4.1759    6.1747 H   0  0  0  0  0  0  0  0  0  0  0  0
    5.0287    0.8910    4.7860 H   0  0  0  0  0  0  0  0  0  0  0  0
    4.7591   -0.3291    2.7216 H   0  0  0  0  0  0  0  0  0  0  0  0
    6.7312   -1.3655    2.6335 H   0  0  0  0  0  0  0  0  0  0  0  0
    1.7106   -3.3306    2.7242 H   0  0  0  0  0  0  0  0  0  0  0  0
    4.6002   -6.2518    3.8326 H   0  0  0  0  0  0  0  0  0  0  0  0
    7.0042   -5.9369    3.4738 H   0  0  0  0  0  0  0  0  0  0  0  0
    6.2585   -6.0349    5.0281 H   0  0  0  0  0  0  0  0  0  0  0  0
    7.5162   -4.8638    4.7809 H   0  0  0  0  0  0  0  0  0  0  0  0
    6.5685   -2.9453    2.9327 H   0  0  0  0  0  0  0  0  0  0  0  0
    6.8701   -4.3273    2.0454 H   0  0  0  0  0  0  0  0  0  0  0  0
    3.8177   -1.7138    0.8122 H   0  0  0  0  0  0  0  0  0  0  0  0
    2.1995   -2.1822   -0.2093 H   0  0  0  0  0  0  0  0  0  0  0  0
    3.0552   -4.5286   -1.4410 H   0  0  0  0  0  0  0  0  0  0  0  0
    3.6287   -0.8989   -3.1752 H   0  0  0  0  0  0  0  0  0  0  0  0
    4.6065   -1.5590   -4.5001 H   0  0  0  0  0  0  0  0  0  0  0  0
    5.4234   -1.0857   -2.9806 H   0  0  0  0  0  0  0  0  0  0  0  0
    4.8946   -5.8436   -1.5343 H   0  0  0  0  0  0  0  0  0  0  0  0
    5.9353   -4.7091   -0.8237 H   0  0  0  0  0  0  0  0  0  0  0  0
    4.8148   -7.0698    0.1655 H   0  0  0  0  0  0  0  0  0  0  0  0
    6.6731   -5.6168    1.4656 H   0  0  0  0  0  0  0  0  0  0  0  0
    3.3632   -8.0702    1.2670 H   0  0  0  0  0  0  0  0  0  0  0  0
    2.7213   -7.5739    2.7864 H   0  0  0  0  0  0  0  0  0  0  0  0
    4.4216   -7.9549    2.6225 H   0  0  0  0  0  0  0  0  0  0  0  0
    1.5918   -5.0886    2.7712 H   0  0  0  0  0  0  0  0  0  0  0  0
    2.8210   -6.4663   -0.5165 H   0  0  0  0  0  0  0  0  0  0  0  0
    1.6199   -7.0650    0.5024 H   0  0  0  0  0  0  0  0  0  0  0  0
    1.4620   -5.2931   -1.5189 H   0  0  0  0  0  0  0  0  0  0  0  0
  1  2  1  0
  1 54  1  0
  1 55  1  0
  1 56  1  0
  3  2  1  1
  3 28  1  0
  3  4  1  0
  3  5  1  0
  4 57  1  0
  4 58  1  0
  4 59  1  0
  5  6  1  0
  5 60  1  0
  5 61  1  0
  6  7  1  0
  6 12  1  0
  6 62  1  6
  7  8  1  0
  8  9  2  0
  8 10  1  0
 10 11  1  0
 10 63  1  0
 10 64  1  0
 11 65  1  0
 12 13  1  6
 12 14  1  0
 12 17  1  0
 13 66  1  0
 13 67  1  0
 13 68  1  0
 14 15  1  0
 14 16  1  0
 14 69  1  6
 15 70  1  0
 15 71  1  0
 15 72  1  0
 16 73  1  0
 17 27  1  0
 17 18  1  0
 17 74  1  6
 18 23  1  0
 18 19  1  0
 18 75  1  1
 19 20  1  0
 20 32  1  0
 20 21  1  1
 20 22  1  0
 21 76  1  0
 22 23  1  0
 23 24  1  6
 23 25  1  0
 24 77  1  0
 25 26  1  0
 27 25  1  1
 25 78  1  6
 26 79  1  0
 27 28  1  0
 27 37  1  0
 29 28  1  6
 28 80  1  6
 29 30  2  0
 29 31  1  0
 31 48  1  0
 31 32  1  0
 31 81  1  1
 32 33  1  1
 32 34  1  0
 33 82  1  0
 33 83  1  0
 33 84  1  0
 34 85  1  0
 34 86  1  0
 34 35  1  0
 35 37  1  0
 35 36  2  0
 37 38  1  0
 37 87  1  6
 38 50  1  0
 38 39  1  6
 38 40  1  0
 39 88  1  0
 40 41  1  0
 40 45  1  0
 40 89  1  6
 41 42  1  0
 42 43  1  0
 42 44  2  0
 43 90  1  0
 43 91  1  0
 43 92  1  0
 45 46  1  0
 45 93  1  0
 45 94  1  0
 46 47  1  0
 46 48  1  0
 46 95  1  6
 47 96  1  0
 48 49  1  1
 48 50  1  0
 49 97  1  0
 49 98  1  0
 49 99  1  0
 50 51  1  1
 50 52  1  0
 51100  1  0
 52 53  1  0
 52101  1  0
 52102  1  0
 53103  1  0
M  END
>  <i_m_ct_stereo_status>  (2) 
1

>  <s_m_source_file>  (2) 
/var/tmp/pbs.5075288.sched01/tmphozr6t3_/0veliry26.sdf

>  <i_m_source_file_index>  (2) 
5

>  <i_lp_mmshare_version>  (2) 
48012

>  <i_f3d_flags>  (2) 
0

>  <s_epik_input>  (2) 
W09IXVtDSDJdQyg9TylPW0NAQEhdKFtDQEBdMShbQ0gzXSlbQ0BIXShbQ0gzXSlbT0hdKVtDSDJdW0NAXShbQ0gzXSkoT1tDSDNdKVtDQEBIXTJbUytdKFtPLV0pW0NASF0oW0NAXTMoW0NIM10pW0NAQF0oTzQpKFtPSF0pT1tDQF0oW09IXSkoW0NASF00W0NASF0xQzI1NilbQ0BIXTVbT0hdKVtDQF03KFtDSDNdKVtDQEhdKFtPSF0pW0NIMl1bQ0BIXShPQyg9TylbQ0gzXSlbQ0BdKFtPSF0pKFtDQEBIXTZDKD1bQ0hdXDMpXFtPSF0pW0NAQF03KFtPSF0pW0NIMl1bT0hd

>  <s_epik_cmdline>  (2) 
J2VwaWtfcHl0aG9uJywgJy1waHQnLCAnMi4wJywgJy1waCcsICc3LjAnLCAnLXRuJywgJzgnLCAnLW1hJywgJzIwMCcsICctaW1hZScsICc8aW5maWxlLm1hZT4nLCAnLW9tYWUnLCAnPG91dGZpbGUubWFlPic=

>  <r_lp_tautomer_probability>  (2) 
1

>  <r_epik_Ionization_Penalty>  (2) 
0.00139024

>  <r_epik_Ionization_Penalty_Charging>  (2) 
0

>  <r_epik_Ionization_Penalty_Neutral>  (2) 
0.00139024

>  <r_epik_State_Penalty>  (2) 
-0

>  <r_epik_Charging_Adjusted_Penalty>  (2) 
0

>  <i_epik_Tot_Q>  (2) 
0

>  <i_epik_Tot_abs_Q>  (2) 
0

>  <s_epik_Chemistry_Notes>  (2) 
This compound has an ester and may undergo hydrolysis at high or low pH.

>  <s_lp_Force_Field>  (2) 
OPLS3e

>  <r_lp_Energy>  (2) 
456.191

>  <b_lp_Chiralities_Consistent>  (2) 
1

>  <s_lp_Variant>  (2) 
2:0-1

>  <s_i_glide_gridfile>  (2) 
pfpi4k_grid

>  <i_i_glide_lignum>  (2) 
5

>  <i_i_glide_rotatable_bonds>  (2) 
17

>  <r_i_docking_score>  (2) 
-2.81704

>  <r_i_glide_ligand_efficiency>  (2) 
-0.0531516

>  <r_i_glide_ligand_efficiency_sa>  (2) 
-0.199653

>  <r_i_glide_ligand_efficiency_ln>  (2) 
-0.566775

>  <r_i_glide_gscore>  (2) 
-2.81704

>  <r_i_glide_lipo>  (2) 
-0.37718

>  <r_i_glide_hbond>  (2) 
0

>  <r_i_glide_metal>  (2) 
-0

>  <r_i_glide_rewards>  (2) 
-0.254002

>  <r_i_glide_evdw>  (2) 
9.4066

>  <r_i_glide_ecoul>  (2) 
-19.6602

>  <r_i_glide_erotb>  (2) 
0.015166

>  <r_i_glide_esite>  (2) 
-0.032122

>  <r_i_glide_emodel>  (2) 
-8.20164

>  <r_i_glide_energy>  (2) 
-10.2536

>  <r_i_glide_einternal>  (2) 
11.28

>  <r_i_glide_intrahb_reward>  (2) 
-0

>  <i_i_glide_confnum>  (2) 
7

>  <i_i_glide_posenum>  (2) 
19

>  <r_i_glide_eff_state_penalty>  (2) 
0

>  <ligand_id>  (2) 
2

>  <original_smiles>  (2) 
COC1(C)CC(OC(=O)CO)C(C)(C(C)O)C2C3OC4(O)OC3(O)C(O)C23C1[S+]([O-])C1C4(C)C=C(O)C3C2(O)C(OC(C)=O)CC(O)C1(C)C2(O)CO

>  <smiles>  (2) 
[H]OC([H])([H])C(=O)OC1([H])C([H])([H])C(OC([H])([H])[H])(C([H])([H])[H])C2([H])S(=O)C3([H])C4(C([H])([H])[H])C5(O[H])OC6([H])C(O[H])(O5)C([H])(O[H])C2(C([H])(C(=O)C4([H])[H])C2(O[H])C([H])(OC(=O)C([H])([H])[H])C([H])([H])C([H])(O[H])C3(C([H])([H])[H])C2(O[H])C([H])([H])O[H])C6([H])C1(C([H])([H])[H])C([H])(O[H])C([H])([H])[H]

$$$$
2:0:2
     RDKit          3D

103109  0  0  1  0  0  0  0  0999 V2000
   -2.0744    0.8265    6.3689 C   0  0  0  0  0  0  0  0  0  0  0  0
   -0.7805    0.2905    6.0794 O   0  0  0  0  0  0  0  0  0  0  0  0
   -0.5083   -0.3940    4.8478 C   0  0  1  0  0  0  0  0  0  0  0  0
   -1.6517   -1.4498    4.7147 C   0  0  0  0  0  0  0  0  0  0  0  0
   -0.8710    0.4551    3.6150 C   0  0  0  0  0  0  0  0  0  0  0  0
   -0.2113    1.8007    3.4716 C   0  0  1  0  0  0  0  0  0  0  0  0
   -0.5748    2.6274    4.5899 O   0  0  0  0  0  0  0  0  0  0  0  0
   -1.4148    3.6691    4.4540 C   0  0  0  0  0  0  0  0  0  0  0  0
   -1.4827    4.5293    5.3076 O   0  0  0  0  0  0  0  0  0  0  0  0
   -2.3075    3.6610    3.1861 C   0  0  0  0  0  0  0  0  0  0  0  0
   -2.8195    4.9430    2.8516 O   0  0  0  0  0  0  0  0  0  0  0  0
    1.3044    1.7362    3.3871 C   0  0  1  0  0  0  0  0  0  0  0  0
    1.6297    0.8933    2.1184 C   0  0  0  0  0  0  0  0  0  0  0  0
    1.7599    3.2330    3.0241 C   0  0  2  0  0  0  0  0  0  0  0  0
    3.2213    3.5117    2.9066 C   0  0  0  0  0  0  0  0  0  0  0  0
    1.3661    4.3251    3.8067 O   0  0  0  0  0  0  0  0  0  0  0  0
    1.9686    1.0274    4.6515 C   0  0  1  0  0  0  0  0  0  0  0  0
    1.8948    1.1514    6.2739 C   0  0  1  0  0  0  0  0  0  0  0  0
    1.5797   -0.0356    7.0566 O   0  0  0  0  0  0  0  0  0  0  0  0
    2.6777   -0.7050    7.6905 C   0  0  2  0  0  0  0  0  0  0  0  0
    2.2679   -0.8912    9.0224 O   0  0  0  0  0  0  0  0  0  0  0  0
    3.6438    0.2849    7.6738 O   0  0  0  0  0  0  0  0  0  0  0  0
    3.3504    1.1618    6.6160 C   0  0  2  0  0  0  0  0  0  0  0  0
    3.8549    2.4680    6.7708 O   0  0  0  0  0  0  0  0  0  0  0  0
    3.8179    0.4680    5.3931 C   0  0  1  0  0  0  0  0  0  0  0  0
    5.2488    0.5009    5.3936 O   0  0  0  0  0  0  0  0  0  0  0  0
    2.5439   -0.4550    4.6672 C   0  0  1  0  0  0  0  0  0  0  0  0
    0.9662   -1.1181    4.8690 C   0  0  1  0  0  0  0  0  0  0  0  0
    0.7278   -2.4271    6.2381 S   0  0  0  0  0  0  0  0  0  0  0  0
   -0.3799   -3.4612    6.0244 O   0  0  0  0  0  0  0  0  0  0  0  0
    2.3330   -3.2788    6.3651 C   0  0  2  0  0  0  0  0  0  0  0  0
    3.2961   -2.2125    7.0910 C   0  0  2  0  0  0  0  0  0  0  0  0
    3.8274   -2.9480    8.3660 C   0  0  0  0  0  0  0  0  0  0  0  0
    4.6083   -2.1184    6.2962 C   0  0  0  0  0  0  0  0  0  0  0  0
    4.5991   -2.0118    4.7687 C   0  0  0  0  0  0  0  0  0  0  0  0
    5.6971   -2.1013    4.2376 O   0  0  0  0  0  0  0  0  0  0  0  0
    3.4376   -1.5540    3.8642 C   0  0  1  0  0  0  0  0  0  0  0  0
    2.9486   -2.8967    3.0741 C   0  0  1  0  0  0  0  0  0  0  0  0
    2.2688   -2.3941    1.9551 O   0  0  0  0  0  0  0  0  0  0  0  0
    4.1582   -3.7544    2.5217 C   0  0  1  0  0  0  0  0  0  0  0  0
    5.1213   -3.0029    1.7723 O   0  0  0  0  0  0  0  0  0  0  0  0
    5.0780   -2.8509    0.4133 C   0  0  0  0  0  0  0  0  0  0  0  0
    3.9446   -3.5784   -0.3202 C   0  0  0  0  0  0  0  0  0  0  0  0
    5.8935   -2.1621   -0.2077 O   0  0  0  0  0  0  0  0  0  0  0  0
    4.8143   -4.7175    3.5871 C   0  0  0  0  0  0  0  0  0  0  0  0
    3.9945   -5.0771    4.8966 C   0  0  1  0  0  0  0  0  0  0  0  0
    4.8245   -5.1912    6.0303 O   0  0  0  0  0  0  0  0  0  0  0  0
    2.5559   -4.4283    5.1713 C   0  0  1  0  0  0  0  0  0  0  0  0
    1.7309   -5.6678    5.6881 C   0  0  0  0  0  0  0  0  0  0  0  0
    2.0422   -4.0594    3.7060 C   0  0  1  0  0  0  0  0  0  0  0  0
    0.6631   -3.8025    3.6539 O   0  0  0  0  0  0  0  0  0  0  0  0
    1.8653   -5.3736    2.7987 C   0  0  0  0  0  0  0  0  0  0  0  0
    1.7713   -5.2398    1.3885 O   0  0  0  0  0  0  0  0  0  0  0  0
   -1.9876    1.4051    7.2889 H   0  0  0  0  0  0  0  0  0  0  0  0
   -2.8233    0.0480    6.5044 H   0  0  0  0  0  0  0  0  0  0  0  0
   -2.4703    1.4988    5.6101 H   0  0  0  0  0  0  0  0  0  0  0  0
   -1.3550   -2.2112    4.0186 H   0  0  0  0  0  0  0  0  0  0  0  0
   -2.6085   -1.0560    4.3628 H   0  0  0  0  0  0  0  0  0  0  0  0
   -1.9398   -1.9290    5.6486 H   0  0  0  0  0  0  0  0  0  0  0  0
   -0.7373   -0.0981    2.7001 H   0  0  0  0  0  0  0  0  0  0  0  0
   -1.9195    0.7283    3.6006 H   0  0  0  0  0  0  0  0  0  0  0  0
   -0.5209    2.2199    2.5411 H   0  0  0  0  0  0  0  0  0  0  0  0
   -1.7965    3.3492    2.3028 H   0  0  0  0  0  0  0  0  0  0  0  0
   -3.1543    2.9806    3.3636 H   0  0  0  0  0  0  0  0  0  0  0  0
   -3.3242    4.8539    2.0593 H   0  0  0  0  0  0  0  0  0  0  0  0
    2.6863    0.8375    1.8726 H   0  0  0  0  0  0  0  0  0  0  0  0
    1.1093    1.2853    1.2432 H   0  0  0  0  0  0  0  0  0  0  0  0
    1.3064   -0.1356    2.2042 H   0  0  0  0  0  0  0  0  0  0  0  0
    1.3788    3.3720    2.0235 H   0  0  0  0  0  0  0  0  0  0  0  0
    3.4436    2.6034    2.3916 H   0  0  0  0  0  0  0  0  0  0  0  0
    3.7660    3.5910    3.8513 H   0  0  0  0  0  0  0  0  0  0  0  0
    3.4626    4.3782    2.2785 H   0  0  0  0  0  0  0  0  0  0  0  0
    1.0602    4.9838    3.1982 H   0  0  0  0  0  0  0  0  0  0  0  0
    2.5241    1.9537    4.6270 H   0  0  0  0  0  0  0  0  0  0  0  0
    1.3784    2.0424    6.6373 H   0  0  0  0  0  0  0  0  0  0  0  0
    2.0700   -0.0344    9.3604 H   0  0  0  0  0  0  0  0  0  0  0  0
    3.6504    2.9625    5.9890 H   0  0  0  0  0  0  0  0  0  0  0  0
    4.1824    1.1392    4.6019 H   0  0  0  0  0  0  0  0  0  0  0  0
    5.5498   -0.0567    6.0958 H   0  0  0  0  0  0  0  0  0  0  0  0
    0.8740   -1.5587    3.8915 H   0  0  0  0  0  0  0  0  0  0  0  0
    2.0538   -3.9060    7.2067 H   0  0  0  0  0  0  0  0  0  0  0  0
    4.3154   -3.8935    8.1389 H   0  0  0  0  0  0  0  0  0  0  0  0
    3.0355   -3.2092    9.0684 H   0  0  0  0  0  0  0  0  0  0  0  0
    4.5566   -2.3429    8.9042 H   0  0  0  0  0  0  0  0  0  0  0  0
    5.2408   -1.3697    6.7580 H   0  0  0  0  0  0  0  0  0  0  0  0
    5.2190   -2.9936    6.4750 H   0  0  0  0  0  0  0  0  0  0  0  0
    3.9414   -0.9443    3.1155 H   0  0  0  0  0  0  0  0  0  0  0  0
    2.8381   -1.7860    1.5009 H   0  0  0  0  0  0  0  0  0  0  0  0
    3.8204   -4.4549    1.7847 H   0  0  0  0  0  0  0  0  0  0  0  0
    4.0042   -4.6467   -0.1134 H   0  0  0  0  0  0  0  0  0  0  0  0
    4.0067   -3.4273   -1.3866 H   0  0  0  0  0  0  0  0  0  0  0  0
    2.9788   -3.2058    0.0084 H   0  0  0  0  0  0  0  0  0  0  0  0
    4.9985   -5.6495    3.0503 H   0  0  0  0  0  0  0  0  0  0  0  0
    5.8329   -4.4245    3.8441 H   0  0  0  0  0  0  0  0  0  0  0  0
    3.8343   -6.1440    4.7246 H   0  0  0  0  0  0  0  0  0  0  0  0
    5.5109   -5.8105    5.8291 H   0  0  0  0  0  0  0  0  0  0  0  0
    1.8275   -6.5627    5.0755 H   0  0  0  0  0  0  0  0  0  0  0  0
    0.6618   -5.4892    5.7427 H   0  0  0  0  0  0  0  0  0  0  0  0
    2.0625   -5.9778    6.6801 H   0  0  0  0  0  0  0  0  0  0  0  0
    0.4676   -3.0047    4.1143 H   0  0  0  0  0  0  0  0  0  0  0  0
    2.6711   -6.0851    2.9162 H   0  0  0  0  0  0  0  0  0  0  0  0
    0.9802   -5.9479    3.0784 H   0  0  0  0  0  0  0  0  0  0  0  0
    2.5519   -4.8185    1.0593 H   0  0  0  0  0  0  0  0  0  0  0  0
  1  2  1  0
  1 54  1  0
  1 55  1  0
  1 56  1  0
  3  2  1  1
  3 28  1  0
  3  4  1  0
  3  5  1  0
  4 57  1  0
  4 58  1  0
  4 59  1  0
  5  6  1  0
  5 60  1  0
  5 61  1  0
  6  7  1  0
  6 12  1  0
  6 62  1  6
  7  8  1  0
  8  9  2  0
  8 10  1  0
 10 11  1  0
 10 63  1  0
 10 64  1  0
 11 65  1  0
 12 13  1  6
 12 14  1  0
 12 17  1  0
 13 66  1  0
 13 67  1  0
 13 68  1  0
 14 15  1  0
 14 16  1  0
 14 69  1  6
 15 70  1  0
 15 71  1  0
 15 72  1  0
 16 73  1  0
 17 27  1  0
 17 18  1  0
 17 74  1  6
 18 23  1  0
 18 19  1  0
 18 75  1  6
 19 20  1  0
 20 32  1  0
 20 21  1  1
 20 22  1  0
 21 76  1  0
 22 23  1  0
 23 24  1  1
 23 25  1  0
 24 77  1  0
 25 26  1  0
 27 25  1  1
 25 78  1  6
 26 79  1  0
 27 28  1  0
 27 37  1  0
 29 28  1  6
 28 80  1  6
 29 30  2  0
 29 31  1  0
 31 48  1  0
 31 32  1  0
 31 81  1  1
 32 33  1  1
 32 34  1  0
 33 82  1  0
 33 83  1  0
 33 84  1  0
 34 85  1  0
 34 86  1  0
 34 35  1  0
 35 37  1  0
 35 36  2  0
 37 38  1  0
 37 87  1  6
 38 50  1  0
 38 39  1  6
 38 40  1  0
 39 88  1  0
 40 41  1  0
 40 45  1  0
 40 89  1  6
 41 42  1  0
 42 43  1  0
 42 44  2  0
 43 90  1  0
 43 91  1  0
 43 92  1  0
 45 46  1  0
 45 93  1  0
 45 94  1  0
 46 47  1  0
 46 48  1  0
 46 95  1  6
 47 96  1  0
 48 49  1  1
 48 50  1  0
 49 97  1  0
 49 98  1  0
 49 99  1  0
 50 51  1  1
 50 52  1  0
 51100  1  0
 52 53  1  0
 52101  1  0
 52102  1  0
 53103  1  0
M  END
>  <i_m_ct_stereo_status>  (3) 
1

>  <s_m_source_file>  (3) 
/var/tmp/pbs.5075288.sched01/tmphozr6t3_/0veliry26.sdf

>  <i_m_source_file_index>  (3) 
5

>  <i_lp_mmshare_version>  (3) 
48012

>  <i_f3d_flags>  (3) 
0

>  <s_epik_input>  (3) 
W09IXVtDSDJdQyg9TylPW0NAQEhdKFtDQEBdMShbQ0gzXSlbQ0BIXShbQ0gzXSlbT0hdKVtDSDJdW0NAXShbQ0gzXSkoT1tDSDNdKVtDQEBIXTJbUytdKFtPLV0pW0NASF0oW0NAXTMoW0NIM10pW0NAQF0oTzQpKFtPSF0pT1tDQF0oW09IXSkoW0NASF00W0NASF0xQzI1NilbQ0BIXTVbT0hdKVtDQF03KFtDSDNdKVtDQEhdKFtPSF0pW0NIMl1bQ0BIXShPQyg9TylbQ0gzXSlbQ0BdKFtPSF0pKFtDQEBIXTZDKD1bQ0hdXDMpXFtPSF0pW0NAQF03KFtPSF0pW0NIMl1bT0hd

>  <s_epik_cmdline>  (3) 
J2VwaWtfcHl0aG9uJywgJy1waHQnLCAnMi4wJywgJy1waCcsICc3LjAnLCAnLXRuJywgJzgnLCAnLW1hJywgJzIwMCcsICctaW1hZScsICc8aW5maWxlLm1hZT4nLCAnLW9tYWUnLCAnPG91dGZpbGUubWFlPic=

>  <r_lp_tautomer_probability>  (3) 
1

>  <r_epik_Ionization_Penalty>  (3) 
0.00139024

>  <r_epik_Ionization_Penalty_Charging>  (3) 
0

>  <r_epik_Ionization_Penalty_Neutral>  (3) 
0.00139024

>  <r_epik_State_Penalty>  (3) 
-0

>  <r_epik_Charging_Adjusted_Penalty>  (3) 
0

>  <i_epik_Tot_Q>  (3) 
0

>  <i_epik_Tot_abs_Q>  (3) 
0

>  <s_epik_Chemistry_Notes>  (3) 
This compound has an ester and may undergo hydrolysis at high or low pH.

>  <s_lp_Force_Field>  (3) 
OPLS3e

>  <r_lp_Energy>  (3) 
456.191

>  <b_lp_Chiralities_Consistent>  (3) 
1

>  <s_lp_Variant>  (3) 
2:0-1

>  <s_i_glide_gridfile>  (3) 
pfpi4k_grid

>  <i_i_glide_lignum>  (3) 
5

>  <i_i_glide_rotatable_bonds>  (3) 
17

>  <r_i_docking_score>  (3) 
-1.47947

>  <r_i_glide_ligand_efficiency>  (3) 
-0.0279146

>  <r_i_glide_ligand_efficiency_sa>  (3) 
-0.104855

>  <r_i_glide_ligand_efficiency_ln>  (3) 
-0.297663

>  <r_i_glide_gscore>  (3) 
-1.47947

>  <r_i_glide_lipo>  (3) 
-0.0251063

>  <r_i_glide_hbond>  (3) 
0

>  <r_i_glide_metal>  (3) 
-0

>  <r_i_glide_rewards>  (3) 
-0.0653363

>  <r_i_glide_evdw>  (3) 
-10.6888

>  <r_i_glide_ecoul>  (3) 
-10.5995

>  <r_i_glide_erotb>  (3) 
0.015166

>  <r_i_glide_esite>  (3) 
-0.0494746

>  <r_i_glide_emodel>  (3) 
-11.6281

>  <r_i_glide_energy>  (3) 
-21.2883

>  <r_i_glide_einternal>  (3) 
17.862

>  <r_i_glide_intrahb_reward>  (3) 
-0

>  <i_i_glide_confnum>  (3) 
10

>  <i_i_glide_posenum>  (3) 
32

>  <r_i_glide_eff_state_penalty>  (3) 
0

>  <ligand_id>  (3) 
2

>  <original_smiles>  (3) 
COC1(C)CC(OC(=O)CO)C(C)(C(C)O)C2C3OC4(O)OC3(O)C(O)C23C1[S+]([O-])C1C4(C)C=C(O)C3C2(O)C(OC(C)=O)CC(O)C1(C)C2(O)CO

>  <smiles>  (3) 
[H]OC([H])([H])C(=O)OC1([H])C([H])([H])C(OC([H])([H])[H])(C([H])([H])[H])C2([H])S(=O)C3([H])C4(C([H])([H])[H])C5(O[H])OC6([H])C(O[H])(O5)C([H])(O[H])C2(C([H])(C(=O)C4([H])[H])C2(O[H])C([H])(OC(=O)C([H])([H])[H])C([H])([H])C([H])(O[H])C3(C([H])([H])[H])C2(O[H])C([H])([H])O[H])C6([H])C1(C([H])([H])[H])C([H])(O[H])C([H])([H])[H]

$$$$
2:1:0
     RDKit          3D

103109  0  0  1  0  0  0  0  0999 V2000
    3.5090    0.5420    1.2700 C   0  0  0  0  0  0  0  0  0  0  0  0
    4.0875   -0.1375    2.3763 O   0  0  0  0  0  0  0  0  0  0  0  0
    3.2942   -1.0172    3.1964 C   0  0  1  0  0  0  0  0  0  0  0  0
    2.3496   -1.8387    2.2770 C   0  0  0  0  0  0  0  0  0  0  0  0
    4.4593   -1.8418    3.7396 C   0  0  0  0  0  0  0  0  0  0  0  0
    4.0439   -3.0416    4.5871 C   0  0  1  0  0  0  0  0  0  0  0  0
    5.1288   -3.9843    4.5831 O   0  0  0  0  0  0  0  0  0  0  0  0
    5.3534   -4.9413    3.6489 C   0  0  0  0  0  0  0  0  0  0  0  0
    6.3132   -5.7135    3.7231 O   0  0  0  0  0  0  0  0  0  0  0  0
    4.3385   -5.0266    2.4961 C   0  0  0  0  0  0  0  0  0  0  0  0
    4.7727   -5.8537    1.4343 O   0  0  0  0  0  0  0  0  0  0  0  0
    3.5829   -2.6304    6.0252 C   0  0  1  0  0  0  0  0  0  0  0  0
    3.3741   -4.0273    6.7378 C   0  0  0  0  0  0  0  0  0  0  0  0
    4.7569   -1.9613    6.8709 C   0  0  2  0  0  0  0  0  0  0  0  0
    6.0943   -2.7083    7.0332 C   0  0  0  0  0  0  0  0  0  0  0  0
    4.3492   -1.6579    8.1874 O   0  0  0  0  0  0  0  0  0  0  0  0
    2.1017   -1.8795    5.9456 C   0  0  1  0  0  0  0  0  0  0  0  0
    1.3361   -2.1150    7.1726 C   0  0  1  0  0  0  0  0  0  0  0  0
    1.8310   -1.0135    7.8880 O   0  0  0  0  0  0  0  0  0  0  0  0
    0.7614   -0.2493    8.1257 C   0  0  2  0  0  0  0  0  0  0  0  0
    0.4080   -0.4047    9.4651 O   0  0  0  0  0  0  0  0  0  0  0  0
   -0.3481   -0.7816    7.3948 O   0  0  0  0  0  0  0  0  0  0  0  0
   -0.0697   -1.9003    6.6537 C   0  0  2  0  0  0  0  0  0  0  0  0
   -0.9056   -3.0018    6.9721 O   0  0  0  0  0  0  0  0  0  0  0  0
    0.0005   -1.6077    5.0733 C   0  0  1  0  0  0  0  0  0  0  0  0
   -1.2595   -1.2953    4.5111 O   0  0  0  0  0  0  0  0  0  0  0  0
    1.2670   -0.6461    5.0297 C   0  0  2  0  0  0  0  0  0  0  0  0
    2.4532   -0.1832    4.2134 C   0  0  1  0  0  0  0  0  0  0  0  0
    3.3261    0.5735    5.7247 S   0  0  0  0  0  0  0  0  0  0  0  0
    4.7477    1.0587    5.4200 O   0  0  0  0  0  0  0  0  0  0  0  0
    2.2929    1.8386    6.6978 C   0  0  2  0  0  0  0  0  0  0  0  0
    1.1035    1.3238    7.7677 C   0  0  2  0  0  0  0  0  0  0  0  0
    1.4659    2.0024    9.1274 C   0  0  0  0  0  0  0  0  0  0  0  0
   -0.2782    1.8267    7.3511 C   0  0  0  0  0  0  0  0  0  0  0  0
   -0.6691    1.2979    5.9854 C   0  0  0  0  0  0  0  0  0  0  0  0
   -1.8539    1.0556    5.7731 O   0  0  0  0  0  0  0  0  0  0  0  0
    0.4257    0.9085    4.9670 C   0  0  1  0  0  0  0  0  0  0  0  0
    0.7451    2.2921    4.0956 C   0  0  1  0  0  0  0  0  0  0  0  0
    0.5751    1.9692    2.7082 O   0  0  0  0  0  0  0  0  0  0  0  0
   -0.3055    3.4453    4.1636 C   0  0  1  0  0  0  0  0  0  0  0  0
   -1.6403    3.0187    3.8635 O   0  0  0  0  0  0  0  0  0  0  0  0
   -2.4423    3.7958    3.1321 C   0  0  0  0  0  0  0  0  0  0  0  0
   -3.7555    3.1273    2.7720 C   0  0  0  0  0  0  0  0  0  0  0  0
   -2.2122    4.9481    2.8194 O   0  0  0  0  0  0  0  0  0  0  0  0
   -0.2281    4.3373    5.4418 C   0  0  0  0  0  0  0  0  0  0  0  0
    1.1485    4.3675    6.2107 C   0  0  1  0  0  0  0  0  0  0  0  0
    1.0031    4.7457    7.5634 O   0  0  0  0  0  0  0  0  0  0  0  0
    2.2526    3.2714    5.8961 C   0  0  1  0  0  0  0  0  0  0  0  0
    3.6158    3.9632    6.2310 C   0  0  0  0  0  0  0  0  0  0  0  0
    2.0819    3.1114    4.3452 C   0  0  1  0  0  0  0  0  0  0  0  0
    3.2204    2.5720    3.7549 O   0  0  0  0  0  0  0  0  0  0  0  0
    2.2626    4.4568    3.5069 C   0  0  0  0  0  0  0  0  0  0  0  0
    2.2474    4.2366    2.0995 O   0  0  0  0  0  0  0  0  0  0  0  0
    4.2321    1.2302    0.8565 H   0  0  0  0  0  0  0  0  0  0  0  0
    2.6445    1.1466    1.5313 H   0  0  0  0  0  0  0  0  0  0  0  0
    3.2220   -0.1300    0.4658 H   0  0  0  0  0  0  0  0  0  0  0  0
    1.7837   -2.5923    2.8209 H   0  0  0  0  0  0  0  0  0  0  0  0
    2.9128   -2.3297    1.4834 H   0  0  0  0  0  0  0  0  0  0  0  0
    1.5997   -1.2149    1.7936 H   0  0  0  0  0  0  0  0  0  0  0  0
    5.0181   -2.1704    2.8644 H   0  0  0  0  0  0  0  0  0  0  0  0
    5.2076   -1.2343    4.2557 H   0  0  0  0  0  0  0  0  0  0  0  0
    3.1967   -3.5556    4.1358 H   0  0  0  0  0  0  0  0  0  0  0  0
    3.3866   -5.3886    2.8767 H   0  0  0  0  0  0  0  0  0  0  0  0
    4.1684   -4.0506    2.0447 H   0  0  0  0  0  0  0  0  0  0  0  0
    4.1513   -5.7542    0.7165 H   0  0  0  0  0  0  0  0  0  0  0  0
    3.2396   -3.9360    7.8141 H   0  0  0  0  0  0  0  0  0  0  0  0
    4.2200   -4.7052    6.6559 H   0  0  0  0  0  0  0  0  0  0  0  0
    2.5198   -4.5836    6.3494 H   0  0  0  0  0  0  0  0  0  0  0  0
    5.1289   -1.0562    6.4171 H   0  0  0  0  0  0  0  0  0  0  0  0
    6.6224   -2.7924    6.0865 H   0  0  0  0  0  0  0  0  0  0  0  0
    5.9979   -3.6970    7.4763 H   0  0  0  0  0  0  0  0  0  0  0  0
    6.7587   -2.1272    7.6757 H   0  0  0  0  0  0  0  0  0  0  0  0
    3.5359   -1.1528    8.1447 H   0  0  0  0  0  0  0  0  0  0  0  0
    1.8345   -2.7509    5.3848 H   0  0  0  0  0  0  0  0  0  0  0  0
    1.3777   -3.0552    7.7256 H   0  0  0  0  0  0  0  0  0  0  0  0
    1.1205   -0.0684    9.9844 H   0  0  0  0  0  0  0  0  0  0  0  0
   -0.4278   -3.8086    6.8153 H   0  0  0  0  0  0  0  0  0  0  0  0
    0.1388   -2.5230    4.5311 H   0  0  0  0  0  0  0  0  0  0  0  0
   -1.5309   -0.4056    4.7464 H   0  0  0  0  0  0  0  0  0  0  0  0
    2.1272    0.5203    3.4990 H   0  0  0  0  0  0  0  0  0  0  0  0
    3.0822    2.0030    7.4280 H   0  0  0  0  0  0  0  0  0  0  0  0
    1.8636    2.9999    9.0161 H   0  0  0  0  0  0  0  0  0  0  0  0
    2.2468    1.4457    9.6540 H   0  0  0  0  0  0  0  0  0  0  0  0
    0.6039    2.0891    9.7885 H   0  0  0  0  0  0  0  0  0  0  0  0
   -1.0096    1.4516    8.0696 H   0  0  0  0  0  0  0  0  0  0  0  0
   -0.3942    2.8886    7.4541 H   0  0  0  0  0  0  0  0  0  0  0  0
   -0.2586    0.6191    4.1811 H   0  0  0  0  0  0  0  0  0  0  0  0
    0.6135    2.7593    2.1742 H   0  0  0  0  0  0  0  0  0  0  0  0
   -0.0574    4.1063    3.3279 H   0  0  0  0  0  0  0  0  0  0  0  0
   -3.5727    2.2020    2.2307 H   0  0  0  0  0  0  0  0  0  0  0  0
   -4.3821    3.7687    2.1498 H   0  0  0  0  0  0  0  0  0  0  0  0
   -4.2660    2.9323    3.7112 H   0  0  0  0  0  0  0  0  0  0  0  0
   -0.4487    5.3659    5.1353 H   0  0  0  0  0  0  0  0  0  0  0  0
   -1.0679    4.1162    6.0937 H   0  0  0  0  0  0  0  0  0  0  0  0
    1.5871    5.2984    5.8591 H   0  0  0  0  0  0  0  0  0  0  0  0
    0.5930    4.0318    8.0421 H   0  0  0  0  0  0  0  0  0  0  0  0
    3.7171    4.9554    5.8072 H   0  0  0  0  0  0  0  0  0  0  0  0
    4.4798    3.4005    5.8789 H   0  0  0  0  0  0  0  0  0  0  0  0
    3.7421    4.1024    7.3105 H   0  0  0  0  0  0  0  0  0  0  0  0
    3.2217    2.8806    2.8552 H   0  0  0  0  0  0  0  0  0  0  0  0
    1.5844    5.2763    3.7441 H   0  0  0  0  0  0  0  0  0  0  0  0
    3.2427    4.9010    3.7077 H   0  0  0  0  0  0  0  0  0  0  0  0
    1.3825    4.4440    1.7061 H   0  0  0  0  0  0  0  0  0  0  0  0
  1  2  1  0
  1 54  1  0
  1 55  1  0
  1 56  1  0
  3  2  1  6
  3 28  1  0
  3  4  1  0
  3  5  1  0
  4 57  1  0
  4 58  1  0
  4 59  1  0
  5  6  1  0
  5 60  1  0
  5 61  1  0
  6  7  1  0
  6 12  1  0
  6 62  1  6
  7  8  1  0
  8  9  2  0
  8 10  1  0
 10 11  1  0
 10 63  1  0
 10 64  1  0
 11 65  1  0
 12 13  1  1
 12 14  1  0
 12 17  1  0
 13 66  1  0
 13 67  1  0
 13 68  1  0
 14 15  1  0
 14 16  1  0
 14 69  1  6
 15 70  1  0
 15 71  1  0
 15 72  1  0
 16 73  1  0
 17 27  1  0
 17 18  1  0
 17 74  1  6
 18 23  1  0
 18 19  1  0
 18 75  1  1
 19 20  1  0
 20 32  1  0
 20 21  1  1
 20 22  1  0
 21 76  1  0
 22 23  1  0
 23 24  1  6
 23 25  1  0
 24 77  1  0
 25 26  1  0
 27 25  1  6
 25 78  1  6
 26 79  1  0
 27 28  1  0
 27 37  1  0
 29 28  1  6
 28 80  1  6
 29 30  2  0
 29 31  1  0
 31 48  1  0
 31 32  1  0
 31 81  1  1
 32 33  1  1
 32 34  1  0
 33 82  1  0
 33 83  1  0
 33 84  1  0
 34 85  1  0
 34 86  1  0
 34 35  1  0
 35 37  1  0
 35 36  2  0
 37 38  1  0
 37 87  1  6
 38 50  1  0
 38 39  1  6
 38 40  1  0
 39 88  1  0
 40 41  1  0
 40 45  1  0
 40 89  1  6
 41 42  1  0
 42 43  1  0
 42 44  2  0
 43 90  1  0
 43 91  1  0
 43 92  1  0
 45 46  1  0
 45 93  1  0
 45 94  1  0
 46 47  1  0
 46 48  1  0
 46 95  1  6
 47 96  1  0
 48 49  1  6
 48 50  1  0
 49 97  1  0
 49 98  1  0
 49 99  1  0
 50 51  1  6
 50 52  1  0
 51100  1  0
 52 53  1  0
 52101  1  0
 52102  1  0
 53103  1  0
M  END
>  <i_m_ct_stereo_status>  (4) 
1

>  <s_m_source_file>  (4) 
/var/tmp/pbs.5075288.sched01/tmphozr6t3_/0veliry26.sdf

>  <i_m_source_file_index>  (4) 
6

>  <i_lp_mmshare_version>  (4) 
48012

>  <i_f3d_flags>  (4) 
0

>  <s_epik_input>  (4) 
W09IXVtDSDJdQyg9TylPW0NAQEhdKFtDQEBdMShbQ0gzXSlbQ0BIXShbQ0gzXSlbT0hdKVtDSDJdW0NAXShbQ0gzXSkoT1tDSDNdKVtDQEBIXTJbUytdKFtPLV0pW0NASF0oW0NAXTMoW0NIM10pW0NAQF0oTzQpKFtPSF0pT1tDQF0oW09IXSkoW0NASF00W0NASF0xQzI1NilbQ0BIXTVbT0hdKVtDQF03KFtDSDNdKVtDQEhdKFtPSF0pW0NIMl1bQ0BIXShPQyg9TylbQ0gzXSlbQ0BdKFtPSF0pKFtDQEBIXTZDKD1bQ0hdXDMpXFtPSF0pW0NAQF03KFtPSF0pW0NIMl1bT0hd

>  <s_epik_cmdline>  (4) 
J2VwaWtfcHl0aG9uJywgJy1waHQnLCAnMi4wJywgJy1waCcsICc3LjAnLCAnLXRuJywgJzgnLCAnLW1hJywgJzIwMCcsICctaW1hZScsICc8aW5maWxlLm1hZT4nLCAnLW9tYWUnLCAnPG91dGZpbGUubWFlPic=

>  <r_lp_tautomer_probability>  (4) 
1

>  <r_epik_Ionization_Penalty>  (4) 
0.00139024

>  <r_epik_Ionization_Penalty_Charging>  (4) 
0

>  <r_epik_Ionization_Penalty_Neutral>  (4) 
0.00139024

>  <r_epik_State_Penalty>  (4) 
-0

>  <r_epik_Charging_Adjusted_Penalty>  (4) 
0

>  <i_epik_Tot_Q>  (4) 
0

>  <i_epik_Tot_abs_Q>  (4) 
0

>  <s_epik_Chemistry_Notes>  (4) 
This compound has an ester and may undergo hydrolysis at high or low pH.

>  <s_lp_Force_Field>  (4) 
OPLS3e

>  <r_lp_Energy>  (4) 
401.021

>  <b_lp_Chiralities_Consistent>  (4) 
1

>  <s_lp_Variant>  (4) 
2:0-2

>  <s_i_glide_gridfile>  (4) 
pfpi4k_grid

>  <i_i_glide_lignum>  (4) 
6

>  <i_i_glide_rotatable_bonds>  (4) 
17

>  <r_i_docking_score>  (4) 
-4.8156

>  <r_i_glide_ligand_efficiency>  (4) 
-0.0908603

>  <r_i_glide_ligand_efficiency_sa>  (4) 
-0.341297

>  <r_i_glide_ligand_efficiency_ln>  (4) 
-0.968876

>  <r_i_glide_gscore>  (4) 
-4.8156

>  <r_i_glide_lipo>  (4) 
-0.122254

>  <r_i_glide_hbond>  (4) 
-0.165841

>  <r_i_glide_metal>  (4) 
-0

>  <r_i_glide_rewards>  (4) 
-1.00506

>  <r_i_glide_evdw>  (4) 
-24.3592

>  <r_i_glide_ecoul>  (4) 
-14.4597

>  <r_i_glide_erotb>  (4) 
0.015166

>  <r_i_glide_esite>  (4) 
-0.150692

>  <r_i_glide_emodel>  (4) 
-56.7237

>  <r_i_glide_energy>  (4) 
-38.8189

>  <r_i_glide_einternal>  (4) 
11.938

>  <r_i_glide_intrahb_reward>  (4) 
-1

>  <i_i_glide_confnum>  (4) 
10

>  <i_i_glide_posenum>  (4) 
7

>  <r_i_glide_eff_state_penalty>  (4) 
0

>  <ligand_id>  (4) 
2

>  <original_smiles>  (4) 
COC1(C)CC(OC(=O)CO)C(C)(C(C)O)C2C3OC4(O)OC3(O)C(O)C23C1[S+]([O-])C1C4(C)C=C(O)C3C2(O)C(OC(C)=O)CC(O)C1(C)C2(O)CO

>  <smiles>  (4) 
[H]OC([H])([H])C(=O)OC1([H])C([H])([H])C(OC([H])([H])[H])(C([H])([H])[H])C2([H])S(=O)C3([H])C4(C([H])([H])[H])C5(O[H])OC6([H])C(O[H])(O5)C([H])(O[H])C2(C([H])(C(=O)C4([H])[H])C2(O[H])C([H])(OC(=O)C([H])([H])[H])C([H])([H])C([H])(O[H])C3(C([H])([H])[H])C2(O[H])C([H])([H])O[H])C6([H])C1(C([H])([H])[H])C([H])(O[H])C([H])([H])[H]

$$$$
2:1:1
     RDKit          3D

103109  0  0  1  0  0  0  0  0999 V2000
    3.7044    0.2978    1.2654 C   0  0  0  0  0  0  0  0  0  0  0  0
    4.2319   -0.2899    2.4520 O   0  0  0  0  0  0  0  0  0  0  0  0
    3.4290   -1.1794    3.2418 C   0  0  1  0  0  0  0  0  0  0  0  0
    2.4913   -2.0052    2.3177 C   0  0  0  0  0  0  0  0  0  0  0  0
    4.5825   -2.0227    3.7885 C   0  0  0  0  0  0  0  0  0  0  0  0
    4.1544   -3.1941    4.6635 C   0  0  1  0  0  0  0  0  0  0  0  0
    5.2470   -4.1270    4.6751 O   0  0  0  0  0  0  0  0  0  0  0  0
    5.4366   -5.1428    3.7861 C   0  0  0  0  0  0  0  0  0  0  0  0
    6.3961   -5.8993    3.8568 O   0  0  0  0  0  0  0  0  0  0  0  0
    4.3695   -5.2833    2.6849 C   0  0  0  0  0  0  0  0  0  0  0  0
    4.7259   -6.2215    1.6971 O   0  0  0  0  0  0  0  0  0  0  0  0
    3.6832   -2.7639    6.0916 C   0  0  1  0  0  0  0  0  0  0  0  0
    3.4706   -4.1571    6.8057 C   0  0  0  0  0  0  0  0  0  0  0  0
    4.8590   -2.0877    6.9331 C   0  0  2  0  0  0  0  0  0  0  0  0
    6.1969   -2.8406    7.1056 C   0  0  0  0  0  0  0  0  0  0  0  0
    4.4616   -1.7735    8.2470 O   0  0  0  0  0  0  0  0  0  0  0  0
    2.2041   -2.0128    5.9934 C   0  0  1  0  0  0  0  0  0  0  0  0
    1.4144   -2.2539    7.2036 C   0  0  1  0  0  0  0  0  0  0  0  0
    1.9165   -1.1522    7.9172 O   0  0  0  0  0  0  0  0  0  0  0  0
    0.8473   -0.3672    8.1359 C   0  0  2  0  0  0  0  0  0  0  0  0
    0.4854   -0.5202    9.4885 O   0  0  0  0  0  0  0  0  0  0  0  0
   -0.2595   -0.8859    7.4018 O   0  0  0  0  0  0  0  0  0  0  0  0
    0.0302   -2.0112    6.6680 C   0  0  2  0  0  0  0  0  0  0  0  0
   -0.8432   -3.0902    6.9320 O   0  0  0  0  0  0  0  0  0  0  0  0
    0.1326   -1.7404    5.0877 C   0  0  1  0  0  0  0  0  0  0  0  0
   -1.1230   -1.4480    4.5285 O   0  0  0  0  0  0  0  0  0  0  0  0
    1.3859   -0.7806    5.0508 C   0  0  2  0  0  0  0  0  0  0  0  0
    2.5831   -0.3392    4.2430 C   0  0  1  0  0  0  0  0  0  0  0  0
    3.4556    0.4380    5.7504 S   0  0  0  0  0  0  0  0  0  0  0  0
    4.8713    0.9206    5.4577 O   0  0  0  0  0  0  0  0  0  0  0  0
    2.4010    1.7038    6.7116 C   0  0  2  0  0  0  0  0  0  0  0  0
    1.2056    1.2015    7.7707 C   0  0  2  0  0  0  0  0  0  0  0  0
    1.5552    1.8878    9.1360 C   0  0  0  0  0  0  0  0  0  0  0  0
   -0.1740    1.7047    7.3508 C   0  0  0  0  0  0  0  0  0  0  0  0
   -0.5766    1.1849    5.9810 C   0  0  0  0  0  0  0  0  0  0  0  0
   -1.7808    1.0133    5.7711 O   0  0  0  0  0  0  0  0  0  0  0  0
    0.5316    0.7631    4.9677 C   0  0  1  0  0  0  0  0  0  0  0  0
    0.8800    2.1411    4.0833 C   0  0  1  0  0  0  0  0  0  0  0  0
    0.7353    1.8105    2.7030 O   0  0  0  0  0  0  0  0  0  0  0  0
   -0.1694    3.3168    4.1349 C   0  0  1  0  0  0  0  0  0  0  0  0
   -1.5027    2.9143    3.8252 O   0  0  0  0  0  0  0  0  0  0  0  0
   -2.3458    3.7415    3.1844 C   0  0  0  0  0  0  0  0  0  0  0  0
   -3.6537    3.0561    2.8322 C   0  0  0  0  0  0  0  0  0  0  0  0
   -2.1533    4.9274    2.9255 O   0  0  0  0  0  0  0  0  0  0  0  0
   -0.0945    4.2073    5.4206 C   0  0  0  0  0  0  0  0  0  0  0  0
    1.2763    4.2336    6.2024 C   0  0  1  0  0  0  0  0  0  0  0  0
    1.1164    4.6180    7.5502 O   0  0  0  0  0  0  0  0  0  0  0  0
    2.3789    3.1292    5.8906 C   0  0  1  0  0  0  0  0  0  0  0  0
    3.7364    3.8262    6.2402 C   0  0  0  0  0  0  0  0  0  0  0  0
    2.2282    2.9557    4.3294 C   0  0  1  0  0  0  0  0  0  0  0  0
    3.3675    2.4053    3.7431 O   0  0  0  0  0  0  0  0  0  0  0  0
    2.4078    4.3038    3.5105 C   0  0  0  0  0  0  0  0  0  0  0  0
    2.3482    4.0902    2.1115 O   0  0  0  0  0  0  0  0  0  0  0  0
    4.4431    0.9829    0.8694 H   0  0  0  0  0  0  0  0  0  0  0  0
    2.7878    0.8550    1.4386 H   0  0  0  0  0  0  0  0  0  0  0  0
    3.5326   -0.4395    0.4807 H   0  0  0  0  0  0  0  0  0  0  0  0
    1.9136   -2.7465    2.8610 H   0  0  0  0  0  0  0  0  0  0  0  0
    3.0588   -2.5177    1.5398 H   0  0  0  0  0  0  0  0  0  0  0  0
    1.7600   -1.3702    1.8141 H   0  0  0  0  0  0  0  0  0  0  0  0
    5.1107   -2.4123    2.9122 H   0  0  0  0  0  0  0  0  0  0  0  0
    5.3422   -1.4172    4.2836 H   0  0  0  0  0  0  0  0  0  0  0  0
    3.3107   -3.6989    4.2005 H   0  0  0  0  0  0  0  0  0  0  0  0
    3.4295   -5.5934    3.1404 H   0  0  0  0  0  0  0  0  0  0  0  0
    4.2172   -4.3299    2.1902 H   0  0  0  0  0  0  0  0  0  0  0  0
    4.0384   -6.2412    1.0401 H   0  0  0  0  0  0  0  0  0  0  0  0
    3.3261   -4.0596    7.8805 H   0  0  0  0  0  0  0  0  0  0  0  0
    4.3146   -4.8419    6.7342 H   0  0  0  0  0  0  0  0  0  0  0  0
    2.6189   -4.7134    6.4106 H   0  0  0  0  0  0  0  0  0  0  0  0
    5.2297   -1.1890    6.4775 H   0  0  0  0  0  0  0  0  0  0  0  0
    6.7306   -2.9294    6.1612 H   0  0  0  0  0  0  0  0  0  0  0  0
    6.0962   -3.8289    7.5492 H   0  0  0  0  0  0  0  0  0  0  0  0
    6.8590   -2.2629    7.7521 H   0  0  0  0  0  0  0  0  0  0  0  0
    3.7037   -1.1971    8.2039 H   0  0  0  0  0  0  0  0  0  0  0  0
    1.9455   -2.8997    5.4327 H   0  0  0  0  0  0  0  0  0  0  0  0
    1.4491   -3.1870    7.7652 H   0  0  0  0  0  0  0  0  0  0  0  0
    1.2171   -0.2001   10.0015 H   0  0  0  0  0  0  0  0  0  0  0  0
   -1.5167   -3.0506    6.2621 H   0  0  0  0  0  0  0  0  0  0  0  0
    0.2786   -2.6701    4.5380 H   0  0  0  0  0  0  0  0  0  0  0  0
   -0.9802   -1.1501    3.6358 H   0  0  0  0  0  0  0  0  0  0  0  0
    2.2781    0.3532    3.5153 H   0  0  0  0  0  0  0  0  0  0  0  0
    3.1878    1.8725    7.4457 H   0  0  0  0  0  0  0  0  0  0  0  0
    1.9569    2.8914    9.0199 H   0  0  0  0  0  0  0  0  0  0  0  0
    2.3245    1.3367    9.6697 H   0  0  0  0  0  0  0  0  0  0  0  0
    0.6866    1.9830    9.7863 H   0  0  0  0  0  0  0  0  0  0  0  0
   -0.9148    1.3386    8.0646 H   0  0  0  0  0  0  0  0  0  0  0  0
   -0.2856    2.7688    7.4408 H   0  0  0  0  0  0  0  0  0  0  0  0
   -0.1574    0.4783    4.1878 H   0  0  0  0  0  0  0  0  0  0  0  0
    0.6934    2.6018    2.1728 H   0  0  0  0  0  0  0  0  0  0  0  0
    0.0741    3.9718    3.3005 H   0  0  0  0  0  0  0  0  0  0  0  0
   -3.4618    2.1842    2.2042 H   0  0  0  0  0  0  0  0  0  0  0  0
   -4.3227    3.7264    2.2916 H   0  0  0  0  0  0  0  0  0  0  0  0
   -4.1355    2.7398    3.7530 H   0  0  0  0  0  0  0  0  0  0  0  0
   -0.3081    5.2322    5.1080 H   0  0  0  0  0  0  0  0  0  0  0  0
   -0.9438    3.9932    6.0653 H   0  0  0  0  0  0  0  0  0  0  0  0
    1.7130    5.1671    5.8545 H   0  0  0  0  0  0  0  0  0  0  0  0
    0.7086    3.9071    8.0290 H   0  0  0  0  0  0  0  0  0  0  0  0
    3.8429    4.8193    5.8061 H   0  0  0  0  0  0  0  0  0  0  0  0
    4.6031    3.2608    5.9028 H   0  0  0  0  0  0  0  0  0  0  0  0
    3.8498    3.9726    7.3174 H   0  0  0  0  0  0  0  0  0  0  0  0
    3.4297    2.7508    2.8573 H   0  0  0  0  0  0  0  0  0  0  0  0
    1.7342    5.1250    3.7448 H   0  0  0  0  0  0  0  0  0  0  0  0
    3.3895    4.7435    3.6889 H   0  0  0  0  0  0  0  0  0  0  0  0
    1.4845    4.2856    1.7401 H   0  0  0  0  0  0  0  0  0  0  0  0
  1  2  1  0
  1 54  1  0
  1 55  1  0
  1 56  1  0
  3  2  1  6
  3 28  1  0
  3  4  1  0
  3  5  1  0
  4 57  1  0
  4 58  1  0
  4 59  1  0
  5  6  1  0
  5 60  1  0
  5 61  1  0
  6  7  1  0
  6 12  1  0
  6 62  1  6
  7  8  1  0
  8  9  2  0
  8 10  1  0
 10 11  1  0
 10 63  1  0
 10 64  1  0
 11 65  1  0
 12 13  1  1
 12 14  1  0
 12 17  1  0
 13 66  1  0
 13 67  1  0
 13 68  1  0
 14 15  1  0
 14 16  1  0
 14 69  1  6
 15 70  1  0
 15 71  1  0
 15 72  1  0
 16 73  1  0
 17 27  1  0
 17 18  1  0
 17 74  1  6
 18 23  1  0
 18 19  1  0
 18 75  1  1
 19 20  1  0
 20 32  1  0
 20 21  1  1
 20 22  1  0
 21 76  1  0
 22 23  1  0
 23 24  1  6
 23 25  1  0
 24 77  1  0
 25 26  1  0
 27 25  1  6
 25 78  1  6
 26 79  1  0
 27 28  1  0
 27 37  1  0
 29 28  1  6
 28 80  1  6
 29 30  2  0
 29 31  1  0
 31 48  1  0
 31 32  1  0
 31 81  1  1
 32 33  1  1
 32 34  1  0
 33 82  1  0
 33 83  1  0
 33 84  1  0
 34 85  1  0
 34 86  1  0
 34 35  1  0
 35 37  1  0
 35 36  2  0
 37 38  1  0
 37 87  1  6
 38 50  1  0
 38 39  1  6
 38 40  1  0
 39 88  1  0
 40 41  1  0
 40 45  1  0
 40 89  1  6
 41 42  1  0
 42 43  1  0
 42 44  2  0
 43 90  1  0
 43 91  1  0
 43 92  1  0
 45 46  1  0
 45 93  1  0
 45 94  1  0
 46 47  1  0
 46 48  1  0
 46 95  1  6
 47 96  1  0
 48 49  1  6
 48 50  1  0
 49 97  1  0
 49 98  1  0
 49 99  1  0
 50 51  1  6
 50 52  1  0
 51100  1  0
 52 53  1  0
 52101  1  0
 52102  1  0
 53103  1  0
M  END
>  <i_m_ct_stereo_status>  (5) 
1

>  <s_m_source_file>  (5) 
/var/tmp/pbs.5075288.sched01/tmphozr6t3_/0veliry26.sdf

>  <i_m_source_file_index>  (5) 
6

>  <i_lp_mmshare_version>  (5) 
48012

>  <i_f3d_flags>  (5) 
0

>  <s_epik_input>  (5) 
W09IXVtDSDJdQyg9TylPW0NAQEhdKFtDQEBdMShbQ0gzXSlbQ0BIXShbQ0gzXSlbT0hdKVtDSDJdW0NAXShbQ0gzXSkoT1tDSDNdKVtDQEBIXTJbUytdKFtPLV0pW0NASF0oW0NAXTMoW0NIM10pW0NAQF0oTzQpKFtPSF0pT1tDQF0oW09IXSkoW0NASF00W0NASF0xQzI1NilbQ0BIXTVbT0hdKVtDQF03KFtDSDNdKVtDQEhdKFtPSF0pW0NIMl1bQ0BIXShPQyg9TylbQ0gzXSlbQ0BdKFtPSF0pKFtDQEBIXTZDKD1bQ0hdXDMpXFtPSF0pW0NAQF03KFtPSF0pW0NIMl1bT0hd

>  <s_epik_cmdline>  (5) 
J2VwaWtfcHl0aG9uJywgJy1waHQnLCAnMi4wJywgJy1waCcsICc3LjAnLCAnLXRuJywgJzgnLCAnLW1hJywgJzIwMCcsICctaW1hZScsICc8aW5maWxlLm1hZT4nLCAnLW9tYWUnLCAnPG91dGZpbGUubWFlPic=

>  <r_lp_tautomer_probability>  (5) 
1

>  <r_epik_Ionization_Penalty>  (5) 
0.00139024

>  <r_epik_Ionization_Penalty_Charging>  (5) 
0

>  <r_epik_Ionization_Penalty_Neutral>  (5) 
0.00139024

>  <r_epik_State_Penalty>  (5) 
-0

>  <r_epik_Charging_Adjusted_Penalty>  (5) 
0

>  <i_epik_Tot_Q>  (5) 
0

>  <i_epik_Tot_abs_Q>  (5) 
0

>  <s_epik_Chemistry_Notes>  (5) 
This compound has an ester and may undergo hydrolysis at high or low pH.

>  <s_lp_Force_Field>  (5) 
OPLS3e

>  <r_lp_Energy>  (5) 
401.021

>  <b_lp_Chiralities_Consistent>  (5) 
1

>  <s_lp_Variant>  (5) 
2:0-2

>  <s_i_glide_gridfile>  (5) 
pfpi4k_grid

>  <i_i_glide_lignum>  (5) 
6

>  <i_i_glide_rotatable_bonds>  (5) 
17

>  <r_i_docking_score>  (5) 
-4.49234

>  <r_i_glide_ligand_efficiency>  (5) 
-0.0847611

>  <r_i_glide_ligand_efficiency_sa>  (5) 
-0.318387

>  <r_i_glide_ligand_efficiency_ln>  (5) 
-0.903838

>  <r_i_glide_gscore>  (5) 
-4.49234

>  <r_i_glide_lipo>  (5) 
-0.081771

>  <r_i_glide_hbond>  (5) 
-0.16657

>  <r_i_glide_metal>  (5) 
-0

>  <r_i_glide_rewards>  (5) 
-0.5031

>  <r_i_glide_evdw>  (5) 
-25.9722

>  <r_i_glide_ecoul>  (5) 
-15.4274

>  <r_i_glide_erotb>  (5) 
0.015166

>  <r_i_glide_esite>  (5) 
-0.143345

>  <r_i_glide_emodel>  (5) 
-53.4172

>  <r_i_glide_energy>  (5) 
-41.3996

>  <r_i_glide_einternal>  (5) 
11.0473

>  <r_i_glide_intrahb_reward>  (5) 
-0.5

>  <i_i_glide_confnum>  (5) 
6

>  <i_i_glide_posenum>  (5) 
12

>  <r_i_glide_eff_state_penalty>  (5) 
0

>  <ligand_id>  (5) 
2

>  <original_smiles>  (5) 
COC1(C)CC(OC(=O)CO)C(C)(C(C)O)C2C3OC4(O)OC3(O)C(O)C23C1[S+]([O-])C1C4(C)C=C(O)C3C2(O)C(OC(C)=O)CC(O)C1(C)C2(O)CO

>  <smiles>  (5) 
[H]OC([H])([H])C(=O)OC1([H])C([H])([H])C(OC([H])([H])[H])(C([H])([H])[H])C2([H])S(=O)C3([H])C4(C([H])([H])[H])C5(O[H])OC6([H])C(O[H])(O5)C([H])(O[H])C2(C([H])(C(=O)C4([H])[H])C2(O[H])C([H])(OC(=O)C([H])([H])[H])C([H])([H])C([H])(O[H])C3(C([H])([H])[H])C2(O[H])C([H])([H])O[H])C6([H])C1(C([H])([H])[H])C([H])(O[H])C([H])([H])[H]

$$$$
2:1:2
     RDKit          3D

103109  0  0  1  0  0  0  0  0999 V2000
    3.0865    0.4849    1.5621 C   0  0  0  0  0  0  0  0  0  0  0  0
    3.6902   -0.5388    2.3561 O   0  0  0  0  0  0  0  0  0  0  0  0
    2.8979   -1.4921    3.0872 C   0  0  1  0  0  0  0  0  0  0  0  0
    1.7048   -1.9364    2.2050 C   0  0  0  0  0  0  0  0  0  0  0  0
    3.9434   -2.5987    3.2177 C   0  0  0  0  0  0  0  0  0  0  0  0
    3.4547   -3.8631    3.9077 C   0  0  1  0  0  0  0  0  0  0  0  0
    4.3430   -4.9203    3.5262 O   0  0  0  0  0  0  0  0  0  0  0  0
    4.1715   -5.7139    2.4473 C   0  0  0  0  0  0  0  0  0  0  0  0
    4.9234   -6.6584    2.1849 O   0  0  0  0  0  0  0  0  0  0  0  0
    3.0193   -5.3716    1.5026 C   0  0  0  0  0  0  0  0  0  0  0  0
    2.5359   -6.5229    0.8408 O   0  0  0  0  0  0  0  0  0  0  0  0
    3.2859   -3.7193    5.4619 C   0  0  1  0  0  0  0  0  0  0  0  0
    2.9446   -5.1986    5.9036 C   0  0  0  0  0  0  0  0  0  0  0  0
    4.6809   -3.4272    6.1913 C   0  0  2  0  0  0  0  0  0  0  0  0
    5.8791   -4.3687    5.9314 C   0  0  0  0  0  0  0  0  0  0  0  0
    4.5427   -3.3910    7.5956 O   0  0  0  0  0  0  0  0  0  0  0  0
    1.9596   -2.7694    5.8016 C   0  0  1  0  0  0  0  0  0  0  0  0
    1.3321   -3.1644    7.0623 C   0  0  1  0  0  0  0  0  0  0  0  0
    2.1170   -2.3346    7.8737 O   0  0  0  0  0  0  0  0  0  0  0  0
    1.2622   -1.4944    8.4537 C   0  0  2  0  0  0  0  0  0  0  0  0
    1.1187   -1.9035    9.7873 O   0  0  0  0  0  0  0  0  0  0  0  0
   -0.0275   -1.6841    7.8785 O   0  0  0  0  0  0  0  0  0  0  0  0
   -0.0499   -2.6179    6.8573 C   0  0  2  0  0  0  0  0  0  0  0  0
   -1.0286   -3.6152    7.0605 O   0  0  0  0  0  0  0  0  0  0  0  0
   -0.1459   -2.0100    5.3632 C   0  0  1  0  0  0  0  0  0  0  0  0
   -1.3995   -1.4242    5.0933 O   0  0  0  0  0  0  0  0  0  0  0  0
    1.2432   -1.2523    5.2991 C   0  0  2  0  0  0  0  0  0  0  0  0
    2.3799   -0.8105    4.3948 C   0  0  1  0  0  0  0  0  0  0  0  0
    3.5911   -0.5420    5.8402 S   0  0  0  0  0  0  0  0  0  0  0  0
    5.0054   -0.1886    5.3680 O   0  0  0  0  0  0  0  0  0  0  0  0
    2.9323    0.6097    7.2081 C   0  0  2  0  0  0  0  0  0  0  0  0
    1.8356    0.0498    8.3528 C   0  0  2  0  0  0  0  0  0  0  0  0
    2.5122    0.3500    9.7293 C   0  0  0  0  0  0  0  0  0  0  0  0
    0.5249    0.8292    8.3013 C   0  0  0  0  0  0  0  0  0  0  0  0
   -0.1703    0.6880    6.9569 C   0  0  0  0  0  0  0  0  0  0  0  0
   -1.4011    0.7321    6.9325 O   0  0  0  0  0  0  0  0  0  0  0  0
    0.6832    0.3815    5.6915 C   0  0  1  0  0  0  0  0  0  0  0  0
    1.1505    1.8631    5.0607 C   0  0  1  0  0  0  0  0  0  0  0  0
    0.7779    1.8988    3.6821 O   0  0  0  0  0  0  0  0  0  0  0  0
    0.3384    3.1271    5.5442 C   0  0  1  0  0  0  0  0  0  0  0  0
   -1.0810    2.9781    5.4021 O   0  0  0  0  0  0  0  0  0  0  0  0
   -1.7689    3.5913    4.4163 C   0  0  0  0  0  0  0  0  0  0  0  0
   -3.1208    2.9445    4.1577 C   0  0  0  0  0  0  0  0  0  0  0  0
   -1.3923    4.5646    3.7645 O   0  0  0  0  0  0  0  0  0  0  0  0
    0.7570    3.6745    6.9438 C   0  0  0  0  0  0  0  0  0  0  0  0
    2.2185    3.3333    7.4373 C   0  0  1  0  0  0  0  0  0  0  0  0
    2.3297    3.3783    8.8431 O   0  0  0  0  0  0  0  0  0  0  0  0
    3.0506    2.1805    6.7190 C   0  0  1  0  0  0  0  0  0  0  0  0
    4.5469    2.5854    6.9345 C   0  0  0  0  0  0  0  0  0  0  0  0
    2.6537    2.3897    5.2098 C   0  0  1  0  0  0  0  0  0  0  0  0
    3.5897    1.8323    4.3248 O   0  0  0  0  0  0  0  0  0  0  0  0
    2.9436    3.8498    4.6403 C   0  0  0  0  0  0  0  0  0  0  0  0
    2.5141    4.0204    3.2918 O   0  0  0  0  0  0  0  0  0  0  0  0
    3.8669    1.1317    1.1646 H   0  0  0  0  0  0  0  0  0  0  0  0
    2.4319    1.1258    2.1366 H   0  0  0  0  0  0  0  0  0  0  0  0
    2.5262    0.0871    0.7193 H   0  0  0  0  0  0  0  0  0  0  0  0
    1.0931   -2.6970    2.6871 H   0  0  0  0  0  0  0  0  0  0  0  0
    2.0518   -2.3329    1.2497 H   0  0  0  0  0  0  0  0  0  0  0  0
    1.0272   -1.1080    1.9854 H   0  0  0  0  0  0  0  0  0  0  0  0
    4.2202   -2.8625    2.2010 H   0  0  0  0  0  0  0  0  0  0  0  0
    4.8795   -2.2337    3.6494 H   0  0  0  0  0  0  0  0  0  0  0  0
    2.4862   -4.1373    3.5233 H   0  0  0  0  0  0  0  0  0  0  0  0
    2.1732   -4.9312    1.9919 H   0  0  0  0  0  0  0  0  0  0  0  0
    3.3842   -4.6748    0.7522 H   0  0  0  0  0  0  0  0  0  0  0  0
    3.2167   -6.8659    0.2871 H   0  0  0  0  0  0  0  0  0  0  0  0
    2.9804   -5.3413    6.9817 H   0  0  0  0  0  0  0  0  0  0  0  0
    3.6316   -5.9576    5.5298 H   0  0  0  0  0  0  0  0  0  0  0  0
    1.9591   -5.5166    5.5611 H   0  0  0  0  0  0  0  0  0  0  0  0
    5.1242   -2.4971    5.8847 H   0  0  0  0  0  0  0  0  0  0  0  0
    6.2208   -4.2911    4.9005 H   0  0  0  0  0  0  0  0  0  0  0  0
    5.6817   -5.4169    6.1544 H   0  0  0  0  0  0  0  0  0  0  0  0
    6.7347   -4.0630    6.5391 H   0  0  0  0  0  0  0  0  0  0  0  0
    3.8633   -2.7664    7.8182 H   0  0  0  0  0  0  0  0  0  0  0  0
    1.4766   -3.4633    5.1311 H   0  0  0  0  0  0  0  0  0  0  0  0
    1.3023   -4.2051    7.3958 H   0  0  0  0  0  0  0  0  0  0  0  0
    1.9454   -1.7516   10.2112 H   0  0  0  0  0  0  0  0  0  0  0  0
   -0.6825   -4.2921    7.6272 H   0  0  0  0  0  0  0  0  0  0  0  0
   -0.2450   -2.8082    4.6277 H   0  0  0  0  0  0  0  0  0  0  0  0
   -2.0637   -2.0745    5.2496 H   0  0  0  0  0  0  0  0  0  0  0  0
    2.0903    0.0761    3.9068 H   0  0  0  0  0  0  0  0  0  0  0  0
    3.8386    0.4967    7.7974 H   0  0  0  0  0  0  0  0  0  0  0  0
    3.0560    1.2875    9.7429 H   0  0  0  0  0  0  0  0  0  0  0  0
    3.2507   -0.4103    9.9850 H   0  0  0  0  0  0  0  0  0  0  0  0
    1.7869    0.4128   10.5395 H   0  0  0  0  0  0  0  0  0  0  0  0
   -0.1497    0.4267    9.0561 H   0  0  0  0  0  0  0  0  0  0  0  0
    0.6379    1.8473    8.6230 H   0  0  0  0  0  0  0  0  0  0  0  0
   -0.1533    0.3760    5.0059 H   0  0  0  0  0  0  0  0  0  0  0  0
    1.0053    2.7551    3.3316 H   0  0  0  0  0  0  0  0  0  0  0  0
    0.5825    3.9411    4.8657 H   0  0  0  0  0  0  0  0  0  0  0  0
   -2.9799    1.8869    3.9359 H   0  0  0  0  0  0  0  0  0  0  0  0
   -3.6075    3.4068    3.2976 H   0  0  0  0  0  0  0  0  0  0  0  0
   -3.7713    3.0432    5.0279 H   0  0  0  0  0  0  0  0  0  0  0  0
    0.6790    4.7653    6.8849 H   0  0  0  0  0  0  0  0  0  0  0  0
   -0.0097    3.4343    7.6755 H   0  0  0  0  0  0  0  0  0  0  0  0
    2.7595    4.2569    7.2216 H   0  0  0  0  0  0  0  0  0  0  0  0
    1.9623    4.1937    9.1508 H   0  0  0  0  0  0  0  0  0  0  0  0
    4.7583    3.6247    6.6901 H   0  0  0  0  0  0  0  0  0  0  0  0
    5.2360    1.9929    6.3347 H   0  0  0  0  0  0  0  0  0  0  0  0
    4.8464    2.4604    7.9775 H   0  0  0  0  0  0  0  0  0  0  0  0
    3.3322    2.0672    3.4489 H   0  0  0  0  0  0  0  0  0  0  0  0
    2.4841    4.6668    5.1891 H   0  0  0  0  0  0  0  0  0  0  0  0
    4.0052    4.1060    4.6806 H   0  0  0  0  0  0  0  0  0  0  0  0
    3.1989    3.7351    2.7010 H   0  0  0  0  0  0  0  0  0  0  0  0
  1  2  1  0
  1 54  1  0
  1 55  1  0
  1 56  1  0
  3  2  1  6
  3 28  1  0
  3  4  1  0
  3  5  1  0
  4 57  1  0
  4 58  1  0
  4 59  1  0
  5  6  1  0
  5 60  1  0
  5 61  1  0
  6  7  1  0
  6 12  1  0
  6 62  1  6
  7  8  1  0
  8  9  2  0
  8 10  1  0
 10 11  1  0
 10 63  1  0
 10 64  1  0
 11 65  1  0
 12 13  1  1
 12 14  1  0
 12 17  1  0
 13 66  1  0
 13 67  1  0
 13 68  1  0
 14 15  1  0
 14 16  1  0
 14 69  1  6
 15 70  1  0
 15 71  1  0
 15 72  1  0
 16 73  1  0
 17 27  1  0
 17 18  1  0
 17 74  1  6
 18 23  1  0
 18 19  1  0
 18 75  1  1
 19 20  1  0
 20 32  1  0
 20 21  1  1
 20 22  1  0
 21 76  1  0
 22 23  1  0
 23 24  1  1
 23 25  1  0
 24 77  1  0
 25 26  1  0
 27 25  1  6
 25 78  1  6
 26 79  1  0
 27 28  1  0
 27 37  1  0
 29 28  1  6
 28 80  1  6
 29 30  2  0
 29 31  1  0
 31 48  1  0
 31 32  1  0
 31 81  1  1
 32 33  1  1
 32 34  1  0
 33 82  1  0
 33 83  1  0
 33 84  1  0
 34 85  1  0
 34 86  1  0
 34 35  1  0
 35 37  1  0
 35 36  2  0
 37 38  1  0
 37 87  1  6
 38 50  1  0
 38 39  1  6
 38 40  1  0
 39 88  1  0
 40 41  1  0
 40 45  1  0
 40 89  1  6
 41 42  1  0
 42 43  1  0
 42 44  2  0
 43 90  1  0
 43 91  1  0
 43 92  1  0
 45 46  1  0
 45 93  1  0
 45 94  1  0
 46 47  1  0
 46 48  1  0
 46 95  1  6
 47 96  1  0
 48 49  1  6
 48 50  1  0
 49 97  1  0
 49 98  1  0
 49 99  1  0
 50 51  1  6
 50 52  1  0
 51100  1  0
 52 53  1  0
 52101  1  0
 52102  1  0
 53103  1  0
M  END
>  <i_m_ct_stereo_status>  (6) 
1

>  <s_m_source_file>  (6) 
/var/tmp/pbs.5075288.sched01/tmphozr6t3_/0veliry26.sdf

>  <i_m_source_file_index>  (6) 
6

>  <i_lp_mmshare_version>  (6) 
48012

>  <i_f3d_flags>  (6) 
0

>  <s_epik_input>  (6) 
W09IXVtDSDJdQyg9TylPW0NAQEhdKFtDQEBdMShbQ0gzXSlbQ0BIXShbQ0gzXSlbT0hdKVtDSDJdW0NAXShbQ0gzXSkoT1tDSDNdKVtDQEBIXTJbUytdKFtPLV0pW0NASF0oW0NAXTMoW0NIM10pW0NAQF0oTzQpKFtPSF0pT1tDQF0oW09IXSkoW0NASF00W0NASF0xQzI1NilbQ0BIXTVbT0hdKVtDQF03KFtDSDNdKVtDQEhdKFtPSF0pW0NIMl1bQ0BIXShPQyg9TylbQ0gzXSlbQ0BdKFtPSF0pKFtDQEBIXTZDKD1bQ0hdXDMpXFtPSF0pW0NAQF03KFtPSF0pW0NIMl1bT0hd

>  <s_epik_cmdline>  (6) 
J2VwaWtfcHl0aG9uJywgJy1waHQnLCAnMi4wJywgJy1waCcsICc3LjAnLCAnLXRuJywgJzgnLCAnLW1hJywgJzIwMCcsICctaW1hZScsICc8aW5maWxlLm1hZT4nLCAnLW9tYWUnLCAnPG91dGZpbGUubWFlPic=

>  <r_lp_tautomer_probability>  (6) 
1

>  <r_epik_Ionization_Penalty>  (6) 
0.00139024

>  <r_epik_Ionization_Penalty_Charging>  (6) 
0

>  <r_epik_Ionization_Penalty_Neutral>  (6) 
0.00139024

>  <r_epik_State_Penalty>  (6) 
-0

>  <r_epik_Charging_Adjusted_Penalty>  (6) 
0

>  <i_epik_Tot_Q>  (6) 
0

>  <i_epik_Tot_abs_Q>  (6) 
0

>  <s_epik_Chemistry_Notes>  (6) 
This compound has an ester and may undergo hydrolysis at high or low pH.

>  <s_lp_Force_Field>  (6) 
OPLS3e

>  <r_lp_Energy>  (6) 
401.021

>  <b_lp_Chiralities_Consistent>  (6) 
1

>  <s_lp_Variant>  (6) 
2:0-2

>  <s_i_glide_gridfile>  (6) 
pfpi4k_grid

>  <i_i_glide_lignum>  (6) 
6

>  <i_i_glide_rotatable_bonds>  (6) 
17

>  <r_i_docking_score>  (6) 
-4.28625

>  <r_i_glide_ligand_efficiency>  (6) 
-0.0808726

>  <r_i_glide_ligand_efficiency_sa>  (6) 
-0.30378

>  <r_i_glide_ligand_efficiency_ln>  (6) 
-0.862373

>  <r_i_glide_gscore>  (6) 
-4.28625

>  <r_i_glide_lipo>  (6) 
-0.141316

>  <r_i_glide_hbond>  (6) 
-0.329057

>  <r_i_glide_metal>  (6) 
-0

>  <r_i_glide_rewards>  (6) 
-1

>  <r_i_glide_evdw>  (6) 
-28.2509

>  <r_i_glide_ecoul>  (6) 
-8.6901

>  <r_i_glide_erotb>  (6) 
0.015166

>  <r_i_glide_esite>  (6) 
-0.114979

>  <r_i_glide_emodel>  (6) 
-51.6199

>  <r_i_glide_energy>  (6) 
-36.941

>  <r_i_glide_einternal>  (6) 
14.2492

>  <r_i_glide_intrahb_reward>  (6) 
-1

>  <i_i_glide_confnum>  (6) 
6

>  <i_i_glide_posenum>  (6) 
25

>  <r_i_glide_eff_state_penalty>  (6) 
0

>  <ligand_id>  (6) 
2

>  <original_smiles>  (6) 
COC1(C)CC(OC(=O)CO)C(C)(C(C)O)C2C3OC4(O)OC3(O)C(O)C23C1[S+]([O-])C1C4(C)C=C(O)C3C2(O)C(OC(C)=O)CC(O)C1(C)C2(O)CO

>  <smiles>  (6) 
[H]OC([H])([H])C(=O)OC1([H])C([H])([H])C(OC([H])([H])[H])(C([H])([H])[H])C2([H])S(=O)C3([H])C4(C([H])([H])[H])C5(O[H])OC6([H])C(O[H])(O5)C([H])(O[H])C2(C([H])(C(=O)C4([H])[H])C2(O[H])C([H])(OC(=O)C([H])([H])[H])C([H])([H])C([H])(O[H])C3(C([H])([H])[H])C2(O[H])C([H])([H])O[H])C6([H])C1(C([H])([H])[H])C([H])(O[H])C([H])([H])[H]

$$$$
5:9:0
     RDKit          3D

122133  0  0  1  0  0  0  0  0999 V2000
    2.1166   -4.2666   -0.9065 C   0  0  0  0  0  0  0  0  0  0  0  0
    2.2687   -5.0496    0.3003 O   0  0  0  0  0  0  0  0  0  0  0  0
    3.2772   -4.7793    1.3171 C   0  0  1  0  0  0  0  0  0  0  0  0
    4.6914   -5.1282    0.7774 C   0  0  0  0  0  0  0  0  0  0  0  0
    3.1034   -3.2836    1.5248 C   0  0  0  0  0  0  0  0  0  0  0  0
    3.8799   -2.6843    2.6528 C   0  0  1  0  0  0  0  0  0  0  0  0
    3.6721   -1.2773    2.5136 O   0  0  0  0  0  0  0  0  0  0  0  0
    4.3764   -0.5533    1.6254 C   0  0  0  0  0  0  0  0  0  0  0  0
    3.7064    0.7732    1.3293 C   0  0  0  0  0  0  0  0  0  0  0  0
    5.4060   -0.9033    1.0442 O   0  0  0  0  0  0  0  0  0  0  0  0
    3.4090   -3.2768    4.0141 C   0  0  1  0  0  0  0  0  0  0  0  0
    4.1974   -2.5006    5.1048 C   0  0  0  0  0  0  0  0  0  0  0  0
    1.9947   -3.1199    4.2107 O   0  0  0  0  0  0  0  0  0  0  0  0
    1.4096   -1.8215    4.1937 C   0  0  0  0  0  0  0  0  0  0  0  0
    3.6252   -4.8599    4.0428 C   0  0  2  0  0  0  0  0  0  0  0  0
    5.0259   -4.9157    3.9159 O   0  0  0  0  0  0  0  0  0  0  0  0
    2.9246   -5.5498    2.6741 C   0  0  2  0  0  0  0  0  0  0  0  0
    2.5902   -7.1096    2.3249 C   0  0  0  0  0  0  0  0  0  0  0  0
    1.8077   -7.3011    1.3873 O   0  0  0  0  0  0  0  0  0  0  0  0
    3.1298   -8.4326    2.9974 C   0  0  2  0  0  0  0  0  0  0  0  0
    4.0021   -8.6844    1.8770 O   0  0  0  0  0  0  0  0  0  0  0  0
    2.5849   -9.7947    3.2154 N   0  0  0  0  0  0  0  0  0  0  0  0
    3.6796  -10.8370    3.1620 C   0  0  0  0  0  0  0  0  0  0  0  0
    5.2273  -10.4720    3.4496 C   0  0  1  0  0  0  0  0  0  0  0  0
    6.1183  -10.8249    2.2409 C   0  0  0  0  0  0  0  0  0  0  0  0
    5.7123   -9.0993    4.1578 C   0  0  1  0  0  0  0  0  0  0  0  0
    4.8770   -7.7649    4.0918 C   0  0  0  0  0  0  0  0  0  0  0  0
    3.3533   -8.1420    4.4830 C   0  0  2  0  0  0  0  0  0  0  0  0
    4.0774   -9.0836    5.7140 C   0  0  1  0  0  0  0  0  0  0  0  0
    3.8162  -10.4760    5.9524 O   0  0  0  0  0  0  0  0  0  0  0  0
    5.6096   -9.2012    5.6392 C   0  0  1  0  0  0  0  0  0  0  0  0
    6.2994  -10.2946    6.2305 O   0  0  0  0  0  0  0  0  0  0  0  0
    1.7324   -7.3152    4.8647 C   0  0  2  0  0  0  0  0  0  0  0  0
    1.6727   -7.6669    6.2806 C   0  0  1  0  0  0  0  0  0  0  0  0
    1.2495   -9.5289    6.0114 S   0  0  0  0  0  0  0  0  0  0  0  0
   -0.1360   -9.8560    6.5991 O   0  0  0  0  0  0  0  0  0  0  0  0
    1.3344  -10.0109    4.1141 C   0  0  2  0  0  0  0  0  0  0  0  0
    0.9393  -11.5116    4.1505 C   0  0  0  0  0  0  0  0  0  0  0  0
    0.2824   -9.1502    3.4117 C   0  0  1  0  0  0  0  0  0  0  0  0
   -0.9571   -9.8317    3.2445 O   0  0  0  0  0  0  0  0  0  0  0  0
    0.2674   -7.7171    4.0517 C   0  0  1  0  0  0  0  0  0  0  0  0
   -1.1496   -7.5858    4.6796 C   0  0  0  0  0  0  0  0  0  0  0  0
   -0.0701   -6.7589    3.0539 O   0  0  0  0  0  0  0  0  0  0  0  0
    2.1404   -6.4504    7.5736 C   0  0  1  0  0  0  0  0  0  0  0  0
    2.7149   -4.5126    7.7599 C   0  0  0  0  0  0  0  0  0  0  0  0
    4.0831   -3.8731    8.2302 C   0  0  0  0  0  0  0  0  0  0  0  0
    4.6926   -4.8003    9.1743 C   0  0  1  0  0  0  0  0  0  0  0  0
    6.1072   -4.3792    9.5910 C   0  0  0  0  0  0  0  0  0  0  0  0
    3.8457   -5.0988   10.3883 O   0  0  0  0  0  0  0  0  0  0  0  0
    3.0289   -6.0605    9.6863 C   0  0  1  0  0  0  0  0  0  0  0  0
    1.2073   -5.9087    9.6421 C   0  0  0  0  0  0  0  0  0  0  0  0
    0.3021   -5.8294    8.4450 C   0  0  0  0  0  0  0  0  0  0  0  0
    1.0749   -5.0663    7.8550 C   0  0  0  0  0  0  0  0  0  0  0  0
    0.1103   -5.8554    6.6542 C   0  0  1  0  0  0  0  0  0  0  0  0
    0.4457   -4.9945    5.4981 O   0  0  0  0  0  0  0  0  0  0  0  0
    1.5662   -5.8936    5.4305 C   0  0  2  0  0  0  0  0  0  0  0  0
    3.2414   -5.4598    5.5030 C   0  0  2  0  0  0  0  0  0  0  0  0
    4.3537   -5.8702    6.7233 O   0  0  0  0  0  0  0  0  0  0  0  0
    4.4297   -6.0688    8.4235 C   0  0  1  0  0  0  0  0  0  0  0  0
    5.5543   -7.1024    8.6234 C   0  0  0  0  0  0  0  0  0  0  0  0
    3.1683   -7.3890    9.7681 O   0  0  0  0  0  0  0  0  0  0  0  0
    2.5419   -7.7505    8.6527 C   0  0  0  0  0  0  0  0  0  0  0  0
    2.3033   -8.9570    8.5030 O   0  0  0  0  0  0  0  0  0  0  0  0
    1.4365   -4.7446   -1.6106 H   0  0  0  0  0  0  0  0  0  0  0  0
    3.0481   -4.0347   -1.4369 H   0  0  0  0  0  0  0  0  0  0  0  0
    1.6181   -3.3144   -0.6957 H   0  0  0  0  0  0  0  0  0  0  0  0
    5.4887   -4.8245    1.4602 H   0  0  0  0  0  0  0  0  0  0  0  0
    4.9107   -4.6264   -0.1660 H   0  0  0  0  0  0  0  0  0  0  0  0
    4.8130   -6.1956    0.6070 H   0  0  0  0  0  0  0  0  0  0  0  0
    3.4371   -2.7397    0.6424 H   0  0  0  0  0  0  0  0  0  0  0  0
    2.0425   -3.0684    1.6496 H   0  0  0  0  0  0  0  0  0  0  0  0
    4.9421   -2.8831    2.4989 H   0  0  0  0  0  0  0  0  0  0  0  0
    2.6738    0.6168    1.0255 H   0  0  0  0  0  0  0  0  0  0  0  0
    4.2195    1.2794    0.5141 H   0  0  0  0  0  0  0  0  0  0  0  0
    3.7069    1.3981    2.2233 H   0  0  0  0  0  0  0  0  0  0  0  0
    5.1541   -2.9601    5.3514 H   0  0  0  0  0  0  0  0  0  0  0  0
    3.6223   -2.3577    6.0083 H   0  0  0  0  0  0  0  0  0  0  0  0
    4.4398   -1.4865    4.7870 H   0  0  0  0  0  0  0  0  0  0  0  0
    0.4005   -1.8892    4.5954 H   0  0  0  0  0  0  0  0  0  0  0  0
    1.3053   -1.4412    3.1781 H   0  0  0  0  0  0  0  0  0  0  0  0
    1.9565   -1.0941    4.7940 H   0  0  0  0  0  0  0  0  0  0  0  0
    5.2847   -5.8215    3.9136 H   0  0  0  0  0  0  0  0  0  0  0  0
    1.8980   -5.2241    2.8075 H   0  0  0  0  0  0  0  0  0  0  0  0
    4.2212   -9.6001    1.9173 H   0  0  0  0  0  0  0  0  0  0  0  0
    3.4399  -11.7121    3.7518 H   0  0  0  0  0  0  0  0  0  0  0  0
    3.6460  -11.2248    2.1403 H   0  0  0  0  0  0  0  0  0  0  0  0
    5.5288  -11.2729    4.1280 H   0  0  0  0  0  0  0  0  0  0  0  0
    6.0121  -10.1228    1.4144 H   0  0  0  0  0  0  0  0  0  0  0  0
    5.8556  -11.8111    1.8574 H   0  0  0  0  0  0  0  0  0  0  0  0
    7.1709  -10.8580    2.5226 H   0  0  0  0  0  0  0  0  0  0  0  0
    6.7564   -8.9046    3.9187 H   0  0  0  0  0  0  0  0  0  0  0  0
    5.3702   -7.0954    4.7880 H   0  0  0  0  0  0  0  0  0  0  0  0
    5.1106   -7.2214    3.1815 H   0  0  0  0  0  0  0  0  0  0  0  0
    3.9373   -8.5808    6.6596 H   0  0  0  0  0  0  0  0  0  0  0  0
    2.9416  -10.6016    6.2942 H   0  0  0  0  0  0  0  0  0  0  0  0
    6.0813   -8.3611    6.1487 H   0  0  0  0  0  0  0  0  0  0  0  0
    5.8430  -11.0819    5.9678 H   0  0  0  0  0  0  0  0  0  0  0  0
    0.7051   -7.9173    6.6882 H   0  0  0  0  0  0  0  0  0  0  0  0
    0.9091  -11.9600    3.1561 H   0  0  0  0  0  0  0  0  0  0  0  0
   -0.0216  -11.6872    4.6291 H   0  0  0  0  0  0  0  0  0  0  0  0
    1.6253  -12.0901    4.7646 H   0  0  0  0  0  0  0  0  0  0  0  0
    0.5539   -9.0719    2.3617 H   0  0  0  0  0  0  0  0  0  0  0  0
   -1.2757  -10.1974    4.0750 H   0  0  0  0  0  0  0  0  0  0  0  0
   -1.2098   -8.1606    5.5884 H   0  0  0  0  0  0  0  0  0  0  0  0
   -1.9722   -7.9682    4.0754 H   0  0  0  0  0  0  0  0  0  0  0  0
   -1.5120   -6.5664    4.7857 H   0  0  0  0  0  0  0  0  0  0  0  0
    0.5243   -6.9189    2.3194 H   0  0  0  0  0  0  0  0  0  0  0  0
    2.5707   -3.8095    6.9183 H   0  0  0  0  0  0  0  0  0  0  0  0
    2.5175   -3.9205    8.6925 H   0  0  0  0  0  0  0  0  0  0  0  0
    4.7635   -3.7355    7.3989 H   0  0  0  0  0  0  0  0  0  0  0  0
    4.0110   -2.8699    8.6701 H   0  0  0  0  0  0  0  0  0  0  0  0
    6.7694   -4.3070    8.7291 H   0  0  0  0  0  0  0  0  0  0  0  0
    6.5642   -5.0858   10.2857 H   0  0  0  0  0  0  0  0  0  0  0  0
    6.1068   -3.4094   10.0844 H   0  0  0  0  0  0  0  0  0  0  0  0
    0.7352   -6.1079   10.6162 H   0  0  0  0  0  0  0  0  0  0  0  0
    0.7238   -4.2718    8.6048 H   0  0  0  0  0  0  0  0  0  0  0  0
    0.7244   -4.0801    7.3506 H   0  0  0  0  0  0  0  0  0  0  0  0
   -0.9242   -6.1535    6.5574 H   0  0  0  0  0  0  0  0  0  0  0  0
    3.7404   -6.3252    5.4937 H   0  0  0  0  0  0  0  0  0  0  0  0
    5.7961   -7.1979    9.6826 H   0  0  0  0  0  0  0  0  0  0  0  0
    6.4595   -6.7939    8.1076 H   0  0  0  0  0  0  0  0  0  0  0  0
    5.2932   -8.1115    8.2941 H   0  0  0  0  0  0  0  0  0  0  0  0
  1  2  1  0
  1 64  1  0
  1 65  1  0
  1 66  1  0
  3  2  1  6
  3 17  1  0
  3  4  1  0
  3  5  1  0
  4 67  1  0
  4 68  1  0
  4 69  1  0
  5  6  1  0
  5 70  1  0
  5 71  1  0
  6  7  1  0
  6 11  1  0
  6 72  1  6
  7  8  1  0
  8  9  1  0
  8 10  2  0
  9 73  1  0
  9 74  1  0
  9 75  1  0
 11 12  1  0
 11 13  1  1
 11 15  1  0
 12 76  1  0
 12 77  1  0
 12 78  1  0
 13 14  1  0
 14 79  1  0
 14 80  1  0
 14 81  1  0
 15 57  1  0
 15 16  1  6
 15 17  1  0
 16 82  1  0
 17 18  1  0
 17 83  1  1
 18 19  2  0
 18 20  1  0
 20 28  1  0
 20 21  1  6
 20 22  1  0
 21 84  1  0
 22 37  1  0
 22 23  1  0
 23 24  1  0
 23 85  1  0
 23 86  1  0
 24 25  1  0
 24 26  1  0
 24 87  1  1
 25 88  1  0
 25 89  1  0
 25 90  1  0
 26 31  1  0
 26 27  1  0
 26 91  1  1
 28 27  1  6
 27 92  1  0
 27 93  1  0
 28 29  1  0
 28 33  1  0
 29 30  1  0
 29 31  1  0
 29 94  1  1
 30 95  1  0
 31 32  1  0
 31 96  1  1
 32 97  1  0
 33 41  1  6
 33 56  1  0
 33 34  1  0
 34 35  1  0
 34 44  1  0
 34 98  1  1
 35 36  2  0
 35 37  1  6
 37 38  1  1
 37 39  1  0
 38 99  1  0
 38100  1  0
 38101  1  0
 39 40  1  0
 39 41  1  0
 39102  1  6
 40103  1  0
 41 42  1  0
 41 43  1  6
 42104  1  0
 42105  1  0
 42106  1  0
 43107  1  0
 44 53  1  1
 44 62  1  0
 44 45  1  0
 45 46  1  0
 45108  1  0
 45109  1  0
 46 47  1  0
 46110  1  0
 46111  1  0
 47 59  1  0
 47 48  1  1
 47 49  1  0
 48112  1  0
 48113  1  0
 48114  1  0
 50 49  1  1
 50 59  1  0
 50 51  1  0
 50 61  1  0
 51 52  2  0
 51115  1  0
 52 53  1  0
 52 54  1  0
 53116  1  0
 53117  1  0
 54 56  1  0
 54 55  1  0
 54118  1  1
 56 55  1  6
 56 57  1  0
 57 58  1  0
 57119  1  1
 58 59  1  0
 59 60  1  6
 60120  1  0
 60121  1  0
 60122  1  0
 61 62  1  0
 62 63  2  0
M  END
>  <i_m_ct_stereo_status>  (7) 
1

>  <s_m_source_file>  (7) 
/var/tmp/pbs.5075288.sched01/tmphozr6t3_/0veliry26.sdf

>  <i_m_source_file_index>  (7) 
19

>  <i_lp_mmshare_version>  (7) 
48012

>  <i_f3d_flags>  (7) 
1

>  <s_epik_input>  (7) 
W0NIM11PW0NAQF0xKFtDSDNdKVtDSDJdW0NAQEhdKE9DKD1PKVtDSDNdKVtDQEBdKFtDSDNdKShPW0NIM10pW0NAQF0oW09IXSkoW0NASF0yTzMpW0NAQEhdMUMoPU8pW0NAXTQoW09IXSlOKFtDSDJdW0NAQEhdKFtDSDNdKVtDQEBIXShbQ0gyXTUpW0NASF0oW09IXSlbQ0BASF02W09IXSlbQ0BdKFtDSDNdKShbQ0BASF0oW09IXSlbQ0BdNyhbQ0gzXSlbT0hdKVtTK10oW08tXSlbQ0BIXThDKFtDSDJdOSkoQyhPMSk9TylbQ0gyXVtDSDJdW0NAXShPJTEwKShbQ0gzXSlbQ0BAXTMoW0NIM10pQzElMTBbQ0hdPUM5W0NAQEhdKE8xKUMxMkM3OFtDQEBdNDU2

>  <s_epik_cmdline>  (7) 
J2VwaWtfcHl0aG9uJywgJy1waHQnLCAnMi4wJywgJy1waCcsICc3LjAnLCAnLXRuJywgJzgnLCAnLW1hJywgJzIwMCcsICctaW1hZScsICc8aW5maWxlLm1hZT4nLCAnLW9tYWUnLCAnPG91dGZpbGUubWFlPic=

>  <r_epik_Ionization_Penalty>  (7) 
2.03874

>  <r_epik_Ionization_Penalty_Charging>  (7) 
0

>  <r_epik_Ionization_Penalty_Neutral>  (7) 
2.03874

>  <r_epik_State_Penalty>  (7) 
2.18378

>  <r_epik_Charging_Adjusted_Penalty>  (7) 
2.18378

>  <i_epik_Tot_Q>  (7) 
0

>  <i_epik_Tot_abs_Q>  (7) 
2

>  <s_epik_Chemistry_Notes>  (7) 
This compound has an ester and may undergo hydrolysis at high or low pH.

>  <s_lp_Force_Field>  (7) 
OPLS3e

>  <r_lp_Energy>  (7) 
1657.48

>  <b_lp_Chiralities_Consistent>  (7) 
1

>  <s_lp_Variant>  (7) 
5:0-10

>  <s_i_glide_gridfile>  (7) 
pfpi4k_grid

>  <i_i_glide_lignum>  (7) 
19

>  <i_i_glide_rotatable_bonds>  (7) 
10

>  <r_i_docking_score>  (7) 
-3.51112

>  <r_i_glide_ligand_efficiency>  (7) 
-0.0557321

>  <r_i_glide_ligand_efficiency_sa>  (7) 
-0.221761

>  <r_i_glide_ligand_efficiency_ln>  (7) 
-0.682682

>  <r_i_glide_gscore>  (7) 
-3.51112

>  <r_i_glide_lipo>  (7) 
-0.188599

>  <r_i_glide_hbond>  (7) 
-0.00638827

>  <r_i_glide_metal>  (7) 
-0

>  <r_i_glide_rewards>  (7) 
-0.632043

>  <r_i_glide_evdw>  (7) 
-32.2967

>  <r_i_glide_ecoul>  (7) 
-6.79324

>  <r_i_glide_erotb>  (7) 
0.0268806

>  <r_i_glide_esite>  (7) 
-0.0771527

>  <r_i_glide_emodel>  (7) 
-45.4236

>  <r_i_glide_energy>  (7) 
-39.0899

>  <r_i_glide_einternal>  (7) 
12.1215

>  <r_i_glide_intrahb_reward>  (7) 
-0.5

>  <i_i_glide_confnum>  (7) 
2

>  <i_i_glide_posenum>  (7) 
6

>  <r_i_glide_eff_state_penalty>  (7) 
0

>  <ligand_id>  (7) 
5

>  <original_smiles>  (7) 
COC1(C)CC(OC(C)=O)C(C)(OC)C2(O)C1C(=O)C1(O)N3CC(C)C4CC1(C(O)C4O)C14C([S+]([O-])C3(C)C(O)C1(C)O)C13CCC5(C)OC6(C=C(C1)C1OC14C2OC56C)OC3=O

>  <smiles>  (7) 
[H]OC12C(=O)C3([H])C(OC([H])([H])[H])(C([H])([H])[H])C([H])([H])C([H])(OC(=O)C([H])([H])[H])C(OC([H])([H])[H])(C([H])([H])[H])C3(O[H])C3([H])OC4(C([H])([H])[H])C56OC(=O)C7(C([H])([H])C(=C5[H])C5([H])OC53C35C7([H])S(=O)C(C([H])([H])[H])(N1C([H])([H])C([H])(C([H])([H])[H])C1([H])C([H])([H])C23C([H])(O[H])C1([H])O[H])C([H])(O[H])C5(O[H])C([H])([H])[H])C([H])([H])C([H])([H])C4(C([H])([H])[H])O6

$$$$
5:9:1
     RDKit          3D

122133  0  0  1  0  0  0  0  0999 V2000
    2.4087   -3.8933   -1.1237 C   0  0  0  0  0  0  0  0  0  0  0  0
    2.1858   -4.4578    0.1950 O   0  0  0  0  0  0  0  0  0  0  0  0
    3.0093   -4.1344    1.3413 C   0  0  1  0  0  0  0  0  0  0  0  0
    4.4868   -4.3158    0.9271 C   0  0  0  0  0  0  0  0  0  0  0  0
    2.5841   -2.6698    1.6098 C   0  0  0  0  0  0  0  0  0  0  0  0
    3.2691   -2.0833    2.8363 C   0  0  1  0  0  0  0  0  0  0  0  0
    2.9892   -0.6853    2.8325 O   0  0  0  0  0  0  0  0  0  0  0  0
    3.9338    0.2225    3.1207 C   0  0  0  0  0  0  0  0  0  0  0  0
    3.3665    1.6039    3.3362 C   0  0  0  0  0  0  0  0  0  0  0  0
    5.1442   -0.0193    3.2782 O   0  0  0  0  0  0  0  0  0  0  0  0
    2.8506   -2.8121    4.1574 C   0  0  1  0  0  0  0  0  0  0  0  0
    3.5164   -2.0889    5.3750 C   0  0  0  0  0  0  0  0  0  0  0  0
    1.4242   -2.8046    4.3096 O   0  0  0  0  0  0  0  0  0  0  0  0
    0.7222   -1.5642    4.3516 C   0  0  0  0  0  0  0  0  0  0  0  0
    3.2270   -4.3604    4.0838 C   0  0  2  0  0  0  0  0  0  0  0  0
    4.6340   -4.3083    4.0168 O   0  0  0  0  0  0  0  0  0  0  0  0
    2.6316   -5.0158    2.6423 C   0  0  2  0  0  0  0  0  0  0  0  0
    2.4431   -6.5777    2.2124 C   0  0  0  0  0  0  0  0  0  0  0  0
    1.6882   -6.7746    1.2410 O   0  0  0  0  0  0  0  0  0  0  0  0
    3.0903   -7.8911    2.8176 C   0  0  2  0  0  0  0  0  0  0  0  0
    4.0069   -8.0010    1.7123 O   0  0  0  0  0  0  0  0  0  0  0  0
    2.6736   -9.3192    2.9430 N   0  0  0  0  0  0  0  0  0  0  0  0
    3.8680  -10.2476    2.8643 C   0  0  0  0  0  0  0  0  0  0  0  0
    5.3651   -9.7496    3.2071 C   0  0  1  0  0  0  0  0  0  0  0  0
    6.3078   -9.9471    1.9972 C   0  0  0  0  0  0  0  0  0  0  0  0
    5.7079   -8.3815    4.0010 C   0  0  1  0  0  0  0  0  0  0  0  0
    4.7498   -7.1342    3.9900 C   0  0  0  0  0  0  0  0  0  0  0  0
    3.2638   -7.6768    4.3272 C   0  0  2  0  0  0  0  0  0  0  0  0
    4.0601   -8.6129    5.5209 C   0  0  1  0  0  0  0  0  0  0  0  0
    3.9312  -10.0382    5.6746 O   0  0  0  0  0  0  0  0  0  0  0  0
    5.5964   -8.5771    5.4753 C   0  0  1  0  0  0  0  0  0  0  0  0
    6.3715   -9.6362    6.0157 O   0  0  0  0  0  0  0  0  0  0  0  0
    1.5675   -7.0337    4.7159 C   0  0  2  0  0  0  0  0  0  0  0  0
    1.5187   -7.4695    6.1123 C   0  0  1  0  0  0  0  0  0  0  0  0
    1.2753   -9.3553    5.7386 S   0  0  0  0  0  0  0  0  0  0  0  0
   -0.0660   -9.8420    6.2773 O   0  0  0  0  0  0  0  0  0  0  0  0
    1.4363   -9.7078    3.8069 C   0  0  2  0  0  0  0  0  0  0  0  0
    1.1785  -11.2351    3.7565 C   0  0  0  0  0  0  0  0  0  0  0  0
    0.3120   -8.9236    3.1353 C   0  0  1  0  0  0  0  0  0  0  0  0
   -0.8585   -9.7177    2.9358 O   0  0  0  0  0  0  0  0  0  0  0  0
    0.1517   -7.5466    3.8628 C   0  0  1  0  0  0  0  0  0  0  0  0
   -1.2964   -7.5601    4.4502 C   0  0  0  0  0  0  0  0  0  0  0  0
   -0.2466   -6.5977    2.8942 O   0  0  0  0  0  0  0  0  0  0  0  0
    1.8335   -6.2903    7.4764 C   0  0  1  0  0  0  0  0  0  0  0  0
    2.2197   -4.3342    7.7949 C   0  0  0  0  0  0  0  0  0  0  0  0
    3.5118   -3.5844    8.3412 C   0  0  0  0  0  0  0  0  0  0  0  0
    4.1877   -4.5062    9.2401 C   0  0  1  0  0  0  0  0  0  0  0  0
    5.5465   -3.9743    9.7077 C   0  0  0  0  0  0  0  0  0  0  0  0
    3.3582   -4.9654   10.4147 O   0  0  0  0  0  0  0  0  0  0  0  0
    2.6413   -5.9500    9.6304 C   0  0  1  0  0  0  0  0  0  0  0  0
    0.8147   -5.9674    9.5572 C   0  0  0  0  0  0  0  0  0  0  0  0
   -0.0713   -5.9004    8.3246 C   0  0  0  0  0  0  0  0  0  0  0  0
    0.6334   -5.0326    7.8139 C   0  0  0  0  0  0  0  0  0  0  0  0
   -0.2107   -5.8271    6.5380 C   0  0  1  0  0  0  0  0  0  0  0  0
    0.0659   -4.8637    5.4480 O   0  0  0  0  0  0  0  0  0  0  0  0
    1.2607   -5.6607    5.3612 C   0  0  2  0  0  0  0  0  0  0  0  0
    2.8810   -5.0830    5.4946 C   0  0  2  0  0  0  0  0  0  0  0  0
    4.0001   -5.4458    6.7207 O   0  0  0  0  0  0  0  0  0  0  0  0
    4.0649   -5.7458    8.4076 C   0  0  1  0  0  0  0  0  0  0  0  0
    5.2794   -6.6742    8.5692 C   0  0  0  0  0  0  0  0  0  0  0  0
    2.9099   -7.2604    9.6410 O   0  0  0  0  0  0  0  0  0  0  0  0
    2.3413   -7.6225    8.4975 C   0  0  0  0  0  0  0  0  0  0  0  0
    2.2177   -8.8217    8.2804 O   0  0  0  0  0  0  0  0  0  0  0  0
    1.6254   -4.1968   -1.8245 H   0  0  0  0  0  0  0  0  0  0  0  0
    3.3474   -4.2572   -1.5492 H   0  0  0  0  0  0  0  0  0  0  0  0
    2.4729   -2.8172   -1.1652 H   0  0  0  0  0  0  0  0  0  0  0  0
    5.2019   -4.0713    1.7030 H   0  0  0  0  0  0  0  0  0  0  0  0
    4.7787   -3.6885    0.0861 H   0  0  0  0  0  0  0  0  0  0  0  0
    4.6700   -5.3509    0.6402 H   0  0  0  0  0  0  0  0  0  0  0  0
    2.8041   -1.9993    0.7825 H   0  0  0  0  0  0  0  0  0  0  0  0
    1.4946   -2.6329    1.7309 H   0  0  0  0  0  0  0  0  0  0  0  0
    4.3327   -2.2119    2.6502 H   0  0  0  0  0  0  0  0  0  0  0  0
    2.9089    2.0238    2.4254 H   0  0  0  0  0  0  0  0  0  0  0  0
    4.1403    2.3035    3.6722 H   0  0  0  0  0  0  0  0  0  0  0  0
    2.6150    1.5717    4.1217 H   0  0  0  0  0  0  0  0  0  0  0  0
    4.5263   -2.4642    5.5890 H   0  0  0  0  0  0  0  0  0  0  0  0
    2.9153   -2.1381    6.2722 H   0  0  0  0  0  0  0  0  0  0  0  0
    3.5949   -1.0286    5.3008 H   0  0  0  0  0  0  0  0  0  0  0  0
   -0.2848   -1.7446    4.7291 H   0  0  0  0  0  0  0  0  0  0  0  0
    0.6074   -1.1344    3.3563 H   0  0  0  0  0  0  0  0  0  0  0  0
    1.1934   -0.8288    5.0025 H   0  0  0  0  0  0  0  0  0  0  0  0
    4.8555   -3.8574    3.2175 H   0  0  0  0  0  0  0  0  0  0  0  0
    1.5709   -4.7981    2.7686 H   0  0  0  0  0  0  0  0  0  0  0  0
    4.4433   -8.8265    1.8414 H   0  0  0  0  0  0  0  0  0  0  0  0
    3.7022  -11.1706    3.4062 H   0  0  0  0  0  0  0  0  0  0  0  0
    3.9026  -10.5915    1.8287 H   0  0  0  0  0  0  0  0  0  0  0  0
    5.7318  -10.5573    3.8413 H   0  0  0  0  0  0  0  0  0  0  0  0
    6.1598   -9.2027    1.2156 H   0  0  0  0  0  0  0  0  0  0  0  0
    6.1483  -10.9307    1.5535 H   0  0  0  0  0  0  0  0  0  0  0  0
    7.3494   -9.8980    2.3164 H   0  0  0  0  0  0  0  0  0  0  0  0
    6.7279   -8.0733    3.7980 H   0  0  0  0  0  0  0  0  0  0  0  0
    5.1654   -6.4546    4.7308 H   0  0  0  0  0  0  0  0  0  0  0  0
    4.9315   -6.5096    3.1264 H   0  0  0  0  0  0  0  0  0  0  0  0
    3.8531   -8.1837    6.4897 H   0  0  0  0  0  0  0  0  0  0  0  0
    3.0660  -10.2535    5.9990 H   0  0  0  0  0  0  0  0  0  0  0  0
    5.9717   -7.7191    6.0371 H   0  0  0  0  0  0  0  0  0  0  0  0
    5.9714  -10.4384    5.7089 H   0  0  0  0  0  0  0  0  0  0  0  0
    0.5631   -7.8178    6.4715 H   0  0  0  0  0  0  0  0  0  0  0  0
    1.2069  -11.6279    2.7392 H   0  0  0  0  0  0  0  0  0  0  0  0
    0.2234  -11.5164    4.1988 H   0  0  0  0  0  0  0  0  0  0  0  0
    1.9098  -11.7808    4.3503 H   0  0  0  0  0  0  0  0  0  0  0  0
    0.5910   -8.7547    2.0926 H   0  0  0  0  0  0  0  0  0  0  0  0
   -1.1537  -10.0619    3.7827 H   0  0  0  0  0  0  0  0  0  0  0  0
   -1.3872   -8.1851    5.3229 H   0  0  0  0  0  0  0  0  0  0  0  0
   -2.0577   -7.9647    3.7855 H   0  0  0  0  0  0  0  0  0  0  0  0
   -1.7430   -6.5786    4.5872 H   0  0  0  0  0  0  0  0  0  0  0  0
    0.4008   -6.6579    2.1872 H   0  0  0  0  0  0  0  0  0  0  0  0
    2.0045   -3.6186    6.9945 H   0  0  0  0  0  0  0  0  0  0  0  0
    1.9441   -3.8156    8.7487 H   0  0  0  0  0  0  0  0  0  0  0  0
    4.1928   -3.3390    7.5357 H   0  0  0  0  0  0  0  0  0  0  0  0
    3.3320   -2.6164    8.8305 H   0  0  0  0  0  0  0  0  0  0  0  0
    6.2103   -3.7901    8.8629 H   0  0  0  0  0  0  0  0  0  0  0  0
    6.0514   -4.6793   10.3729 H   0  0  0  0  0  0  0  0  0  0  0  0
    5.4338   -3.0388   10.2580 H   0  0  0  0  0  0  0  0  0  0  0  0
    0.3529   -6.2698   10.5021 H   0  0  0  0  0  0  0  0  0  0  0  0
    0.1984   -4.3241    8.5998 H   0  0  0  0  0  0  0  0  0  0  0  0
    0.1921   -4.0560    7.3715 H   0  0  0  0  0  0  0  0  0  0  0  0
   -1.2127   -6.1962    6.3736 H   0  0  0  0  0  0  0  0  0  0  0  0
    3.4622   -5.8896    5.4491 H   0  0  0  0  0  0  0  0  0  0  0  0
    5.5083   -6.8137    9.6315 H   0  0  0  0  0  0  0  0  0  0  0  0
    6.1599   -6.2509    8.0883 H   0  0  0  0  0  0  0  0  0  0  0  0
    5.1197   -7.6835    8.1759 H   0  0  0  0  0  0  0  0  0  0  0  0
  1  2  1  0
  1 64  1  0
  1 65  1  0
  1 66  1  0
  3  2  1  6
  3 17  1  0
  3  4  1  0
  3  5  1  0
  4 67  1  0
  4 68  1  0
  4 69  1  0
  5  6  1  0
  5 70  1  0
  5 71  1  0
  6  7  1  0
  6 11  1  0
  6 72  1  6
  7  8  1  0
  8  9  1  0
  8 10  2  0
  9 73  1  0
  9 74  1  0
  9 75  1  0
 11 12  1  0
 11 13  1  1
 11 15  1  0
 12 76  1  0
 12 77  1  0
 12 78  1  0
 13 14  1  0
 14 79  1  0
 14 80  1  0
 14 81  1  0
 15 57  1  0
 15 16  1  6
 15 17  1  0
 16 82  1  0
 17 18  1  0
 17 83  1  1
 18 19  2  0
 18 20  1  0
 20 28  1  0
 20 21  1  6
 20 22  1  0
 21 84  1  0
 22 37  1  0
 22 23  1  0
 23 24  1  0
 23 85  1  0
 23 86  1  0
 24 25  1  0
 24 26  1  0
 24 87  1  1
 25 88  1  0
 25 89  1  0
 25 90  1  0
 26 31  1  0
 26 27  1  0
 26 91  1  1
 28 27  1  6
 27 92  1  0
 27 93  1  0
 28 29  1  0
 28 33  1  0
 29 30  1  0
 29 31  1  0
 29 94  1  1
 30 95  1  0
 31 32  1  0
 31 96  1  1
 32 97  1  0
 33 41  1  6
 33 56  1  0
 33 34  1  0
 34 35  1  0
 34 44  1  0
 34 98  1  1
 35 36  2  0
 35 37  1  6
 37 38  1  1
 37 39  1  0
 38 99  1  0
 38100  1  0
 38101  1  0
 39 40  1  0
 39 41  1  0
 39102  1  6
 40103  1  0
 41 42  1  0
 41 43  1  6
 42104  1  0
 42105  1  0
 42106  1  0
 43107  1  0
 44 53  1  1
 44 62  1  0
 44 45  1  0
 45 46  1  0
 45108  1  0
 45109  1  0
 46 47  1  0
 46110  1  0
 46111  1  0
 47 59  1  0
 47 48  1  1
 47 49  1  0
 48112  1  0
 48113  1  0
 48114  1  0
 50 49  1  1
 50 59  1  0
 50 51  1  0
 50 61  1  0
 51 52  2  0
 51115  1  0
 52 53  1  0
 52 54  1  0
 53116  1  0
 53117  1  0
 54 56  1  0
 54 55  1  0
 54118  1  6
 56 55  1  6
 56 57  1  0
 57 58  1  0
 57119  1  1
 58 59  1  0
 59 60  1  6
 60120  1  0
 60121  1  0
 60122  1  0
 61 62  1  0
 62 63  2  0
M  END
>  <i_m_ct_stereo_status>  (8) 
1

>  <s_m_source_file>  (8) 
/var/tmp/pbs.5075288.sched01/tmphozr6t3_/0veliry26.sdf

>  <i_m_source_file_index>  (8) 
19

>  <i_lp_mmshare_version>  (8) 
48012

>  <i_f3d_flags>  (8) 
1

>  <s_epik_input>  (8) 
W0NIM11PW0NAQF0xKFtDSDNdKVtDSDJdW0NAQEhdKE9DKD1PKVtDSDNdKVtDQEBdKFtDSDNdKShPW0NIM10pW0NAQF0oW09IXSkoW0NASF0yTzMpW0NAQEhdMUMoPU8pW0NAXTQoW09IXSlOKFtDSDJdW0NAQEhdKFtDSDNdKVtDQEBIXShbQ0gyXTUpW0NASF0oW09IXSlbQ0BASF02W09IXSlbQ0BdKFtDSDNdKShbQ0BASF0oW09IXSlbQ0BdNyhbQ0gzXSlbT0hdKVtTK10oW08tXSlbQ0BIXThDKFtDSDJdOSkoQyhPMSk9TylbQ0gyXVtDSDJdW0NAXShPJTEwKShbQ0gzXSlbQ0BAXTMoW0NIM10pQzElMTBbQ0hdPUM5W0NAQEhdKE8xKUMxMkM3OFtDQEBdNDU2

>  <s_epik_cmdline>  (8) 
J2VwaWtfcHl0aG9uJywgJy1waHQnLCAnMi4wJywgJy1waCcsICc3LjAnLCAnLXRuJywgJzgnLCAnLW1hJywgJzIwMCcsICctaW1hZScsICc8aW5maWxlLm1hZT4nLCAnLW9tYWUnLCAnPG91dGZpbGUubWFlPic=

>  <r_epik_Ionization_Penalty>  (8) 
2.03874

>  <r_epik_Ionization_Penalty_Charging>  (8) 
0

>  <r_epik_Ionization_Penalty_Neutral>  (8) 
2.03874

>  <r_epik_State_Penalty>  (8) 
2.18378

>  <r_epik_Charging_Adjusted_Penalty>  (8) 
2.18378

>  <i_epik_Tot_Q>  (8) 
0

>  <i_epik_Tot_abs_Q>  (8) 
2

>  <s_epik_Chemistry_Notes>  (8) 
This compound has an ester and may undergo hydrolysis at high or low pH.

>  <s_lp_Force_Field>  (8) 
OPLS3e

>  <r_lp_Energy>  (8) 
1657.48

>  <b_lp_Chiralities_Consistent>  (8) 
1

>  <s_lp_Variant>  (8) 
5:0-10

>  <s_i_glide_gridfile>  (8) 
pfpi4k_grid

>  <i_i_glide_lignum>  (8) 
19

>  <i_i_glide_rotatable_bonds>  (8) 
10

>  <r_i_docking_score>  (8) 
-3.25873

>  <r_i_glide_ligand_efficiency>  (8) 
-0.0517259

>  <r_i_glide_ligand_efficiency_sa>  (8) 
-0.20582

>  <r_i_glide_ligand_efficiency_ln>  (8) 
-0.633608

>  <r_i_glide_gscore>  (8) 
-3.25873

>  <r_i_glide_lipo>  (8) 
-0.241053

>  <r_i_glide_hbond>  (8) 
-0.0212222

>  <r_i_glide_metal>  (8) 
-0

>  <r_i_glide_rewards>  (8) 
-0.5

>  <r_i_glide_evdw>  (8) 
-33.6633

>  <r_i_glide_ecoul>  (8) 
-5.20167

>  <r_i_glide_erotb>  (8) 
0.0268806

>  <r_i_glide_esite>  (8) 
-0.0599229

>  <r_i_glide_emodel>  (8) 
-46.8619

>  <r_i_glide_energy>  (8) 
-38.865

>  <r_i_glide_einternal>  (8) 
6.00249

>  <r_i_glide_intrahb_reward>  (8) 
-0.5

>  <i_i_glide_confnum>  (8) 
1

>  <i_i_glide_posenum>  (8) 
39

>  <r_i_glide_eff_state_penalty>  (8) 
0

>  <ligand_id>  (8) 
5

>  <original_smiles>  (8) 
COC1(C)CC(OC(C)=O)C(C)(OC)C2(O)C1C(=O)C1(O)N3CC(C)C4CC1(C(O)C4O)C14C([S+]([O-])C3(C)C(O)C1(C)O)C13CCC5(C)OC6(C=C(C1)C1OC14C2OC56C)OC3=O

>  <smiles>  (8) 
[H]OC12C(=O)C3([H])C(OC([H])([H])[H])(C([H])([H])[H])C([H])([H])C([H])(OC(=O)C([H])([H])[H])C(OC([H])([H])[H])(C([H])([H])[H])C3(O[H])C3([H])OC4(C([H])([H])[H])C56OC(=O)C7(C([H])([H])C(=C5[H])C5([H])OC53C35C7([H])S(=O)C(C([H])([H])[H])(N1C([H])([H])C([H])(C([H])([H])[H])C1([H])C([H])([H])C23C([H])(O[H])C1([H])O[H])C([H])(O[H])C5(O[H])C([H])([H])[H])C([H])([H])C([H])([H])C4(C([H])([H])[H])O6

$$$$
5:9:2
     RDKit          3D

122133  0  0  1  0  0  0  0  0999 V2000
    2.4866   -3.8461   -1.2092 C   0  0  0  0  0  0  0  0  0  0  0  0
    2.2096   -4.3537    0.1283 O   0  0  0  0  0  0  0  0  0  0  0  0
    3.0032   -4.0006    1.2873 C   0  0  1  0  0  0  0  0  0  0  0  0
    4.4958   -4.1624    0.9017 C   0  0  0  0  0  0  0  0  0  0  0  0
    2.5376   -2.5469    1.5375 C   0  0  0  0  0  0  0  0  0  0  0  0
    3.1936   -1.9473    2.7683 C   0  0  1  0  0  0  0  0  0  0  0  0
    2.8773   -0.5529    2.7585 O   0  0  0  0  0  0  0  0  0  0  0  0
    3.7860    0.3703    3.0915 C   0  0  0  0  0  0  0  0  0  0  0  0
    3.1984    1.7401    3.2914 C   0  0  0  0  0  0  0  0  0  0  0  0
    4.9990    0.1212    3.2748 O   0  0  0  0  0  0  0  0  0  0  0  0
    2.7685   -2.6780    4.0905 C   0  0  1  0  0  0  0  0  0  0  0  0
    3.4061   -1.9300    5.3176 C   0  0  0  0  0  0  0  0  0  0  0  0
    1.3380   -2.6955    4.2182 O   0  0  0  0  0  0  0  0  0  0  0  0
    0.6188   -1.4670    4.2593 C   0  0  0  0  0  0  0  0  0  0  0  0
    3.1732   -4.2225    4.0312 C   0  0  2  0  0  0  0  0  0  0  0  0
    4.5763   -4.1458    3.9843 O   0  0  0  0  0  0  0  0  0  0  0  0
    2.6147   -4.8882    2.5849 C   0  0  2  0  0  0  0  0  0  0  0  0
    2.4576   -6.4573    2.1476 C   0  0  0  0  0  0  0  0  0  0  0  0
    1.7200   -6.6626    1.1713 O   0  0  0  0  0  0  0  0  0  0  0  0
    3.1166   -7.7604    2.7674 C   0  0  2  0  0  0  0  0  0  0  0  0
    4.0521   -7.8505    1.6758 O   0  0  0  0  0  0  0  0  0  0  0  0
    2.7249   -9.1962    2.8964 N   0  0  0  0  0  0  0  0  0  0  0  0
    3.9339  -10.1001    2.8224 C   0  0  0  0  0  0  0  0  0  0  0  0
    5.4216   -9.5781    3.1935 C   0  0  1  0  0  0  0  0  0  0  0  0
    6.3883   -9.7583    2.0018 C   0  0  0  0  0  0  0  0  0  0  0  0
    5.7252   -8.2004    3.9869 C   0  0  1  0  0  0  0  0  0  0  0  0
    4.7457   -6.9701    3.9617 C   0  0  0  0  0  0  0  0  0  0  0  0
    3.2662   -7.5411    4.2811 C   0  0  2  0  0  0  0  0  0  0  0  0
    4.0688   -8.4604    5.4866 C   0  0  1  0  0  0  0  0  0  0  0  0
    3.9500   -9.8760    5.6680 O   0  0  0  0  0  0  0  0  0  0  0  0
    5.6016   -8.3932    5.4601 C   0  0  1  0  0  0  0  0  0  0  0  0
    6.4035   -9.4286    6.0157 O   0  0  0  0  0  0  0  0  0  0  0  0
    1.5518   -6.9293    4.6519 C   0  0  2  0  0  0  0  0  0  0  0  0
    1.4901   -7.3660    6.0442 C   0  0  1  0  0  0  0  0  0  0  0  0
    1.2959   -9.2506    5.6661 S   0  0  0  0  0  0  0  0  0  0  0  0
   -0.0524   -9.7545    6.1729 O   0  0  0  0  0  0  0  0  0  0  0  0
    1.4905   -9.5996    3.7467 C   0  0  2  0  0  0  0  0  0  0  0  0
    1.2515  -11.1297    3.6896 C   0  0  0  0  0  0  0  0  0  0  0  0
    0.3578   -8.8373    3.0617 C   0  0  1  0  0  0  0  0  0  0  0  0
   -0.8052   -9.6490    2.8584 O   0  0  0  0  0  0  0  0  0  0  0  0
    0.1651   -7.4615    3.7843 C   0  0  1  0  0  0  0  0  0  0  0  0
   -1.2952   -7.5021    4.3703 C   0  0  0  0  0  0  0  0  0  0  0  0
   -0.2258   -6.5196    2.8066 O   0  0  0  0  0  0  0  0  0  0  0  0
    1.7721   -6.1713    7.4033 C   0  0  1  0  0  0  0  0  0  0  0  0
    2.1074   -4.2096    7.7250 C   0  0  0  0  0  0  0  0  0  0  0  0
    3.3777   -3.4305    8.2813 C   0  0  0  0  0  0  0  0  0  0  0  0
    4.0615   -4.3352    9.1934 C   0  0  1  0  0  0  0  0  0  0  0  0
    5.4013   -3.7817    9.6848 C   0  0  0  0  0  0  0  0  0  0  0  0
    3.2143   -4.8021   10.3617 O   0  0  0  0  0  0  0  0  0  0  0  0
    2.5309   -5.8052    9.5712 C   0  0  1  0  0  0  0  0  0  0  0  0
    0.7074   -5.8544    9.4743 C   0  0  0  0  0  0  0  0  0  0  0  0
   -0.1695   -5.8144    8.2333 C   0  0  0  0  0  0  0  0  0  0  0  0
    0.5374   -4.9401    7.7250 C   0  0  0  0  0  0  0  0  0  0  0  0
   -0.2775   -5.7409    6.4382 C   0  0  1  0  0  0  0  0  0  0  0  0
    0.0040   -4.7866    5.3389 O   0  0  0  0  0  0  0  0  0  0  0  0
    1.2091   -5.5524    5.2630 C   0  0  2  0  0  0  0  0  0  0  0  0
    2.8141   -4.9472    5.4327 C   0  0  2  0  0  0  0  0  0  0  0  0
    3.9318   -5.2921    6.6744 O   0  0  0  0  0  0  0  0  0  0  0  0
    3.9778   -5.5760    8.3671 C   0  0  1  0  0  0  0  0  0  0  0  0
    5.1993   -6.4905    8.5507 C   0  0  0  0  0  0  0  0  0  0  0  0
    2.8295   -7.1128    9.5920 O   0  0  0  0  0  0  0  0  0  0  0  0
    2.2807   -7.4860    8.4373 C   0  0  0  0  0  0  0  0  0  0  0  0
    2.1621   -8.6910    8.2395 O   0  0  0  0  0  0  0  0  0  0  0  0
    1.6948   -4.1054   -1.9120 H   0  0  0  0  0  0  0  0  0  0  0  0
    3.4114   -4.2763   -1.5890 H   0  0  0  0  0  0  0  0  0  0  0  0
    2.6048   -2.7638   -1.2536 H   0  0  0  0  0  0  0  0  0  0  0  0
    5.1954   -3.9083    1.6975 H   0  0  0  0  0  0  0  0  0  0  0  0
    4.7911   -3.5280    0.0620 H   0  0  0  0  0  0  0  0  0  0  0  0
    4.7023   -5.1947    0.6115 H   0  0  0  0  0  0  0  0  0  0  0  0
    2.7550   -1.8840    0.6982 H   0  0  0  0  0  0  0  0  0  0  0  0
    1.4428   -2.5336    1.6506 H   0  0  0  0  0  0  0  0  0  0  0  0
    4.2622   -2.0407    2.6055 H   0  0  0  0  0  0  0  0  0  0  0  0
    2.7636    2.1707    2.3697 H   0  0  0  0  0  0  0  0  0  0  0  0
    3.9349    2.4559    3.6800 H   0  0  0  0  0  0  0  0  0  0  0  0
    2.4174    1.6904    4.0411 H   0  0  0  0  0  0  0  0  0  0  0  0
    4.4169   -2.3088    5.5522 H   0  0  0  0  0  0  0  0  0  0  0  0
    2.7877   -2.0141    6.2113 H   0  0  0  0  0  0  0  0  0  0  0  0
    3.4543   -0.8859    5.2458 H   0  0  0  0  0  0  0  0  0  0  0  0
   -0.3905   -1.6658    4.6181 H   0  0  0  0  0  0  0  0  0  0  0  0
    0.5128   -1.0321    3.2653 H   0  0  0  0  0  0  0  0  0  0  0  0
    1.0681   -0.7307    4.9249 H   0  0  0  0  0  0  0  0  0  0  0  0
    4.8033   -3.6787    3.1962 H   0  0  0  0  0  0  0  0  0  0  0  0
    1.5496   -4.6863    2.6838 H   0  0  0  0  0  0  0  0  0  0  0  0
    4.5115   -8.6535    1.8318 H   0  0  0  0  0  0  0  0  0  0  0  0
    3.7760  -11.0306    3.3478 H   0  0  0  0  0  0  0  0  0  0  0  0
    3.9935  -10.4348    1.7764 H   0  0  0  0  0  0  0  0  0  0  0  0
    5.7993  -10.3788    3.8345 H   0  0  0  0  0  0  0  0  0  0  0  0
    6.2276   -9.0183    1.2148 H   0  0  0  0  0  0  0  0  0  0  0  0
    6.2483  -10.7442    1.5555 H   0  0  0  0  0  0  0  0  0  0  0  0
    7.4151   -9.6838    2.3364 H   0  0  0  0  0  0  0  0  0  0  0  0
    6.7439   -7.8712    3.8000 H   0  0  0  0  0  0  0  0  0  0  0  0
    5.1357   -6.2793    4.7062 H   0  0  0  0  0  0  0  0  0  0  0  0
    4.9279   -6.3400    3.0981 H   0  0  0  0  0  0  0  0  0  0  0  0
    3.8322   -8.0320    6.4482 H   0  0  0  0  0  0  0  0  0  0  0  0
    4.0547  -10.2871    4.8241 H   0  0  0  0  0  0  0  0  0  0  0  0
    5.9447   -7.5262    6.0253 H   0  0  0  0  0  0  0  0  0  0  0  0
    6.0524  -10.2547    5.7146 H   0  0  0  0  0  0  0  0  0  0  0  0
    0.5325   -7.7276    6.3856 H   0  0  0  0  0  0  0  0  0  0  0  0
    1.2968  -11.5198    2.6692 H   0  0  0  0  0  0  0  0  0  0  0  0
    0.2910  -11.4280    4.1166 H   0  0  0  0  0  0  0  0  0  0  0  0
    1.9788  -11.6672    4.2958 H   0  0  0  0  0  0  0  0  0  0  0  0
    0.6403   -8.6646    2.0230 H   0  0  0  0  0  0  0  0  0  0  0  0
   -1.0986   -9.9982    3.6972 H   0  0  0  0  0  0  0  0  0  0  0  0
   -1.3925   -8.0712    5.2746 H   0  0  0  0  0  0  0  0  0  0  0  0
   -2.0456   -7.9285    3.6965 H   0  0  0  0  0  0  0  0  0  0  0  0
   -1.7581   -6.5171    4.4614 H   0  0  0  0  0  0  0  0  0  0  0  0
    0.4316   -6.5890    2.1100 H   0  0  0  0  0  0  0  0  0  0  0  0
    1.8914   -3.4967    6.9164 H   0  0  0  0  0  0  0  0  0  0  0  0
    1.8126   -3.6813    8.6743 H   0  0  0  0  0  0  0  0  0  0  0  0
    4.0690   -3.1781    7.4927 H   0  0  0  0  0  0  0  0  0  0  0  0
    3.1761   -2.4652    8.7730 H   0  0  0  0  0  0  0  0  0  0  0  0
    6.0736   -3.5894    8.8508 H   0  0  0  0  0  0  0  0  0  0  0  0
    5.9037   -4.4778   10.3584 H   0  0  0  0  0  0  0  0  0  0  0  0
    5.2628   -2.8494   10.2297 H   0  0  0  0  0  0  0  0  0  0  0  0
    0.2367   -6.1649   10.4117 H   0  0  0  0  0  0  0  0  0  0  0  0
    0.0685   -4.2211    8.4980 H   0  0  0  0  0  0  0  0  0  0  0  0
    0.0829   -3.9558    7.2701 H   0  0  0  0  0  0  0  0  0  0  0  0
   -1.2808   -6.1163    6.2602 H   0  0  0  0  0  0  0  0  0  0  0  0
    3.4127   -5.7460    5.4035 H   0  0  0  0  0  0  0  0  0  0  0  0
    5.4085   -6.6207    9.6118 H   0  0  0  0  0  0  0  0  0  0  0  0
    6.0718   -6.0512    8.0824 H   0  0  0  0  0  0  0  0  0  0  0  0
    5.0593   -7.5021    8.1552 H   0  0  0  0  0  0  0  0  0  0  0  0
  1  2  1  0
  1 64  1  0
  1 65  1  0
  1 66  1  0
  3  2  1  6
  3 17  1  0
  3  4  1  0
  3  5  1  0
  4 67  1  0
  4 68  1  0
  4 69  1  0
  5  6  1  0
  5 70  1  0
  5 71  1  0
  6  7  1  0
  6 11  1  0
  6 72  1  6
  7  8  1  0
  8  9  1  0
  8 10  2  0
  9 73  1  0
  9 74  1  0
  9 75  1  0
 11 12  1  0
 11 13  1  1
 11 15  1  0
 12 76  1  0
 12 77  1  0
 12 78  1  0
 13 14  1  0
 14 79  1  0
 14 80  1  0
 14 81  1  0
 15 57  1  0
 15 16  1  6
 15 17  1  0
 16 82  1  0
 17 18  1  0
 17 83  1  1
 18 19  2  0
 18 20  1  0
 20 28  1  0
 20 21  1  6
 20 22  1  0
 21 84  1  0
 22 37  1  0
 22 23  1  0
 23 24  1  0
 23 85  1  0
 23 86  1  0
 24 25  1  0
 24 26  1  0
 24 87  1  1
 25 88  1  0
 25 89  1  0
 25 90  1  0
 26 31  1  0
 26 27  1  0
 26 91  1  1
 28 27  1  6
 27 92  1  0
 27 93  1  0
 28 29  1  0
 28 33  1  0
 29 30  1  0
 29 31  1  0
 29 94  1  1
 30 95  1  0
 31 32  1  0
 31 96  1  1
 32 97  1  0
 33 41  1  6
 33 56  1  0
 33 34  1  0
 34 35  1  0
 34 44  1  0
 34 98  1  1
 35 36  2  0
 35 37  1  6
 37 38  1  1
 37 39  1  0
 38 99  1  0
 38100  1  0
 38101  1  0
 39 40  1  0
 39 41  1  0
 39102  1  6
 40103  1  0
 41 42  1  0
 41 43  1  6
 42104  1  0
 42105  1  0
 42106  1  0
 43107  1  0
 44 53  1  1
 44 62  1  0
 44 45  1  0
 45 46  1  0
 45108  1  0
 45109  1  0
 46 47  1  0
 46110  1  0
 46111  1  0
 47 59  1  0
 47 48  1  1
 47 49  1  0
 48112  1  0
 48113  1  0
 48114  1  0
 50 49  1  1
 50 59  1  0
 50 51  1  0
 50 61  1  0
 51 52  2  0
 51115  1  0
 52 53  1  0
 52 54  1  0
 53116  1  0
 53117  1  0
 54 56  1  0
 54 55  1  0
 54118  1  6
 56 55  1  6
 56 57  1  0
 57 58  1  0
 57119  1  1
 58 59  1  0
 59 60  1  6
 60120  1  0
 60121  1  0
 60122  1  0
 61 62  1  0
 62 63  2  0
M  END
>  <i_m_ct_stereo_status>  (9) 
1

>  <s_m_source_file>  (9) 
/var/tmp/pbs.5075288.sched01/tmphozr6t3_/0veliry26.sdf

>  <i_m_source_file_index>  (9) 
19

>  <i_lp_mmshare_version>  (9) 
48012

>  <i_f3d_flags>  (9) 
1

>  <s_epik_input>  (9) 
W0NIM11PW0NAQF0xKFtDSDNdKVtDSDJdW0NAQEhdKE9DKD1PKVtDSDNdKVtDQEBdKFtDSDNdKShPW0NIM10pW0NAQF0oW09IXSkoW0NASF0yTzMpW0NAQEhdMUMoPU8pW0NAXTQoW09IXSlOKFtDSDJdW0NAQEhdKFtDSDNdKVtDQEBIXShbQ0gyXTUpW0NASF0oW09IXSlbQ0BASF02W09IXSlbQ0BdKFtDSDNdKShbQ0BASF0oW09IXSlbQ0BdNyhbQ0gzXSlbT0hdKVtTK10oW08tXSlbQ0BIXThDKFtDSDJdOSkoQyhPMSk9TylbQ0gyXVtDSDJdW0NAXShPJTEwKShbQ0gzXSlbQ0BAXTMoW0NIM10pQzElMTBbQ0hdPUM5W0NAQEhdKE8xKUMxMkM3OFtDQEBdNDU2

>  <s_epik_cmdline>  (9) 
J2VwaWtfcHl0aG9uJywgJy1waHQnLCAnMi4wJywgJy1waCcsICc3LjAnLCAnLXRuJywgJzgnLCAnLW1hJywgJzIwMCcsICctaW1hZScsICc8aW5maWxlLm1hZT4nLCAnLW9tYWUnLCAnPG91dGZpbGUubWFlPic=

>  <r_epik_Ionization_Penalty>  (9) 
2.03874

>  <r_epik_Ionization_Penalty_Charging>  (9) 
0

>  <r_epik_Ionization_Penalty_Neutral>  (9) 
2.03874

>  <r_epik_State_Penalty>  (9) 
2.18378

>  <r_epik_Charging_Adjusted_Penalty>  (9) 
2.18378

>  <i_epik_Tot_Q>  (9) 
0

>  <i_epik_Tot_abs_Q>  (9) 
2

>  <s_epik_Chemistry_Notes>  (9) 
This compound has an ester and may undergo hydrolysis at high or low pH.

>  <s_lp_Force_Field>  (9) 
OPLS3e

>  <r_lp_Energy>  (9) 
1657.48

>  <b_lp_Chiralities_Consistent>  (9) 
1

>  <s_lp_Variant>  (9) 
5:0-10

>  <s_i_glide_gridfile>  (9) 
pfpi4k_grid

>  <i_i_glide_lignum>  (9) 
19

>  <i_i_glide_rotatable_bonds>  (9) 
10

>  <r_i_docking_score>  (9) 
-3.11903

>  <r_i_glide_ligand_efficiency>  (9) 
-0.0495084

>  <r_i_glide_ligand_efficiency_sa>  (9) 
-0.196997

>  <r_i_glide_ligand_efficiency_ln>  (9) 
-0.606445

>  <r_i_glide_gscore>  (9) 
-3.11903

>  <r_i_glide_lipo>  (9) 
-0.22905

>  <r_i_glide_hbond>  (9) 
-0.0258222

>  <r_i_glide_metal>  (9) 
-0

>  <r_i_glide_rewards>  (9) 
-0.5

>  <r_i_glide_evdw>  (9) 
-34.0916

>  <r_i_glide_ecoul>  (9) 
-4.21419

>  <r_i_glide_erotb>  (9) 
0.0268806

>  <r_i_glide_esite>  (9) 
-0.0543318

>  <r_i_glide_emodel>  (9) 
-46.3098

>  <r_i_glide_energy>  (9) 
-38.3057

>  <r_i_glide_einternal>  (9) 
5.54808

>  <r_i_glide_intrahb_reward>  (9) 
-0.5

>  <i_i_glide_confnum>  (9) 
2

>  <i_i_glide_posenum>  (9) 
16

>  <r_i_glide_eff_state_penalty>  (9) 
0

>  <ligand_id>  (9) 
5

>  <original_smiles>  (9) 
COC1(C)CC(OC(C)=O)C(C)(OC)C2(O)C1C(=O)C1(O)N3CC(C)C4CC1(C(O)C4O)C14C([S+]([O-])C3(C)C(O)C1(C)O)C13CCC5(C)OC6(C=C(C1)C1OC14C2OC56C)OC3=O

>  <smiles>  (9) 
[H]OC12C(=O)C3([H])C(OC([H])([H])[H])(C([H])([H])[H])C([H])([H])C([H])(OC(=O)C([H])([H])[H])C(OC([H])([H])[H])(C([H])([H])[H])C3(O[H])C3([H])OC4(C([H])([H])[H])C56OC(=O)C7(C([H])([H])C(=C5[H])C5([H])OC53C35C7([H])S(=O)C(C([H])([H])[H])(N1C([H])([H])C([H])(C([H])([H])[H])C1([H])C([H])([H])C23C([H])(O[H])C1([H])O[H])C([H])(O[H])C5(O[H])C([H])([H])[H])C([H])([H])C([H])([H])C4(C([H])([H])[H])O6

$$$$
7:16:0
     RDKit          3D

133142  0  0  1  0  0  0  0  0999 V2000
    6.1721   -0.3501    3.2298 C   0  0  0  0  0  0  0  0  0  0  0  0
    5.7135   -1.2840    4.0483 C   0  0  0  0  0  0  0  0  0  0  0  0
    4.9019   -1.1161    5.3348 C   0  0  1  0  0  0  0  0  0  0  0  0
    4.7622    0.2660    5.6282 O   0  0  0  0  0  0  0  0  0  0  0  0
    3.4746   -1.6067    5.0636 C   0  0  0  0  0  0  0  0  0  0  0  0
    2.9315   -2.9224    4.4162 C   0  0  1  0  0  0  0  0  0  0  0  0
    2.7508   -2.5668    2.9042 C   0  0  0  0  0  0  0  0  0  0  0  0
    3.9760   -3.8111    4.2279 O   0  0  0  0  0  0  0  0  0  0  0  0
    1.5168   -3.4876    5.0774 C   0  0  2  0  0  0  0  0  0  0  0  0
    0.9896   -4.4195    4.1625 O   0  0  0  0  0  0  0  0  0  0  0  0
    1.7220   -5.6310    3.9038 C   0  0  2  0  0  0  0  0  0  0  0  0
    0.6989   -6.5003    3.1586 C   0  0  1  0  0  0  0  0  0  0  0  0
    0.5084   -6.0081    1.8572 O   0  0  0  0  0  0  0  0  0  0  0  0
    1.1803   -7.7877    3.0213 O   0  0  0  0  0  0  0  0  0  0  0  0
    1.1748   -8.6341    4.1600 C   0  0  0  0  0  0  0  0  0  0  0  0
   -0.2617   -8.8907    4.6795 C   0  0  0  0  0  0  0  0  0  0  0  0
    1.5884   -9.9562    3.4848 C   0  0  0  0  0  0  0  0  0  0  0  0
    2.1060   -7.9835    5.2615 C   0  0  2  0  0  0  0  0  0  0  0  0
    2.5133   -6.5065    5.0095 C   0  0  2  0  0  0  0  0  0  0  0  0
    3.6614   -6.1188    6.0908 C   0  0  1  0  0  0  0  0  0  0  0  0
    3.9180   -4.7599    7.0915 C   0  0  1  0  0  0  0  0  0  0  0  0
    4.6596   -5.3209    8.1386 O   0  0  0  0  0  0  0  0  0  0  0  0
    5.2851   -4.2380    6.5860 C   0  0  0  0  0  0  0  0  0  0  0  0
    5.9666   -3.1160    6.3586 C   0  0  0  0  0  0  0  0  0  0  0  0
    5.6083   -1.7113    6.6190 C   0  0  1  0  0  0  0  0  0  0  0  0
    6.9328   -0.9527    6.9353 C   0  0  0  0  0  0  0  0  0  0  0  0
    4.7214   -1.6005    8.2687 S   0  0  0  0  0  0  0  0  0  0  0  0
    5.5195   -2.4368    9.2987 O   0  0  0  0  0  0  0  0  0  0  0  0
    2.9729   -2.2537    8.2766 C   0  0  1  0  0  0  0  0  0  0  0  0
    1.9329   -1.0605    7.7733 C   0  0  1  0  0  0  0  0  0  0  0  0
    1.1830   -0.5649    9.0444 C   0  0  0  0  0  0  0  0  0  0  0  0
    2.6566    0.1414    7.5333 O   0  0  0  0  0  0  0  0  0  0  0  0
    0.8717   -1.1292    6.5007 C   0  0  2  0  0  0  0  0  0  0  0  0
   -0.4587   -1.1866    7.0082 O   0  0  0  0  0  0  0  0  0  0  0  0
   -1.3829   -1.1741    5.9375 C   0  0  1  0  0  0  0  0  0  0  0  0
   -1.8485    0.2654    5.5541 C   0  0  2  0  0  0  0  0  0  0  0  0
   -1.7290    0.5367    4.1679 O   0  0  0  0  0  0  0  0  0  0  0  0
   -1.1974    1.4762    6.2618 C   0  0  0  0  0  0  0  0  0  0  0  0
   -1.4727    1.4485    7.6478 O   0  0  0  0  0  0  0  0  0  0  0  0
   -0.7367   -2.0631    4.8882 C   0  0  0  0  0  0  0  0  0  0  0  0
    0.7471   -2.0889    5.2175 C   0  0  2  0  0  0  0  0  0  0  0  0
    2.7566   -3.8507    8.0479 C   0  0  2  0  0  0  0  0  0  0  0  0
    2.5049   -4.8180    9.2939 C   0  0  1  0  0  0  0  0  0  0  0  0
    1.7650   -4.2061   10.3526 O   0  0  0  0  0  0  0  0  0  0  0  0
    1.7749   -6.0500    8.5406 C   0  0  1  0  0  0  0  0  0  0  0  0
    1.1117   -6.8875    9.4639 O   0  0  0  0  0  0  0  0  0  0  0  0
    0.8278   -5.5611    7.3579 C   0  0  2  0  0  0  0  0  0  0  0  0
   -0.1533   -6.4870    7.0366 O   0  0  0  0  0  0  0  0  0  0  0  0
    0.9262   -4.2498    6.3774 C   0  0  1  0  0  0  0  0  0  0  0  0
    1.2070   -3.6994    7.6848 C   0  0  1  0  0  0  0  0  0  0  0  0
    0.1811   -4.6321    8.2088 N   0  0  0  0  0  0  0  0  0  0  0  0
   -1.2642   -4.3182    8.1776 C   0  0  0  0  0  0  0  0  0  0  0  0
    4.3558   -7.5807    6.3975 C   0  0  2  0  0  0  0  0  0  0  0  0
    4.7088   -8.0254    7.8803 C   0  0  0  0  0  0  0  0  0  0  0  0
    5.7315   -7.7840    5.5943 C   0  0  1  0  0  0  0  0  0  0  0  0
    5.7593   -7.1563    4.3332 O   0  0  0  0  0  0  0  0  0  0  0  0
    6.8260   -7.3745    6.3493 O   0  0  0  0  0  0  0  0  0  0  0  0
    8.1295   -7.7137    5.8625 C   0  0  0  0  0  0  0  0  0  0  0  0
    5.7874   -9.2777    5.3141 C   0  0  0  0  0  0  0  0  0  0  0  0
    4.3478   -9.5190    4.8226 C   0  0  1  0  0  0  0  0  0  0  0  0
    4.1446  -10.9294    4.7340 O   0  0  0  0  0  0  0  0  0  0  0  0
    4.6924  -11.7412    3.7881 C   0  0  0  0  0  0  0  0  0  0  0  0
    5.4947  -11.0309    2.6740 C   0  0  0  0  0  0  0  0  0  0  0  0
    4.5788  -12.9598    3.8254 O   0  0  0  0  0  0  0  0  0  0  0  0
    3.4021   -8.7149    5.7864 C   0  0  2  0  0  0  0  0  0  0  0  0
    2.9187   -9.6247    6.7783 O   0  0  0  0  0  0  0  0  0  0  0  0
    5.9798    0.7090    3.3659 H   0  0  0  0  0  0  0  0  0  0  0  0
    6.7635   -0.6561    2.3719 H   0  0  0  0  0  0  0  0  0  0  0  0
    5.9278   -2.3150    3.7919 H   0  0  0  0  0  0  0  0  0  0  0  0
    5.6280    0.6231    5.7428 H   0  0  0  0  0  0  0  0  0  0  0  0
    3.1905   -1.8118    6.0353 H   0  0  0  0  0  0  0  0  0  0  0  0
    2.9311   -0.7380    4.6845 H   0  0  0  0  0  0  0  0  0  0  0  0
    2.1102   -1.7058    2.7078 H   0  0  0  0  0  0  0  0  0  0  0  0
    2.3565   -3.3900    2.3100 H   0  0  0  0  0  0  0  0  0  0  0  0
    3.7092   -2.2940    2.4555 H   0  0  0  0  0  0  0  0  0  0  0  0
    3.6569   -4.5333    3.7164 H   0  0  0  0  0  0  0  0  0  0  0  0
    2.4552   -5.3939    3.1451 H   0  0  0  0  0  0  0  0  0  0  0  0
   -0.2686   -6.4622    3.6604 H   0  0  0  0  0  0  0  0  0  0  0  0
    0.5014   -6.7670    1.2955 H   0  0  0  0  0  0  0  0  0  0  0  0
   -0.2304   -9.6269    5.4873 H   0  0  0  0  0  0  0  0  0  0  0  0
   -0.9140   -9.3086    3.9048 H   0  0  0  0  0  0  0  0  0  0  0  0
   -0.7609   -8.0082    5.0720 H   0  0  0  0  0  0  0  0  0  0  0  0
    1.6839  -10.7739    4.1990 H   0  0  0  0  0  0  0  0  0  0  0  0
    2.4996   -9.8600    2.8977 H   0  0  0  0  0  0  0  0  0  0  0  0
    0.8323  -10.2756    2.7627 H   0  0  0  0  0  0  0  0  0  0  0  0
    1.4702   -7.9599    6.1460 H   0  0  0  0  0  0  0  0  0  0  0  0
    3.2061   -6.8328    4.2264 H   0  0  0  0  0  0  0  0  0  0  0  0
    4.3062   -5.7676    5.3197 H   0  0  0  0  0  0  0  0  0  0  0  0
    4.2154   -6.0829    8.4635 H   0  0  0  0  0  0  0  0  0  0  0  0
    5.9305   -5.0647    6.3150 H   0  0  0  0  0  0  0  0  0  0  0  0
    6.9727   -3.2497    5.9850 H   0  0  0  0  0  0  0  0  0  0  0  0
    7.6166   -0.9088    6.0940 H   0  0  0  0  0  0  0  0  0  0  0  0
    7.4776   -1.4225    7.7584 H   0  0  0  0  0  0  0  0  0  0  0  0
    6.7644    0.0744    7.2483 H   0  0  0  0  0  0  0  0  0  0  0  0
    2.8458   -2.2039    9.3531 H   0  0  0  0  0  0  0  0  0  0  0  0
    0.5303   -1.3247    9.4782 H   0  0  0  0  0  0  0  0  0  0  0  0
    0.5738    0.3100    8.8377 H   0  0  0  0  0  0  0  0  0  0  0  0
    1.8752   -0.2605    9.8325 H   0  0  0  0  0  0  0  0  0  0  0  0
    3.1981    0.0791    6.7516 H   0  0  0  0  0  0  0  0  0  0  0  0
    0.9417   -0.1549    6.0216 H   0  0  0  0  0  0  0  0  0  0  0  0
   -2.2761   -1.7088    6.2687 H   0  0  0  0  0  0  0  0  0  0  0  0
   -2.8960    0.2189    5.8357 H   0  0  0  0  0  0  0  0  0  0  0  0
   -2.5597    0.4003    3.7300 H   0  0  0  0  0  0  0  0  0  0  0  0
   -0.1188    1.4904    6.0874 H   0  0  0  0  0  0  0  0  0  0  0  0
   -1.6572    2.4089    5.8953 H   0  0  0  0  0  0  0  0  0  0  0  0
   -0.8439    2.0099    8.0798 H   0  0  0  0  0  0  0  0  0  0  0  0
   -1.1994   -3.0315    4.9783 H   0  0  0  0  0  0  0  0  0  0  0  0
   -0.9464   -1.7626    3.8704 H   0  0  0  0  0  0  0  0  0  0  0  0
    1.0316   -1.4344    4.4075 H   0  0  0  0  0  0  0  0  0  0  0  0
    3.3369   -5.1467    9.9125 H   0  0  0  0  0  0  0  0  0  0  0  0
    0.9166   -3.9731   10.0039 H   0  0  0  0  0  0  0  0  0  0  0  0
    2.4657   -6.7350    8.0959 H   0  0  0  0  0  0  0  0  0  0  0  0
    1.7586   -7.2645   10.0315 H   0  0  0  0  0  0  0  0  0  0  0  0
    0.2532   -7.2724    6.7220 H   0  0  0  0  0  0  0  0  0  0  0  0
   -0.1100   -4.2516    6.0610 H   0  0  0  0  0  0  0  0  0  0  0  0
    0.6824   -2.8550    8.0557 H   0  0  0  0  0  0  0  0  0  0  0  0
   -1.4551   -3.5151    8.8772 H   0  0  0  0  0  0  0  0  0  0  0  0
   -1.8351   -5.1646    8.5499 H   0  0  0  0  0  0  0  0  0  0  0  0
   -1.7013   -4.0421    7.2130 H   0  0  0  0  0  0  0  0  0  0  0  0
    5.0330   -9.0606    7.9309 H   0  0  0  0  0  0  0  0  0  0  0  0
    3.9065   -8.0001    8.6040 H   0  0  0  0  0  0  0  0  0  0  0  0
    5.5478   -7.4989    8.3107 H   0  0  0  0  0  0  0  0  0  0  0  0
    6.5080   -7.4635    3.8477 H   0  0  0  0  0  0  0  0  0  0  0  0
    8.8951   -7.2433    6.4767 H   0  0  0  0  0  0  0  0  0  0  0  0
    8.2690   -7.3505    4.8466 H   0  0  0  0  0  0  0  0  0  0  0  0
    8.3433   -8.7804    5.8714 H   0  0  0  0  0  0  0  0  0  0  0  0
    6.5532   -9.5205    4.6082 H   0  0  0  0  0  0  0  0  0  0  0  0
    5.9542   -9.8187    6.2709 H   0  0  0  0  0  0  0  0  0  0  0  0
    4.2403   -9.0883    3.8313 H   0  0  0  0  0  0  0  0  0  0  0  0
    6.3216  -10.5107    3.0522 H   0  0  0  0  0  0  0  0  0  0  0  0
    4.8342  -10.3673    2.0971 H   0  0  0  0  0  0  0  0  0  0  0  0
    5.8145  -11.7893    1.9267 H   0  0  0  0  0  0  0  0  0  0  0  0
    2.5032  -10.3648    6.3566 H   0  0  0  0  0  0  0  0  0  0  0  0
  1  2  2  0
  1 67  1  0
  1 68  1  0
  2  3  1  0
  2 69  1  0
  3 25  1  0
  3  4  1  1
  3  5  1  0
  4 70  1  0
  5  6  1  0
  5 71  1  0
  5 72  1  0
  6  7  1  0
  6  8  1  6
  6  9  1  0
  7 73  1  0
  7 74  1  0
  7 75  1  0
  8 76  1  0
  9 41  1  0
  9 49  1  0
  9 10  1  6
 10 11  1  0
 11 19  1  0
 11 12  1  0
 11 77  1  6
 12 13  1  0
 12 14  1  0
 12 78  1  1
 13 79  1  0
 14 15  1  0
 15 16  1  0
 15 17  1  0
 15 18  1  0
 16 80  1  0
 16 81  1  0
 16 82  1  0
 17 83  1  0
 17 84  1  0
 17 85  1  0
 18 65  1  0
 18 19  1  0
 18 86  1  1
 19 20  1  0
 19 87  1  6
 20 21  1  0
 20 53  1  0
 20 88  1  6
 42 21  1  6
 21 22  1  1
 21 23  1  0
 22 89  1  0
 23 24  2  0
 23 90  1  0
 24 25  1  0
 24 91  1  0
 25 26  1  1
 27 25  1  6
 26 92  1  0
 26 93  1  0
 26 94  1  0
 27 28  2  0
 27 29  1  0
 29 30  1  0
 29 42  1  0
 29 95  1  1
 30 31  1  0
 30 32  1  6
 30 33  1  0
 31 96  1  0
 31 97  1  0
 31 98  1  0
 32 99  1  0
 33 41  1  0
 33 34  1  0
 33100  1  6
 34 35  1  0
 35 36  1  0
 35 40  1  0
 35101  1  1
 36 37  1  0
 36 38  1  0
 36102  1  1
 37103  1  0
 38 39  1  0
 38104  1  0
 38105  1  0
 39106  1  0
 40 41  1  0
 40107  1  0
 40108  1  0
 41109  1  6
 42 50  1  0
 42 43  1  0
 43 44  1  0
 43 45  1  0
 43110  1  1
 44111  1  0
 45 46  1  0
 45 47  1  0
 45112  1  6
 46113  1  0
 47 51  1  0
 47 48  1  6
 47 49  1  0
 48114  1  0
 49 50  1  0
 49115  1  6
 50 51  1  0
 50116  1  6
 51 52  1  0
 52117  1  0
 52118  1  0
 52119  1  0
 53 65  1  0
 53 54  1  1
 53 55  1  0
 54120  1  0
 54121  1  0
 54122  1  0
 55 56  1  6
 55 57  1  0
 55 59  1  0
 56123  1  0
 57 58  1  0
 58124  1  0
 58125  1  0
 58126  1  0
 59 60  1  0
 59127  1  0
 59128  1  0
 60 61  1  0
 60 65  1  0
 60129  1  6
 61 62  1  0
 62 63  1  0
 62 64  2  0
 63130  1  0
 63131  1  0
 63132  1  0
 65 66  1  1
 66133  1  0
M  END
>  <i_m_ct_stereo_status>  (10) 
1

>  <s_m_source_file>  (10) 
/var/tmp/pbs.5075288.sched01/tmphozr6t3_/0veliry26.sdf

>  <i_m_source_file_index>  (10) 
55

>  <i_lp_mmshare_version>  (10) 
48012

>  <i_f3d_flags>  (10) 
0

>  <s_epik_input>  (10) 
W09IXVtDSDJdW0NAQEhdKFtPSF0pW0NAQEhdKFtDSDJdMSlPW0NASF0oW0NASF0xW0NAXTIzNClbQ0BdKFtDSDNdKShbT0hdKVtDSF01W0NAQF02KFtDQEhdN1tDQEBIXTRbQ0BdKFtPSF0pKE43W0NIM10pW0NASF0oW09IXSlbQ0BASF02W09IXSlbQ0BdKFtPSF0pKFtDSF09W0NIXVtDQF0oW0NIM10pKFtTK101W08tXSlbQ0BAXShbT0hdKShbQ0hdPVtDSDJdKVtDSDJdW0NAQF0yKFtDSDNdKVtPSF0pW0NAQEhdOFtDQEBIXTlbQ0BIXShPMylbQ0BASF0oW09IXSlPQyhbQ0gzXSkoW0NIM10pW0NASF05W0NAXTEoW09IXSlbQ0BAXTgoW0NIM10pW0NAQF0oW09IXSkoT1tDSDNdKVtDSDJdW0NASF0xT0MoPU8pW0NIM10=

>  <s_epik_cmdline>  (10) 
J2VwaWtfcHl0aG9uJywgJy1waHQnLCAnMi4wJywgJy1waCcsICc3LjAnLCAnLXRuJywgJzgnLCAnLW1hJywgJzIwMCcsICctaW1hZScsICc8aW5maWxlLm1hZT4nLCAnLW9tYWUnLCAnPG91dGZpbGUubWFlPic=

>  <r_epik_Ionization_Penalty>  (10) 
1.14418

>  <r_epik_Ionization_Penalty_Charging>  (10) 
0

>  <r_epik_Ionization_Penalty_Neutral>  (10) 
1.14418

>  <r_epik_State_Penalty>  (10) 
1.31618

>  <r_epik_Charging_Adjusted_Penalty>  (10) 
1.31618

>  <i_epik_Tot_Q>  (10) 
0

>  <i_epik_Tot_abs_Q>  (10) 
2

>  <s_epik_Chemistry_Notes>  (10) 
This compound has an ester and may undergo hydrolysis at high or low pH. This compound contains an acetal/aminal-like group ( X-CH(R)-Y where X, Y are N, S, or O) that may be acid/base labile, releasing an aldehyde.

>  <s_lp_Force_Field>  (10) 
OPLS3e

>  <r_lp_Energy>  (10) 
482.904

>  <b_lp_Chiralities_Consistent>  (10) 
1

>  <s_lp_Variant>  (10) 
7:0-17

>  <s_i_glide_gridfile>  (10) 
pfpi4k_grid

>  <i_i_glide_lignum>  (10) 
55

>  <i_i_glide_rotatable_bonds>  (10) 
18

>  <r_i_docking_score>  (10) 
-3.33315

>  <r_i_glide_ligand_efficiency>  (10) 
-0.0505023

>  <r_i_glide_ligand_efficiency_sa>  (10) 
-0.204092

>  <r_i_glide_ligand_efficiency_ln>  (10) 
-0.642269

>  <r_i_glide_gscore>  (10) 
-3.33315

>  <r_i_glide_lipo>  (10) 
-0.327427

>  <r_i_glide_hbond>  (10) 
-0.324854

>  <r_i_glide_metal>  (10) 
-0

>  <r_i_glide_rewards>  (10) 
-0.5

>  <r_i_glide_evdw>  (10) 
-20.3931

>  <r_i_glide_ecoul>  (10) 
-7.88629

>  <r_i_glide_erotb>  (10) 
0.0966741

>  <r_i_glide_esite>  (10) 
-0.0749511

>  <r_i_glide_emodel>  (10) 
-27.337

>  <r_i_glide_energy>  (10) 
-28.2793

>  <r_i_glide_einternal>  (10) 
16.9639

>  <r_i_glide_intrahb_reward>  (10) 
-0.5

>  <i_i_glide_confnum>  (10) 
1

>  <i_i_glide_posenum>  (10) 
2

>  <r_i_glide_eff_state_penalty>  (10) 
0

>  <ligand_id>  (10) 
7

>  <original_smiles>  (10) 
C=CC1(O)CC(C)(O)C23OC4C(O)OC(C)(C)C5C4C(C4(O)C=CC1(C)[S+]([O-])C(C(C)(O)C1OC(C(O)CO)CC12)C41C(O)C(O)C2(O)C3C1N2C)C1(C)C(O)(OC)CC(OC(C)=O)C51O

>  <smiles>  (10) 
[H]OC([H])([H])C([H])(O[H])C1([H])OC2([H])C([H])(C1([H])[H])C13OC4([H])C([H])(O[H])OC(C([H])([H])[H])(C([H])([H])[H])C5([H])C4([H])C([H])(C4(O[H])C([H])=C([H])C(C([H])([H])[H])(S(=O)C([H])(C2(O[H])C([H])([H])[H])C42C([H])(O[H])C([H])(O[H])C4(O[H])N(C([H])([H])[H])C2([H])C41[H])C(O[H])(C([H])=C([H])[H])C([H])([H])C3(O[H])C([H])([H])[H])C1(C([H])([H])[H])C(O[H])(OC([H])([H])[H])C([H])([H])C([H])(OC(=O)C([H])([H])[H])C51O[H]

$$$$
7:16:1
     RDKit          3D

133142  0  0  1  0  0  0  0  0999 V2000
    6.2337   -0.6899    3.0843 C   0  0  0  0  0  0  0  0  0  0  0  0
    5.7909   -1.6752    3.8291 C   0  0  0  0  0  0  0  0  0  0  0  0
    4.9788   -1.6040    5.1454 C   0  0  1  0  0  0  0  0  0  0  0  0
    4.7286   -0.2404    5.4241 O   0  0  0  0  0  0  0  0  0  0  0  0
    3.6059   -2.2279    4.8899 C   0  0  0  0  0  0  0  0  0  0  0  0
    3.1614   -3.5783    4.2246 C   0  0  1  0  0  0  0  0  0  0  0  0
    2.9531   -3.2100    2.7145 C   0  0  0  0  0  0  0  0  0  0  0  0
    4.2710   -4.3850    4.0328 O   0  0  0  0  0  0  0  0  0  0  0  0
    1.8029   -4.2723    4.8925 C   0  0  2  0  0  0  0  0  0  0  0  0
    1.3592   -5.2218    3.9578 O   0  0  0  0  0  0  0  0  0  0  0  0
    2.1956   -6.3712    3.6767 C   0  0  2  0  0  0  0  0  0  0  0  0
    1.2237   -7.3061    2.9263 C   0  0  1  0  0  0  0  0  0  0  0  0
    0.9420   -6.7510    1.6675 O   0  0  0  0  0  0  0  0  0  0  0  0
    1.7812   -8.5588    2.7365 O   0  0  0  0  0  0  0  0  0  0  0  0
    1.8890   -9.4204    3.8664 C   0  0  0  0  0  0  0  0  0  0  0  0
    0.4920   -9.8206    4.4158 C   0  0  0  0  0  0  0  0  0  0  0  0
    2.4181  -10.6799    3.1673 C   0  0  0  0  0  0  0  0  0  0  0  0
    2.7968   -8.7183    4.9602 C   0  0  2  0  0  0  0  0  0  0  0  0
    3.0804   -7.2100    4.7434 C   0  0  2  0  0  0  0  0  0  0  0  0
    4.1950   -6.7465    5.8326 C   0  0  1  0  0  0  0  0  0  0  0  0
    4.3412   -5.3807    6.8433 C   0  0  1  0  0  0  0  0  0  0  0  0
    5.1377   -5.8998    7.8602 O   0  0  0  0  0  0  0  0  0  0  0  0
    5.6602   -4.7261    6.3314 C   0  0  0  0  0  0  0  0  0  0  0  0
    6.2316   -3.5350    6.1395 C   0  0  0  0  0  0  0  0  0  0  0  0
    5.7562   -2.1708    6.4260 C   0  0  1  0  0  0  0  0  0  0  0  0
    6.9856   -1.2909    6.8321 C   0  0  0  0  0  0  0  0  0  0  0  0
    4.8883   -2.1843    8.0945 S   0  0  0  0  0  0  0  0  0  0  0  0
    5.7481   -2.9758    9.0828 O   0  0  0  0  0  0  0  0  0  0  0  0
    3.2016   -2.9813    8.0817 C   0  0  1  0  0  0  0  0  0  0  0  0
    2.0480   -1.8662    7.6383 C   0  0  1  0  0  0  0  0  0  0  0  0
    1.2620   -1.4470    8.9227 C   0  0  0  0  0  0  0  0  0  0  0  0
    2.6546   -0.5961    7.3885 O   0  0  0  0  0  0  0  0  0  0  0  0
    0.9594   -2.0555    6.4074 C   0  0  2  0  0  0  0  0  0  0  0  0
   -0.3876   -2.1351    6.9288 O   0  0  0  0  0  0  0  0  0  0  0  0
   -1.3148   -2.2489    5.8760 C   0  0  1  0  0  0  0  0  0  0  0  0
   -1.8541   -0.8471    5.4883 C   0  0  2  0  0  0  0  0  0  0  0  0
   -2.9408   -1.0687    4.6224 O   0  0  0  0  0  0  0  0  0  0  0  0
   -0.8947    0.1192    4.7539 C   0  0  0  0  0  0  0  0  0  0  0  0
   -0.0240    0.8046    5.6009 O   0  0  0  0  0  0  0  0  0  0  0  0
   -0.5778   -3.0196    4.7835 C   0  0  0  0  0  0  0  0  0  0  0  0
    0.9212   -2.9413    5.0674 C   0  0  2  0  0  0  0  0  0  0  0  0
    3.1011   -4.5838    7.8139 C   0  0  2  0  0  0  0  0  0  0  0  0
    2.9479   -5.5863    9.0372 C   0  0  1  0  0  0  0  0  0  0  0  0
    2.2204   -5.0506   10.1468 O   0  0  0  0  0  0  0  0  0  0  0  0
    2.3023   -6.8706    8.2964 C   0  0  1  0  0  0  0  0  0  0  0  0
    1.7729   -7.8018    9.2341 O   0  0  0  0  0  0  0  0  0  0  0  0
    1.2973   -6.4637    7.1119 C   0  0  2  0  0  0  0  0  0  0  0  0
    0.4089   -7.5063    6.7849 O   0  0  0  0  0  0  0  0  0  0  0  0
    1.2719   -5.1089    6.1800 C   0  0  1  0  0  0  0  0  0  0  0  0
    1.5239   -4.5704    7.4947 C   0  0  1  0  0  0  0  0  0  0  0  0
    0.5988   -5.6067    8.0085 N   0  0  0  0  0  0  0  0  0  0  0  0
   -0.8764   -5.3946    8.0445 C   0  0  0  0  0  0  0  0  0  0  0  0
    5.0142   -8.1485    6.0966 C   0  0  2  0  0  0  0  0  0  0  0  0
    5.4416   -8.5744    7.5692 C   0  0  0  0  0  0  0  0  0  0  0  0
    6.3861   -8.2227    5.2645 C   0  0  1  0  0  0  0  0  0  0  0  0
    6.3501   -7.5675    4.0073 O   0  0  0  0  0  0  0  0  0  0  0  0
    7.4762   -7.7589    6.0238 O   0  0  0  0  0  0  0  0  0  0  0  0
    8.7918   -7.9151    5.4748 C   0  0  0  0  0  0  0  0  0  0  0  0
    6.5377   -9.6952    4.9479 C   0  0  0  0  0  0  0  0  0  0  0  0
    5.1229  -10.0647    4.4818 C   0  0  1  0  0  0  0  0  0  0  0  0
    4.9886  -11.4912    4.3781 O   0  0  0  0  0  0  0  0  0  0  0  0
    5.4515  -12.1828    3.3015 C   0  0  0  0  0  0  0  0  0  0  0  0
    6.2200  -11.3592    2.2654 C   0  0  0  0  0  0  0  0  0  0  0  0
    5.2955  -13.3900    3.1365 O   0  0  0  0  0  0  0  0  0  0  0  0
    4.1489   -9.3419    5.4629 C   0  0  2  0  0  0  0  0  0  0  0  0
    3.7617  -10.3079    6.4313 O   0  0  0  0  0  0  0  0  0  0  0  0
    6.0685    0.3597    3.2792 H   0  0  0  0  0  0  0  0  0  0  0  0
    6.8679   -0.9081    2.2137 H   0  0  0  0  0  0  0  0  0  0  0  0
    6.0681   -2.6845    3.5404 H   0  0  0  0  0  0  0  0  0  0  0  0
    4.2403    0.1229    4.6948 H   0  0  0  0  0  0  0  0  0  0  0  0
    3.3492   -2.4651    5.8623 H   0  0  0  0  0  0  0  0  0  0  0  0
    2.9644   -1.4173    4.5358 H   0  0  0  0  0  0  0  0  0  0  0  0
    2.2360   -2.4148    2.5364 H   0  0  0  0  0  0  0  0  0  0  0  0
    2.6198   -4.0461    2.1069 H   0  0  0  0  0  0  0  0  0  0  0  0
    3.8708   -2.8544    2.2411 H   0  0  0  0  0  0  0  0  0  0  0  0
    4.5441   -4.7209    4.8743 H   0  0  0  0  0  0  0  0  0  0  0  0
    2.8948   -6.0481    2.9067 H   0  0  0  0  0  0  0  0  0  0  0  0
    0.2721   -7.3918    3.4462 H   0  0  0  0  0  0  0  0  0  0  0  0
    1.7502   -6.7875    1.1784 H   0  0  0  0  0  0  0  0  0  0  0  0
    0.5754  -10.5616    5.2119 H   0  0  0  0  0  0  0  0  0  0  0  0
   -0.1338  -10.2632    3.6399 H   0  0  0  0  0  0  0  0  0  0  0  0
   -0.0844   -8.9970    4.8200 H   0  0  0  0  0  0  0  0  0  0  0  0
    2.5978  -11.4993    3.8593 H   0  0  0  0  0  0  0  0  0  0  0  0
    3.3001  -10.4858    2.5606 H   0  0  0  0  0  0  0  0  0  0  0  0
    1.6797  -11.0536    2.4646 H   0  0  0  0  0  0  0  0  0  0  0  0
    2.1957   -8.7332    5.8555 H   0  0  0  0  0  0  0  0  0  0  0  0
    3.7685   -7.4690    3.9303 H   0  0  0  0  0  0  0  0  0  0  0  0
    4.8018   -6.3470    5.0597 H   0  0  0  0  0  0  0  0  0  0  0  0
    5.9117   -6.2818    7.4729 H   0  0  0  0  0  0  0  0  0  0  0  0
    6.3816   -5.4613    5.9847 H   0  0  0  0  0  0  0  0  0  0  0  0
    7.2380   -3.5730    5.7396 H   0  0  0  0  0  0  0  0  0  0  0  0
    7.7216   -1.0450    6.1152 H   0  0  0  0  0  0  0  0  0  0  0  0
    7.6292   -1.7474    7.5838 H   0  0  0  0  0  0  0  0  0  0  0  0
    6.7419   -0.2678    7.0919 H   0  0  0  0  0  0  0  0  0  0  0  0
    3.0986   -2.9586    9.1590 H   0  0  0  0  0  0  0  0  0  0  0  0
    0.6952   -2.2746    9.3449 H   0  0  0  0  0  0  0  0  0  0  0  0
    0.5460   -0.6385    8.7485 H   0  0  0  0  0  0  0  0  0  0  0  0
    1.9247   -1.0968    9.7140 H   0  0  0  0  0  0  0  0  0  0  0  0
    3.1495   -0.6104    6.5760 H   0  0  0  0  0  0  0  0  0  0  0  0
    1.0924   -1.1655    5.9272 H   0  0  0  0  0  0  0  0  0  0  0  0
   -2.1412   -2.8602    6.2647 H   0  0  0  0  0  0  0  0  0  0  0  0
   -2.2807   -0.3519    6.3610 H   0  0  0  0  0  0  0  0  0  0  0  0
   -3.1554   -0.2582    4.1717 H   0  0  0  0  0  0  0  0  0  0  0  0
   -0.4533   -0.3996    3.8874 H   0  0  0  0  0  0  0  0  0  0  0  0
   -1.4525    0.9708    4.3643 H   0  0  0  0  0  0  0  0  0  0  0  0
    0.7191    1.0518    5.1222 H   0  0  0  0  0  0  0  0  0  0  0  0
   -0.8797   -4.0352    4.7887 H   0  0  0  0  0  0  0  0  0  0  0  0
   -0.8396   -2.6268    3.8070 H   0  0  0  0  0  0  0  0  0  0  0  0
    1.1242   -2.2646    4.2466 H   0  0  0  0  0  0  0  0  0  0  0  0
    3.8310   -5.8442    9.6098 H   0  0  0  0  0  0  0  0  0  0  0  0
    2.7061   -4.3188   10.4945 H   0  0  0  0  0  0  0  0  0  0  0  0
    3.0508   -7.4681    7.8333 H   0  0  0  0  0  0  0  0  0  0  0  0
    2.4824   -8.1058    9.7791 H   0  0  0  0  0  0  0  0  0  0  0  0
    0.9459   -8.2649    6.6048 H   0  0  0  0  0  0  0  0  0  0  0  0
    0.2278   -5.1875    5.8941 H   0  0  0  0  0  0  0  0  0  0  0  0
    0.9301   -3.7779    7.8795 H   0  0  0  0  0  0  0  0  0  0  0  0
   -1.1358   -4.6182    8.7663 H   0  0  0  0  0  0  0  0  0  0  0  0
   -1.3680   -6.2820    8.4300 H   0  0  0  0  0  0  0  0  0  0  0  0
   -1.3611   -5.1424    7.1034 H   0  0  0  0  0  0  0  0  0  0  0  0
    5.8559   -9.5824    7.6072 H   0  0  0  0  0  0  0  0  0  0  0  0
    4.6396   -8.5842    8.2978 H   0  0  0  0  0  0  0  0  0  0  0  0
    6.2424   -7.9769    8.0036 H   0  0  0  0  0  0  0  0  0  0  0  0
    7.1061   -7.8532    3.5154 H   0  0  0  0  0  0  0  0  0  0  0  0
    9.5010   -7.3850    6.1075 H   0  0  0  0  0  0  0  0  0  0  0  0
    8.9002   -7.5020    4.4678 H   0  0  0  0  0  0  0  0  0  0  0  0
    9.1058   -8.9580    5.4486 H   0  0  0  0  0  0  0  0  0  0  0  0
    7.3289   -9.7881    4.2220 H   0  0  0  0  0  0  0  0  0  0  0  0
    6.8436  -10.2933    5.8076 H   0  0  0  0  0  0  0  0  0  0  0  0
    4.9516   -9.6038    3.5148 H   0  0  0  0  0  0  0  0  0  0  0  0
    7.1155  -10.9474    2.6968 H   0  0  0  0  0  0  0  0  0  0  0  0
    5.5955  -10.5509    1.8770 H   0  0  0  0  0  0  0  0  0  0  0  0
    6.5908  -11.9644    1.4371 H   0  0  0  0  0  0  0  0  0  0  0  0
    3.2179  -10.9669    6.0186 H   0  0  0  0  0  0  0  0  0  0  0  0
  1  2  2  0
  1 67  1  0
  1 68  1  0
  2  3  1  0
  2 69  1  0
  3 25  1  0
  3  4  1  1
  3  5  1  0
  4 70  1  0
  5  6  1  0
  5 71  1  0
  5 72  1  0
  6  7  1  0
  6  8  1  6
  6  9  1  0
  7 73  1  0
  7 74  1  0
  7 75  1  0
  8 76  1  0
  9 41  1  0
  9 49  1  0
  9 10  1  6
 10 11  1  0
 11 19  1  0
 11 12  1  0
 11 77  1  6
 12 13  1  0
 12 14  1  0
 12 78  1  1
 13 79  1  0
 14 15  1  0
 15 16  1  0
 15 17  1  0
 15 18  1  0
 16 80  1  0
 16 81  1  0
 16 82  1  0
 17 83  1  0
 17 84  1  0
 17 85  1  0
 18 65  1  0
 18 19  1  0
 18 86  1  1
 19 20  1  0
 19 87  1  6
 20 21  1  0
 20 53  1  0
 20 88  1  6
 42 21  1  6
 21 22  1  1
 21 23  1  0
 22 89  1  0
 23 24  2  0
 23 90  1  0
 24 25  1  0
 24 91  1  0
 25 26  1  1
 27 25  1  6
 26 92  1  0
 26 93  1  0
 26 94  1  0
 27 28  2  0
 27 29  1  0
 29 30  1  0
 29 42  1  0
 29 95  1  1
 30 31  1  0
 30 32  1  6
 30 33  1  0
 31 96  1  0
 31 97  1  0
 31 98  1  0
 32 99  1  0
 33 41  1  0
 33 34  1  0
 33100  1  6
 34 35  1  0
 35 36  1  0
 35 40  1  0
 35101  1  1
 36 37  1  0
 36 38  1  0
 36102  1  1
 37103  1  0
 38 39  1  0
 38104  1  0
 38105  1  0
 39106  1  0
 40 41  1  0
 40107  1  0
 40108  1  0
 41109  1  6
 42 50  1  0
 42 43  1  0
 43 44  1  0
 43 45  1  0
 43110  1  1
 44111  1  0
 45 46  1  0
 45 47  1  0
 45112  1  6
 46113  1  0
 47 51  1  0
 47 48  1  6
 47 49  1  0
 48114  1  0
 49 50  1  0
 49115  1  6
 50 51  1  0
 50116  1  6
 51 52  1  0
 52117  1  0
 52118  1  0
 52119  1  0
 53 65  1  0
 53 54  1  1
 53 55  1  0
 54120  1  0
 54121  1  0
 54122  1  0
 55 56  1  6
 55 57  1  0
 55 59  1  0
 56123  1  0
 57 58  1  0
 58124  1  0
 58125  1  0
 58126  1  0
 59 60  1  0
 59127  1  0
 59128  1  0
 60 61  1  0
 60 65  1  0
 60129  1  6
 61 62  1  0
 62 63  1  0
 62 64  2  0
 63130  1  0
 63131  1  0
 63132  1  0
 65 66  1  1
 66133  1  0
M  END
>  <i_m_ct_stereo_status>  (11) 
1

>  <s_m_source_file>  (11) 
/var/tmp/pbs.5075288.sched01/tmphozr6t3_/0veliry26.sdf

>  <i_m_source_file_index>  (11) 
55

>  <i_lp_mmshare_version>  (11) 
48012

>  <i_f3d_flags>  (11) 
0

>  <s_epik_input>  (11) 
W09IXVtDSDJdW0NAQEhdKFtPSF0pW0NAQEhdKFtDSDJdMSlPW0NASF0oW0NASF0xW0NAXTIzNClbQ0BdKFtDSDNdKShbT0hdKVtDSF01W0NAQF02KFtDQEhdN1tDQEBIXTRbQ0BdKFtPSF0pKE43W0NIM10pW0NASF0oW09IXSlbQ0BASF02W09IXSlbQ0BdKFtPSF0pKFtDSF09W0NIXVtDQF0oW0NIM10pKFtTK101W08tXSlbQ0BAXShbT0hdKShbQ0hdPVtDSDJdKVtDSDJdW0NAQF0yKFtDSDNdKVtPSF0pW0NAQEhdOFtDQEBIXTlbQ0BIXShPMylbQ0BASF0oW09IXSlPQyhbQ0gzXSkoW0NIM10pW0NASF05W0NAXTEoW09IXSlbQ0BAXTgoW0NIM10pW0NAQF0oW09IXSkoT1tDSDNdKVtDSDJdW0NASF0xT0MoPU8pW0NIM10=

>  <s_epik_cmdline>  (11) 
J2VwaWtfcHl0aG9uJywgJy1waHQnLCAnMi4wJywgJy1waCcsICc3LjAnLCAnLXRuJywgJzgnLCAnLW1hJywgJzIwMCcsICctaW1hZScsICc8aW5maWxlLm1hZT4nLCAnLW9tYWUnLCAnPG91dGZpbGUubWFlPic=

>  <r_epik_Ionization_Penalty>  (11) 
1.14418

>  <r_epik_Ionization_Penalty_Charging>  (11) 
0

>  <r_epik_Ionization_Penalty_Neutral>  (11) 
1.14418

>  <r_epik_State_Penalty>  (11) 
1.31618

>  <r_epik_Charging_Adjusted_Penalty>  (11) 
1.31618

>  <i_epik_Tot_Q>  (11) 
0

>  <i_epik_Tot_abs_Q>  (11) 
2

>  <s_epik_Chemistry_Notes>  (11) 
This compound has an ester and may undergo hydrolysis at high or low pH. This compound contains an acetal/aminal-like group ( X-CH(R)-Y where X, Y are N, S, or O) that may be acid/base labile, releasing an aldehyde.

>  <s_lp_Force_Field>  (11) 
OPLS3e

>  <r_lp_Energy>  (11) 
482.904

>  <b_lp_Chiralities_Consistent>  (11) 
1

>  <s_lp_Variant>  (11) 
7:0-17

>  <s_i_glide_gridfile>  (11) 
pfpi4k_grid

>  <i_i_glide_lignum>  (11) 
55

>  <i_i_glide_rotatable_bonds>  (11) 
18

>  <r_i_docking_score>  (11) 
-2.66952

>  <r_i_glide_ligand_efficiency>  (11) 
-0.0404473

>  <r_i_glide_ligand_efficiency_sa>  (11) 
-0.163457

>  <r_i_glide_ligand_efficiency_ln>  (11) 
-0.514393

>  <r_i_glide_gscore>  (11) 
-2.66952

>  <r_i_glide_lipo>  (11) 
-0.340901

>  <r_i_glide_hbond>  (11) 
-0.248633

>  <r_i_glide_metal>  (11) 
-0

>  <r_i_glide_rewards>  (11) 
-0.5

>  <r_i_glide_evdw>  (11) 
-4.99217

>  <r_i_glide_ecoul>  (11) 
-9.07351

>  <r_i_glide_erotb>  (11) 
0.0966741

>  <r_i_glide_esite>  (11) 
-0.0660279

>  <r_i_glide_emodel>  (11) 
-16.4561

>  <r_i_glide_energy>  (11) 
-14.0657

>  <r_i_glide_einternal>  (11) 
8.01946

>  <r_i_glide_intrahb_reward>  (11) 
-0.5

>  <i_i_glide_confnum>  (11) 
1

>  <i_i_glide_posenum>  (11) 
10

>  <r_i_glide_eff_state_penalty>  (11) 
0

>  <ligand_id>  (11) 
7

>  <original_smiles>  (11) 
C=CC1(O)CC(C)(O)C23OC4C(O)OC(C)(C)C5C4C(C4(O)C=CC1(C)[S+]([O-])C(C(C)(O)C1OC(C(O)CO)CC12)C41C(O)C(O)C2(O)C3C1N2C)C1(C)C(O)(OC)CC(OC(C)=O)C51O

>  <smiles>  (11) 
[H]OC([H])([H])C([H])(O[H])C1([H])OC2([H])C([H])(C1([H])[H])C13OC4([H])C([H])(O[H])OC(C([H])([H])[H])(C([H])([H])[H])C5([H])C4([H])C([H])(C4(O[H])C([H])=C([H])C(C([H])([H])[H])(S(=O)C([H])(C2(O[H])C([H])([H])[H])C42C([H])(O[H])C([H])(O[H])C4(O[H])N(C([H])([H])[H])C2([H])C41[H])C(O[H])(C([H])=C([H])[H])C([H])([H])C3(O[H])C([H])([H])[H])C1(C([H])([H])[H])C(O[H])(OC([H])([H])[H])C([H])([H])C([H])(OC(=O)C([H])([H])[H])C51O[H]

$$$$
7:16:2
     RDKit          3D

133142  0  0  1  0  0  0  0  0999 V2000
    4.6069   -0.5506    0.0763 C   0  0  0  0  0  0  0  0  0  0  0  0
    4.6380   -1.3234    1.1713 C   0  0  0  0  0  0  0  0  0  0  0  0
    4.3079   -0.9220    2.6264 C   0  0  1  0  0  0  0  0  0  0  0  0
    3.9423    0.4392    2.6809 O   0  0  0  0  0  0  0  0  0  0  0  0
    3.0580   -1.6669    3.1239 C   0  0  0  0  0  0  0  0  0  0  0  0
    2.6301   -3.1757    3.0441 C   0  0  1  0  0  0  0  0  0  0  0  0
    1.8642   -3.2314    1.7167 C   0  0  0  0  0  0  0  0  0  0  0  0
    3.6591   -3.9854    2.5686 O   0  0  0  0  0  0  0  0  0  0  0  0
    1.7479   -3.7036    4.3587 C   0  0  2  0  0  0  0  0  0  0  0  0
    1.1388   -4.9012    3.9271 O   0  0  0  0  0  0  0  0  0  0  0  0
    1.9608   -6.0527    3.6023 C   0  0  2  0  0  0  0  0  0  0  0  0
    0.9362   -7.2045    3.5535 C   0  0  1  0  0  0  0  0  0  0  0  0
    0.0952   -7.0193    2.4362 O   0  0  0  0  0  0  0  0  0  0  0  0
    1.5739   -8.4294    3.4444 O   0  0  0  0  0  0  0  0  0  0  0  0
    2.2387   -8.9421    4.5928 C   0  0  0  0  0  0  0  0  0  0  0  0
    1.2414   -9.2488    5.7455 C   0  0  0  0  0  0  0  0  0  0  0  0
    2.6531  -10.3235    4.0483 C   0  0  0  0  0  0  0  0  0  0  0  0
    3.3714   -7.9184    5.0297 C   0  0  2  0  0  0  0  0  0  0  0  0
    3.3034   -6.5167    4.3712 C   0  0  2  0  0  0  0  0  0  0  0  0
    4.6522   -5.7145    4.7776 C   0  0  1  0  0  0  0  0  0  0  0  0
    4.9669   -4.1174    5.2910 C   0  0  1  0  0  0  0  0  0  0  0  0
    6.1773   -4.2664    5.9677 O   0  0  0  0  0  0  0  0  0  0  0  0
    5.7907   -3.5729    4.1284 C   0  0  0  0  0  0  0  0  0  0  0  0
    5.9528   -2.4663    3.3882 C   0  0  0  0  0  0  0  0  0  0  0  0
    5.5171   -1.0929    3.6031 C   0  0  1  0  0  0  0  0  0  0  0  0
    6.6537   -0.1613    3.1720 C   0  0  0  0  0  0  0  0  0  0  0  0
    5.3981   -0.6700    5.4269 S   0  0  0  0  0  0  0  0  0  0  0  0
    6.6545   -1.0993    6.1726 O   0  0  0  0  0  0  0  0  0  0  0  0
    3.9894   -1.5289    6.2892 C   0  0  1  0  0  0  0  0  0  0  0  0
    2.6047   -0.6252    6.0995 C   0  0  1  0  0  0  0  0  0  0  0  0
    2.3389    0.0752    7.4699 C   0  0  0  0  0  0  0  0  0  0  0  0
    2.8715    0.5515    5.3438 O   0  0  0  0  0  0  0  0  0  0  0  0
    1.1689   -1.1590    5.4726 C   0  0  2  0  0  0  0  0  0  0  0  0
    0.2104   -1.2526    6.5299 O   0  0  0  0  0  0  0  0  0  0  0  0
   -1.0419   -1.6869    6.0519 C   0  0  1  0  0  0  0  0  0  0  0  0
   -1.9247   -0.4789    5.6040 C   0  0  2  0  0  0  0  0  0  0  0  0
   -1.8866   -0.3471    4.2012 O   0  0  0  0  0  0  0  0  0  0  0  0
   -1.4913    0.8937    6.1553 C   0  0  0  0  0  0  0  0  0  0  0  0
   -1.7355    1.0057    7.5401 O   0  0  0  0  0  0  0  0  0  0  0  0
   -0.6805   -2.7156    4.9797 C   0  0  0  0  0  0  0  0  0  0  0  0
    0.7741   -2.4334    4.5627 C   0  0  2  0  0  0  0  0  0  0  0  0
    4.0681   -3.1448    6.4687 C   0  0  2  0  0  0  0  0  0  0  0  0
    4.5708   -3.7819    7.8380 C   0  0  1  0  0  0  0  0  0  0  0  0
    4.2571   -3.0006    8.9981 O   0  0  0  0  0  0  0  0  0  0  0  0
    3.9073   -5.2577    7.7455 C   0  0  1  0  0  0  0  0  0  0  0  0
    3.9190   -5.9146    9.0056 O   0  0  0  0  0  0  0  0  0  0  0  0
    2.4710   -5.2434    7.0317 C   0  0  2  0  0  0  0  0  0  0  0  0
    1.7025   -6.3983    7.3227 O   0  0  0  0  0  0  0  0  0  0  0  0
    1.8770   -4.1971    5.9028 C   0  0  1  0  0  0  0  0  0  0  0  0
    2.5153   -3.3013    6.8275 C   0  0  1  0  0  0  0  0  0  0  0  0
    2.0405   -4.2069    7.9120 N   0  0  0  0  0  0  0  0  0  0  0  0
    0.6836   -4.0773    8.4969 C   0  0  0  0  0  0  0  0  0  0  0  0
    5.7371   -6.9421    4.9912 C   0  0  2  0  0  0  0  0  0  0  0  0
    6.7540   -6.9246    6.2093 C   0  0  0  0  0  0  0  0  0  0  0  0
    6.6825   -7.1694    3.7150 C   0  0  1  0  0  0  0  0  0  0  0  0
    6.0737   -6.8835    2.4684 O   0  0  0  0  0  0  0  0  0  0  0  0
    7.8845   -6.4526    3.8153 O   0  0  0  0  0  0  0  0  0  0  0  0
    8.9367   -6.7584    2.8939 C   0  0  0  0  0  0  0  0  0  0  0  0
    6.9358   -8.6551    3.7137 C   0  0  0  0  0  0  0  0  0  0  0  0
    5.5265   -9.2172    3.9478 C   0  0  1  0  0  0  0  0  0  0  0  0
    5.6155  -10.6177    4.2425 O   0  0  0  0  0  0  0  0  0  0  0  0
    5.9769  -11.5521    3.3078 C   0  0  0  0  0  0  0  0  0  0  0  0
    6.2210  -11.0175    1.8967 C   0  0  0  0  0  0  0  0  0  0  0  0
    6.1189  -12.7469    3.5555 O   0  0  0  0  0  0  0  0  0  0  0  0
    4.9020   -8.3103    5.0623 C   0  0  2  0  0  0  0  0  0  0  0  0
    5.0690   -8.9986    6.3008 O   0  0  0  0  0  0  0  0  0  0  0  0
    4.3383    0.4931    0.1127 H   0  0  0  0  0  0  0  0  0  0  0  0
    4.8547   -0.9646   -0.8920 H   0  0  0  0  0  0  0  0  0  0  0  0
    4.9445   -2.3475    1.0109 H   0  0  0  0  0  0  0  0  0  0  0  0
    3.2568    0.5849    2.0474 H   0  0  0  0  0  0  0  0  0  0  0  0
    3.2262   -1.6373    4.1438 H   0  0  0  0  0  0  0  0  0  0  0  0
    2.2079   -1.0235    2.8966 H   0  0  0  0  0  0  0  0  0  0  0  0
    1.0160   -2.5271    1.7027 H   0  0  0  0  0  0  0  0  0  0  0  0
    1.4257   -4.2237    1.5441 H   0  0  0  0  0  0  0  0  0  0  0  0
    2.4353   -2.9771    0.8358 H   0  0  0  0  0  0  0  0  0  0  0  0
    4.0264   -3.5732    1.8026 H   0  0  0  0  0  0  0  0  0  0  0  0
    2.2506   -5.9245    2.5601 H   0  0  0  0  0  0  0  0  0  0  0  0
    0.2933   -7.1986    4.4300 H   0  0  0  0  0  0  0  0  0  0  0  0
   -0.3712   -7.8309    2.3101 H   0  0  0  0  0  0  0  0  0  0  0  0
    1.7447   -9.7366    6.5844 H   0  0  0  0  0  0  0  0  0  0  0  0
    0.4453   -9.9218    5.4219 H   0  0  0  0  0  0  0  0  0  0  0  0
    0.7478   -8.3706    6.1507 H   0  0  0  0  0  0  0  0  0  0  0  0
    3.2153  -10.9056    4.7785 H   0  0  0  0  0  0  0  0  0  0  0  0
    3.2052  -10.2566    3.1128 H   0  0  0  0  0  0  0  0  0  0  0  0
    1.7731  -10.9237    3.8027 H   0  0  0  0  0  0  0  0  0  0  0  0
    3.1660   -7.7192    6.0688 H   0  0  0  0  0  0  0  0  0  0  0  0
    3.6637   -6.9573    3.4339 H   0  0  0  0  0  0  0  0  0  0  0  0
    4.8344   -5.5304    3.7497 H   0  0  0  0  0  0  0  0  0  0  0  0
    6.4724   -3.4146    6.2602 H   0  0  0  0  0  0  0  0  0  0  0  0
    6.4000   -4.3640    3.6911 H   0  0  0  0  0  0  0  0  0  0  0  0
    6.6057   -2.5599    2.5416 H   0  0  0  0  0  0  0  0  0  0  0  0
    6.9043   -0.3423    2.1331 H   0  0  0  0  0  0  0  0  0  0  0  0
    7.6117   -0.2515    3.6848 H   0  0  0  0  0  0  0  0  0  0  0  0
    6.4098    0.8967    3.2899 H   0  0  0  0  0  0  0  0  0  0  0  0
    4.3366   -1.2240    7.2740 H   0  0  0  0  0  0  0  0  0  0  0  0
    2.1211   -0.6364    8.2667 H   0  0  0  0  0  0  0  0  0  0  0  0
    1.4955    0.7666    7.4311 H   0  0  0  0  0  0  0  0  0  0  0  0
    3.1983    0.6567    7.8125 H   0  0  0  0  0  0  0  0  0  0  0  0
    3.0537    0.3269    4.4375 H   0  0  0  0  0  0  0  0  0  0  0  0
    0.8039   -0.3230    4.8713 H   0  0  0  0  0  0  0  0  0  0  0  0
   -1.5267   -2.2095    6.8845 H   0  0  0  0  0  0  0  0  0  0  0  0
   -2.9611   -0.6678    5.8884 H   0  0  0  0  0  0  0  0  0  0  0  0
   -2.6528    0.1445    3.9044 H   0  0  0  0  0  0  0  0  0  0  0  0
   -0.4388    1.0747    5.9584 H   0  0  0  0  0  0  0  0  0  0  0  0
   -2.0314    1.6956    5.6520 H   0  0  0  0  0  0  0  0  0  0  0  0
   -1.4085    1.8518    7.8234 H   0  0  0  0  0  0  0  0  0  0  0  0
   -0.8719   -3.7216    5.3346 H   0  0  0  0  0  0  0  0  0  0  0  0
   -1.3260   -2.6340    4.1134 H   0  0  0  0  0  0  0  0  0  0  0  0
    0.5432   -2.0079    3.5950 H   0  0  0  0  0  0  0  0  0  0  0  0
    5.6354   -3.8326    8.0548 H   0  0  0  0  0  0  0  0  0  0  0  0
    3.3162   -2.9364    9.0615 H   0  0  0  0  0  0  0  0  0  0  0  0
    4.5139   -5.9183    7.1687 H   0  0  0  0  0  0  0  0  0  0  0  0
    3.6740   -6.8180    8.8660 H   0  0  0  0  0  0  0  0  0  0  0  0
    1.1663   -6.2195    8.0737 H   0  0  0  0  0  0  0  0  0  0  0  0
    0.8282   -4.4011    6.0746 H   0  0  0  0  0  0  0  0  0  0  0  0
    1.9984   -2.4456    7.1956 H   0  0  0  0  0  0  0  0  0  0  0  0
    0.6073   -3.1377    9.0484 H   0  0  0  0  0  0  0  0  0  0  0  0
    0.5271   -4.8560    9.2437 H   0  0  0  0  0  0  0  0  0  0  0  0
   -0.1466   -4.1122    7.7992 H   0  0  0  0  0  0  0  0  0  0  0  0
    7.3052   -7.8581    6.3013 H   0  0  0  0  0  0  0  0  0  0  0  0
    6.3110   -6.7807    7.1864 H   0  0  0  0  0  0  0  0  0  0  0  0
    7.5496   -6.1870    6.1203 H   0  0  0  0  0  0  0  0  0  0  0  0
    6.6419   -7.2133    1.7894 H   0  0  0  0  0  0  0  0  0  0  0  0
    9.7447   -6.0386    3.0174 H   0  0  0  0  0  0  0  0  0  0  0  0
    8.6193   -6.7105    1.8495 H   0  0  0  0  0  0  0  0  0  0  0  0
    9.3702   -7.7456    3.0689 H   0  0  0  0  0  0  0  0  0  0  0  0
    7.4004   -8.8669    2.7716 H   0  0  0  0  0  0  0  0  0  0  0  0
    7.6257   -8.9649    4.4936 H   0  0  0  0  0  0  0  0  0  0  0  0
    4.9330   -9.0800    3.0433 H   0  0  0  0  0  0  0  0  0  0  0  0
    7.0610  -10.3475    1.8828 H   0  0  0  0  0  0  0  0  0  0  0  0
    5.3415  -10.4948    1.5246 H   0  0  0  0  0  0  0  0  0  0  0  0
    6.5198  -11.7930    1.2109 H   0  0  0  0  0  0  0  0  0  0  0  0
    4.5488   -9.7899    6.2686 H   0  0  0  0  0  0  0  0  0  0  0  0
  1  2  2  0
  1 67  1  0
  1 68  1  0
  2  3  1  0
  2 69  1  0
  3 25  1  0
  3  4  1  6
  3  5  1  0
  4 70  1  0
  5  6  1  0
  5 71  1  0
  5 72  1  0
  6  7  1  0
  6  8  1  6
  6  9  1  0
  7 73  1  0
  7 74  1  0
  7 75  1  0
  8 76  1  0
  9 41  1  0
  9 49  1  0
  9 10  1  6
 10 11  1  0
 11 19  1  0
 11 12  1  0
 11 77  1  6
 12 13  1  0
 12 14  1  0
 12 78  1  1
 13 79  1  0
 14 15  1  0
 15 16  1  0
 15 17  1  0
 15 18  1  0
 16 80  1  0
 16 81  1  0
 16 82  1  0
 17 83  1  0
 17 84  1  0
 17 85  1  0
 18 65  1  0
 18 19  1  0
 18 86  1  1
 19 20  1  0
 19 87  1  6
 20 21  1  0
 20 53  1  0
 20 88  1  6
 42 21  1  6
 21 22  1  1
 21 23  1  0
 22 89  1  0
 23 24  2  0
 23 90  1  0
 24 25  1  0
 24 91  1  0
 25 26  1  6
 27 25  1  6
 26 92  1  0
 26 93  1  0
 26 94  1  0
 27 28  2  0
 27 29  1  0
 29 30  1  0
 29 42  1  0
 29 95  1  1
 30 31  1  0
 30 32  1  6
 30 33  1  0
 31 96  1  0
 31 97  1  0
 31 98  1  0
 32 99  1  0
 33 41  1  0
 33 34  1  0
 33100  1  6
 34 35  1  0
 35 36  1  0
 35 40  1  0
 35101  1  1
 36 37  1  0
 36 38  1  0
 36102  1  1
 37103  1  0
 38 39  1  0
 38104  1  0
 38105  1  0
 39106  1  0
 40 41  1  0
 40107  1  0
 40108  1  0
 41109  1  6
 42 50  1  0
 42 43  1  0
 43 44  1  0
 43 45  1  0
 43110  1  6
 44111  1  0
 45 46  1  0
 45 47  1  0
 45112  1  6
 46113  1  0
 47 51  1  0
 47 48  1  1
 47 49  1  0
 48114  1  0
 49 50  1  0
 49115  1  1
 50 51  1  0
 50116  1  1
 51 52  1  0
 52117  1  0
 52118  1  0
 52119  1  0
 53 65  1  0
 53 54  1  1
 53 55  1  0
 54120  1  0
 54121  1  0
 54122  1  0
 55 56  1  6
 55 57  1  0
 55 59  1  0
 56123  1  0
 57 58  1  0
 58124  1  0
 58125  1  0
 58126  1  0
 59 60  1  0
 59127  1  0
 59128  1  0
 60 61  1  0
 60 65  1  0
 60129  1  6
 61 62  1  0
 62 63  1  0
 62 64  2  0
 63130  1  0
 63131  1  0
 63132  1  0
 65 66  1  1
 66133  1  0
M  END
>  <i_m_ct_stereo_status>  (12) 
1

>  <s_m_source_file>  (12) 
/var/tmp/pbs.5075288.sched01/tmphozr6t3_/0veliry26.sdf

>  <i_m_source_file_index>  (12) 
55

>  <i_lp_mmshare_version>  (12) 
48012

>  <i_f3d_flags>  (12) 
0

>  <s_epik_input>  (12) 
W09IXVtDSDJdW0NAQEhdKFtPSF0pW0NAQEhdKFtDSDJdMSlPW0NASF0oW0NASF0xW0NAXTIzNClbQ0BdKFtDSDNdKShbT0hdKVtDSF01W0NAQF02KFtDQEhdN1tDQEBIXTRbQ0BdKFtPSF0pKE43W0NIM10pW0NASF0oW09IXSlbQ0BASF02W09IXSlbQ0BdKFtPSF0pKFtDSF09W0NIXVtDQF0oW0NIM10pKFtTK101W08tXSlbQ0BAXShbT0hdKShbQ0hdPVtDSDJdKVtDSDJdW0NAQF0yKFtDSDNdKVtPSF0pW0NAQEhdOFtDQEBIXTlbQ0BIXShPMylbQ0BASF0oW09IXSlPQyhbQ0gzXSkoW0NIM10pW0NASF05W0NAXTEoW09IXSlbQ0BAXTgoW0NIM10pW0NAQF0oW09IXSkoT1tDSDNdKVtDSDJdW0NASF0xT0MoPU8pW0NIM10=

>  <s_epik_cmdline>  (12) 
J2VwaWtfcHl0aG9uJywgJy1waHQnLCAnMi4wJywgJy1waCcsICc3LjAnLCAnLXRuJywgJzgnLCAnLW1hJywgJzIwMCcsICctaW1hZScsICc8aW5maWxlLm1hZT4nLCAnLW9tYWUnLCAnPG91dGZpbGUubWFlPic=

>  <r_epik_Ionization_Penalty>  (12) 
1.14418

>  <r_epik_Ionization_Penalty_Charging>  (12) 
0

>  <r_epik_Ionization_Penalty_Neutral>  (12) 
1.14418

>  <r_epik_State_Penalty>  (12) 
1.31618

>  <r_epik_Charging_Adjusted_Penalty>  (12) 
1.31618

>  <i_epik_Tot_Q>  (12) 
0

>  <i_epik_Tot_abs_Q>  (12) 
2

>  <s_epik_Chemistry_Notes>  (12) 
This compound has an ester and may undergo hydrolysis at high or low pH. This compound contains an acetal/aminal-like group ( X-CH(R)-Y where X, Y are N, S, or O) that may be acid/base labile, releasing an aldehyde.

>  <s_lp_Force_Field>  (12) 
OPLS3e

>  <r_lp_Energy>  (12) 
482.904

>  <b_lp_Chiralities_Consistent>  (12) 
1

>  <s_lp_Variant>  (12) 
7:0-17

>  <s_i_glide_gridfile>  (12) 
pfpi4k_grid

>  <i_i_glide_lignum>  (12) 
55

>  <i_i_glide_rotatable_bonds>  (12) 
18

>  <r_i_docking_score>  (12) 
-2.08291

>  <r_i_glide_ligand_efficiency>  (12) 
-0.0315593

>  <r_i_glide_ligand_efficiency_sa>  (12) 
-0.127539

>  <r_i_glide_ligand_efficiency_ln>  (12) 
-0.401359

>  <r_i_glide_gscore>  (12) 
-2.08291

>  <r_i_glide_lipo>  (12) 
-0.320081

>  <r_i_glide_hbond>  (12) 
0

>  <r_i_glide_metal>  (12) 
-0

>  <r_i_glide_rewards>  (12) 
-1.04204

>  <r_i_glide_evdw>  (12) 
8.53306

>  <r_i_glide_ecoul>  (12) 
-8.79607

>  <r_i_glide_erotb>  (12) 
0.0966741

>  <r_i_glide_esite>  (12) 
-0.0475981

>  <r_i_glide_emodel>  (12) 
-3.35794

>  <r_i_glide_energy>  (12) 
-0.263012

>  <r_i_glide_einternal>  (12) 
11.7281

>  <r_i_glide_intrahb_reward>  (12) 
-1

>  <i_i_glide_confnum>  (12) 
1

>  <i_i_glide_posenum>  (12) 
15

>  <r_i_glide_eff_state_penalty>  (12) 
0

>  <ligand_id>  (12) 
7

>  <original_smiles>  (12) 
C=CC1(O)CC(C)(O)C23OC4C(O)OC(C)(C)C5C4C(C4(O)C=CC1(C)[S+]([O-])C(C(C)(O)C1OC(C(O)CO)CC12)C41C(O)C(O)C2(O)C3C1N2C)C1(C)C(O)(OC)CC(OC(C)=O)C51O

>  <smiles>  (12) 
[H]OC([H])([H])C([H])(O[H])C1([H])OC2([H])C([H])(C1([H])[H])C13OC4([H])C([H])(O[H])OC(C([H])([H])[H])(C([H])([H])[H])C5([H])C4([H])C([H])(C4(O[H])C([H])=C([H])C(C([H])([H])[H])(S(=O)C([H])(C2(O[H])C([H])([H])[H])C42C([H])(O[H])C([H])(O[H])C4(O[H])N(C([H])([H])[H])C2([H])C41[H])C(O[H])(C([H])=C([H])[H])C([H])([H])C3(O[H])C([H])([H])[H])C1(C([H])([H])[H])C(O[H])(OC([H])([H])[H])C([H])([H])C([H])(OC(=O)C([H])([H])[H])C51O[H]

$$$$
9:0:0
     RDKit          3D

 74 78  0  0  1  0  0  0  0  0999 V2000
    4.8379   -6.8556    7.7687 C   0  0  0  0  0  0  0  0  0  0  0  0
    4.2921   -7.3786    6.6414 C   0  0  0  0  0  0  0  0  0  0  0  0
    4.8439   -8.0690    5.3609 C   0  0  1  0  0  0  0  0  0  0  0  0
    6.3489   -8.0705    5.8719 C   0  0  0  0  0  0  0  0  0  0  0  0
    4.3607   -9.5961    5.3560 C   0  0  1  0  0  0  0  0  0  0  0  0
    5.5098  -10.4319    5.4459 O   0  0  0  0  0  0  0  0  0  0  0  0
    3.6356  -10.1041    6.6736 C   0  0  0  0  0  0  0  0  0  0  0  0
    2.3926   -9.4430    7.3722 C   0  0  0  0  0  0  0  0  0  0  0  0
    1.2585   -8.6771    6.6018 C   0  0  0  0  0  0  0  0  0  0  0  0
   -0.0878   -9.4516    6.8178 C   0  0  0  0  0  0  0  0  0  0  0  0
    0.8821   -7.3953    7.4339 C   0  0  0  0  0  0  0  0  0  0  0  0
    1.6128   -8.3547    5.0467 C   0  0  1  0  0  0  0  0  0  0  0  0
    1.9434   -6.7646    4.7460 C   0  0  0  0  0  0  0  0  0  0  0  0
    3.3871   -6.1133    4.4144 C   0  0  1  0  0  0  0  0  0  0  0  0
    3.8063   -5.1006    5.3164 O   0  0  0  0  0  0  0  0  0  0  0  0
    4.4433   -7.1910    3.9298 C   0  0  2  0  0  0  0  0  0  0  0  0
    3.5487   -7.4629    2.5437 C   0  0  1  0  0  0  0  0  0  0  0  0
    3.4903   -6.3436    1.4820 C   0  0  0  0  0  0  0  0  0  0  0  0
    4.8594   -5.7995    1.1482 C   0  0  0  0  0  0  0  0  0  0  0  0
    5.0006   -5.0523    0.1854 O   0  0  0  0  0  0  0  0  0  0  0  0
    5.8365   -6.2266    1.9326 O   0  0  0  0  0  0  0  0  0  0  0  0
    5.7880   -7.0151    3.1373 C   0  0  1  0  0  0  0  0  0  0  0  0
    6.9401   -6.1924    3.8128 C   0  0  0  0  0  0  0  0  0  0  0  0
    6.0608   -8.5388    2.7227 C   0  0  1  0  0  0  0  0  0  0  0  0
    7.3312   -9.0552    3.1015 O   0  0  0  0  0  0  0  0  0  0  0  0
    4.8422   -9.6439    2.7494 C   0  0  2  0  0  0  0  0  0  0  0  0
    5.5006  -10.7610    2.1781 O   0  0  0  0  0  0  0  0  0  0  0  0
    3.7951   -8.9521    1.4765 S   0  0  0  0  0  0  0  0  0  0  0  0
    4.6104   -8.5987    0.2270 O   0  0  0  0  0  0  0  0  0  0  0  0
    3.7404  -10.0562    3.9889 C   0  0  1  0  0  0  0  0  0  0  0  0
    3.7649  -11.6524    3.9034 C   0  0  0  0  0  0  0  0  0  0  0  0
    2.0810   -9.6409    4.0846 C   0  0  0  0  0  0  0  0  0  0  0  0
    1.2820  -10.8895    4.6300 C   0  0  0  0  0  0  0  0  0  0  0  0
    1.2267   -9.6764    2.7407 C   0  0  0  0  0  0  0  0  0  0  0  0
    5.8914   -6.8325    8.0070 H   0  0  0  0  0  0  0  0  0  0  0  0
    4.1790   -6.4229    8.5110 H   0  0  0  0  0  0  0  0  0  0  0  0
    3.2553   -7.2685    6.6404 H   0  0  0  0  0  0  0  0  0  0  0  0
    7.0930   -8.5641    5.2764 H   0  0  0  0  0  0  0  0  0  0  0  0
    6.4478   -8.6225    6.8086 H   0  0  0  0  0  0  0  0  0  0  0  0
    6.7506   -7.0859    6.1029 H   0  0  0  0  0  0  0  0  0  0  0  0
    5.2286  -11.3281    5.4284 H   0  0  0  0  0  0  0  0  0  0  0  0
    3.4341  -11.1716    6.6024 H   0  0  0  0  0  0  0  0  0  0  0  0
    4.3879  -10.0933    7.4663 H   0  0  0  0  0  0  0  0  0  0  0  0
    1.9369  -10.2324    7.9689 H   0  0  0  0  0  0  0  0  0  0  0  0
    2.7723   -8.7996    8.1656 H   0  0  0  0  0  0  0  0  0  0  0  0
   -0.8470   -9.1833    6.0822 H   0  0  0  0  0  0  0  0  0  0  0  0
   -0.5426   -9.2684    7.7899 H   0  0  0  0  0  0  0  0  0  0  0  0
    0.0076  -10.5347    6.8204 H   0  0  0  0  0  0  0  0  0  0  0  0
   -0.0021   -6.9046    7.0230 H   0  0  0  0  0  0  0  0  0  0  0  0
    1.6395   -6.6222    7.5361 H   0  0  0  0  0  0  0  0  0  0  0  0
    0.6480   -7.6450    8.4699 H   0  0  0  0  0  0  0  0  0  0  0  0
    0.5825   -8.2915    4.6945 H   0  0  0  0  0  0  0  0  0  0  0  0
    1.2992   -6.4984    3.9034 H   0  0  0  0  0  0  0  0  0  0  0  0
    1.4730   -6.1040    5.4664 H   0  0  0  0  0  0  0  0  0  0  0  0
    3.1911   -5.3735    3.6489 H   0  0  0  0  0  0  0  0  0  0  0  0
    4.0649   -5.5092    6.1204 H   0  0  0  0  0  0  0  0  0  0  0  0
    2.5217   -7.5634    2.7144 H   0  0  0  0  0  0  0  0  0  0  0  0
    3.0584   -6.7228    0.5610 H   0  0  0  0  0  0  0  0  0  0  0  0
    2.8379   -5.5151    1.7460 H   0  0  0  0  0  0  0  0  0  0  0  0
    7.7604   -6.7891    4.2056 H   0  0  0  0  0  0  0  0  0  0  0  0
    6.5498   -5.5542    4.6079 H   0  0  0  0  0  0  0  0  0  0  0  0
    7.4683   -5.4997    3.1538 H   0  0  0  0  0  0  0  0  0  0  0  0
    6.3495   -8.4605    1.6812 H   0  0  0  0  0  0  0  0  0  0  0  0
    7.9978   -8.5102    2.7376 H   0  0  0  0  0  0  0  0  0  0  0  0
    4.9229  -11.1615    1.5153 H   0  0  0  0  0  0  0  0  0  0  0  0
    3.2640  -11.9993    2.9947 H   0  0  0  0  0  0  0  0  0  0  0  0
    3.3289  -12.1906    4.7420 H   0  0  0  0  0  0  0  0  0  0  0  0
    4.7488  -12.1201    3.8845 H   0  0  0  0  0  0  0  0  0  0  0  0
    1.2960  -11.7627    3.9754 H   0  0  0  0  0  0  0  0  0  0  0  0
    0.2137  -10.7139    4.7179 H   0  0  0  0  0  0  0  0  0  0  0  0
    1.5994  -11.2526    5.5989 H   0  0  0  0  0  0  0  0  0  0  0  0
    1.5332  -10.5148    2.1163 H   0  0  0  0  0  0  0  0  0  0  0  0
    1.1962   -8.8114    2.0901 H   0  0  0  0  0  0  0  0  0  0  0  0
    0.1533   -9.8056    2.8892 H   0  0  0  0  0  0  0  0  0  0  0  0
  1  2  2  0
  1 35  1  0
  1 36  1  0
  2  3  1  0
  2 37  1  0
 16  3  1  1
  3  4  1  1
  3  5  1  0
  4 38  1  0
  4 39  1  0
  4 40  1  0
  5 30  1  0
  5  6  1  1
  5  7  1  0
  6 41  1  0
  7  8  1  0
  7 42  1  0
  7 43  1  0
  8  9  1  0
  8 44  1  0
  8 45  1  0
  9 10  1  0
  9 11  1  0
  9 12  1  0
 10 46  1  0
 10 47  1  0
 10 48  1  0
 11 49  1  0
 11 50  1  0
 11 51  1  0
 12 32  1  0
 12 13  1  0
 12 52  1  6
 13 14  1  0
 13 53  1  0
 13 54  1  0
 14 15  1  0
 14 16  1  0
 14 55  1  6
 15 56  1  0
 16 22  1  0
 16 17  1  0
 17 28  1  0
 17 18  1  0
 17 57  1  1
 18 19  1  0
 18 58  1  0
 18 59  1  0
 19 20  2  0
 19 21  1  0
 21 22  1  0
 22 23  1  1
 22 24  1  0
 23 60  1  0
 23 61  1  0
 23 62  1  0
 24 25  1  0
 24 26  1  0
 24 63  1  6
 25 64  1  0
 26 27  1  6
 28 26  1  1
 26 30  1  0
 27 65  1  0
 28 29  2  0
 30 31  1  1
 30 32  1  0
 31 66  1  0
 31 67  1  0
 31 68  1  0
 32 33  1  0
 32 34  1  0
 33 69  1  0
 33 70  1  0
 33 71  1  0
 34 72  1  0
 34 73  1  0
 34 74  1  0
M  END
>  <i_m_ct_stereo_status>  (13) 
1

>  <s_m_source_file>  (13) 
/var/tmp/pbs.5075288.sched01/tmphozr6t3_/0veliry26.sdf

>  <i_m_source_file_index>  (13) 
59

>  <i_lp_mmshare_version>  (13) 
48012

>  <i_f3d_flags>  (13) 
0

>  <s_epik_input>  (13) 
W09IXVtDQEBIXTFbQ0gyXVtDQEBIXShDMihbQ0gzXSlbQ0gzXSlDKFtDSDNdKShbQ0gzXSlbQ0gyXVtDSDJdW0NAXShbT0hdKShbQ0BdMyhbQ0gzXSlbQ0hdPVtDSDJdKVtDQF0yKFtDSDNdKVtDQEBdKFtPSF0pKFtTK100W08tXSlbQ0BIXShbT0hdKVtDQEBdNShbQ0gzXSlPQyg9TylbQ0gyXVtDQEBIXTRbQ0BAXTEzNQ==

>  <s_epik_cmdline>  (13) 
J2VwaWtfcHl0aG9uJywgJy1waHQnLCAnMi4wJywgJy1waCcsICc3LjAnLCAnLXRuJywgJzgnLCAnLW1hJywgJzIwMCcsICctaW1hZScsICc8aW5maWxlLm1hZT4nLCAnLW9tYWUnLCAnPG91dGZpbGUubWFlPic=

>  <r_lp_tautomer_probability>  (13) 
1

>  <r_epik_Ionization_Penalty>  (13) 
5.50123e-06

>  <r_epik_Ionization_Penalty_Charging>  (13) 
0

>  <r_epik_Ionization_Penalty_Neutral>  (13) 
5.50123e-06

>  <r_epik_State_Penalty>  (13) 
-0

>  <r_epik_Charging_Adjusted_Penalty>  (13) 
0

>  <i_epik_Tot_Q>  (13) 
0

>  <i_epik_Tot_abs_Q>  (13) 
2

>  <s_epik_Chemistry_Notes>  (13) 
This compound has an ester and may undergo hydrolysis at high or low pH.

>  <s_lp_Force_Field>  (13) 
OPLS3e

>  <r_lp_Energy>  (13) 
360.955

>  <b_lp_Chiralities_Consistent>  (13) 
1

>  <s_lp_Variant>  (13) 
9:0-1

>  <s_i_glide_gridfile>  (13) 
pfpi4k_grid

>  <i_i_glide_lignum>  (13) 
59

>  <i_i_glide_rotatable_bonds>  (13) 
5

>  <r_i_docking_score>  (13) 
-2.61575

>  <r_i_glide_ligand_efficiency>  (13) 
-0.0769339

>  <r_i_glide_ligand_efficiency_sa>  (13) 
-0.249236

>  <r_i_glide_ligand_efficiency_ln>  (13) 
-0.577893

>  <r_i_glide_gscore>  (13) 
-2.61575

>  <r_i_glide_lipo>  (13) 
-0.15168

>  <r_i_glide_hbond>  (13) 
0

>  <r_i_glide_metal>  (13) 
-0

>  <r_i_glide_rewards>  (13) 
-0.120806

>  <r_i_glide_evdw>  (13) 
-27.9874

>  <r_i_glide_ecoul>  (13) 
-6.53127

>  <r_i_glide_erotb>  (13) 
0.0826768

>  <r_i_glide_esite>  (13) 
-0.0468861

>  <r_i_glide_emodel>  (13) 
-39.8674

>  <r_i_glide_energy>  (13) 
-34.5186

>  <r_i_glide_einternal>  (13) 
1.28711

>  <r_i_glide_intrahb_reward>  (13) 
-0

>  <i_i_glide_confnum>  (13) 
1

>  <i_i_glide_posenum>  (13) 
29

>  <r_i_glide_eff_state_penalty>  (13) 
0

>  <ligand_id>  (13) 
9

>  <original_smiles>  (13) 
C=CC1(C)C2(O)CCC(C)(C)C3CC(O)C14C1CC(=O)OC4(C)C(O)C(O)([S+]1[O-])C2(C)C3(C)C

>  <smiles>  (13) 
[H]OC1([H])C2(O[H])S(=O)C3([H])C([H])([H])C(=O)OC1(C([H])([H])[H])C31C([H])(O[H])C([H])([H])C3([H])C(C([H])([H])[H])(C([H])([H])[H])C([H])([H])C([H])([H])C(O[H])(C1(C([H])=C([H])[H])C([H])([H])[H])C2(C([H])([H])[H])C3(C([H])([H])[H])C([H])([H])[H]

$$$$
9:0:1
     RDKit          3D

 74 78  0  0  1  0  0  0  0  0999 V2000
    2.4675   -3.3109    7.5629 C   0  0  0  0  0  0  0  0  0  0  0  0
    2.5623   -3.1776    6.2184 C   0  0  0  0  0  0  0  0  0  0  0  0
    3.5062   -2.4185    5.2379 C   0  0  1  0  0  0  0  0  0  0  0  0
    4.4517   -1.8681    6.3942 C   0  0  0  0  0  0  0  0  0  0  0  0
    4.3506   -3.4953    4.4140 C   0  0  1  0  0  0  0  0  0  0  0  0
    5.7187   -3.3513    4.7657 O   0  0  0  0  0  0  0  0  0  0  0  0
    4.2101   -5.0081    4.8752 C   0  0  0  0  0  0  0  0  0  0  0  0
    2.8746   -5.8165    5.0357 C   0  0  0  0  0  0  0  0  0  0  0  0
    1.6003   -5.5760    4.1570 C   0  0  0  0  0  0  0  0  0  0  0  0
    1.3088   -6.8896    3.3447 C   0  0  0  0  0  0  0  0  0  0  0  0
    0.3383   -5.6417    5.0937 C   0  0  0  0  0  0  0  0  0  0  0  0
    1.6777   -4.2220    3.2600 C   0  0  1  0  0  0  0  0  0  0  0  0
    0.6985   -3.0047    3.8049 C   0  0  0  0  0  0  0  0  0  0  0  0
    1.1262   -1.6223    4.5123 C   0  0  1  0  0  0  0  0  0  0  0  0
    0.5629   -1.4060    5.7997 O   0  0  0  0  0  0  0  0  0  0  0  0
    2.6443   -1.2881    4.2588 C   0  0  2  0  0  0  0  0  0  0  0  0
    2.3540   -1.0689    2.6174 C   0  0  1  0  0  0  0  0  0  0  0  0
    1.5123    0.1509    2.1886 C   0  0  0  0  0  0  0  0  0  0  0  0
    1.9911    1.4193    2.8326 C   0  0  0  0  0  0  0  0  0  0  0  0
    1.5744    2.5127    2.4743 O   0  0  0  0  0  0  0  0  0  0  0  0
    2.9018    1.2738    3.7875 O   0  0  0  0  0  0  0  0  0  0  0  0
    3.4166    0.0666    4.3874 C   0  0  1  0  0  0  0  0  0  0  0  0
    3.4996    0.7399    5.8061 C   0  0  0  0  0  0  0  0  0  0  0  0
    4.7678   -0.3191    3.6242 C   0  0  1  0  0  0  0  0  0  0  0  0
    5.9672   -0.1100    4.3281 O   0  0  0  0  0  0  0  0  0  0  0  0
    4.8270   -1.6060    2.6143 C   0  0  2  0  0  0  0  0  0  0  0  0
    6.1411   -1.4406    2.0901 O   0  0  0  0  0  0  0  0  0  0  0  0
    3.7033   -1.0288    1.3445 S   0  0  0  0  0  0  0  0  0  0  0  0
    4.0389    0.3993    0.9222 O   0  0  0  0  0  0  0  0  0  0  0  0
    4.3820   -3.2316    2.8670 C   0  0  1  0  0  0  0  0  0  0  0  0
    5.6059   -4.0010    2.1938 C   0  0  0  0  0  0  0  0  0  0  0  0
    3.0044   -4.0279    2.2560 C   0  0  0  0  0  0  0  0  0  0  0  0
    3.3995   -5.4926    1.8050 C   0  0  0  0  0  0  0  0  0  0  0  0
    2.5865   -3.6850    0.7565 C   0  0  0  0  0  0  0  0  0  0  0  0
    3.1220   -2.8520    8.2900 H   0  0  0  0  0  0  0  0  0  0  0  0
    1.6713   -3.9244    7.9633 H   0  0  0  0  0  0  0  0  0  0  0  0
    1.7964   -3.7062    5.7426 H   0  0  0  0  0  0  0  0  0  0  0  0
    5.3318   -1.3194    6.1223 H   0  0  0  0  0  0  0  0  0  0  0  0
    4.8900   -2.6902    6.9655 H   0  0  0  0  0  0  0  0  0  0  0  0
    3.9428   -1.2763    7.1513 H   0  0  0  0  0  0  0  0  0  0  0  0
    5.9934   -2.4733    4.5477 H   0  0  0  0  0  0  0  0  0  0  0  0
    4.9048   -5.6248    4.3129 H   0  0  0  0  0  0  0  0  0  0  0  0
    4.6470   -5.0704    5.8751 H   0  0  0  0  0  0  0  0  0  0  0  0
    3.1524   -6.8692    4.9696 H   0  0  0  0  0  0  0  0  0  0  0  0
    2.5877   -5.7562    6.0853 H   0  0  0  0  0  0  0  0  0  0  0  0
    0.6479   -6.7236    2.4936 H   0  0  0  0  0  0  0  0  0  0  0  0
    0.8251   -7.6647    3.9397 H   0  0  0  0  0  0  0  0  0  0  0  0
    2.1959   -7.4093    2.9946 H   0  0  0  0  0  0  0  0  0  0  0  0
   -0.5822   -5.6367    4.5086 H   0  0  0  0  0  0  0  0  0  0  0  0
    0.2271   -4.8656    5.8459 H   0  0  0  0  0  0  0  0  0  0  0  0
    0.3234   -6.5591    5.6850 H   0  0  0  0  0  0  0  0  0  0  0  0
    0.9885   -4.5526    2.4883 H   0  0  0  0  0  0  0  0  0  0  0  0
    0.1620   -2.6841    2.9167 H   0  0  0  0  0  0  0  0  0  0  0  0
   -0.1615   -3.3768    4.3530 H   0  0  0  0  0  0  0  0  0  0  0  0
    0.4731   -0.8766    4.0834 H   0  0  0  0  0  0  0  0  0  0  0  0
    0.8149   -0.5420    6.0875 H   0  0  0  0  0  0  0  0  0  0  0  0
    1.7677   -1.8193    2.1849 H   0  0  0  0  0  0  0  0  0  0  0  0
    1.5684    0.2844    1.1100 H   0  0  0  0  0  0  0  0  0  0  0  0
    0.4461    0.0448    2.3682 H   0  0  0  0  0  0  0  0  0  0  0  0
    4.4673    0.6553    6.2945 H   0  0  0  0  0  0  0  0  0  0  0  0
    2.7275    0.3491    6.4705 H   0  0  0  0  0  0  0  0  0  0  0  0
    3.3340    1.8227    5.8278 H   0  0  0  0  0  0  0  0  0  0  0  0
    4.9322    0.5420    2.9862 H   0  0  0  0  0  0  0  0  0  0  0  0
    5.9384    0.7550    4.7082 H   0  0  0  0  0  0  0  0  0  0  0  0
    6.5605   -0.7483    2.5872 H   0  0  0  0  0  0  0  0  0  0  0  0
    5.5818   -3.9005    1.1080 H   0  0  0  0  0  0  0  0  0  0  0  0
    5.6977   -5.0556    2.4370 H   0  0  0  0  0  0  0  0  0  0  0  0
    6.6016   -3.6707    2.4750 H   0  0  0  0  0  0  0  0  0  0  0  0
    4.1033   -5.5344    0.9726 H   0  0  0  0  0  0  0  0  0  0  0  0
    2.5661   -6.0583    1.3957 H   0  0  0  0  0  0  0  0  0  0  0  0
    3.8313   -6.1130    2.5782 H   0  0  0  0  0  0  0  0  0  0  0  0
    3.4475   -3.5517    0.1000 H   0  0  0  0  0  0  0  0  0  0  0  0
    1.9296   -2.8449    0.5686 H   0  0  0  0  0  0  0  0  0  0  0  0
    1.9767   -4.4548    0.2775 H   0  0  0  0  0  0  0  0  0  0  0  0
  1  2  2  0
  1 35  1  0
  1 36  1  0
  2  3  1  0
  2 37  1  0
 16  3  1  6
  3  4  1  1
  3  5  1  0
  4 38  1  0
  4 39  1  0
  4 40  1  0
  5 30  1  0
  5  6  1  1
  5  7  1  0
  6 41  1  0
  7  8  1  0
  7 42  1  0
  7 43  1  0
  8  9  1  0
  8 44  1  0
  8 45  1  0
  9 10  1  0
  9 11  1  0
  9 12  1  0
 10 46  1  0
 10 47  1  0
 10 48  1  0
 11 49  1  0
 11 50  1  0
 11 51  1  0
 12 32  1  0
 12 13  1  0
 12 52  1  6
 13 14  1  0
 13 53  1  0
 13 54  1  0
 14 15  1  0
 14 16  1  0
 14 55  1  6
 15 56  1  0
 16 22  1  0
 16 17  1  0
 17 28  1  0
 17 18  1  0
 17 57  1  6
 18 19  1  0
 18 58  1  0
 18 59  1  0
 19 20  2  0
 19 21  1  0
 21 22  1  0
 22 23  1  1
 22 24  1  0
 23 60  1  0
 23 61  1  0
 23 62  1  0
 24 25  1  0
 24 26  1  0
 24 63  1  6
 25 64  1  0
 26 27  1  6
 28 26  1  1
 26 30  1  0
 27 65  1  0
 28 29  2  0
 30 31  1  6
 30 32  1  0
 31 66  1  0
 31 67  1  0
 31 68  1  0
 32 33  1  0
 32 34  1  0
 33 69  1  0
 33 70  1  0
 33 71  1  0
 34 72  1  0
 34 73  1  0
 34 74  1  0
M  END
>  <i_m_ct_stereo_status>  (14) 
1

>  <s_m_source_file>  (14) 
/var/tmp/pbs.5075288.sched01/tmphozr6t3_/0veliry26.sdf

>  <i_m_source_file_index>  (14) 
59

>  <i_lp_mmshare_version>  (14) 
48012

>  <i_f3d_flags>  (14) 
0

>  <s_epik_input>  (14) 
W09IXVtDQEBIXTFbQ0gyXVtDQEBIXShDMihbQ0gzXSlbQ0gzXSlDKFtDSDNdKShbQ0gzXSlbQ0gyXVtDSDJdW0NAXShbT0hdKShbQ0BdMyhbQ0gzXSlbQ0hdPVtDSDJdKVtDQF0yKFtDSDNdKVtDQEBdKFtPSF0pKFtTK100W08tXSlbQ0BIXShbT0hdKVtDQEBdNShbQ0gzXSlPQyg9TylbQ0gyXVtDQEBIXTRbQ0BAXTEzNQ==

>  <s_epik_cmdline>  (14) 
J2VwaWtfcHl0aG9uJywgJy1waHQnLCAnMi4wJywgJy1waCcsICc3LjAnLCAnLXRuJywgJzgnLCAnLW1hJywgJzIwMCcsICctaW1hZScsICc8aW5maWxlLm1hZT4nLCAnLW9tYWUnLCAnPG91dGZpbGUubWFlPic=

>  <r_lp_tautomer_probability>  (14) 
1

>  <r_epik_Ionization_Penalty>  (14) 
5.50123e-06

>  <r_epik_Ionization_Penalty_Charging>  (14) 
0

>  <r_epik_Ionization_Penalty_Neutral>  (14) 
5.50123e-06

>  <r_epik_State_Penalty>  (14) 
-0

>  <r_epik_Charging_Adjusted_Penalty>  (14) 
0

>  <i_epik_Tot_Q>  (14) 
0

>  <i_epik_Tot_abs_Q>  (14) 
2

>  <s_epik_Chemistry_Notes>  (14) 
This compound has an ester and may undergo hydrolysis at high or low pH.

>  <s_lp_Force_Field>  (14) 
OPLS3e

>  <r_lp_Energy>  (14) 
360.955

>  <b_lp_Chiralities_Consistent>  (14) 
1

>  <s_lp_Variant>  (14) 
9:0-1

>  <s_i_glide_gridfile>  (14) 
pfpi4k_grid

>  <i_i_glide_lignum>  (14) 
59

>  <i_i_glide_rotatable_bonds>  (14) 
5

>  <r_i_docking_score>  (14) 
-1.45897

>  <r_i_glide_ligand_efficiency>  (14) 
-0.0429108

>  <r_i_glide_ligand_efficiency_sa>  (14) 
-0.139014

>  <r_i_glide_ligand_efficiency_ln>  (14) 
-0.322327

>  <r_i_glide_gscore>  (14) 
-1.45897

>  <r_i_glide_lipo>  (14) 
-0.254853

>  <r_i_glide_hbond>  (14) 
0

>  <r_i_glide_metal>  (14) 
-0

>  <r_i_glide_rewards>  (14) 
-0.0319782

>  <r_i_glide_evdw>  (14) 
-21.8293

>  <r_i_glide_ecoul>  (14) 
-1.00638

>  <r_i_glide_erotb>  (14) 
0.0826768

>  <r_i_glide_esite>  (14) 
-0.0123939

>  <r_i_glide_emodel>  (14) 
-25.4213

>  <r_i_glide_energy>  (14) 
-22.8356

>  <r_i_glide_einternal>  (14) 
0.822119

>  <r_i_glide_intrahb_reward>  (14) 
-0

>  <i_i_glide_confnum>  (14) 
3

>  <i_i_glide_posenum>  (14) 
6

>  <r_i_glide_eff_state_penalty>  (14) 
0

>  <ligand_id>  (14) 
9

>  <original_smiles>  (14) 
C=CC1(C)C2(O)CCC(C)(C)C3CC(O)C14C1CC(=O)OC4(C)C(O)C(O)([S+]1[O-])C2(C)C3(C)C

>  <smiles>  (14) 
[H]OC1([H])C2(O[H])S(=O)C3([H])C([H])([H])C(=O)OC1(C([H])([H])[H])C31C([H])(O[H])C([H])([H])C3([H])C(C([H])([H])[H])(C([H])([H])[H])C([H])([H])C([H])([H])C(O[H])(C1(C([H])=C([H])[H])C([H])([H])[H])C2(C([H])([H])[H])C3(C([H])([H])[H])C([H])([H])[H]

$$$$
9:0:2
     RDKit          3D

 74 78  0  0  1  0  0  0  0  0999 V2000
    3.1177   -9.4403    7.4486 C   0  0  0  0  0  0  0  0  0  0  0  0
    2.9900   -8.4493    6.5379 C   0  0  0  0  0  0  0  0  0  0  0  0
    3.5143   -6.9868    6.3996 C   0  0  1  0  0  0  0  0  0  0  0  0
    4.3741   -7.0478    7.7368 C   0  0  0  0  0  0  0  0  0  0  0  0
    4.5472   -6.9221    5.1860 C   0  0  1  0  0  0  0  0  0  0  0  0
    5.8381   -6.5938    5.6990 O   0  0  0  0  0  0  0  0  0  0  0  0
    4.9517   -8.3145    4.5377 C   0  0  0  0  0  0  0  0  0  0  0  0
    3.9712   -9.4061    3.9790 C   0  0  0  0  0  0  0  0  0  0  0  0
    2.5809   -9.0883    3.3245 C   0  0  0  0  0  0  0  0  0  0  0  0
    2.6352   -9.5606    1.8313 C   0  0  0  0  0  0  0  0  0  0  0  0
    1.5408  -10.1522    3.8361 C   0  0  0  0  0  0  0  0  0  0  0  0
    2.0909   -7.5522    3.5217 C   0  0  1  0  0  0  0  0  0  0  0  0
    0.8453   -7.3787    4.6010 C   0  0  0  0  0  0  0  0  0  0  0  0
    0.9259   -6.7389    6.0867 C   0  0  1  0  0  0  0  0  0  0  0  0
    0.5012   -7.5996    7.1316 O   0  0  0  0  0  0  0  0  0  0  0  0
    2.2159   -5.8537    6.2972 C   0  0  2  0  0  0  0  0  0  0  0  0
    1.6576   -4.7418    5.1680 C   0  0  1  0  0  0  0  0  0  0  0  0
    0.4234   -3.8969    5.5426 C   0  0  0  0  0  0  0  0  0  0  0  0
    0.5423   -3.2736    6.8930 C   0  0  0  0  0  0  0  0  0  0  0  0
   -0.2575   -2.4185    7.2682 O   0  0  0  0  0  0  0  0  0  0  0  0
    1.5813   -3.6870    7.6290 O   0  0  0  0  0  0  0  0  0  0  0  0
    2.5370   -4.7445    7.3583 C   0  0  1  0  0  0  0  0  0  0  0  0
    2.5738   -5.1697    8.8733 C   0  0  0  0  0  0  0  0  0  0  0  0
    3.8480   -4.0890    6.6928 C   0  0  1  0  0  0  0  0  0  0  0  0
    5.0466   -4.0086    7.4423 O   0  0  0  0  0  0  0  0  0  0  0  0
    4.1574   -4.3081    5.0992 C   0  0  2  0  0  0  0  0  0  0  0  0
    5.2830   -3.4498    4.9701 O   0  0  0  0  0  0  0  0  0  0  0  0
    2.7450   -3.4510    4.3994 S   0  0  0  0  0  0  0  0  0  0  0  0
    2.5289   -2.0949    5.0687 O   0  0  0  0  0  0  0  0  0  0  0  0
    4.2799   -5.7420    4.1879 C   0  0  1  0  0  0  0  0  0  0  0  0
    5.5998   -5.4520    3.3386 C   0  0  0  0  0  0  0  0  0  0  0  0
    3.1473   -6.3441    3.0546 C   0  0  0  0  0  0  0  0  0  0  0  0
    3.9410   -6.9290    1.8166 C   0  0  0  0  0  0  0  0  0  0  0  0
    2.4200   -5.2915    2.1012 C   0  0  0  0  0  0  0  0  0  0  0  0
    3.6858   -9.3865    8.3696 H   0  0  0  0  0  0  0  0  0  0  0  0
    2.6096  -10.3806    7.2676 H   0  0  0  0  0  0  0  0  0  0  0  0
    2.3669   -8.7527    5.7502 H   0  0  0  0  0  0  0  0  0  0  0  0
    4.9839   -6.2093    8.0025 H   0  0  0  0  0  0  0  0  0  0  0  0
    5.1184   -7.8479    7.6795 H   0  0  0  0  0  0  0  0  0  0  0  0
    3.7991   -7.2962    8.6241 H   0  0  0  0  0  0  0  0  0  0  0  0
    5.8061   -5.7238    6.0716 H   0  0  0  0  0  0  0  0  0  0  0  0
    5.7293   -8.1580    3.7960 H   0  0  0  0  0  0  0  0  0  0  0  0
    5.5068   -8.8593    5.3050 H   0  0  0  0  0  0  0  0  0  0  0  0
    4.5568  -10.0056    3.2808 H   0  0  0  0  0  0  0  0  0  0  0  0
    3.8163  -10.1368    4.7727 H   0  0  0  0  0  0  0  0  0  0  0  0
    1.8399   -9.1288    1.2235 H   0  0  0  0  0  0  0  0  0  0  0  0
    2.5365  -10.6396    1.7359 H   0  0  0  0  0  0  0  0  0  0  0  0
    3.5848   -9.4026    1.3309 H   0  0  0  0  0  0  0  0  0  0  0  0
    0.5956  -10.0738    3.2951 H   0  0  0  0  0  0  0  0  0  0  0  0
    1.2869  -10.1408    4.8935 H   0  0  0  0  0  0  0  0  0  0  0  0
    1.8980  -11.1720    3.6862 H   0  0  0  0  0  0  0  0  0  0  0  0
    1.4424   -7.5128    2.6466 H   0  0  0  0  0  0  0  0  0  0  0  0
    0.0944   -6.7938    4.0643 H   0  0  0  0  0  0  0  0  0  0  0  0
    0.2541   -8.2820    4.6902 H   0  0  0  0  0  0  0  0  0  0  0  0
    0.0195   -6.1608    6.1823 H   0  0  0  0  0  0  0  0  0  0  0  0
    0.6334   -7.1576    7.9581 H   0  0  0  0  0  0  0  0  0  0  0  0
    1.2756   -5.1805    4.2992 H   0  0  0  0  0  0  0  0  0  0  0  0
    0.2941   -3.0894    4.8209 H   0  0  0  0  0  0  0  0  0  0  0  0
   -0.5225   -4.4311    5.4900 H   0  0  0  0  0  0  0  0  0  0  0  0
    3.5717   -5.2248    9.3005 H   0  0  0  0  0  0  0  0  0  0  0  0
    2.0572   -6.1178    9.0324 H   0  0  0  0  0  0  0  0  0  0  0  0
    2.0709   -4.4892    9.5678 H   0  0  0  0  0  0  0  0  0  0  0  0
    3.6362   -3.0255    6.8095 H   0  0  0  0  0  0  0  0  0  0  0  0
    5.3122   -4.8780    7.7187 H   0  0  0  0  0  0  0  0  0  0  0  0
    5.6479   -3.3402    5.8485 H   0  0  0  0  0  0  0  0  0  0  0  0
    5.4150   -4.6751    2.5928 H   0  0  0  0  0  0  0  0  0  0  0  0
    6.0473   -6.3055    2.8386 H   0  0  0  0  0  0  0  0  0  0  0  0
    6.4678   -5.1207    3.9053 H   0  0  0  0  0  0  0  0  0  0  0  0
    4.5073   -6.1879    1.2522 H   0  0  0  0  0  0  0  0  0  0  0  0
    3.2937   -7.3287    1.0408 H   0  0  0  0  0  0  0  0  0  0  0  0
    4.6461   -7.7148    2.0508 H   0  0  0  0  0  0  0  0  0  0  0  0
    3.1066   -4.4998    1.7969 H   0  0  0  0  0  0  0  0  0  0  0  0
    1.5168   -4.7979    2.4329 H   0  0  0  0  0  0  0  0  0  0  0  0
    2.0443   -5.7192    1.1692 H   0  0  0  0  0  0  0  0  0  0  0  0
  1  2  2  0
  1 35  1  0
  1 36  1  0
  2  3  1  0
  2 37  1  0
 16  3  1  6
  3  4  1  1
  3  5  1  0
  4 38  1  0
  4 39  1  0
  4 40  1  0
  5 30  1  0
  5  6  1  1
  5  7  1  0
  6 41  1  0
  7  8  1  0
  7 42  1  0
  7 43  1  0
  8  9  1  0
  8 44  1  0
  8 45  1  0
  9 10  1  0
  9 11  1  0
  9 12  1  0
 10 46  1  0
 10 47  1  0
 10 48  1  0
 11 49  1  0
 11 50  1  0
 11 51  1  0
 12 32  1  0
 12 13  1  0
 12 52  1  6
 13 14  1  0
 13 53  1  0
 13 54  1  0
 14 15  1  0
 14 16  1  0
 14 55  1  6
 15 56  1  0
 16 22  1  0
 16 17  1  0
 17 28  1  0
 17 18  1  0
 17 57  1  6
 18 19  1  0
 18 58  1  0
 18 59  1  0
 19 20  2  0
 19 21  1  0
 21 22  1  0
 22 23  1  1
 22 24  1  0
 23 60  1  0
 23 61  1  0
 23 62  1  0
 24 25  1  0
 24 26  1  0
 24 63  1  6
 25 64  1  0
 26 27  1  6
 28 26  1  1
 26 30  1  0
 27 65  1  0
 28 29  2  0
 30 31  1  6
 30 32  1  0
 31 66  1  0
 31 67  1  0
 31 68  1  0
 32 33  1  0
 32 34  1  0
 33 69  1  0
 33 70  1  0
 33 71  1  0
 34 72  1  0
 34 73  1  0
 34 74  1  0
M  END
>  <i_m_ct_stereo_status>  (15) 
1

>  <s_m_source_file>  (15) 
/var/tmp/pbs.5075288.sched01/tmphozr6t3_/0veliry26.sdf

>  <i_m_source_file_index>  (15) 
59

>  <i_lp_mmshare_version>  (15) 
48012

>  <i_f3d_flags>  (15) 
0

>  <s_epik_input>  (15) 
W09IXVtDQEBIXTFbQ0gyXVtDQEBIXShDMihbQ0gzXSlbQ0gzXSlDKFtDSDNdKShbQ0gzXSlbQ0gyXVtDSDJdW0NAXShbT0hdKShbQ0BdMyhbQ0gzXSlbQ0hdPVtDSDJdKVtDQF0yKFtDSDNdKVtDQEBdKFtPSF0pKFtTK100W08tXSlbQ0BIXShbT0hdKVtDQEBdNShbQ0gzXSlPQyg9TylbQ0gyXVtDQEBIXTRbQ0BAXTEzNQ==

>  <s_epik_cmdline>  (15) 
J2VwaWtfcHl0aG9uJywgJy1waHQnLCAnMi4wJywgJy1waCcsICc3LjAnLCAnLXRuJywgJzgnLCAnLW1hJywgJzIwMCcsICctaW1hZScsICc8aW5maWxlLm1hZT4nLCAnLW9tYWUnLCAnPG91dGZpbGUubWFlPic=

>  <r_lp_tautomer_probability>  (15) 
1

>  <r_epik_Ionization_Penalty>  (15) 
5.50123e-06

>  <r_epik_Ionization_Penalty_Charging>  (15) 
0

>  <r_epik_Ionization_Penalty_Neutral>  (15) 
5.50123e-06

>  <r_epik_State_Penalty>  (15) 
-0

>  <r_epik_Charging_Adjusted_Penalty>  (15) 
0

>  <i_epik_Tot_Q>  (15) 
0

>  <i_epik_Tot_abs_Q>  (15) 
2

>  <s_epik_Chemistry_Notes>  (15) 
This compound has an ester and may undergo hydrolysis at high or low pH.

>  <s_lp_Force_Field>  (15) 
OPLS3e

>  <r_lp_Energy>  (15) 
360.955

>  <b_lp_Chiralities_Consistent>  (15) 
1

>  <s_lp_Variant>  (15) 
9:0-1

>  <s_i_glide_gridfile>  (15) 
pfpi4k_grid

>  <i_i_glide_lignum>  (15) 
59

>  <i_i_glide_rotatable_bonds>  (15) 
5

>  <r_i_docking_score>  (15) 
-1.34622

>  <r_i_glide_ligand_efficiency>  (15) 
-0.0395947

>  <r_i_glide_ligand_efficiency_sa>  (15) 
-0.128271

>  <r_i_glide_ligand_efficiency_ln>  (15) 
-0.297418

>  <r_i_glide_gscore>  (15) 
-1.34622

>  <r_i_glide_lipo>  (15) 
-0.0466948

>  <r_i_glide_hbond>  (15) 
-0.0156277

>  <r_i_glide_metal>  (15) 
-0

>  <r_i_glide_rewards>  (15) 
-0.0227891

>  <r_i_glide_evdw>  (15) 
-19.4258

>  <r_i_glide_ecoul>  (15) 
-2.40832

>  <r_i_glide_erotb>  (15) 
0.0826768

>  <r_i_glide_esite>  (15) 
-0.0112444

>  <r_i_glide_emodel>  (15) 
-24.3883

>  <r_i_glide_energy>  (15) 
-21.8342

>  <r_i_glide_einternal>  (15) 
0.509998

>  <r_i_glide_intrahb_reward>  (15) 
-0

>  <i_i_glide_confnum>  (15) 
3

>  <i_i_glide_posenum>  (15) 
2

>  <r_i_glide_eff_state_penalty>  (15) 
0

>  <ligand_id>  (15) 
9

>  <original_smiles>  (15) 
C=CC1(C)C2(O)CCC(C)(C)C3CC(O)C14C1CC(=O)OC4(C)C(O)C(O)([S+]1[O-])C2(C)C3(C)C

>  <smiles>  (15) 
[H]OC1([H])C2(O[H])S(=O)C3([H])C([H])([H])C(=O)OC1(C([H])([H])[H])C31C([H])(O[H])C([H])([H])C3([H])C(C([H])([H])[H])(C([H])([H])[H])C([H])([H])C([H])([H])C(O[H])(C1(C([H])=C([H])[H])C([H])([H])[H])C2(C([H])([H])[H])C3(C([H])([H])[H])C([H])([H])[H]

$$$$
11:0:0
     RDKit          3D

 87 93  0  0  1  0  0  0  0  0999 V2000
   -0.5335    0.5482    2.5174 C   0  0  0  0  0  0  0  0  0  0  0  0
    0.1607    0.1717    3.6055 C   0  0  0  0  0  0  0  0  0  0  0  0
    1.6596   -0.1474    3.6711 C   0  0  1  0  0  0  0  0  0  0  0  0
    2.3355    1.1557    4.1557 C   0  0  0  0  0  0  0  0  0  0  0  0
    1.9246   -1.2509    4.7302 C   0  0  0  0  0  0  0  0  0  0  0  0
    3.3330   -1.9284    4.6992 C   0  0  0  0  0  0  0  0  0  0  0  0
    4.0552   -2.1471    3.3137 C   0  0  2  0  0  0  0  0  0  0  0  0
    5.5300   -1.7541    3.5572 C   0  0  0  0  0  0  0  0  0  0  0  0
    6.2734   -1.4076    2.3664 O   0  0  0  0  0  0  0  0  0  0  0  0
    5.8006   -1.6837    1.0704 C   0  0  2  0  0  0  0  0  0  0  0  0
    6.5654   -0.9040    0.1851 O   0  0  0  0  0  0  0  0  0  0  0  0
    4.3509   -1.1196    0.9647 C   0  0  0  0  0  0  0  0  0  0  0  0
    3.6891   -0.9788    2.3486 C   0  0  1  0  0  0  0  0  0  0  0  0
    2.2197   -0.5732    2.2832 C   0  0  1  0  0  0  0  0  0  0  0  0
    1.4944   -1.6137    1.6837 O   0  0  0  0  0  0  0  0  0  0  0  0
    6.0873   -3.2298    0.7315 C   0  0  2  0  0  0  0  0  0  0  0  0
    7.6125   -3.4365    0.4864 C   0  0  0  0  0  0  0  0  0  0  0  0
    5.3222   -3.9165   -0.4730 C   0  0  2  0  0  0  0  0  0  0  0  0
    5.2696   -3.0500   -1.7555 C   0  0  0  0  0  0  0  0  0  0  0  0
    3.7813   -2.9109   -2.0155 C   0  0  0  0  0  0  0  0  0  0  0  0
    3.3315   -2.1762   -2.8889 O   0  0  0  0  0  0  0  0  0  0  0  0
    3.0429   -3.8017   -1.1209 C   0  0  0  0  0  0  0  0  0  0  0  0
    1.5674   -4.0357   -1.3420 C   0  0  0  0  0  0  0  0  0  0  0  0
    3.8859   -4.4335   -0.2873 C   0  0  0  0  0  0  0  0  0  0  0  0
    3.4582   -5.6503    0.4309 C   0  0  0  0  0  0  0  0  0  0  0  0
    3.0781   -5.9168    1.7285 C   0  0  0  0  0  0  0  0  0  0  0  0
    2.4413   -7.3359    1.9145 C   0  0  2  0  0  0  0  0  0  0  0  0
    0.9413   -7.4282    2.1622 C   0  0  0  0  0  0  0  0  0  0  0  0
    0.1048   -6.6008    1.7991 O   0  0  0  0  0  0  0  0  0  0  0  0
    0.6867   -8.5904    2.7504 O   0  0  0  0  0  0  0  0  0  0  0  0
    1.8403   -9.4192    2.8609 C   0  0  0  0  0  0  0  0  0  0  0  0
    3.0555   -8.4643    2.7944 C   0  0  1  0  0  0  0  0  0  0  0  0
    4.2315   -9.1709    2.0436 C   0  0  0  0  0  0  0  0  0  0  0  0
    4.4619  -10.4989    2.4839 O   0  0  0  0  0  0  0  0  0  0  0  0
    3.3675   -8.0136    4.2499 C   0  0  1  0  0  0  0  0  0  0  0  0
    3.9646   -9.0529    5.0015 O   0  0  0  0  0  0  0  0  0  0  0  0
    4.2762   -6.7938    4.3965 C   0  0  0  0  0  0  0  0  0  0  0  0
    3.5384   -5.4547    4.3003 C   0  0  0  0  0  0  0  0  0  0  0  0
    3.1065   -4.8742    2.9241 C   0  0  2  0  0  0  0  0  0  0  0  0
    1.6620   -4.4042    3.0696 C   0  0  0  0  0  0  0  0  0  0  0  0
    4.0068   -3.6087    2.6014 C   0  0  2  0  0  0  0  0  0  0  0  0
    5.7518   -4.2367    2.2487 S   0  0  0  0  0  0  0  0  0  0  0  0
    5.8665   -5.7122    1.8632 O   0  0  0  0  0  0  0  0  0  0  0  0
   -0.0658    0.6638    1.5510 H   0  0  0  0  0  0  0  0  0  0  0  0
   -1.5933    0.7551    2.5714 H   0  0  0  0  0  0  0  0  0  0  0  0
   -0.3777    0.0825    4.5400 H   0  0  0  0  0  0  0  0  0  0  0  0
    3.3801    1.0169    4.4401 H   0  0  0  0  0  0  0  0  0  0  0  0
    1.8280    1.5642    5.0312 H   0  0  0  0  0  0  0  0  0  0  0  0
    2.3006    1.9212    3.3795 H   0  0  0  0  0  0  0  0  0  0  0  0
    1.8173   -0.8110    5.7205 H   0  0  0  0  0  0  0  0  0  0  0  0
    1.1097   -1.9734    4.7342 H   0  0  0  0  0  0  0  0  0  0  0  0
    3.9582   -1.2864    5.3407 H   0  0  0  0  0  0  0  0  0  0  0  0
    3.2886   -2.8493    5.2723 H   0  0  0  0  0  0  0  0  0  0  0  0
    5.6186   -0.8539    4.1589 H   0  0  0  0  0  0  0  0  0  0  0  0
    6.0093   -2.5129    4.1681 H   0  0  0  0  0  0  0  0  0  0  0  0
    6.5186   -0.0069    0.4912 H   0  0  0  0  0  0  0  0  0  0  0  0
    4.3952   -0.1141    0.5404 H   0  0  0  0  0  0  0  0  0  0  0  0
    3.7523   -1.7006    0.2784 H   0  0  0  0  0  0  0  0  0  0  0  0
    4.1588   -0.0828    2.7485 H   0  0  0  0  0  0  0  0  0  0  0  0
    2.1639    0.2810    1.6056 H   0  0  0  0  0  0  0  0  0  0  0  0
    1.3093   -1.3584    0.7735 H   0  0  0  0  0  0  0  0  0  0  0  0
    7.9329   -3.0013   -0.4652 H   0  0  0  0  0  0  0  0  0  0  0  0
    7.8615   -4.4984    0.4450 H   0  0  0  0  0  0  0  0  0  0  0  0
    8.2224   -3.0070    1.2745 H   0  0  0  0  0  0  0  0  0  0  0  0
    5.8714   -4.8252   -0.7193 H   0  0  0  0  0  0  0  0  0  0  0  0
    5.6963   -2.0538   -1.6718 H   0  0  0  0  0  0  0  0  0  0  0  0
    5.7385   -3.5436   -2.6098 H   0  0  0  0  0  0  0  0  0  0  0  0
    1.4191   -4.2796   -2.3845 H   0  0  0  0  0  0  0  0  0  0  0  0
    1.0219   -3.1222   -1.1408 H   0  0  0  0  0  0  0  0  0  0  0  0
    1.1588   -4.8497   -0.7455 H   0  0  0  0  0  0  0  0  0  0  0  0
    3.4007   -6.4709   -0.2679 H   0  0  0  0  0  0  0  0  0  0  0  0
    2.4439   -7.7628    0.9161 H   0  0  0  0  0  0  0  0  0  0  0  0
    1.8289  -10.0241    3.7691 H   0  0  0  0  0  0  0  0  0  0  0  0
    1.8396  -10.1135    2.0198 H   0  0  0  0  0  0  0  0  0  0  0  0
    4.0177   -9.2474    0.9760 H   0  0  0  0  0  0  0  0  0  0  0  0
    5.1544   -8.5865    2.1103 H   0  0  0  0  0  0  0  0  0  0  0  0
    4.2331  -11.1109    1.7733 H   0  0  0  0  0  0  0  0  0  0  0  0
    2.4288   -7.7952    4.7593 H   0  0  0  0  0  0  0  0  0  0  0  0
    3.4165   -9.8229    4.9687 H   0  0  0  0  0  0  0  0  0  0  0  0
    4.6651   -6.8141    5.4145 H   0  0  0  0  0  0  0  0  0  0  0  0
    5.1580   -6.8551    3.7683 H   0  0  0  0  0  0  0  0  0  0  0  0
    2.6847   -5.5091    4.9747 H   0  0  0  0  0  0  0  0  0  0  0  0
    4.1943   -4.7366    4.7795 H   0  0  0  0  0  0  0  0  0  0  0  0
    1.5989   -3.4524    3.5400 H   0  0  0  0  0  0  0  0  0  0  0  0
    1.0110   -5.0941    3.6109 H   0  0  0  0  0  0  0  0  0  0  0  0
    1.2640   -4.2550    2.0824 H   0  0  0  0  0  0  0  0  0  0  0  0
    3.5309   -3.3119    1.6955 H   0  0  0  0  0  0  0  0  0  0  0  0
  1  2  2  0
  1 44  1  0
  1 45  1  0
  2  3  1  0
  2 46  1  0
  3 14  1  0
  3  4  1  1
  3  5  1  0
  4 47  1  0
  4 48  1  0
  4 49  1  0
  5  6  1  0
  5 50  1  0
  5 51  1  0
  7  6  1  1
  6 52  1  0
  6 53  1  0
  7 13  1  0
  7 41  1  0
  7  8  1  0
  8  9  1  0
  8 54  1  0
  8 55  1  0
  9 10  1  0
 10 11  1  6
 10 12  1  0
 10 16  1  0
 11 56  1  0
 12 13  1  0
 12 57  1  0
 12 58  1  0
 13 14  1  0
 13 59  1  1
 14 15  1  0
 14 60  1  6
 15 61  1  0
 42 16  1  6
 16 17  1  6
 16 18  1  0
 17 62  1  0
 17 63  1  0
 17 64  1  0
 18 24  1  0
 18 19  1  0
 18 65  1  6
 19 20  1  0
 19 66  1  0
 19 67  1  0
 20 21  2  0
 20 22  1  0
 22 23  1  0
 22 24  2  0
 23 68  1  0
 23 69  1  0
 23 70  1  0
 24 25  1  0
 25 26  2  3
 25 71  1  0
 26 39  1  0
 26 27  1  0
 27 32  1  0
 27 28  1  0
 27 72  1  6
 28 29  2  0
 28 30  1  0
 30 31  1  0
 31 32  1  0
 31 73  1  0
 31 74  1  0
 32 33  1  6
 32 35  1  0
 33 34  1  0
 33 75  1  0
 33 76  1  0
 34 77  1  0
 35 36  1  0
 35 37  1  0
 35 78  1  1
 36 79  1  0
 37 38  1  0
 37 80  1  0
 37 81  1  0
 38 39  1  0
 38 82  1  0
 38 83  1  0
 39 40  1  1
 39 41  1  0
 40 84  1  0
 40 85  1  0
 40 86  1  0
 41 42  1  0
 41 87  1  6
 42 43  2  0
M  END
>  <i_m_ct_stereo_status>  (16) 
1

>  <s_m_source_file>  (16) 
/var/tmp/pbs.5075288.sched01/tmphozr6t3_/0veliry26.sdf

>  <i_m_source_file_index>  (16) 
64

>  <i_lp_mmshare_version>  (16) 
48012

>  <i_f3d_flags>  (16) 
0

>  <s_epik_input>  (16) 
W0NIMl09W0NIXVtDQEBdKFtDSDNdKShbQ0gyXVtDSDJdMSlbQ0BIXShbT0hdKVtDQEBIXShbQ0BdMTIzKVtDSDJdW0NAQF0oW09IXSkoT1tDSDJdMilbQ0BdNChbQ0gzXSlbQ0BIXTVDKD1DKFtDSDNdKUMoPU8pW0NIMl01KS9bQ0hdPUM2L1tDQEhdN1tDQF0oW0NIMl1bT0hdKShbQ0gyXU9DNz1PKVtDQEBIXShbT0hdKVtDSDJdW0NIMl1bQ0BAXTYoW0NIM10pW0NAQEhdM1tTK100W08tXQ==

>  <s_epik_cmdline>  (16) 
J2VwaWtfcHl0aG9uJywgJy1waHQnLCAnMi4wJywgJy1waCcsICc3LjAnLCAnLXRuJywgJzgnLCAnLW1hJywgJzIwMCcsICctaW1hZScsICc8aW5maWxlLm1hZT4nLCAnLW9tYWUnLCAnPG91dGZpbGUubWFlPic=

>  <r_lp_tautomer_probability>  (16) 
1

>  <r_epik_Ionization_Penalty>  (16) 
6.05204e-07

>  <r_epik_Ionization_Penalty_Charging>  (16) 
0

>  <r_epik_Ionization_Penalty_Neutral>  (16) 
6.05204e-07

>  <r_epik_State_Penalty>  (16) 
-0

>  <r_epik_Charging_Adjusted_Penalty>  (16) 
0

>  <i_epik_Tot_Q>  (16) 
0

>  <i_epik_Tot_abs_Q>  (16) 
2

>  <s_epik_Chemistry_Notes>  (16) 
This compound has an ester and may undergo hydrolysis at high or low pH.

>  <s_lp_Force_Field>  (16) 
OPLS3e

>  <r_lp_Energy>  (16) 
134.079

>  <b_lp_Chiralities_Consistent>  (16) 
1

>  <s_lp_Variant>  (16) 
11:0-1

>  <s_i_glide_gridfile>  (16) 
pfpi4k_grid

>  <i_i_glide_lignum>  (16) 
64

>  <i_i_glide_rotatable_bonds>  (16) 
6

>  <r_i_docking_score>  (16) 
-3.9127

>  <r_i_glide_ligand_efficiency>  (16) 
-0.0909929

>  <r_i_glide_ligand_efficiency_sa>  (16) 
-0.318784

>  <r_i_glide_ligand_efficiency_ln>  (16) 
-0.821788

>  <r_i_glide_gscore>  (16) 
-3.9127

>  <r_i_glide_lipo>  (16) 
-0.494026

>  <r_i_glide_hbond>  (16) 
-0.314298

>  <r_i_glide_metal>  (16) 
-0

>  <r_i_glide_rewards>  (16) 
-0.215294

>  <r_i_glide_evdw>  (16) 
-26.2061

>  <r_i_glide_ecoul>  (16) 
-10.6475

>  <r_i_glide_erotb>  (16) 
0.077589

>  <r_i_glide_esite>  (16) 
-0.0592302

>  <r_i_glide_emodel>  (16) 
-42.126

>  <r_i_glide_energy>  (16) 
-36.8536

>  <r_i_glide_einternal>  (16) 
5.92483

>  <r_i_glide_intrahb_reward>  (16) 
-0

>  <i_i_glide_confnum>  (16) 
2

>  <i_i_glide_posenum>  (16) 
37

>  <r_i_glide_eff_state_penalty>  (16) 
0

>  <ligand_id>  (16) 
11

>  <original_smiles>  (16) 
C=CC1(C)CCC23COC(O)(CC2C1O)C1(C)C2CC(=O)C(C)=C2C=C2C4C(=O)OCC4(CO)C(O)CCC2(C)C3[S+]1[O-]

>  <smiles>  (16) 
[H]OC([H])([H])C12C([H])([H])OC(=O)C1([H])C1=C([H])C3=C(C([H])([H])[H])C(=O)C([H])([H])C3([H])C3(C([H])([H])[H])S(=O)C([H])(C1(C([H])([H])[H])C([H])([H])C([H])([H])C2([H])O[H])C12C([H])([H])OC3(O[H])C([H])([H])C1([H])C([H])(O[H])C(C([H])=C([H])[H])(C([H])([H])[H])C([H])([H])C2([H])[H]

$$$$
11:0:1
     RDKit          3D

 87 93  0  0  1  0  0  0  0  0999 V2000
   -0.6877    0.6570    2.4598 C   0  0  0  0  0  0  0  0  0  0  0  0
    0.0246    0.3447    3.5622 C   0  0  0  0  0  0  0  0  0  0  0  0
    1.5237    0.0386    3.6245 C   0  0  1  0  0  0  0  0  0  0  0  0
    2.1955    1.3575    4.0649 C   0  0  0  0  0  0  0  0  0  0  0  0
    1.7994   -1.0351    4.7124 C   0  0  0  0  0  0  0  0  0  0  0  0
    3.2138   -1.7027    4.6949 C   0  0  0  0  0  0  0  0  0  0  0  0
    3.9337   -1.9593    3.3159 C   0  0  2  0  0  0  0  0  0  0  0  0
    5.4161   -1.5479    3.5389 C   0  0  0  0  0  0  0  0  0  0  0  0
    6.1804   -1.2737    2.3397 O   0  0  0  0  0  0  0  0  0  0  0  0
    5.6745   -1.5610    1.0457 C   0  0  2  0  0  0  0  0  0  0  0  0
    6.4115   -0.8020    0.1208 O   0  0  0  0  0  0  0  0  0  0  0  0
    4.2170   -1.0088    0.9456 C   0  0  0  0  0  0  0  0  0  0  0  0
    3.5631   -0.8217    2.3229 C   0  0  1  0  0  0  0  0  0  0  0  0
    2.0921   -0.4150    2.2484 C   0  0  1  0  0  0  0  0  0  0  0  0
    1.3880   -1.4800    1.6853 O   0  0  0  0  0  0  0  0  0  0  0  0
    5.9481   -3.1139    0.7468 C   0  0  2  0  0  0  0  0  0  0  0  0
    7.4651   -3.3224    0.4969 C   0  0  0  0  0  0  0  0  0  0  0  0
    5.1787   -3.8421   -0.4321 C   0  0  2  0  0  0  0  0  0  0  0  0
    5.1114   -3.0158   -1.7391 C   0  0  0  0  0  0  0  0  0  0  0  0
    3.6258   -2.9045   -1.9996 C   0  0  0  0  0  0  0  0  0  0  0  0
    3.1677   -2.1852   -2.8877 O   0  0  0  0  0  0  0  0  0  0  0  0
    2.8981   -3.7756   -1.0897 C   0  0  0  0  0  0  0  0  0  0  0  0
    1.4302   -4.0160   -1.2919 C   0  0  0  0  0  0  0  0  0  0  0  0
    3.7458   -4.3584   -0.2258 C   0  0  0  0  0  0  0  0  0  0  0  0
    3.3200   -5.5518    0.5374 C   0  0  0  0  0  0  0  0  0  0  0  0
    2.9536   -5.7786    1.8375 C   0  0  0  0  0  0  0  0  0  0  0  0
    2.3271   -7.2006    2.0785 C   0  0  2  0  0  0  0  0  0  0  0  0
    0.8264   -7.2990    2.3432 C   0  0  0  0  0  0  0  0  0  0  0  0
   -0.0185   -6.4955    1.9609 O   0  0  0  0  0  0  0  0  0  0  0  0
    0.5956   -8.4403    2.9760 O   0  0  0  0  0  0  0  0  0  0  0  0
    1.7558   -9.2513    3.1085 C   0  0  0  0  0  0  0  0  0  0  0  0
    2.9583   -8.2810    2.9852 C   0  0  1  0  0  0  0  0  0  0  0  0
    4.0963   -9.0617    2.2616 C   0  0  0  0  0  0  0  0  0  0  0  0
    5.2159   -8.2738    1.9432 O   0  0  0  0  0  0  0  0  0  0  0  0
    3.2812   -7.8087    4.4267 C   0  0  1  0  0  0  0  0  0  0  0  0
    3.9050   -8.8545    5.1478 O   0  0  0  0  0  0  0  0  0  0  0  0
    4.1739   -6.5702    4.5458 C   0  0  0  0  0  0  0  0  0  0  0  0
    3.4216   -5.2408    4.4054 C   0  0  0  0  0  0  0  0  0  0  0  0
    2.9856   -4.7037    3.0081 C   0  0  2  0  0  0  0  0  0  0  0  0
    1.5367   -4.2383    3.1213 C   0  0  0  0  0  0  0  0  0  0  0  0
    3.8749   -3.4390    2.6410 C   0  0  2  0  0  0  0  0  0  0  0  0
    5.6230   -4.0550    2.2999 S   0  0  0  0  0  0  0  0  0  0  0  0
    5.7663   -5.5355    1.9600 O   0  0  0  0  0  0  0  0  0  0  0  0
   -0.2306    0.7189    1.4846 H   0  0  0  0  0  0  0  0  0  0  0  0
   -1.7454    0.8612    2.5155 H   0  0  0  0  0  0  0  0  0  0  0  0
   -0.5052    0.3061    4.5043 H   0  0  0  0  0  0  0  0  0  0  0  0
    3.2424    1.2319    4.3447 H   0  0  0  0  0  0  0  0  0  0  0  0
    1.6906    1.7909    4.9303 H   0  0  0  0  0  0  0  0  0  0  0  0
    2.1505    2.0967    3.2638 H   0  0  0  0  0  0  0  0  0  0  0  0
    1.6965   -0.5646    5.6922 H   0  0  0  0  0  0  0  0  0  0  0  0
    0.9890   -1.7620    4.7443 H   0  0  0  0  0  0  0  0  0  0  0  0
    3.8359   -1.0413    5.3130 H   0  0  0  0  0  0  0  0  0  0  0  0
    3.1748   -2.6061    5.2957 H   0  0  0  0  0  0  0  0  0  0  0  0
    5.4978   -0.6253    4.1086 H   0  0  0  0  0  0  0  0  0  0  0  0
    5.8609   -2.2844    4.1948 H   0  0  0  0  0  0  0  0  0  0  0  0
    6.2929    0.1119    0.3533 H   0  0  0  0  0  0  0  0  0  0  0  0
    4.2418   -0.0197    0.4833 H   0  0  0  0  0  0  0  0  0  0  0  0
    3.6159   -1.6124    0.2789 H   0  0  0  0  0  0  0  0  0  0  0  0
    4.0292    0.0899    2.6880 H   0  0  0  0  0  0  0  0  0  0  0  0
    2.0193    0.4148    1.5446 H   0  0  0  0  0  0  0  0  0  0  0  0
    1.1730   -1.2373    0.7662 H   0  0  0  0  0  0  0  0  0  0  0  0
    7.7768   -2.9269   -0.4688 H   0  0  0  0  0  0  0  0  0  0  0  0
    7.7253   -4.3804    0.4989 H   0  0  0  0  0  0  0  0  0  0  0  0
    8.0753   -2.8533    1.2577 H   0  0  0  0  0  0  0  0  0  0  0  0
    5.7349   -4.7522   -0.6653 H   0  0  0  0  0  0  0  0  0  0  0  0
    5.5361   -2.0157   -1.6842 H   0  0  0  0  0  0  0  0  0  0  0  0
    5.5797   -3.5396   -2.5766 H   0  0  0  0  0  0  0  0  0  0  0  0
    1.2849   -4.2958   -2.3175 H   0  0  0  0  0  0  0  0  0  0  0  0
    0.8988   -3.0870   -1.1450 H   0  0  0  0  0  0  0  0  0  0  0  0
    1.0313   -4.8164   -0.6857 H   0  0  0  0  0  0  0  0  0  0  0  0
    3.2521   -6.3977   -0.1294 H   0  0  0  0  0  0  0  0  0  0  0  0
    2.3382   -7.6673    1.0974 H   0  0  0  0  0  0  0  0  0  0  0  0
    1.7592   -9.8228    4.0376 H   0  0  0  0  0  0  0  0  0  0  0  0
    1.7529   -9.9749    2.2924 H   0  0  0  0  0  0  0  0  0  0  0  0
    4.4266   -9.9150    2.8493 H   0  0  0  0  0  0  0  0  0  0  0  0
    3.7364   -9.4783    1.3207 H   0  0  0  0  0  0  0  0  0  0  0  0
    5.8869   -8.8268    1.5657 H   0  0  0  0  0  0  0  0  0  0  0  0
    2.3483   -7.5882    4.9485 H   0  0  0  0  0  0  0  0  0  0  0  0
    3.3170   -9.5960    5.2017 H   0  0  0  0  0  0  0  0  0  0  0  0
    4.5628   -6.5635    5.5640 H   0  0  0  0  0  0  0  0  0  0  0  0
    5.0555   -6.6300    3.9195 H   0  0  0  0  0  0  0  0  0  0  0  0
    2.5700   -5.2722    5.0856 H   0  0  0  0  0  0  0  0  0  0  0  0
    4.0795   -4.5036    4.8551 H   0  0  0  0  0  0  0  0  0  0  0  0
    1.4629   -3.2724    3.5669 H   0  0  0  0  0  0  0  0  0  0  0  0
    0.8894   -4.9070    3.6911 H   0  0  0  0  0  0  0  0  0  0  0  0
    1.1458   -4.1372    2.1193 H   0  0  0  0  0  0  0  0  0  0  0  0
    3.3940   -3.1763    1.7276 H   0  0  0  0  0  0  0  0  0  0  0  0
  1  2  2  0
  1 44  1  0
  1 45  1  0
  2  3  1  0
  2 46  1  0
  3 14  1  0
  3  4  1  1
  3  5  1  0
  4 47  1  0
  4 48  1  0
  4 49  1  0
  5  6  1  0
  5 50  1  0
  5 51  1  0
  7  6  1  1
  6 52  1  0
  6 53  1  0
  7 13  1  0
  7 41  1  0
  7  8  1  0
  8  9  1  0
  8 54  1  0
  8 55  1  0
  9 10  1  0
 10 11  1  6
 10 12  1  0
 10 16  1  0
 11 56  1  0
 12 13  1  0
 12 57  1  0
 12 58  1  0
 13 14  1  0
 13 59  1  1
 14 15  1  0
 14 60  1  6
 15 61  1  0
 42 16  1  6
 16 17  1  6
 16 18  1  0
 17 62  1  0
 17 63  1  0
 17 64  1  0
 18 24  1  0
 18 19  1  0
 18 65  1  6
 19 20  1  0
 19 66  1  0
 19 67  1  0
 20 21  2  0
 20 22  1  0
 22 23  1  0
 22 24  2  0
 23 68  1  0
 23 69  1  0
 23 70  1  0
 24 25  1  0
 25 26  2  3
 25 71  1  0
 26 39  1  0
 26 27  1  0
 27 32  1  0
 27 28  1  0
 27 72  1  6
 28 29  2  0
 28 30  1  0
 30 31  1  0
 31 32  1  0
 31 73  1  0
 31 74  1  0
 32 33  1  6
 32 35  1  0
 33 34  1  0
 33 75  1  0
 33 76  1  0
 34 77  1  0
 35 36  1  0
 35 37  1  0
 35 78  1  1
 36 79  1  0
 37 38  1  0
 37 80  1  0
 37 81  1  0
 38 39  1  0
 38 82  1  0
 38 83  1  0
 39 40  1  1
 39 41  1  0
 40 84  1  0
 40 85  1  0
 40 86  1  0
 41 42  1  0
 41 87  1  6
 42 43  2  0
M  END
>  <i_m_ct_stereo_status>  (17) 
1

>  <s_m_source_file>  (17) 
/var/tmp/pbs.5075288.sched01/tmphozr6t3_/0veliry26.sdf

>  <i_m_source_file_index>  (17) 
64

>  <i_lp_mmshare_version>  (17) 
48012

>  <i_f3d_flags>  (17) 
0

>  <s_epik_input>  (17) 
W0NIMl09W0NIXVtDQEBdKFtDSDNdKShbQ0gyXVtDSDJdMSlbQ0BIXShbT0hdKVtDQEBIXShbQ0BdMTIzKVtDSDJdW0NAQF0oW09IXSkoT1tDSDJdMilbQ0BdNChbQ0gzXSlbQ0BIXTVDKD1DKFtDSDNdKUMoPU8pW0NIMl01KS9bQ0hdPUM2L1tDQEhdN1tDQF0oW0NIMl1bT0hdKShbQ0gyXU9DNz1PKVtDQEBIXShbT0hdKVtDSDJdW0NIMl1bQ0BAXTYoW0NIM10pW0NAQEhdM1tTK100W08tXQ==

>  <s_epik_cmdline>  (17) 
J2VwaWtfcHl0aG9uJywgJy1waHQnLCAnMi4wJywgJy1waCcsICc3LjAnLCAnLXRuJywgJzgnLCAnLW1hJywgJzIwMCcsICctaW1hZScsICc8aW5maWxlLm1hZT4nLCAnLW9tYWUnLCAnPG91dGZpbGUubWFlPic=

>  <r_lp_tautomer_probability>  (17) 
1

>  <r_epik_Ionization_Penalty>  (17) 
6.05204e-07

>  <r_epik_Ionization_Penalty_Charging>  (17) 
0

>  <r_epik_Ionization_Penalty_Neutral>  (17) 
6.05204e-07

>  <r_epik_State_Penalty>  (17) 
-0

>  <r_epik_Charging_Adjusted_Penalty>  (17) 
0

>  <i_epik_Tot_Q>  (17) 
0

>  <i_epik_Tot_abs_Q>  (17) 
2

>  <s_epik_Chemistry_Notes>  (17) 
This compound has an ester and may undergo hydrolysis at high or low pH.

>  <s_lp_Force_Field>  (17) 
OPLS3e

>  <r_lp_Energy>  (17) 
134.079

>  <b_lp_Chiralities_Consistent>  (17) 
1

>  <s_lp_Variant>  (17) 
11:0-1

>  <s_i_glide_gridfile>  (17) 
pfpi4k_grid

>  <i_i_glide_lignum>  (17) 
64

>  <i_i_glide_rotatable_bonds>  (17) 
6

>  <r_i_docking_score>  (17) 
-3.63087

>  <r_i_glide_ligand_efficiency>  (17) 
-0.0844388

>  <r_i_glide_ligand_efficiency_sa>  (17) 
-0.295823

>  <r_i_glide_ligand_efficiency_ln>  (17) 
-0.762595

>  <r_i_glide_gscore>  (17) 
-3.63087

>  <r_i_glide_lipo>  (17) 
-0.428967

>  <r_i_glide_hbond>  (17) 
-0.394579

>  <r_i_glide_metal>  (17) 
-0

>  <r_i_glide_rewards>  (17) 
-0.206417

>  <r_i_glide_evdw>  (17) 
-26.8555

>  <r_i_glide_ecoul>  (17) 
-8.49652

>  <r_i_glide_erotb>  (17) 
0.077589

>  <r_i_glide_esite>  (17) 
-0.061242

>  <r_i_glide_emodel>  (17) 
-42.0561

>  <r_i_glide_energy>  (17) 
-35.352

>  <r_i_glide_einternal>  (17) 
3.32463

>  <r_i_glide_intrahb_reward>  (17) 
-0

>  <i_i_glide_confnum>  (17) 
2

>  <i_i_glide_posenum>  (17) 
3

>  <r_i_glide_eff_state_penalty>  (17) 
0

>  <ligand_id>  (17) 
11

>  <original_smiles>  (17) 
C=CC1(C)CCC23COC(O)(CC2C1O)C1(C)C2CC(=O)C(C)=C2C=C2C4C(=O)OCC4(CO)C(O)CCC2(C)C3[S+]1[O-]

>  <smiles>  (17) 
[H]OC([H])([H])C12C([H])([H])OC(=O)C1([H])C1=C([H])C3=C(C([H])([H])[H])C(=O)C([H])([H])C3([H])C3(C([H])([H])[H])S(=O)C([H])(C1(C([H])([H])[H])C([H])([H])C([H])([H])C2([H])O[H])C12C([H])([H])OC3(O[H])C([H])([H])C1([H])C([H])(O[H])C(C([H])=C([H])[H])(C([H])([H])[H])C([H])([H])C2([H])[H]

$$$$
11:0:2
     RDKit          3D

 87 93  0  0  1  0  0  0  0  0999 V2000
    5.4401   -1.3504    6.9812 C   0  0  0  0  0  0  0  0  0  0  0  0
    5.2999   -2.3303    7.8919 C   0  0  0  0  0  0  0  0  0  0  0  0
    5.9922   -3.7006    7.8891 C   0  0  1  0  0  0  0  0  0  0  0  0
    7.1348   -3.5771    8.9264 C   0  0  0  0  0  0  0  0  0  0  0  0
    5.0119   -4.7998    8.3774 C   0  0  0  0  0  0  0  0  0  0  0  0
    5.4425   -6.2873    8.1322 C   0  0  0  0  0  0  0  0  0  0  0  0
    6.2740   -6.6774    6.8451 C   0  0  2  0  0  0  0  0  0  0  0  0
    7.4000   -7.6619    7.3210 C   0  0  0  0  0  0  0  0  0  0  0  0
    8.5268   -7.7907    6.4238 O   0  0  0  0  0  0  0  0  0  0  0  0
    8.5188   -7.2297    5.1215 C   0  0  2  0  0  0  0  0  0  0  0  0
    9.8633   -7.1479    4.6990 O   0  0  0  0  0  0  0  0  0  0  0  0
    8.0252   -5.7499    5.2050 C   0  0  0  0  0  0  0  0  0  0  0  0
    7.1852   -5.4750    6.4620 C   0  0  1  0  0  0  0  0  0  0  0  0
    6.5521   -4.0751    6.4826 C   0  0  1  0  0  0  0  0  0  0  0  0
    5.6086   -3.9671    5.4360 O   0  0  0  0  0  0  0  0  0  0  0  0
    7.7381   -8.2458    4.1564 C   0  0  2  0  0  0  0  0  0  0  0  0
    8.6320   -9.4917    3.9421 C   0  0  0  0  0  0  0  0  0  0  0  0
    7.2357   -7.7591    2.7255 C   0  0  2  0  0  0  0  0  0  0  0  0
    8.2627   -6.9043    1.9426 C   0  0  0  0  0  0  0  0  0  0  0  0
    7.5210   -5.6114    1.6730 C   0  0  0  0  0  0  0  0  0  0  0  0
    8.0727   -4.6195    1.2035 O   0  0  0  0  0  0  0  0  0  0  0  0
    6.1131   -5.7699    2.0267 C   0  0  0  0  0  0  0  0  0  0  0  0
    5.1129   -4.6871    1.6686 C   0  0  0  0  0  0  0  0  0  0  0  0
    5.9075   -6.9811    2.5707 C   0  0  0  0  0  0  0  0  0  0  0  0
    4.5412   -7.5241    2.6688 C   0  0  0  0  0  0  0  0  0  0  0  0
    3.6480   -7.6868    3.7046 C   0  0  0  0  0  0  0  0  0  0  0  0
    2.2043   -8.0698    3.2288 C   0  0  2  0  0  0  0  0  0  0  0  0
    1.0930   -7.0279    3.3321 C   0  0  0  0  0  0  0  0  0  0  0  0
    1.2467   -5.8089    3.3153 O   0  0  0  0  0  0  0  0  0  0  0  0
   -0.0726   -7.6576    3.3396 O   0  0  0  0  0  0  0  0  0  0  0  0
    0.0543   -9.0602    3.1581 C   0  0  0  0  0  0  0  0  0  0  0  0
    1.5088   -9.4088    3.5771 C   0  0  1  0  0  0  0  0  0  0  0  0
    1.9820  -10.5591    2.6468 C   0  0  0  0  0  0  0  0  0  0  0  0
    3.2993  -11.0024    2.8818 O   0  0  0  0  0  0  0  0  0  0  0  0
    1.4669   -9.7577    5.0908 C   0  0  1  0  0  0  0  0  0  0  0  0
    0.8862  -11.0366    5.2765 O   0  0  0  0  0  0  0  0  0  0  0  0
    2.8121   -9.7609    5.8146 C   0  0  0  0  0  0  0  0  0  0  0  0
    3.2948   -8.3717    6.2497 C   0  0  0  0  0  0  0  0  0  0  0  0
    3.9444   -7.3795    5.2298 C   0  0  2  0  0  0  0  0  0  0  0  0
    3.3216   -5.9916    5.4455 C   0  0  0  0  0  0  0  0  0  0  0  0
    5.4985   -7.2886    5.5538 C   0  0  2  0  0  0  0  0  0  0  0  0
    6.2896   -8.9298    5.0780 S   0  0  0  0  0  0  0  0  0  0  0  0
    5.5084   -9.7750    4.0782 O   0  0  0  0  0  0  0  0  0  0  0  0
    6.0908   -1.4579    6.1264 H   0  0  0  0  0  0  0  0  0  0  0  0
    4.9058   -0.4166    7.0743 H   0  0  0  0  0  0  0  0  0  0  0  0
    4.6321   -2.1453    8.7247 H   0  0  0  0  0  0  0  0  0  0  0  0
    7.5879   -4.5353    9.1815 H   0  0  0  0  0  0  0  0  0  0  0  0
    6.7765   -3.1510    9.8666 H   0  0  0  0  0  0  0  0  0  0  0  0
    7.9263   -2.9207    8.5629 H   0  0  0  0  0  0  0  0  0  0  0  0
    4.8837   -4.6883    9.4571 H   0  0  0  0  0  0  0  0  0  0  0  0
    4.0045   -4.5873    8.0278 H   0  0  0  0  0  0  0  0  0  0  0  0
    6.0350   -6.5377    9.0173 H   0  0  0  0  0  0  0  0  0  0  0  0
    4.5690   -6.9223    8.2484 H   0  0  0  0  0  0  0  0  0  0  0  0
    7.8485   -7.3109    8.2491 H   0  0  0  0  0  0  0  0  0  0  0  0
    7.0060   -8.6393    7.6019 H   0  0  0  0  0  0  0  0  0  0  0  0
    9.8898   -7.2413    3.7551 H   0  0  0  0  0  0  0  0  0  0  0  0
    8.8928   -5.0914    5.2582 H   0  0  0  0  0  0  0  0  0  0  0  0
    7.5094   -5.4577    4.2997 H   0  0  0  0  0  0  0  0  0  0  0  0
    7.9472   -5.3946    7.2335 H   0  0  0  0  0  0  0  0  0  0  0  0
    7.3457   -3.3682    6.2458 H   0  0  0  0  0  0  0  0  0  0  0  0
    4.8786   -4.5405    5.6271 H   0  0  0  0  0  0  0  0  0  0  0  0
    9.4678   -9.2554    3.2921 H   0  0  0  0  0  0  0  0  0  0  0  0
    8.0838  -10.2997    3.4584 H   0  0  0  0  0  0  0  0  0  0  0  0
    9.0280   -9.8861    4.8782 H   0  0  0  0  0  0  0  0  0  0  0  0
    7.0658   -8.6563    2.1312 H   0  0  0  0  0  0  0  0  0  0  0  0
    9.1818   -6.6733    2.4719 H   0  0  0  0  0  0  0  0  0  0  0  0
    8.5356   -7.3688    0.9936 H   0  0  0  0  0  0  0  0  0  0  0  0
    5.2056   -4.4167    0.6200 H   0  0  0  0  0  0  0  0  0  0  0  0
    5.3160   -3.7996    2.2644 H   0  0  0  0  0  0  0  0  0  0  0  0
    4.0830   -4.9811    1.8558 H   0  0  0  0  0  0  0  0  0  0  0  0
    4.1749   -7.7808    1.6856 H   0  0  0  0  0  0  0  0  0  0  0  0
    2.2764   -8.1009    2.1443 H   0  0  0  0  0  0  0  0  0  0  0  0
   -0.6949   -9.6185    3.7188 H   0  0  0  0  0  0  0  0  0  0  0  0
   -0.1119   -9.2758    2.1012 H   0  0  0  0  0  0  0  0  0  0  0  0
    1.3076  -11.4115    2.7171 H   0  0  0  0  0  0  0  0  0  0  0  0
    1.9404  -10.2342    1.6073 H   0  0  0  0  0  0  0  0  0  0  0  0
    3.5781  -11.5411    2.1502 H   0  0  0  0  0  0  0  0  0  0  0  0
    0.8178   -9.0448    5.5982 H   0  0  0  0  0  0  0  0  0  0  0  0
    1.0237  -11.3439    6.1717 H   0  0  0  0  0  0  0  0  0  0  0  0
    2.6606  -10.3146    6.7406 H   0  0  0  0  0  0  0  0  0  0  0  0
    3.5645  -10.3307    5.2866 H   0  0  0  0  0  0  0  0  0  0  0  0
    2.4745   -7.8954    6.7855 H   0  0  0  0  0  0  0  0  0  0  0  0
    4.0223   -8.5832    7.0277 H   0  0  0  0  0  0  0  0  0  0  0  0
    3.7269   -5.5244    6.3133 H   0  0  0  0  0  0  0  0  0  0  0  0
    2.2444   -6.0260    5.6084 H   0  0  0  0  0  0  0  0  0  0  0  0
    3.5175   -5.3313    4.5976 H   0  0  0  0  0  0  0  0  0  0  0  0
    5.7462   -6.5417    4.8361 H   0  0  0  0  0  0  0  0  0  0  0  0
  1  2  2  0
  1 44  1  0
  1 45  1  0
  2  3  1  0
  2 46  1  0
  3 14  1  0
  3  4  1  1
  3  5  1  0
  4 47  1  0
  4 48  1  0
  4 49  1  0
  5  6  1  0
  5 50  1  0
  5 51  1  0
  7  6  1  1
  6 52  1  0
  6 53  1  0
  7 13  1  0
  7 41  1  0
  7  8  1  0
  8  9  1  0
  8 54  1  0
  8 55  1  0
  9 10  1  0
 10 11  1  6
 10 12  1  0
 10 16  1  0
 11 56  1  0
 12 13  1  0
 12 57  1  0
 12 58  1  0
 13 14  1  0
 13 59  1  1
 14 15  1  0
 14 60  1  6
 15 61  1  0
 42 16  1  6
 16 17  1  6
 16 18  1  0
 17 62  1  0
 17 63  1  0
 17 64  1  0
 18 24  1  0
 18 19  1  0
 18 65  1  6
 19 20  1  0
 19 66  1  0
 19 67  1  0
 20 21  2  0
 20 22  1  0
 22 23  1  0
 22 24  2  0
 23 68  1  0
 23 69  1  0
 23 70  1  0
 24 25  1  0
 25 26  2  3
 25 71  1  0
 26 39  1  0
 26 27  1  0
 27 32  1  0
 27 28  1  0
 27 72  1  6
 28 29  2  0
 28 30  1  0
 30 31  1  0
 31 32  1  0
 31 73  1  0
 31 74  1  0
 32 33  1  6
 32 35  1  0
 33 34  1  0
 33 75  1  0
 33 76  1  0
 34 77  1  0
 35 36  1  0
 35 37  1  0
 35 78  1  1
 36 79  1  0
 37 38  1  0
 37 80  1  0
 37 81  1  0
 38 39  1  0
 38 82  1  0
 38 83  1  0
 39 40  1  1
 39 41  1  0
 40 84  1  0
 40 85  1  0
 40 86  1  0
 41 42  1  0
 41 87  1  6
 42 43  2  0
M  END
>  <i_m_ct_stereo_status>  (18) 
1

>  <s_m_source_file>  (18) 
/var/tmp/pbs.5075288.sched01/tmphozr6t3_/0veliry26.sdf

>  <i_m_source_file_index>  (18) 
64

>  <i_lp_mmshare_version>  (18) 
48012

>  <i_f3d_flags>  (18) 
0

>  <s_epik_input>  (18) 
W0NIMl09W0NIXVtDQEBdKFtDSDNdKShbQ0gyXVtDSDJdMSlbQ0BIXShbT0hdKVtDQEBIXShbQ0BdMTIzKVtDSDJdW0NAQF0oW09IXSkoT1tDSDJdMilbQ0BdNChbQ0gzXSlbQ0BIXTVDKD1DKFtDSDNdKUMoPU8pW0NIMl01KS9bQ0hdPUM2L1tDQEhdN1tDQF0oW0NIMl1bT0hdKShbQ0gyXU9DNz1PKVtDQEBIXShbT0hdKVtDSDJdW0NIMl1bQ0BAXTYoW0NIM10pW0NAQEhdM1tTK100W08tXQ==

>  <s_epik_cmdline>  (18) 
J2VwaWtfcHl0aG9uJywgJy1waHQnLCAnMi4wJywgJy1waCcsICc3LjAnLCAnLXRuJywgJzgnLCAnLW1hJywgJzIwMCcsICctaW1hZScsICc8aW5maWxlLm1hZT4nLCAnLW9tYWUnLCAnPG91dGZpbGUubWFlPic=

>  <r_lp_tautomer_probability>  (18) 
1

>  <r_epik_Ionization_Penalty>  (18) 
6.05204e-07

>  <r_epik_Ionization_Penalty_Charging>  (18) 
0

>  <r_epik_Ionization_Penalty_Neutral>  (18) 
6.05204e-07

>  <r_epik_State_Penalty>  (18) 
-0

>  <r_epik_Charging_Adjusted_Penalty>  (18) 
0

>  <i_epik_Tot_Q>  (18) 
0

>  <i_epik_Tot_abs_Q>  (18) 
2

>  <s_epik_Chemistry_Notes>  (18) 
This compound has an ester and may undergo hydrolysis at high or low pH.

>  <s_lp_Force_Field>  (18) 
OPLS3e

>  <r_lp_Energy>  (18) 
134.079

>  <b_lp_Chiralities_Consistent>  (18) 
1

>  <s_lp_Variant>  (18) 
11:0-1

>  <s_i_glide_gridfile>  (18) 
pfpi4k_grid

>  <i_i_glide_lignum>  (18) 
64

>  <i_i_glide_rotatable_bonds>  (18) 
6

>  <r_i_docking_score>  (18) 
-2.35355

>  <r_i_glide_ligand_efficiency>  (18) 
-0.0547337

>  <r_i_glide_ligand_efficiency_sa>  (18) 
-0.191754

>  <r_i_glide_ligand_efficiency_ln>  (18) 
-0.494318

>  <r_i_glide_gscore>  (18) 
-2.35355

>  <r_i_glide_lipo>  (18) 
-0.248022

>  <r_i_glide_hbond>  (18) 
0

>  <r_i_glide_metal>  (18) 
-0

>  <r_i_glide_rewards>  (18) 
-0.0859413

>  <r_i_glide_evdw>  (18) 
-23.1411

>  <r_i_glide_ecoul>  (18) 
-6.35182

>  <r_i_glide_erotb>  (18) 
0.110841

>  <r_i_glide_esite>  (18) 
-0.0205969

>  <r_i_glide_emodel>  (18) 
-32.7678

>  <r_i_glide_energy>  (18) 
-29.493

>  <r_i_glide_einternal>  (18) 
4.39903

>  <r_i_glide_intrahb_reward>  (18) 
-0

>  <i_i_glide_confnum>  (18) 
2

>  <i_i_glide_posenum>  (18) 
5

>  <r_i_glide_eff_state_penalty>  (18) 
0

>  <ligand_id>  (18) 
11

>  <original_smiles>  (18) 
C=CC1(C)CCC23COC(O)(CC2C1O)C1(C)C2CC(=O)C(C)=C2C=C2C4C(=O)OCC4(CO)C(O)CCC2(C)C3[S+]1[O-]

>  <smiles>  (18) 
[H]OC([H])([H])C12C([H])([H])OC(=O)C1([H])C1=C([H])C3=C(C([H])([H])[H])C(=O)C([H])([H])C3([H])C3(C([H])([H])[H])S(=O)C([H])(C1(C([H])([H])[H])C([H])([H])C([H])([H])C2([H])O[H])C12C([H])([H])OC3(O[H])C([H])([H])C1([H])C([H])(O[H])C(C([H])=C([H])[H])(C([H])([H])[H])C([H])([H])C2([H])[H]

$$$$
11:2:0
     RDKit          3D

 87 93  0  0  1  0  0  0  0  0999 V2000
   -0.8062   -8.0040    4.6618 C   0  0  0  0  0  0  0  0  0  0  0  0
   -0.5690   -6.7080    4.9580 C   0  0  0  0  0  0  0  0  0  0  0  0
    0.7843   -5.9696    4.9511 C   0  0  1  0  0  0  0  0  0  0  0  0
    1.8812   -6.9509    4.4599 C   0  0  0  0  0  0  0  0  0  0  0  0
    0.7165   -4.7572    3.9792 C   0  0  0  0  0  0  0  0  0  0  0  0
    1.9602   -3.8309    4.0349 C   0  0  0  0  0  0  0  0  0  0  0  0
    2.2621   -3.2143    5.4368 C   0  0  2  0  0  0  0  0  0  0  0  0
    3.7878   -2.8532    5.4564 C   0  0  0  0  0  0  0  0  0  0  0  0
    4.4395   -2.8368    6.7608 O   0  0  0  0  0  0  0  0  0  0  0  0
    3.6598   -2.7603    7.9410 C   0  0  2  0  0  0  0  0  0  0  0  0
    4.4866   -2.7438    9.0794 O   0  0  0  0  0  0  0  0  0  0  0  0
    2.8934   -4.1446    7.8841 C   0  0  0  0  0  0  0  0  0  0  0  0
    2.3120   -4.4497    6.4417 C   0  0  1  0  0  0  0  0  0  0  0  0
    1.1193   -5.4589    6.3933 C   0  0  1  0  0  0  0  0  0  0  0  0
   -0.0212   -4.9178    7.0344 O   0  0  0  0  0  0  0  0  0  0  0  0
    2.8101   -1.3993    7.9031 C   0  0  2  0  0  0  0  0  0  0  0  0
    3.6606   -0.4504    6.9490 C   0  0  0  0  0  0  0  0  0  0  0  0
    2.5064   -0.3836    9.0310 C   0  0  2  0  0  0  0  0  0  0  0  0
    1.9491   -0.8553   10.3918 C   0  0  0  0  0  0  0  0  0  0  0  0
    0.9970    0.2800   10.7377 C   0  0  0  0  0  0  0  0  0  0  0  0
    0.5610    0.4449   11.8755 O   0  0  0  0  0  0  0  0  0  0  0  0
    0.7018    1.0888    9.5477 C   0  0  0  0  0  0  0  0  0  0  0  0
   -0.3350    2.1958    9.6199 C   0  0  0  0  0  0  0  0  0  0  0  0
    1.4414    0.6621    8.5087 C   0  0  0  0  0  0  0  0  0  0  0  0
    1.3845    1.2813    7.1397 C   0  0  0  0  0  0  0  0  0  0  0  0
    1.3045    0.7675    5.8372 C   0  0  0  0  0  0  0  0  0  0  0  0
    2.0516    1.5608    4.6870 C   0  0  2  0  0  0  0  0  0  0  0  0
    2.9630    2.7140    5.1370 C   0  0  0  0  0  0  0  0  0  0  0  0
    4.0256    2.5665    5.7285 O   0  0  0  0  0  0  0  0  0  0  0  0
    2.4333    3.8736    4.7733 O   0  0  0  0  0  0  0  0  0  0  0  0
    1.2299    3.7315    4.0446 C   0  0  0  0  0  0  0  0  0  0  0  0
    1.2611    2.2680    3.5478 C   0  0  1  0  0  0  0  0  0  0  0  0
    2.0610    2.2393    2.2005 C   0  0  0  0  0  0  0  0  0  0  0  0
    2.4765    0.9578    1.7603 O   0  0  0  0  0  0  0  0  0  0  0  0
   -0.1702    1.7450    3.3810 C   0  0  1  0  0  0  0  0  0  0  0  0
   -0.9367    2.5422    2.4916 O   0  0  0  0  0  0  0  0  0  0  0  0
   -0.2319    0.2791    2.9291 C   0  0  0  0  0  0  0  0  0  0  0  0
    0.6102   -0.7304    3.7644 C   0  0  0  0  0  0  0  0  0  0  0  0
    0.6372   -0.6142    5.3209 C   0  0  2  0  0  0  0  0  0  0  0  0
   -0.8791   -0.4987    5.7415 C   0  0  0  0  0  0  0  0  0  0  0  0
    1.1265   -2.0930    5.8270 C   0  0  2  0  0  0  0  0  0  0  0  0
    1.0850   -2.0760    7.6178 S   0  0  0  0  0  0  0  0  0  0  0  0
   -0.1522   -1.4489    8.2655 O   0  0  0  0  0  0  0  0  0  0  0  0
   -0.0239   -8.6854    4.3662 H   0  0  0  0  0  0  0  0  0  0  0  0
   -1.8023   -8.4229    4.7194 H   0  0  0  0  0  0  0  0  0  0  0  0
   -1.4249   -6.1142    5.2423 H   0  0  0  0  0  0  0  0  0  0  0  0
    2.8764   -6.5195    4.3859 H   0  0  0  0  0  0  0  0  0  0  0  0
    1.6450   -7.3426    3.4679 H   0  0  0  0  0  0  0  0  0  0  0  0
    1.9668   -7.8037    5.1345 H   0  0  0  0  0  0  0  0  0  0  0  0
    0.6125   -5.1248    2.9559 H   0  0  0  0  0  0  0  0  0  0  0  0
   -0.1859   -4.1771    4.1648 H   0  0  0  0  0  0  0  0  0  0  0  0
    2.8111   -4.4223    3.6910 H   0  0  0  0  0  0  0  0  0  0  0  0
    1.8869   -3.0521    3.2815 H   0  0  0  0  0  0  0  0  0  0  0  0
    4.3556   -3.6300    4.9436 H   0  0  0  0  0  0  0  0  0  0  0  0
    4.0248   -2.0030    4.8223 H   0  0  0  0  0  0  0  0  0  0  0  0
    4.9556   -1.9233    9.0960 H   0  0  0  0  0  0  0  0  0  0  0  0
    3.6300   -4.9182    8.0916 H   0  0  0  0  0  0  0  0  0  0  0  0
    2.1569   -4.2372    8.6859 H   0  0  0  0  0  0  0  0  0  0  0  0
    3.1054   -5.0748    6.0375 H   0  0  0  0  0  0  0  0  0  0  0  0
    1.3931   -6.3307    6.9890 H   0  0  0  0  0  0  0  0  0  0  0  0
   -0.2821   -4.1428    6.5631 H   0  0  0  0  0  0  0  0  0  0  0  0
    3.7041    0.5926    7.2336 H   0  0  0  0  0  0  0  0  0  0  0  0
    3.3910   -0.4629    5.9111 H   0  0  0  0  0  0  0  0  0  0  0  0
    4.7294   -0.6352    7.0119 H   0  0  0  0  0  0  0  0  0  0  0  0
    3.4183    0.1571    9.2942 H   0  0  0  0  0  0  0  0  0  0  0  0
    1.3801   -1.7841   10.3365 H   0  0  0  0  0  0  0  0  0  0  0  0
    2.7221   -0.9656   11.1548 H   0  0  0  0  0  0  0  0  0  0  0  0
   -1.2611    1.8112   10.0389 H   0  0  0  0  0  0  0  0  0  0  0  0
   -0.5531    2.6332    8.6494 H   0  0  0  0  0  0  0  0  0  0  0  0
    0.0090    2.9924   10.2770 H   0  0  0  0  0  0  0  0  0  0  0  0
    1.7813    2.2795    7.2530 H   0  0  0  0  0  0  0  0  0  0  0  0
    2.7527    0.8496    4.2543 H   0  0  0  0  0  0  0  0  0  0  0  0
    0.3861    3.9086    4.7133 H   0  0  0  0  0  0  0  0  0  0  0  0
    1.1685    4.4463    3.2232 H   0  0  0  0  0  0  0  0  0  0  0  0
    1.4627    2.6680    1.4027 H   0  0  0  0  0  0  0  0  0  0  0  0
    2.9564    2.8550    2.2741 H   0  0  0  0  0  0  0  0  0  0  0  0
    1.7279    0.5076    1.3878 H   0  0  0  0  0  0  0  0  0  0  0  0
   -0.6771    1.8503    4.3378 H   0  0  0  0  0  0  0  0  0  0  0  0
   -0.3782    3.0400    1.9010 H   0  0  0  0  0  0  0  0  0  0  0  0
   -1.2779   -0.0171    2.9357 H   0  0  0  0  0  0  0  0  0  0  0  0
    0.0515    0.1861    1.8832 H   0  0  0  0  0  0  0  0  0  0  0  0
    0.1910   -1.7038    3.5111 H   0  0  0  0  0  0  0  0  0  0  0  0
    1.6406   -0.7821    3.4093 H   0  0  0  0  0  0  0  0  0  0  0  0
   -1.3800   -1.4584    5.8584 H   0  0  0  0  0  0  0  0  0  0  0  0
   -1.5214    0.0306    5.0475 H   0  0  0  0  0  0  0  0  0  0  0  0
   -1.0067    0.0490    6.6726 H   0  0  0  0  0  0  0  0  0  0  0  0
    0.2441   -2.6830    5.6261 H   0  0  0  0  0  0  0  0  0  0  0  0
  1  2  2  0
  1 44  1  0
  1 45  1  0
  2  3  1  0
  2 46  1  0
  3 14  1  0
  3  4  1  6
  3  5  1  0
  4 47  1  0
  4 48  1  0
  4 49  1  0
  5  6  1  0
  5 50  1  0
  5 51  1  0
  7  6  1  6
  6 52  1  0
  6 53  1  0
  7 13  1  0
  7 41  1  0
  7  8  1  0
  8  9  1  0
  8 54  1  0
  8 55  1  0
  9 10  1  0
 10 11  1  1
 10 12  1  0
 10 16  1  0
 11 56  1  0
 12 13  1  0
 12 57  1  0
 12 58  1  0
 13 14  1  0
 13 59  1  6
 14 15  1  0
 14 60  1  1
 15 61  1  0
 42 16  1  1
 16 17  1  6
 16 18  1  0
 17 62  1  0
 17 63  1  0
 17 64  1  0
 18 24  1  0
 18 19  1  0
 18 65  1  1
 19 20  1  0
 19 66  1  0
 19 67  1  0
 20 21  2  0
 20 22  1  0
 22 23  1  0
 22 24  2  0
 23 68  1  0
 23 69  1  0
 23 70  1  0
 24 25  1  0
 25 26  2  3
 25 71  1  0
 26 39  1  0
 26 27  1  0
 27 32  1  0
 27 28  1  0
 27 72  1  6
 28 29  2  0
 28 30  1  0
 30 31  1  0
 31 32  1  0
 31 73  1  0
 31 74  1  0
 32 33  1  6
 32 35  1  0
 33 34  1  0
 33 75  1  0
 33 76  1  0
 34 77  1  0
 35 36  1  0
 35 37  1  0
 35 78  1  1
 36 79  1  0
 37 38  1  0
 37 80  1  0
 37 81  1  0
 38 39  1  0
 38 82  1  0
 38 83  1  0
 39 40  1  1
 39 41  1  0
 40 84  1  0
 40 85  1  0
 40 86  1  0
 41 42  1  0
 41 87  1  6
 42 43  2  0
M  END
>  <i_m_ct_stereo_status>  (19) 
1

>  <s_m_source_file>  (19) 
/var/tmp/pbs.5075288.sched01/tmphozr6t3_/0veliry26.sdf

>  <i_m_source_file_index>  (19) 
66

>  <i_lp_mmshare_version>  (19) 
48012

>  <i_f3d_flags>  (19) 
0

>  <s_epik_input>  (19) 
W0NIMl09W0NIXVtDQEBdKFtDSDNdKShbQ0gyXVtDSDJdMSlbQ0BIXShbT0hdKVtDQEBIXShbQ0BdMTIzKVtDSDJdW0NAQF0oW09IXSkoT1tDSDJdMilbQ0BdNChbQ0gzXSlbQ0BIXTVDKD1DKFtDSDNdKUMoPU8pW0NIMl01KS9bQ0hdPUM2L1tDQEhdN1tDQF0oW0NIMl1bT0hdKShbQ0gyXU9DNz1PKVtDQEBIXShbT0hdKVtDSDJdW0NIMl1bQ0BAXTYoW0NIM10pW0NAQEhdM1tTK100W08tXQ==

>  <s_epik_cmdline>  (19) 
J2VwaWtfcHl0aG9uJywgJy1waHQnLCAnMi4wJywgJy1waCcsICc3LjAnLCAnLXRuJywgJzgnLCAnLW1hJywgJzIwMCcsICctaW1hZScsICc8aW5maWxlLm1hZT4nLCAnLW9tYWUnLCAnPG91dGZpbGUubWFlPic=

>  <r_lp_tautomer_probability>  (19) 
1

>  <r_epik_Ionization_Penalty>  (19) 
6.05204e-07

>  <r_epik_Ionization_Penalty_Charging>  (19) 
0

>  <r_epik_Ionization_Penalty_Neutral>  (19) 
6.05204e-07

>  <r_epik_State_Penalty>  (19) 
-0

>  <r_epik_Charging_Adjusted_Penalty>  (19) 
0

>  <i_epik_Tot_Q>  (19) 
0

>  <i_epik_Tot_abs_Q>  (19) 
2

>  <s_epik_Chemistry_Notes>  (19) 
This compound has an ester and may undergo hydrolysis at high or low pH.

>  <s_lp_Force_Field>  (19) 
OPLS3e

>  <r_lp_Energy>  (19) 
214.511

>  <b_lp_Chiralities_Consistent>  (19) 
1

>  <s_lp_Variant>  (19) 
11:0-3

>  <s_i_glide_gridfile>  (19) 
pfpi4k_grid

>  <i_i_glide_lignum>  (19) 
66

>  <i_i_glide_rotatable_bonds>  (19) 
6

>  <r_i_docking_score>  (19) 
-2.46337

>  <r_i_glide_ligand_efficiency>  (19) 
-0.0572876

>  <r_i_glide_ligand_efficiency_sa>  (19) 
-0.200701

>  <r_i_glide_ligand_efficiency_ln>  (19) 
-0.517384

>  <r_i_glide_gscore>  (19) 
-2.46337

>  <r_i_glide_lipo>  (19) 
-0.00264404

>  <r_i_glide_hbond>  (19) 
-0.252688

>  <r_i_glide_metal>  (19) 
-0

>  <r_i_glide_rewards>  (19) 
0

>  <r_i_glide_evdw>  (19) 
-20.565

>  <r_i_glide_ecoul>  (19) 
-8.47461

>  <r_i_glide_erotb>  (19) 
0.110841

>  <r_i_glide_esite>  (19) 
-0.0194344

>  <r_i_glide_emodel>  (19) 
-31.9643

>  <r_i_glide_energy>  (19) 
-29.0396

>  <r_i_glide_einternal>  (19) 
2.89433

>  <r_i_glide_intrahb_reward>  (19) 
-0

>  <i_i_glide_confnum>  (19) 
4

>  <i_i_glide_posenum>  (19) 
22

>  <r_i_glide_eff_state_penalty>  (19) 
0

>  <ligand_id>  (19) 
11

>  <original_smiles>  (19) 
C=CC1(C)CCC23COC(O)(CC2C1O)C1(C)C2CC(=O)C(C)=C2C=C2C4C(=O)OCC4(CO)C(O)CCC2(C)C3[S+]1[O-]

>  <smiles>  (19) 
[H]OC([H])([H])C12C([H])([H])OC(=O)C1([H])C1=C([H])C3=C(C([H])([H])[H])C(=O)C([H])([H])C3([H])C3(C([H])([H])[H])S(=O)C([H])(C1(C([H])([H])[H])C([H])([H])C([H])([H])C2([H])O[H])C12C([H])([H])OC3(O[H])C([H])([H])C1([H])C([H])(O[H])C(C([H])=C([H])[H])(C([H])([H])[H])C([H])([H])C2([H])[H]

$$$$
11:2:1
     RDKit          3D

 87 93  0  0  1  0  0  0  0  0999 V2000
    0.7897    1.5107    3.8977 C   0  0  0  0  0  0  0  0  0  0  0  0
    1.0592    0.1892    3.8727 C   0  0  0  0  0  0  0  0  0  0  0  0
    1.6529   -0.6725    5.0050 C   0  0  1  0  0  0  0  0  0  0  0  0
    1.7105    0.1741    6.3027 C   0  0  0  0  0  0  0  0  0  0  0  0
    0.7417   -1.9112    5.2415 C   0  0  0  0  0  0  0  0  0  0  0  0
    1.3430   -2.9531    6.2228 C   0  0  0  0  0  0  0  0  0  0  0  0
    2.7294   -3.5352    5.8032 C   0  0  2  0  0  0  0  0  0  0  0  0
    3.4220   -4.0459    7.1125 C   0  0  0  0  0  0  0  0  0  0  0  0
    4.8763   -4.0698    7.1168 O   0  0  0  0  0  0  0  0  0  0  0  0
    5.5910   -4.0239    5.8962 C   0  0  2  0  0  0  0  0  0  0  0  0
    6.9742   -4.0830    6.1449 O   0  0  0  0  0  0  0  0  0  0  0  0
    5.2093   -2.5733    5.3809 C   0  0  0  0  0  0  0  0  0  0  0  0
    3.6614   -2.2723    5.5395 C   0  0  1  0  0  0  0  0  0  0  0  0
    3.0897   -1.1529    4.6128 C   0  0  1  0  0  0  0  0  0  0  0  0
    3.1249   -1.5803    3.2674 O   0  0  0  0  0  0  0  0  0  0  0  0
    5.1715   -5.2937    5.0091 C   0  0  2  0  0  0  0  0  0  0  0  0
    4.6916   -6.3590    6.0846 C   0  0  0  0  0  0  0  0  0  0  0  0
    6.0423   -6.2255    4.1288 C   0  0  2  0  0  0  0  0  0  0  0  0
    7.0113   -5.6480    3.0724 C   0  0  0  0  0  0  0  0  0  0  0  0
    6.8901   -6.6674    1.9478 C   0  0  0  0  0  0  0  0  0  0  0  0
    7.6980   -6.7153    1.0216 O   0  0  0  0  0  0  0  0  0  0  0  0
    5.6917   -7.4999    2.1375 C   0  0  0  0  0  0  0  0  0  0  0  0
    5.2701   -8.4959    1.0714 C   0  0  0  0  0  0  0  0  0  0  0  0
    5.0963   -7.1858    3.2992 C   0  0  0  0  0  0  0  0  0  0  0  0
    3.8404   -7.8476    3.7849 C   0  0  0  0  0  0  0  0  0  0  0  0
    2.6393   -7.3863    4.3496 C   0  0  0  0  0  0  0  0  0  0  0  0
    1.9425   -8.3094    5.4350 C   0  0  2  0  0  0  0  0  0  0  0  0
    2.7682   -9.5190    5.8997 C   0  0  0  0  0  0  0  0  0  0  0  0
    3.7663   -9.4310    6.6066 O   0  0  0  0  0  0  0  0  0  0  0  0
    2.2307  -10.6375    5.4239 O   0  0  0  0  0  0  0  0  0  0  0  0
    1.0148  -10.4326    4.7306 C   0  0  0  0  0  0  0  0  0  0  0  0
    0.5858   -9.0149    5.1530 C   0  0  1  0  0  0  0  0  0  0  0  0
   -0.2739   -9.0918    6.4582 C   0  0  0  0  0  0  0  0  0  0  0  0
    0.2278   -9.8583    7.5456 O   0  0  0  0  0  0  0  0  0  0  0  0
   -0.2109   -8.3312    4.0252 C   0  0  1  0  0  0  0  0  0  0  0  0
   -1.3741   -9.0499    3.6596 O   0  0  0  0  0  0  0  0  0  0  0  0
   -0.6354   -6.8854    4.3611 C   0  0  0  0  0  0  0  0  0  0  0  0
    0.4870   -5.9252    4.8316 C   0  0  0  0  0  0  0  0  0  0  0  0
    1.8861   -5.9695    4.1398 C   0  0  2  0  0  0  0  0  0  0  0  0
    1.5819   -5.9184    2.5920 C   0  0  0  0  0  0  0  0  0  0  0  0
    2.5659   -4.5212    4.4994 C   0  0  2  0  0  0  0  0  0  0  0  0
    4.1554   -4.4666    3.6710 S   0  0  0  0  0  0  0  0  0  0  0  0
    4.1883   -4.9570    2.2222 O   0  0  0  0  0  0  0  0  0  0  0  0
    0.9718    2.1214    4.7687 H   0  0  0  0  0  0  0  0  0  0  0  0
    0.3827    2.0154    3.0294 H   0  0  0  0  0  0  0  0  0  0  0  0
    0.8329   -0.3321    2.9524 H   0  0  0  0  0  0  0  0  0  0  0  0
    2.0758   -0.3621    7.1731 H   0  0  0  0  0  0  0  0  0  0  0  0
    0.7199    0.5525    6.5641 H   0  0  0  0  0  0  0  0  0  0  0  0
    2.3690    1.0348    6.1790 H   0  0  0  0  0  0  0  0  0  0  0  0
   -0.2205   -1.5774    5.6363 H   0  0  0  0  0  0  0  0  0  0  0  0
    0.4992   -2.3866    4.2907 H   0  0  0  0  0  0  0  0  0  0  0  0
    1.4204   -2.4647    7.1955 H   0  0  0  0  0  0  0  0  0  0  0  0
    0.6336   -3.7543    6.4081 H   0  0  0  0  0  0  0  0  0  0  0  0
    3.2230   -3.3509    7.9287 H   0  0  0  0  0  0  0  0  0  0  0  0
    2.9562   -4.9422    7.5145 H   0  0  0  0  0  0  0  0  0  0  0  0
    7.1814   -4.9494    6.4654 H   0  0  0  0  0  0  0  0  0  0  0  0
    5.7306   -1.8662    6.0234 H   0  0  0  0  0  0  0  0  0  0  0  0
    5.5939   -2.3793    4.3759 H   0  0  0  0  0  0  0  0  0  0  0  0
    3.6579   -1.7454    6.4919 H   0  0  0  0  0  0  0  0  0  0  0  0
    3.7552   -0.2893    4.6719 H   0  0  0  0  0  0  0  0  0  0  0  0
    2.8939   -0.8447    2.7174 H   0  0  0  0  0  0  0  0  0  0  0  0
    4.9609   -7.3880    5.8838 H   0  0  0  0  0  0  0  0  0  0  0  0
    3.6416   -6.3659    6.3057 H   0  0  0  0  0  0  0  0  0  0  0  0
    5.2255   -6.2781    7.0275 H   0  0  0  0  0  0  0  0  0  0  0  0
    6.6807   -6.8428    4.7631 H   0  0  0  0  0  0  0  0  0  0  0  0
    6.7032   -4.6757    2.6849 H   0  0  0  0  0  0  0  0  0  0  0  0
    8.0388   -5.5760    3.4323 H   0  0  0  0  0  0  0  0  0  0  0  0
    5.1761   -7.9970    0.1132 H   0  0  0  0  0  0  0  0  0  0  0  0
    4.3113   -8.9617    1.2777 H   0  0  0  0  0  0  0  0  0  0  0  0
    6.0134   -9.2864    0.9772 H   0  0  0  0  0  0  0  0  0  0  0  0
    4.1148   -8.8741    3.9682 H   0  0  0  0  0  0  0  0  0  0  0  0
    1.8514   -7.6967    6.3288 H   0  0  0  0  0  0  0  0  0  0  0  0
    1.1996  -10.4868    3.6575 H   0  0  0  0  0  0  0  0  0  0  0  0
    0.2519  -11.1670    4.9863 H   0  0  0  0  0  0  0  0  0  0  0  0
   -0.3854   -8.0780    6.8381 H   0  0  0  0  0  0  0  0  0  0  0  0
   -1.2730   -9.4564    6.2434 H   0  0  0  0  0  0  0  0  0  0  0  0
    0.5032  -10.7411    7.2845 H   0  0  0  0  0  0  0  0  0  0  0  0
    0.4112   -8.3352    3.1304 H   0  0  0  0  0  0  0  0  0  0  0  0
   -1.5920   -9.7158    4.3165 H   0  0  0  0  0  0  0  0  0  0  0  0
   -1.1236   -6.4681    3.4830 H   0  0  0  0  0  0  0  0  0  0  0  0
   -1.4148   -6.8839    5.1200 H   0  0  0  0  0  0  0  0  0  0  0  0
    0.0736   -4.9309    4.6671 H   0  0  0  0  0  0  0  0  0  0  0  0
    0.6141   -6.0020    5.9123 H   0  0  0  0  0  0  0  0  0  0  0  0
    1.4794   -4.9099    2.1953 H   0  0  0  0  0  0  0  0  0  0  0  0
    0.6716   -6.4131    2.2741 H   0  0  0  0  0  0  0  0  0  0  0  0
    2.3579   -6.4039    2.0019 H   0  0  0  0  0  0  0  0  0  0  0  0
    2.0033   -3.8533    3.8610 H   0  0  0  0  0  0  0  0  0  0  0  0
  1  2  2  0
  1 44  1  0
  1 45  1  0
  2  3  1  0
  2 46  1  0
  3 14  1  0
  3  4  1  1
  3  5  1  0
  4 47  1  0
  4 48  1  0
  4 49  1  0
  5  6  1  0
  5 50  1  0
  5 51  1  0
  7  6  1  1
  6 52  1  0
  6 53  1  0
  7 13  1  0
  7 41  1  0
  7  8  1  0
  8  9  1  0
  8 54  1  0
  8 55  1  0
  9 10  1  0
 10 11  1  1
 10 12  1  0
 10 16  1  0
 11 56  1  0
 12 13  1  0
 12 57  1  0
 12 58  1  0
 13 14  1  0
 13 59  1  1
 14 15  1  0
 14 60  1  6
 15 61  1  0
 42 16  1  1
 16 17  1  1
 16 18  1  0
 17 62  1  0
 17 63  1  0
 17 64  1  0
 18 24  1  0
 18 19  1  0
 18 65  1  1
 19 20  1  0
 19 66  1  0
 19 67  1  0
 20 21  2  0
 20 22  1  0
 22 23  1  0
 22 24  2  0
 23 68  1  0
 23 69  1  0
 23 70  1  0
 24 25  1  0
 25 26  2  3
 25 71  1  0
 26 39  1  0
 26 27  1  0
 27 32  1  0
 27 28  1  0
 27 72  1  1
 28 29  2  0
 28 30  1  0
 30 31  1  0
 31 32  1  0
 31 73  1  0
 31 74  1  0
 32 33  1  1
 32 35  1  0
 33 34  1  0
 33 75  1  0
 33 76  1  0
 34 77  1  0
 35 36  1  0
 35 37  1  0
 35 78  1  6
 36 79  1  0
 37 38  1  0
 37 80  1  0
 37 81  1  0
 38 39  1  0
 38 82  1  0
 38 83  1  0
 39 40  1  6
 39 41  1  0
 40 84  1  0
 40 85  1  0
 40 86  1  0
 41 42  1  0
 41 87  1  6
 42 43  2  0
M  END
>  <i_m_ct_stereo_status>  (20) 
1

>  <s_m_source_file>  (20) 
/var/tmp/pbs.5075288.sched01/tmphozr6t3_/0veliry26.sdf

>  <i_m_source_file_index>  (20) 
66

>  <i_lp_mmshare_version>  (20) 
48012

>  <i_f3d_flags>  (20) 
0

>  <s_epik_input>  (20) 
W0NIMl09W0NIXVtDQEBdKFtDSDNdKShbQ0gyXVtDSDJdMSlbQ0BIXShbT0hdKVtDQEBIXShbQ0BdMTIzKVtDSDJdW0NAQF0oW09IXSkoT1tDSDJdMilbQ0BdNChbQ0gzXSlbQ0BIXTVDKD1DKFtDSDNdKUMoPU8pW0NIMl01KS9bQ0hdPUM2L1tDQEhdN1tDQF0oW0NIMl1bT0hdKShbQ0gyXU9DNz1PKVtDQEBIXShbT0hdKVtDSDJdW0NIMl1bQ0BAXTYoW0NIM10pW0NAQEhdM1tTK100W08tXQ==

>  <s_epik_cmdline>  (20) 
J2VwaWtfcHl0aG9uJywgJy1waHQnLCAnMi4wJywgJy1waCcsICc3LjAnLCAnLXRuJywgJzgnLCAnLW1hJywgJzIwMCcsICctaW1hZScsICc8aW5maWxlLm1hZT4nLCAnLW9tYWUnLCAnPG91dGZpbGUubWFlPic=

>  <r_lp_tautomer_probability>  (20) 
1

>  <r_epik_Ionization_Penalty>  (20) 
6.05204e-07

>  <r_epik_Ionization_Penalty_Charging>  (20) 
0

>  <r_epik_Ionization_Penalty_Neutral>  (20) 
6.05204e-07

>  <r_epik_State_Penalty>  (20) 
-0

>  <r_epik_Charging_Adjusted_Penalty>  (20) 
0

>  <i_epik_Tot_Q>  (20) 
0

>  <i_epik_Tot_abs_Q>  (20) 
2

>  <s_epik_Chemistry_Notes>  (20) 
This compound has an ester and may undergo hydrolysis at high or low pH.

>  <s_lp_Force_Field>  (20) 
OPLS3e

>  <r_lp_Energy>  (20) 
214.511

>  <b_lp_Chiralities_Consistent>  (20) 
1

>  <s_lp_Variant>  (20) 
11:0-3

>  <s_i_glide_gridfile>  (20) 
pfpi4k_grid

>  <i_i_glide_lignum>  (20) 
66

>  <i_i_glide_rotatable_bonds>  (20) 
6

>  <r_i_docking_score>  (20) 
-2.42951

>  <r_i_glide_ligand_efficiency>  (20) 
-0.0565002

>  <r_i_glide_ligand_efficiency_sa>  (20) 
-0.197943

>  <r_i_glide_ligand_efficiency_ln>  (20) 
-0.510272

>  <r_i_glide_gscore>  (20) 
-2.42951

>  <r_i_glide_lipo>  (20) 
-0.0896496

>  <r_i_glide_hbond>  (20) 
-0.152

>  <r_i_glide_metal>  (20) 
-0

>  <r_i_glide_rewards>  (20) 
-0.0802304

>  <r_i_glide_evdw>  (20) 
-20.3769

>  <r_i_glide_ecoul>  (20) 
-7.76369

>  <r_i_glide_erotb>  (20) 
0.110841

>  <r_i_glide_esite>  (20) 
-0.0350675

>  <r_i_glide_emodel>  (20) 
-31.2531

>  <r_i_glide_energy>  (20) 
-28.1406

>  <r_i_glide_einternal>  (20) 
3.00915

>  <r_i_glide_intrahb_reward>  (20) 
-0

>  <i_i_glide_confnum>  (20) 
6

>  <i_i_glide_posenum>  (20) 
7

>  <r_i_glide_eff_state_penalty>  (20) 
0

>  <ligand_id>  (20) 
11

>  <original_smiles>  (20) 
C=CC1(C)CCC23COC(O)(CC2C1O)C1(C)C2CC(=O)C(C)=C2C=C2C4C(=O)OCC4(CO)C(O)CCC2(C)C3[S+]1[O-]

>  <smiles>  (20) 
[H]OC([H])([H])C12C([H])([H])OC(=O)C1([H])C1=C([H])C3=C(C([H])([H])[H])C(=O)C([H])([H])C3([H])C3(C([H])([H])[H])S(=O)C([H])(C1(C([H])([H])[H])C([H])([H])C([H])([H])C2([H])O[H])C12C([H])([H])OC3(O[H])C([H])([H])C1([H])C([H])(O[H])C(C([H])=C([H])[H])(C([H])([H])[H])C([H])([H])C2([H])[H]

$$$$
11:2:2
     RDKit          3D

 87 93  0  0  1  0  0  0  0  0999 V2000
   -0.8326   -7.8539    4.3981 C   0  0  0  0  0  0  0  0  0  0  0  0
   -0.5704   -6.5972    4.8173 C   0  0  0  0  0  0  0  0  0  0  0  0
    0.7871   -5.8662    4.8302 C   0  0  1  0  0  0  0  0  0  0  0  0
    1.8692   -6.8234    4.2647 C   0  0  0  0  0  0  0  0  0  0  0  0
    0.7183   -4.6020    3.9302 C   0  0  0  0  0  0  0  0  0  0  0  0
    1.9607   -3.6835    4.0190 C   0  0  0  0  0  0  0  0  0  0  0  0
    2.2880   -3.1500    5.4473 C   0  0  2  0  0  0  0  0  0  0  0  0
    3.8158   -2.7990    5.4607 C   0  0  0  0  0  0  0  0  0  0  0  0
    4.4894   -2.8656    6.7522 O   0  0  0  0  0  0  0  0  0  0  0  0
    3.7298   -2.8532    7.9487 C   0  0  2  0  0  0  0  0  0  0  0  0
    4.5783   -2.9031    9.0715 O   0  0  0  0  0  0  0  0  0  0  0  0
    2.9501   -4.2241    7.8255 C   0  0  0  0  0  0  0  0  0  0  0  0
    2.3453   -4.4419    6.3778 C   0  0  1  0  0  0  0  0  0  0  0  0
    1.1476   -5.4410    6.2935 C   0  0  1  0  0  0  0  0  0  0  0  0
    0.0245   -4.9298    6.9858 O   0  0  0  0  0  0  0  0  0  0  0  0
    2.8895   -1.4846    8.0016 C   0  0  2  0  0  0  0  0  0  0  0  0
    3.7275   -0.4859    7.0895 C   0  0  0  0  0  0  0  0  0  0  0  0
    2.6093   -0.5330    9.1904 C   0  0  2  0  0  0  0  0  0  0  0  0
    2.0693   -1.0757   10.5318 C   0  0  0  0  0  0  0  0  0  0  0  0
    1.1291    0.0424   10.9578 C   0  0  0  0  0  0  0  0  0  0  0  0
    0.7101    0.1426   12.1101 O   0  0  0  0  0  0  0  0  0  0  0  0
    0.8200    0.9193    9.8197 C   0  0  0  0  0  0  0  0  0  0  0  0
   -0.2089    2.0258    9.9722 C   0  0  0  0  0  0  0  0  0  0  0  0
    1.5402    0.5481    8.7466 C   0  0  0  0  0  0  0  0  0  0  0  0
    1.4655    1.2445    7.4159 C   0  0  0  0  0  0  0  0  0  0  0  0
    1.3595    0.8059    6.0861 C   0  0  0  0  0  0  0  0  0  0  0  0
    2.0919    1.6590    4.9709 C   0  0  2  0  0  0  0  0  0  0  0  0
    3.0178    2.7799    5.4706 C   0  0  0  0  0  0  0  0  0  0  0  0
    4.0888    2.5938    6.0352 O   0  0  0  0  0  0  0  0  0  0  0  0
    2.4878    3.9603    5.1817 O   0  0  0  0  0  0  0  0  0  0  0  0
    1.2721    3.8651    4.4680 C   0  0  0  0  0  0  0  0  0  0  0  0
    1.2861    2.4316    3.8872 C   0  0  1  0  0  0  0  0  0  0  0  0
    2.0698    2.4814    2.5299 C   0  0  0  0  0  0  0  0  0  0  0  0
    2.4578    1.2242    2.0139 O   0  0  0  0  0  0  0  0  0  0  0  0
   -0.1555    1.9225    3.7102 C   0  0  1  0  0  0  0  0  0  0  0  0
   -0.9216    2.7801    2.8829 O   0  0  0  0  0  0  0  0  0  0  0  0
   -0.2359    0.4806    3.1771 C   0  0  0  0  0  0  0  0  0  0  0  0
    0.6188   -0.5711    3.9433 C   0  0  0  0  0  0  0  0  0  0  0  0
    0.6754   -0.5398    5.5041 C   0  0  2  0  0  0  0  0  0  0  0  0
   -0.8324   -0.4405    5.9564 C   0  0  0  0  0  0  0  0  0  0  0  0
    1.1650   -2.0467    5.9176 C   0  0  2  0  0  0  0  0  0  0  0  0
    1.1540   -2.1306    7.7071 S   0  0  0  0  0  0  0  0  0  0  0  0
   -0.0697   -1.5396    8.4116 O   0  0  0  0  0  0  0  0  0  0  0  0
   -0.0704   -8.5032    3.9959 H   0  0  0  0  0  0  0  0  0  0  0  0
   -1.8292   -8.2719    4.4588 H   0  0  0  0  0  0  0  0  0  0  0  0
   -1.4075   -6.0331    5.1998 H   0  0  0  0  0  0  0  0  0  0  0  0
    2.8662   -6.3953    4.2047 H   0  0  0  0  0  0  0  0  0  0  0  0
    1.6203   -7.1511    3.2524 H   0  0  0  0  0  0  0  0  0  0  0  0
    1.9535   -7.7172    4.8840 H   0  0  0  0  0  0  0  0  0  0  0  0
    0.6133   -4.9114    2.8890 H   0  0  0  0  0  0  0  0  0  0  0  0
   -0.1792   -4.0275    4.1572 H   0  0  0  0  0  0  0  0  0  0  0  0
    2.8010   -4.2593    3.6271 H   0  0  0  0  0  0  0  0  0  0  0  0
    1.8776   -2.8642    3.3111 H   0  0  0  0  0  0  0  0  0  0  0  0
    4.3695   -3.5483    4.8941 H   0  0  0  0  0  0  0  0  0  0  0  0
    4.0479   -1.9151    4.8718 H   0  0  0  0  0  0  0  0  0  0  0  0
    5.0175   -3.7376    9.0666 H   0  0  0  0  0  0  0  0  0  0  0  0
    3.6815   -5.0168    7.9738 H   0  0  0  0  0  0  0  0  0  0  0  0
    2.2243   -4.3546    8.6328 H   0  0  0  0  0  0  0  0  0  0  0  0
    3.1292   -5.0460    5.9255 H   0  0  0  0  0  0  0  0  0  0  0  0
    1.4254   -6.3473    6.8324 H   0  0  0  0  0  0  0  0  0  0  0  0
   -0.2184   -4.1087    6.5855 H   0  0  0  0  0  0  0  0  0  0  0  0
    3.7834    0.5403    7.4316 H   0  0  0  0  0  0  0  0  0  0  0  0
    3.4421   -0.4365    6.0565 H   0  0  0  0  0  0  0  0  0  0  0  0
    4.7964   -0.6805    7.1265 H   0  0  0  0  0  0  0  0  0  0  0  0
    3.5290   -0.0131    9.4695 H   0  0  0  0  0  0  0  0  0  0  0  0
    1.4945   -1.9973   10.4328 H   0  0  0  0  0  0  0  0  0  0  0  0
    2.8555   -1.2341   11.2727 H   0  0  0  0  0  0  0  0  0  0  0  0
   -1.1304    1.6243   10.3848 H   0  0  0  0  0  0  0  0  0  0  0  0
   -0.4396    2.5184    9.0321 H   0  0  0  0  0  0  0  0  0  0  0  0
    0.1514    2.7818   10.6668 H   0  0  0  0  0  0  0  0  0  0  0  0
    1.8705    2.2316    7.5791 H   0  0  0  0  0  0  0  0  0  0  0  0
    2.7820    0.9706    4.4876 H   0  0  0  0  0  0  0  0  0  0  0  0
    0.4413    4.0088    5.1604 H   0  0  0  0  0  0  0  0  0  0  0  0
    1.2029    4.6266    3.6909 H   0  0  0  0  0  0  0  0  0  0  0  0
    1.4680    2.9515    1.7618 H   0  0  0  0  0  0  0  0  0  0  0  0
    2.9777    3.0779    2.6174 H   0  0  0  0  0  0  0  0  0  0  0  0
    1.6922    0.7967    1.6488 H   0  0  0  0  0  0  0  0  0  0  0  0
   -0.6441    1.9789    4.6819 H   0  0  0  0  0  0  0  0  0  0  0  0
   -0.3985    3.0915    2.1480 H   0  0  0  0  0  0  0  0  0  0  0  0
   -1.2800    0.1691    3.1723 H   0  0  0  0  0  0  0  0  0  0  0  0
    0.0375    0.4516    2.1250 H   0  0  0  0  0  0  0  0  0  0  0  0
    0.1902   -1.5273    3.6447 H   0  0  0  0  0  0  0  0  0  0  0  0
    1.6426   -0.6045    3.5685 H   0  0  0  0  0  0  0  0  0  0  0  0
   -1.3364   -1.4031    6.0275 H   0  0  0  0  0  0  0  0  0  0  0  0
   -1.4826    0.1293    5.3023 H   0  0  0  0  0  0  0  0  0  0  0  0
   -0.9416    0.0543    6.9192 H   0  0  0  0  0  0  0  0  0  0  0  0
    0.2761   -2.6206    5.6984 H   0  0  0  0  0  0  0  0  0  0  0  0
  1  2  2  0
  1 44  1  0
  1 45  1  0
  2  3  1  0
  2 46  1  0
  3 14  1  0
  3  4  1  6
  3  5  1  0
  4 47  1  0
  4 48  1  0
  4 49  1  0
  5  6  1  0
  5 50  1  0
  5 51  1  0
  7  6  1  6
  6 52  1  0
  6 53  1  0
  7 13  1  0
  7 41  1  0
  7  8  1  0
  8  9  1  0
  8 54  1  0
  8 55  1  0
  9 10  1  0
 10 11  1  1
 10 12  1  0
 10 16  1  0
 11 56  1  0
 12 13  1  0
 12 57  1  0
 12 58  1  0
 13 14  1  0
 13 59  1  6
 14 15  1  0
 14 60  1  1
 15 61  1  0
 42 16  1  1
 16 17  1  6
 16 18  1  0
 17 62  1  0
 17 63  1  0
 17 64  1  0
 18 24  1  0
 18 19  1  0
 18 65  1  1
 19 20  1  0
 19 66  1  0
 19 67  1  0
 20 21  2  0
 20 22  1  0
 22 23  1  0
 22 24  2  0
 23 68  1  0
 23 69  1  0
 23 70  1  0
 24 25  1  0
 25 26  2  3
 25 71  1  0
 26 39  1  0
 26 27  1  0
 27 32  1  0
 27 28  1  0
 27 72  1  6
 28 29  2  0
 28 30  1  0
 30 31  1  0
 31 32  1  0
 31 73  1  0
 31 74  1  0
 32 33  1  6
 32 35  1  0
 33 34  1  0
 33 75  1  0
 33 76  1  0
 34 77  1  0
 35 36  1  0
 35 37  1  0
 35 78  1  1
 36 79  1  0
 37 38  1  0
 37 80  1  0
 37 81  1  0
 38 39  1  0
 38 82  1  0
 38 83  1  0
 39 40  1  1
 39 41  1  0
 40 84  1  0
 40 85  1  0
 40 86  1  0
 41 42  1  0
 41 87  1  6
 42 43  2  0
M  END
>  <i_m_ct_stereo_status>  (21) 
1

>  <s_m_source_file>  (21) 
/var/tmp/pbs.5075288.sched01/tmphozr6t3_/0veliry26.sdf

>  <i_m_source_file_index>  (21) 
66

>  <i_lp_mmshare_version>  (21) 
48012

>  <i_f3d_flags>  (21) 
0

>  <s_epik_input>  (21) 
W0NIMl09W0NIXVtDQEBdKFtDSDNdKShbQ0gyXVtDSDJdMSlbQ0BIXShbT0hdKVtDQEBIXShbQ0BdMTIzKVtDSDJdW0NAQF0oW09IXSkoT1tDSDJdMilbQ0BdNChbQ0gzXSlbQ0BIXTVDKD1DKFtDSDNdKUMoPU8pW0NIMl01KS9bQ0hdPUM2L1tDQEhdN1tDQF0oW0NIMl1bT0hdKShbQ0gyXU9DNz1PKVtDQEBIXShbT0hdKVtDSDJdW0NIMl1bQ0BAXTYoW0NIM10pW0NAQEhdM1tTK100W08tXQ==

>  <s_epik_cmdline>  (21) 
J2VwaWtfcHl0aG9uJywgJy1waHQnLCAnMi4wJywgJy1waCcsICc3LjAnLCAnLXRuJywgJzgnLCAnLW1hJywgJzIwMCcsICctaW1hZScsICc8aW5maWxlLm1hZT4nLCAnLW9tYWUnLCAnPG91dGZpbGUubWFlPic=

>  <r_lp_tautomer_probability>  (21) 
1

>  <r_epik_Ionization_Penalty>  (21) 
6.05204e-07

>  <r_epik_Ionization_Penalty_Charging>  (21) 
0

>  <r_epik_Ionization_Penalty_Neutral>  (21) 
6.05204e-07

>  <r_epik_State_Penalty>  (21) 
-0

>  <r_epik_Charging_Adjusted_Penalty>  (21) 
0

>  <i_epik_Tot_Q>  (21) 
0

>  <i_epik_Tot_abs_Q>  (21) 
2

>  <s_epik_Chemistry_Notes>  (21) 
This compound has an ester and may undergo hydrolysis at high or low pH.

>  <s_lp_Force_Field>  (21) 
OPLS3e

>  <r_lp_Energy>  (21) 
214.511

>  <b_lp_Chiralities_Consistent>  (21) 
1

>  <s_lp_Variant>  (21) 
11:0-3

>  <s_i_glide_gridfile>  (21) 
pfpi4k_grid

>  <i_i_glide_lignum>  (21) 
66

>  <i_i_glide_rotatable_bonds>  (21) 
6

>  <r_i_docking_score>  (21) 
-2.37195

>  <r_i_glide_ligand_efficiency>  (21) 
-0.0551617

>  <r_i_glide_ligand_efficiency_sa>  (21) 
-0.193253

>  <r_i_glide_ligand_efficiency_ln>  (21) 
-0.498184

>  <r_i_glide_gscore>  (21) 
-2.37195

>  <r_i_glide_lipo>  (21) 
-0.00397191

>  <r_i_glide_hbond>  (21) 
-0.270018

>  <r_i_glide_metal>  (21) 
-0

>  <r_i_glide_rewards>  (21) 
0

>  <r_i_glide_evdw>  (21) 
-20.9382

>  <r_i_glide_ecoul>  (21) 
-7.65803

>  <r_i_glide_erotb>  (21) 
0.110841

>  <r_i_glide_esite>  (21) 
-0.0131923

>  <r_i_glide_emodel>  (21) 
-31.7559

>  <r_i_glide_energy>  (21) 
-28.5962

>  <r_i_glide_einternal>  (21) 
2.38072

>  <r_i_glide_intrahb_reward>  (21) 
-0

>  <i_i_glide_confnum>  (21) 
4

>  <i_i_glide_posenum>  (21) 
17

>  <r_i_glide_eff_state_penalty>  (21) 
0

>  <ligand_id>  (21) 
11

>  <original_smiles>  (21) 
C=CC1(C)CCC23COC(O)(CC2C1O)C1(C)C2CC(=O)C(C)=C2C=C2C4C(=O)OCC4(CO)C(O)CCC2(C)C3[S+]1[O-]

>  <smiles>  (21) 
[H]OC([H])([H])C12C([H])([H])OC(=O)C1([H])C1=C([H])C3=C(C([H])([H])[H])C(=O)C([H])([H])C3([H])C3(C([H])([H])[H])S(=O)C([H])(C1(C([H])([H])[H])C([H])([H])C([H])([H])C2([H])O[H])C12C([H])([H])OC3(O[H])C([H])([H])C1([H])C([H])(O[H])C(C([H])=C([H])[H])(C([H])([H])[H])C([H])([H])C2([H])[H]

$$$$
11:3:0
     RDKit          3D

 87 93  0  0  1  0  0  0  0  0999 V2000
    4.6229   -0.9209   -0.7140 C   0  0  0  0  0  0  0  0  0  0  0  0
    5.0279   -2.1874   -0.9438 C   0  0  0  0  0  0  0  0  0  0  0  0
    5.4908   -3.2085    0.1032 C   0  0  1  0  0  0  0  0  0  0  0  0
    7.0089   -3.3874   -0.1520 C   0  0  0  0  0  0  0  0  0  0  0  0
    5.2435   -2.6670    1.5359 C   0  0  0  0  0  0  0  0  0  0  0  0
    5.5487   -3.6833    2.6385 C   0  0  0  0  0  0  0  0  0  0  0  0
    4.7112   -4.9897    2.5951 C   0  0  2  0  0  0  0  0  0  0  0  0
    5.5408   -6.0506    3.4041 C   0  0  0  0  0  0  0  0  0  0  0  0
    5.3436   -7.4479    3.0459 O   0  0  0  0  0  0  0  0  0  0  0  0
    4.2281   -7.8300    2.2598 C   0  0  2  0  0  0  0  0  0  0  0  0
    4.2369   -9.2167    2.0224 O   0  0  0  0  0  0  0  0  0  0  0  0
    4.5352   -7.0684    0.9097 C   0  0  0  0  0  0  0  0  0  0  0  0
    4.9706   -5.5659    1.1342 C   0  0  1  0  0  0  0  0  0  0  0  0
    4.7589   -4.5844   -0.0687 C   0  0  1  0  0  0  0  0  0  0  0  0
    3.3808   -4.3980   -0.3194 O   0  0  0  0  0  0  0  0  0  0  0  0
    2.8862   -7.4655    3.0622 C   0  0  2  0  0  0  0  0  0  0  0  0
    3.3478   -7.4063    4.5618 C   0  0  0  0  0  0  0  0  0  0  0  0
    1.6084   -8.3247    3.2695 C   0  0  2  0  0  0  0  0  0  0  0  0
    0.9272   -9.0100    2.0850 C   0  0  0  0  0  0  0  0  0  0  0  0
   -0.4985   -9.1157    2.6090 C   0  0  0  0  0  0  0  0  0  0  0  0
   -1.3596   -9.8221    2.0879 O   0  0  0  0  0  0  0  0  0  0  0  0
   -0.7203   -8.1343    3.6671 C   0  0  0  0  0  0  0  0  0  0  0  0
   -2.1430   -7.8079    4.0416 C   0  0  0  0  0  0  0  0  0  0  0  0
    0.4397   -7.5384    3.9962 C   0  0  0  0  0  0  0  0  0  0  0  0
    0.4079   -6.1319    4.5376 C   0  0  0  0  0  0  0  0  0  0  0  0
    1.4319   -5.4165    5.1098 C   0  0  0  0  0  0  0  0  0  0  0  0
    1.8065   -5.6946    6.6219 C   0  0  2  0  0  0  0  0  0  0  0  0
    0.9948   -6.8376    7.2903 C   0  0  0  0  0  0  0  0  0  0  0  0
    1.0990   -8.0267    7.0187 O   0  0  0  0  0  0  0  0  0  0  0  0
    0.2129   -6.3590    8.2516 O   0  0  0  0  0  0  0  0  0  0  0  0
    0.3067   -4.9674    8.4133 C   0  0  0  0  0  0  0  0  0  0  0  0
    1.6054   -4.5637    7.6798 C   0  0  1  0  0  0  0  0  0  0  0  0
    2.8061   -4.5538    8.6806 C   0  0  0  0  0  0  0  0  0  0  0  0
    3.0152   -5.7721    9.3673 O   0  0  0  0  0  0  0  0  0  0  0  0
    1.3703   -3.1603    7.0788 C   0  0  1  0  0  0  0  0  0  0  0  0
    0.9693   -2.2335    8.0705 O   0  0  0  0  0  0  0  0  0  0  0  0
    2.5590   -2.5724    6.3010 C   0  0  0  0  0  0  0  0  0  0  0  0
    3.1905   -3.4778    5.2245 C   0  0  0  0  0  0  0  0  0  0  0  0
    2.2533   -4.2859    4.2951 C   0  0  2  0  0  0  0  0  0  0  0  0
    1.2124   -3.2658    3.7332 C   0  0  0  0  0  0  0  0  0  0  0  0
    3.1201   -4.7015    2.9464 C   0  0  2  0  0  0  0  0  0  0  0  0
    2.2409   -6.0227    2.0668 S   0  0  0  0  0  0  0  0  0  0  0  0
    0.7485   -5.8625    1.7588 O   0  0  0  0  0  0  0  0  0  0  0  0
    4.5844   -0.4926    0.2758 H   0  0  0  0  0  0  0  0  0  0  0  0
    4.3187   -0.2766   -1.5243 H   0  0  0  0  0  0  0  0  0  0  0  0
    5.0310   -2.5393   -1.9662 H   0  0  0  0  0  0  0  0  0  0  0  0
    7.4903   -4.0869    0.5285 H   0  0  0  0  0  0  0  0  0  0  0  0
    7.5390   -2.4375   -0.0579 H   0  0  0  0  0  0  0  0  0  0  0  0
    7.1963   -3.7556   -1.1612 H   0  0  0  0  0  0  0  0  0  0  0  0
    5.8779   -1.7938    1.7024 H   0  0  0  0  0  0  0  0  0  0  0  0
    4.2183   -2.3170    1.6416 H   0  0  0  0  0  0  0  0  0  0  0  0
    6.5998   -3.9247    2.4853 H   0  0  0  0  0  0  0  0  0  0  0  0
    5.5050   -3.2067    3.6117 H   0  0  0  0  0  0  0  0  0  0  0  0
    6.6063   -5.9262    3.2049 H   0  0  0  0  0  0  0  0  0  0  0  0
    5.5355   -5.8621    4.4755 H   0  0  0  0  0  0  0  0  0  0  0  0
    4.9563   -9.4236    1.4456 H   0  0  0  0  0  0  0  0  0  0  0  0
    5.3923   -7.5814    0.4805 H   0  0  0  0  0  0  0  0  0  0  0  0
    3.7364   -7.1751    0.1780 H   0  0  0  0  0  0  0  0  0  0  0  0
    6.0524   -5.6811    1.0891 H   0  0  0  0  0  0  0  0  0  0  0  0
    5.1493   -5.0604   -0.9705 H   0  0  0  0  0  0  0  0  0  0  0  0
    3.1247   -5.0082   -0.9951 H   0  0  0  0  0  0  0  0  0  0  0  0
    4.1042   -8.1519    4.7969 H   0  0  0  0  0  0  0  0  0  0  0  0
    2.6071   -7.7255    5.2672 H   0  0  0  0  0  0  0  0  0  0  0  0
    3.6870   -6.4490    4.9035 H   0  0  0  0  0  0  0  0  0  0  0  0
    1.8642   -9.1700    3.9158 H   0  0  0  0  0  0  0  0  0  0  0  0
    0.9105   -8.3720    1.1991 H   0  0  0  0  0  0  0  0  0  0  0  0
    1.3626   -9.9785    1.8300 H   0  0  0  0  0  0  0  0  0  0  0  0
   -2.4713   -8.6610    4.6263 H   0  0  0  0  0  0  0  0  0  0  0  0
   -2.7922   -7.7628    3.1702 H   0  0  0  0  0  0  0  0  0  0  0  0
   -2.2399   -6.8956    4.6221 H   0  0  0  0  0  0  0  0  0  0  0  0
   -0.0847   -5.5735    3.7647 H   0  0  0  0  0  0  0  0  0  0  0  0
    2.8484   -5.9910    6.6707 H   0  0  0  0  0  0  0  0  0  0  0  0
   -0.5763   -4.5323    7.9478 H   0  0  0  0  0  0  0  0  0  0  0  0
    0.3134   -4.6609    9.4600 H   0  0  0  0  0  0  0  0  0  0  0  0
    3.7331   -4.3370    8.1487 H   0  0  0  0  0  0  0  0  0  0  0  0
    2.6814   -3.7772    9.4318 H   0  0  0  0  0  0  0  0  0  0  0  0
    2.2381   -5.9937    9.8650 H   0  0  0  0  0  0  0  0  0  0  0  0
    0.5011   -3.2187    6.4318 H   0  0  0  0  0  0  0  0  0  0  0  0
    1.7106   -2.0385    8.6293 H   0  0  0  0  0  0  0  0  0  0  0  0
    2.2327   -1.6460    5.8274 H   0  0  0  0  0  0  0  0  0  0  0  0
    3.3514   -2.2718    6.9857 H   0  0  0  0  0  0  0  0  0  0  0  0
    3.7359   -2.7795    4.5979 H   0  0  0  0  0  0  0  0  0  0  0  0
    3.9403   -4.1382    5.6615 H   0  0  0  0  0  0  0  0  0  0  0  0
    1.6932   -2.3450    3.3968 H   0  0  0  0  0  0  0  0  0  0  0  0
    0.4246   -2.9798    4.4196 H   0  0  0  0  0  0  0  0  0  0  0  0
    0.6862   -3.6701    2.8800 H   0  0  0  0  0  0  0  0  0  0  0  0
    2.9241   -3.8788    2.2713 H   0  0  0  0  0  0  0  0  0  0  0  0
  1  2  2  0
  1 44  1  0
  1 45  1  0
  2  3  1  0
  2 46  1  0
  3 14  1  0
  3  4  1  1
  3  5  1  0
  4 47  1  0
  4 48  1  0
  4 49  1  0
  5  6  1  0
  5 50  1  0
  5 51  1  0
  7  6  1  6
  6 52  1  0
  6 53  1  0
  7 13  1  0
  7 41  1  0
  7  8  1  0
  8  9  1  0
  8 54  1  0
  8 55  1  0
  9 10  1  0
 10 11  1  6
 10 12  1  0
 10 16  1  0
 11 56  1  0
 12 13  1  0
 12 57  1  0
 12 58  1  0
 13 14  1  0
 13 59  1  1
 14 15  1  0
 14 60  1  6
 15 61  1  0
 42 16  1  1
 16 17  1  1
 16 18  1  0
 17 62  1  0
 17 63  1  0
 17 64  1  0
 18 24  1  0
 18 19  1  0
 18 65  1  1
 19 20  1  0
 19 66  1  0
 19 67  1  0
 20 21  2  0
 20 22  1  0
 22 23  1  0
 22 24  2  0
 23 68  1  0
 23 69  1  0
 23 70  1  0
 24 25  1  0
 25 26  2  3
 25 71  1  0
 26 39  1  0
 26 27  1  0
 27 32  1  0
 27 28  1  0
 27 72  1  6
 28 29  2  0
 28 30  1  0
 30 31  1  0
 31 32  1  0
 31 73  1  0
 31 74  1  0
 32 33  1  1
 32 35  1  0
 33 34  1  0
 33 75  1  0
 33 76  1  0
 34 77  1  0
 35 36  1  0
 35 37  1  0
 35 78  1  6
 36 79  1  0
 37 38  1  0
 37 80  1  0
 37 81  1  0
 38 39  1  0
 38 82  1  0
 38 83  1  0
 39 40  1  6
 39 41  1  0
 40 84  1  0
 40 85  1  0
 40 86  1  0
 41 42  1  0
 41 87  1  6
 42 43  2  0
M  END
>  <i_m_ct_stereo_status>  (22) 
1

>  <s_m_source_file>  (22) 
/var/tmp/pbs.5075288.sched01/tmphozr6t3_/0veliry26.sdf

>  <i_m_source_file_index>  (22) 
67

>  <i_lp_mmshare_version>  (22) 
48012

>  <i_f3d_flags>  (22) 
0

>  <s_epik_input>  (22) 
W0NIMl09W0NIXVtDQEBdKFtDSDNdKShbQ0gyXVtDSDJdMSlbQ0BIXShbT0hdKVtDQEBIXShbQ0BdMTIzKVtDSDJdW0NAQF0oW09IXSkoT1tDSDJdMilbQ0BdNChbQ0gzXSlbQ0BIXTVDKD1DKFtDSDNdKUMoPU8pW0NIMl01KS9bQ0hdPUM2L1tDQEhdN1tDQF0oW0NIMl1bT0hdKShbQ0gyXU9DNz1PKVtDQEBIXShbT0hdKVtDSDJdW0NIMl1bQ0BAXTYoW0NIM10pW0NAQEhdM1tTK100W08tXQ==

>  <s_epik_cmdline>  (22) 
J2VwaWtfcHl0aG9uJywgJy1waHQnLCAnMi4wJywgJy1waCcsICc3LjAnLCAnLXRuJywgJzgnLCAnLW1hJywgJzIwMCcsICctaW1hZScsICc8aW5maWxlLm1hZT4nLCAnLW9tYWUnLCAnPG91dGZpbGUubWFlPic=

>  <r_lp_tautomer_probability>  (22) 
1

>  <r_epik_Ionization_Penalty>  (22) 
6.05204e-07

>  <r_epik_Ionization_Penalty_Charging>  (22) 
0

>  <r_epik_Ionization_Penalty_Neutral>  (22) 
6.05204e-07

>  <r_epik_State_Penalty>  (22) 
-0

>  <r_epik_Charging_Adjusted_Penalty>  (22) 
0

>  <i_epik_Tot_Q>  (22) 
0

>  <i_epik_Tot_abs_Q>  (22) 
2

>  <s_epik_Chemistry_Notes>  (22) 
This compound has an ester and may undergo hydrolysis at high or low pH.

>  <s_lp_Force_Field>  (22) 
OPLS3e

>  <r_lp_Energy>  (22) 
227.221

>  <b_lp_Chiralities_Consistent>  (22) 
1

>  <s_lp_Variant>  (22) 
11:0-4

>  <s_i_glide_gridfile>  (22) 
pfpi4k_grid

>  <i_i_glide_lignum>  (22) 
67

>  <i_i_glide_rotatable_bonds>  (22) 
6

>  <r_i_docking_score>  (22) 
-3.16495

>  <r_i_glide_ligand_efficiency>  (22) 
-0.0736035

>  <r_i_glide_ligand_efficiency_sa>  (22) 
-0.257862

>  <r_i_glide_ligand_efficiency_ln>  (22) 
-0.664738

>  <r_i_glide_gscore>  (22) 
-3.16495

>  <r_i_glide_lipo>  (22) 
-0.503495

>  <r_i_glide_hbond>  (22) 
-0.463567

>  <r_i_glide_metal>  (22) 
-0

>  <r_i_glide_rewards>  (22) 
0

>  <r_i_glide_evdw>  (22) 
-27.065

>  <r_i_glide_ecoul>  (22) 
-6.21898

>  <r_i_glide_erotb>  (22) 
0.110841

>  <r_i_glide_esite>  (22) 
-0.0226356

>  <r_i_glide_emodel>  (22) 
-38.4006

>  <r_i_glide_energy>  (22) 
-33.284

>  <r_i_glide_einternal>  (22) 
2.21069

>  <r_i_glide_intrahb_reward>  (22) 
-0

>  <i_i_glide_confnum>  (22) 
4

>  <i_i_glide_posenum>  (22) 
8

>  <r_i_glide_eff_state_penalty>  (22) 
0

>  <ligand_id>  (22) 
11

>  <original_smiles>  (22) 
C=CC1(C)CCC23COC(O)(CC2C1O)C1(C)C2CC(=O)C(C)=C2C=C2C4C(=O)OCC4(CO)C(O)CCC2(C)C3[S+]1[O-]

>  <smiles>  (22) 
[H]OC([H])([H])C12C([H])([H])OC(=O)C1([H])C1=C([H])C3=C(C([H])([H])[H])C(=O)C([H])([H])C3([H])C3(C([H])([H])[H])S(=O)C([H])(C1(C([H])([H])[H])C([H])([H])C([H])([H])C2([H])O[H])C12C([H])([H])OC3(O[H])C([H])([H])C1([H])C([H])(O[H])C(C([H])=C([H])[H])(C([H])([H])[H])C([H])([H])C2([H])[H]

$$$$
11:3:1
     RDKit          3D

 87 93  0  0  1  0  0  0  0  0999 V2000
    0.6381    1.2814    1.9679 C   0  0  0  0  0  0  0  0  0  0  0  0
    0.9430   -0.0185    2.1676 C   0  0  0  0  0  0  0  0  0  0  0  0
    1.3579   -0.7016    3.4880 C   0  0  1  0  0  0  0  0  0  0  0  0
    1.2614    0.3240    4.6461 C   0  0  0  0  0  0  0  0  0  0  0  0
    0.3806   -1.8713    3.7609 C   0  0  0  0  0  0  0  0  0  0  0  0
    0.7725   -2.7611    4.9600 C   0  0  0  0  0  0  0  0  0  0  0  0
    2.1624   -3.4585    4.8330 C   0  0  2  0  0  0  0  0  0  0  0  0
    2.6014   -3.7833    6.3009 C   0  0  0  0  0  0  0  0  0  0  0  0
    4.0292   -3.8701    6.5450 O   0  0  0  0  0  0  0  0  0  0  0  0
    4.9462   -3.9897    5.4758 C   0  0  2  0  0  0  0  0  0  0  0  0
    6.2702   -4.0396    5.9706 O   0  0  0  0  0  0  0  0  0  0  0  0
    4.7173   -2.6171    4.7171 C   0  0  0  0  0  0  0  0  0  0  0  0
    3.1795   -2.2672    4.5460 C   0  0  1  0  0  0  0  0  0  0  0  0
    2.8147   -1.2633    3.3974 C   0  0  1  0  0  0  0  0  0  0  0  0
    3.0186   -1.8894    2.1485 O   0  0  0  0  0  0  0  0  0  0  0  0
    4.6265   -5.3476    4.6921 C   0  0  2  0  0  0  0  0  0  0  0  0
    3.9020   -6.2339    5.7585 C   0  0  0  0  0  0  0  0  0  0  0  0
    5.6283   -6.4086    4.1587 C   0  0  2  0  0  0  0  0  0  0  0  0
    6.8660   -6.0092    3.3426 C   0  0  0  0  0  0  0  0  0  0  0  0
    7.0964   -7.3118    2.5958 C   0  0  0  0  0  0  0  0  0  0  0  0
    8.1889   -7.5673    2.1090 O   0  0  0  0  0  0  0  0  0  0  0  0
    5.8788   -8.1063    2.4994 C   0  0  0  0  0  0  0  0  0  0  0  0
    5.7733   -9.2166    1.4644 C   0  0  0  0  0  0  0  0  0  0  0  0
    4.9520   -7.5610    3.2986 C   0  0  0  0  0  0  0  0  0  0  0  0
    3.4932   -7.7617    2.9601 C   0  0  0  0  0  0  0  0  0  0  0  0
    2.4001   -7.4639    3.7337 C   0  0  0  0  0  0  0  0  0  0  0  0
    1.9636   -8.4774    4.8742 C   0  0  2  0  0  0  0  0  0  0  0  0
    2.9227   -9.6784    5.0485 C   0  0  0  0  0  0  0  0  0  0  0  0
    4.0649   -9.5863    5.4925 O   0  0  0  0  0  0  0  0  0  0  0  0
    2.3203  -10.8063    4.7170 O   0  0  0  0  0  0  0  0  0  0  0  0
    0.9795  -10.6465    4.3075 C   0  0  0  0  0  0  0  0  0  0  0  0
    0.5941   -9.2292    4.7634 C   0  0  1  0  0  0  0  0  0  0  0  0
   -0.0523   -9.2555    6.1796 C   0  0  0  0  0  0  0  0  0  0  0  0
    0.7192   -9.8074    7.2374 O   0  0  0  0  0  0  0  0  0  0  0  0
   -0.3407   -8.6348    3.6793 C   0  0  1  0  0  0  0  0  0  0  0  0
   -1.4308   -9.4440    3.2993 O   0  0  0  0  0  0  0  0  0  0  0  0
   -0.8773   -7.2326    3.9896 C   0  0  0  0  0  0  0  0  0  0  0  0
    0.1895   -6.1744    4.3283 C   0  0  0  0  0  0  0  0  0  0  0  0
    1.4915   -6.1462    3.4892 C   0  0  2  0  0  0  0  0  0  0  0  0
    1.0770   -6.1871    1.9882 C   0  0  0  0  0  0  0  0  0  0  0  0
    2.1492   -4.6373    3.6690 C   0  0  2  0  0  0  0  0  0  0  0  0
    3.8683   -4.7027    3.1216 S   0  0  0  0  0  0  0  0  0  0  0  0
    4.2000   -5.3171    1.7592 O   0  0  0  0  0  0  0  0  0  0  0  0
    0.6823    2.0299    2.7465 H   0  0  0  0  0  0  0  0  0  0  0  0
    0.3209    1.6436    0.9956 H   0  0  0  0  0  0  0  0  0  0  0  0
    0.8720   -0.6632    1.3022 H   0  0  0  0  0  0  0  0  0  0  0  0
    1.5011   -0.0741    5.6320 H   0  0  0  0  0  0  0  0  0  0  0  0
    0.2516    0.7315    4.7098 H   0  0  0  0  0  0  0  0  0  0  0  0
    1.9471    1.1534    4.4768 H   0  0  0  0  0  0  0  0  0  0  0  0
   -0.6176   -1.4672    3.9340 H   0  0  0  0  0  0  0  0  0  0  0  0
    0.2900   -2.5032    2.8813 H   0  0  0  0  0  0  0  0  0  0  0  0
    0.7389   -2.1227    5.8457 H   0  0  0  0  0  0  0  0  0  0  0  0
   -0.0115   -3.4819    5.1575 H   0  0  0  0  0  0  0  0  0  0  0  0
    2.3198   -2.9710    6.9687 H   0  0  0  0  0  0  0  0  0  0  0  0
    2.0287   -4.5908    6.7439 H   0  0  0  0  0  0  0  0  0  0  0  0
    6.4122   -4.8966    6.3462 H   0  0  0  0  0  0  0  0  0  0  0  0
    5.1417   -1.8445    5.3572 H   0  0  0  0  0  0  0  0  0  0  0  0
    5.2929   -2.5570    3.7894 H   0  0  0  0  0  0  0  0  0  0  0  0
    3.0486   -1.6136    5.4029 H   0  0  0  0  0  0  0  0  0  0  0  0
    3.5052   -0.4133    3.4437 H   0  0  0  0  0  0  0  0  0  0  0  0
    2.8870   -1.2488    1.4665 H   0  0  0  0  0  0  0  0  0  0  0  0
    4.2969   -6.1005    6.7615 H   0  0  0  0  0  0  0  0  0  0  0  0
    4.1011   -7.2767    5.6605 H   0  0  0  0  0  0  0  0  0  0  0  0
    2.8412   -6.1342    5.7866 H   0  0  0  0  0  0  0  0  0  0  0  0
    6.0711   -6.9172    5.0201 H   0  0  0  0  0  0  0  0  0  0  0  0
    6.6667   -5.2109    2.6231 H   0  0  0  0  0  0  0  0  0  0  0  0
    7.7265   -5.7303    3.9588 H   0  0  0  0  0  0  0  0  0  0  0  0
    6.3452  -10.0657    1.8232 H   0  0  0  0  0  0  0  0  0  0  0  0
    6.2269   -8.9232    0.5255 H   0  0  0  0  0  0  0  0  0  0  0  0
    4.7556   -9.5506    1.2777 H   0  0  0  0  0  0  0  0  0  0  0  0
    3.4150   -7.3544    1.9648 H   0  0  0  0  0  0  0  0  0  0  0  0
    1.9570   -7.9392    5.8217 H   0  0  0  0  0  0  0  0  0  0  0  0
    0.9847  -10.7385    3.2215 H   0  0  0  0  0  0  0  0  0  0  0  0
    0.3019  -11.4109    4.6965 H   0  0  0  0  0  0  0  0  0  0  0  0
   -0.3021   -8.2413    6.4748 H   0  0  0  0  0  0  0  0  0  0  0  0
   -0.9865   -9.7954    6.1818 H   0  0  0  0  0  0  0  0  0  0  0  0
    0.9229  -10.7383    7.1325 H   0  0  0  0  0  0  0  0  0  0  0  0
    0.1915   -8.6394    2.7394 H   0  0  0  0  0  0  0  0  0  0  0  0
   -1.7346   -9.9526    4.0588 H   0  0  0  0  0  0  0  0  0  0  0  0
   -1.4497   -6.8985    3.1260 H   0  0  0  0  0  0  0  0  0  0  0  0
   -1.6054   -7.2526    4.8010 H   0  0  0  0  0  0  0  0  0  0  0  0
   -0.3071   -5.2328    4.1505 H   0  0  0  0  0  0  0  0  0  0  0  0
    0.4288   -6.1835    5.3924 H   0  0  0  0  0  0  0  0  0  0  0  0
    0.2006   -5.5793    1.8643 H   0  0  0  0  0  0  0  0  0  0  0  0
    0.8001   -7.1542    1.5934 H   0  0  0  0  0  0  0  0  0  0  0  0
    1.8455   -5.8103    1.3171 H   0  0  0  0  0  0  0  0  0  0  0  0
    1.7108   -4.0948    2.8433 H   0  0  0  0  0  0  0  0  0  0  0  0
  1  2  2  0
  1 44  1  0
  1 45  1  0
  2  3  1  0
  2 46  1  0
  3 14  1  0
  3  4  1  1
  3  5  1  0
  4 47  1  0
  4 48  1  0
  4 49  1  0
  5  6  1  0
  5 50  1  0
  5 51  1  0
  7  6  1  1
  6 52  1  0
  6 53  1  0
  7 13  1  0
  7 41  1  0
  7  8  1  0
  8  9  1  0
  8 54  1  0
  8 55  1  0
  9 10  1  0
 10 11  1  1
 10 12  1  0
 10 16  1  0
 11 56  1  0
 12 13  1  0
 12 57  1  0
 12 58  1  0
 13 14  1  0
 13 59  1  1
 14 15  1  0
 14 60  1  6
 15 61  1  0
 42 16  1  1
 16 17  1  1
 16 18  1  0
 17 62  1  0
 17 63  1  0
 17 64  1  0
 18 24  1  0
 18 19  1  0
 18 65  1  1
 19 20  1  0
 19 66  1  0
 19 67  1  0
 20 21  2  0
 20 22  1  0
 22 23  1  0
 22 24  2  0
 23 68  1  0
 23 69  1  0
 23 70  1  0
 24 25  1  0
 25 26  2  3
 25 71  1  0
 26 39  1  0
 26 27  1  0
 27 32  1  0
 27 28  1  0
 27 72  1  1
 28 29  2  0
 28 30  1  0
 30 31  1  0
 31 32  1  0
 31 73  1  0
 31 74  1  0
 32 33  1  1
 32 35  1  0
 33 34  1  0
 33 75  1  0
 33 76  1  0
 34 77  1  0
 35 36  1  0
 35 37  1  0
 35 78  1  6
 36 79  1  0
 37 38  1  0
 37 80  1  0
 37 81  1  0
 38 39  1  0
 38 82  1  0
 38 83  1  0
 39 40  1  6
 39 41  1  0
 40 84  1  0
 40 85  1  0
 40 86  1  0
 41 42  1  0
 41 87  1  6
 42 43  2  0
M  END
>  <i_m_ct_stereo_status>  (23) 
1

>  <s_m_source_file>  (23) 
/var/tmp/pbs.5075288.sched01/tmphozr6t3_/0veliry26.sdf

>  <i_m_source_file_index>  (23) 
67

>  <i_lp_mmshare_version>  (23) 
48012

>  <i_f3d_flags>  (23) 
0

>  <s_epik_input>  (23) 
W0NIMl09W0NIXVtDQEBdKFtDSDNdKShbQ0gyXVtDSDJdMSlbQ0BIXShbT0hdKVtDQEBIXShbQ0BdMTIzKVtDSDJdW0NAQF0oW09IXSkoT1tDSDJdMilbQ0BdNChbQ0gzXSlbQ0BIXTVDKD1DKFtDSDNdKUMoPU8pW0NIMl01KS9bQ0hdPUM2L1tDQEhdN1tDQF0oW0NIMl1bT0hdKShbQ0gyXU9DNz1PKVtDQEBIXShbT0hdKVtDSDJdW0NIMl1bQ0BAXTYoW0NIM10pW0NAQEhdM1tTK100W08tXQ==

>  <s_epik_cmdline>  (23) 
J2VwaWtfcHl0aG9uJywgJy1waHQnLCAnMi4wJywgJy1waCcsICc3LjAnLCAnLXRuJywgJzgnLCAnLW1hJywgJzIwMCcsICctaW1hZScsICc8aW5maWxlLm1hZT4nLCAnLW9tYWUnLCAnPG91dGZpbGUubWFlPic=

>  <r_lp_tautomer_probability>  (23) 
1

>  <r_epik_Ionization_Penalty>  (23) 
6.05204e-07

>  <r_epik_Ionization_Penalty_Charging>  (23) 
0

>  <r_epik_Ionization_Penalty_Neutral>  (23) 
6.05204e-07

>  <r_epik_State_Penalty>  (23) 
-0

>  <r_epik_Charging_Adjusted_Penalty>  (23) 
0

>  <i_epik_Tot_Q>  (23) 
0

>  <i_epik_Tot_abs_Q>  (23) 
2

>  <s_epik_Chemistry_Notes>  (23) 
This compound has an ester and may undergo hydrolysis at high or low pH.

>  <s_lp_Force_Field>  (23) 
OPLS3e

>  <r_lp_Energy>  (23) 
227.221

>  <b_lp_Chiralities_Consistent>  (23) 
1

>  <s_lp_Variant>  (23) 
11:0-4

>  <s_i_glide_gridfile>  (23) 
pfpi4k_grid

>  <i_i_glide_lignum>  (23) 
67

>  <i_i_glide_rotatable_bonds>  (23) 
6

>  <r_i_docking_score>  (23) 
-2.57546

>  <r_i_glide_ligand_efficiency>  (23) 
-0.0598943

>  <r_i_glide_ligand_efficiency_sa>  (23) 
-0.209834

>  <r_i_glide_ligand_efficiency_ln>  (23) 
-0.540926

>  <r_i_glide_gscore>  (23) 
-2.57546

>  <r_i_glide_lipo>  (23) 
-0.0780187

>  <r_i_glide_hbond>  (23) 
-0.152

>  <r_i_glide_metal>  (23) 
-0

>  <r_i_glide_rewards>  (23) 
-0.0286809

>  <r_i_glide_evdw>  (23) 
-23.0152

>  <r_i_glide_ecoul>  (23) 
-8.38429

>  <r_i_glide_erotb>  (23) 
0.110841

>  <r_i_glide_esite>  (23) 
-0.0191934

>  <r_i_glide_emodel>  (23) 
-34.2282

>  <r_i_glide_energy>  (23) 
-31.3995

>  <r_i_glide_einternal>  (23) 
2.70235

>  <r_i_glide_intrahb_reward>  (23) 
-0

>  <i_i_glide_confnum>  (23) 
2

>  <i_i_glide_posenum>  (23) 
33

>  <r_i_glide_eff_state_penalty>  (23) 
0

>  <ligand_id>  (23) 
11

>  <original_smiles>  (23) 
C=CC1(C)CCC23COC(O)(CC2C1O)C1(C)C2CC(=O)C(C)=C2C=C2C4C(=O)OCC4(CO)C(O)CCC2(C)C3[S+]1[O-]

>  <smiles>  (23) 
[H]OC([H])([H])C12C([H])([H])OC(=O)C1([H])C1=C([H])C3=C(C([H])([H])[H])C(=O)C([H])([H])C3([H])C3(C([H])([H])[H])S(=O)C([H])(C1(C([H])([H])[H])C([H])([H])C([H])([H])C2([H])O[H])C12C([H])([H])OC3(O[H])C([H])([H])C1([H])C([H])(O[H])C(C([H])=C([H])[H])(C([H])([H])[H])C([H])([H])C2([H])[H]

$$$$
11:3:2
     RDKit          3D

 87 93  0  0  1  0  0  0  0  0999 V2000
    0.8635    1.1967    1.9433 C   0  0  0  0  0  0  0  0  0  0  0  0
    1.3524   -0.0424    2.1646 C   0  0  0  0  0  0  0  0  0  0  0  0
    1.6483   -0.7135    3.5228 C   0  0  1  0  0  0  0  0  0  0  0  0
    1.4391    0.3318    4.6534 C   0  0  0  0  0  0  0  0  0  0  0  0
    0.6454   -1.8812    3.7021 C   0  0  0  0  0  0  0  0  0  0  0  0
    0.9096   -2.7480    4.9522 C   0  0  0  0  0  0  0  0  0  0  0  0
    2.3041   -3.4482    4.9838 C   0  0  2  0  0  0  0  0  0  0  0  0
    2.6052   -3.7534    6.4965 C   0  0  0  0  0  0  0  0  0  0  0  0
    4.0073   -3.8366    6.8867 O   0  0  0  0  0  0  0  0  0  0  0  0
    5.0171   -3.9759    5.9040 C   0  0  2  0  0  0  0  0  0  0  0  0
    6.2839   -4.0153    6.5137 O   0  0  0  0  0  0  0  0  0  0  0  0
    4.8677   -2.6087    5.1156 C   0  0  0  0  0  0  0  0  0  0  0  0
    3.3537   -2.2605    4.7895 C   0  0  1  0  0  0  0  0  0  0  0  0
    3.1129   -1.2766    3.5904 C   0  0  1  0  0  0  0  0  0  0  0  0
    3.4960   -1.8770    2.3690 O   0  0  0  0  0  0  0  0  0  0  0  0
    4.7866   -5.3492    5.1046 C   0  0  2  0  0  0  0  0  0  0  0  0
    3.9454   -6.2145    6.1101 C   0  0  0  0  0  0  0  0  0  0  0  0
    5.8243   -6.4235    4.6893 C   0  0  2  0  0  0  0  0  0  0  0  0
    7.1336   -6.0210    4.0045 C   0  0  0  0  0  0  0  0  0  0  0  0
    7.4613   -7.3354    3.3135 C   0  0  0  0  0  0  0  0  0  0  0  0
    8.6024   -7.6308    2.9822 O   0  0  0  0  0  0  0  0  0  0  0  0
    6.2425   -8.1244    3.0968 C   0  0  0  0  0  0  0  0  0  0  0  0
    6.2365   -9.2455    2.0629 C   0  0  0  0  0  0  0  0  0  0  0  0
    5.2219   -7.5599    3.7692 C   0  0  0  0  0  0  0  0  0  0  0  0
    3.7989   -7.7737    3.3048 C   0  0  0  0  0  0  0  0  0  0  0  0
    2.6318   -7.4630    3.9599 C   0  0  0  0  0  0  0  0  0  0  0  0
    2.0889   -8.4572    5.0647 C   0  0  2  0  0  0  0  0  0  0  0  0
    3.0171   -9.6600    5.3627 C   0  0  0  0  0  0  0  0  0  0  0  0
    4.1099   -9.5781    5.9179 O   0  0  0  0  0  0  0  0  0  0  0  0
    2.4586  -10.7987    4.9800 O   0  0  0  0  0  0  0  0  0  0  0  0
    1.1686  -10.6464    4.4332 C   0  0  0  0  0  0  0  0  0  0  0  0
    0.7409   -9.2192    4.8312 C   0  0  1  0  0  0  0  0  0  0  0  0
   -0.0437   -9.2618    6.1833 C   0  0  0  0  0  0  0  0  0  0  0  0
    0.6169   -9.8388    7.3022 O   0  0  0  0  0  0  0  0  0  0  0  0
   -0.1124   -8.6386    3.6697 C   0  0  1  0  0  0  0  0  0  0  0  0
   -1.2128   -9.4533    3.2821 O   0  0  0  0  0  0  0  0  0  0  0  0
   -0.6487   -7.2192    3.8983 C   0  0  0  0  0  0  0  0  0  0  0  0
    0.3849   -6.1580    4.3194 C   0  0  0  0  0  0  0  0  0  0  0  0
    1.7615   -6.1457    3.6119 C   0  0  2  0  0  0  0  0  0  0  0  0
    1.4814   -6.1611    2.0735 C   0  0  0  0  0  0  0  0  0  0  0  0
    2.4073   -4.6435    3.8454 C   0  0  2  0  0  0  0  0  0  0  0  0
    4.1742   -4.7088    3.4670 S   0  0  0  0  0  0  0  0  0  0  0  0
    4.6209   -5.3523    2.1546 O   0  0  0  0  0  0  0  0  0  0  0  0
    0.6365    1.8956    2.7355 H   0  0  0  0  0  0  0  0  0  0  0  0
    0.6677    1.5494    0.9386 H   0  0  0  0  0  0  0  0  0  0  0  0
    1.5519   -0.6469    1.2867 H   0  0  0  0  0  0  0  0  0  0  0  0
    1.6068   -0.0420    5.6625 H   0  0  0  0  0  0  0  0  0  0  0  0
    0.4208    0.7247    4.6461 H   0  0  0  0  0  0  0  0  0  0  0  0
    2.1194    1.1721    4.5097 H   0  0  0  0  0  0  0  0  0  0  0  0
   -0.3636   -1.4734    3.7706 H   0  0  0  0  0  0  0  0  0  0  0  0
    0.6332   -2.5074    2.8129 H   0  0  0  0  0  0  0  0  0  0  0  0
    0.7953   -2.0929    5.8181 H   0  0  0  0  0  0  0  0  0  0  0  0
    0.1122   -3.4642    5.0935 H   0  0  0  0  0  0  0  0  0  0  0  0
    2.2561   -2.9316    7.1219 H   0  0  0  0  0  0  0  0  0  0  0  0
    1.9872   -4.5567    6.8887 H   0  0  0  0  0  0  0  0  0  0  0  0
    6.3692   -4.8308    6.9844 H   0  0  0  0  0  0  0  0  0  0  0  0
    5.2301   -1.8267    5.7833 H   0  0  0  0  0  0  0  0  0  0  0  0
    5.5257   -2.5614    4.2448 H   0  0  0  0  0  0  0  0  0  0  0  0
    3.1370   -1.5906    5.6189 H   0  0  0  0  0  0  0  0  0  0  0  0
    3.7850   -0.4255    3.7033 H   0  0  0  0  0  0  0  0  0  0  0  0
    2.9172   -2.5959    2.1906 H   0  0  0  0  0  0  0  0  0  0  0  0
    4.2327   -6.0695    7.1500 H   0  0  0  0  0  0  0  0  0  0  0  0
    4.1468   -7.2627    6.0471 H   0  0  0  0  0  0  0  0  0  0  0  0
    2.8803   -6.1137    6.0315 H   0  0  0  0  0  0  0  0  0  0  0  0
    6.1766   -6.9130    5.6017 H   0  0  0  0  0  0  0  0  0  0  0  0
    7.0052   -5.2498    3.2455 H   0  0  0  0  0  0  0  0  0  0  0  0
    7.9254   -5.7303    4.6914 H   0  0  0  0  0  0  0  0  0  0  0  0
    6.7632  -10.0995    2.4881 H   0  0  0  0  0  0  0  0  0  0  0  0
    6.7781   -8.9556    1.1603 H   0  0  0  0  0  0  0  0  0  0  0  0
    5.2326   -9.5797    1.7840 H   0  0  0  0  0  0  0  0  0  0  0  0
    3.8206   -7.3841    2.3043 H   0  0  0  0  0  0  0  0  0  0  0  0
    1.9901   -7.9191    6.0006 H   0  0  0  0  0  0  0  0  0  0  0  0
    1.2738  -10.7465    3.3538 H   0  0  0  0  0  0  0  0  0  0  0  0
    0.4505  -11.4002    4.7700 H   0  0  0  0  0  0  0  0  0  0  0  0
   -0.2983   -8.2433    6.4714 H   0  0  0  0  0  0  0  0  0  0  0  0
   -0.9874   -9.7861    6.0854 H   0  0  0  0  0  0  0  0  0  0  0  0
    0.8272  -10.7662    7.1637 H   0  0  0  0  0  0  0  0  0  0  0  0
    0.4954   -8.6686    2.7725 H   0  0  0  0  0  0  0  0  0  0  0  0
   -1.5395   -9.9370    4.0332 H   0  0  0  0  0  0  0  0  0  0  0  0
   -1.1297   -6.9033    2.9744 H   0  0  0  0  0  0  0  0  0  0  0  0
   -1.4504   -7.2282    4.6358 H   0  0  0  0  0  0  0  0  0  0  0  0
   -0.1095   -5.2236    4.0871 H   0  0  0  0  0  0  0  0  0  0  0  0
    0.5181   -6.1595    5.4006 H   0  0  0  0  0  0  0  0  0  0  0  0
    0.6778   -5.4723    1.8300 H   0  0  0  0  0  0  0  0  0  0  0  0
    1.2025   -7.1280    1.6719 H   0  0  0  0  0  0  0  0  0  0  0  0
    2.3400   -5.8483    1.4817 H   0  0  0  0  0  0  0  0  0  0  0  0
    2.0578   -4.0993    2.9794 H   0  0  0  0  0  0  0  0  0  0  0  0
  1  2  2  0
  1 44  1  0
  1 45  1  0
  2  3  1  0
  2 46  1  0
  3 14  1  0
  3  4  1  1
  3  5  1  0
  4 47  1  0
  4 48  1  0
  4 49  1  0
  5  6  1  0
  5 50  1  0
  5 51  1  0
  7  6  1  1
  6 52  1  0
  6 53  1  0
  7 13  1  0
  7 41  1  0
  7  8  1  0
  8  9  1  0
  8 54  1  0
  8 55  1  0
  9 10  1  0
 10 11  1  1
 10 12  1  0
 10 16  1  0
 11 56  1  0
 12 13  1  0
 12 57  1  0
 12 58  1  0
 13 14  1  0
 13 59  1  1
 14 15  1  0
 14 60  1  1
 15 61  1  0
 42 16  1  1
 16 17  1  1
 16 18  1  0
 17 62  1  0
 17 63  1  0
 17 64  1  0
 18 24  1  0
 18 19  1  0
 18 65  1  1
 19 20  1  0
 19 66  1  0
 19 67  1  0
 20 21  2  0
 20 22  1  0
 22 23  1  0
 22 24  2  0
 23 68  1  0
 23 69  1  0
 23 70  1  0
 24 25  1  0
 25 26  2  3
 25 71  1  0
 26 39  1  0
 26 27  1  0
 27 32  1  0
 27 28  1  0
 27 72  1  1
 28 29  2  0
 28 30  1  0
 30 31  1  0
 31 32  1  0
 31 73  1  0
 31 74  1  0
 32 33  1  1
 32 35  1  0
 33 34  1  0
 33 75  1  0
 33 76  1  0
 34 77  1  0
 35 36  1  0
 35 37  1  0
 35 78  1  6
 36 79  1  0
 37 38  1  0
 37 80  1  0
 37 81  1  0
 38 39  1  0
 38 82  1  0
 38 83  1  0
 39 40  1  6
 39 41  1  0
 40 84  1  0
 40 85  1  0
 40 86  1  0
 41 42  1  0
 41 87  1  6
 42 43  2  0
M  END
>  <i_m_ct_stereo_status>  (24) 
1

>  <s_m_source_file>  (24) 
/var/tmp/pbs.5075288.sched01/tmphozr6t3_/0veliry26.sdf

>  <i_m_source_file_index>  (24) 
67

>  <i_lp_mmshare_version>  (24) 
48012

>  <i_f3d_flags>  (24) 
0

>  <s_epik_input>  (24) 
W0NIMl09W0NIXVtDQEBdKFtDSDNdKShbQ0gyXVtDSDJdMSlbQ0BIXShbT0hdKVtDQEBIXShbQ0BdMTIzKVtDSDJdW0NAQF0oW09IXSkoT1tDSDJdMilbQ0BdNChbQ0gzXSlbQ0BIXTVDKD1DKFtDSDNdKUMoPU8pW0NIMl01KS9bQ0hdPUM2L1tDQEhdN1tDQF0oW0NIMl1bT0hdKShbQ0gyXU9DNz1PKVtDQEBIXShbT0hdKVtDSDJdW0NIMl1bQ0BAXTYoW0NIM10pW0NAQEhdM1tTK100W08tXQ==

>  <s_epik_cmdline>  (24) 
J2VwaWtfcHl0aG9uJywgJy1waHQnLCAnMi4wJywgJy1waCcsICc3LjAnLCAnLXRuJywgJzgnLCAnLW1hJywgJzIwMCcsICctaW1hZScsICc8aW5maWxlLm1hZT4nLCAnLW9tYWUnLCAnPG91dGZpbGUubWFlPic=

>  <r_lp_tautomer_probability>  (24) 
1

>  <r_epik_Ionization_Penalty>  (24) 
6.05204e-07

>  <r_epik_Ionization_Penalty_Charging>  (24) 
0

>  <r_epik_Ionization_Penalty_Neutral>  (24) 
6.05204e-07

>  <r_epik_State_Penalty>  (24) 
-0

>  <r_epik_Charging_Adjusted_Penalty>  (24) 
0

>  <i_epik_Tot_Q>  (24) 
0

>  <i_epik_Tot_abs_Q>  (24) 
2

>  <s_epik_Chemistry_Notes>  (24) 
This compound has an ester and may undergo hydrolysis at high or low pH.

>  <s_lp_Force_Field>  (24) 
OPLS3e

>  <r_lp_Energy>  (24) 
227.221

>  <b_lp_Chiralities_Consistent>  (24) 
1

>  <s_lp_Variant>  (24) 
11:0-4

>  <s_i_glide_gridfile>  (24) 
pfpi4k_grid

>  <i_i_glide_lignum>  (24) 
67

>  <i_i_glide_rotatable_bonds>  (24) 
6

>  <r_i_docking_score>  (24) 
-2.44306

>  <r_i_glide_ligand_efficiency>  (24) 
-0.0568154

>  <r_i_glide_ligand_efficiency_sa>  (24) 
-0.199047

>  <r_i_glide_ligand_efficiency_ln>  (24) 
-0.513119

>  <r_i_glide_gscore>  (24) 
-2.44306

>  <r_i_glide_lipo>  (24) 
-0.0837079

>  <r_i_glide_hbond>  (24) 
-0.152

>  <r_i_glide_metal>  (24) 
-0

>  <r_i_glide_rewards>  (24) 
-0.00393163

>  <r_i_glide_evdw>  (24) 
-22.8446

>  <r_i_glide_ecoul>  (24) 
-7.63314

>  <r_i_glide_erotb>  (24) 
0.110841

>  <r_i_glide_esite>  (24) 
-0.0270607

>  <r_i_glide_emodel>  (24) 
-33.8057

>  <r_i_glide_energy>  (24) 
-30.4778

>  <r_i_glide_einternal>  (24) 
2.29387

>  <r_i_glide_intrahb_reward>  (24) 
-0

>  <i_i_glide_confnum>  (24) 
2

>  <i_i_glide_posenum>  (24) 
10

>  <r_i_glide_eff_state_penalty>  (24) 
0

>  <ligand_id>  (24) 
11

>  <original_smiles>  (24) 
C=CC1(C)CCC23COC(O)(CC2C1O)C1(C)C2CC(=O)C(C)=C2C=C2C4C(=O)OCC4(CO)C(O)CCC2(C)C3[S+]1[O-]

>  <smiles>  (24) 
[H]OC([H])([H])C12C([H])([H])OC(=O)C1([H])C1=C([H])C3=C(C([H])([H])[H])C(=O)C([H])([H])C3([H])C3(C([H])([H])[H])S(=O)C([H])(C1(C([H])([H])[H])C([H])([H])C([H])([H])C2([H])O[H])C12C([H])([H])OC3(O[H])C([H])([H])C1([H])C([H])(O[H])C(C([H])=C([H])[H])(C([H])([H])[H])C([H])([H])C2([H])[H]

$$$$
21:0:0
     RDKit          3D

153160  0  0  1  0  0  0  0  0999 V2000
    3.3884   -7.7260    4.9969 C   0  0  0  0  0  0  0  0  0  0  0  0
    3.1866   -6.4845    4.5390 C   0  0  0  0  0  0  0  0  0  0  0  0
    1.8511   -6.1175    3.9250 C   0  0  0  0  0  0  0  0  0  0  0  0
    4.2645   -5.4003    4.5971 C   0  0  0  0  0  0  0  0  0  0  0  0
    3.8203   -4.2610    5.3615 O   0  0  0  0  0  0  0  0  0  0  0  0
    4.6053   -3.0822    5.4758 C   0  0  1  0  0  0  0  0  0  0  0  0
    5.9662   -3.4831    5.5720 O   0  0  0  0  0  0  0  0  0  0  0  0
    4.4638   -2.2904    3.9716 C   0  0  1  0  0  0  0  0  0  0  0  0
    5.4914   -2.8272    3.1522 O   0  0  0  0  0  0  0  0  0  0  0  0
    3.2202   -2.5610    3.0902 C   0  0  0  0  0  0  0  0  0  0  0  0
    2.5268   -3.5612    3.1180 O   0  0  0  0  0  0  0  0  0  0  0  0
    2.9076   -1.4308    2.1067 C   0  0  1  0  0  0  0  0  0  0  0  0
    3.7685   -1.5933    0.8043 C   0  0  0  0  0  0  0  0  0  0  0  0
    1.5634   -1.5389    1.6973 O   0  0  0  0  0  0  0  0  0  0  0  0
    3.1715   -0.1620    2.9922 C   0  0  1  0  0  0  0  0  0  0  0  0
    3.4079    0.9267    2.1201 O   0  0  0  0  0  0  0  0  0  0  0  0
    1.5404    0.1184    3.9403 S   0  0  0  0  0  0  0  0  0  0  0  0
    0.4731    0.6206    2.9632 O   0  0  0  0  0  0  0  0  0  0  0  0
    1.7300    1.3219    5.3691 C   0  0  1  0  0  0  0  0  0  0  0  0
    1.4448    2.7074    4.7109 C   0  0  0  0  0  0  0  0  0  0  0  0
    2.7185    3.5170    4.4759 C   0  0  1  0  0  0  0  0  0  0  0  0
    2.7064    4.0668    3.1661 O   0  0  0  0  0  0  0  0  0  0  0  0
    3.0558    4.6313    5.5135 C   0  0  1  0  0  0  0  0  0  0  0  0
    4.4421    4.7428    5.2849 O   0  0  0  0  0  0  0  0  0  0  0  0
    2.3490    5.9947    5.1681 C   0  0  0  0  0  0  0  0  0  0  0  0
    0.8508    6.0023    5.4593 C   0  0  0  0  0  0  0  0  0  0  0  0
    2.9258    7.1087    4.6229 C   0  0  0  0  0  0  0  0  0  0  0  0
    2.1483    8.3842    4.2851 C   0  0  0  0  0  0  0  0  0  0  0  0
    4.4097    7.3361    4.2959 C   0  0  0  0  0  0  0  0  0  0  0  0
    3.1016    4.2492    7.0380 C   0  0  2  0  0  0  0  0  0  0  0  0
    3.4355    5.4540    7.7380 O   0  0  0  0  0  0  0  0  0  0  0  0
    3.8459    2.9829    7.4871 C   0  0  1  0  0  0  0  0  0  0  0  0
    5.1740    2.9975    8.2420 C   0  0  0  0  0  0  0  0  0  0  0  0
    6.0231    4.0440    8.2479 C   0  0  0  0  0  0  0  0  0  0  0  0
    5.6852    1.6713    8.8309 C   0  0  1  0  0  0  0  0  0  0  0  0
    5.7307    1.7595   10.2407 O   0  0  0  0  0  0  0  0  0  0  0  0
    4.9458    0.5920    8.3334 O   0  0  0  0  0  0  0  0  0  0  0  0
    5.1749   -0.6830    8.8949 C   0  0  1  0  0  0  0  0  0  0  0  0
    4.1679   -1.1587    9.7419 O   0  0  0  0  0  0  0  0  0  0  0  0
    2.8096   -0.7363    9.5723 C   0  0  1  0  0  0  0  0  0  0  0  0
    2.7230    0.6519   10.2548 C   0  0  0  0  0  0  0  0  0  0  0  0
    3.2930    0.7004   11.5545 O   0  0  0  0  0  0  0  0  0  0  0  0
    3.0437    2.0194   12.1151 O   0  0  0  0  0  0  0  0  0  0  0  0
    2.4881   -0.6747    8.0033 C   0  0  2  0  0  0  0  0  0  0  0  0
    1.2488   -0.0109    7.7256 O   0  0  0  0  0  0  0  0  0  0  0  0
    0.9552    1.0583    6.7630 C   0  0  2  0  0  0  0  0  0  0  0  0
   -0.5726    0.6157    6.5770 C   0  0  1  0  0  0  0  0  0  0  0  0
   -1.3079    1.6645    5.9802 O   0  0  0  0  0  0  0  0  0  0  0  0
   -1.1721   -0.7729    6.0426 C   0  0  1  0  0  0  0  0  0  0  0  0
   -1.5480   -0.8332    4.5531 C   0  0  0  0  0  0  0  0  0  0  0  0
   -0.7760   -2.2429    6.5091 C   0  0  0  0  0  0  0  0  0  0  0  0
   -0.0780   -2.5261    7.9019 C   0  0  1  0  0  0  0  0  0  0  0  0
   -0.9712   -3.4625    8.4503 O   0  0  0  0  0  0  0  0  0  0  0  0
    1.4848   -3.0040    8.1137 C   0  0  2  0  0  0  0  0  0  0  0  0
    1.5038   -4.3051    7.5529 O   0  0  0  0  0  0  0  0  0  0  0  0
    1.7716   -3.1606    9.6899 C   0  0  1  0  0  0  0  0  0  0  0  0
    0.8295   -4.1465   10.4515 C   0  0  0  0  0  0  0  0  0  0  0  0
    2.9706   -3.8406    9.9783 O   0  0  0  0  0  0  0  0  0  0  0  0
    1.9104   -1.7674   10.3985 C   0  0  1  0  0  0  0  0  0  0  0  0
    2.3586   -1.9502   11.8853 C   0  0  0  0  0  0  0  0  0  0  0  0
    0.6132   -1.2246   10.5675 O   0  0  0  0  0  0  0  0  0  0  0  0
    2.6086   -2.0957    7.3459 C   0  0  1  0  0  0  0  0  0  0  0  0
    2.1065   -1.9870    5.9723 C   0  0  0  0  0  0  0  0  0  0  0  0
    4.1957   -2.5313    7.0345 C   0  0  1  0  0  0  0  0  0  0  0  0
    4.2864   -3.7074    7.8014 O   0  0  0  0  0  0  0  0  0  0  0  0
    5.4378   -1.7417    7.7743 C   0  0  1  0  0  0  0  0  0  0  0  0
    6.5025   -1.2655    6.9914 O   0  0  0  0  0  0  0  0  0  0  0  0
    1.0526    2.4300    7.6435 C   0  0  1  0  0  0  0  0  0  0  0  0
    0.2995    2.1828    8.8342 O   0  0  0  0  0  0  0  0  0  0  0  0
   -0.8350    2.8453    9.1520 C   0  0  0  0  0  0  0  0  0  0  0  0
   -1.3492    2.4398   10.5258 C   0  0  0  0  0  0  0  0  0  0  0  0
   -1.4218    3.6720    8.4552 O   0  0  0  0  0  0  0  0  0  0  0  0
    2.4091    3.2233    8.0200 C   0  0  2  0  0  0  0  0  0  0  0  0
    2.3059    3.8136    9.4496 C   0  0  0  0  0  0  0  0  0  0  0  0
    4.4991   -0.6618    3.8035 C   0  0  1  0  0  0  0  0  0  0  0  0
    4.9611    0.1957    4.9733 C   0  0  0  0  0  0  0  0  0  0  0  0
    5.5851   -0.2915    2.9462 O   0  0  0  0  0  0  0  0  0  0  0  0
    2.5884   -8.4544    4.9334 H   0  0  0  0  0  0  0  0  0  0  0  0
    4.3272   -8.0351    5.4357 H   0  0  0  0  0  0  0  0  0  0  0  0
    1.4369   -5.2458    4.4466 H   0  0  0  0  0  0  0  0  0  0  0  0
    1.1256   -6.9171    3.9793 H   0  0  0  0  0  0  0  0  0  0  0  0
    1.9928   -5.8596    2.8679 H   0  0  0  0  0  0  0  0  0  0  0  0
    5.1701   -5.8172    5.0316 H   0  0  0  0  0  0  0  0  0  0  0  0
    4.5240   -5.1340    3.5775 H   0  0  0  0  0  0  0  0  0  0  0  0
    6.1176   -3.9331    6.3857 H   0  0  0  0  0  0  0  0  0  0  0  0
    5.4115   -2.5200    2.2644 H   0  0  0  0  0  0  0  0  0  0  0  0
    4.8509   -1.5937    0.9359 H   0  0  0  0  0  0  0  0  0  0  0  0
    3.5495   -0.8328    0.0526 H   0  0  0  0  0  0  0  0  0  0  0  0
    3.5495   -2.5574    0.3379 H   0  0  0  0  0  0  0  0  0  0  0  0
    1.4224   -1.1169    0.8417 H   0  0  0  0  0  0  0  0  0  0  0  0
    4.0397    1.5060    2.5124 H   0  0  0  0  0  0  0  0  0  0  0  0
    2.7609    1.2114    5.5985 H   0  0  0  0  0  0  0  0  0  0  0  0
    0.9422    2.6156    3.7538 H   0  0  0  0  0  0  0  0  0  0  0  0
    0.7131    3.2937    5.2385 H   0  0  0  0  0  0  0  0  0  0  0  0
    3.5320    2.8039    4.4293 H   0  0  0  0  0  0  0  0  0  0  0  0
    1.8198    4.2921    2.9118 H   0  0  0  0  0  0  0  0  0  0  0  0
    4.5622    5.0761    4.4103 H   0  0  0  0  0  0  0  0  0  0  0  0
    0.5645    5.2829    6.2188 H   0  0  0  0  0  0  0  0  0  0  0  0
    0.2871    5.8051    4.5521 H   0  0  0  0  0  0  0  0  0  0  0  0
    0.5185    6.9665    5.8432 H   0  0  0  0  0  0  0  0  0  0  0  0
    2.3591    9.1793    4.9970 H   0  0  0  0  0  0  0  0  0  0  0  0
    1.0674    8.2628    4.2305 H   0  0  0  0  0  0  0  0  0  0  0  0
    2.4318    8.7547    3.2977 H   0  0  0  0  0  0  0  0  0  0  0  0
    4.9421    7.6118    5.2057 H   0  0  0  0  0  0  0  0  0  0  0  0
    4.5286    8.1719    3.6053 H   0  0  0  0  0  0  0  0  0  0  0  0
    4.8925    6.4753    3.8312 H   0  0  0  0  0  0  0  0  0  0  0  0
    2.7508    6.0883    7.5724 H   0  0  0  0  0  0  0  0  0  0  0  0
    3.9825    2.2625    6.6963 H   0  0  0  0  0  0  0  0  0  0  0  0
    5.8027    4.9871    7.7668 H   0  0  0  0  0  0  0  0  0  0  0  0
    6.9927    3.9720    8.7335 H   0  0  0  0  0  0  0  0  0  0  0  0
    6.7145    1.5334    8.4987 H   0  0  0  0  0  0  0  0  0  0  0  0
    4.8503    1.9573   10.5472 H   0  0  0  0  0  0  0  0  0  0  0  0
    6.0653   -0.6337    9.5248 H   0  0  0  0  0  0  0  0  0  0  0  0
    3.2119    1.4082    9.6638 H   0  0  0  0  0  0  0  0  0  0  0  0
    1.6854    0.9477   10.3268 H   0  0  0  0  0  0  0  0  0  0  0  0
    2.2028    1.8892   12.5341 H   0  0  0  0  0  0  0  0  0  0  0  0
    3.1085   -0.0098    7.4486 H   0  0  0  0  0  0  0  0  0  0  0  0
   -0.9671    0.5985    7.5916 H   0  0  0  0  0  0  0  0  0  0  0  0
   -1.0733    1.7149    5.0617 H   0  0  0  0  0  0  0  0  0  0  0  0
   -2.1677   -0.6740    6.4612 H   0  0  0  0  0  0  0  0  0  0  0  0
   -0.7825   -1.3265    3.9587 H   0  0  0  0  0  0  0  0  0  0  0  0
   -1.7778    0.1295    4.1002 H   0  0  0  0  0  0  0  0  0  0  0  0
   -2.4484   -1.4302    4.4683 H   0  0  0  0  0  0  0  0  0  0  0  0
   -1.7366   -2.7669    6.4828 H   0  0  0  0  0  0  0  0  0  0  0  0
   -0.2886   -2.8048    5.7143 H   0  0  0  0  0  0  0  0  0  0  0  0
   -0.2401   -1.6139    8.4545 H   0  0  0  0  0  0  0  0  0  0  0  0
   -0.7416   -4.3182    8.0767 H   0  0  0  0  0  0  0  0  0  0  0  0
    2.3933   -4.6249    7.6521 H   0  0  0  0  0  0  0  0  0  0  0  0
   -0.1189   -3.6967   10.7390 H   0  0  0  0  0  0  0  0  0  0  0  0
    1.2616   -4.5313   11.3760 H   0  0  0  0  0  0  0  0  0  0  0  0
    0.6163   -5.0360    9.8603 H   0  0  0  0  0  0  0  0  0  0  0  0
    3.6724   -3.4076    9.5024 H   0  0  0  0  0  0  0  0  0  0  0  0
    3.4249   -2.1641   11.9734 H   0  0  0  0  0  0  0  0  0  0  0  0
    1.8351   -2.7595   12.3904 H   0  0  0  0  0  0  0  0  0  0  0  0
    2.1416   -1.0848   12.5113 H   0  0  0  0  0  0  0  0  0  0  0  0
    0.6436   -0.5891   11.2691 H   0  0  0  0  0  0  0  0  0  0  0  0
    1.9106   -2.9330    5.4776 H   0  0  0  0  0  0  0  0  0  0  0  0
    2.8176   -1.3888    5.4697 H   0  0  0  0  0  0  0  0  0  0  0  0
    1.2428   -1.3912    5.9055 H   0  0  0  0  0  0  0  0  0  0  0  0
    5.1474   -4.0881    7.7086 H   0  0  0  0  0  0  0  0  0  0  0  0
    6.0209   -2.4811    8.3326 H   0  0  0  0  0  0  0  0  0  0  0  0
    6.2023   -0.5026    6.5172 H   0  0  0  0  0  0  0  0  0  0  0  0
    0.4733    3.1952    7.1383 H   0  0  0  0  0  0  0  0  0  0  0  0
   -1.4704    1.3576   10.5911 H   0  0  0  0  0  0  0  0  0  0  0  0
   -2.3068    2.9141   10.7465 H   0  0  0  0  0  0  0  0  0  0  0  0
   -0.6332    2.7378   11.2922 H   0  0  0  0  0  0  0  0  0  0  0  0
    1.9142    3.1315   10.1870 H   0  0  0  0  0  0  0  0  0  0  0  0
    1.6825    4.7103    9.4695 H   0  0  0  0  0  0  0  0  0  0  0  0
    3.2977    4.0805    9.8191 H   0  0  0  0  0  0  0  0  0  0  0  0
    4.4609   -0.0445    5.8984 H   0  0  0  0  0  0  0  0  0  0  0  0
    4.8151    1.2468    4.7486 H   0  0  0  0  0  0  0  0  0  0  0  0
    6.0369    0.0993    5.1235 H   0  0  0  0  0  0  0  0  0  0  0  0
    5.4505   -0.6845    2.0965 H   0  0  0  0  0  0  0  0  0  0  0  0
  1  2  2  0
  1 78  1  0
  1 79  1  0
  2  3  1  0
  2  4  1  0
  3 80  1  0
  3 81  1  0
  3 82  1  0
  4  5  1  0
  4 83  1  0
  4 84  1  0
  6  5  1  6
  6 64  1  0
  6  7  1  0
  6  8  1  0
  7 85  1  0
  8 75  1  0
  8  9  1  6
  8 10  1  0
  9 86  1  0
 10 11  2  0
 10 12  1  0
 12 13  1  0
 12 14  1  6
 12 15  1  0
 13 87  1  0
 13 88  1  0
 13 89  1  0
 14 90  1  0
 15 16  1  6
 17 15  1  6
 15 75  1  0
 16 91  1  0
 17 18  2  0
 17 19  1  0
 19 46  1  0
 19 20  1  0
 19 92  1  1
 20 21  1  0
 20 93  1  0
 20 94  1  0
 21 22  1  0
 21 23  1  0
 21 95  1  6
 22 96  1  0
 23 24  1  6
 23 25  1  0
 23 30  1  0
 24 97  1  0
 25 26  1  0
 25 27  2  3
 26 98  1  0
 26 99  1  0
 26100  1  0
 27 28  1  0
 27 29  1  0
 28101  1  0
 28102  1  0
 28103  1  0
 29104  1  0
 29105  1  0
 29106  1  0
 30 73  1  0
 30 31  1  1
 30 32  1  0
 31107  1  0
 32 73  1  0
 32 33  1  0
 32108  1  6
 33 34  2  0
 33 35  1  0
 34109  1  0
 34110  1  0
 35 36  1  0
 35 37  1  0
 35111  1  6
 36112  1  0
 37 38  1  0
 38 66  1  0
 38 39  1  0
 38113  1  1
 39 40  1  0
 40 59  1  0
 40 41  1  1
 40 44  1  0
 41 42  1  0
 41114  1  0
 41115  1  0
 42 43  1  0
 43116  1  0
 44 62  1  0
 44 45  1  0
 44117  1  6
 46 45  1  1
 46 47  1  0
 46 68  1  0
 47 48  1  0
 47 49  1  0
 47118  1  1
 48119  1  0
 49 50  1  0
 49 51  1  0
 49120  1  1
 50121  1  0
 50122  1  0
 50123  1  0
 51 52  1  0
 51124  1  0
 51125  1  0
 52 53  1  0
 52 54  1  0
 52126  1  1
 53127  1  0
 54 55  1  6
 54 56  1  0
 54 62  1  0
 55128  1  0
 56 57  1  0
 56 58  1  6
 56 59  1  0
 57129  1  0
 57130  1  0
 57131  1  0
 58132  1  0
 59 60  1  0
 59 61  1  1
 60133  1  0
 60134  1  0
 60135  1  0
 61136  1  0
 62 63  1  6
 62 64  1  0
 63137  1  0
 63138  1  0
 63139  1  0
 64 65  1  1
 64 66  1  0
 65140  1  0
 66 67  1  0
 66141  1  1
 67142  1  0
 68 69  1  0
 68 73  1  0
 68143  1  6
 69 70  1  0
 70 71  1  0
 70 72  2  0
 71144  1  0
 71145  1  0
 71146  1  0
 73 74  1  1
 74147  1  0
 74148  1  0
 74149  1  0
 75 76  1  0
 75 77  1  6
 76150  1  0
 76151  1  0
 76152  1  0
 77153  1  0
M  END
>  <i_m_ct_stereo_status>  (25) 
1

>  <s_m_source_file>  (25) 
/var/tmp/pbs.5075288.sched01/tmpx_bw1ala/724_f_g42c.sdf

>  <i_m_source_file_index>  (25) 
30

>  <i_lp_mmshare_version>  (25) 
48012

>  <i_f3d_flags>  (25) 
0

>  <s_epik_input>  (25) 
W0NAQF0xMjNbQ0BIXTRbUytdKFtPLV0pW0NAXTUoW09IXSlbQ0BdKFtDSDNdKShbT0hdKUMoPU8pW0NAQF0oW09IXSkoW0NAQF01KFtDSDNdKVtPSF0pW0NAXShbT0hdKShPW0NIMl1DKD1bQ0gyXSlbQ0gzXSlbQ0BdNihbT0hdKVtDQF03KFtDSDNdKVtDQEhdKE8xKVtDQEBdKFtDSDJdT1tPSF0pKFtDQEBdKFtDSDNdKShbT0hdKVtDQF0oW0NIM10pKFtPSF0pW0NAQF03KFtPSF0pW0NASF0oW09IXSlbQ0gyXVtDQEhdKFtDSDNdKVtDQEBIXTJbT0hdKU9bQ0BASF0oW0NAQEhdNltPSF0pT1tDQEhdKFtPSF0pQyg9W0NIMl0pW0NAQEhdOFtDQEBdKFtPSF0pKFtDQEBdKFtPSF0pKFtDQEBIXShbQ0gyXTQpW09IXSlDKFtDSDNdKT1DKFtDSDNdKVtDSDNdKVtDQEBdOChbQ0gzXSlbQ0BASF0zT0MoPU8pW0NIM10=

>  <s_epik_cmdline>  (25) 
J2VwaWtfcHl0aG9uJywgJy1waHQnLCAnMi4wJywgJy1waCcsICc3LjAnLCAnLXRuJywgJzgnLCAnLW1hJywgJzIwMCcsICctaW1hZScsICc8aW5maWxlLm1hZT4nLCAnLW9tYWUnLCAnPG91dGZpbGUubWFlPic=

>  <r_lp_tautomer_probability>  (25) 
1

>  <r_epik_Ionization_Penalty>  (25) 
8.29797e-05

>  <r_epik_Ionization_Penalty_Charging>  (25) 
0

>  <r_epik_Ionization_Penalty_Neutral>  (25) 
8.29797e-05

>  <r_epik_State_Penalty>  (25) 
-0

>  <r_epik_Charging_Adjusted_Penalty>  (25) 
0

>  <i_epik_Tot_Q>  (25) 
0

>  <i_epik_Tot_abs_Q>  (25) 
2

>  <s_epik_Chemistry_Notes>  (25) 
This compound has an ester and may undergo hydrolysis at high or low pH. This compound contains an acetal/aminal-like group ( X-CH(R)-Y where X, Y are N, S, or O) that may be acid/base labile, releasing an aldehyde.

>  <s_lp_Force_Field>  (25) 
OPLS3e

>  <r_lp_Energy>  (25) 
365.911

>  <b_lp_Chiralities_Consistent>  (25) 
1

>  <s_lp_Variant>  (25) 
21:0-1

>  <s_i_glide_gridfile>  (25) 
pfpi4k_grid

>  <i_i_glide_lignum>  (25) 
30

>  <i_i_glide_rotatable_bonds>  (25) 
25

>  <r_i_docking_score>  (25) 
-4.36112

>  <r_i_glide_ligand_efficiency>  (25) 
-0.0566379

>  <r_i_glide_ligand_efficiency_sa>  (25) 
-0.240956

>  <r_i_glide_ligand_efficiency_ln>  (25) 
-0.816107

>  <r_i_glide_gscore>  (25) 
-4.36112

>  <r_i_glide_lipo>  (25) 
-0.171529

>  <r_i_glide_hbond>  (25) 
0

>  <r_i_glide_metal>  (25) 
-0

>  <r_i_glide_rewards>  (25) 
-1.51184

>  <r_i_glide_evdw>  (25) 
-29.7234

>  <r_i_glide_ecoul>  (25) 
-8.43575

>  <r_i_glide_erotb>  (25) 
0.0870831

>  <r_i_glide_esite>  (25) 
-0.0133019

>  <r_i_glide_emodel>  (25) 
-58.9166

>  <r_i_glide_energy>  (25) 
-38.1592

>  <r_i_glide_einternal>  (25) 
5.72338

>  <r_i_glide_intrahb_reward>  (25) 
-1.5

>  <i_i_glide_confnum>  (25) 
7

>  <i_i_glide_posenum>  (25) 
39

>  <r_i_glide_eff_state_penalty>  (25) 
0

>  <ligand_id>  (25) 
21

>  <original_smiles>  (25) 
C=C(C)COC1(O)C2(O)C(=O)C(C)(O)C(O)([S+]([O-])C3CC(O)C(O)(C(C)=C(C)C)C4(O)C5C(=C)C(O)OC6OC7(COO)C8OC3(C(O)C(C)CC(O)C(O)(C(C)(O)C7(C)O)C8(C)C1(O)C6O)C(OC(C)=O)C54C)C2(C)O

>  <smiles>  (25) 
[H]OOC([H])([H])C12OC3([H])OC([H])(O[H])C(=C([H])[H])C4([H])C5(O[H])C(O[H])(C(=C(C([H])([H])[H])C([H])([H])[H])C([H])([H])[H])C([H])(O[H])C([H])([H])C6([H])S(=O)C7(O[H])C(O[H])(C([H])([H])[H])C(=O)C(O[H])(C(O[H])(OC([H])([H])C(=C([H])[H])C([H])([H])[H])C(O[H])(C3([H])O[H])C3(C([H])([H])[H])C1([H])OC6(C([H])(O[H])C([H])(C([H])([H])[H])C([H])([H])C([H])(O[H])C3(O[H])C(O[H])(C([H])([H])[H])C2(O[H])C([H])([H])[H])C([H])(OC(=O)C([H])([H])[H])C45C([H])([H])[H])C7(O[H])C([H])([H])[H]

$$$$
21:0:1
     RDKit          3D

153160  0  0  1  0  0  0  0  0999 V2000
    2.6817   -7.0278    3.4794 C   0  0  0  0  0  0  0  0  0  0  0  0
    3.2283   -6.5394    4.6044 C   0  0  0  0  0  0  0  0  0  0  0  0
    2.8374   -7.0713    5.9627 C   0  0  0  0  0  0  0  0  0  0  0  0
    4.2523   -5.4195    4.6124 C   0  0  0  0  0  0  0  0  0  0  0  0
    3.7785   -4.3069    5.4064 O   0  0  0  0  0  0  0  0  0  0  0  0
    4.5417   -3.1077    5.4902 C   0  0  1  0  0  0  0  0  0  0  0  0
    5.8896   -3.5024    5.6276 O   0  0  0  0  0  0  0  0  0  0  0  0
    4.4025   -2.3286    3.9811 C   0  0  1  0  0  0  0  0  0  0  0  0
    5.4375   -2.8511    3.1736 O   0  0  0  0  0  0  0  0  0  0  0  0
    3.1516   -2.6166    3.0931 C   0  0  0  0  0  0  0  0  0  0  0  0
    2.4839   -3.6316    3.1049 O   0  0  0  0  0  0  0  0  0  0  0  0
    2.8397   -1.4827    2.1034 C   0  0  1  0  0  0  0  0  0  0  0  0
    3.6847   -1.6426    0.7969 C   0  0  0  0  0  0  0  0  0  0  0  0
    1.4850   -1.6033    1.6989 O   0  0  0  0  0  0  0  0  0  0  0  0
    3.1123   -0.2362    2.9873 C   0  0  1  0  0  0  0  0  0  0  0  0
    3.3756    0.8105    2.0873 O   0  0  0  0  0  0  0  0  0  0  0  0
    1.4872    0.0945    3.9313 S   0  0  0  0  0  0  0  0  0  0  0  0
    0.4912    0.6495    2.9102 O   0  0  0  0  0  0  0  0  0  0  0  0
    1.7043    1.3098    5.3588 C   0  0  1  0  0  0  0  0  0  0  0  0
    1.4277    2.7044    4.7114 C   0  0  0  0  0  0  0  0  0  0  0  0
    2.6981    3.4992    4.4535 C   0  0  1  0  0  0  0  0  0  0  0  0
    2.6321    3.9333    3.1092 O   0  0  0  0  0  0  0  0  0  0  0  0
    2.9930    4.6369    5.4768 C   0  0  1  0  0  0  0  0  0  0  0  0
    4.3787    4.8836    5.2806 O   0  0  0  0  0  0  0  0  0  0  0  0
    2.2669    5.9799    5.1197 C   0  0  0  0  0  0  0  0  0  0  0  0
    2.9509    6.7890    3.9982 C   0  0  0  0  0  0  0  0  0  0  0  0
    1.1358    6.4938    5.6967 C   0  0  0  0  0  0  0  0  0  0  0  0
    0.5459    7.8385    5.2905 C   0  0  0  0  0  0  0  0  0  0  0  0
    0.2919    5.8248    6.7595 C   0  0  0  0  0  0  0  0  0  0  0  0
    3.0832    4.2149    6.9881 C   0  0  2  0  0  0  0  0  0  0  0  0
    3.4293    5.3856    7.6934 O   0  0  0  0  0  0  0  0  0  0  0  0
    3.8475    2.9687    7.4480 C   0  0  1  0  0  0  0  0  0  0  0  0
    5.1616    2.9710    8.2081 C   0  0  0  0  0  0  0  0  0  0  0  0
    6.0246    4.0157    8.2182 C   0  0  0  0  0  0  0  0  0  0  0  0
    5.6545    1.6455    8.8046 C   0  0  1  0  0  0  0  0  0  0  0  0
    5.6971    1.7400   10.2116 O   0  0  0  0  0  0  0  0  0  0  0  0
    4.8879    0.5779    8.3267 O   0  0  0  0  0  0  0  0  0  0  0  0
    5.1350   -0.6967    8.8700 C   0  0  1  0  0  0  0  0  0  0  0  0
    4.1375   -1.1875    9.7170 O   0  0  0  0  0  0  0  0  0  0  0  0
    2.7881   -0.7427    9.5588 C   0  0  1  0  0  0  0  0  0  0  0  0
    2.6954    0.6419   10.2314 C   0  0  0  0  0  0  0  0  0  0  0  0
    3.3110    0.6942   11.5087 O   0  0  0  0  0  0  0  0  0  0  0  0
    3.0762    2.0263   12.0694 O   0  0  0  0  0  0  0  0  0  0  0  0
    2.4562   -0.6704    7.9941 C   0  0  2  0  0  0  0  0  0  0  0  0
    1.2194   -0.0137    7.7196 O   0  0  0  0  0  0  0  0  0  0  0  0
    0.9371    1.0539    6.7621 C   0  0  2  0  0  0  0  0  0  0  0  0
   -0.5872    0.6203    6.5867 C   0  0  1  0  0  0  0  0  0  0  0  0
   -1.3208    1.6553    5.9640 O   0  0  0  0  0  0  0  0  0  0  0  0
   -1.1921   -0.7536    6.0358 C   0  0  1  0  0  0  0  0  0  0  0  0
   -1.5906   -0.7441    4.5508 C   0  0  0  0  0  0  0  0  0  0  0  0
   -0.8157   -2.2289    6.5055 C   0  0  0  0  0  0  0  0  0  0  0  0
   -0.1076   -2.4824    7.8904 C   0  0  1  0  0  0  0  0  0  0  0  0
   -0.9691   -3.4527    8.4439 O   0  0  0  0  0  0  0  0  0  0  0  0
    1.4241   -2.9677    8.1166 C   0  0  2  0  0  0  0  0  0  0  0  0
    1.3637   -4.2533    7.5473 O   0  0  0  0  0  0  0  0  0  0  0  0
    1.7335   -3.1495    9.6816 C   0  0  1  0  0  0  0  0  0  0  0  0
    0.8019   -4.1379   10.4504 C   0  0  0  0  0  0  0  0  0  0  0  0
    2.9285   -3.8529    9.9173 O   0  0  0  0  0  0  0  0  0  0  0  0
    1.8910   -1.7658   10.3884 C   0  0  1  0  0  0  0  0  0  0  0  0
    2.3358   -1.9568   11.8704 C   0  0  0  0  0  0  0  0  0  0  0  0
    0.5952   -1.2209   10.5393 O   0  0  0  0  0  0  0  0  0  0  0  0
    2.5658   -2.0890    7.3408 C   0  0  1  0  0  0  0  0  0  0  0  0
    2.0660   -1.9966    5.9673 C   0  0  0  0  0  0  0  0  0  0  0  0
    4.1461   -2.5185    7.0175 C   0  0  1  0  0  0  0  0  0  0  0  0
    4.2733   -3.6987    7.7480 O   0  0  0  0  0  0  0  0  0  0  0  0
    5.4044   -1.7476    7.7460 C   0  0  1  0  0  0  0  0  0  0  0  0
    6.4929   -1.2993    6.9634 O   0  0  0  0  0  0  0  0  0  0  0  0
    1.0472    2.4146    7.6441 C   0  0  1  0  0  0  0  0  0  0  0  0
    0.2898    2.1888    8.8416 O   0  0  0  0  0  0  0  0  0  0  0  0
   -0.8766    2.8132    9.1197 C   0  0  0  0  0  0  0  0  0  0  0  0
   -1.3876    2.4447   10.5061 C   0  0  0  0  0  0  0  0  0  0  0  0
   -1.4968    3.5587    8.3631 O   0  0  0  0  0  0  0  0  0  0  0  0
    2.4001    3.2124    7.9827 C   0  0  2  0  0  0  0  0  0  0  0  0
    2.2906    3.8060    9.4133 C   0  0  0  0  0  0  0  0  0  0  0  0
    4.4226   -0.7245    3.8032 C   0  0  1  0  0  0  0  0  0  0  0  0
    4.9080    0.1578    4.9361 C   0  0  0  0  0  0  0  0  0  0  0  0
    5.4851   -0.4064    2.8997 O   0  0  0  0  0  0  0  0  0  0  0  0
    1.9380   -7.8131    3.5268 H   0  0  0  0  0  0  0  0  0  0  0  0
    2.9530   -6.6582    2.4998 H   0  0  0  0  0  0  0  0  0  0  0  0
    3.7120   -7.4148    6.5198 H   0  0  0  0  0  0  0  0  0  0  0  0
    2.1036   -7.8780    5.8863 H   0  0  0  0  0  0  0  0  0  0  0  0
    2.3746   -6.2748    6.5261 H   0  0  0  0  0  0  0  0  0  0  0  0
    5.1856   -5.8208    5.0062 H   0  0  0  0  0  0  0  0  0  0  0  0
    4.4583   -5.1403    3.5832 H   0  0  0  0  0  0  0  0  0  0  0  0
    5.9439   -4.0206    6.4298 H   0  0  0  0  0  0  0  0  0  0  0  0
    5.3812   -2.4179    2.3244 H   0  0  0  0  0  0  0  0  0  0  0  0
    4.7639   -1.6152    0.9272 H   0  0  0  0  0  0  0  0  0  0  0  0
    3.4634   -0.8624    0.0727 H   0  0  0  0  0  0  0  0  0  0  0  0
    3.4841   -2.5968    0.3090 H   0  0  0  0  0  0  0  0  0  0  0  0
    1.3532   -1.1736    0.8590 H   0  0  0  0  0  0  0  0  0  0  0  0
    2.6039    1.3509    2.0579 H   0  0  0  0  0  0  0  0  0  0  0  0
    2.7398    1.2103    5.5835 H   0  0  0  0  0  0  0  0  0  0  0  0
    0.8971    2.6047    3.7729 H   0  0  0  0  0  0  0  0  0  0  0  0
    0.7071    3.3133    5.2391 H   0  0  0  0  0  0  0  0  0  0  0  0
    3.5477    2.8324    4.4541 H   0  0  0  0  0  0  0  0  0  0  0  0
    1.8121    4.3871    2.9452 H   0  0  0  0  0  0  0  0  0  0  0  0
    4.4850    5.0541    4.3534 H   0  0  0  0  0  0  0  0  0  0  0  0
    3.5878    6.2069    3.3370 H   0  0  0  0  0  0  0  0  0  0  0  0
    3.5650    7.5778    4.4216 H   0  0  0  0  0  0  0  0  0  0  0  0
    2.2158    7.2324    3.3287 H   0  0  0  0  0  0  0  0  0  0  0  0
   -0.3427    7.6697    4.6955 H   0  0  0  0  0  0  0  0  0  0  0  0
    1.2024    8.4848    4.7113 H   0  0  0  0  0  0  0  0  0  0  0  0
    0.2722    8.4182    6.1742 H   0  0  0  0  0  0  0  0  0  0  0  0
   -0.4114    5.1352    6.3042 H   0  0  0  0  0  0  0  0  0  0  0  0
   -0.2693    6.5686    7.3263 H   0  0  0  0  0  0  0  0  0  0  0  0
    0.8672    5.3019    7.5046 H   0  0  0  0  0  0  0  0  0  0  0  0
    4.1386    5.7687    7.1933 H   0  0  0  0  0  0  0  0  0  0  0  0
    4.0013    2.2383    6.6782 H   0  0  0  0  0  0  0  0  0  0  0  0
    5.8173    4.9547    7.7360 H   0  0  0  0  0  0  0  0  0  0  0  0
    6.9831    3.9303    8.7081 H   0  0  0  0  0  0  0  0  0  0  0  0
    6.6788    1.5012    8.4582 H   0  0  0  0  0  0  0  0  0  0  0  0
    4.8134    1.9169   10.5372 H   0  0  0  0  0  0  0  0  0  0  0  0
    6.0211   -0.6309    9.4949 H   0  0  0  0  0  0  0  0  0  0  0  0
    3.1438    1.4161    9.6284 H   0  0  0  0  0  0  0  0  0  0  0  0
    1.6553    0.9223   10.3447 H   0  0  0  0  0  0  0  0  0  0  0  0
    2.2492    1.8881   12.5147 H   0  0  0  0  0  0  0  0  0  0  0  0
    3.0707   -0.0207    7.4167 H   0  0  0  0  0  0  0  0  0  0  0  0
   -0.9827    0.5899    7.5978 H   0  0  0  0  0  0  0  0  0  0  0  0
   -1.1500    2.4781    6.3979 H   0  0  0  0  0  0  0  0  0  0  0  0
   -2.1933   -0.6500    6.4524 H   0  0  0  0  0  0  0  0  0  0  0  0
   -0.8986   -1.3409    3.9564 H   0  0  0  0  0  0  0  0  0  0  0  0
   -1.6774    0.2444    4.0964 H   0  0  0  0  0  0  0  0  0  0  0  0
   -2.6012   -1.1357    4.4719 H   0  0  0  0  0  0  0  0  0  0  0  0
   -1.7732   -2.7599    6.5010 H   0  0  0  0  0  0  0  0  0  0  0  0
   -0.3383   -2.7983    5.7060 H   0  0  0  0  0  0  0  0  0  0  0  0
   -0.2837   -1.5891    8.4494 H   0  0  0  0  0  0  0  0  0  0  0  0
   -0.6902   -4.2942    8.0830 H   0  0  0  0  0  0  0  0  0  0  0  0
    2.1156   -4.7215    7.8789 H   0  0  0  0  0  0  0  0  0  0  0  0
   -0.1503   -3.6954   10.7434 H   0  0  0  0  0  0  0  0  0  0  0  0
    1.2446   -4.5262   11.3671 H   0  0  0  0  0  0  0  0  0  0  0  0
    0.5868   -5.0304    9.8620 H   0  0  0  0  0  0  0  0  0  0  0  0
    3.6484   -3.3766    9.5110 H   0  0  0  0  0  0  0  0  0  0  0  0
    3.4015   -2.1772   11.9583 H   0  0  0  0  0  0  0  0  0  0  0  0
    1.8066   -2.7624   12.3745 H   0  0  0  0  0  0  0  0  0  0  0  0
    2.1171   -1.0922   12.4989 H   0  0  0  0  0  0  0  0  0  0  0  0
    0.6324   -0.5135   11.1686 H   0  0  0  0  0  0  0  0  0  0  0  0
    1.8682   -2.9469    5.4809 H   0  0  0  0  0  0  0  0  0  0  0  0
    2.7750   -1.3975    5.4676 H   0  0  0  0  0  0  0  0  0  0  0  0
    1.2052   -1.4025    5.9031 H   0  0  0  0  0  0  0  0  0  0  0  0
    3.9594   -4.3768    7.1574 H   0  0  0  0  0  0  0  0  0  0  0  0
    5.9614   -2.4981    8.3164 H   0  0  0  0  0  0  0  0  0  0  0  0
    6.7214   -2.0035    6.3645 H   0  0  0  0  0  0  0  0  0  0  0  0
    0.4681    3.1765    7.1405 H   0  0  0  0  0  0  0  0  0  0  0  0
   -1.4549    1.3637   10.6154 H   0  0  0  0  0  0  0  0  0  0  0  0
   -2.3688    2.8754   10.7043 H   0  0  0  0  0  0  0  0  0  0  0  0
   -0.6944    2.8023   11.2669 H   0  0  0  0  0  0  0  0  0  0  0  0
    1.8974    3.1257   10.1537 H   0  0  0  0  0  0  0  0  0  0  0  0
    1.6702    4.7046    9.4476 H   0  0  0  0  0  0  0  0  0  0  0  0
    3.2793    4.0630    9.7865 H   0  0  0  0  0  0  0  0  0  0  0  0
    4.4245   -0.0510    5.8803 H   0  0  0  0  0  0  0  0  0  0  0  0
    4.7753    1.2100    4.6953 H   0  0  0  0  0  0  0  0  0  0  0  0
    5.9872    0.0646    5.0922 H   0  0  0  0  0  0  0  0  0  0  0  0
    6.3016   -0.6638    3.3011 H   0  0  0  0  0  0  0  0  0  0  0  0
  1  2  2  0
  1 78  1  0
  1 79  1  0
  2  3  1  0
  2  4  1  0
  3 80  1  0
  3 81  1  0
  3 82  1  0
  4  5  1  0
  4 83  1  0
  4 84  1  0
  6  5  1  6
  6 64  1  0
  6  7  1  0
  6  8  1  0
  7 85  1  0
  8 75  1  0
  8  9  1  6
  8 10  1  0
  9 86  1  0
 10 11  2  0
 10 12  1  0
 12 13  1  0
 12 14  1  6
 12 15  1  0
 13 87  1  0
 13 88  1  0
 13 89  1  0
 14 90  1  0
 15 16  1  6
 17 15  1  6
 15 75  1  0
 16 91  1  0
 17 18  2  0
 17 19  1  0
 19 46  1  0
 19 20  1  0
 19 92  1  1
 20 21  1  0
 20 93  1  0
 20 94  1  0
 21 22  1  0
 21 23  1  0
 21 95  1  6
 22 96  1  0
 23 24  1  6
 23 25  1  0
 23 30  1  0
 24 97  1  0
 25 26  1  0
 25 27  2  3
 26 98  1  0
 26 99  1  0
 26100  1  0
 27 28  1  0
 27 29  1  0
 28101  1  0
 28102  1  0
 28103  1  0
 29104  1  0
 29105  1  0
 29106  1  0
 30 73  1  0
 30 31  1  1
 30 32  1  0
 31107  1  0
 32 73  1  0
 32 33  1  0
 32108  1  6
 33 34  2  0
 33 35  1  0
 34109  1  0
 34110  1  0
 35 36  1  0
 35 37  1  0
 35111  1  6
 36112  1  0
 37 38  1  0
 38 66  1  0
 38 39  1  0
 38113  1  1
 39 40  1  0
 40 59  1  0
 40 41  1  1
 40 44  1  0
 41 42  1  0
 41114  1  0
 41115  1  0
 42 43  1  0
 43116  1  0
 44 62  1  0
 44 45  1  0
 44117  1  6
 46 45  1  1
 46 47  1  0
 46 68  1  0
 47 48  1  0
 47 49  1  0
 47118  1  1
 48119  1  0
 49 50  1  0
 49 51  1  0
 49120  1  1
 50121  1  0
 50122  1  0
 50123  1  0
 51 52  1  0
 51124  1  0
 51125  1  0
 52 53  1  0
 52 54  1  0
 52126  1  1
 53127  1  0
 54 55  1  6
 54 56  1  0
 54 62  1  0
 55128  1  0
 56 57  1  0
 56 58  1  6
 56 59  1  0
 57129  1  0
 57130  1  0
 57131  1  0
 58132  1  0
 59 60  1  0
 59 61  1  1
 60133  1  0
 60134  1  0
 60135  1  0
 61136  1  0
 62 63  1  6
 62 64  1  0
 63137  1  0
 63138  1  0
 63139  1  0
 64 65  1  1
 64 66  1  0
 65140  1  0
 66 67  1  0
 66141  1  1
 67142  1  0
 68 69  1  0
 68 73  1  0
 68143  1  6
 69 70  1  0
 70 71  1  0
 70 72  2  0
 71144  1  0
 71145  1  0
 71146  1  0
 73 74  1  1
 74147  1  0
 74148  1  0
 74149  1  0
 75 76  1  0
 75 77  1  6
 76150  1  0
 76151  1  0
 76152  1  0
 77153  1  0
M  END
>  <i_m_ct_stereo_status>  (26) 
1

>  <s_m_source_file>  (26) 
/var/tmp/pbs.5075288.sched01/tmpx_bw1ala/724_f_g42c.sdf

>  <i_m_source_file_index>  (26) 
30

>  <i_lp_mmshare_version>  (26) 
48012

>  <i_f3d_flags>  (26) 
0

>  <s_epik_input>  (26) 
W0NAQF0xMjNbQ0BIXTRbUytdKFtPLV0pW0NAXTUoW09IXSlbQ0BdKFtDSDNdKShbT0hdKUMoPU8pW0NAQF0oW09IXSkoW0NAQF01KFtDSDNdKVtPSF0pW0NAXShbT0hdKShPW0NIMl1DKD1bQ0gyXSlbQ0gzXSlbQ0BdNihbT0hdKVtDQF03KFtDSDNdKVtDQEhdKE8xKVtDQEBdKFtDSDJdT1tPSF0pKFtDQEBdKFtDSDNdKShbT0hdKVtDQF0oW0NIM10pKFtPSF0pW0NAQF03KFtPSF0pW0NASF0oW09IXSlbQ0gyXVtDQEhdKFtDSDNdKVtDQEBIXTJbT0hdKU9bQ0BASF0oW0NAQEhdNltPSF0pT1tDQEhdKFtPSF0pQyg9W0NIMl0pW0NAQEhdOFtDQEBdKFtPSF0pKFtDQEBdKFtPSF0pKFtDQEBIXShbQ0gyXTQpW09IXSlDKFtDSDNdKT1DKFtDSDNdKVtDSDNdKVtDQEBdOChbQ0gzXSlbQ0BASF0zT0MoPU8pW0NIM10=

>  <s_epik_cmdline>  (26) 
J2VwaWtfcHl0aG9uJywgJy1waHQnLCAnMi4wJywgJy1waCcsICc3LjAnLCAnLXRuJywgJzgnLCAnLW1hJywgJzIwMCcsICctaW1hZScsICc8aW5maWxlLm1hZT4nLCAnLW9tYWUnLCAnPG91dGZpbGUubWFlPic=

>  <r_lp_tautomer_probability>  (26) 
1

>  <r_epik_Ionization_Penalty>  (26) 
8.29797e-05

>  <r_epik_Ionization_Penalty_Charging>  (26) 
0

>  <r_epik_Ionization_Penalty_Neutral>  (26) 
8.29797e-05

>  <r_epik_State_Penalty>  (26) 
-0

>  <r_epik_Charging_Adjusted_Penalty>  (26) 
0

>  <i_epik_Tot_Q>  (26) 
0

>  <i_epik_Tot_abs_Q>  (26) 
2

>  <s_epik_Chemistry_Notes>  (26) 
This compound has an ester and may undergo hydrolysis at high or low pH. This compound contains an acetal/aminal-like group ( X-CH(R)-Y where X, Y are N, S, or O) that may be acid/base labile, releasing an aldehyde.

>  <s_lp_Force_Field>  (26) 
OPLS3e

>  <r_lp_Energy>  (26) 
365.911

>  <b_lp_Chiralities_Consistent>  (26) 
1

>  <s_lp_Variant>  (26) 
21:0-1

>  <s_i_glide_gridfile>  (26) 
pfpi4k_grid

>  <i_i_glide_lignum>  (26) 
30

>  <i_i_glide_rotatable_bonds>  (26) 
25

>  <r_i_docking_score>  (26) 
-4.23265

>  <r_i_glide_ligand_efficiency>  (26) 
-0.0549694

>  <r_i_glide_ligand_efficiency_sa>  (26) 
-0.233858

>  <r_i_glide_ligand_efficiency_ln>  (26) 
-0.792066

>  <r_i_glide_gscore>  (26) 
-4.23265

>  <r_i_glide_lipo>  (26) 
-0.109831

>  <r_i_glide_hbond>  (26) 
0

>  <r_i_glide_metal>  (26) 
-0

>  <r_i_glide_rewards>  (26) 
-2.00991

>  <r_i_glide_evdw>  (26) 
-31.804

>  <r_i_glide_ecoul>  (26) 
-3.97229

>  <r_i_glide_erotb>  (26) 
0.0870831

>  <r_i_glide_esite>  (26) 
-0.0139439

>  <r_i_glide_emodel>  (26) 
-60.3057

>  <r_i_glide_energy>  (26) 
-35.7763

>  <r_i_glide_einternal>  (26) 
6.42011

>  <r_i_glide_intrahb_reward>  (26) 
-2

>  <i_i_glide_confnum>  (26) 
3

>  <i_i_glide_posenum>  (26) 
9

>  <r_i_glide_eff_state_penalty>  (26) 
0

>  <ligand_id>  (26) 
21

>  <original_smiles>  (26) 
C=C(C)COC1(O)C2(O)C(=O)C(C)(O)C(O)([S+]([O-])C3CC(O)C(O)(C(C)=C(C)C)C4(O)C5C(=C)C(O)OC6OC7(COO)C8OC3(C(O)C(C)CC(O)C(O)(C(C)(O)C7(C)O)C8(C)C1(O)C6O)C(OC(C)=O)C54C)C2(C)O

>  <smiles>  (26) 
[H]OOC([H])([H])C12OC3([H])OC([H])(O[H])C(=C([H])[H])C4([H])C5(O[H])C(O[H])(C(=C(C([H])([H])[H])C([H])([H])[H])C([H])([H])[H])C([H])(O[H])C([H])([H])C6([H])S(=O)C7(O[H])C(O[H])(C([H])([H])[H])C(=O)C(O[H])(C(O[H])(OC([H])([H])C(=C([H])[H])C([H])([H])[H])C(O[H])(C3([H])O[H])C3(C([H])([H])[H])C1([H])OC6(C([H])(O[H])C([H])(C([H])([H])[H])C([H])([H])C([H])(O[H])C3(O[H])C(O[H])(C([H])([H])[H])C2(O[H])C([H])([H])[H])C([H])(OC(=O)C([H])([H])[H])C45C([H])([H])[H])C7(O[H])C([H])([H])[H]

$$$$
21:0:2
     RDKit          3D

153160  0  0  1  0  0  0  0  0999 V2000
    2.6763   -7.0206    3.5083 C   0  0  0  0  0  0  0  0  0  0  0  0
    3.2640   -6.5557    4.6228 C   0  0  0  0  0  0  0  0  0  0  0  0
    2.9518   -7.1166    5.9881 C   0  0  0  0  0  0  0  0  0  0  0  0
    4.2702   -5.4307    4.6160 C   0  0  0  0  0  0  0  0  0  0  0  0
    3.7878   -4.3206    5.4056 O   0  0  0  0  0  0  0  0  0  0  0  0
    4.5631   -3.1319    5.4930 C   0  0  1  0  0  0  0  0  0  0  0  0
    5.8927   -3.5618    5.5947 O   0  0  0  0  0  0  0  0  0  0  0  0
    4.4437   -2.3396    3.9899 C   0  0  1  0  0  0  0  0  0  0  0  0
    5.4963   -2.8957    3.2121 O   0  0  0  0  0  0  0  0  0  0  0  0
    3.1904   -2.6145    3.0914 C   0  0  0  0  0  0  0  0  0  0  0  0
    2.5340   -3.6266    3.0824 O   0  0  0  0  0  0  0  0  0  0  0  0
    2.8972   -1.4696    2.1019 C   0  0  1  0  0  0  0  0  0  0  0  0
    3.7438   -1.6388    0.8029 C   0  0  0  0  0  0  0  0  0  0  0  0
    1.5390   -1.5884    1.6693 O   0  0  0  0  0  0  0  0  0  0  0  0
    3.1836   -0.2259    2.9779 C   0  0  1  0  0  0  0  0  0  0  0  0
    3.4776    0.8055    2.0505 O   0  0  0  0  0  0  0  0  0  0  0  0
    1.5542    0.1160    3.9408 S   0  0  0  0  0  0  0  0  0  0  0  0
    0.4778    0.6366    2.9781 O   0  0  0  0  0  0  0  0  0  0  0  0
    1.7786    1.3173    5.3674 C   0  0  1  0  0  0  0  0  0  0  0  0
    1.5033    2.7137    4.7237 C   0  0  0  0  0  0  0  0  0  0  0  0
    2.7762    3.5016    4.4634 C   0  0  1  0  0  0  0  0  0  0  0  0
    2.7027    3.9212    3.1156 O   0  0  0  0  0  0  0  0  0  0  0  0
    3.0888    4.6194    5.4753 C   0  0  1  0  0  0  0  0  0  0  0  0
    4.4912    4.7916    5.2839 O   0  0  0  0  0  0  0  0  0  0  0  0
    2.3733    5.9749    5.1365 C   0  0  0  0  0  0  0  0  0  0  0  0
    3.0636    6.7877    4.0358 C   0  0  0  0  0  0  0  0  0  0  0  0
    1.2307    6.4864    5.7070 C   0  0  0  0  0  0  0  0  0  0  0  0
    0.6484    7.8344    5.3028 C   0  0  0  0  0  0  0  0  0  0  0  0
    0.3686    5.8139    6.7469 C   0  0  0  0  0  0  0  0  0  0  0  0
    3.1727    4.2110    7.0018 C   0  0  2  0  0  0  0  0  0  0  0  0
    3.4407    5.3843    7.7235 O   0  0  0  0  0  0  0  0  0  0  0  0
    3.9180    2.9542    7.4534 C   0  0  1  0  0  0  0  0  0  0  0  0
    5.2353    2.9479    8.2211 C   0  0  0  0  0  0  0  0  0  0  0  0
    6.1013    3.9934    8.2340 C   0  0  0  0  0  0  0  0  0  0  0  0
    5.7181    1.6216    8.8145 C   0  0  1  0  0  0  0  0  0  0  0  0
    5.7587    1.7080   10.2167 O   0  0  0  0  0  0  0  0  0  0  0  0
    4.9564    0.5509    8.3089 O   0  0  0  0  0  0  0  0  0  0  0  0
    5.1989   -0.7286    8.8660 C   0  0  1  0  0  0  0  0  0  0  0  0
    4.1903   -1.2075    9.7132 O   0  0  0  0  0  0  0  0  0  0  0  0
    2.8456   -0.7565    9.5576 C   0  0  1  0  0  0  0  0  0  0  0  0
    2.7612    0.6310   10.2317 C   0  0  0  0  0  0  0  0  0  0  0  0
    3.3992    0.6770   11.4930 O   0  0  0  0  0  0  0  0  0  0  0  0
    3.2065    2.0155   12.0482 O   0  0  0  0  0  0  0  0  0  0  0  0
    2.5093   -0.6780    7.9935 C   0  0  2  0  0  0  0  0  0  0  0  0
    1.2765   -0.0163    7.7226 O   0  0  0  0  0  0  0  0  0  0  0  0
    0.9995    1.0576    6.7663 C   0  0  2  0  0  0  0  0  0  0  0  0
   -0.5260    0.6227    6.5743 C   0  0  1  0  0  0  0  0  0  0  0  0
   -1.2613    1.6702    5.9827 O   0  0  0  0  0  0  0  0  0  0  0  0
   -1.1331   -0.7537    6.0375 C   0  0  1  0  0  0  0  0  0  0  0  0
   -1.5251   -0.8124    4.5585 C   0  0  0  0  0  0  0  0  0  0  0  0
   -0.7632   -2.2262    6.5093 C   0  0  0  0  0  0  0  0  0  0  0  0
   -0.0679   -2.4879    7.8957 C   0  0  1  0  0  0  0  0  0  0  0  0
   -0.9595   -3.4486    8.4283 O   0  0  0  0  0  0  0  0  0  0  0  0
    1.4610   -2.9774    8.1161 C   0  0  2  0  0  0  0  0  0  0  0  0
    1.3761   -4.2584    7.5429 O   0  0  0  0  0  0  0  0  0  0  0  0
    1.7751   -3.1570    9.6785 C   0  0  1  0  0  0  0  0  0  0  0  0
    0.8367   -4.1407   10.4396 C   0  0  0  0  0  0  0  0  0  0  0  0
    2.9615   -3.8612    9.9360 O   0  0  0  0  0  0  0  0  0  0  0  0
    1.9474   -1.7766   10.3853 C   0  0  1  0  0  0  0  0  0  0  0  0
    2.3952   -1.9708   11.8690 C   0  0  0  0  0  0  0  0  0  0  0  0
    0.6566   -1.2326   10.5394 O   0  0  0  0  0  0  0  0  0  0  0  0
    2.6021   -2.0920    7.3427 C   0  0  1  0  0  0  0  0  0  0  0  0
    2.1153   -1.9906    5.9667 C   0  0  0  0  0  0  0  0  0  0  0  0
    4.1827   -2.5288    7.0174 C   0  0  1  0  0  0  0  0  0  0  0  0
    4.2645   -3.6894    7.7607 O   0  0  0  0  0  0  0  0  0  0  0  0
    5.4563   -1.7822    7.7450 C   0  0  1  0  0  0  0  0  0  0  0  0
    6.5300   -1.3002    6.9591 O   0  0  0  0  0  0  0  0  0  0  0  0
    1.1117    2.4113    7.6481 C   0  0  1  0  0  0  0  0  0  0  0  0
    0.3536    2.1735    8.8443 O   0  0  0  0  0  0  0  0  0  0  0  0
   -0.7732    2.8513    9.1624 C   0  0  0  0  0  0  0  0  0  0  0  0
   -1.2952    2.4452   10.5317 C   0  0  0  0  0  0  0  0  0  0  0  0
   -1.3470    3.6943    8.4733 O   0  0  0  0  0  0  0  0  0  0  0  0
    2.4740    3.2030    7.9850 C   0  0  2  0  0  0  0  0  0  0  0  0
    2.3608    3.7931    9.4207 C   0  0  0  0  0  0  0  0  0  0  0  0
    4.4857   -0.7360    3.8030 C   0  0  1  0  0  0  0  0  0  0  0  0
    4.9722    0.1498    4.9490 C   0  0  0  0  0  0  0  0  0  0  0  0
    5.5854   -0.3794    2.9523 O   0  0  0  0  0  0  0  0  0  0  0  0
    1.9439   -7.8141    3.5682 H   0  0  0  0  0  0  0  0  0  0  0  0
    2.9031   -6.6203    2.5272 H   0  0  0  0  0  0  0  0  0  0  0  0
    3.8607   -7.4674    6.4784 H   0  0  0  0  0  0  0  0  0  0  0  0
    2.2242   -7.9260    5.9242 H   0  0  0  0  0  0  0  0  0  0  0  0
    2.5255   -6.3326    6.6023 H   0  0  0  0  0  0  0  0  0  0  0  0
    5.2109   -5.8361    4.9935 H   0  0  0  0  0  0  0  0  0  0  0  0
    4.4680   -5.1562    3.5839 H   0  0  0  0  0  0  0  0  0  0  0  0
    6.1661   -3.7392    4.6889 H   0  0  0  0  0  0  0  0  0  0  0  0
    5.4113   -2.5807    2.3156 H   0  0  0  0  0  0  0  0  0  0  0  0
    4.8251   -1.6255    0.9281 H   0  0  0  0  0  0  0  0  0  0  0  0
    3.5224   -0.8579    0.0777 H   0  0  0  0  0  0  0  0  0  0  0  0
    3.5268   -2.5830    0.3158 H   0  0  0  0  0  0  0  0  0  0  0  0
    1.3827   -1.1189    0.8661 H   0  0  0  0  0  0  0  0  0  0  0  0
    4.0324    1.4695    2.4655 H   0  0  0  0  0  0  0  0  0  0  0  0
    2.8134    1.2183    5.5969 H   0  0  0  0  0  0  0  0  0  0  0  0
    0.9804    2.6054    3.7775 H   0  0  0  0  0  0  0  0  0  0  0  0
    0.7803    3.3171    5.2537 H   0  0  0  0  0  0  0  0  0  0  0  0
    3.6171    2.8196    4.4601 H   0  0  0  0  0  0  0  0  0  0  0  0
    1.9028    4.4261    2.9627 H   0  0  0  0  0  0  0  0  0  0  0  0
    4.7645    5.6218    5.6630 H   0  0  0  0  0  0  0  0  0  0  0  0
    3.7106    6.1967    3.3926 H   0  0  0  0  0  0  0  0  0  0  0  0
    3.6692    7.5827    4.4716 H   0  0  0  0  0  0  0  0  0  0  0  0
    2.3391    7.2336    3.3591 H   0  0  0  0  0  0  0  0  0  0  0  0
   -0.2346    7.6682    4.6889 H   0  0  0  0  0  0  0  0  0  0  0  0
    1.3049    8.4904    4.7366 H   0  0  0  0  0  0  0  0  0  0  0  0
    0.3500    8.4077    6.1819 H   0  0  0  0  0  0  0  0  0  0  0  0
   -0.3338    5.1269    6.2765 H   0  0  0  0  0  0  0  0  0  0  0  0
   -0.2056    6.5488    7.3106 H   0  0  0  0  0  0  0  0  0  0  0  0
    0.9249    5.2822    7.4954 H   0  0  0  0  0  0  0  0  0  0  0  0
    4.2748    5.7452    7.4493 H   0  0  0  0  0  0  0  0  0  0  0  0
    4.0869    2.2304    6.6922 H   0  0  0  0  0  0  0  0  0  0  0  0
    5.9040    4.9357    7.7605 H   0  0  0  0  0  0  0  0  0  0  0  0
    7.0634    3.8908    8.7167 H   0  0  0  0  0  0  0  0  0  0  0  0
    6.7480    1.4817    8.4679 H   0  0  0  0  0  0  0  0  0  0  0  0
    4.8729    1.8993   10.5409 H   0  0  0  0  0  0  0  0  0  0  0  0
    6.0795   -0.6587    9.5008 H   0  0  0  0  0  0  0  0  0  0  0  0
    3.1918    1.3990    9.6178 H   0  0  0  0  0  0  0  0  0  0  0  0
    1.7252    0.9014   10.3680 H   0  0  0  0  0  0  0  0  0  0  0  0
    2.3753    1.8997   12.5059 H   0  0  0  0  0  0  0  0  0  0  0  0
    3.1316   -0.0299    7.4192 H   0  0  0  0  0  0  0  0  0  0  0  0
   -0.9166    0.6036    7.5892 H   0  0  0  0  0  0  0  0  0  0  0  0
   -1.0171    1.7245    5.0597 H   0  0  0  0  0  0  0  0  0  0  0  0
   -2.1307   -0.6394    6.4572 H   0  0  0  0  0  0  0  0  0  0  0  0
   -0.7730   -1.3188    3.9608 H   0  0  0  0  0  0  0  0  0  0  0  0
   -1.7561    0.1488    4.1055 H   0  0  0  0  0  0  0  0  0  0  0  0
   -2.4362   -1.3958    4.4984 H   0  0  0  0  0  0  0  0  0  0  0  0
   -1.7251   -2.7434    6.4835 H   0  0  0  0  0  0  0  0  0  0  0  0
   -0.2793   -2.7939    5.7122 H   0  0  0  0  0  0  0  0  0  0  0  0
   -0.2414   -1.5924    8.4554 H   0  0  0  0  0  0  0  0  0  0  0  0
   -0.6761   -4.3006    8.0781 H   0  0  0  0  0  0  0  0  0  0  0  0
    2.1447   -4.7274    7.8454 H   0  0  0  0  0  0  0  0  0  0  0  0
   -0.1138   -3.6935   10.7269 H   0  0  0  0  0  0  0  0  0  0  0  0
    1.2824   -4.5285   11.3537 H   0  0  0  0  0  0  0  0  0  0  0  0
    0.6288   -5.0296    9.8479 H   0  0  0  0  0  0  0  0  0  0  0  0
    3.6732   -3.4460    9.4449 H   0  0  0  0  0  0  0  0  0  0  0  0
    3.4581   -2.1998   11.9566 H   0  0  0  0  0  0  0  0  0  0  0  0
    1.8619   -2.7755   12.3683 H   0  0  0  0  0  0  0  0  0  0  0  0
    2.1827   -1.1067   12.4962 H   0  0  0  0  0  0  0  0  0  0  0  0
    0.6938   -0.5388   11.1903 H   0  0  0  0  0  0  0  0  0  0  0  0
    1.9213   -2.9417    5.4820 H   0  0  0  0  0  0  0  0  0  0  0  0
    2.8302   -1.3887    5.4734 H   0  0  0  0  0  0  0  0  0  0  0  0
    1.2586   -1.3944    5.8991 H   0  0  0  0  0  0  0  0  0  0  0  0
    4.1281   -4.3791    7.1055 H   0  0  0  0  0  0  0  0  0  0  0  0
    6.0296   -2.5506    8.2859 H   0  0  0  0  0  0  0  0  0  0  0  0
    6.2221   -0.5177    6.5080 H   0  0  0  0  0  0  0  0  0  0  0  0
    0.5235    3.1721    7.1513 H   0  0  0  0  0  0  0  0  0  0  0  0
   -1.4269    1.3648   10.5883 H   0  0  0  0  0  0  0  0  0  0  0  0
   -2.2452    2.9296   10.7567 H   0  0  0  0  0  0  0  0  0  0  0  0
   -0.5750    2.7271   11.2986 H   0  0  0  0  0  0  0  0  0  0  0  0
    1.9662    3.1117   10.1559 H   0  0  0  0  0  0  0  0  0  0  0  0
    1.7437    4.6943    9.4517 H   0  0  0  0  0  0  0  0  0  0  0  0
    3.3499    4.0431    9.7897 H   0  0  0  0  0  0  0  0  0  0  0  0
    4.4881   -0.0626    5.8893 H   0  0  0  0  0  0  0  0  0  0  0  0
    4.8350    1.1992    4.7063 H   0  0  0  0  0  0  0  0  0  0  0  0
    6.0496    0.0528    5.0738 H   0  0  0  0  0  0  0  0  0  0  0  0
    5.4204   -0.6897    2.0639 H   0  0  0  0  0  0  0  0  0  0  0  0
  1  2  2  0
  1 78  1  0
  1 79  1  0
  2  3  1  0
  2  4  1  0
  3 80  1  0
  3 81  1  0
  3 82  1  0
  4  5  1  0
  4 83  1  0
  4 84  1  0
  6  5  1  6
  6 64  1  0
  6  7  1  0
  6  8  1  0
  7 85  1  0
  8 75  1  0
  8  9  1  6
  8 10  1  0
  9 86  1  0
 10 11  2  0
 10 12  1  0
 12 13  1  0
 12 14  1  6
 12 15  1  0
 13 87  1  0
 13 88  1  0
 13 89  1  0
 14 90  1  0
 15 16  1  6
 17 15  1  6
 15 75  1  0
 16 91  1  0
 17 18  2  0
 17 19  1  0
 19 46  1  0
 19 20  1  0
 19 92  1  1
 20 21  1  0
 20 93  1  0
 20 94  1  0
 21 22  1  0
 21 23  1  0
 21 95  1  6
 22 96  1  0
 23 24  1  6
 23 25  1  0
 23 30  1  0
 24 97  1  0
 25 26  1  0
 25 27  2  3
 26 98  1  0
 26 99  1  0
 26100  1  0
 27 28  1  0
 27 29  1  0
 28101  1  0
 28102  1  0
 28103  1  0
 29104  1  0
 29105  1  0
 29106  1  0
 30 73  1  0
 30 31  1  1
 30 32  1  0
 31107  1  0
 32 73  1  0
 32 33  1  0
 32108  1  6
 33 34  2  0
 33 35  1  0
 34109  1  0
 34110  1  0
 35 36  1  0
 35 37  1  0
 35111  1  6
 36112  1  0
 37 38  1  0
 38 66  1  0
 38 39  1  0
 38113  1  1
 39 40  1  0
 40 59  1  0
 40 41  1  1
 40 44  1  0
 41 42  1  0
 41114  1  0
 41115  1  0
 42 43  1  0
 43116  1  0
 44 62  1  0
 44 45  1  0
 44117  1  6
 46 45  1  1
 46 47  1  0
 46 68  1  0
 47 48  1  0
 47 49  1  0
 47118  1  1
 48119  1  0
 49 50  1  0
 49 51  1  0
 49120  1  1
 50121  1  0
 50122  1  0
 50123  1  0
 51 52  1  0
 51124  1  0
 51125  1  0
 52 53  1  0
 52 54  1  0
 52126  1  1
 53127  1  0
 54 55  1  6
 54 56  1  0
 54 62  1  0
 55128  1  0
 56 57  1  0
 56 58  1  6
 56 59  1  0
 57129  1  0
 57130  1  0
 57131  1  0
 58132  1  0
 59 60  1  0
 59 61  1  1
 60133  1  0
 60134  1  0
 60135  1  0
 61136  1  0
 62 63  1  6
 62 64  1  0
 63137  1  0
 63138  1  0
 63139  1  0
 64 65  1  1
 64 66  1  0
 65140  1  0
 66 67  1  0
 66141  1  1
 67142  1  0
 68 69  1  0
 68 73  1  0
 68143  1  6
 69 70  1  0
 70 71  1  0
 70 72  2  0
 71144  1  0
 71145  1  0
 71146  1  0
 73 74  1  1
 74147  1  0
 74148  1  0
 74149  1  0
 75 76  1  0
 75 77  1  6
 76150  1  0
 76151  1  0
 76152  1  0
 77153  1  0
M  END
>  <i_m_ct_stereo_status>  (27) 
1

>  <s_m_source_file>  (27) 
/var/tmp/pbs.5075288.sched01/tmpx_bw1ala/724_f_g42c.sdf

>  <i_m_source_file_index>  (27) 
30

>  <i_lp_mmshare_version>  (27) 
48012

>  <i_f3d_flags>  (27) 
0

>  <s_epik_input>  (27) 
W0NAQF0xMjNbQ0BIXTRbUytdKFtPLV0pW0NAXTUoW09IXSlbQ0BdKFtDSDNdKShbT0hdKUMoPU8pW0NAQF0oW09IXSkoW0NAQF01KFtDSDNdKVtPSF0pW0NAXShbT0hdKShPW0NIMl1DKD1bQ0gyXSlbQ0gzXSlbQ0BdNihbT0hdKVtDQF03KFtDSDNdKVtDQEhdKE8xKVtDQEBdKFtDSDJdT1tPSF0pKFtDQEBdKFtDSDNdKShbT0hdKVtDQF0oW0NIM10pKFtPSF0pW0NAQF03KFtPSF0pW0NASF0oW09IXSlbQ0gyXVtDQEhdKFtDSDNdKVtDQEBIXTJbT0hdKU9bQ0BASF0oW0NAQEhdNltPSF0pT1tDQEhdKFtPSF0pQyg9W0NIMl0pW0NAQEhdOFtDQEBdKFtPSF0pKFtDQEBdKFtPSF0pKFtDQEBIXShbQ0gyXTQpW09IXSlDKFtDSDNdKT1DKFtDSDNdKVtDSDNdKVtDQEBdOChbQ0gzXSlbQ0BASF0zT0MoPU8pW0NIM10=

>  <s_epik_cmdline>  (27) 
J2VwaWtfcHl0aG9uJywgJy1waHQnLCAnMi4wJywgJy1waCcsICc3LjAnLCAnLXRuJywgJzgnLCAnLW1hJywgJzIwMCcsICctaW1hZScsICc8aW5maWxlLm1hZT4nLCAnLW9tYWUnLCAnPG91dGZpbGUubWFlPic=

>  <r_lp_tautomer_probability>  (27) 
1

>  <r_epik_Ionization_Penalty>  (27) 
8.29797e-05

>  <r_epik_Ionization_Penalty_Charging>  (27) 
0

>  <r_epik_Ionization_Penalty_Neutral>  (27) 
8.29797e-05

>  <r_epik_State_Penalty>  (27) 
-0

>  <r_epik_Charging_Adjusted_Penalty>  (27) 
0

>  <i_epik_Tot_Q>  (27) 
0

>  <i_epik_Tot_abs_Q>  (27) 
2

>  <s_epik_Chemistry_Notes>  (27) 
This compound has an ester and may undergo hydrolysis at high or low pH. This compound contains an acetal/aminal-like group ( X-CH(R)-Y where X, Y are N, S, or O) that may be acid/base labile, releasing an aldehyde.

>  <s_lp_Force_Field>  (27) 
OPLS3e

>  <r_lp_Energy>  (27) 
365.911

>  <b_lp_Chiralities_Consistent>  (27) 
1

>  <s_lp_Variant>  (27) 
21:0-1

>  <s_i_glide_gridfile>  (27) 
pfpi4k_grid

>  <i_i_glide_lignum>  (27) 
30

>  <i_i_glide_rotatable_bonds>  (27) 
25

>  <r_i_docking_score>  (27) 
-3.93806

>  <r_i_glide_ligand_efficiency>  (27) 
-0.0511437

>  <r_i_glide_ligand_efficiency_sa>  (27) 
-0.217582

>  <r_i_glide_ligand_efficiency_ln>  (27) 
-0.73694

>  <r_i_glide_gscore>  (27) 
-3.93806

>  <r_i_glide_lipo>  (27) 
-0.121153

>  <r_i_glide_hbond>  (27) 
0

>  <r_i_glide_metal>  (27) 
-0

>  <r_i_glide_rewards>  (27) 
-1.51016

>  <r_i_glide_evdw>  (27) 
-28.9368

>  <r_i_glide_ecoul>  (27) 
-7.74717

>  <r_i_glide_erotb>  (27) 
0.0870831

>  <r_i_glide_esite>  (27) 
-0.0126787

>  <r_i_glide_emodel>  (27) 
-55.5462

>  <r_i_glide_energy>  (27) 
-36.684

>  <r_i_glide_einternal>  (27) 
4.54669

>  <r_i_glide_intrahb_reward>  (27) 
-1.5

>  <i_i_glide_confnum>  (27) 
7

>  <i_i_glide_posenum>  (27) 
29

>  <r_i_glide_eff_state_penalty>  (27) 
0

>  <ligand_id>  (27) 
21

>  <original_smiles>  (27) 
C=C(C)COC1(O)C2(O)C(=O)C(C)(O)C(O)([S+]([O-])C3CC(O)C(O)(C(C)=C(C)C)C4(O)C5C(=C)C(O)OC6OC7(COO)C8OC3(C(O)C(C)CC(O)C(O)(C(C)(O)C7(C)O)C8(C)C1(O)C6O)C(OC(C)=O)C54C)C2(C)O

>  <smiles>  (27) 
[H]OOC([H])([H])C12OC3([H])OC([H])(O[H])C(=C([H])[H])C4([H])C5(O[H])C(O[H])(C(=C(C([H])([H])[H])C([H])([H])[H])C([H])([H])[H])C([H])(O[H])C([H])([H])C6([H])S(=O)C7(O[H])C(O[H])(C([H])([H])[H])C(=O)C(O[H])(C(O[H])(OC([H])([H])C(=C([H])[H])C([H])([H])[H])C(O[H])(C3([H])O[H])C3(C([H])([H])[H])C1([H])OC6(C([H])(O[H])C([H])(C([H])([H])[H])C([H])([H])C([H])(O[H])C3(O[H])C(O[H])(C([H])([H])[H])C2(O[H])C([H])([H])[H])C([H])(OC(=O)C([H])([H])[H])C45C([H])([H])[H])C7(O[H])C([H])([H])[H]

$$$$
22:1:0
     RDKit          3D

 88 97  0  0  1  0  0  0  0  0999 V2000
    3.3140   -3.2751    2.3349 C   0  0  0  0  0  0  0  0  0  0  0  0
    3.8160   -4.5571    2.7102 O   0  0  0  0  0  0  0  0  0  0  0  0
    4.0986   -4.7636    4.0957 C   0  0  2  0  0  0  0  0  0  0  0  0
    5.2960   -3.9151    4.5500 C   0  0  0  0  0  0  0  0  0  0  0  0
    5.4457   -3.9960    6.0639 C   0  0  0  0  0  0  0  0  0  0  0  0
    5.5685   -5.4618    6.4398 C   0  0  0  0  0  0  0  0  0  0  0  0
    6.6761   -5.8791    6.7693 O   0  0  0  0  0  0  0  0  0  0  0  0
    4.3271   -6.3581    6.1147 C   0  0  1  0  0  0  0  0  0  0  0  0
    4.1375   -6.3176    4.5191 C   0  0  1  0  0  0  0  0  0  0  0  0
    2.5754   -6.7238    4.2296 C   0  0  2  0  0  0  0  0  0  0  0  0
    1.5527   -6.0907    5.2380 C   0  0  0  0  0  0  0  0  0  0  0  0
    1.2008   -6.9391    6.4743 C   0  0  0  0  0  0  0  0  0  0  0  0
    0.4334   -6.4682    7.3106 O   0  0  0  0  0  0  0  0  0  0  0  0
    1.7684   -8.3774    6.6500 C   0  0  1  0  0  0  0  0  0  0  0  0
    2.3858   -8.9736    5.3875 C   0  0  1  0  0  0  0  0  0  0  0  0
    1.9643  -10.3127    5.1730 O   0  0  0  0  0  0  0  0  0  0  0  0
    2.0575   -8.1940    4.0898 C   0  0  1  0  0  0  0  0  0  0  0  0
    0.6486   -8.2544    3.8344 O   0  0  0  0  0  0  0  0  0  0  0  0
    0.1103   -7.9067    2.6499 C   0  0  0  0  0  0  0  0  0  0  0  0
    0.6984   -7.4082    1.6902 O   0  0  0  0  0  0  0  0  0  0  0  0
   -1.3994   -8.1651    2.5792 C   0  0  0  0  0  0  0  0  0  0  0  0
   -2.1253   -7.5372    3.7800 C   0  0  0  0  0  0  0  0  0  0  0  0
   -1.7018   -9.6594    2.4495 C   0  0  0  0  0  0  0  0  0  0  0  0
    3.9189   -8.8638    5.6493 C   0  0  2  0  0  0  0  0  0  0  0  0
    4.8817  -10.0068    5.6800 C   0  0  2  0  0  0  0  0  0  0  0  0
    6.2265   -9.2156    5.3694 C   0  0  0  0  0  0  0  0  0  0  0  0
    6.2128   -8.5379    3.9547 C   0  0  2  0  0  0  0  0  0  0  0  0
    5.4685   -7.0555    3.7488 C   0  0  1  0  0  0  0  0  0  0  0  0
    5.6580   -6.5953    1.9502 S   0  0  0  0  0  0  0  0  0  0  0  0
    6.8560   -7.3767    1.4042 O   0  0  0  0  0  0  0  0  0  0  0  0
    4.1646   -7.4661    1.4574 C   0  0  0  0  0  0  0  0  0  0  0  0
    4.0603   -8.7995    1.5637 C   0  0  0  0  0  0  0  0  0  0  0  0
    5.0803   -9.8239    2.0002 C   0  0  2  0  0  0  0  0  0  0  0  0
    4.6592  -10.9237    2.9851 C   0  0  1  0  0  0  0  0  0  0  0  0
    6.1683  -11.0339    3.0703 C   0  0  2  0  0  0  0  0  0  0  0  0
    6.1131  -11.5281    4.4013 O   0  0  0  0  0  0  0  0  0  0  0  0
    4.7660  -11.0823    4.5395 C   0  0  1  0  0  0  0  0  0  0  0  0
    3.9608  -12.1072    4.8766 F   0  0  0  0  0  0  0  0  0  0  0  0
    6.2105   -9.5499    2.8498 N   0  0  2  0  0  0  0  0  0  0  0  0
    4.6060  -10.5799    7.0956 C   0  0  0  0  0  0  0  0  0  0  0  0
    5.3500  -11.4199    7.5945 O   0  0  0  0  0  0  0  0  0  0  0  0
    3.3864   -9.9760    7.9110 C   0  0  0  0  0  0  0  0  0  0  0  0
    2.9857   -8.4313    7.6032 C   0  0  2  0  0  0  0  0  0  0  0  0
    2.7069   -7.7387    8.8219 O   0  0  0  0  0  0  0  0  0  0  0  0
    1.6936   -8.2862    9.6672 C   0  0  0  0  0  0  0  0  0  0  0  0
    4.2071   -7.8039    6.8292 C   0  0  2  0  0  0  0  0  0  0  0  0
    5.2501   -7.8555    8.0609 C   0  0  0  0  0  0  0  0  0  0  0  0
    3.0253   -3.2929    1.2836 H   0  0  0  0  0  0  0  0  0  0  0  0
    4.0666   -2.4940    2.4333 H   0  0  0  0  0  0  0  0  0  0  0  0
    2.4314   -2.9841    2.9062 H   0  0  0  0  0  0  0  0  0  0  0  0
    3.2756   -4.2807    4.6127 H   0  0  0  0  0  0  0  0  0  0  0  0
    6.1983   -4.2329    4.0277 H   0  0  0  0  0  0  0  0  0  0  0  0
    5.1529   -2.8682    4.2901 H   0  0  0  0  0  0  0  0  0  0  0  0
    6.3249   -3.4430    6.3893 H   0  0  0  0  0  0  0  0  0  0  0  0
    4.5790   -3.5542    6.5632 H   0  0  0  0  0  0  0  0  0  0  0  0
    3.5474   -5.7623    6.5817 H   0  0  0  0  0  0  0  0  0  0  0  0
    2.3460   -6.2796    3.2676 H   0  0  0  0  0  0  0  0  0  0  0  0
    1.8189   -5.1001    5.5894 H   0  0  0  0  0  0  0  0  0  0  0  0
    0.6152   -5.9291    4.7111 H   0  0  0  0  0  0  0  0  0  0  0  0
    0.9581   -9.0030    7.0082 H   0  0  0  0  0  0  0  0  0  0  0  0
    1.9345  -10.8044    5.9729 H   0  0  0  0  0  0  0  0  0  0  0  0
    2.5257   -8.7129    3.2732 H   0  0  0  0  0  0  0  0  0  0  0  0
   -1.7675   -7.6848    1.6875 H   0  0  0  0  0  0  0  0  0  0  0  0
   -1.9489   -6.4673    3.8389 H   0  0  0  0  0  0  0  0  0  0  0  0
   -1.8161   -7.9958    4.7170 H   0  0  0  0  0  0  0  0  0  0  0  0
   -3.1967   -7.6842    3.6925 H   0  0  0  0  0  0  0  0  0  0  0  0
   -1.2855  -10.0780    1.5396 H   0  0  0  0  0  0  0  0  0  0  0  0
   -2.7759   -9.8344    2.4054 H   0  0  0  0  0  0  0  0  0  0  0  0
   -1.2831  -10.2260    3.2712 H   0  0  0  0  0  0  0  0  0  0  0  0
    4.0943   -8.6335    4.6508 H   0  0  0  0  0  0  0  0  0  0  0  0
    6.5002   -8.4311    6.0356 H   0  0  0  0  0  0  0  0  0  0  0  0
    7.1050   -9.8575    5.4847 H   0  0  0  0  0  0  0  0  0  0  0  0
    7.2512   -8.2431    3.8968 H   0  0  0  0  0  0  0  0  0  0  0  0
    6.2804   -6.4457    4.1248 H   0  0  0  0  0  0  0  0  0  0  0  0
    3.3519   -6.8580    1.1030 H   0  0  0  0  0  0  0  0  0  0  0  0
    3.1315   -9.2577    1.2495 H   0  0  0  0  0  0  0  0  0  0  0  0
    5.4052  -10.2787    1.0568 H   0  0  0  0  0  0  0  0  0  0  0  0
    4.2592  -11.8081    2.4811 H   0  0  0  0  0  0  0  0  0  0  0  0
    6.6302  -11.6914    2.3159 H   0  0  0  0  0  0  0  0  0  0  0  0
    2.5336  -10.6311    7.7663 H   0  0  0  0  0  0  0  0  0  0  0  0
    3.6485  -10.0955    8.9627 H   0  0  0  0  0  0  0  0  0  0  0  0
    1.5426   -7.6187   10.5149 H   0  0  0  0  0  0  0  0  0  0  0  0
    1.9635   -9.2614   10.0697 H   0  0  0  0  0  0  0  0  0  0  0  0
    0.7342   -8.3801    9.1611 H   0  0  0  0  0  0  0  0  0  0  0  0
    5.1342   -8.6319    8.8120 H   0  0  0  0  0  0  0  0  0  0  0  0
    5.1174   -6.9615    8.6689 H   0  0  0  0  0  0  0  0  0  0  0  0
    6.3171   -7.9090    7.8712 H   0  0  0  0  0  0  0  0  0  0  0  0
    6.9923   -9.2987    2.2133 H   0  0  0  0  0  0  0  0  0  0  0  0
  1  2  1  0
  1 48  1  0
  1 49  1  0
  1 50  1  0
  2  3  1  0
  9  3  1  6
  3  4  1  0
  3 51  1  1
  4  5  1  0
  4 52  1  0
  4 53  1  0
  5  6  1  0
  5 54  1  0
  5 55  1  0
  6  7  2  0
  6  8  1  0
  8 46  1  0
  8  9  1  0
  8 56  1  1
  9 28  1  0
  9 10  1  0
 10 17  1  0
 10 11  1  0
 10 57  1  6
 11 12  1  0
 11 58  1  0
 11 59  1  0
 12 13  2  0
 12 14  1  0
 14 43  1  0
 14 15  1  0
 14 60  1  1
 15 16  1  6
 15 17  1  0
 15 24  1  0
 16 61  1  0
 17 18  1  0
 17 62  1  6
 18 19  1  0
 19 20  2  0
 19 21  1  0
 21 22  1  0
 21 23  1  0
 21 63  1  0
 22 64  1  0
 22 65  1  0
 22 66  1  0
 23 67  1  0
 23 68  1  0
 23 69  1  0
 24 46  1  0
 24 25  1  0
 24 70  1  6
 25 37  1  0
 25 26  1  0
 25 40  1  1
 26 27  1  0
 26 71  1  0
 26 72  1  0
 27 39  1  0
 27 28  1  0
 27 73  1  6
 28 29  1  0
 28 74  1  1
 29 30  2  0
 29 31  1  6
 31 32  2  0
 31 75  1  0
 32 33  1  0
 32 76  1  0
 33 39  1  0
 33 34  1  0
 33 77  1  6
 34 37  1  0
 34 35  1  0
 34 78  1  6
 35 36  1  0
 35 39  1  0
 35 79  1  6
 36 37  1  0
 37 38  1  1
 39 88  1  6
 40 41  2  0
 40 42  1  0
 42 43  1  0
 42 80  1  0
 42 81  1  0
 43 44  1  1
 43 46  1  0
 44 45  1  0
 45 82  1  0
 45 83  1  0
 45 84  1  0
 46 47  1  1
 47 85  1  0
 47 86  1  0
 47 87  1  0
M  CHG  1  39   1
M  END
>  <i_m_ct_stereo_status>  (28) 
1

>  <s_m_source_file>  (28) 
/var/tmp/pbs.5075288.sched01/tmpx_bw1ala/724_f_g42c.sdf

>  <i_m_source_file_index>  (28) 
33

>  <i_lp_mmshare_version>  (28) 
48012

>  <i_f3d_flags>  (28) 
0

>  <s_epik_input>  (28) 
W0NIM11PW0NAQEhdMVtDSDJdW0NIMl1DKD1PKVtDQEBIXShbQ0BdMTIzKVtDQF00KFtDSDNdKVtDQEhdNVtDQF02KFtDQEBdNyhGKVtDQEhdOFtDQEBIXTlOKFtDQEhdOE83KVtDQEhdKFtDSDJdNilbQ0BIXTNbUytdKFtPLV0pW0NIXT1bQ0hdOSlDKD1PKVtDSDJdW0NAXTQoT1tDSDNdKVtDQEBIXTFbQ0BAXTUoW09IXSlbQ0BIXShbQ0BIXTJbQ0gyXUMxPU8pT0MoPU8pW0NIXShbQ0gzXSlbQ0gzXQ==

>  <s_epik_cmdline>  (28) 
J2VwaWtfcHl0aG9uJywgJy1waHQnLCAnMi4wJywgJy1waCcsICc3LjAnLCAnLXRuJywgJzgnLCAnLW1hJywgJzIwMCcsICctaW1hZScsICc8aW5maWxlLm1hZT4nLCAnLW9tYWUnLCAnPG91dGZpbGUubWFlPic=

>  <r_lp_tautomer_probability>  (28) 
0.99995

>  <r_epik_Ionization_Penalty>  (28) 
0.872599

>  <r_epik_Ionization_Penalty_Charging>  (28) 
0.872571

>  <r_epik_Ionization_Penalty_Neutral>  (28) 
2.85175e-05

>  <r_epik_State_Penalty>  (28) 
0.910045

>  <r_epik_Charging_Adjusted_Penalty>  (28) 
1.78262

>  <i_epik_Tot_Q>  (28) 
1

>  <i_epik_Tot_abs_Q>  (28) 
3

>  <s_epik_Chemistry_Notes>  (28) 
This compound has an ester and may undergo hydrolysis at high or low pH. This compound contains an acetal/aminal-like group ( X-CH(R)-Y where X, Y are N, S, or O) that may be acid/base labile, releasing an aldehyde.

>  <s_lp_Force_Field>  (28) 
OPLS3e

>  <r_lp_Energy>  (28) 
260.499

>  <b_lp_Chiralities_Consistent>  (28) 
1

>  <s_lp_Variant>  (28) 
22:0-2

>  <s_i_glide_gridfile>  (28) 
pfpi4k_grid

>  <i_i_glide_lignum>  (28) 
33

>  <i_i_glide_rotatable_bonds>  (28) 
6

>  <r_i_docking_score>  (28) 
-2.35728

>  <r_i_glide_ligand_efficiency>  (28) 
-0.0501548

>  <r_i_glide_ligand_efficiency_sa>  (28) 
-0.181

>  <r_i_glide_ligand_efficiency_ln>  (28) 
-0.486021

>  <r_i_glide_gscore>  (28) 
-2.35728

>  <r_i_glide_lipo>  (28) 
-0.287608

>  <r_i_glide_hbond>  (28) 
0

>  <r_i_glide_metal>  (28) 
-0

>  <r_i_glide_rewards>  (28) 
-0.063388

>  <r_i_glide_evdw>  (28) 
-26.2125

>  <r_i_glide_ecoul>  (28) 
-4.26415

>  <r_i_glide_erotb>  (28) 
0.0937316

>  <r_i_glide_esite>  (28) 
-0.149764

>  <r_i_glide_emodel>  (28) 
-35.9523

>  <r_i_glide_energy>  (28) 
-30.4766

>  <r_i_glide_einternal>  (28) 
0.808995

>  <r_i_glide_intrahb_reward>  (28) 
-0

>  <i_i_glide_confnum>  (28) 
1

>  <i_i_glide_posenum>  (28) 
24

>  <r_i_glide_eff_state_penalty>  (28) 
0

>  <ligand_id>  (28) 
22

>  <original_smiles>  (28) 
COC1CCC(=O)C2C13C1CC(=O)C4C(O)(C1OC(=O)C(C)C)C1C5(CC6C3[S+]([O-])C=CC3C7C(OC75F)N36)C(=O)CC4(OC)C21C

>  <smiles>  (28) 
[H]OC12C([H])(OC(=O)C([H])(C([H])([H])[H])C([H])([H])[H])C3([H])C([H])([H])C(=O)C1([H])C1(OC([H])([H])[H])C([H])([H])C(=O)C45C([H])([H])C6([H])C([H])(S(=O)C([H])=C([H])C7([H])C8([H])C4(F)OC8([H])[N+]76[H])C34C([H])(OC([H])([H])[H])C([H])([H])C([H])([H])C(=O)C4([H])C1(C([H])([H])[H])C25[H]

$$$$
22:1:1
     RDKit          3D

 88 97  0  0  1  0  0  0  0  0999 V2000
    2.6780   -1.9676    1.5182 C   0  0  0  0  0  0  0  0  0  0  0  0
    2.9613   -1.2434    2.7154 O   0  0  0  0  0  0  0  0  0  0  0  0
    2.1892   -0.0652    2.9472 C   0  0  2  0  0  0  0  0  0  0  0  0
    2.4402    1.0023    1.8671 C   0  0  0  0  0  0  0  0  0  0  0  0
    1.4684    2.1517    2.0369 C   0  0  0  0  0  0  0  0  0  0  0  0
    1.6005    2.6898    3.4462 C   0  0  0  0  0  0  0  0  0  0  0  0
    2.1891    3.7501    3.6102 O   0  0  0  0  0  0  0  0  0  0  0  0
    1.2296    1.6888    4.5910 C   0  0  1  0  0  0  0  0  0  0  0  0
    2.2486    0.4498    4.4690 C   0  0  1  0  0  0  0  0  0  0  0  0
    1.5408   -0.8240    5.2283 C   0  0  2  0  0  0  0  0  0  0  0  0
    0.0101   -0.9460    4.9430 C   0  0  0  0  0  0  0  0  0  0  0  0
   -0.9238   -0.2278    5.9350 C   0  0  0  0  0  0  0  0  0  0  0  0
   -2.1328   -0.2965    5.7698 O   0  0  0  0  0  0  0  0  0  0  0  0
   -0.3597    0.4807    7.1960 C   0  0  1  0  0  0  0  0  0  0  0  0
    1.0817    0.1316    7.5270 C   0  0  1  0  0  0  0  0  0  0  0  0
    1.2484   -0.1639    8.8982 O   0  0  0  0  0  0  0  0  0  0  0  0
    1.6338   -1.0940    6.7635 C   0  0  1  0  0  0  0  0  0  0  0  0
    0.9036   -2.2725    7.1390 O   0  0  0  0  0  0  0  0  0  0  0  0
    1.4748   -3.5061    7.0738 C   0  0  0  0  0  0  0  0  0  0  0  0
    2.5976   -3.7493    6.6410 O   0  0  0  0  0  0  0  0  0  0  0  0
    0.5311   -4.6126    7.5956 C   0  0  0  0  0  0  0  0  0  0  0  0
    1.1971   -6.0023    7.6402 C   0  0  0  0  0  0  0  0  0  0  0  0
   -0.7683   -4.6448    6.7900 C   0  0  0  0  0  0  0  0  0  0  0  0
    1.8724    1.4003    7.0760 C   0  0  2  0  0  0  0  0  0  0  0  0
    2.7292    2.2645    7.9480 C   0  0  2  0  0  0  0  0  0  0  0  0
    3.6536    2.9058    6.8259 C   0  0  0  0  0  0  0  0  0  0  0  0
    4.5136    1.8357    6.0669 C   0  0  2  0  0  0  0  0  0  0  0  0
    3.8427    0.9843    4.7985 C   0  0  1  0  0  0  0  0  0  0  0  0
    5.1605   -0.1647    4.1656 S   0  0  0  0  0  0  0  0  0  0  0  0
    6.5109    0.4518    4.5755 O   0  0  0  0  0  0  0  0  0  0  0  0
    4.7471   -1.4656    5.3387 C   0  0  0  0  0  0  0  0  0  0  0  0
    4.9044   -1.2889    6.6616 C   0  0  0  0  0  0  0  0  0  0  0  0
    5.4843   -0.1321    7.4337 C   0  0  2  0  0  0  0  0  0  0  0  0
    4.7388    0.3784    8.6713 C   0  0  1  0  0  0  0  0  0  0  0  0
    5.6909    1.5403    8.4165 C   0  0  2  0  0  0  0  0  0  0  0  0
    4.7931    2.4521    9.0147 O   0  0  0  0  0  0  0  0  0  0  0  0
    3.7165    1.5369    8.9300 C   0  0  1  0  0  0  0  0  0  0  0  0
    3.1591    1.3061   10.1218 F   0  0  0  0  0  0  0  0  0  0  0  0
    5.5528    1.2202    6.9592 N   0  0  2  0  0  0  0  0  0  0  0  0
    1.6438    3.1025    8.6758 C   0  0  0  0  0  0  0  0  0  0  0  0
    1.9560    4.0655    9.3543 O   0  0  0  0  0  0  0  0  0  0  0  0
    0.1288    2.7003    8.4571 C   0  0  0  0  0  0  0  0  0  0  0  0
   -0.2541    2.0150    7.0342 C   0  0  2  0  0  0  0  0  0  0  0  0
   -1.4811    2.5604    6.5310 O   0  0  0  0  0  0  0  0  0  0  0  0
   -2.6303    2.4876    7.3754 C   0  0  0  0  0  0  0  0  0  0  0  0
    0.9609    2.2774    6.0754 C   0  0  2  0  0  0  0  0  0  0  0  0
    0.7602    3.8773    5.9630 C   0  0  0  0  0  0  0  0  0  0  0  0
    3.2447   -2.9082    1.5259 H   0  0  0  0  0  0  0  0  0  0  0  0
    2.9917   -1.4403    0.6218 H   0  0  0  0  0  0  0  0  0  0  0  0
    1.6253   -2.2298    1.4266 H   0  0  0  0  0  0  0  0  0  0  0  0
    1.1739   -0.3656    2.7184 H   0  0  0  0  0  0  0  0  0  0  0  0
    3.4768    1.3306    1.8761 H   0  0  0  0  0  0  0  0  0  0  0  0
    2.2770    0.5827    0.8799 H   0  0  0  0  0  0  0  0  0  0  0  0
    1.6982    2.9406    1.3270 H   0  0  0  0  0  0  0  0  0  0  0  0
    0.4447    1.8274    1.8513 H   0  0  0  0  0  0  0  0  0  0  0  0
    0.2515    1.3766    4.2364 H   0  0  0  0  0  0  0  0  0  0  0  0
    1.9907   -1.7224    4.7989 H   0  0  0  0  0  0  0  0  0  0  0  0
   -0.2980   -0.6362    3.9444 H   0  0  0  0  0  0  0  0  0  0  0  0
   -0.2676   -1.9984    4.9757 H   0  0  0  0  0  0  0  0  0  0  0  0
   -0.9954    0.2285    8.0373 H   0  0  0  0  0  0  0  0  0  0  0  0
    1.0216    0.5739    9.4409 H   0  0  0  0  0  0  0  0  0  0  0  0
    2.6482   -1.2368    7.0933 H   0  0  0  0  0  0  0  0  0  0  0  0
    0.2908   -4.3416    8.6290 H   0  0  0  0  0  0  0  0  0  0  0  0
    2.0877   -6.0105    8.2716 H   0  0  0  0  0  0  0  0  0  0  0  0
    1.4835   -6.3508    6.6506 H   0  0  0  0  0  0  0  0  0  0  0  0
    0.5139   -6.7454    8.0573 H   0  0  0  0  0  0  0  0  0  0  0  0
   -1.3038   -3.6960    6.8566 H   0  0  0  0  0  0  0  0  0  0  0  0
   -1.4425   -5.4175    7.1650 H   0  0  0  0  0  0  0  0  0  0  0  0
   -0.5740   -4.8533    5.7410 H   0  0  0  0  0  0  0  0  0  0  0  0
    2.6515    0.8091    6.7253 H   0  0  0  0  0  0  0  0  0  0  0  0
    3.1708    3.4631    6.0540 H   0  0  0  0  0  0  0  0  0  0  0  0
    4.2813    3.6966    7.2407 H   0  0  0  0  0  0  0  0  0  0  0  0
    5.1611    2.5231    5.5180 H   0  0  0  0  0  0  0  0  0  0  0  0
    3.9597    1.7443    4.0250 H   0  0  0  0  0  0  0  0  0  0  0  0
    4.3343   -2.3753    4.9242 H   0  0  0  0  0  0  0  0  0  0  0  0
    4.6298   -2.1315    7.2974 H   0  0  0  0  0  0  0  0  0  0  0  0
    6.4789   -0.4928    7.7142 H   0  0  0  0  0  0  0  0  0  0  0  0
    5.0194   -0.1496    9.5963 H   0  0  0  0  0  0  0  0  0  0  0  0
    6.6822    1.4413    8.8717 H   0  0  0  0  0  0  0  0  0  0  0  0
   -0.1883    2.0659    9.2882 H   0  0  0  0  0  0  0  0  0  0  0  0
   -0.4355    3.6198    8.5939 H   0  0  0  0  0  0  0  0  0  0  0  0
   -3.4914    2.8712    6.8304 H   0  0  0  0  0  0  0  0  0  0  0  0
   -2.5300    3.0833    8.2793 H   0  0  0  0  0  0  0  0  0  0  0  0
   -2.8658    1.4645    7.6648 H   0  0  0  0  0  0  0  0  0  0  0  0
    0.3114    4.4080    6.8006 H   0  0  0  0  0  0  0  0  0  0  0  0
    0.0325    4.0869    5.1747 H   0  0  0  0  0  0  0  0  0  0  0  0
    1.5973    4.5222    5.7368 H   0  0  0  0  0  0  0  0  0  0  0  0
    6.4372    1.3106    6.4771 H   0  0  0  0  0  0  0  0  0  0  0  0
  1  2  1  0
  1 48  1  0
  1 49  1  0
  1 50  1  0
  2  3  1  0
  9  3  1  6
  3  4  1  0
  3 51  1  6
  4  5  1  0
  4 52  1  0
  4 53  1  0
  5  6  1  0
  5 54  1  0
  5 55  1  0
  6  7  2  0
  6  8  1  0
  8 46  1  0
  8  9  1  0
  8 56  1  6
  9 28  1  0
  9 10  1  0
 10 17  1  0
 10 11  1  0
 10 57  1  6
 11 12  1  0
 11 58  1  0
 11 59  1  0
 12 13  2  0
 12 14  1  0
 14 43  1  0
 14 15  1  0
 14 60  1  1
 15 16  1  1
 15 17  1  0
 15 24  1  0
 16 61  1  0
 17 18  1  0
 17 62  1  1
 18 19  1  0
 19 20  2  0
 19 21  1  0
 21 22  1  0
 21 23  1  0
 21 63  1  0
 22 64  1  0
 22 65  1  0
 22 66  1  0
 23 67  1  0
 23 68  1  0
 23 69  1  0
 24 46  1  0
 24 25  1  0
 24 70  1  6
 25 37  1  0
 25 26  1  0
 25 40  1  1
 26 27  1  0
 26 71  1  0
 26 72  1  0
 27 39  1  0
 27 28  1  0
 27 73  1  6
 28 29  1  0
 28 74  1  6
 29 30  2  0
 29 31  1  1
 31 32  2  0
 31 75  1  0
 32 33  1  0
 32 76  1  0
 33 39  1  0
 33 34  1  0
 33 77  1  1
 34 37  1  0
 34 35  1  0
 34 78  1  1
 35 36  1  0
 35 39  1  0
 35 79  1  1
 36 37  1  0
 37 38  1  1
 39 88  1  6
 40 41  2  0
 40 42  1  0
 42 43  1  0
 42 80  1  0
 42 81  1  0
 43 44  1  6
 43 46  1  0
 44 45  1  0
 45 82  1  0
 45 83  1  0
 45 84  1  0
 46 47  1  6
 47 85  1  0
 47 86  1  0
 47 87  1  0
M  CHG  1  39   1
M  END
>  <i_m_ct_stereo_status>  (29) 
1

>  <s_m_source_file>  (29) 
/var/tmp/pbs.5075288.sched01/tmpx_bw1ala/724_f_g42c.sdf

>  <i_m_source_file_index>  (29) 
33

>  <i_lp_mmshare_version>  (29) 
48012

>  <i_f3d_flags>  (29) 
0

>  <s_epik_input>  (29) 
W0NIM11PW0NAQEhdMVtDSDJdW0NIMl1DKD1PKVtDQEBIXShbQ0BdMTIzKVtDQF00KFtDSDNdKVtDQEhdNVtDQF02KFtDQEBdNyhGKVtDQEhdOFtDQEBIXTlOKFtDQEhdOE83KVtDQEhdKFtDSDJdNilbQ0BIXTNbUytdKFtPLV0pW0NIXT1bQ0hdOSlDKD1PKVtDSDJdW0NAXTQoT1tDSDNdKVtDQEBIXTFbQ0BAXTUoW09IXSlbQ0BIXShbQ0BIXTJbQ0gyXUMxPU8pT0MoPU8pW0NIXShbQ0gzXSlbQ0gzXQ==

>  <s_epik_cmdline>  (29) 
J2VwaWtfcHl0aG9uJywgJy1waHQnLCAnMi4wJywgJy1waCcsICc3LjAnLCAnLXRuJywgJzgnLCAnLW1hJywgJzIwMCcsICctaW1hZScsICc8aW5maWxlLm1hZT4nLCAnLW9tYWUnLCAnPG91dGZpbGUubWFlPic=

>  <r_lp_tautomer_probability>  (29) 
0.99995

>  <r_epik_Ionization_Penalty>  (29) 
0.872599

>  <r_epik_Ionization_Penalty_Charging>  (29) 
0.872571

>  <r_epik_Ionization_Penalty_Neutral>  (29) 
2.85175e-05

>  <r_epik_State_Penalty>  (29) 
0.910045

>  <r_epik_Charging_Adjusted_Penalty>  (29) 
1.78262

>  <i_epik_Tot_Q>  (29) 
1

>  <i_epik_Tot_abs_Q>  (29) 
3

>  <s_epik_Chemistry_Notes>  (29) 
This compound has an ester and may undergo hydrolysis at high or low pH. This compound contains an acetal/aminal-like group ( X-CH(R)-Y where X, Y are N, S, or O) that may be acid/base labile, releasing an aldehyde.

>  <s_lp_Force_Field>  (29) 
OPLS3e

>  <r_lp_Energy>  (29) 
260.499

>  <b_lp_Chiralities_Consistent>  (29) 
1

>  <s_lp_Variant>  (29) 
22:0-2

>  <s_i_glide_gridfile>  (29) 
pfpi4k_grid

>  <i_i_glide_lignum>  (29) 
33

>  <i_i_glide_rotatable_bonds>  (29) 
6

>  <r_i_docking_score>  (29) 
-2.23241

>  <r_i_glide_ligand_efficiency>  (29) 
-0.0474981

>  <r_i_glide_ligand_efficiency_sa>  (29) 
-0.171412

>  <r_i_glide_ligand_efficiency_ln>  (29) 
-0.460277

>  <r_i_glide_gscore>  (29) 
-2.23241

>  <r_i_glide_lipo>  (29) 
-0.133898

>  <r_i_glide_hbond>  (29) 
-0.110634

>  <r_i_glide_metal>  (29) 
-0

>  <r_i_glide_rewards>  (29) 
-0.130761

>  <r_i_glide_evdw>  (29) 
-26.5955

>  <r_i_glide_ecoul>  (29) 
-3.53533

>  <r_i_glide_erotb>  (29) 
0.0937316

>  <r_i_glide_esite>  (29) 
-0.0907749

>  <r_i_glide_emodel>  (29) 
-35.7591

>  <r_i_glide_energy>  (29) 
-30.1308

>  <r_i_glide_einternal>  (29) 
0.0951069

>  <r_i_glide_intrahb_reward>  (29) 
-0

>  <i_i_glide_confnum>  (29) 
2

>  <i_i_glide_posenum>  (29) 
4

>  <r_i_glide_eff_state_penalty>  (29) 
0

>  <ligand_id>  (29) 
22

>  <original_smiles>  (29) 
COC1CCC(=O)C2C13C1CC(=O)C4C(O)(C1OC(=O)C(C)C)C1C5(CC6C3[S+]([O-])C=CC3C7C(OC75F)N36)C(=O)CC4(OC)C21C

>  <smiles>  (29) 
[H]OC12C([H])(OC(=O)C([H])(C([H])([H])[H])C([H])([H])[H])C3([H])C([H])([H])C(=O)C1([H])C1(OC([H])([H])[H])C([H])([H])C(=O)C45C([H])([H])C6([H])C([H])(S(=O)C([H])=C([H])C7([H])C8([H])C4(F)OC8([H])[N+]76[H])C34C([H])(OC([H])([H])[H])C([H])([H])C([H])([H])C(=O)C4([H])C1(C([H])([H])[H])C25[H]

$$$$
22:1:2
     RDKit          3D

 88 97  0  0  1  0  0  0  0  0999 V2000
    2.7836   -2.7376    2.0314 C   0  0  0  0  0  0  0  0  0  0  0  0
    3.4739   -3.9397    2.3756 O   0  0  0  0  0  0  0  0  0  0  0  0
    3.8466   -4.1021    3.7468 C   0  0  2  0  0  0  0  0  0  0  0  0
    4.9225   -3.0878    4.1529 C   0  0  0  0  0  0  0  0  0  0  0  0
    5.1698   -3.1585    5.6546 C   0  0  0  0  0  0  0  0  0  0  0  0
    5.5025   -4.5923    6.0142 C   0  0  0  0  0  0  0  0  0  0  0  0
    6.6792   -4.8496    6.2812 O   0  0  0  0  0  0  0  0  0  0  0  0
    4.3929   -5.6570    5.7383 C   0  0  1  0  0  0  0  0  0  0  0  0
    4.1260   -5.6392    4.1525 C   0  0  1  0  0  0  0  0  0  0  0  0
    2.6232   -6.2546    3.9319 C   0  0  2  0  0  0  0  0  0  0  0  0
    1.5706   -5.7716    4.9929 C   0  0  0  0  0  0  0  0  0  0  0  0
    1.4087   -6.6641    6.2305 C   0  0  0  0  0  0  0  0  0  0  0  0
    0.6169   -6.3025    7.1084 O   0  0  0  0  0  0  0  0  0  0  0  0
    2.1702   -8.0055    6.3740 C   0  0  1  0  0  0  0  0  0  0  0  0
    2.8107   -8.5005    5.0779 C   0  0  1  0  0  0  0  0  0  0  0  0
    2.5694   -9.8869    4.9276 O   0  0  0  0  0  0  0  0  0  0  0  0
    2.3120   -7.7817    3.8018 C   0  0  1  0  0  0  0  0  0  0  0  0
    0.9129   -8.0181    3.6312 O   0  0  0  0  0  0  0  0  0  0  0  0
    0.2777   -7.7755    2.4708 C   0  0  0  0  0  0  0  0  0  0  0  0
    0.7700   -7.2807    1.4538 O   0  0  0  0  0  0  0  0  0  0  0  0
   -1.2077   -8.1107    2.5259 C   0  0  0  0  0  0  0  0  0  0  0  0
   -1.9056   -7.3905    3.6892 C   0  0  0  0  0  0  0  0  0  0  0  0
   -1.4513   -9.6087    2.5699 C   0  0  0  0  0  0  0  0  0  0  0  0
    4.3227   -8.1912    5.2703 C   0  0  2  0  0  0  0  0  0  0  0  0
    5.4352   -9.1861    5.2578 C   0  0  2  0  0  0  0  0  0  0  0  0
    6.6344   -8.2182    4.8826 C   0  0  0  0  0  0  0  0  0  0  0  0
    6.4594   -7.5482    3.4771 C   0  0  2  0  0  0  0  0  0  0  0  0
    5.5085   -6.1870    3.3195 C   0  0  1  0  0  0  0  0  0  0  0  0
    5.5508   -5.7029    1.5161 S   0  0  0  0  0  0  0  0  0  0  0  0
    6.8203   -6.3020    0.9212 O   0  0  0  0  0  0  0  0  0  0  0  0
    4.1671   -6.7712    1.0901 C   0  0  0  0  0  0  0  0  0  0  0  0
    4.2632   -8.1010    1.1985 C   0  0  0  0  0  0  0  0  0  0  0  0
    5.4320   -8.9811    1.5711 C   0  0  2  0  0  0  0  0  0  0  0  0
    5.2104  -10.1114    2.5858 C   0  0  1  0  0  0  0  0  0  0  0  0
    6.7226  -10.0216    2.5794 C   0  0  2  0  0  0  0  0  0  0  0  0
    6.8081  -10.5146    3.9128 O   0  0  0  0  0  0  0  0  0  0  0  0
    5.4245  -10.2525    4.1182 C   0  0  1  0  0  0  0  0  0  0  0  0
    4.7570  -11.3642    4.4533 F   0  0  0  0  0  0  0  0  0  0  0  0
    6.5469   -8.5502    2.3728 N   0  0  2  0  0  0  0  0  0  0  0  0
    5.2863   -9.7909    6.6737 C   0  0  0  0  0  0  0  0  0  0  0  0
    6.1685  -10.5328    7.1365 O   0  0  0  0  0  0  0  0  0  0  0  0
    4.0368   -9.3702    7.5466 C   0  0  0  0  0  0  0  0  0  0  0  0
    3.4211   -7.8917    7.2688 C   0  0  2  0  0  0  0  0  0  0  0  0
    3.1090   -7.2444    8.5075 O   0  0  0  0  0  0  0  0  0  0  0  0
    2.2224   -7.9294    9.3937 C   0  0  0  0  0  0  0  0  0  0  0  0
    4.5091   -7.1078    6.4426 C   0  0  2  0  0  0  0  0  0  0  0  0
    5.6029   -7.0108    7.6270 C   0  0  0  0  0  0  0  0  0  0  0  0
    2.4507   -2.7909    0.9945 H   0  0  0  0  0  0  0  0  0  0  0  0
    3.4252   -1.8600    2.0992 H   0  0  0  0  0  0  0  0  0  0  0  0
    1.8971   -2.5689    2.6452 H   0  0  0  0  0  0  0  0  0  0  0  0
    2.9877   -3.7404    4.3022 H   0  0  0  0  0  0  0  0  0  0  0  0
    5.8114   -3.2487    3.5601 H   0  0  0  0  0  0  0  0  0  0  0  0
    4.6193   -2.0733    3.9118 H   0  0  0  0  0  0  0  0  0  0  0  0
    5.9765   -2.4870    5.9404 H   0  0  0  0  0  0  0  0  0  0  0  0
    4.2775   -2.8431    6.1976 H   0  0  0  0  0  0  0  0  0  0  0  0
    3.5634   -5.1716    6.2449 H   0  0  0  0  0  0  0  0  0  0  0  0
    2.2850   -5.8474    2.9862 H   0  0  0  0  0  0  0  0  0  0  0  0
    1.7115   -4.7547    5.3411 H   0  0  0  0  0  0  0  0  0  0  0  0
    0.5939   -5.7393    4.5150 H   0  0  0  0  0  0  0  0  0  0  0  0
    1.4717   -8.7470    6.7614 H   0  0  0  0  0  0  0  0  0  0  0  0
    2.9025  -10.2126    4.1216 H   0  0  0  0  0  0  0  0  0  0  0  0
    2.8005   -8.2322    2.9570 H   0  0  0  0  0  0  0  0  0  0  0  0
   -1.6570   -7.7754    1.6038 H   0  0  0  0  0  0  0  0  0  0  0  0
   -1.7750   -6.3139    3.6367 H   0  0  0  0  0  0  0  0  0  0  0  0
   -1.5268   -7.7193    4.6560 H   0  0  0  0  0  0  0  0  0  0  0  0
   -2.9742   -7.5987    3.6793 H   0  0  0  0  0  0  0  0  0  0  0  0
   -1.0743  -10.1187    1.6828 H   0  0  0  0  0  0  0  0  0  0  0  0
   -2.5263   -9.7619    2.6215 H   0  0  0  0  0  0  0  0  0  0  0  0
   -0.9761  -10.0630    3.4357 H   0  0  0  0  0  0  0  0  0  0  0  0
    4.4101   -7.9336    4.2678 H   0  0  0  0  0  0  0  0  0  0  0  0
    6.8274   -7.4073    5.5378 H   0  0  0  0  0  0  0  0  0  0  0  0
    7.5953   -8.7300    4.9558 H   0  0  0  0  0  0  0  0  0  0  0  0
    7.4420   -7.1084    3.3774 H   0  0  0  0  0  0  0  0  0  0  0  0
    6.2402   -5.4647    3.6585 H   0  0  0  0  0  0  0  0  0  0  0  0
    3.2569   -6.2774    0.7694 H   0  0  0  0  0  0  0  0  0  0  0  0
    3.4022   -8.6816    0.9203 H   0  0  0  0  0  0  0  0  0  0  0  0
    5.7702   -9.3968    0.6147 H   0  0  0  0  0  0  0  0  0  0  0  0
    4.9256  -11.0523    2.1368 H   0  0  0  0  0  0  0  0  0  0  0  0
    7.2054  -10.6197    1.8133 H   0  0  0  0  0  0  0  0  0  0  0  0
    3.2676  -10.1314    7.4312 H   0  0  0  0  0  0  0  0  0  0  0  0
    4.3615   -9.4563    8.5776 H   0  0  0  0  0  0  0  0  0  0  0  0
    2.0206   -7.2908   10.2530 H   0  0  0  0  0  0  0  0  0  0  0  0
    2.6412   -8.8590    9.7782 H   0  0  0  0  0  0  0  0  0  0  0  0
    1.2610   -8.1545    8.9340 H   0  0  0  0  0  0  0  0  0  0  0  0
    5.6297   -7.7970    8.3761 H   0  0  0  0  0  0  0  0  0  0  0  0
    5.3783   -6.1436    8.2489 H   0  0  0  0  0  0  0  0  0  0  0  0
    6.6561   -6.9124    7.3921 H   0  0  0  0  0  0  0  0  0  0  0  0
    7.2544   -8.1990    1.7081 H   0  0  0  0  0  0  0  0  0  0  0  0
  1  2  1  0
  1 48  1  0
  1 49  1  0
  1 50  1  0
  2  3  1  0
  9  3  1  6
  3  4  1  0
  3 51  1  1
  4  5  1  0
  4 52  1  0
  4 53  1  0
  5  6  1  0
  5 54  1  0
  5 55  1  0
  6  7  2  0
  6  8  1  0
  8 46  1  0
  8  9  1  0
  8 56  1  1
  9 28  1  0
  9 10  1  0
 10 17  1  0
 10 11  1  0
 10 57  1  6
 11 12  1  0
 11 58  1  0
 11 59  1  0
 12 13  2  0
 12 14  1  0
 14 43  1  0
 14 15  1  0
 14 60  1  1
 15 16  1  6
 15 17  1  0
 15 24  1  0
 16 61  1  0
 17 18  1  0
 17 62  1  6
 18 19  1  0
 19 20  2  0
 19 21  1  0
 21 22  1  0
 21 23  1  0
 21 63  1  0
 22 64  1  0
 22 65  1  0
 22 66  1  0
 23 67  1  0
 23 68  1  0
 23 69  1  0
 24 46  1  0
 24 25  1  0
 24 70  1  6
 25 37  1  0
 25 26  1  0
 25 40  1  1
 26 27  1  0
 26 71  1  0
 26 72  1  0
 27 39  1  0
 27 28  1  0
 27 73  1  6
 28 29  1  0
 28 74  1  1
 29 30  2  0
 29 31  1  6
 31 32  2  0
 31 75  1  0
 32 33  1  0
 32 76  1  0
 33 39  1  0
 33 34  1  0
 33 77  1  6
 34 37  1  0
 34 35  1  0
 34 78  1  6
 35 36  1  0
 35 39  1  0
 35 79  1  6
 36 37  1  0
 37 38  1  1
 39 88  1  6
 40 41  2  0
 40 42  1  0
 42 43  1  0
 42 80  1  0
 42 81  1  0
 43 44  1  1
 43 46  1  0
 44 45  1  0
 45 82  1  0
 45 83  1  0
 45 84  1  0
 46 47  1  1
 47 85  1  0
 47 86  1  0
 47 87  1  0
M  CHG  1  39   1
M  END
>  <i_m_ct_stereo_status>  (30) 
1

>  <s_m_source_file>  (30) 
/var/tmp/pbs.5075288.sched01/tmpx_bw1ala/724_f_g42c.sdf

>  <i_m_source_file_index>  (30) 
33

>  <i_lp_mmshare_version>  (30) 
48012

>  <i_f3d_flags>  (30) 
0

>  <s_epik_input>  (30) 
W0NIM11PW0NAQEhdMVtDSDJdW0NIMl1DKD1PKVtDQEBIXShbQ0BdMTIzKVtDQF00KFtDSDNdKVtDQEhdNVtDQF02KFtDQEBdNyhGKVtDQEhdOFtDQEBIXTlOKFtDQEhdOE83KVtDQEhdKFtDSDJdNilbQ0BIXTNbUytdKFtPLV0pW0NIXT1bQ0hdOSlDKD1PKVtDSDJdW0NAXTQoT1tDSDNdKVtDQEBIXTFbQ0BAXTUoW09IXSlbQ0BIXShbQ0BIXTJbQ0gyXUMxPU8pT0MoPU8pW0NIXShbQ0gzXSlbQ0gzXQ==

>  <s_epik_cmdline>  (30) 
J2VwaWtfcHl0aG9uJywgJy1waHQnLCAnMi4wJywgJy1waCcsICc3LjAnLCAnLXRuJywgJzgnLCAnLW1hJywgJzIwMCcsICctaW1hZScsICc8aW5maWxlLm1hZT4nLCAnLW9tYWUnLCAnPG91dGZpbGUubWFlPic=

>  <r_lp_tautomer_probability>  (30) 
0.99995

>  <r_epik_Ionization_Penalty>  (30) 
0.872599

>  <r_epik_Ionization_Penalty_Charging>  (30) 
0.872571

>  <r_epik_Ionization_Penalty_Neutral>  (30) 
2.85175e-05

>  <r_epik_State_Penalty>  (30) 
0.910045

>  <r_epik_Charging_Adjusted_Penalty>  (30) 
1.78262

>  <i_epik_Tot_Q>  (30) 
1

>  <i_epik_Tot_abs_Q>  (30) 
3

>  <s_epik_Chemistry_Notes>  (30) 
This compound has an ester and may undergo hydrolysis at high or low pH. This compound contains an acetal/aminal-like group ( X-CH(R)-Y where X, Y are N, S, or O) that may be acid/base labile, releasing an aldehyde.

>  <s_lp_Force_Field>  (30) 
OPLS3e

>  <r_lp_Energy>  (30) 
260.499

>  <b_lp_Chiralities_Consistent>  (30) 
1

>  <s_lp_Variant>  (30) 
22:0-2

>  <s_i_glide_gridfile>  (30) 
pfpi4k_grid

>  <i_i_glide_lignum>  (30) 
33

>  <i_i_glide_rotatable_bonds>  (30) 
6

>  <r_i_docking_score>  (30) 
-2.14377

>  <r_i_glide_ligand_efficiency>  (30) 
-0.0456122

>  <r_i_glide_ligand_efficiency_sa>  (30) 
-0.164607

>  <r_i_glide_ligand_efficiency_ln>  (30) 
-0.442002

>  <r_i_glide_gscore>  (30) 
-2.14377

>  <r_i_glide_lipo>  (30) 
-0.285805

>  <r_i_glide_hbond>  (30) 
0

>  <r_i_glide_metal>  (30) 
-0

>  <r_i_glide_rewards>  (30) 
-0.0874063

>  <r_i_glide_evdw>  (30) 
-28.6822

>  <r_i_glide_ecoul>  (30) 
-2.42904

>  <r_i_glide_erotb>  (30) 
0.0937316

>  <r_i_glide_esite>  (30) 
-0.0658284

>  <r_i_glide_emodel>  (30) 
-36.0946

>  <r_i_glide_energy>  (30) 
-31.1112

>  <r_i_glide_einternal>  (30) 
0.723122

>  <r_i_glide_intrahb_reward>  (30) 
-0

>  <i_i_glide_confnum>  (30) 
1

>  <i_i_glide_posenum>  (30) 
22

>  <r_i_glide_eff_state_penalty>  (30) 
0

>  <ligand_id>  (30) 
22

>  <original_smiles>  (30) 
COC1CCC(=O)C2C13C1CC(=O)C4C(O)(C1OC(=O)C(C)C)C1C5(CC6C3[S+]([O-])C=CC3C7C(OC75F)N36)C(=O)CC4(OC)C21C

>  <smiles>  (30) 
[H]OC12C([H])(OC(=O)C([H])(C([H])([H])[H])C([H])([H])[H])C3([H])C([H])([H])C(=O)C1([H])C1(OC([H])([H])[H])C([H])([H])C(=O)C45C([H])([H])C6([H])C([H])(S(=O)C([H])=C([H])C7([H])C8([H])C4(F)OC8([H])[N+]76[H])C34C([H])(OC([H])([H])[H])C([H])([H])C([H])([H])C(=O)C4([H])C1(C([H])([H])[H])C25[H]

$$$$
29:0:0
     RDKit          3D

115125  0  0  1  0  0  0  0  0999 V2000
   -0.5560   -8.0441    1.6831 C   0  0  0  0  0  0  0  0  0  0  0  0
   -0.7280   -8.0340    3.0098 C   0  0  0  0  0  0  0  0  0  0  0  0
   -2.1148   -8.3280    3.5611 C   0  0  0  0  0  0  0  0  0  0  0  0
    0.4053   -7.7519    3.8716 C   0  0  0  0  0  0  0  0  0  0  0  0
    1.6657   -8.2912    3.7075 C   0  0  0  0  0  0  0  0  0  0  0  0
    2.0691   -9.6621    3.1439 C   0  0  0  0  0  0  0  0  0  0  0  0
    0.9371  -10.6810    2.8768 C   0  0  0  0  0  0  0  0  0  0  0  0
    3.0236   -9.6831    1.9526 C   0  0  0  0  0  0  0  0  0  0  0  0
    2.6778   -9.6721    4.5417 C   0  0  2  0  0  0  0  0  0  0  0  0
    3.7989  -10.5437    4.6985 O   0  0  0  0  0  0  0  0  0  0  0  0
    3.6214  -11.9349    4.4530 C   0  0  0  0  0  0  0  0  0  0  0  0
    1.6533   -9.8924    5.7310 C   0  0  0  0  0  0  0  0  0  0  0  0
    2.0668   -8.7743    6.7020 C   0  0  1  0  0  0  0  0  0  0  0  0
    2.5928   -9.4434    7.8267 O   0  0  0  0  0  0  0  0  0  0  0  0
    3.0601   -8.3161    5.9076 O   0  0  0  0  0  0  0  0  0  0  0  0
    2.9953   -8.1039    4.5157 C   0  0  2  0  0  0  0  0  0  0  0  0
    4.3145   -7.0026    4.0755 C   0  0  2  0  0  0  0  0  0  0  0  0
    5.4544   -7.9942    4.5370 C   0  0  1  0  0  0  0  0  0  0  0  0
    6.7143   -7.8004    3.9052 O   0  0  0  0  0  0  0  0  0  0  0  0
    5.5927   -8.3386    6.1582 C   0  0  1  0  0  0  0  0  0  0  0  0
    6.9717   -8.6771    6.4431 O   0  0  0  0  0  0  0  0  0  0  0  0
    7.5231   -9.9024    6.2673 C   0  0  0  0  0  0  0  0  0  0  0  0
    6.6294  -10.9941    5.6843 C   0  0  0  0  0  0  0  0  0  0  0  0
    8.7011  -10.1434    6.5546 O   0  0  0  0  0  0  0  0  0  0  0  0
    4.8797   -7.6545    7.4601 C   0  0  0  0  0  0  0  0  0  0  0  0
    5.1688   -8.2590    8.6349 C   0  0  0  0  0  0  0  0  0  0  0  0
    3.9799   -6.3335    7.5723 C   0  0  1  0  0  0  0  0  0  0  0  0
    5.0364   -5.2667    7.3041 C   0  0  0  0  0  0  0  0  0  0  0  0
    5.8522   -5.5613    6.0450 C   0  0  0  0  0  0  0  0  0  0  0  0
    7.2017   -5.6491    6.1803 C   0  0  0  0  0  0  0  0  0  0  0  0
    5.0893   -5.5391    4.6774 C   0  0  1  0  0  0  0  0  0  0  0  0
    6.1385   -5.2679    3.7690 O   0  0  0  0  0  0  0  0  0  0  0  0
    4.5594   -4.0405    4.7718 C   0  0  0  0  0  0  0  0  0  0  0  0
    4.1180   -3.0621    3.7010 C   0  0  1  0  0  0  0  0  0  0  0  0
    4.2875   -3.0816    2.2075 C   0  0  2  0  0  0  0  0  0  0  0  0
    2.8332   -2.6055    2.1354 C   0  0  0  0  0  0  0  0  0  0  0  0
    2.6691   -2.8825    3.5861 N   0  0  1  0  0  0  0  0  0  0  0  0
    1.7702   -4.1552    3.9525 C   0  0  2  0  0  0  0  0  0  0  0  0
    1.2083   -4.2346    5.3246 O   0  0  0  0  0  0  0  0  0  0  0  0
    1.7608   -4.6394    6.7136 C   0  0  1  0  0  0  0  0  0  0  0  0
    2.1193   -3.4194    7.5547 C   0  0  1  0  0  0  0  0  0  0  0  0
    2.0731   -2.2322    6.7593 O   0  0  0  0  0  0  0  0  0  0  0  0
    0.8169   -4.1034    7.8244 C   0  0  1  0  0  0  0  0  0  0  0  0
   -0.3058   -3.3277    7.3353 O   0  0  0  0  0  0  0  0  0  0  0  0
    2.3960   -6.1126    7.0173 C   0  0  1  0  0  0  0  0  0  0  0  0
    2.7082   -5.9308    5.7988 O   0  0  0  0  0  0  0  0  0  0  0  0
    1.3321   -7.3950    7.1249 C   0  0  2  0  0  0  0  0  0  0  0  0
    0.7962   -7.5515    8.5893 C   0  0  0  0  0  0  0  0  0  0  0  0
    1.1657   -6.8068    9.6302 C   0  0  0  0  0  0  0  0  0  0  0  0
   -0.1978   -8.6766    8.8607 C   0  0  0  0  0  0  0  0  0  0  0  0
    0.0903   -7.2029    6.1808 C   0  0  0  0  0  0  0  0  0  0  0  0
    0.2781   -6.7831    4.8230 O   0  0  0  0  0  0  0  0  0  0  0  0
    2.1130   -5.5868    2.7590 S   0  0  0  0  0  0  0  0  0  0  0  0
    1.3749   -5.5286    1.4322 O   0  0  0  0  0  0  0  0  0  0  0  0
    3.8103   -6.4652    2.6415 C   0  0  1  0  0  0  0  0  0  0  0  0
    4.6679   -5.7521    1.5840 C   0  0  1  0  0  0  0  0  0  0  0  0
    5.6597   -6.6906    0.9475 C   0  0  0  0  0  0  0  0  0  0  0  0
    3.9410   -5.0023    0.6169 O   0  0  0  0  0  0  0  0  0  0  0  0
    4.8767   -4.2437    1.4042 C   0  0  1  0  0  0  0  0  0  0  0  0
   -1.3838   -8.2604    1.0182 H   0  0  0  0  0  0  0  0  0  0  0  0
    0.4052   -7.8373    1.2294 H   0  0  0  0  0  0  0  0  0  0  0  0
   -2.1164   -8.4558    4.6370 H   0  0  0  0  0  0  0  0  0  0  0  0
   -2.5009   -9.2327    3.1124 H   0  0  0  0  0  0  0  0  0  0  0  0
   -2.7745   -7.5081    3.3212 H   0  0  0  0  0  0  0  0  0  0  0  0
    1.2885  -11.7015    2.9672 H   0  0  0  0  0  0  0  0  0  0  0  0
    0.5306  -10.5933    1.8662 H   0  0  0  0  0  0  0  0  0  0  0  0
    0.0970  -10.6071    3.5594 H   0  0  0  0  0  0  0  0  0  0  0  0
    3.2047  -10.7090    1.6741 H   0  0  0  0  0  0  0  0  0  0  0  0
    4.0110   -9.2983    2.1910 H   0  0  0  0  0  0  0  0  0  0  0  0
    2.6058   -9.1679    1.0771 H   0  0  0  0  0  0  0  0  0  0  0  0
    4.5205  -12.4584    4.7869 H   0  0  0  0  0  0  0  0  0  0  0  0
    3.5194  -12.1684    3.3848 H   0  0  0  0  0  0  0  0  0  0  0  0
    2.7845  -12.3856    4.9927 H   0  0  0  0  0  0  0  0  0  0  0  0
    0.5855   -9.8239    5.4977 H   0  0  0  0  0  0  0  0  0  0  0  0
    1.7973  -10.8833    6.1428 H   0  0  0  0  0  0  0  0  0  0  0  0
    2.4116  -10.3737    7.7427 H   0  0  0  0  0  0  0  0  0  0  0  0
    5.2226   -8.9217    4.0416 H   0  0  0  0  0  0  0  0  0  0  0  0
    6.6216   -8.0177    2.9869 H   0  0  0  0  0  0  0  0  0  0  0  0
    5.0537   -9.2814    6.2530 H   0  0  0  0  0  0  0  0  0  0  0  0
    6.1941  -10.6407    4.7512 H   0  0  0  0  0  0  0  0  0  0  0  0
    5.8411  -11.2598    6.3861 H   0  0  0  0  0  0  0  0  0  0  0  0
    7.1804  -11.9047    5.4374 H   0  0  0  0  0  0  0  0  0  0  0  0
    5.7893   -9.1604    8.6780 H   0  0  0  0  0  0  0  0  0  0  0  0
    4.7672   -7.9181    9.5801 H   0  0  0  0  0  0  0  0  0  0  0  0
    3.7799   -6.2501    8.6263 H   0  0  0  0  0  0  0  0  0  0  0  0
    4.7095   -4.2288    7.3633 H   0  0  0  0  0  0  0  0  0  0  0  0
    5.7255   -5.3433    8.1422 H   0  0  0  0  0  0  0  0  0  0  0  0
    7.6455   -5.6028    7.1635 H   0  0  0  0  0  0  0  0  0  0  0  0
    7.8842   -5.7920    5.3504 H   0  0  0  0  0  0  0  0  0  0  0  0
    6.6706   -6.0621    3.7419 H   0  0  0  0  0  0  0  0  0  0  0  0
    3.8495   -3.8935    5.5663 H   0  0  0  0  0  0  0  0  0  0  0  0
    5.4051   -3.4926    5.1928 H   0  0  0  0  0  0  0  0  0  0  0  0
    4.4488   -2.0704    4.0022 H   0  0  0  0  0  0  0  0  0  0  0  0
    4.8798   -2.1974    1.9999 H   0  0  0  0  0  0  0  0  0  0  0  0
    2.7624   -1.5315    1.9639 H   0  0  0  0  0  0  0  0  0  0  0  0
    2.1828   -3.1566    1.4660 H   0  0  0  0  0  0  0  0  0  0  0  0
    0.8270   -3.8504    3.4717 H   0  0  0  0  0  0  0  0  0  0  0  0
    2.9410   -3.4465    8.2915 H   0  0  0  0  0  0  0  0  0  0  0  0
    2.9388   -1.9970    6.4518 H   0  0  0  0  0  0  0  0  0  0  0  0
    0.7056   -4.5447    8.7950 H   0  0  0  0  0  0  0  0  0  0  0  0
   -0.0777   -2.8522    6.5138 H   0  0  0  0  0  0  0  0  0  0  0  0
    3.0784   -6.7514    5.5070 H   0  0  0  0  0  0  0  0  0  0  0  0
    1.9061   -6.0268    9.5815 H   0  0  0  0  0  0  0  0  0  0  0  0
    0.7054   -6.9841   10.6023 H   0  0  0  0  0  0  0  0  0  0  0  0
   -1.0737   -8.6580    8.2214 H   0  0  0  0  0  0  0  0  0  0  0  0
   -0.5480   -8.6519    9.8955 H   0  0  0  0  0  0  0  0  0  0  0  0
    0.2671   -9.6507    8.7381 H   0  0  0  0  0  0  0  0  0  0  0  0
   -0.5459   -8.0845    6.1779 H   0  0  0  0  0  0  0  0  0  0  0  0
   -0.5232   -6.4220    6.6151 H   0  0  0  0  0  0  0  0  0  0  0  0
    3.4876   -7.3100    2.0605 H   0  0  0  0  0  0  0  0  0  0  0  0
    6.4958   -6.9115    1.6059 H   0  0  0  0  0  0  0  0  0  0  0  0
    6.0836   -6.2207    0.0498 H   0  0  0  0  0  0  0  0  0  0  0  0
    5.1707   -7.6245    0.6430 H   0  0  0  0  0  0  0  0  0  0  0  0
    5.7841   -3.9512    0.8678 H   0  0  0  0  0  0  0  0  0  0  0  0
    2.3770   -2.0564    4.0812 H   0  0  0  0  0  0  0  0  0  0  0  0
  1  2  2  0
  1 60  1  0
  1 61  1  0
  2  3  1  0
  2  4  1  0
  3 62  1  0
  3 63  1  0
  3 64  1  0
  4 52  1  0
  4  5  2  3
 16  5  1  1
  5  6  1  0
  6  7  1  0
  6  8  1  0
  6  9  1  0
  7 65  1  0
  7 66  1  0
  7 67  1  0
  8 68  1  0
  8 69  1  0
  8 70  1  0
  9 16  1  0
  9 10  1  6
  9 12  1  0
 10 11  1  0
 11 71  1  0
 11 72  1  0
 11 73  1  0
 12 13  1  0
 12 74  1  0
 12 75  1  0
 13 47  1  0
 13 14  1  1
 13 15  1  0
 14 76  1  0
 15 16  1  0
 16 17  1  0
 17 31  1  1
 17 55  1  0
 17 18  1  0
 18 19  1  0
 18 20  1  0
 18 77  1  6
 19 78  1  0
 20 21  1  0
 20 25  1  0
 20 79  1  6
 21 22  1  0
 22 23  1  0
 22 24  2  0
 23 80  1  0
 23 81  1  0
 23 82  1  0
 25 26  2  0
 25 27  1  0
 26 83  1  0
 26 84  1  0
 27 45  1  0
 27 28  1  0
 27 85  1  1
 28 29  1  0
 28 86  1  0
 28 87  1  0
 29 30  2  0
 29 31  1  0
 30 88  1  0
 30 89  1  0
 31 32  1  6
 31 33  1  0
 32 90  1  0
 33 34  1  0
 33 91  1  0
 33 92  1  0
 34 37  1  0
 34 35  1  0
 34 93  1  1
 35 59  1  0
 35 36  1  0
 35 94  1  1
 36 37  1  0
 36 95  1  0
 36 96  1  0
 37 38  1  0
 37115  1  1
 38 39  1  0
 53 38  1  6
 38 97  1  6
 40 39  1  6
 40 43  1  0
 40 41  1  0
 40 45  1  0
 41 42  1  0
 41 43  1  0
 41 98  1  1
 42 99  1  0
 43 44  1  0
 43100  1  1
 44101  1  0
 45 46  1  6
 45 47  1  0
 46102  1  0
 47 48  1  1
 47 51  1  0
 48 49  2  0
 48 50  1  0
 49103  1  0
 49104  1  0
 50105  1  0
 50106  1  0
 50107  1  0
 51 52  1  0
 51108  1  0
 51109  1  0
 53 54  2  0
 53 55  1  0
 55 56  1  0
 55110  1  6
 56 59  1  0
 56 57  1  6
 56 58  1  0
 57111  1  0
 57112  1  0
 57113  1  0
 58 59  1  0
 59114  1  6
M  CHG  1  37   1
M  END
>  <i_m_ct_stereo_status>  (31) 
1

>  <s_m_source_file>  (31) 
/var/tmp/pbs.5075288.sched01/tmpx_bw1ala/724_f_g42c.sdf

>  <i_m_source_file_index>  (31) 
48

>  <i_lp_mmshare_version>  (31) 
48012

>  <i_f3d_flags>  (31) 
0

>  <s_epik_input>  (31) 
W0NIMl09QyhbQ0gzXSkvQyhPW0NIMl0xKT1DMlxDKFtDSDNdKShbQ0gzXSlbQ0BdMyhPW0NIM10pW0NIMl1bQ0BdKE80KShbT0hdKVtDQEBdMShDKD1bQ0gyXSlbQ0gzXSlbQ0BdKFtPSF0pKFtDQEhdKFtDSDJdQyg9W0NIMl0pW0NAXTUoW0NAXTY3W0NAQF0yMzQpW09IXSlDKD1bQ0gyXSlbQ0BASF0oW0NAQEhdNltPSF0pT0MoPU8pW0NIM10pW0NAQF04KFtDQEBIXShbT0hdKVtDQEhdOFtPSF0pT1tDQEhdOU4xW0NAQEhdKFtDSDJdNSlbQ0BIXShbQ0gyXTEpW0NASF0xW0NAQF0oTzEpKFtDSDNdKVtDQEBIXTdbUytdOVtPLV0=

>  <s_epik_cmdline>  (31) 
J2VwaWtfcHl0aG9uJywgJy1waHQnLCAnMi4wJywgJy1waCcsICc3LjAnLCAnLXRuJywgJzgnLCAnLW1hJywgJzIwMCcsICctaW1hZScsICc8aW5maWxlLm1hZT4nLCAnLW9tYWUnLCAnPG91dGZpbGUubWFlPic=

>  <r_epik_Ionization_Penalty>  (31) 
0.00435154

>  <r_epik_Ionization_Penalty_Charging>  (31) 
0.00427699

>  <r_epik_Ionization_Penalty_Neutral>  (31) 
7.45488e-05

>  <r_epik_State_Penalty>  (31) 
0.0030763

>  <r_epik_Charging_Adjusted_Penalty>  (31) 
0.00735329

>  <i_epik_Tot_Q>  (31) 
1

>  <i_epik_Tot_abs_Q>  (31) 
3

>  <s_epik_Chemistry_Notes>  (31) 
This compound has an ester and may undergo hydrolysis at high or low pH. This compound contains an acetal/aminal-like group ( X-CH(R)-Y where X, Y are N, S, or O) that may be acid/base labile, releasing an aldehyde.

>  <s_lp_Force_Field>  (31) 
OPLS3e

>  <r_lp_Energy>  (31) 
485.639

>  <b_lp_Chiralities_Consistent>  (31) 
1

>  <s_lp_Variant>  (31) 
29:0-1

>  <s_i_glide_gridfile>  (31) 
pfpi4k_grid

>  <i_i_glide_lignum>  (31) 
48

>  <i_i_glide_rotatable_bonds>  (31) 
11

>  <r_i_docking_score>  (31) 
-3.79173

>  <r_i_glide_ligand_efficiency>  (31) 
-0.0642666

>  <r_i_glide_ligand_efficiency_sa>  (31) 
-0.250189

>  <r_i_glide_ligand_efficiency_ln>  (31) 
-0.746765

>  <r_i_glide_gscore>  (31) 
-3.79173

>  <r_i_glide_lipo>  (31) 
-0.322621

>  <r_i_glide_hbond>  (31) 
-0.113255

>  <r_i_glide_metal>  (31) 
-0

>  <r_i_glide_rewards>  (31) 
-0.5

>  <r_i_glide_evdw>  (31) 
-27.7376

>  <r_i_glide_ecoul>  (31) 
-10.1118

>  <r_i_glide_erotb>  (31) 
0.0924652

>  <r_i_glide_esite>  (31) 
-0.044671

>  <r_i_glide_emodel>  (31) 
-43.7404

>  <r_i_glide_energy>  (31) 
-37.8494

>  <r_i_glide_einternal>  (31) 
11.791

>  <r_i_glide_intrahb_reward>  (31) 
-0.5

>  <i_i_glide_confnum>  (31) 
3

>  <i_i_glide_posenum>  (31) 
9

>  <r_i_glide_eff_state_penalty>  (31) 
0

>  <ligand_id>  (31) 
29

>  <original_smiles>  (31) 
C=C(C)C1=C2C(C)(C)C3(OC)CC4(O)OC23C23C(O)C(OC(C)=O)C(=C)C5CC(=C)C2(O)CC2C6CN2C(OC2(C(O)C2O)C5(O)C4(C(=C)C)CO1)[S+]([O-])C3C1(C)OC61

>  <smiles>  (31) 
[H]OC1([H])C([H])(O[H])C12OC1([H])S(=O)C3([H])C4(C([H])([H])[H])OC4([H])C4([H])C([H])([H])[N+]1([H])C4([H])C([H])([H])C1(O[H])C(=C([H])[H])C([H])([H])C4([H])C(=C([H])[H])C([H])(OC(=O)C([H])([H])[H])C([H])(O[H])C13C13OC5(O[H])C([H])([H])C1(OC([H])([H])[H])C(C([H])([H])[H])(C([H])([H])[H])C3=C(C(=C([H])[H])C([H])([H])[H])OC([H])([H])C5(C(=C([H])[H])C([H])([H])[H])C42O[H]

$$$$
29:0:1
     RDKit          3D

115125  0  0  1  0  0  0  0  0999 V2000
   -2.0013   -7.5906    3.9606 C   0  0  0  0  0  0  0  0  0  0  0  0
   -0.8442   -8.0016    3.4565 C   0  0  0  0  0  0  0  0  0  0  0  0
   -0.9086   -8.6251    2.0644 C   0  0  0  0  0  0  0  0  0  0  0  0
    0.4237   -7.8036    4.1470 C   0  0  0  0  0  0  0  0  0  0  0  0
    1.6280   -8.3293    3.8721 C   0  0  0  0  0  0  0  0  0  0  0  0
    2.0185   -9.7216    3.2645 C   0  0  0  0  0  0  0  0  0  0  0  0
    0.9242  -10.8197    3.1641 C   0  0  0  0  0  0  0  0  0  0  0  0
    2.8325   -9.7329    1.9681 C   0  0  0  0  0  0  0  0  0  0  0  0
    2.7808   -9.6877    4.5962 C   0  0  2  0  0  0  0  0  0  0  0  0
    3.9306  -10.5488    4.6207 O   0  0  0  0  0  0  0  0  0  0  0  0
    3.7361  -11.9377    4.3878 C   0  0  0  0  0  0  0  0  0  0  0  0
    1.9084   -9.9228    5.9048 C   0  0  0  0  0  0  0  0  0  0  0  0
    2.3926   -8.7889    6.8053 C   0  0  1  0  0  0  0  0  0  0  0  0
    3.0210   -9.4446    7.8964 O   0  0  0  0  0  0  0  0  0  0  0  0
    3.2925   -8.3445    5.9137 O   0  0  0  0  0  0  0  0  0  0  0  0
    3.0620   -8.1155    4.5299 C   0  0  2  0  0  0  0  0  0  0  0  0
    4.3080   -6.9986    3.9224 C   0  0  2  0  0  0  0  0  0  0  0  0
    5.5012   -7.9772    4.2488 C   0  0  1  0  0  0  0  0  0  0  0  0
    6.6874   -7.8376    3.4750 O   0  0  0  0  0  0  0  0  0  0  0  0
    5.8424   -8.3111    5.8294 C   0  0  1  0  0  0  0  0  0  0  0  0
    7.2433   -8.6214    5.9608 O   0  0  0  0  0  0  0  0  0  0  0  0
    7.7999   -9.8317    5.6884 C   0  0  0  0  0  0  0  0  0  0  0  0
    6.8746  -10.9306    5.1580 C   0  0  0  0  0  0  0  0  0  0  0  0
    9.0050  -10.0533    5.8465 O   0  0  0  0  0  0  0  0  0  0  0  0
    5.2821   -7.6292    7.2075 C   0  0  0  0  0  0  0  0  0  0  0  0
    5.7107   -8.2193    8.3408 C   0  0  0  0  0  0  0  0  0  0  0  0
    4.3761   -6.3266    7.3982 C   0  0  1  0  0  0  0  0  0  0  0  0
    5.3700   -5.2346    7.0147 C   0  0  0  0  0  0  0  0  0  0  0  0
    6.0419   -5.5210    5.6712 C   0  0  0  0  0  0  0  0  0  0  0  0
    7.3933   -5.5967    5.6505 C   0  0  0  0  0  0  0  0  0  0  0  0
    5.1354   -5.5169    4.4067 C   0  0  1  0  0  0  0  0  0  0  0  0
    6.0688   -5.1948    3.3786 O   0  0  0  0  0  0  0  0  0  0  0  0
    4.5862   -4.0282    4.5635 C   0  0  0  0  0  0  0  0  0  0  0  0
    4.0110   -3.0638    3.5430 C   0  0  1  0  0  0  0  0  0  0  0  0
    3.9978   -3.0977    2.0327 C   0  0  2  0  0  0  0  0  0  0  0  0
    2.5494   -2.6295    2.1358 C   0  0  0  0  0  0  0  0  0  0  0  0
    2.5636   -2.9035    3.5867 N   0  0  1  0  0  0  0  0  0  0  0  0
    1.7168   -4.1535    4.0874 C   0  0  2  0  0  0  0  0  0  0  0  0
    1.3591   -4.2031    5.5191 O   0  0  0  0  0  0  0  0  0  0  0  0
    2.0573   -4.6369    6.8229 C   0  0  1  0  0  0  0  0  0  0  0  0
    2.5341   -3.4171    7.6183 C   0  0  1  0  0  0  0  0  0  0  0  0
    2.4351   -2.2409    6.8407 O   0  0  0  0  0  0  0  0  0  0  0  0
    1.2590   -4.1140    8.0405 C   0  0  1  0  0  0  0  0  0  0  0  0
    0.0638   -3.3837    7.7106 O   0  0  0  0  0  0  0  0  0  0  0  0
    2.7263   -6.1146    7.0418 C   0  0  1  0  0  0  0  0  0  0  0  0
    2.8849   -5.8976    5.7772 O   0  0  0  0  0  0  0  0  0  0  0  0
    1.7089   -7.4188    7.2842 C   0  0  2  0  0  0  0  0  0  0  0  0
    1.3317   -7.5574    8.7853 C   0  0  0  0  0  0  0  0  0  0  0  0
    1.8733   -6.8495    9.7954 C   0  0  0  0  0  0  0  0  0  0  0  0
    0.2988   -8.6214    9.1746 C   0  0  0  0  0  0  0  0  0  0  0  0
    0.3613   -7.2463    6.4787 C   0  0  0  0  0  0  0  0  0  0  0  0
    0.4231   -6.8117    5.1261 O   0  0  0  0  0  0  0  0  0  0  0  0
    1.9531   -5.6161    2.8870 S   0  0  0  0  0  0  0  0  0  0  0  0
    1.0533   -5.5620    1.6451 O   0  0  0  0  0  0  0  0  0  0  0  0
    3.6103   -6.4737    2.5533 C   0  0  1  0  0  0  0  0  0  0  0  0
    4.3382   -5.7693    1.3912 C   0  0  1  0  0  0  0  0  0  0  0  0
    5.2609   -6.6865    0.6388 C   0  0  0  0  0  0  0  0  0  0  0  0
    3.4825   -5.0290    0.5128 O   0  0  0  0  0  0  0  0  0  0  0  0
    4.4988   -4.2427    1.1646 C   0  0  1  0  0  0  0  0  0  0  0  0
   -2.9096   -7.7593    3.4071 H   0  0  0  0  0  0  0  0  0  0  0  0
   -2.0823   -7.0929    4.9182 H   0  0  0  0  0  0  0  0  0  0  0  0
    0.1049   -8.6922    1.7144 H   0  0  0  0  0  0  0  0  0  0  0  0
   -1.4356   -7.9954    1.3418 H   0  0  0  0  0  0  0  0  0  0  0  0
   -1.3779   -9.6033    2.1142 H   0  0  0  0  0  0  0  0  0  0  0  0
    1.3198  -11.8248    3.3206 H   0  0  0  0  0  0  0  0  0  0  0  0
    0.4815  -10.8682    2.1683 H   0  0  0  0  0  0  0  0  0  0  0  0
    0.1247  -10.7004    3.8915 H   0  0  0  0  0  0  0  0  0  0  0  0
    3.0122  -10.7444    1.6270 H   0  0  0  0  0  0  0  0  0  0  0  0
    3.8271   -9.3155    2.0882 H   0  0  0  0  0  0  0  0  0  0  0  0
    2.3042   -9.2281    1.1560 H   0  0  0  0  0  0  0  0  0  0  0  0
    4.6696  -12.4486    4.6134 H   0  0  0  0  0  0  0  0  0  0  0  0
    3.5187  -12.1730    3.3397 H   0  0  0  0  0  0  0  0  0  0  0  0
    2.9698  -12.3931    5.0182 H   0  0  0  0  0  0  0  0  0  0  0  0
    0.8157   -9.8848    5.7835 H   0  0  0  0  0  0  0  0  0  0  0  0
    2.1552  -10.8916    6.3167 H   0  0  0  0  0  0  0  0  0  0  0  0
    2.9123  -10.3788    7.7986 H   0  0  0  0  0  0  0  0  0  0  0  0
    5.1858   -8.8963    3.7877 H   0  0  0  0  0  0  0  0  0  0  0  0
    6.4726   -7.9160    2.5646 H   0  0  0  0  0  0  0  0  0  0  0  0
    5.3376   -9.2556    5.9992 H   0  0  0  0  0  0  0  0  0  0  0  0
    6.3373  -10.5644    4.2796 H   0  0  0  0  0  0  0  0  0  0  0  0
    6.1656  -11.2337    5.9292 H   0  0  0  0  0  0  0  0  0  0  0  0
    7.4193  -11.8252    4.8363 H   0  0  0  0  0  0  0  0  0  0  0  0
    6.3406   -9.1051    8.3155 H   0  0  0  0  0  0  0  0  0  0  0  0
    5.4125   -7.8726    9.3263 H   0  0  0  0  0  0  0  0  0  0  0  0
    4.3045   -6.2307    8.4696 H   0  0  0  0  0  0  0  0  0  0  0  0
    5.0464   -4.1995    7.1178 H   0  0  0  0  0  0  0  0  0  0  0  0
    6.1586   -5.2997    7.7670 H   0  0  0  0  0  0  0  0  0  0  0  0
    7.9557   -5.5343    6.5676 H   0  0  0  0  0  0  0  0  0  0  0  0
    7.9632   -5.7349    4.7420 H   0  0  0  0  0  0  0  0  0  0  0  0
    5.6247   -5.0346    2.5732 H   0  0  0  0  0  0  0  0  0  0  0  0
    3.9822   -3.8442    5.4400 H   0  0  0  0  0  0  0  0  0  0  0  0
    5.4671   -3.4610    4.8798 H   0  0  0  0  0  0  0  0  0  0  0  0
    4.3634   -2.0626    3.7837 H   0  0  0  0  0  0  0  0  0  0  0  0
    4.5460   -2.2004    1.7601 H   0  0  0  0  0  0  0  0  0  0  0  0
    2.4428   -1.5604    1.9620 H   0  0  0  0  0  0  0  0  0  0  0  0
    1.8198   -3.1956    1.5546 H   0  0  0  0  0  0  0  0  0  0  0  0
    0.7167   -3.8939    3.7129 H   0  0  0  0  0  0  0  0  0  0  0  0
    3.4294   -3.4652    8.2858 H   0  0  0  0  0  0  0  0  0  0  0  0
    1.6215   -2.2665    6.3563 H   0  0  0  0  0  0  0  0  0  0  0  0
    1.2718   -4.6150    9.0415 H   0  0  0  0  0  0  0  0  0  0  0  0
    0.1240   -2.9185    6.8862 H   0  0  0  0  0  0  0  0  0  0  0  0
    3.5331   -5.2236    5.6804 H   0  0  0  0  0  0  0  0  0  0  0  0
    2.6266   -6.0928    9.6439 H   0  0  0  0  0  0  0  0  0  0  0  0
    1.5488   -7.0181   10.8111 H   0  0  0  0  0  0  0  0  0  0  0  0
   -0.6636   -8.4997    8.6737 H   0  0  0  0  0  0  0  0  0  0  0  0
    0.1063   -8.5934   10.2478 H   0  0  0  0  0  0  0  0  0  0  0  0
    0.6718   -9.6201    8.9568 H   0  0  0  0  0  0  0  0  0  0  0  0
   -0.2509   -8.1460    6.5615 H   0  0  0  0  0  0  0  0  0  0  0  0
   -0.2042   -6.4749    6.9981 H   0  0  0  0  0  0  0  0  0  0  0  0
    3.2427   -7.3353    2.0169 H   0  0  0  0  0  0  0  0  0  0  0  0
    6.1681   -6.8861    1.2029 H   0  0  0  0  0  0  0  0  0  0  0  0
    5.5502   -6.2246   -0.3055 H   0  0  0  0  0  0  0  0  0  0  0  0
    4.7567   -7.6294    0.4081 H   0  0  0  0  0  0  0  0  0  0  0  0
    5.3259   -3.9535    0.5235 H   0  0  0  0  0  0  0  0  0  0  0  0
    2.3442   -2.0498    4.1116 H   0  0  0  0  0  0  0  0  0  0  0  0
  1  2  2  0
  1 60  1  0
  1 61  1  0
  2  3  1  0
  2  4  1  0
  3 62  1  0
  3 63  1  0
  3 64  1  0
  4 52  1  0
  4  5  2  3
 16  5  1  1
  5  6  1  0
  6  7  1  0
  6  8  1  0
  6  9  1  0
  7 65  1  0
  7 66  1  0
  7 67  1  0
  8 68  1  0
  8 69  1  0
  8 70  1  0
  9 16  1  0
  9 10  1  6
  9 12  1  0
 10 11  1  0
 11 71  1  0
 11 72  1  0
 11 73  1  0
 12 13  1  0
 12 74  1  0
 12 75  1  0
 13 47  1  0
 13 14  1  1
 13 15  1  0
 14 76  1  0
 15 16  1  0
 16 17  1  0
 17 31  1  1
 17 55  1  0
 17 18  1  0
 18 19  1  0
 18 20  1  0
 18 77  1  6
 19 78  1  0
 20 21  1  0
 20 25  1  0
 20 79  1  1
 21 22  1  0
 22 23  1  0
 22 24  2  0
 23 80  1  0
 23 81  1  0
 23 82  1  0
 25 26  2  0
 25 27  1  0
 26 83  1  0
 26 84  1  0
 27 45  1  0
 27 28  1  0
 27 85  1  1
 28 29  1  0
 28 86  1  0
 28 87  1  0
 29 30  2  0
 29 31  1  0
 30 88  1  0
 30 89  1  0
 31 32  1  6
 31 33  1  0
 32 90  1  0
 33 34  1  0
 33 91  1  0
 33 92  1  0
 34 37  1  0
 34 35  1  0
 34 93  1  6
 35 59  1  0
 35 36  1  0
 35 94  1  6
 36 37  1  0
 36 95  1  0
 36 96  1  0
 37 38  1  0
 37115  1  1
 38 39  1  0
 53 38  1  6
 38 97  1  6
 40 39  1  6
 40 43  1  0
 40 41  1  0
 40 45  1  0
 41 42  1  0
 41 43  1  0
 41 98  1  1
 42 99  1  0
 43 44  1  0
 43100  1  1
 44101  1  0
 45 46  1  6
 45 47  1  0
 46102  1  0
 47 48  1  1
 47 51  1  0
 48 49  2  0
 48 50  1  0
 49103  1  0
 49104  1  0
 50105  1  0
 50106  1  0
 50107  1  0
 51 52  1  0
 51108  1  0
 51109  1  0
 53 54  2  0
 53 55  1  0
 55 56  1  0
 55110  1  6
 56 59  1  0
 56 57  1  6
 56 58  1  0
 57111  1  0
 57112  1  0
 57113  1  0
 58 59  1  0
 59114  1  6
M  CHG  1  37   1
M  END
>  <i_m_ct_stereo_status>  (32) 
1

>  <s_m_source_file>  (32) 
/var/tmp/pbs.5075288.sched01/tmpx_bw1ala/724_f_g42c.sdf

>  <i_m_source_file_index>  (32) 
48

>  <i_lp_mmshare_version>  (32) 
48012

>  <i_f3d_flags>  (32) 
0

>  <s_epik_input>  (32) 
W0NIMl09QyhbQ0gzXSkvQyhPW0NIMl0xKT1DMlxDKFtDSDNdKShbQ0gzXSlbQ0BdMyhPW0NIM10pW0NIMl1bQ0BdKE80KShbT0hdKVtDQEBdMShDKD1bQ0gyXSlbQ0gzXSlbQ0BdKFtPSF0pKFtDQEhdKFtDSDJdQyg9W0NIMl0pW0NAXTUoW0NAXTY3W0NAQF0yMzQpW09IXSlDKD1bQ0gyXSlbQ0BASF0oW0NAQEhdNltPSF0pT0MoPU8pW0NIM10pW0NAQF04KFtDQEBIXShbT0hdKVtDQEhdOFtPSF0pT1tDQEhdOU4xW0NAQEhdKFtDSDJdNSlbQ0BIXShbQ0gyXTEpW0NASF0xW0NAQF0oTzEpKFtDSDNdKVtDQEBIXTdbUytdOVtPLV0=

>  <s_epik_cmdline>  (32) 
J2VwaWtfcHl0aG9uJywgJy1waHQnLCAnMi4wJywgJy1waCcsICc3LjAnLCAnLXRuJywgJzgnLCAnLW1hJywgJzIwMCcsICctaW1hZScsICc8aW5maWxlLm1hZT4nLCAnLW9tYWUnLCAnPG91dGZpbGUubWFlPic=

>  <r_epik_Ionization_Penalty>  (32) 
0.00435154

>  <r_epik_Ionization_Penalty_Charging>  (32) 
0.00427699

>  <r_epik_Ionization_Penalty_Neutral>  (32) 
7.45488e-05

>  <r_epik_State_Penalty>  (32) 
0.0030763

>  <r_epik_Charging_Adjusted_Penalty>  (32) 
0.00735329

>  <i_epik_Tot_Q>  (32) 
1

>  <i_epik_Tot_abs_Q>  (32) 
3

>  <s_epik_Chemistry_Notes>  (32) 
This compound has an ester and may undergo hydrolysis at high or low pH. This compound contains an acetal/aminal-like group ( X-CH(R)-Y where X, Y are N, S, or O) that may be acid/base labile, releasing an aldehyde.

>  <s_lp_Force_Field>  (32) 
OPLS3e

>  <r_lp_Energy>  (32) 
485.639

>  <b_lp_Chiralities_Consistent>  (32) 
1

>  <s_lp_Variant>  (32) 
29:0-1

>  <s_i_glide_gridfile>  (32) 
pfpi4k_grid

>  <i_i_glide_lignum>  (32) 
48

>  <i_i_glide_rotatable_bonds>  (32) 
11

>  <r_i_docking_score>  (32) 
-3.2121

>  <r_i_glide_ligand_efficiency>  (32) 
-0.0544424

>  <r_i_glide_ligand_efficiency_sa>  (32) 
-0.211944

>  <r_i_glide_ligand_efficiency_ln>  (32) 
-0.63261

>  <r_i_glide_gscore>  (32) 
-3.2121

>  <r_i_glide_lipo>  (32) 
-0.34183

>  <r_i_glide_hbond>  (32) 
-0.113655

>  <r_i_glide_metal>  (32) 
-0

>  <r_i_glide_rewards>  (32) 
0

>  <r_i_glide_evdw>  (32) 
-27.3142

>  <r_i_glide_ecoul>  (32) 
-9.59571

>  <r_i_glide_erotb>  (32) 
0.0924652

>  <r_i_glide_esite>  (32) 
-0.0440175

>  <r_i_glide_emodel>  (32) 
-39.6912

>  <r_i_glide_energy>  (32) 
-36.9099

>  <r_i_glide_einternal>  (32) 
7.25525

>  <r_i_glide_intrahb_reward>  (32) 
-0

>  <i_i_glide_confnum>  (32) 
3

>  <i_i_glide_posenum>  (32) 
12

>  <r_i_glide_eff_state_penalty>  (32) 
0

>  <ligand_id>  (32) 
29

>  <original_smiles>  (32) 
C=C(C)C1=C2C(C)(C)C3(OC)CC4(O)OC23C23C(O)C(OC(C)=O)C(=C)C5CC(=C)C2(O)CC2C6CN2C(OC2(C(O)C2O)C5(O)C4(C(=C)C)CO1)[S+]([O-])C3C1(C)OC61

>  <smiles>  (32) 
[H]OC1([H])C([H])(O[H])C12OC1([H])S(=O)C3([H])C4(C([H])([H])[H])OC4([H])C4([H])C([H])([H])[N+]1([H])C4([H])C([H])([H])C1(O[H])C(=C([H])[H])C([H])([H])C4([H])C(=C([H])[H])C([H])(OC(=O)C([H])([H])[H])C([H])(O[H])C13C13OC5(O[H])C([H])([H])C1(OC([H])([H])[H])C(C([H])([H])[H])(C([H])([H])[H])C3=C(C(=C([H])[H])C([H])([H])[H])OC([H])([H])C5(C(=C([H])[H])C([H])([H])[H])C42O[H]

$$$$
29:0:2
     RDKit          3D

115125  0  0  1  0  0  0  0  0999 V2000
   -0.4016   -9.8680    3.5840 C   0  0  0  0  0  0  0  0  0  0  0  0
    0.8361  -10.3354    3.7735 C   0  0  0  0  0  0  0  0  0  0  0  0
    1.0553  -11.8451    3.6975 C   0  0  0  0  0  0  0  0  0  0  0  0
    1.9390   -9.4085    4.0377 C   0  0  0  0  0  0  0  0  0  0  0  0
    1.9436   -8.0843    3.7575 C   0  0  0  0  0  0  0  0  0  0  0  0
    1.2164   -7.2714    2.6523 C   0  0  0  0  0  0  0  0  0  0  0  0
    0.5528   -8.0236    1.4782 C   0  0  0  0  0  0  0  0  0  0  0  0
    0.2557   -6.1674    3.0771 C   0  0  0  0  0  0  0  0  0  0  0  0
    2.6909   -6.9117    2.4184 C   0  0  2  0  0  0  0  0  0  0  0  0
    2.8720   -5.6412    1.7644 O   0  0  0  0  0  0  0  0  0  0  0  0
    2.4055   -5.4933    0.4318 C   0  0  0  0  0  0  0  0  0  0  0  0
    3.5926   -8.0496    1.7337 C   0  0  0  0  0  0  0  0  0  0  0  0
    4.8045   -8.0595    2.6634 C   0  0  1  0  0  0  0  0  0  0  0  0
    5.8850   -7.6165    1.8691 O   0  0  0  0  0  0  0  0  0  0  0  0
    4.3383   -7.0652    3.4344 O   0  0  0  0  0  0  0  0  0  0  0  0
    3.0354   -6.9596    3.9846 C   0  0  2  0  0  0  0  0  0  0  0  0
    3.0772   -5.8783    5.3950 C   0  0  2  0  0  0  0  0  0  0  0  0
    3.5234   -4.6278    4.5551 C   0  0  1  0  0  0  0  0  0  0  0  0
    3.2218   -3.3479    5.1000 O   0  0  0  0  0  0  0  0  0  0  0  0
    5.0153   -4.6515    3.8438 C   0  0  1  0  0  0  0  0  0  0  0  0
    5.4335   -3.2834    3.7434 O   0  0  0  0  0  0  0  0  0  0  0  0
    5.1776   -2.4570    2.6951 C   0  0  0  0  0  0  0  0  0  0  0  0
    4.1537   -2.9536    1.6777 C   0  0  0  0  0  0  0  0  0  0  0  0
    5.7093   -1.3570    2.5658 O   0  0  0  0  0  0  0  0  0  0  0  0
    6.2825   -5.6646    4.0597 C   0  0  0  0  0  0  0  0  0  0  0  0
    7.3486   -5.4835    3.2362 C   0  0  0  0  0  0  0  0  0  0  0  0
    6.4704   -6.8503    5.1332 C   0  0  1  0  0  0  0  0  0  0  0  0
    6.6528   -6.0460    6.4164 C   0  0  0  0  0  0  0  0  0  0  0  0
    5.5555   -5.0008    6.5888 C   0  0  0  0  0  0  0  0  0  0  0  0
    5.9416   -3.7063    6.7062 C   0  0  0  0  0  0  0  0  0  0  0  0
    4.0992   -5.5299    6.7907 C   0  0  1  0  0  0  0  0  0  0  0  0
    3.4850   -4.4373    7.4517 O   0  0  0  0  0  0  0  0  0  0  0  0
    4.3819   -6.3870    8.1010 C   0  0  0  0  0  0  0  0  0  0  0  0
    3.4640   -6.8770    9.2032 C   0  0  1  0  0  0  0  0  0  0  0  0
    2.0556   -6.4703    9.5717 C   0  0  2  0  0  0  0  0  0  0  0  0
    1.7991   -7.9636    9.7858 C   0  0  0  0  0  0  0  0  0  0  0  0
    3.0951   -8.2931    9.1350 N   0  0  1  0  0  0  0  0  0  0  0  0
    2.9970   -8.9445    7.6864 C   0  0  2  0  0  0  0  0  0  0  0  0
    4.1914   -9.6504    7.1648 O   0  0  0  0  0  0  0  0  0  0  0  0
    5.5477   -9.2179    6.5790 C   0  0  1  0  0  0  0  0  0  0  0  0
    6.6813   -9.2204    7.6099 C   0  0  1  0  0  0  0  0  0  0  0  0
    6.1492   -9.4210    8.9012 O   0  0  0  0  0  0  0  0  0  0  0  0
    6.5313  -10.3910    6.6734 C   0  0  1  0  0  0  0  0  0  0  0  0
    5.9484  -11.5107    7.3150 O   0  0  0  0  0  0  0  0  0  0  0  0
    5.6744   -8.3535    5.2000 C   0  0  1  0  0  0  0  0  0  0  0  0
    4.5558   -7.9575    5.7231 O   0  0  0  0  0  0  0  0  0  0  0  0
    5.3165   -9.1207    3.7578 C   0  0  2  0  0  0  0  0  0  0  0  0
    6.5635   -9.8480    3.1832 C   0  0  0  0  0  0  0  0  0  0  0  0
    7.8113   -9.7405    3.6892 C   0  0  0  0  0  0  0  0  0  0  0  0
    6.3813  -10.7209    1.9395 C   0  0  0  0  0  0  0  0  0  0  0  0
    4.1872  -10.2151    3.9429 C   0  0  0  0  0  0  0  0  0  0  0  0
    3.0357   -9.8748    4.7178 O   0  0  0  0  0  0  0  0  0  0  0  0
    1.6322   -8.1102    6.6692 S   0  0  0  0  0  0  0  0  0  0  0  0
    0.2198   -8.5829    7.0345 O   0  0  0  0  0  0  0  0  0  0  0  0
    1.6982   -6.2774    6.1647 C   0  0  1  0  0  0  0  0  0  0  0  0
    0.9905   -5.4172    7.2391 C   0  0  1  0  0  0  0  0  0  0  0  0
    0.3921   -4.1487    6.6737 C   0  0  0  0  0  0  0  0  0  0  0  0
    0.0650   -6.1208    8.0682 O   0  0  0  0  0  0  0  0  0  0  0  0
    1.1642   -5.5195    8.7695 C   0  0  1  0  0  0  0  0  0  0  0  0
   -1.2003  -10.5315    3.2693 H   0  0  0  0  0  0  0  0  0  0  0  0
   -0.6540   -8.8234    3.7387 H   0  0  0  0  0  0  0  0  0  0  0  0
    2.0949  -12.1564    3.7808 H   0  0  0  0  0  0  0  0  0  0  0  0
    0.6287  -12.2636    2.7881 H   0  0  0  0  0  0  0  0  0  0  0  0
    0.5339  -12.2872    4.5364 H   0  0  0  0  0  0  0  0  0  0  0  0
    0.6104   -7.4784    0.5309 H   0  0  0  0  0  0  0  0  0  0  0  0
   -0.5044   -8.2207    1.6616 H   0  0  0  0  0  0  0  0  0  0  0  0
    1.0261   -8.9747    1.2886 H   0  0  0  0  0  0  0  0  0  0  0  0
   -0.1848   -5.7551    2.1840 H   0  0  0  0  0  0  0  0  0  0  0  0
    0.7444   -5.3358    3.5784 H   0  0  0  0  0  0  0  0  0  0  0  0
   -0.5493   -6.5555    3.7040 H   0  0  0  0  0  0  0  0  0  0  0  0
    2.7646   -4.5430    0.0485 H   0  0  0  0  0  0  0  0  0  0  0  0
    1.3164   -5.4602    0.3647 H   0  0  0  0  0  0  0  0  0  0  0  0
    2.7767   -6.2541   -0.2575 H   0  0  0  0  0  0  0  0  0  0  0  0
    3.1474   -9.0496    1.6863 H   0  0  0  0  0  0  0  0  0  0  0  0
    3.8742   -7.8046    0.7094 H   0  0  0  0  0  0  0  0  0  0  0  0
    6.6107   -7.4342    2.4366 H   0  0  0  0  0  0  0  0  0  0  0  0
    2.8097   -4.5784    3.7522 H   0  0  0  0  0  0  0  0  0  0  0  0
    3.3543   -2.7137    4.4113 H   0  0  0  0  0  0  0  0  0  0  0  0
    4.8286   -4.9656    2.8210 H   0  0  0  0  0  0  0  0  0  0  0  0
    3.2619   -3.2773    2.2194 H   0  0  0  0  0  0  0  0  0  0  0  0
    4.5741   -3.7817    1.1040 H   0  0  0  0  0  0  0  0  0  0  0  0
    3.8532   -2.1640    0.9803 H   0  0  0  0  0  0  0  0  0  0  0  0
    7.3212   -4.7194    2.4418 H   0  0  0  0  0  0  0  0  0  0  0  0
    8.2403   -6.0752    3.2883 H   0  0  0  0  0  0  0  0  0  0  0  0
    7.4705   -7.2195    4.9487 H   0  0  0  0  0  0  0  0  0  0  0  0
    6.8508   -6.6130    7.3249 H   0  0  0  0  0  0  0  0  0  0  0  0
    7.5879   -5.5016    6.2768 H   0  0  0  0  0  0  0  0  0  0  0  0
    6.9827   -3.4442    6.6023 H   0  0  0  0  0  0  0  0  0  0  0  0
    5.2563   -2.8950    6.8954 H   0  0  0  0  0  0  0  0  0  0  0  0
    3.3470   -3.7749    6.7728 H   0  0  0  0  0  0  0  0  0  0  0  0
    5.0282   -7.2260    7.9386 H   0  0  0  0  0  0  0  0  0  0  0  0
    5.0641   -5.7634    8.6872 H   0  0  0  0  0  0  0  0  0  0  0  0
    4.0135   -6.8227   10.1450 H   0  0  0  0  0  0  0  0  0  0  0  0
    2.1482   -6.0610   10.5752 H   0  0  0  0  0  0  0  0  0  0  0  0
    1.8314   -8.2476   10.8366 H   0  0  0  0  0  0  0  0  0  0  0  0
    0.9128   -8.3761    9.3067 H   0  0  0  0  0  0  0  0  0  0  0  0
    2.4261   -9.8501    7.9183 H   0  0  0  0  0  0  0  0  0  0  0  0
    7.5699   -8.5576    7.5181 H   0  0  0  0  0  0  0  0  0  0  0  0
    5.7687  -10.2965    8.8728 H   0  0  0  0  0  0  0  0  0  0  0  0
    7.3393  -10.5892    5.9238 H   0  0  0  0  0  0  0  0  0  0  0  0
    5.5297  -12.0436    6.6501 H   0  0  0  0  0  0  0  0  0  0  0  0
    4.0236   -8.7416    5.9063 H   0  0  0  0  0  0  0  0  0  0  0  0
    8.0652   -9.1270    4.5296 H   0  0  0  0  0  0  0  0  0  0  0  0
    8.6261  -10.2962    3.2687 H   0  0  0  0  0  0  0  0  0  0  0  0
    5.6623  -11.5290    2.0826 H   0  0  0  0  0  0  0  0  0  0  0  0
    7.3216  -11.1978    1.6630 H   0  0  0  0  0  0  0  0  0  0  0  0
    6.0629  -10.1314    1.0788 H   0  0  0  0  0  0  0  0  0  0  0  0
    3.8721  -10.6592    2.9952 H   0  0  0  0  0  0  0  0  0  0  0  0
    4.6442  -11.0483    4.4714 H   0  0  0  0  0  0  0  0  0  0  0  0
    0.9166   -6.2886    5.4247 H   0  0  0  0  0  0  0  0  0  0  0  0
    1.1575   -3.4126    6.4517 H   0  0  0  0  0  0  0  0  0  0  0  0
   -0.2915   -3.7029    7.3991 H   0  0  0  0  0  0  0  0  0  0  0  0
   -0.1721   -4.3668    5.7660 H   0  0  0  0  0  0  0  0  0  0  0  0
    0.9029   -4.6265    9.3312 H   0  0  0  0  0  0  0  0  0  0  0  0
    3.7001   -8.8259    9.7595 H   0  0  0  0  0  0  0  0  0  0  0  0
  1  2  2  0
  1 60  1  0
  1 61  1  0
  2  3  1  0
  2  4  1  0
  3 62  1  0
  3 63  1  0
  3 64  1  0
  4 52  1  0
  4  5  2  3
 16  5  1  1
  5  6  1  0
  6  7  1  0
  6  8  1  0
  6  9  1  0
  7 65  1  0
  7 66  1  0
  7 67  1  0
  8 68  1  0
  8 69  1  0
  8 70  1  0
  9 16  1  0
  9 10  1  6
  9 12  1  0
 10 11  1  0
 11 71  1  0
 11 72  1  0
 11 73  1  0
 12 13  1  0
 12 74  1  0
 12 75  1  0
 13 47  1  0
 13 14  1  6
 13 15  1  0
 14 76  1  0
 15 16  1  0
 16 17  1  0
 17 31  1  1
 17 55  1  0
 17 18  1  0
 18 19  1  0
 18 20  1  0
 18 77  1  6
 19 78  1  0
 20 21  1  0
 20 25  1  0
 20 79  1  6
 21 22  1  0
 22 23  1  0
 22 24  2  0
 23 80  1  0
 23 81  1  0
 23 82  1  0
 25 26  2  0
 25 27  1  0
 26 83  1  0
 26 84  1  0
 27 45  1  0
 27 28  1  0
 27 85  1  6
 28 29  1  0
 28 86  1  0
 28 87  1  0
 29 30  2  0
 29 31  1  0
 30 88  1  0
 30 89  1  0
 31 32  1  1
 31 33  1  0
 32 90  1  0
 33 34  1  0
 33 91  1  0
 33 92  1  0
 34 37  1  0
 34 35  1  0
 34 93  1  1
 35 59  1  0
 35 36  1  0
 35 94  1  1
 36 37  1  0
 36 95  1  0
 36 96  1  0
 37 38  1  0
 37115  1  1
 38 39  1  0
 53 38  1  1
 38 97  1  1
 40 39  1  1
 40 43  1  0
 40 41  1  0
 40 45  1  0
 41 42  1  0
 41 43  1  0
 41 98  1  1
 42 99  1  0
 43 44  1  0
 43100  1  6
 44101  1  0
 45 46  1  1
 45 47  1  0
 46102  1  0
 47 48  1  6
 47 51  1  0
 48 49  2  0
 48 50  1  0
 49103  1  0
 49104  1  0
 50105  1  0
 50106  1  0
 50107  1  0
 51 52  1  0
 51108  1  0
 51109  1  0
 53 54  2  0
 53 55  1  0
 55 56  1  0
 55110  1  6
 56 59  1  0
 56 57  1  6
 56 58  1  0
 57111  1  0
 57112  1  0
 57113  1  0
 58 59  1  0
 59114  1  1
M  CHG  1  37   1
M  END
>  <i_m_ct_stereo_status>  (33) 
1

>  <s_m_source_file>  (33) 
/var/tmp/pbs.5075288.sched01/tmpx_bw1ala/724_f_g42c.sdf

>  <i_m_source_file_index>  (33) 
48

>  <i_lp_mmshare_version>  (33) 
48012

>  <i_f3d_flags>  (33) 
0

>  <s_epik_input>  (33) 
W0NIMl09QyhbQ0gzXSkvQyhPW0NIMl0xKT1DMlxDKFtDSDNdKShbQ0gzXSlbQ0BdMyhPW0NIM10pW0NIMl1bQ0BdKE80KShbT0hdKVtDQEBdMShDKD1bQ0gyXSlbQ0gzXSlbQ0BdKFtPSF0pKFtDQEhdKFtDSDJdQyg9W0NIMl0pW0NAXTUoW0NAXTY3W0NAQF0yMzQpW09IXSlDKD1bQ0gyXSlbQ0BASF0oW0NAQEhdNltPSF0pT0MoPU8pW0NIM10pW0NAQF04KFtDQEBIXShbT0hdKVtDQEhdOFtPSF0pT1tDQEhdOU4xW0NAQEhdKFtDSDJdNSlbQ0BIXShbQ0gyXTEpW0NASF0xW0NAQF0oTzEpKFtDSDNdKVtDQEBIXTdbUytdOVtPLV0=

>  <s_epik_cmdline>  (33) 
J2VwaWtfcHl0aG9uJywgJy1waHQnLCAnMi4wJywgJy1waCcsICc3LjAnLCAnLXRuJywgJzgnLCAnLW1hJywgJzIwMCcsICctaW1hZScsICc8aW5maWxlLm1hZT4nLCAnLW9tYWUnLCAnPG91dGZpbGUubWFlPic=

>  <r_epik_Ionization_Penalty>  (33) 
0.00435154

>  <r_epik_Ionization_Penalty_Charging>  (33) 
0.00427699

>  <r_epik_Ionization_Penalty_Neutral>  (33) 
7.45488e-05

>  <r_epik_State_Penalty>  (33) 
0.0030763

>  <r_epik_Charging_Adjusted_Penalty>  (33) 
0.00735329

>  <i_epik_Tot_Q>  (33) 
1

>  <i_epik_Tot_abs_Q>  (33) 
3

>  <s_epik_Chemistry_Notes>  (33) 
This compound has an ester and may undergo hydrolysis at high or low pH. This compound contains an acetal/aminal-like group ( X-CH(R)-Y where X, Y are N, S, or O) that may be acid/base labile, releasing an aldehyde.

>  <s_lp_Force_Field>  (33) 
OPLS3e

>  <r_lp_Energy>  (33) 
485.639

>  <b_lp_Chiralities_Consistent>  (33) 
1

>  <s_lp_Variant>  (33) 
29:0-1

>  <s_i_glide_gridfile>  (33) 
pfpi4k_grid

>  <i_i_glide_lignum>  (33) 
48

>  <i_i_glide_rotatable_bonds>  (33) 
11

>  <r_i_docking_score>  (33) 
-2.68826

>  <r_i_glide_ligand_efficiency>  (33) 
-0.0455638

>  <r_i_glide_ligand_efficiency_sa>  (33) 
-0.17738

>  <r_i_glide_ligand_efficiency_ln>  (33) 
-0.529442

>  <r_i_glide_gscore>  (33) 
-2.68826

>  <r_i_glide_lipo>  (33) 
-0.0794897

>  <r_i_glide_hbond>  (33) 
0

>  <r_i_glide_metal>  (33) 
-0

>  <r_i_glide_rewards>  (33) 
-1.08064

>  <r_i_glide_evdw>  (33) 
-24.8127

>  <r_i_glide_ecoul>  (33) 
-2.22904

>  <r_i_glide_erotb>  (33) 
0.0924652

>  <r_i_glide_esite>  (33) 
-0.0456054

>  <r_i_glide_emodel>  (33) 
-35.9685

>  <r_i_glide_energy>  (33) 
-27.0417

>  <r_i_glide_einternal>  (33) 
11.3252

>  <r_i_glide_intrahb_reward>  (33) 
-1

>  <i_i_glide_confnum>  (33) 
3

>  <i_i_glide_posenum>  (33) 
40

>  <r_i_glide_eff_state_penalty>  (33) 
0

>  <ligand_id>  (33) 
29

>  <original_smiles>  (33) 
C=C(C)C1=C2C(C)(C)C3(OC)CC4(O)OC23C23C(O)C(OC(C)=O)C(=C)C5CC(=C)C2(O)CC2C6CN2C(OC2(C(O)C2O)C5(O)C4(C(=C)C)CO1)[S+]([O-])C3C1(C)OC61

>  <smiles>  (33) 
[H]OC1([H])C([H])(O[H])C12OC1([H])S(=O)C3([H])C4(C([H])([H])[H])OC4([H])C4([H])C([H])([H])[N+]1([H])C4([H])C([H])([H])C1(O[H])C(=C([H])[H])C([H])([H])C4([H])C(=C([H])[H])C([H])(OC(=O)C([H])([H])[H])C([H])(O[H])C13C13OC5(O[H])C([H])([H])C1(OC([H])([H])[H])C(C([H])([H])[H])(C([H])([H])[H])C3=C(C(=C([H])[H])C([H])([H])[H])OC([H])([H])C5(C(=C([H])[H])C([H])([H])[H])C42O[H]

$$$$
29:3:0
     RDKit          3D

115125  0  0  1  0  0  0  0  0999 V2000
    1.7481  -11.8216    4.6392 C   0  0  0  0  0  0  0  0  0  0  0  0
    1.4343  -10.5873    5.0948 C   0  0  0  0  0  0  0  0  0  0  0  0
    0.2503  -10.4345    6.0105 C   0  0  0  0  0  0  0  0  0  0  0  0
    2.2521   -9.4423    4.7979 C   0  0  0  0  0  0  0  0  0  0  0  0
    1.7303   -8.1952    4.5640 C   0  0  0  0  0  0  0  0  0  0  0  0
    0.5393   -8.0085    3.5911 C   0  0  0  0  0  0  0  0  0  0  0  0
    0.0090   -9.2589    2.8325 C   0  0  0  0  0  0  0  0  0  0  0  0
   -0.6779   -7.2109    4.0718 C   0  0  0  0  0  0  0  0  0  0  0  0
    1.6756   -7.2551    2.8732 C   0  0  2  0  0  0  0  0  0  0  0  0
    1.2283   -6.2738    1.9236 O   0  0  0  0  0  0  0  0  0  0  0  0
    0.3864   -6.6971    0.8737 C   0  0  0  0  0  0  0  0  0  0  0  0
    2.8527   -8.1029    2.1945 C   0  0  0  0  0  0  0  0  0  0  0  0
    4.0749   -7.3821    2.7588 C   0  0  1  0  0  0  0  0  0  0  0  0
    4.7184   -6.8460    1.6394 O   0  0  0  0  0  0  0  0  0  0  0  0
    3.3666   -6.4517    3.4006 O   0  0  0  0  0  0  0  0  0  0  0  0
    2.2883   -6.7209    4.2549 C   0  0  2  0  0  0  0  0  0  0  0  0
    2.0866   -5.3121    5.3123 C   0  0  2  0  0  0  0  0  0  0  0  0
    1.7778   -4.3150    4.0976 C   0  0  1  0  0  0  0  0  0  0  0  0
    0.9209   -3.2065    4.3194 O   0  0  0  0  0  0  0  0  0  0  0  0
    3.0060   -3.9037    3.0631 C   0  0  1  0  0  0  0  0  0  0  0  0
    2.8705   -2.5098    2.7351 O   0  0  0  0  0  0  0  0  0  0  0  0
    2.6934   -2.0841    1.4692 C   0  0  0  0  0  0  0  0  0  0  0  0
    2.6764   -0.5673    1.3579 C   0  0  0  0  0  0  0  0  0  0  0  0
    2.5914   -2.8022    0.4763 O   0  0  0  0  0  0  0  0  0  0  0  0
    4.5890   -4.3047    3.0708 C   0  0  0  0  0  0  0  0  0  0  0  0
    5.2913   -4.0437    1.9400 C   0  0  0  0  0  0  0  0  0  0  0  0
    5.4756   -4.9051    4.2553 C   0  0  1  0  0  0  0  0  0  0  0  0
    5.4599   -3.7853    5.3026 C   0  0  0  0  0  0  0  0  0  0  0  0
    4.0559   -3.2294    5.6141 C   0  0  0  0  0  0  0  0  0  0  0  0
    3.8660   -1.9022    5.4168 C   0  0  0  0  0  0  0  0  0  0  0  0
    2.9945   -4.1636    6.2887 C   0  0  1  0  0  0  0  0  0  0  0  0
    1.9712   -3.2801    6.7569 O   0  0  0  0  0  0  0  0  0  0  0  0
    3.7222   -4.2189    7.7290 C   0  0  0  0  0  0  0  0  0  0  0  0
    3.3334   -4.8019    9.1058 C   0  0  1  0  0  0  0  0  0  0  0  0
    1.9763   -5.0661    9.7235 C   0  0  2  0  0  0  0  0  0  0  0  0
    2.5434   -6.3928   10.2173 C   0  0  0  0  0  0  0  0  0  0  0  0
    3.7793   -6.1541    9.4225 N   0  0  1  0  0  0  0  0  0  0  0  0
    4.1217   -7.0443    8.1522 C   0  0  2  0  0  0  0  0  0  0  0  0
    5.3498   -6.4911    7.5942 O   0  0  0  0  0  0  0  0  0  0  0  0
    6.1554   -6.7836    6.3733 C   0  0  2  0  0  0  0  0  0  0  0  0
    7.2710   -7.7489    6.7458 C   0  0  1  0  0  0  0  0  0  0  0  0
    7.7098   -8.6456    5.7269 O   0  0  0  0  0  0  0  0  0  0  0  0
    7.5744   -6.2683    6.6146 C   0  0  1  0  0  0  0  0  0  0  0  0
    8.2143   -5.7904    5.4272 O   0  0  0  0  0  0  0  0  0  0  0  0
    5.5645   -6.4770    4.8593 C   0  0  1  0  0  0  0  0  0  0  0  0
    4.4858   -6.2643    5.5030 O   0  0  0  0  0  0  0  0  0  0  0  0
    5.1624   -7.7947    3.8738 C   0  0  2  0  0  0  0  0  0  0  0  0
    6.3730   -8.3581    3.0931 C   0  0  0  0  0  0  0  0  0  0  0  0
    7.5674   -7.7179    2.9950 C   0  0  0  0  0  0  0  0  0  0  0  0
    6.1484   -9.6599    2.3339 C   0  0  0  0  0  0  0  0  0  0  0  0
    4.6189   -8.9013    4.8789 C   0  0  0  0  0  0  0  0  0  0  0  0
    3.5611   -9.7728    4.5692 O   0  0  0  0  0  0  0  0  0  0  0  0
    2.4603   -7.3981    7.2999 S   0  0  0  0  0  0  0  0  0  0  0  0
    1.6657   -8.4154    8.1109 O   0  0  0  0  0  0  0  0  0  0  0  0
    1.3199   -6.0499    6.5299 C   0  0  1  0  0  0  0  0  0  0  0  0
    0.3639   -5.3745    7.5357 C   0  0  1  0  0  0  0  0  0  0  0  0
   -0.8599   -4.7922    6.8705 C   0  0  0  0  0  0  0  0  0  0  0  0
    0.0292   -6.1803    8.6536 O   0  0  0  0  0  0  0  0  0  0  0  0
    0.6657   -4.9434    8.9799 C   0  0  1  0  0  0  0  0  0  0  0  0
    1.1356  -12.6768    4.8799 H   0  0  0  0  0  0  0  0  0  0  0  0
    2.6226  -12.0196    4.0345 H   0  0  0  0  0  0  0  0  0  0  0  0
    0.5167  -10.0272    6.9840 H   0  0  0  0  0  0  0  0  0  0  0  0
   -0.2041  -11.4031    6.2151 H   0  0  0  0  0  0  0  0  0  0  0  0
   -0.5214   -9.7789    5.5855 H   0  0  0  0  0  0  0  0  0  0  0  0
   -0.5815   -8.9820    1.9618 H   0  0  0  0  0  0  0  0  0  0  0  0
   -0.6631   -9.8722    3.4374 H   0  0  0  0  0  0  0  0  0  0  0  0
    0.7970   -9.9119    2.4586 H   0  0  0  0  0  0  0  0  0  0  0  0
   -1.4242   -7.1152    3.2841 H   0  0  0  0  0  0  0  0  0  0  0  0
   -0.4304   -6.1923    4.3479 H   0  0  0  0  0  0  0  0  0  0  0  0
   -1.1753   -7.7028    4.9079 H   0  0  0  0  0  0  0  0  0  0  0  0
    0.3880   -5.9241    0.1033 H   0  0  0  0  0  0  0  0  0  0  0  0
   -0.6456   -6.8061    1.2026 H   0  0  0  0  0  0  0  0  0  0  0  0
    0.7056   -7.6267    0.4091 H   0  0  0  0  0  0  0  0  0  0  0  0
    2.8864   -9.1837    2.3991 H   0  0  0  0  0  0  0  0  0  0  0  0
    2.8091   -8.0369    1.1117 H   0  0  0  0  0  0  0  0  0  0  0  0
    5.3820   -6.2499    1.9301 H   0  0  0  0  0  0  0  0  0  0  0  0
    1.0294   -4.7993    3.5114 H   0  0  0  0  0  0  0  0  0  0  0  0
    1.3911   -2.5981    4.8694 H   0  0  0  0  0  0  0  0  0  0  0  0
    2.6979   -4.4393    2.1619 H   0  0  0  0  0  0  0  0  0  0  0  0
    3.5752   -0.1363    1.8028 H   0  0  0  0  0  0  0  0  0  0  0  0
    1.7985   -0.1740    1.8686 H   0  0  0  0  0  0  0  0  0  0  0  0
    2.6320   -0.2553    0.3130 H   0  0  0  0  0  0  0  0  0  0  0  0
    4.8132   -3.6596    1.0529 H   0  0  0  0  0  0  0  0  0  0  0  0
    6.3508   -4.2431    1.8497 H   0  0  0  0  0  0  0  0  0  0  0  0
    6.4742   -4.8660    3.8549 H   0  0  0  0  0  0  0  0  0  0  0  0
    6.0641   -4.0289    6.1756 H   0  0  0  0  0  0  0  0  0  0  0  0
    6.0362   -2.9645    4.8767 H   0  0  0  0  0  0  0  0  0  0  0  0
    4.6510   -1.2935    4.9996 H   0  0  0  0  0  0  0  0  0  0  0  0
    2.9493   -1.3844    5.6410 H   0  0  0  0  0  0  0  0  0  0  0  0
    2.3862   -2.5414    7.1806 H   0  0  0  0  0  0  0  0  0  0  0  0
    4.7910   -4.3975    7.6612 H   0  0  0  0  0  0  0  0  0  0  0  0
    3.8254   -3.1760    8.0105 H   0  0  0  0  0  0  0  0  0  0  0  0
    3.8580   -4.2298    9.8784 H   0  0  0  0  0  0  0  0  0  0  0  0
    1.9271   -4.4191   10.5934 H   0  0  0  0  0  0  0  0  0  0  0  0
    2.7615   -6.3839   11.2864 H   0  0  0  0  0  0  0  0  0  0  0  0
    1.9626   -7.2788   10.0024 H   0  0  0  0  0  0  0  0  0  0  0  0
    4.3947   -8.0163    8.5515 H   0  0  0  0  0  0  0  0  0  0  0  0
    7.2489   -8.1777    7.7351 H   0  0  0  0  0  0  0  0  0  0  0  0
    6.9651   -9.2005    5.5405 H   0  0  0  0  0  0  0  0  0  0  0  0
    7.7741   -5.7313    7.5353 H   0  0  0  0  0  0  0  0  0  0  0  0
    9.0290   -6.2519    5.3226 H   0  0  0  0  0  0  0  0  0  0  0  0
    3.7911   -6.1196    4.8795 H   0  0  0  0  0  0  0  0  0  0  0  0
    7.7531   -6.7530    3.4458 H   0  0  0  0  0  0  0  0  0  0  0  0
    8.3622   -8.1896    2.3993 H   0  0  0  0  0  0  0  0  0  0  0  0
    5.2426   -9.6215    1.7182 H   0  0  0  0  0  0  0  0  0  0  0  0
    6.0771  -10.5059    3.0156 H   0  0  0  0  0  0  0  0  0  0  0  0
    6.9761   -9.8337    1.6439 H   0  0  0  0  0  0  0  0  0  0  0  0
    5.4354   -9.5954    5.0588 H   0  0  0  0  0  0  0  0  0  0  0  0
    4.4101   -8.5754    5.8908 H   0  0  0  0  0  0  0  0  0  0  0  0
    0.5769   -6.7216    6.1168 H   0  0  0  0  0  0  0  0  0  0  0  0
   -0.5954   -3.9879    6.1853 H   0  0  0  0  0  0  0  0  0  0  0  0
   -1.5442   -4.3893    7.6169 H   0  0  0  0  0  0  0  0  0  0  0  0
   -1.3986   -5.5671    6.3232 H   0  0  0  0  0  0  0  0  0  0  0  0
    0.0033   -4.1881    9.3885 H   0  0  0  0  0  0  0  0  0  0  0  0
    4.5597   -6.0998   10.0677 H   0  0  0  0  0  0  0  0  0  0  0  0
  1  2  2  0
  1 60  1  0
  1 61  1  0
  2  3  1  0
  2  4  1  0
  3 62  1  0
  3 63  1  0
  3 64  1  0
  4 52  1  0
  4  5  2  3
 16  5  1  1
  5  6  1  0
  6  7  1  0
  6  8  1  0
  6  9  1  0
  7 65  1  0
  7 66  1  0
  7 67  1  0
  8 68  1  0
  8 69  1  0
  8 70  1  0
  9 16  1  0
  9 10  1  6
  9 12  1  0
 10 11  1  0
 11 71  1  0
 11 72  1  0
 11 73  1  0
 12 13  1  0
 12 74  1  0
 12 75  1  0
 13 47  1  0
 13 14  1  6
 13 15  1  0
 14 76  1  0
 15 16  1  0
 16 17  1  0
 17 31  1  1
 17 55  1  0
 17 18  1  0
 18 19  1  0
 18 20  1  0
 18 77  1  6
 19 78  1  0
 20 21  1  0
 20 25  1  0
 20 79  1  6
 21 22  1  0
 22 23  1  0
 22 24  2  0
 23 80  1  0
 23 81  1  0
 23 82  1  0
 25 26  2  0
 25 27  1  0
 26 83  1  0
 26 84  1  0
 27 45  1  0
 27 28  1  0
 27 85  1  6
 28 29  1  0
 28 86  1  0
 28 87  1  0
 29 30  2  0
 29 31  1  0
 30 88  1  0
 30 89  1  0
 31 32  1  1
 31 33  1  0
 32 90  1  0
 33 34  1  0
 33 91  1  0
 33 92  1  0
 34 37  1  0
 34 35  1  0
 34 93  1  1
 35 59  1  0
 35 36  1  0
 35 94  1  1
 36 37  1  0
 36 95  1  0
 36 96  1  0
 37 38  1  0
 37115  1  1
 38 39  1  0
 53 38  1  1
 38 97  1  1
 40 39  1  1
 40 43  1  0
 40 41  1  0
 40 45  1  0
 41 42  1  0
 41 43  1  0
 41 98  1  1
 42 99  1  0
 43 44  1  0
 43100  1  1
 44101  1  0
 45 46  1  1
 45 47  1  0
 46102  1  0
 47 48  1  6
 47 51  1  0
 48 49  2  0
 48 50  1  0
 49103  1  0
 49104  1  0
 50105  1  0
 50106  1  0
 50107  1  0
 51 52  1  0
 51108  1  0
 51109  1  0
 53 54  2  0
 53 55  1  0
 55 56  1  0
 55110  1  6
 56 59  1  0
 56 57  1  6
 56 58  1  0
 57111  1  0
 57112  1  0
 57113  1  0
 58 59  1  0
 59114  1  1
M  CHG  1  37   1
M  END
>  <i_m_ct_stereo_status>  (34) 
1

>  <s_m_source_file>  (34) 
/var/tmp/pbs.5075288.sched01/tmpx_bw1ala/724_f_g42c.sdf

>  <i_m_source_file_index>  (34) 
51

>  <i_lp_mmshare_version>  (34) 
48012

>  <i_f3d_flags>  (34) 
0

>  <s_epik_input>  (34) 
W0NIMl09QyhbQ0gzXSkvQyhPW0NIMl0xKT1DMlxDKFtDSDNdKShbQ0gzXSlbQ0BdMyhPW0NIM10pW0NIMl1bQ0BdKE80KShbT0hdKVtDQEBdMShDKD1bQ0gyXSlbQ0gzXSlbQ0BdKFtPSF0pKFtDQEhdKFtDSDJdQyg9W0NIMl0pW0NAXTUoW0NAXTY3W0NAQF0yMzQpW09IXSlDKD1bQ0gyXSlbQ0BASF0oW0NAQEhdNltPSF0pT0MoPU8pW0NIM10pW0NAQF04KFtDQEBIXShbT0hdKVtDQEhdOFtPSF0pT1tDQEhdOU4xW0NAQEhdKFtDSDJdNSlbQ0BIXShbQ0gyXTEpW0NASF0xW0NAQF0oTzEpKFtDSDNdKVtDQEBIXTdbUytdOVtPLV0=

>  <s_epik_cmdline>  (34) 
J2VwaWtfcHl0aG9uJywgJy1waHQnLCAnMi4wJywgJy1waCcsICc3LjAnLCAnLXRuJywgJzgnLCAnLW1hJywgJzIwMCcsICctaW1hZScsICc8aW5maWxlLm1hZT4nLCAnLW9tYWUnLCAnPG91dGZpbGUubWFlPic=

>  <r_epik_Ionization_Penalty>  (34) 
0.00435154

>  <r_epik_Ionization_Penalty_Charging>  (34) 
0.00427699

>  <r_epik_Ionization_Penalty_Neutral>  (34) 
7.45488e-05

>  <r_epik_State_Penalty>  (34) 
0.0030763

>  <r_epik_Charging_Adjusted_Penalty>  (34) 
0.00735329

>  <i_epik_Tot_Q>  (34) 
1

>  <i_epik_Tot_abs_Q>  (34) 
3

>  <s_epik_Chemistry_Notes>  (34) 
This compound has an ester and may undergo hydrolysis at high or low pH. This compound contains an acetal/aminal-like group ( X-CH(R)-Y where X, Y are N, S, or O) that may be acid/base labile, releasing an aldehyde.

>  <s_lp_Force_Field>  (34) 
OPLS3e

>  <r_lp_Energy>  (34) 
484.219

>  <b_lp_Chiralities_Consistent>  (34) 
1

>  <s_lp_Variant>  (34) 
29:0-4

>  <s_i_glide_gridfile>  (34) 
pfpi4k_grid

>  <i_i_glide_lignum>  (34) 
51

>  <i_i_glide_rotatable_bonds>  (34) 
11

>  <r_i_docking_score>  (34) 
-1.62213

>  <r_i_glide_ligand_efficiency>  (34) 
-0.0274938

>  <r_i_glide_ligand_efficiency_sa>  (34) 
-0.107033

>  <r_i_glide_ligand_efficiency_ln>  (34) 
-0.319473

>  <r_i_glide_gscore>  (34) 
-1.62213

>  <r_i_glide_lipo>  (34) 
-0.0917257

>  <r_i_glide_hbond>  (34) 
-0.0761742

>  <r_i_glide_metal>  (34) 
-0

>  <r_i_glide_rewards>  (34) 
0

>  <r_i_glide_evdw>  (34) 
-31.1145

>  <r_i_glide_ecoul>  (34) 
0.306661

>  <r_i_glide_erotb>  (34) 
0.0924652

>  <r_i_glide_esite>  (34) 
-0.0369714

>  <r_i_glide_emodel>  (34) 
-30.1499

>  <r_i_glide_energy>  (34) 
-30.8079

>  <r_i_glide_einternal>  (34) 
3.71538

>  <r_i_glide_intrahb_reward>  (34) 
-0

>  <i_i_glide_confnum>  (34) 
6

>  <i_i_glide_posenum>  (34) 
28

>  <r_i_glide_eff_state_penalty>  (34) 
0

>  <ligand_id>  (34) 
29

>  <original_smiles>  (34) 
C=C(C)C1=C2C(C)(C)C3(OC)CC4(O)OC23C23C(O)C(OC(C)=O)C(=C)C5CC(=C)C2(O)CC2C6CN2C(OC2(C(O)C2O)C5(O)C4(C(=C)C)CO1)[S+]([O-])C3C1(C)OC61

>  <smiles>  (34) 
[H]OC1([H])C([H])(O[H])C12OC1([H])S(=O)C3([H])C4(C([H])([H])[H])OC4([H])C4([H])C([H])([H])[N+]1([H])C4([H])C([H])([H])C1(O[H])C(=C([H])[H])C([H])([H])C4([H])C(=C([H])[H])C([H])(OC(=O)C([H])([H])[H])C([H])(O[H])C13C13OC5(O[H])C([H])([H])C1(OC([H])([H])[H])C(C([H])([H])[H])(C([H])([H])[H])C3=C(C(=C([H])[H])C([H])([H])[H])OC([H])([H])C5(C(=C([H])[H])C([H])([H])[H])C42O[H]

$$$$
38:0:0
     RDKit          3D

 67 72  0  0  1  0  0  0  0  0999 V2000
    1.5651   -6.1927    6.5198 C   0  0  0  0  0  0  0  0  0  0  0  0
    2.8555   -6.0654    5.6778 C   0  0  2  0  0  0  0  0  0  0  0  0
    3.1807   -4.6348    5.1445 C   0  0  1  0  0  0  0  0  0  0  0  0
    5.0278   -4.5827    5.1794 S   0  0  0  0  0  0  0  0  0  0  0  0
    5.4395   -3.1103    5.1186 O   0  0  0  0  0  0  0  0  0  0  0  0
    5.0908   -5.3102    3.4802 C   0  0  2  0  0  0  0  0  0  0  0  0
    6.0754   -6.4598    3.3778 C   0  0  0  0  0  0  0  0  0  0  0  0
    6.3262   -5.2012    2.7679 O   0  0  0  0  0  0  0  0  0  0  0  0
    3.7012   -5.3257    2.8173 C   0  0  2  0  0  0  0  0  0  0  0  0
    3.6451   -4.7068    1.3235 C   0  0  2  0  0  0  0  0  0  0  0  0
    2.4287   -5.2612    0.5015 C   0  0  0  0  0  0  0  0  0  0  0  0
    4.8377   -5.0364    0.3526 C   0  0  0  0  0  0  0  0  0  0  0  0
    5.9135   -3.9669    0.0910 C   0  0  0  0  0  0  0  0  0  0  0  0
    5.3667   -2.5568   -0.2091 C   0  0  1  0  0  0  0  0  0  0  0  0
    6.5839   -1.8148   -0.3080 O   0  0  0  0  0  0  0  0  0  0  0  0
    4.7464   -2.3676   -1.6715 C   0  0  0  0  0  0  0  0  0  0  0  0
    5.5797   -3.0567   -2.7719 C   0  0  0  0  0  0  0  0  0  0  0  0
    3.2929   -2.7866   -1.9051 C   0  0  0  0  0  0  0  0  0  0  0  0
    4.7615   -0.9994   -2.0404 O   0  0  0  0  0  0  0  0  0  0  0  0
    4.5568   -2.0876    1.0877 C   0  0  0  0  0  0  0  0  0  0  0  0
    5.5700   -1.7810    2.2420 C   0  0  0  0  0  0  0  0  0  0  0  0
    3.8589   -0.7239    0.8392 C   0  0  0  0  0  0  0  0  0  0  0  0
    3.4516   -3.1527    1.5652 C   0  0  2  0  0  0  0  0  0  0  0  0
    2.9579   -3.0104    3.0475 C   0  0  0  0  0  0  0  0  0  0  0  0
    2.7903   -4.4226    3.6496 C   0  0  2  0  0  0  0  0  0  0  0  0
    1.3663   -4.9435    3.4322 C   0  0  0  0  0  0  0  0  0  0  0  0
    1.5372   -6.2842    2.9796 O   0  0  0  0  0  0  0  0  0  0  0  0
    2.8824   -6.6443    3.1132 C   0  0  1  0  0  0  0  0  0  0  0  0
    3.2352   -7.6909    2.2368 O   0  0  0  0  0  0  0  0  0  0  0  0
    2.9639   -7.1861    4.5938 C   0  0  1  0  0  0  0  0  0  0  0  0
    4.1011   -7.9902    4.8452 O   0  0  0  0  0  0  0  0  0  0  0  0
    0.6636   -6.2409    5.9104 H   0  0  0  0  0  0  0  0  0  0  0  0
    1.4595   -5.3677    7.2264 H   0  0  0  0  0  0  0  0  0  0  0  0
    1.5870   -7.1166    7.1013 H   0  0  0  0  0  0  0  0  0  0  0  0
    3.6117   -6.2872    6.4361 H   0  0  0  0  0  0  0  0  0  0  0  0
    2.7747   -3.8692    5.8042 H   0  0  0  0  0  0  0  0  0  0  0  0
    6.7100   -6.6846    4.2296 H   0  0  0  0  0  0  0  0  0  0  0  0
    5.8999   -7.2625    2.6635 H   0  0  0  0  0  0  0  0  0  0  0  0
    2.3423   -4.8068   -0.4738 H   0  0  0  0  0  0  0  0  0  0  0  0
    1.4507   -5.0962    0.9225 H   0  0  0  0  0  0  0  0  0  0  0  0
    2.5231   -6.3281    0.3097 H   0  0  0  0  0  0  0  0  0  0  0  0
    5.3036   -5.9761    0.6443 H   0  0  0  0  0  0  0  0  0  0  0  0
    4.4611   -5.2651   -0.6447 H   0  0  0  0  0  0  0  0  0  0  0  0
    6.6081   -3.9099    0.9227 H   0  0  0  0  0  0  0  0  0  0  0  0
    6.5636   -4.3097   -0.7127 H   0  0  0  0  0  0  0  0  0  0  0  0
    7.0356   -1.8916    0.5177 H   0  0  0  0  0  0  0  0  0  0  0  0
    5.5315   -4.1403   -2.6971 H   0  0  0  0  0  0  0  0  0  0  0  0
    6.6299   -2.7634   -2.7422 H   0  0  0  0  0  0  0  0  0  0  0  0
    5.1933   -2.8023   -3.7598 H   0  0  0  0  0  0  0  0  0  0  0  0
    3.2268   -3.8562   -2.0435 H   0  0  0  0  0  0  0  0  0  0  0  0
    2.9008   -2.3640   -2.8292 H   0  0  0  0  0  0  0  0  0  0  0  0
    2.6148   -2.4855   -1.1183 H   0  0  0  0  0  0  0  0  0  0  0  0
    4.1351   -0.5437   -1.5005 H   0  0  0  0  0  0  0  0  0  0  0  0
    5.1151   -1.2331    3.0645 H   0  0  0  0  0  0  0  0  0  0  0  0
    6.3845   -1.1156    1.9547 H   0  0  0  0  0  0  0  0  0  0  0  0
    6.0117   -2.6844    2.6548 H   0  0  0  0  0  0  0  0  0  0  0  0
    3.3910   -0.3488    1.7506 H   0  0  0  0  0  0  0  0  0  0  0  0
    3.0658   -0.7745    0.0936 H   0  0  0  0  0  0  0  0  0  0  0  0
    4.5734    0.0332    0.5063 H   0  0  0  0  0  0  0  0  0  0  0  0
    2.5693   -2.8989    0.9828 H   0  0  0  0  0  0  0  0  0  0  0  0
    3.6192   -2.4467    3.6899 H   0  0  0  0  0  0  0  0  0  0  0  0
    2.0265   -2.4453    3.0839 H   0  0  0  0  0  0  0  0  0  0  0  0
    0.7523   -4.8738    4.3238 H   0  0  0  0  0  0  0  0  0  0  0  0
    0.8176   -4.3566    2.7055 H   0  0  0  0  0  0  0  0  0  0  0  0
    2.7331   -8.4574    2.4738 H   0  0  0  0  0  0  0  0  0  0  0  0
    2.1242   -7.8715    4.7195 H   0  0  0  0  0  0  0  0  0  0  0  0
    4.0432   -8.7658    4.3072 H   0  0  0  0  0  0  0  0  0  0  0  0
  1  2  1  0
  1 32  1  0
  1 33  1  0
  1 34  1  0
  2 30  1  0
  2  3  1  0
  2 35  1  1
  3 25  1  0
  3  4  1  0
  3 36  1  1
  4  5  2  0
  4  6  1  6
  6  8  1  6
  6  7  1  0
  9  6  1  1
  7  8  1  0
  7 37  1  0
  7 38  1  0
  9 25  1  0
  9 28  1  0
  9 10  1  0
 10 23  1  0
 10 11  1  6
 10 12  1  0
 11 39  1  0
 11 40  1  0
 11 41  1  0
 12 13  1  0
 12 42  1  0
 12 43  1  0
 13 14  1  0
 13 44  1  0
 13 45  1  0
 14 15  1  6
 14 16  1  0
 14 20  1  0
 15 46  1  0
 16 17  1  0
 16 18  1  0
 16 19  1  0
 17 47  1  0
 17 48  1  0
 17 49  1  0
 18 50  1  0
 18 51  1  0
 18 52  1  0
 19 53  1  0
 20 21  1  0
 20 22  1  0
 20 23  1  0
 21 54  1  0
 21 55  1  0
 21 56  1  0
 22 57  1  0
 22 58  1  0
 22 59  1  0
 23 24  1  0
 23 60  1  6
 25 24  1  6
 24 61  1  0
 24 62  1  0
 25 26  1  0
 26 27  1  0
 26 63  1  0
 26 64  1  0
 27 28  1  0
 28 29  1  6
 28 30  1  0
 29 65  1  0
 30 31  1  0
 30 66  1  1
 31 67  1  0
M  END
>  <i_m_ct_stereo_status>  (35) 
1

>  <s_m_source_file>  (35) 
/var/tmp/pbs.5075288.sched01/tmpl15vq434/14426guvkcq.sdf

>  <i_m_source_file_index>  (35) 
19

>  <i_lp_mmshare_version>  (35) 
48012

>  <i_f3d_flags>  (35) 
0

>  <s_epik_input>  (35) 
W0NIMl0xT1tDQF0yKFtPSF0pW0NAQEhdKFtPSF0pW0NASF0oW0NIM10pW0NAQEhdKFtTK10zW08tXSlbQ0BdMShbQ0BAXTI0W0NAXTM1W0NIMl1PNSlbQ0gyXVtDQEBIXTZbQ0BAXTQoW0NIM10pW0NIMl1bQ0gyXVtDQEBdKFtPSF0pKEMoW0NIM10pKFtDSDNdKVtPSF0pQzYoW0NIM10pW0NIM10=

>  <s_epik_cmdline>  (35) 
J2VwaWtfcHl0aG9uJywgJy1waHQnLCAnMi4wJywgJy1waCcsICc3LjAnLCAnLXRuJywgJzgnLCAnLW1hJywgJzIwMCcsICctaW1hZScsICc8aW5maWxlLm1hZT4nLCAnLW9tYWUnLCAnPG91dGZpbGUubWFlPic=

>  <r_lp_tautomer_probability>  (35) 
1

>  <r_epik_Ionization_Penalty>  (35) 
1.74367e-06

>  <r_epik_Ionization_Penalty_Charging>  (35) 
0

>  <r_epik_Ionization_Penalty_Neutral>  (35) 
1.74367e-06

>  <r_epik_State_Penalty>  (35) 
-0

>  <r_epik_Charging_Adjusted_Penalty>  (35) 
0

>  <i_epik_Tot_Q>  (35) 
0

>  <i_epik_Tot_abs_Q>  (35) 
2

>  <s_lp_Force_Field>  (35) 
OPLS3e

>  <r_lp_Energy>  (35) 
104.672

>  <b_lp_Chiralities_Consistent>  (35) 
1

>  <s_lp_Variant>  (35) 
38:0-1

>  <s_i_glide_gridfile>  (35) 
pfpi4k_grid

>  <i_i_glide_lignum>  (35) 
19

>  <i_i_glide_rotatable_bonds>  (35) 
5

>  <r_i_docking_score>  (35) 
-2.81176

>  <r_i_glide_ligand_efficiency>  (35) 
-0.0907018

>  <r_i_glide_ligand_efficiency_sa>  (35) 
-0.284929

>  <r_i_glide_ligand_efficiency_ln>  (35) 
-0.634137

>  <r_i_glide_gscore>  (35) 
-2.81176

>  <r_i_glide_lipo>  (35) 
-0.439897

>  <r_i_glide_hbond>  (35) 
0

>  <r_i_glide_metal>  (35) 
-0

>  <r_i_glide_rewards>  (35) 
-0.296117

>  <r_i_glide_evdw>  (35) 
-28.7547

>  <r_i_glide_ecoul>  (35) 
-4.88904

>  <r_i_glide_erotb>  (35) 
0.0964046

>  <r_i_glide_esite>  (35) 
-0.00105536

>  <r_i_glide_emodel>  (35) 
-37.4813

>  <r_i_glide_energy>  (35) 
-33.6437

>  <r_i_glide_einternal>  (35) 
3.92812

>  <r_i_glide_intrahb_reward>  (35) 
-0

>  <i_i_glide_confnum>  (35) 
6

>  <i_i_glide_posenum>  (35) 
13

>  <r_i_glide_eff_state_penalty>  (35) 
0

>  <ligand_id>  (35) 
38

>  <original_smiles>  (35) 
CC1C2[S+]([O-])C3(CO3)C34C5(C)CCC(O)(C(C)(C)O)C(C)(C)C5CC23COC4(O)C1O

>  <smiles>  (35) 
[H]OC1([H])C2(O[H])OC([H])([H])C34C([H])([H])C5([H])C(C([H])([H])[H])(C([H])([H])[H])C(O[H])(C(O[H])(C([H])([H])[H])C([H])([H])[H])C([H])([H])C([H])([H])C5(C([H])([H])[H])C23C2(OC2([H])[H])S(=O)C4([H])C1([H])C([H])([H])[H]

$$$$
38:0:1
     RDKit          3D

 67 72  0  0  1  0  0  0  0  0999 V2000
    1.7218   -6.3476    6.3341 C   0  0  0  0  0  0  0  0  0  0  0  0
    2.9861   -6.1819    5.4764 C   0  0  2  0  0  0  0  0  0  0  0  0
    3.2949   -4.7375    4.9913 C   0  0  1  0  0  0  0  0  0  0  0  0
    5.1380   -4.7167    4.9725 S   0  0  0  0  0  0  0  0  0  0  0  0
    5.5099   -3.2329    4.9881 O   0  0  0  0  0  0  0  0  0  0  0  0
    5.1809   -5.3520    3.2377 C   0  0  2  0  0  0  0  0  0  0  0  0
    6.1602   -6.4990    3.0960 C   0  0  0  0  0  0  0  0  0  0  0  0
    6.3931   -5.2394    2.4795 O   0  0  0  0  0  0  0  0  0  0  0  0
    3.7664   -5.3610    2.6225 C   0  0  2  0  0  0  0  0  0  0  0  0
    3.6575   -4.7047    1.1395 C   0  0  2  0  0  0  0  0  0  0  0  0
    2.4027   -5.2656    0.3640 C   0  0  0  0  0  0  0  0  0  0  0  0
    4.8417   -5.0120    0.1523 C   0  0  0  0  0  0  0  0  0  0  0  0
    5.8949   -3.9102   -0.1232 C   0  0  0  0  0  0  0  0  0  0  0  0
    5.3362   -2.4926   -0.3730 C   0  0  1  0  0  0  0  0  0  0  0  0
    6.5369   -1.7237   -0.4617 O   0  0  0  0  0  0  0  0  0  0  0  0
    4.6804   -2.2428   -1.8150 C   0  0  0  0  0  0  0  0  0  0  0  0
    3.2810   -2.8203   -2.0378 C   0  0  0  0  0  0  0  0  0  0  0  0
    4.6375   -0.8009   -2.3363 C   0  0  0  0  0  0  0  0  0  0  0  0
    5.4501   -2.9516   -2.7699 O   0  0  0  0  0  0  0  0  0  0  0  0
    4.5642   -2.0794    0.9668 C   0  0  0  0  0  0  0  0  0  0  0  0
    5.6085   -1.7976    2.1013 C   0  0  0  0  0  0  0  0  0  0  0  0
    3.8615   -0.7144    0.8014 C   0  0  0  0  0  0  0  0  0  0  0  0
    3.4750   -3.1589    1.4294 C   0  0  2  0  0  0  0  0  0  0  0  0
    3.0219   -3.0462    2.9281 C   0  0  0  0  0  0  0  0  0  0  0  0
    2.8736   -4.4753    3.5091 C   0  0  2  0  0  0  0  0  0  0  0  0
    1.4502   -5.0001    3.3190 C   0  0  0  0  0  0  0  0  0  0  0  0
    1.6199   -6.3289    2.8306 O   0  0  0  0  0  0  0  0  0  0  0  0
    2.9593   -6.6867    2.9064 C   0  0  1  0  0  0  0  0  0  0  0  0
    3.2838   -7.7034    1.9861 O   0  0  0  0  0  0  0  0  0  0  0  0
    3.0851   -7.2672    4.3528 C   0  0  1  0  0  0  0  0  0  0  0  0
    4.2477   -8.0386    4.5764 O   0  0  0  0  0  0  0  0  0  0  0  0
    0.8104   -6.3817    5.7413 H   0  0  0  0  0  0  0  0  0  0  0  0
    1.6280   -5.5455    7.0661 H   0  0  0  0  0  0  0  0  0  0  0  0
    1.7611   -7.2871    6.8863 H   0  0  0  0  0  0  0  0  0  0  0  0
    3.7652   -6.4276    6.2065 H   0  0  0  0  0  0  0  0  0  0  0  0
    2.8798   -3.9933    5.6829 H   0  0  0  0  0  0  0  0  0  0  0  0
    6.8220   -6.7261    3.9282 H   0  0  0  0  0  0  0  0  0  0  0  0
    5.9923   -7.3027    2.3728 H   0  0  0  0  0  0  0  0  0  0  0  0
    2.1953   -4.8020   -0.5847 H   0  0  0  0  0  0  0  0  0  0  0  0
    1.4558   -5.1730    0.8730 H   0  0  0  0  0  0  0  0  0  0  0  0
    2.5126   -6.3287    0.1491 H   0  0  0  0  0  0  0  0  0  0  0  0
    5.3596   -5.9128    0.4560 H   0  0  0  0  0  0  0  0  0  0  0  0
    4.4456   -5.3254   -0.8120 H   0  0  0  0  0  0  0  0  0  0  0  0
    6.6288   -3.8583    0.6763 H   0  0  0  0  0  0  0  0  0  0  0  0
    6.5399   -4.2226   -0.9337 H   0  0  0  0  0  0  0  0  0  0  0  0
    6.9963   -1.8489    0.3526 H   0  0  0  0  0  0  0  0  0  0  0  0
    2.5644   -2.4224   -1.3188 H   0  0  0  0  0  0  0  0  0  0  0  0
    3.3478   -3.8925   -1.9764 H   0  0  0  0  0  0  0  0  0  0  0  0
    2.8936   -2.5865   -3.0410 H   0  0  0  0  0  0  0  0  0  0  0  0
    3.8548   -0.2322   -1.8687 H   0  0  0  0  0  0  0  0  0  0  0  0
    4.4122   -0.8067   -3.3995 H   0  0  0  0  0  0  0  0  0  0  0  0
    5.5648   -0.2609   -2.1930 H   0  0  0  0  0  0  0  0  0  0  0  0
    5.3241   -3.8777   -2.6164 H   0  0  0  0  0  0  0  0  0  0  0  0
    5.1656   -1.2784    2.9475 H   0  0  0  0  0  0  0  0  0  0  0  0
    6.4110   -1.1098    1.8262 H   0  0  0  0  0  0  0  0  0  0  0  0
    6.0710   -2.7034    2.4813 H   0  0  0  0  0  0  0  0  0  0  0  0
    3.4329   -0.3680    1.7425 H   0  0  0  0  0  0  0  0  0  0  0  0
    3.0307   -0.7611    0.1068 H   0  0  0  0  0  0  0  0  0  0  0  0
    4.5542    0.0558    0.4512 H   0  0  0  0  0  0  0  0  0  0  0  0
    2.5940   -2.9064    0.8512 H   0  0  0  0  0  0  0  0  0  0  0  0
    3.6947   -2.5003    3.5755 H   0  0  0  0  0  0  0  0  0  0  0  0
    2.0875   -2.4923    2.9935 H   0  0  0  0  0  0  0  0  0  0  0  0
    0.8485   -4.9645    4.2128 H   0  0  0  0  0  0  0  0  0  0  0  0
    0.8790   -4.3942    2.6317 H   0  0  0  0  0  0  0  0  0  0  0  0
    3.3066   -7.3300    1.1208 H   0  0  0  0  0  0  0  0  0  0  0  0
    2.2564   -7.9708    4.4596 H   0  0  0  0  0  0  0  0  0  0  0  0
    4.0918   -8.6081    5.3142 H   0  0  0  0  0  0  0  0  0  0  0  0
  1  2  1  0
  1 32  1  0
  1 33  1  0
  1 34  1  0
  2 30  1  0
  2  3  1  0
  2 35  1  1
  3 25  1  0
  3  4  1  0
  3 36  1  1
  4  5  2  0
  4  6  1  6
  6  8  1  6
  6  7  1  0
  9  6  1  1
  7  8  1  0
  7 37  1  0
  7 38  1  0
  9 25  1  0
  9 28  1  0
  9 10  1  0
 10 23  1  0
 10 11  1  6
 10 12  1  0
 11 39  1  0
 11 40  1  0
 11 41  1  0
 12 13  1  0
 12 42  1  0
 12 43  1  0
 13 14  1  0
 13 44  1  0
 13 45  1  0
 14 15  1  6
 14 16  1  0
 14 20  1  0
 15 46  1  0
 16 17  1  0
 16 18  1  0
 16 19  1  0
 17 47  1  0
 17 48  1  0
 17 49  1  0
 18 50  1  0
 18 51  1  0
 18 52  1  0
 19 53  1  0
 20 21  1  0
 20 22  1  0
 20 23  1  0
 21 54  1  0
 21 55  1  0
 21 56  1  0
 22 57  1  0
 22 58  1  0
 22 59  1  0
 23 24  1  0
 23 60  1  6
 25 24  1  6
 24 61  1  0
 24 62  1  0
 25 26  1  0
 26 27  1  0
 26 63  1  0
 26 64  1  0
 27 28  1  0
 28 29  1  6
 28 30  1  0
 29 65  1  0
 30 31  1  0
 30 66  1  1
 31 67  1  0
M  END
>  <i_m_ct_stereo_status>  (36) 
1

>  <s_m_source_file>  (36) 
/var/tmp/pbs.5075288.sched01/tmpl15vq434/14426guvkcq.sdf

>  <i_m_source_file_index>  (36) 
19

>  <i_lp_mmshare_version>  (36) 
48012

>  <i_f3d_flags>  (36) 
0

>  <s_epik_input>  (36) 
W0NIMl0xT1tDQF0yKFtPSF0pW0NAQEhdKFtPSF0pW0NASF0oW0NIM10pW0NAQEhdKFtTK10zW08tXSlbQ0BdMShbQ0BAXTI0W0NAXTM1W0NIMl1PNSlbQ0gyXVtDQEBIXTZbQ0BAXTQoW0NIM10pW0NIMl1bQ0gyXVtDQEBdKFtPSF0pKEMoW0NIM10pKFtDSDNdKVtPSF0pQzYoW0NIM10pW0NIM10=

>  <s_epik_cmdline>  (36) 
J2VwaWtfcHl0aG9uJywgJy1waHQnLCAnMi4wJywgJy1waCcsICc3LjAnLCAnLXRuJywgJzgnLCAnLW1hJywgJzIwMCcsICctaW1hZScsICc8aW5maWxlLm1hZT4nLCAnLW9tYWUnLCAnPG91dGZpbGUubWFlPic=

>  <r_lp_tautomer_probability>  (36) 
1

>  <r_epik_Ionization_Penalty>  (36) 
1.74367e-06

>  <r_epik_Ionization_Penalty_Charging>  (36) 
0

>  <r_epik_Ionization_Penalty_Neutral>  (36) 
1.74367e-06

>  <r_epik_State_Penalty>  (36) 
-0

>  <r_epik_Charging_Adjusted_Penalty>  (36) 
0

>  <i_epik_Tot_Q>  (36) 
0

>  <i_epik_Tot_abs_Q>  (36) 
2

>  <s_lp_Force_Field>  (36) 
OPLS3e

>  <r_lp_Energy>  (36) 
104.672

>  <b_lp_Chiralities_Consistent>  (36) 
1

>  <s_lp_Variant>  (36) 
38:0-1

>  <s_i_glide_gridfile>  (36) 
pfpi4k_grid

>  <i_i_glide_lignum>  (36) 
19

>  <i_i_glide_rotatable_bonds>  (36) 
5

>  <r_i_docking_score>  (36) 
-2.53386

>  <r_i_glide_ligand_efficiency>  (36) 
-0.0817375

>  <r_i_glide_ligand_efficiency_sa>  (36) 
-0.256769

>  <r_i_glide_ligand_efficiency_ln>  (36) 
-0.571464

>  <r_i_glide_gscore>  (36) 
-2.53386

>  <r_i_glide_lipo>  (36) 
-0.215728

>  <r_i_glide_hbond>  (36) 
0

>  <r_i_glide_metal>  (36) 
-0

>  <r_i_glide_rewards>  (36) 
-0.296361

>  <r_i_glide_evdw>  (36) 
-27.81

>  <r_i_glide_ecoul>  (36) 
-4.84442

>  <r_i_glide_erotb>  (36) 
0.0964046

>  <r_i_glide_esite>  (36) 
-0.00101472

>  <r_i_glide_emodel>  (36) 
-36.0904

>  <r_i_glide_energy>  (36) 
-32.6544

>  <r_i_glide_einternal>  (36) 
2.85145

>  <r_i_glide_intrahb_reward>  (36) 
-0

>  <i_i_glide_confnum>  (36) 
4

>  <i_i_glide_posenum>  (36) 
2

>  <r_i_glide_eff_state_penalty>  (36) 
0

>  <ligand_id>  (36) 
38

>  <original_smiles>  (36) 
CC1C2[S+]([O-])C3(CO3)C34C5(C)CCC(O)(C(C)(C)O)C(C)(C)C5CC23COC4(O)C1O

>  <smiles>  (36) 
[H]OC1([H])C2(O[H])OC([H])([H])C34C([H])([H])C5([H])C(C([H])([H])[H])(C([H])([H])[H])C(O[H])(C(O[H])(C([H])([H])[H])C([H])([H])[H])C([H])([H])C([H])([H])C5(C([H])([H])[H])C23C2(OC2([H])[H])S(=O)C4([H])C1([H])C([H])([H])[H]

$$$$
38:0:2
     RDKit          3D

 67 72  0  0  1  0  0  0  0  0999 V2000
    1.6099   -5.9093    6.7972 C   0  0  0  0  0  0  0  0  0  0  0  0
    2.8688   -5.8398    5.9104 C   0  0  2  0  0  0  0  0  0  0  0  0
    3.1733   -4.4458    5.2760 C   0  0  1  0  0  0  0  0  0  0  0  0
    5.0205   -4.4238    5.2318 S   0  0  0  0  0  0  0  0  0  0  0  0
    5.4198   -2.9533    5.0751 O   0  0  0  0  0  0  0  0  0  0  0  0
    5.0296   -5.2392    3.5850 C   0  0  2  0  0  0  0  0  0  0  0  0
    5.9945   -6.4093    3.5195 C   0  0  0  0  0  0  0  0  0  0  0  0
    6.2298   -5.2024    2.8062 O   0  0  0  0  0  0  0  0  0  0  0  0
    3.6040   -5.2971    2.9706 C   0  0  2  0  0  0  0  0  0  0  0  0
    3.4945   -4.7954    1.4444 C   0  0  2  0  0  0  0  0  0  0  0  0
    2.2409   -5.4348    0.7263 C   0  0  0  0  0  0  0  0  0  0  0  0
    4.6593   -5.2008    0.4690 C   0  0  0  0  0  0  0  0  0  0  0  0
    5.7101   -4.1411    0.0822 C   0  0  0  0  0  0  0  0  0  0  0  0
    5.1603   -2.7423   -0.2919 C   0  0  1  0  0  0  0  0  0  0  0  0
    6.3674   -2.0201   -0.5020 O   0  0  0  0  0  0  0  0  0  0  0  0
    4.4770   -2.6261   -1.7342 C   0  0  0  0  0  0  0  0  0  0  0  0
    3.0688   -3.1928   -1.8668 C   0  0  0  0  0  0  0  0  0  0  0  0
    4.4459   -1.2306   -2.4006 C   0  0  0  0  0  0  0  0  0  0  0  0
    5.2420   -3.4255   -2.6199 O   0  0  0  0  0  0  0  0  0  0  0  0
    4.4121   -2.1999    1.0096 C   0  0  0  0  0  0  0  0  0  0  0  0
    5.4725   -1.8215    2.0986 C   0  0  0  0  0  0  0  0  0  0  0  0
    3.7237   -0.8485    0.7179 C   0  0  0  0  0  0  0  0  0  0  0  0
    3.3167   -3.2247    1.5820 C   0  0  2  0  0  0  0  0  0  0  0  0
    2.8822   -2.9674    3.0684 C   0  0  0  0  0  0  0  0  0  0  0  0
    2.7330   -4.3281    3.7868 C   0  0  2  0  0  0  0  0  0  0  0  0
    1.2982   -4.8587    3.6584 C   0  0  0  0  0  0  0  0  0  0  0  0
    1.4590   -6.2270    3.3023 O   0  0  0  0  0  0  0  0  0  0  0  0
    2.8109   -6.5857    3.3992 C   0  0  1  0  0  0  0  0  0  0  0  0
    3.1328   -7.6789    2.5801 O   0  0  0  0  0  0  0  0  0  0  0  0
    2.9379   -7.0292    4.8977 C   0  0  1  0  0  0  0  0  0  0  0  0
    4.0607   -7.8442    5.1849 O   0  0  0  0  0  0  0  0  0  0  0  0
    0.6884   -5.9949    6.2231 H   0  0  0  0  0  0  0  0  0  0  0  0
    1.5312   -5.0408    7.4508 H   0  0  0  0  0  0  0  0  0  0  0  0
    1.6515   -6.7938    7.4350 H   0  0  0  0  0  0  0  0  0  0  0  0
    3.6512   -6.0187    6.6520 H   0  0  0  0  0  0  0  0  0  0  0  0
    2.7852   -3.6372    5.8993 H   0  0  0  0  0  0  0  0  0  0  0  0
    6.6815   -6.5697    4.3574 H   0  0  0  0  0  0  0  0  0  0  0  0
    5.8135   -7.2605    2.8738 H   0  0  0  0  0  0  0  0  0  0  0  0
    2.0118   -5.0592   -0.2563 H   0  0  0  0  0  0  0  0  0  0  0  0
    1.3147   -5.2791    1.2421 H   0  0  0  0  0  0  0  0  0  0  0  0
    2.3221   -6.5139    0.6117 H   0  0  0  0  0  0  0  0  0  0  0  0
    5.1640   -6.0899    0.8377 H   0  0  0  0  0  0  0  0  0  0  0  0
    4.2522   -5.5742   -0.4664 H   0  0  0  0  0  0  0  0  0  0  0  0
    6.4544   -4.0169    0.8661 H   0  0  0  0  0  0  0  0  0  0  0  0
    6.3278   -4.5478   -0.7151 H   0  0  0  0  0  0  0  0  0  0  0  0
    6.8673   -2.5412   -1.1152 H   0  0  0  0  0  0  0  0  0  0  0  0
    2.3450   -2.7202   -1.2080 H   0  0  0  0  0  0  0  0  0  0  0  0
    3.1207   -4.2461   -1.6536 H   0  0  0  0  0  0  0  0  0  0  0  0
    2.6736   -3.1047   -2.8849 H   0  0  0  0  0  0  0  0  0  0  0  0
    3.6674   -0.5972   -1.9906 H   0  0  0  0  0  0  0  0  0  0  0  0
    4.2065   -1.3397   -3.4578 H   0  0  0  0  0  0  0  0  0  0  0  0
    5.3817   -0.6839   -2.3289 H   0  0  0  0  0  0  0  0  0  0  0  0
    4.9489   -4.3265   -2.5299 H   0  0  0  0  0  0  0  0  0  0  0  0
    5.0527   -1.2107    2.8956 H   0  0  0  0  0  0  0  0  0  0  0  0
    6.2805   -1.1877    1.7269 H   0  0  0  0  0  0  0  0  0  0  0  0
    5.9314   -2.6921    2.5558 H   0  0  0  0  0  0  0  0  0  0  0  0
    3.2965   -0.4063    1.6182 H   0  0  0  0  0  0  0  0  0  0  0  0
    2.8955   -0.9593    0.0275 H   0  0  0  0  0  0  0  0  0  0  0  0
    4.4201   -0.1212    0.2866 H   0  0  0  0  0  0  0  0  0  0  0  0
    2.4270   -3.0139    0.9976 H   0  0  0  0  0  0  0  0  0  0  0  0
    3.5713   -2.3658    3.6485 H   0  0  0  0  0  0  0  0  0  0  0  0
    1.9552   -2.3964    3.0982 H   0  0  0  0  0  0  0  0  0  0  0  0
    0.7176   -4.7308    4.5649 H   0  0  0  0  0  0  0  0  0  0  0  0
    0.7096   -4.3165    2.9259 H   0  0  0  0  0  0  0  0  0  0  0  0
    3.1919   -7.3711    1.6858 H   0  0  0  0  0  0  0  0  0  0  0  0
    2.1000   -7.7013    5.0828 H   0  0  0  0  0  0  0  0  0  0  0  0
    4.8566   -7.3457    5.0402 H   0  0  0  0  0  0  0  0  0  0  0  0
  1  2  1  0
  1 32  1  0
  1 33  1  0
  1 34  1  0
  2 30  1  0
  2  3  1  0
  2 35  1  1
  3 25  1  0
  3  4  1  0
  3 36  1  1
  4  5  2  0
  4  6  1  6
  6  8  1  6
  6  7  1  0
  9  6  1  1
  7  8  1  0
  7 37  1  0
  7 38  1  0
  9 25  1  0
  9 28  1  0
  9 10  1  0
 10 23  1  0
 10 11  1  6
 10 12  1  0
 11 39  1  0
 11 40  1  0
 11 41  1  0
 12 13  1  0
 12 42  1  0
 12 43  1  0
 13 14  1  0
 13 44  1  0
 13 45  1  0
 14 15  1  6
 14 16  1  0
 14 20  1  0
 15 46  1  0
 16 17  1  0
 16 18  1  0
 16 19  1  0
 17 47  1  0
 17 48  1  0
 17 49  1  0
 18 50  1  0
 18 51  1  0
 18 52  1  0
 19 53  1  0
 20 21  1  0
 20 22  1  0
 20 23  1  0
 21 54  1  0
 21 55  1  0
 21 56  1  0
 22 57  1  0
 22 58  1  0
 22 59  1  0
 23 24  1  0
 23 60  1  6
 25 24  1  6
 24 61  1  0
 24 62  1  0
 25 26  1  0
 26 27  1  0
 26 63  1  0
 26 64  1  0
 27 28  1  0
 28 29  1  6
 28 30  1  0
 29 65  1  0
 30 31  1  0
 30 66  1  1
 31 67  1  0
M  END
>  <i_m_ct_stereo_status>  (37) 
1

>  <s_m_source_file>  (37) 
/var/tmp/pbs.5075288.sched01/tmpl15vq434/14426guvkcq.sdf

>  <i_m_source_file_index>  (37) 
19

>  <i_lp_mmshare_version>  (37) 
48012

>  <i_f3d_flags>  (37) 
0

>  <s_epik_input>  (37) 
W0NIMl0xT1tDQF0yKFtPSF0pW0NAQEhdKFtPSF0pW0NASF0oW0NIM10pW0NAQEhdKFtTK10zW08tXSlbQ0BdMShbQ0BAXTI0W0NAXTM1W0NIMl1PNSlbQ0gyXVtDQEBIXTZbQ0BAXTQoW0NIM10pW0NIMl1bQ0gyXVtDQEBdKFtPSF0pKEMoW0NIM10pKFtDSDNdKVtPSF0pQzYoW0NIM10pW0NIM10=

>  <s_epik_cmdline>  (37) 
J2VwaWtfcHl0aG9uJywgJy1waHQnLCAnMi4wJywgJy1waCcsICc3LjAnLCAnLXRuJywgJzgnLCAnLW1hJywgJzIwMCcsICctaW1hZScsICc8aW5maWxlLm1hZT4nLCAnLW9tYWUnLCAnPG91dGZpbGUubWFlPic=

>  <r_lp_tautomer_probability>  (37) 
1

>  <r_epik_Ionization_Penalty>  (37) 
1.74367e-06

>  <r_epik_Ionization_Penalty_Charging>  (37) 
0

>  <r_epik_Ionization_Penalty_Neutral>  (37) 
1.74367e-06

>  <r_epik_State_Penalty>  (37) 
-0

>  <r_epik_Charging_Adjusted_Penalty>  (37) 
0

>  <i_epik_Tot_Q>  (37) 
0

>  <i_epik_Tot_abs_Q>  (37) 
2

>  <s_lp_Force_Field>  (37) 
OPLS3e

>  <r_lp_Energy>  (37) 
104.672

>  <b_lp_Chiralities_Consistent>  (37) 
1

>  <s_lp_Variant>  (37) 
38:0-1

>  <s_i_glide_gridfile>  (37) 
pfpi4k_grid

>  <i_i_glide_lignum>  (37) 
19

>  <i_i_glide_rotatable_bonds>  (37) 
5

>  <r_i_docking_score>  (37) 
-2.35896

>  <r_i_glide_ligand_efficiency>  (37) 
-0.0760955

>  <r_i_glide_ligand_efficiency_sa>  (37) 
-0.239045

>  <r_i_glide_ligand_efficiency_ln>  (37) 
-0.532018

>  <r_i_glide_gscore>  (37) 
-2.35896

>  <r_i_glide_lipo>  (37) 
-0.263051

>  <r_i_glide_hbond>  (37) 
0

>  <r_i_glide_metal>  (37) 
-0

>  <r_i_glide_rewards>  (37) 
-0.296098

>  <r_i_glide_evdw>  (37) 
-27.6951

>  <r_i_glide_ecoul>  (37) 
-3.40598

>  <r_i_glide_erotb>  (37) 
0.0964046

>  <r_i_glide_esite>  (37) 
-0.000565797

>  <r_i_glide_emodel>  (37) 
-33.8808

>  <r_i_glide_energy>  (37) 
-31.101

>  <r_i_glide_einternal>  (37) 
2.94893

>  <r_i_glide_intrahb_reward>  (37) 
-0

>  <i_i_glide_confnum>  (37) 
6

>  <i_i_glide_posenum>  (37) 
9

>  <r_i_glide_eff_state_penalty>  (37) 
0

>  <ligand_id>  (37) 
38

>  <original_smiles>  (37) 
CC1C2[S+]([O-])C3(CO3)C34C5(C)CCC(O)(C(C)(C)O)C(C)(C)C5CC23COC4(O)C1O

>  <smiles>  (37) 
[H]OC1([H])C2(O[H])OC([H])([H])C34C([H])([H])C5([H])C(C([H])([H])[H])(C([H])([H])[H])C(O[H])(C(O[H])(C([H])([H])[H])C([H])([H])[H])C([H])([H])C([H])([H])C5(C([H])([H])[H])C23C2(OC2([H])[H])S(=O)C4([H])C1([H])C([H])([H])[H]

$$$$
41:0:0
     RDKit          3D

110118  0  0  1  0  0  0  0  0999 V2000
   -4.1685    2.9459    8.3144 C   0  0  0  0  0  0  0  0  0  0  0  0
   -3.0534    2.3991    7.8046 C   0  0  0  0  0  0  0  0  0  0  0  0
   -1.5992    2.8513    8.0281 C   0  0  1  0  0  0  0  0  0  0  0  0
   -1.6216    4.1012    8.9503 C   0  0  0  0  0  0  0  0  0  0  0  0
   -0.8895    1.6538    8.7225 C   0  0  0  0  0  0  0  0  0  0  0  0
    0.6479    1.5809    8.8297 C   0  0  2  0  0  0  0  0  0  0  0  0
    1.4096    3.1462    9.4195 S   0  0  0  0  0  0  0  0  0  0  0  0
    2.4086    2.7597   10.5287 O   0  0  0  0  0  0  0  0  0  0  0  0
    2.2806    2.9015    7.8245 C   0  0  1  0  0  0  0  0  0  0  0  0
    3.7873    3.0776    7.9812 C   0  0  0  0  0  0  0  0  0  0  0  0
    4.4913    2.1652    6.9713 C   0  0  0  0  0  0  0  0  0  0  0  0
    5.2648    2.6599    6.1561 O   0  0  0  0  0  0  0  0  0  0  0  0
    4.3172    0.6245    7.1399 C   0  0  2  0  0  0  0  0  0  0  0  0
    5.5154    0.3915    8.1631 C   0  0  0  0  0  0  0  0  0  0  0  0
    4.6168   -0.2588    5.7686 C   0  0  2  0  0  0  0  0  0  0  0  0
    6.0357   -0.1258    5.6349 O   0  0  0  0  0  0  0  0  0  0  0  0
    4.4100    0.3326    4.3068 C   0  0  0  0  0  0  0  0  0  0  0  0
    2.9922    0.3637    3.6572 C   0  0  1  0  0  0  0  0  0  0  0  0
    3.1569    0.4724    2.2606 O   0  0  0  0  0  0  0  0  0  0  0  0
    2.2827   -0.7984    4.0220 O   0  0  0  0  0  0  0  0  0  0  0  0
    2.6553   -2.1786    3.7710 C   0  0  1  0  0  0  0  0  0  0  0  0
    1.3393   -2.7566    4.3752 C   0  0  0  0  0  0  0  0  0  0  0  0
    2.5566   -2.5532    2.2278 C   0  0  1  0  0  0  0  0  0  0  0  0
    3.5629   -1.9803    1.4118 O   0  0  0  0  0  0  0  0  0  0  0  0
    2.5271   -4.0658    1.8371 C   0  0  0  0  0  0  0  0  0  0  0  0
    3.8093   -4.8279    2.2095 C   0  0  2  0  0  0  0  0  0  0  0  0
    4.0801   -6.1778    1.5333 C   0  0  1  0  0  0  0  0  0  0  0  0
    4.6144   -6.0906    0.0969 C   0  0  0  0  0  0  0  0  0  0  0  0
    5.0882   -6.7688    2.5140 C   0  0  0  0  0  0  0  0  0  0  0  0
    5.9011   -7.6466    2.2165 O   0  0  0  0  0  0  0  0  0  0  0  0
    4.9415   -6.1654    3.6982 O   0  0  0  0  0  0  0  0  0  0  0  0
    3.8394   -5.2798    3.6734 C   0  0  1  0  0  0  0  0  0  0  0  0
    3.7064   -4.2767    4.8317 C   0  0  0  0  0  0  0  0  0  0  0  0
    3.1643   -4.8078    5.9480 C   0  0  0  0  0  0  0  0  0  0  0  0
    3.9300   -2.7424    4.5768 C   0  0  1  0  0  0  0  0  0  0  0  0
    5.0391   -2.6639    3.7058 O   0  0  0  0  0  0  0  0  0  0  0  0
    4.5165   -1.8751    5.8207 C   0  0  2  0  0  0  0  0  0  0  0  0
    4.4097   -2.4673    7.2193 C   0  0  0  0  0  0  0  0  0  0  0  0
    3.5240   -2.1333    8.1725 C   0  0  0  0  0  0  0  0  0  0  0  0
    3.4966   -2.8017    9.5362 C   0  0  0  0  0  0  0  0  0  0  0  0
    2.4442   -1.1313    7.8765 C   0  0  0  0  0  0  0  0  0  0  0  0
    2.8743    0.3567    7.8510 C   0  0  1  0  0  0  0  0  0  0  0  0
    3.1491    0.4474    9.2511 O   0  0  0  0  0  0  0  0  0  0  0  0
    1.6699    1.4592    7.6314 C   0  0  1  0  0  0  0  0  0  0  0  0
    0.9857    1.3115    6.2027 C   0  0  2  0  0  0  0  0  0  0  0  0
    0.6881   -0.0411    6.0011 O   0  0  0  0  0  0  0  0  0  0  0  0
    2.0607    1.7494    5.4355 O   0  0  0  0  0  0  0  0  0  0  0  0
    2.1258    1.6335    4.0415 C   0  0  1  0  0  0  0  0  0  0  0  0
    2.8311    2.9510    3.6010 C   0  0  0  0  0  0  0  0  0  0  0  0
    0.7064    1.6182    3.4334 C   0  0  0  0  0  0  0  0  0  0  0  0
   -0.1853    2.5742    4.2489 C   0  0  1  0  0  0  0  0  0  0  0  0
   -1.4045    2.7770    3.5386 O   0  0  0  0  0  0  0  0  0  0  0  0
   -0.3839    2.0782    5.7320 C   0  0  1  0  0  0  0  0  0  0  0  0
   -1.4731    1.1617    5.5990 O   0  0  0  0  0  0  0  0  0  0  0  0
   -0.8716    3.2287    6.6954 C   0  0  1  0  0  0  0  0  0  0  0  0
   -1.7342    4.1033    6.0027 O   0  0  0  0  0  0  0  0  0  0  0  0
   -4.1577    3.8097    8.9663 H   0  0  0  0  0  0  0  0  0  0  0  0
   -5.1371    2.5465    8.0821 H   0  0  0  0  0  0  0  0  0  0  0  0
   -3.1987    1.5368    7.1786 H   0  0  0  0  0  0  0  0  0  0  0  0
   -0.6874    4.6524    8.9783 H   0  0  0  0  0  0  0  0  0  0  0  0
   -1.8914    3.8297    9.9735 H   0  0  0  0  0  0  0  0  0  0  0  0
   -2.3222    4.8529    8.5905 H   0  0  0  0  0  0  0  0  0  0  0  0
   -1.3314    1.5125    9.7138 H   0  0  0  0  0  0  0  0  0  0  0  0
   -1.1713    0.7408    8.1868 H   0  0  0  0  0  0  0  0  0  0  0  0
    0.8817    0.8452    9.5884 H   0  0  0  0  0  0  0  0  0  0  0  0
    1.8972    3.6028    7.0897 H   0  0  0  0  0  0  0  0  0  0  0  0
    4.0675    4.1124    7.7922 H   0  0  0  0  0  0  0  0  0  0  0  0
    4.1606    2.8624    8.9846 H   0  0  0  0  0  0  0  0  0  0  0  0
    5.6156   -0.6253    8.5285 H   0  0  0  0  0  0  0  0  0  0  0  0
    5.4612    1.0176    9.0531 H   0  0  0  0  0  0  0  0  0  0  0  0
    6.4996    0.6693    7.7827 H   0  0  0  0  0  0  0  0  0  0  0  0
    6.2390    0.7921    5.5344 H   0  0  0  0  0  0  0  0  0  0  0  0
    4.8642    1.3112    4.1867 H   0  0  0  0  0  0  0  0  0  0  0  0
    5.0235   -0.2361    3.6033 H   0  0  0  0  0  0  0  0  0  0  0  0
    3.5712   -0.3294    1.9521 H   0  0  0  0  0  0  0  0  0  0  0  0
    1.2093   -3.8275    4.2278 H   0  0  0  0  0  0  0  0  0  0  0  0
    0.4563   -2.2859    3.9377 H   0  0  0  0  0  0  0  0  0  0  0  0
    1.2796   -2.6060    5.4480 H   0  0  0  0  0  0  0  0  0  0  0  0
    1.6242   -2.1224    1.8619 H   0  0  0  0  0  0  0  0  0  0  0  0
    3.2531   -1.9942    0.5159 H   0  0  0  0  0  0  0  0  0  0  0  0
    1.6572   -4.5750    2.2505 H   0  0  0  0  0  0  0  0  0  0  0  0
    2.3842   -4.1390    0.7578 H   0  0  0  0  0  0  0  0  0  0  0  0
    4.6707   -4.2120    1.9507 H   0  0  0  0  0  0  0  0  0  0  0  0
    3.2001   -6.8166    1.5539 H   0  0  0  0  0  0  0  0  0  0  0  0
    4.8356   -7.0854   -0.3002 H   0  0  0  0  0  0  0  0  0  0  0  0
    5.5321   -5.4991    0.0390 H   0  0  0  0  0  0  0  0  0  0  0  0
    3.8784   -5.6344   -0.5693 H   0  0  0  0  0  0  0  0  0  0  0  0
    2.9681   -5.9280    3.7944 H   0  0  0  0  0  0  0  0  0  0  0  0
    2.9777   -5.8666    6.0013 H   0  0  0  0  0  0  0  0  0  0  0  0
    2.8319   -4.2478    6.7990 H   0  0  0  0  0  0  0  0  0  0  0  0
    5.0909   -1.7905    3.3525 H   0  0  0  0  0  0  0  0  0  0  0  0
    5.5576   -2.2116    5.7800 H   0  0  0  0  0  0  0  0  0  0  0  0
    5.1322   -3.2380    7.4507 H   0  0  0  0  0  0  0  0  0  0  0  0
    2.5258   -3.2624    9.7226 H   0  0  0  0  0  0  0  0  0  0  0  0
    3.6891   -2.0852   10.3350 H   0  0  0  0  0  0  0  0  0  0  0  0
    4.2479   -3.5889    9.6066 H   0  0  0  0  0  0  0  0  0  0  0  0
    2.1820   -1.4512    6.8871 H   0  0  0  0  0  0  0  0  0  0  0  0
    1.5689   -1.2948    8.5071 H   0  0  0  0  0  0  0  0  0  0  0  0
    3.3394    1.3474    9.4802 H   0  0  0  0  0  0  0  0  0  0  0  0
    0.5698   -0.1685    5.0744 H   0  0  0  0  0  0  0  0  0  0  0  0
    2.8541    3.0608    2.5180 H   0  0  0  0  0  0  0  0  0  0  0  0
    3.8436    3.0590    3.9634 H   0  0  0  0  0  0  0  0  0  0  0  0
    2.3303    3.8345    3.9887 H   0  0  0  0  0  0  0  0  0  0  0  0
    0.7618    1.9319    2.3918 H   0  0  0  0  0  0  0  0  0  0  0  0
    0.2784    0.6179    3.4128 H   0  0  0  0  0  0  0  0  0  0  0  0
    0.2751    3.5578    4.2868 H   0  0  0  0  0  0  0  0  0  0  0  0
   -1.6673    1.9816    3.1047 H   0  0  0  0  0  0  0  0  0  0  0  0
   -1.3508    0.6948    4.7905 H   0  0  0  0  0  0  0  0  0  0  0  0
   -0.0480    3.8922    6.9082 H   0  0  0  0  0  0  0  0  0  0  0  0
   -2.4105    3.5644    5.6176 H   0  0  0  0  0  0  0  0  0  0  0  0
  1  2  2  0
  1 57  1  0
  1 58  1  0
  2  3  1  0
  2 59  1  0
  3 55  1  0
  3  4  1  1
  3  5  1  0
  4 60  1  0
  4 61  1  0
  4 62  1  0
  5  6  1  0
  5 63  1  0
  5 64  1  0
  6 44  1  0
  7  6  1  6
  6 65  1  1
  7  8  2  0
  7  9  1  0
  9 44  1  0
  9 10  1  0
  9 66  1  6
 10 11  1  0
 10 67  1  0
 10 68  1  0
 11 12  2  0
 11 13  1  0
 13 42  1  0
 13 14  1  1
 13 15  1  0
 14 69  1  0
 14 70  1  0
 14 71  1  0
 15 37  1  0
 15 16  1  6
 15 17  1  0
 16 72  1  0
 17 18  1  0
 17 73  1  0
 17 74  1  0
 18 48  1  0
 18 19  1  6
 18 20  1  0
 19 75  1  0
 20 21  1  0
 21 35  1  0
 21 22  1  1
 21 23  1  0
 22 76  1  0
 22 77  1  0
 22 78  1  0
 23 24  1  0
 23 25  1  0
 23 79  1  6
 24 80  1  0
 25 26  1  0
 25 81  1  0
 25 82  1  0
 26 32  1  0
 26 27  1  0
 26 83  1  1
 27 28  1  0
 27 29  1  0
 27 84  1  6
 28 85  1  0
 28 86  1  0
 28 87  1  0
 29 30  2  0
 29 31  1  0
 31 32  1  0
 32 33  1  0
 32 88  1  6
 33 34  2  0
 33 35  1  0
 34 89  1  0
 34 90  1  0
 35 36  1  6
 35 37  1  0
 36 91  1  0
 37 38  1  0
 37 92  1  6
 38 39  2  0
 38 93  1  0
 39 40  1  0
 39 41  1  0
 40 94  1  0
 40 95  1  0
 40 96  1  0
 41 42  1  0
 41 97  1  0
 41 98  1  0
 42 43  1  1
 44 42  1  1
 43 99  1  0
 44 45  1  0
 45 53  1  0
 45 46  1  6
 45 47  1  0
 46100  1  0
 47 48  1  0
 48 49  1  6
 48 50  1  0
 49101  1  0
 49102  1  0
 49103  1  0
 50 51  1  0
 50104  1  0
 50105  1  0
 51 52  1  0
 51 53  1  0
 51106  1  1
 52107  1  0
 53 54  1  6
 53 55  1  0
 54108  1  0
 55 56  1  0
 55109  1  1
 56110  1  0
M  END
>  <i_m_ct_stereo_status>  (38) 
1

>  <s_m_source_file>  (38) 
/var/tmp/pbs.5075288.sched01/tmpl15vq434/14426guvkcq.sdf

>  <i_m_source_file_index>  (38) 
21

>  <i_lp_mmshare_version>  (38) 
48012

>  <i_f3d_flags>  (38) 
0

>  <s_epik_input>  (38) 
W0NAXTEyM1tDQEBIXTRbQ0gyXVtDQF0oW0NIM10pKFtDSF09W0NIMl0pW0NASF0oW09IXSlbQ0BdNShbT0hdKVtDQEBdMyhbT0hdKU9bQ0BdKFtDSDNdKShbQ0gyXVtDQEhdNVtPSF0pW0NAQF02KFtPSF0pW0NIMl1bQ0BAXTcoW09IXSlbQ0BAXShbQ0gzXSkoQyg9TylbQ0gyXVtDQEBIXTFbUytdNFtPLV0pW0NAXTIoW09IXSlbQ0gyXUMoW0NIM10pPVtDSF1bQ0hdN1tDQF04KFtPSF0pW0NAXShPNikoW0NIM10pW0NAQEhdKFtPSF0pW0NIMl1bQ0BIXTlbQ0BIXShDOD1bQ0gyXSlPQyg9TylbQ0BASF05W0NIM10=

>  <s_epik_cmdline>  (38) 
J2VwaWtfcHl0aG9uJywgJy1waHQnLCAnMi4wJywgJy1waCcsICc3LjAnLCAnLXRuJywgJzgnLCAnLW1hJywgJzIwMCcsICctaW1hZScsICc8aW5maWxlLm1hZT4nLCAnLW9tYWUnLCAnPG91dGZpbGUubWFlPic=

>  <r_lp_tautomer_probability>  (38) 
1

>  <r_epik_Ionization_Penalty>  (38) 
4.1478e-06

>  <r_epik_Ionization_Penalty_Charging>  (38) 
0

>  <r_epik_Ionization_Penalty_Neutral>  (38) 
4.1478e-06

>  <r_epik_State_Penalty>  (38) 
-0

>  <r_epik_Charging_Adjusted_Penalty>  (38) 
0

>  <i_epik_Tot_Q>  (38) 
0

>  <i_epik_Tot_abs_Q>  (38) 
2

>  <s_epik_Chemistry_Notes>  (38) 
This compound has an ester and may undergo hydrolysis at high or low pH.

>  <s_lp_Force_Field>  (38) 
OPLS3e

>  <r_lp_Energy>  (38) 
208.173

>  <b_lp_Chiralities_Consistent>  (38) 
1

>  <s_lp_Variant>  (38) 
41:0-1

>  <s_i_glide_gridfile>  (38) 
pfpi4k_grid

>  <i_i_glide_lignum>  (38) 
21

>  <i_i_glide_rotatable_bonds>  (38) 
10

>  <r_i_docking_score>  (38) 
-4.20102

>  <r_i_glide_ligand_efficiency>  (38) 
-0.0750182

>  <r_i_glide_ligand_efficiency_sa>  (38) 
-0.287009

>  <r_i_glide_ligand_efficiency_ln>  (38) 
-0.835965

>  <r_i_glide_gscore>  (38) 
-4.20102

>  <r_i_glide_lipo>  (38) 
-0.250057

>  <r_i_glide_hbond>  (38) 
0

>  <r_i_glide_metal>  (38) 
-0

>  <r_i_glide_rewards>  (38) 
-1.50187

>  <r_i_glide_evdw>  (38) 
-32.9497

>  <r_i_glide_ecoul>  (38) 
-5.55424

>  <r_i_glide_erotb>  (38) 
0.033479

>  <r_i_glide_esite>  (38) 
-0.00194566

>  <r_i_glide_emodel>  (38) 
-63.128

>  <r_i_glide_energy>  (38) 
-38.504

>  <r_i_glide_einternal>  (38) 
1.46785

>  <r_i_glide_intrahb_reward>  (38) 
-1.5

>  <i_i_glide_confnum>  (38) 
1

>  <i_i_glide_posenum>  (38) 
24

>  <r_i_glide_eff_state_penalty>  (38) 
0

>  <ligand_id>  (38) 
41

>  <original_smiles>  (38) 
C=CC1(C)CC2[S+]([O-])C3CC(=O)C4(C)C5(O)CC6(O)OC7(C)C(O)CC8C(C)C(=O)OC8C(=C)C7(O)C5C=C(C)CC4(O)C32C2(O)OC6(C)CC(O)C2(O)C1O

>  <smiles>  (38) 
[H]OC1([H])C([H])([H])C2(C([H])([H])[H])OC3(O[H])C1(O[H])C([H])(O[H])C(C([H])=C([H])[H])(C([H])([H])[H])C([H])([H])C1([H])S(=O)C4([H])C([H])([H])C(=O)C5(C([H])([H])[H])C6(O[H])C([H])([H])C2(O[H])OC2(C([H])([H])[H])C([H])(O[H])C([H])([H])C7([H])C([H])(OC(=O)C7([H])C([H])([H])[H])C(=C([H])[H])C2(O[H])C6([H])C([H])=C(C([H])([H])[H])C([H])([H])C5(O[H])C341

$$$$
41:0:1
     RDKit          3D

110118  0  0  1  0  0  0  0  0999 V2000
   -4.1604    2.9584    8.3421 C   0  0  0  0  0  0  0  0  0  0  0  0
   -3.0526    2.4421    7.7865 C   0  0  0  0  0  0  0  0  0  0  0  0
   -1.6012    2.9078    7.9978 C   0  0  1  0  0  0  0  0  0  0  0  0
   -1.6433    4.1828    8.8796 C   0  0  0  0  0  0  0  0  0  0  0  0
   -0.8991    1.7358    8.7392 C   0  0  0  0  0  0  0  0  0  0  0  0
    0.6318    1.6444    8.8409 C   0  0  2  0  0  0  0  0  0  0  0  0
    1.3878    3.2451    9.3866 S   0  0  0  0  0  0  0  0  0  0  0  0
    2.3987    2.8759   10.5034 O   0  0  0  0  0  0  0  0  0  0  0  0
    2.2855    2.9357    7.8053 C   0  0  1  0  0  0  0  0  0  0  0  0
    3.7777    3.1279    7.9811 C   0  0  0  0  0  0  0  0  0  0  0  0
    4.4846    2.1794    6.9972 C   0  0  0  0  0  0  0  0  0  0  0  0
    5.2829    2.6508    6.1977 O   0  0  0  0  0  0  0  0  0  0  0  0
    4.3107    0.6498    7.2015 C   0  0  2  0  0  0  0  0  0  0  0  0
    5.5020    0.4358    8.2326 C   0  0  0  0  0  0  0  0  0  0  0  0
    4.6027   -0.2713    5.8614 C   0  0  2  0  0  0  0  0  0  0  0  0
    6.0257   -0.1485    5.7227 O   0  0  0  0  0  0  0  0  0  0  0  0
    4.4234    0.2704    4.3780 C   0  0  0  0  0  0  0  0  0  0  0  0
    2.9997    0.2793    3.7358 C   0  0  1  0  0  0  0  0  0  0  0  0
    3.1833    0.3494    2.3180 O   0  0  0  0  0  0  0  0  0  0  0  0
    2.2867   -0.8701    4.1223 O   0  0  0  0  0  0  0  0  0  0  0  0
    2.6632   -2.2533    3.9095 C   0  0  1  0  0  0  0  0  0  0  0  0
    1.3382   -2.8146    4.5314 C   0  0  0  0  0  0  0  0  0  0  0  0
    2.5583   -2.6703    2.3835 C   0  0  1  0  0  0  0  0  0  0  0  0
    3.5686   -2.1224    1.5518 O   0  0  0  0  0  0  0  0  0  0  0  0
    2.5270   -4.1991    2.0377 C   0  0  0  0  0  0  0  0  0  0  0  0
    3.8072   -4.9418    2.4377 C   0  0  2  0  0  0  0  0  0  0  0  0
    4.0881   -6.3203    1.8065 C   0  0  1  0  0  0  0  0  0  0  0  0
    4.6122   -6.2766    0.3673 C   0  0  0  0  0  0  0  0  0  0  0  0
    5.0899   -6.8772    2.8248 C   0  0  0  0  0  0  0  0  0  0  0  0
    5.8898   -7.7692    2.5271 O   0  0  0  0  0  0  0  0  0  0  0  0
    4.9174   -6.2564    3.9667 O   0  0  0  0  0  0  0  0  0  0  0  0
    3.8483   -5.3487    3.9172 C   0  0  1  0  0  0  0  0  0  0  0  0
    3.6915   -4.3164    5.0479 C   0  0  0  0  0  0  0  0  0  0  0  0
    3.1580   -4.8187    6.1741 C   0  0  0  0  0  0  0  0  0  0  0  0
    3.9318   -2.7958    4.7360 C   0  0  1  0  0  0  0  0  0  0  0  0
    5.0339   -2.7409    3.8762 O   0  0  0  0  0  0  0  0  0  0  0  0
    4.5114   -1.8920    5.9569 C   0  0  2  0  0  0  0  0  0  0  0  0
    4.3963   -2.4356    7.3733 C   0  0  0  0  0  0  0  0  0  0  0  0
    3.5112   -2.0773    8.3131 C   0  0  0  0  0  0  0  0  0  0  0  0
    3.4707   -2.6915    9.6998 C   0  0  0  0  0  0  0  0  0  0  0  0
    2.4323   -1.0864    7.9886 C   0  0  0  0  0  0  0  0  0  0  0  0
    2.8557    0.3967    7.9034 C   0  0  1  0  0  0  0  0  0  0  0  0
    3.1456    0.5338    9.3059 O   0  0  0  0  0  0  0  0  0  0  0  0
    1.6727    1.5040    7.6604 C   0  0  1  0  0  0  0  0  0  0  0  0
    1.0016    1.3198    6.2387 C   0  0  2  0  0  0  0  0  0  0  0  0
    0.6965   -0.0556    6.0633 O   0  0  0  0  0  0  0  0  0  0  0  0
    2.0658    1.7332    5.4564 O   0  0  0  0  0  0  0  0  0  0  0  0
    2.1326    1.5653    4.0762 C   0  0  1  0  0  0  0  0  0  0  0  0
    2.8479    2.8553    3.5904 C   0  0  0  0  0  0  0  0  0  0  0  0
    0.7273    1.5204    3.4612 C   0  0  0  0  0  0  0  0  0  0  0  0
   -0.1507    2.5184    4.2377 C   0  0  1  0  0  0  0  0  0  0  0  0
   -1.3551    2.6509    3.5025 O   0  0  0  0  0  0  0  0  0  0  0  0
   -0.3762    2.0715    5.7261 C   0  0  1  0  0  0  0  0  0  0  0  0
   -1.4612    1.1581    5.5777 O   0  0  0  0  0  0  0  0  0  0  0  0
   -0.8723    3.2401    6.6559 C   0  0  1  0  0  0  0  0  0  0  0  0
   -1.7200    4.0983    5.9163 O   0  0  0  0  0  0  0  0  0  0  0  0
   -4.1563    3.7978    9.0284 H   0  0  0  0  0  0  0  0  0  0  0  0
   -5.1317    2.5450    8.1101 H   0  0  0  0  0  0  0  0  0  0  0  0
   -3.2011    1.5978    7.1346 H   0  0  0  0  0  0  0  0  0  0  0  0
   -0.7037    4.7463    8.8948 H   0  0  0  0  0  0  0  0  0  0  0  0
   -1.9061    3.9464    9.9128 H   0  0  0  0  0  0  0  0  0  0  0  0
   -2.3523    4.9178    8.4967 H   0  0  0  0  0  0  0  0  0  0  0  0
   -1.3472    1.6289    9.7347 H   0  0  0  0  0  0  0  0  0  0  0  0
   -1.1873    0.8081    8.2298 H   0  0  0  0  0  0  0  0  0  0  0  0
    0.8787    0.9554    9.6353 H   0  0  0  0  0  0  0  0  0  0  0  0
    1.8867    3.6322    7.0490 H   0  0  0  0  0  0  0  0  0  0  0  0
    4.0641    4.1526    7.7540 H   0  0  0  0  0  0  0  0  0  0  0  0
    4.1474    2.9465    8.9846 H   0  0  0  0  0  0  0  0  0  0  0  0
    5.6013   -0.5622    8.6266 H   0  0  0  0  0  0  0  0  0  0  0  0
    5.4499    1.0910    9.0978 H   0  0  0  0  0  0  0  0  0  0  0  0
    6.4873    0.7083    7.8429 H   0  0  0  0  0  0  0  0  0  0  0  0
    6.2319    0.7627    5.6134 H   0  0  0  0  0  0  0  0  0  0  0  0
    4.8735    1.2478    4.2363 H   0  0  0  0  0  0  0  0  0  0  0  0
    5.0268   -0.3163    3.6978 H   0  0  0  0  0  0  0  0  0  0  0  0
    3.5386   -0.4775    2.0388 H   0  0  0  0  0  0  0  0  0  0  0  0
    1.2071   -3.8883    4.4135 H   0  0  0  0  0  0  0  0  0  0  0  0
    0.4589   -2.3529    4.0710 H   0  0  0  0  0  0  0  0  0  0  0  0
    1.2781   -2.6274    5.5936 H   0  0  0  0  0  0  0  0  0  0  0  0
    1.6317   -2.2502    2.0012 H   0  0  0  0  0  0  0  0  0  0  0  0
    3.2787   -2.1955    0.6590 H   0  0  0  0  0  0  0  0  0  0  0  0
    1.6533   -4.6929    2.4631 H   0  0  0  0  0  0  0  0  0  0  0  0
    2.3874   -4.3020    0.9627 H   0  0  0  0  0  0  0  0  0  0  0  0
    4.6735   -4.3390    2.1605 H   0  0  0  0  0  0  0  0  0  0  0  0
    3.2053   -6.9606    1.8488 H   0  0  0  0  0  0  0  0  0  0  0  0
    4.8442   -7.2932    0.0128 H   0  0  0  0  0  0  0  0  0  0  0  0
    5.5315   -5.6904    0.2918 H   0  0  0  0  0  0  0  0  0  0  0  0
    3.8714   -5.8615   -0.3112 H   0  0  0  0  0  0  0  0  0  0  0  0
    2.9608   -5.9896    4.0543 H   0  0  0  0  0  0  0  0  0  0  0  0
    2.9665   -5.8760    6.2578 H   0  0  0  0  0  0  0  0  0  0  0  0
    2.8193   -4.2330    7.0114 H   0  0  0  0  0  0  0  0  0  0  0  0
    5.1086   -1.8866    3.5075 H   0  0  0  0  0  0  0  0  0  0  0  0
    5.5462   -2.2197    5.9246 H   0  0  0  0  0  0  0  0  0  0  0  0
    5.1227   -3.2005    7.6225 H   0  0  0  0  0  0  0  0  0  0  0  0
    2.5030   -3.1534    9.8949 H   0  0  0  0  0  0  0  0  0  0  0  0
    3.6644   -1.9590   10.4735 H   0  0  0  0  0  0  0  0  0  0  0  0
    4.2264   -3.4846    9.7954 H   0  0  0  0  0  0  0  0  0  0  0  0
    2.1696   -1.4414    7.0046 H   0  0  0  0  0  0  0  0  0  0  0  0
    1.5537   -1.2230    8.6202 H   0  0  0  0  0  0  0  0  0  0  0  0
    3.2803    1.4322    9.5181 H   0  0  0  0  0  0  0  0  0  0  0  0
    0.4415   -0.1592    5.1745 H   0  0  0  0  0  0  0  0  0  0  0  0
    2.8668    2.9344    2.4998 H   0  0  0  0  0  0  0  0  0  0  0  0
    3.8472    2.9762    3.9569 H   0  0  0  0  0  0  0  0  0  0  0  0
    2.3423    3.7569    3.9459 H   0  0  0  0  0  0  0  0  0  0  0  0
    0.7817    1.8027    2.4080 H   0  0  0  0  0  0  0  0  0  0  0  0
    0.2759    0.5360    3.4738 H   0  0  0  0  0  0  0  0  0  0  0  0
    0.2984    3.5087    4.2451 H   0  0  0  0  0  0  0  0  0  0  0  0
   -1.1379    3.0539    2.6708 H   0  0  0  0  0  0  0  0  0  0  0  0
   -2.0011    1.5636    4.9226 H   0  0  0  0  0  0  0  0  0  0  0  0
   -0.0524    3.9100    6.8571 H   0  0  0  0  0  0  0  0  0  0  0  0
   -2.4378    3.5927    5.6061 H   0  0  0  0  0  0  0  0  0  0  0  0
  1  2  2  0
  1 57  1  0
  1 58  1  0
  2  3  1  0
  2 59  1  0
  3 55  1  0
  3  4  1  1
  3  5  1  0
  4 60  1  0
  4 61  1  0
  4 62  1  0
  5  6  1  0
  5 63  1  0
  5 64  1  0
  6 44  1  0
  7  6  1  6
  6 65  1  1
  7  8  2  0
  7  9  1  0
  9 44  1  0
  9 10  1  0
  9 66  1  6
 10 11  1  0
 10 67  1  0
 10 68  1  0
 11 12  2  0
 11 13  1  0
 13 42  1  0
 13 14  1  1
 13 15  1  0
 14 69  1  0
 14 70  1  0
 14 71  1  0
 15 37  1  0
 15 16  1  6
 15 17  1  0
 16 72  1  0
 17 18  1  0
 17 73  1  0
 17 74  1  0
 18 48  1  0
 18 19  1  6
 18 20  1  0
 19 75  1  0
 20 21  1  0
 21 35  1  0
 21 22  1  1
 21 23  1  0
 22 76  1  0
 22 77  1  0
 22 78  1  0
 23 24  1  0
 23 25  1  0
 23 79  1  6
 24 80  1  0
 25 26  1  0
 25 81  1  0
 25 82  1  0
 26 32  1  0
 26 27  1  0
 26 83  1  1
 27 28  1  0
 27 29  1  0
 27 84  1  6
 28 85  1  0
 28 86  1  0
 28 87  1  0
 29 30  2  0
 29 31  1  0
 31 32  1  0
 32 33  1  0
 32 88  1  6
 33 34  2  0
 33 35  1  0
 34 89  1  0
 34 90  1  0
 35 36  1  6
 35 37  1  0
 36 91  1  0
 37 38  1  0
 37 92  1  6
 38 39  2  0
 38 93  1  0
 39 40  1  0
 39 41  1  0
 40 94  1  0
 40 95  1  0
 40 96  1  0
 41 42  1  0
 41 97  1  0
 41 98  1  0
 42 43  1  1
 44 42  1  1
 43 99  1  0
 44 45  1  0
 45 53  1  0
 45 46  1  6
 45 47  1  0
 46100  1  0
 47 48  1  0
 48 49  1  6
 48 50  1  0
 49101  1  0
 49102  1  0
 49103  1  0
 50 51  1  0
 50104  1  0
 50105  1  0
 51 52  1  0
 51 53  1  0
 51106  1  1
 52107  1  0
 53 54  1  6
 53 55  1  0
 54108  1  0
 55 56  1  0
 55109  1  1
 56110  1  0
M  END
>  <i_m_ct_stereo_status>  (39) 
1

>  <s_m_source_file>  (39) 
/var/tmp/pbs.5075288.sched01/tmpl15vq434/14426guvkcq.sdf

>  <i_m_source_file_index>  (39) 
21

>  <i_lp_mmshare_version>  (39) 
48012

>  <i_f3d_flags>  (39) 
0

>  <s_epik_input>  (39) 
W0NAXTEyM1tDQEBIXTRbQ0gyXVtDQF0oW0NIM10pKFtDSF09W0NIMl0pW0NASF0oW09IXSlbQ0BdNShbT0hdKVtDQEBdMyhbT0hdKU9bQ0BdKFtDSDNdKShbQ0gyXVtDQEhdNVtPSF0pW0NAQF02KFtPSF0pW0NIMl1bQ0BAXTcoW09IXSlbQ0BAXShbQ0gzXSkoQyg9TylbQ0gyXVtDQEBIXTFbUytdNFtPLV0pW0NAXTIoW09IXSlbQ0gyXUMoW0NIM10pPVtDSF1bQ0hdN1tDQF04KFtPSF0pW0NAXShPNikoW0NIM10pW0NAQEhdKFtPSF0pW0NIMl1bQ0BIXTlbQ0BIXShDOD1bQ0gyXSlPQyg9TylbQ0BASF05W0NIM10=

>  <s_epik_cmdline>  (39) 
J2VwaWtfcHl0aG9uJywgJy1waHQnLCAnMi4wJywgJy1waCcsICc3LjAnLCAnLXRuJywgJzgnLCAnLW1hJywgJzIwMCcsICctaW1hZScsICc8aW5maWxlLm1hZT4nLCAnLW9tYWUnLCAnPG91dGZpbGUubWFlPic=

>  <r_lp_tautomer_probability>  (39) 
1

>  <r_epik_Ionization_Penalty>  (39) 
4.1478e-06

>  <r_epik_Ionization_Penalty_Charging>  (39) 
0

>  <r_epik_Ionization_Penalty_Neutral>  (39) 
4.1478e-06

>  <r_epik_State_Penalty>  (39) 
-0

>  <r_epik_Charging_Adjusted_Penalty>  (39) 
0

>  <i_epik_Tot_Q>  (39) 
0

>  <i_epik_Tot_abs_Q>  (39) 
2

>  <s_epik_Chemistry_Notes>  (39) 
This compound has an ester and may undergo hydrolysis at high or low pH.

>  <s_lp_Force_Field>  (39) 
OPLS3e

>  <r_lp_Energy>  (39) 
208.173

>  <b_lp_Chiralities_Consistent>  (39) 
1

>  <s_lp_Variant>  (39) 
41:0-1

>  <s_i_glide_gridfile>  (39) 
pfpi4k_grid

>  <i_i_glide_lignum>  (39) 
21

>  <i_i_glide_rotatable_bonds>  (39) 
10

>  <r_i_docking_score>  (39) 
-4.17275

>  <r_i_glide_ligand_efficiency>  (39) 
-0.0745134

>  <r_i_glide_ligand_efficiency_sa>  (39) 
-0.285078

>  <r_i_glide_ligand_efficiency_ln>  (39) 
-0.83034

>  <r_i_glide_gscore>  (39) 
-4.17275

>  <r_i_glide_lipo>  (39) 
-0.327618

>  <r_i_glide_hbond>  (39) 
0

>  <r_i_glide_metal>  (39) 
-0

>  <r_i_glide_rewards>  (39) 
-1.50174

>  <r_i_glide_evdw>  (39) 
-33.1456

>  <r_i_glide_ecoul>  (39) 
-4.78684

>  <r_i_glide_erotb>  (39) 
0.033479

>  <r_i_glide_esite>  (39) 
-0.00156863

>  <r_i_glide_emodel>  (39) 
-62.4213

>  <r_i_glide_energy>  (39) 
-37.9324

>  <r_i_glide_einternal>  (39) 
1.48747

>  <r_i_glide_intrahb_reward>  (39) 
-1.5

>  <i_i_glide_confnum>  (39) 
4

>  <i_i_glide_posenum>  (39) 
4

>  <r_i_glide_eff_state_penalty>  (39) 
0

>  <ligand_id>  (39) 
41

>  <original_smiles>  (39) 
C=CC1(C)CC2[S+]([O-])C3CC(=O)C4(C)C5(O)CC6(O)OC7(C)C(O)CC8C(C)C(=O)OC8C(=C)C7(O)C5C=C(C)CC4(O)C32C2(O)OC6(C)CC(O)C2(O)C1O

>  <smiles>  (39) 
[H]OC1([H])C([H])([H])C2(C([H])([H])[H])OC3(O[H])C1(O[H])C([H])(O[H])C(C([H])=C([H])[H])(C([H])([H])[H])C([H])([H])C1([H])S(=O)C4([H])C([H])([H])C(=O)C5(C([H])([H])[H])C6(O[H])C([H])([H])C2(O[H])OC2(C([H])([H])[H])C([H])(O[H])C([H])([H])C7([H])C([H])(OC(=O)C7([H])C([H])([H])[H])C(=C([H])[H])C2(O[H])C6([H])C([H])=C(C([H])([H])[H])C([H])([H])C5(O[H])C341

$$$$
41:0:2
     RDKit          3D

110118  0  0  1  0  0  0  0  0999 V2000
   -3.8702    2.9621    8.7605 C   0  0  0  0  0  0  0  0  0  0  0  0
   -2.7659    2.3665    8.2835 C   0  0  0  0  0  0  0  0  0  0  0  0
   -1.2954    2.7757    8.5242 C   0  0  1  0  0  0  0  0  0  0  0  0
   -1.2946    3.9685    9.5133 C   0  0  0  0  0  0  0  0  0  0  0  0
   -0.5916    1.5247    9.1469 C   0  0  0  0  0  0  0  0  0  0  0  0
    0.9419    1.4020    9.1894 C   0  0  2  0  0  0  0  0  0  0  0  0
    1.7461    2.9264    9.8552 S   0  0  0  0  0  0  0  0  0  0  0  0
    2.7871    2.4364   10.9157 O   0  0  0  0  0  0  0  0  0  0  0  0
    2.5942    2.7577    8.2266 C   0  0  1  0  0  0  0  0  0  0  0  0
    4.0862    2.9077    8.3902 C   0  0  0  0  0  0  0  0  0  0  0  0
    4.7620    2.0475    7.3039 C   0  0  0  0  0  0  0  0  0  0  0  0
    5.5307    2.5804    6.5182 O   0  0  0  0  0  0  0  0  0  0  0  0
    4.5635    0.5015    7.3907 C   0  0  2  0  0  0  0  0  0  0  0  0
    5.7716    0.1833    8.3706 C   0  0  0  0  0  0  0  0  0  0  0  0
    4.8073   -0.2994    5.9692 C   0  0  2  0  0  0  0  0  0  0  0  0
    6.2231   -0.1778    5.8075 O   0  0  0  0  0  0  0  0  0  0  0  0
    4.6051    0.3706    4.5401 C   0  0  0  0  0  0  0  0  0  0  0  0
    3.1632    0.4537    3.9388 C   0  0  1  0  0  0  0  0  0  0  0  0
    3.3013    0.6307    2.5280 O   0  0  0  0  0  0  0  0  0  0  0  0
    2.4480   -0.7140    4.2510 O   0  0  0  0  0  0  0  0  0  0  0  0
    2.8009   -2.0720    3.8958 C   0  0  1  0  0  0  0  0  0  0  0  0
    1.4798   -2.6690    4.4916 C   0  0  0  0  0  0  0  0  0  0  0  0
    2.6578   -2.3484    2.3375 C   0  0  1  0  0  0  0  0  0  0  0  0
    3.6578   -1.7484    1.5309 O   0  0  0  0  0  0  0  0  0  0  0  0
    2.6091   -3.8386    1.8603 C   0  0  0  0  0  0  0  0  0  0  0  0
    3.8840   -4.6357    2.1671 C   0  0  2  0  0  0  0  0  0  0  0  0
    4.1184   -5.9499    1.4193 C   0  0  1  0  0  0  0  0  0  0  0  0
    4.6186   -5.7817   -0.0231 C   0  0  0  0  0  0  0  0  0  0  0  0
    5.1295   -6.6153    2.3487 C   0  0  0  0  0  0  0  0  0  0  0  0
    5.9086   -7.4922    1.9588 O   0  0  0  0  0  0  0  0  0  0  0  0
    4.9943   -6.0982    3.5503 O   0  0  0  0  0  0  0  0  0  0  0  0
    3.9389   -5.1723    3.6009 C   0  0  1  0  0  0  0  0  0  0  0  0
    3.8249   -4.2460    4.8272 C   0  0  0  0  0  0  0  0  0  0  0  0
    3.3091   -4.8340    5.9175 C   0  0  0  0  0  0  0  0  0  0  0  0
    4.0803   -2.7056    4.6393 C   0  0  1  0  0  0  0  0  0  0  0  0
    5.1621   -2.5917    3.7626 O   0  0  0  0  0  0  0  0  0  0  0  0
    4.6941   -1.9164    5.9248 C   0  0  2  0  0  0  0  0  0  0  0  0
    4.6032   -2.5849    7.2875 C   0  0  0  0  0  0  0  0  0  0  0  0
    3.7441   -2.2989    8.2724 C   0  0  0  0  0  0  0  0  0  0  0  0
    3.7224   -3.0253    9.5986 C   0  0  0  0  0  0  0  0  0  0  0  0
    2.6710   -1.2731    8.0616 C   0  0  0  0  0  0  0  0  0  0  0  0
    3.1223    0.2099    8.0941 C   0  0  1  0  0  0  0  0  0  0  0  0
    3.4380    0.2152    9.5008 O   0  0  0  0  0  0  0  0  0  0  0  0
    1.9504    1.3531    7.9743 C   0  0  1  0  0  0  0  0  0  0  0  0
    1.2379    1.2986    6.5637 C   0  0  2  0  0  0  0  0  0  0  0  0
    0.8975   -0.0502    6.2787 O   0  0  0  0  0  0  0  0  0  0  0  0
    2.2956    1.7569    5.7959 O   0  0  0  0  0  0  0  0  0  0  0  0
    2.3338    1.7193    4.4117 C   0  0  1  0  0  0  0  0  0  0  0  0
    3.0611    3.0372    4.0189 C   0  0  0  0  0  0  0  0  0  0  0  0
    0.9159    1.7508    3.8285 C   0  0  0  0  0  0  0  0  0  0  0  0
    0.0583    2.6756    4.7043 C   0  0  1  0  0  0  0  0  0  0  0  0
   -1.1385    2.8644    3.9785 O   0  0  0  0  0  0  0  0  0  0  0  0
   -0.1430    2.1082    6.1557 C   0  0  1  0  0  0  0  0  0  0  0  0
   -1.2315    1.1945    6.0008 O   0  0  0  0  0  0  0  0  0  0  0  0
   -0.5768    3.2085    7.2058 C   0  0  1  0  0  0  0  0  0  0  0  0
   -1.4288    4.1318    6.5909 O   0  0  0  0  0  0  0  0  0  0  0  0
   -3.8508    3.8431    9.3864 H   0  0  0  0  0  0  0  0  0  0  0  0
   -4.8458    2.5680    8.5330 H   0  0  0  0  0  0  0  0  0  0  0  0
   -2.9166    1.4857    7.6756 H   0  0  0  0  0  0  0  0  0  0  0  0
   -0.3366    4.5038    9.5576 H   0  0  0  0  0  0  0  0  0  0  0  0
   -1.5561    3.6430   10.5220 H   0  0  0  0  0  0  0  0  0  0  0  0
   -1.9816    4.7531    9.2006 H   0  0  0  0  0  0  0  0  0  0  0  0
   -1.0115    1.3455   10.1423 H   0  0  0  0  0  0  0  0  0  0  0  0
   -0.9107    0.6421    8.5755 H   0  0  0  0  0  0  0  0  0  0  0  0
    1.1911    0.6546    9.9275 H   0  0  0  0  0  0  0  0  0  0  0  0
    2.1946    3.5278    7.5392 H   0  0  0  0  0  0  0  0  0  0  0  0
    4.3845    3.9482    8.2569 H   0  0  0  0  0  0  0  0  0  0  0  0
    4.4713    2.6421    9.3652 H   0  0  0  0  0  0  0  0  0  0  0  0
    5.8614   -0.8458    8.6670 H   0  0  0  0  0  0  0  0  0  0  0  0
    5.7467    0.7595    9.2925 H   0  0  0  0  0  0  0  0  0  0  0  0
    6.7478    0.4748    7.9820 H   0  0  0  0  0  0  0  0  0  0  0  0
    6.4318    0.7399    5.7846 H   0  0  0  0  0  0  0  0  0  0  0  0
    5.0656    1.3500    4.4750 H   0  0  0  0  0  0  0  0  0  0  0  0
    5.1863   -0.1629    3.7967 H   0  0  0  0  0  0  0  0  0  0  0  0
    3.6419   -0.1726    2.1745 H   0  0  0  0  0  0  0  0  0  0  0  0
    1.3340   -3.7260    4.2794 H   0  0  0  0  0  0  0  0  0  0  0  0
    0.6017   -2.1552    4.0896 H   0  0  0  0  0  0  0  0  0  0  0  0
    1.4479   -2.5768    5.5659 H   0  0  0  0  0  0  0  0  0  0  0  0
    1.7263   -1.8892    2.0120 H   0  0  0  0  0  0  0  0  0  0  0  0
    3.3430   -1.7505    0.6398 H   0  0  0  0  0  0  0  0  0  0  0  0
    1.7410   -4.3559    2.2599 H   0  0  0  0  0  0  0  0  0  0  0  0
    2.4427   -3.8441    0.7847 H   0  0  0  0  0  0  0  0  0  0  0  0
    4.7520   -4.0174    1.9241 H   0  0  0  0  0  0  0  0  0  0  0  0
    3.2259   -6.5789    1.4192 H   0  0  0  0  0  0  0  0  0  0  0  0
    4.8104   -6.7668   -0.4743 H   0  0  0  0  0  0  0  0  0  0  0  0
    5.5498   -5.2145   -0.0669 H   0  0  0  0  0  0  0  0  0  0  0  0
    3.8751   -5.2874   -0.6452 H   0  0  0  0  0  0  0  0  0  0  0  0
    3.0379   -5.8027    3.7022 H   0  0  0  0  0  0  0  0  0  0  0  0
    3.0955   -5.8905    5.9086 H   0  0  0  0  0  0  0  0  0  0  0  0
    2.9876   -4.3241    6.8110 H   0  0  0  0  0  0  0  0  0  0  0  0
    5.2402   -1.7100    3.4586 H   0  0  0  0  0  0  0  0  0  0  0  0
    5.7216   -2.2545    5.8353 H   0  0  0  0  0  0  0  0  0  0  0  0
    5.3238   -3.3711    7.4478 H   0  0  0  0  0  0  0  0  0  0  0  0
    2.7516   -3.4899    9.7773 H   0  0  0  0  0  0  0  0  0  0  0  0
    3.9404   -2.3673   10.4312 H   0  0  0  0  0  0  0  0  0  0  0  0
    4.4686   -3.8351    9.6119 H   0  0  0  0  0  0  0  0  0  0  0  0
    2.3762   -1.5313    7.0564 H   0  0  0  0  0  0  0  0  0  0  0  0
    1.8061   -1.4463    8.7015 H   0  0  0  0  0  0  0  0  0  0  0  0
    3.5782    1.0979    9.7887 H   0  0  0  0  0  0  0  0  0  0  0  0
    0.8036   -0.1254    5.3565 H   0  0  0  0  0  0  0  0  0  0  0  0
    3.0520    3.2043    2.9375 H   0  0  0  0  0  0  0  0  0  0  0  0
    4.0770    3.1053    4.3576 H   0  0  0  0  0  0  0  0  0  0  0  0
    2.5819    3.9096    4.4655 H   0  0  0  0  0  0  0  0  0  0  0  0
    0.9616    2.1220    2.8020 H   0  0  0  0  0  0  0  0  0  0  0  0
    0.4574    0.7727    3.7563 H   0  0  0  0  0  0  0  0  0  0  0  0
    0.5224    3.6583    4.7879 H   0  0  0  0  0  0  0  0  0  0  0  0
   -0.9229    3.3150    3.1726 H   0  0  0  0  0  0  0  0  0  0  0  0
   -1.1971    0.9065    5.1118 H   0  0  0  0  0  0  0  0  0  0  0  0
    0.2653    3.8465    7.4438 H   0  0  0  0  0  0  0  0  0  0  0  0
   -2.1545    3.6297    6.2721 H   0  0  0  0  0  0  0  0  0  0  0  0
  1  2  2  0
  1 57  1  0
  1 58  1  0
  2  3  1  0
  2 59  1  0
  3 55  1  0
  3  4  1  1
  3  5  1  0
  4 60  1  0
  4 61  1  0
  4 62  1  0
  5  6  1  0
  5 63  1  0
  5 64  1  0
  6 44  1  0
  7  6  1  6
  6 65  1  1
  7  8  2  0
  7  9  1  0
  9 44  1  0
  9 10  1  0
  9 66  1  6
 10 11  1  0
 10 67  1  0
 10 68  1  0
 11 12  2  0
 11 13  1  0
 13 42  1  0
 13 14  1  1
 13 15  1  0
 14 69  1  0
 14 70  1  0
 14 71  1  0
 15 37  1  0
 15 16  1  1
 15 17  1  0
 16 72  1  0
 17 18  1  0
 17 73  1  0
 17 74  1  0
 18 48  1  0
 18 19  1  6
 18 20  1  0
 19 75  1  0
 20 21  1  0
 21 35  1  0
 21 22  1  1
 21 23  1  0
 22 76  1  0
 22 77  1  0
 22 78  1  0
 23 24  1  0
 23 25  1  0
 23 79  1  6
 24 80  1  0
 25 26  1  0
 25 81  1  0
 25 82  1  0
 26 32  1  0
 26 27  1  0
 26 83  1  1
 27 28  1  0
 27 29  1  0
 27 84  1  6
 28 85  1  0
 28 86  1  0
 28 87  1  0
 29 30  2  0
 29 31  1  0
 31 32  1  0
 32 33  1  0
 32 88  1  6
 33 34  2  0
 33 35  1  0
 34 89  1  0
 34 90  1  0
 35 36  1  6
 35 37  1  0
 36 91  1  0
 37 38  1  0
 37 92  1  6
 38 39  2  0
 38 93  1  0
 39 40  1  0
 39 41  1  0
 40 94  1  0
 40 95  1  0
 40 96  1  0
 41 42  1  0
 41 97  1  0
 41 98  1  0
 42 43  1  1
 44 42  1  1
 43 99  1  0
 44 45  1  0
 45 53  1  0
 45 46  1  6
 45 47  1  0
 46100  1  0
 47 48  1  0
 48 49  1  6
 48 50  1  0
 49101  1  0
 49102  1  0
 49103  1  0
 50 51  1  0
 50104  1  0
 50105  1  0
 51 52  1  0
 51 53  1  0
 51106  1  1
 52107  1  0
 53 54  1  6
 53 55  1  0
 54108  1  0
 55 56  1  0
 55109  1  1
 56110  1  0
M  END
>  <i_m_ct_stereo_status>  (40) 
1

>  <s_m_source_file>  (40) 
/var/tmp/pbs.5075288.sched01/tmpl15vq434/14426guvkcq.sdf

>  <i_m_source_file_index>  (40) 
21

>  <i_lp_mmshare_version>  (40) 
48012

>  <i_f3d_flags>  (40) 
0

>  <s_epik_input>  (40) 
W0NAXTEyM1tDQEBIXTRbQ0gyXVtDQF0oW0NIM10pKFtDSF09W0NIMl0pW0NASF0oW09IXSlbQ0BdNShbT0hdKVtDQEBdMyhbT0hdKU9bQ0BdKFtDSDNdKShbQ0gyXVtDQEhdNVtPSF0pW0NAQF02KFtPSF0pW0NIMl1bQ0BAXTcoW09IXSlbQ0BAXShbQ0gzXSkoQyg9TylbQ0gyXVtDQEBIXTFbUytdNFtPLV0pW0NAXTIoW09IXSlbQ0gyXUMoW0NIM10pPVtDSF1bQ0hdN1tDQF04KFtPSF0pW0NAXShPNikoW0NIM10pW0NAQEhdKFtPSF0pW0NIMl1bQ0BIXTlbQ0BIXShDOD1bQ0gyXSlPQyg9TylbQ0BASF05W0NIM10=

>  <s_epik_cmdline>  (40) 
J2VwaWtfcHl0aG9uJywgJy1waHQnLCAnMi4wJywgJy1waCcsICc3LjAnLCAnLXRuJywgJzgnLCAnLW1hJywgJzIwMCcsICctaW1hZScsICc8aW5maWxlLm1hZT4nLCAnLW9tYWUnLCAnPG91dGZpbGUubWFlPic=

>  <r_lp_tautomer_probability>  (40) 
1

>  <r_epik_Ionization_Penalty>  (40) 
4.1478e-06

>  <r_epik_Ionization_Penalty_Charging>  (40) 
0

>  <r_epik_Ionization_Penalty_Neutral>  (40) 
4.1478e-06

>  <r_epik_State_Penalty>  (40) 
-0

>  <r_epik_Charging_Adjusted_Penalty>  (40) 
0

>  <i_epik_Tot_Q>  (40) 
0

>  <i_epik_Tot_abs_Q>  (40) 
2

>  <s_epik_Chemistry_Notes>  (40) 
This compound has an ester and may undergo hydrolysis at high or low pH.

>  <s_lp_Force_Field>  (40) 
OPLS3e

>  <r_lp_Energy>  (40) 
208.173

>  <b_lp_Chiralities_Consistent>  (40) 
1

>  <s_lp_Variant>  (40) 
41:0-1

>  <s_i_glide_gridfile>  (40) 
pfpi4k_grid

>  <i_i_glide_lignum>  (40) 
21

>  <i_i_glide_rotatable_bonds>  (40) 
10

>  <r_i_docking_score>  (40) 
-3.98224

>  <r_i_glide_ligand_efficiency>  (40) 
-0.0711114

>  <r_i_glide_ligand_efficiency_sa>  (40) 
-0.272062

>  <r_i_glide_ligand_efficiency_ln>  (40) 
-0.79243

>  <r_i_glide_gscore>  (40) 
-3.98224

>  <r_i_glide_lipo>  (40) 
-0.162405

>  <r_i_glide_hbond>  (40) 
0

>  <r_i_glide_metal>  (40) 
-0

>  <r_i_glide_rewards>  (40) 
-1.50453

>  <r_i_glide_evdw>  (40) 
-32.3382

>  <r_i_glide_ecoul>  (40) 
-4.87274

>  <r_i_glide_erotb>  (40) 
0.033479

>  <r_i_glide_esite>  (40) 
-0.000965783

>  <r_i_glide_emodel>  (40) 
-61.1133

>  <r_i_glide_energy>  (40) 
-37.2109

>  <r_i_glide_einternal>  (40) 
1.35172

>  <r_i_glide_intrahb_reward>  (40) 
-1.5

>  <i_i_glide_confnum>  (40) 
4

>  <i_i_glide_posenum>  (40) 
26

>  <r_i_glide_eff_state_penalty>  (40) 
0

>  <ligand_id>  (40) 
41

>  <original_smiles>  (40) 
C=CC1(C)CC2[S+]([O-])C3CC(=O)C4(C)C5(O)CC6(O)OC7(C)C(O)CC8C(C)C(=O)OC8C(=C)C7(O)C5C=C(C)CC4(O)C32C2(O)OC6(C)CC(O)C2(O)C1O

>  <smiles>  (40) 
[H]OC1([H])C([H])([H])C2(C([H])([H])[H])OC3(O[H])C1(O[H])C([H])(O[H])C(C([H])=C([H])[H])(C([H])([H])[H])C([H])([H])C1([H])S(=O)C4([H])C([H])([H])C(=O)C5(C([H])([H])[H])C6(O[H])C([H])([H])C2(O[H])OC2(C([H])([H])[H])C([H])(O[H])C([H])([H])C7([H])C([H])(OC(=O)C7([H])C([H])([H])[H])C(=C([H])[H])C2(O[H])C6([H])C([H])=C(C([H])([H])[H])C([H])([H])C5(O[H])C341

$$$$
45:0:0
     RDKit          3D

100107  0  0  1  0  0  0  0  0999 V2000
    0.5032   -9.9007    2.6284 C   0  0  0  0  0  0  0  0  0  0  0  0
   -0.5143   -8.7761    3.0041 C   0  0  0  0  0  0  0  0  0  0  0  0
   -0.7860   -7.8608    1.8192 C   0  0  0  0  0  0  0  0  0  0  0  0
   -1.7620   -9.3697    3.2767 O   0  0  0  0  0  0  0  0  0  0  0  0
   -0.1223   -7.8994    4.2372 C   0  0  2  0  0  0  0  0  0  0  0  0
    0.7713   -6.8194    3.8856 O   0  0  0  0  0  0  0  0  0  0  0  0
    2.1171   -7.2228    4.1401 C   0  0  1  0  0  0  0  0  0  0  0  0
    3.1146   -6.0429    4.4546 C   0  0  2  0  0  0  0  0  0  0  0  0
    4.4328   -6.6754    5.0407 C   0  0  0  0  0  0  0  0  0  0  0  0
    5.3700   -5.8430    5.9522 C   0  0  1  0  0  0  0  0  0  0  0  0
    6.5413   -5.4222    5.2821 O   0  0  0  0  0  0  0  0  0  0  0  0
    4.7352   -4.7412    6.8324 C   0  0  0  0  0  0  0  0  0  0  0  0
    3.5675   -3.9074    6.2501 C   0  0  2  0  0  0  0  0  0  0  0  0
    2.2142   -5.0342    5.7410 S   0  0  0  0  0  0  0  0  0  0  0  0
    1.7980   -5.8221    6.9978 O   0  0  0  0  0  0  0  0  0  0  0  0
    3.8638   -2.7023    5.2637 C   0  0  1  0  0  0  0  0  0  0  0  0
    5.2495   -2.8944    4.8928 O   0  0  0  0  0  0  0  0  0  0  0  0
    4.8703   -3.2517    3.5667 C   0  0  1  0  0  0  0  0  0  0  0  0
    4.7590   -4.6531    3.3611 O   0  0  0  0  0  0  0  0  0  0  0  0
    3.4572   -5.1181    3.1851 C   0  0  1  0  0  0  0  0  0  0  0  0
    3.4329   -5.8857    1.9894 O   0  0  0  0  0  0  0  0  0  0  0  0
    2.6666   -3.7758    2.9259 C   0  0  0  0  0  0  0  0  0  0  0  0
    2.7360   -3.4921    1.5361 O   0  0  0  0  0  0  0  0  0  0  0  0
    1.3013   -3.8227    3.2759 O   0  0  0  0  0  0  0  0  0  0  0  0
    3.4635   -2.6846    3.7228 C   0  0  1  0  0  0  0  0  0  0  0  0
    3.2994   -1.2728    3.0926 C   0  0  0  0  0  0  0  0  0  0  0  0
    1.8841   -0.6116    3.0301 C   0  0  0  0  0  0  0  0  0  0  0  0
    0.9875   -0.0512    4.2217 C   0  0  1  0  0  0  0  0  0  0  0  0
    1.4396   -0.3594    5.7211 C   0  0  2  0  0  0  0  0  0  0  0  0
    0.9979   -1.8020    6.0331 C   0  0  0  0  0  0  0  0  0  0  0  0
    0.6444    0.4243    6.8352 C   0  0  0  0  0  0  0  0  0  0  0  0
    0.1959    1.8407    6.4821 C   0  0  0  0  0  0  0  0  0  0  0  0
   -0.5679    1.8631    5.1507 C   0  0  1  0  0  0  0  0  0  0  0  0
   -1.7677    0.8820    5.3190 C   0  0  0  0  0  0  0  0  0  0  0  0
   -1.2211    3.2681    4.9321 C   0  0  1  0  0  0  0  0  0  0  0  0
   -0.3802    4.3650    5.2446 O   0  0  0  0  0  0  0  0  0  0  0  0
   -1.8026    3.3577    3.5047 C   0  0  1  0  0  0  0  0  0  0  0  0
   -2.1640    4.6612    3.1728 O   0  0  0  0  0  0  0  0  0  0  0  0
   -0.8597    2.9007    2.5872 O   0  0  0  0  0  0  0  0  0  0  0  0
   -0.4431    1.5762    2.6846 C   0  0  1  0  0  0  0  0  0  0  0  0
    0.2516    1.2540    1.5114 O   0  0  0  0  0  0  0  0  0  0  0  0
    0.4400    1.4482    3.9829 C   0  0  2  0  0  0  0  0  0  0  0  0
    1.6432    2.4377    3.8390 C   0  0  0  0  0  0  0  0  0  0  0  0
    3.0012   -0.1380    5.8933 C   0  0  1  0  0  0  0  0  0  0  0  0
    3.3742    0.8581    6.8301 O   0  0  0  0  0  0  0  0  0  0  0  0
    3.9882   -1.3489    6.0804 C   0  0  1  0  0  0  0  0  0  0  0  0
    4.1139   -1.5560    7.4767 O   0  0  0  0  0  0  0  0  0  0  0  0
    2.0521   -8.3063    5.2761 C   0  0  0  0  0  0  0  0  0  0  0  0
    0.6110   -8.7112    5.2784 C   0  0  0  0  0  0  0  0  0  0  0  0
    0.1407   -9.4788    6.0817 O   0  0  0  0  0  0  0  0  0  0  0  0
    1.5044   -9.4963    2.3730 H   0  0  0  0  0  0  0  0  0  0  0  0
    0.1965  -10.4700    1.7535 H   0  0  0  0  0  0  0  0  0  0  0  0
    0.6596  -10.6346    3.4341 H   0  0  0  0  0  0  0  0  0  0  0  0
    0.0774   -7.2478    1.5058 H   0  0  0  0  0  0  0  0  0  0  0  0
   -1.6132   -7.2097    2.0771 H   0  0  0  0  0  0  0  0  0  0  0  0
   -1.0767   -8.4335    0.9469 H   0  0  0  0  0  0  0  0  0  0  0  0
   -1.7413   -9.9993    3.9835 H   0  0  0  0  0  0  0  0  0  0  0  0
   -1.0189   -7.3827    4.6670 H   0  0  0  0  0  0  0  0  0  0  0  0
    2.4473   -7.7325    3.2289 H   0  0  0  0  0  0  0  0  0  0  0  0
    4.1950   -7.4960    5.6943 H   0  0  0  0  0  0  0  0  0  0  0  0
    5.0139   -7.1283    4.2199 H   0  0  0  0  0  0  0  0  0  0  0  0
    5.7781   -6.5603    6.6706 H   0  0  0  0  0  0  0  0  0  0  0  0
    7.1669   -5.1267    5.9323 H   0  0  0  0  0  0  0  0  0  0  0  0
    4.2972   -5.2493    7.6897 H   0  0  0  0  0  0  0  0  0  0  0  0
    5.5043   -4.0957    7.2342 H   0  0  0  0  0  0  0  0  0  0  0  0
    3.0551   -3.5140    7.1234 H   0  0  0  0  0  0  0  0  0  0  0  0
    5.4693   -2.7557    2.8119 H   0  0  0  0  0  0  0  0  0  0  0  0
    3.5732   -5.2669    1.2612 H   0  0  0  0  0  0  0  0  0  0  0  0
    2.4918   -2.5910    1.3774 H   0  0  0  0  0  0  0  0  0  0  0  0
    0.9273   -2.9502    3.1837 H   0  0  0  0  0  0  0  0  0  0  0  0
    4.0592   -0.6118    3.4967 H   0  0  0  0  0  0  0  0  0  0  0  0
    3.6652   -1.2815    2.0614 H   0  0  0  0  0  0  0  0  0  0  0  0
    2.1375    0.2242    2.3985 H   0  0  0  0  0  0  0  0  0  0  0  0
    1.2427   -1.2218    2.3929 H   0  0  0  0  0  0  0  0  0  0  0  0
    0.0834   -0.6442    4.0818 H   0  0  0  0  0  0  0  0  0  0  0  0
    1.3284   -2.1208    7.0212 H   0  0  0  0  0  0  0  0  0  0  0  0
    1.3576   -2.4816    5.2842 H   0  0  0  0  0  0  0  0  0  0  0  0
   -0.0882   -1.9078    5.9950 H   0  0  0  0  0  0  0  0  0  0  0  0
   -0.2449   -0.1293    7.1477 H   0  0  0  0  0  0  0  0  0  0  0  0
    1.2067    0.4616    7.7558 H   0  0  0  0  0  0  0  0  0  0  0  0
   -0.4303    2.2349    7.2840 H   0  0  0  0  0  0  0  0  0  0  0  0
    1.0650    2.4969    6.4767 H   0  0  0  0  0  0  0  0  0  0  0  0
   -2.4727    0.9373    4.4910 H   0  0  0  0  0  0  0  0  0  0  0  0
   -2.3322    1.1241    6.2259 H   0  0  0  0  0  0  0  0  0  0  0  0
   -1.5006   -0.1627    5.3889 H   0  0  0  0  0  0  0  0  0  0  0  0
   -2.0617    3.3769    5.6347 H   0  0  0  0  0  0  0  0  0  0  0  0
    0.3267    4.3659    4.5940 H   0  0  0  0  0  0  0  0  0  0  0  0
   -2.7087    2.7633    3.4004 H   0  0  0  0  0  0  0  0  0  0  0  0
   -1.8168    4.8176    2.3043 H   0  0  0  0  0  0  0  0  0  0  0  0
   -1.3075    0.9159    2.7057 H   0  0  0  0  0  0  0  0  0  0  0  0
   -0.3597    1.2216    0.7703 H   0  0  0  0  0  0  0  0  0  0  0  0
    1.3274    3.4637    3.6515 H   0  0  0  0  0  0  0  0  0  0  0  0
    2.2749    2.2119    2.9867 H   0  0  0  0  0  0  0  0  0  0  0  0
    2.2948    2.4601    4.7073 H   0  0  0  0  0  0  0  0  0  0  0  0
    3.3110    0.4051    5.0172 H   0  0  0  0  0  0  0  0  0  0  0  0
    3.0691    0.5798    7.6977 H   0  0  0  0  0  0  0  0  0  0  0  0
    4.9655   -0.9237    5.8309 H   0  0  0  0  0  0  0  0  0  0  0  0
    4.4670   -0.7589    7.8474 H   0  0  0  0  0  0  0  0  0  0  0  0
    2.6308   -9.1769    4.9821 H   0  0  0  0  0  0  0  0  0  0  0  0
    2.2801   -7.9174    6.2788 H   0  0  0  0  0  0  0  0  0  0  0  0
  1  2  1  0
  1 51  1  0
  1 52  1  0
  1 53  1  0
  2  3  1  0
  2  4  1  0
  2  5  1  0
  3 54  1  0
  3 55  1  0
  3 56  1  0
  4 57  1  0
  5 49  1  0
  5  6  1  0
  5 58  1  1
  6  7  1  0
  7  8  1  0
  7 48  1  0
  7 59  1  6
 14  8  1  6
  8 20  1  0
  8  9  1  1
  9 10  1  0
  9 60  1  0
  9 61  1  0
 10 11  1  0
 10 12  1  0
 10 62  1  1
 11 63  1  0
 12 13  1  0
 12 64  1  0
 12 65  1  0
 13 14  1  0
 13 16  1  0
 13 66  1  1
 14 15  2  0
 16 25  1  0
 16 46  1  0
 16 17  1  6
 17 18  1  0
 18 25  1  0
 18 19  1  0
 18 67  1  6
 19 20  1  0
 20 21  1  6
 20 22  1  0
 21 68  1  0
 22 23  1  0
 22 24  1  0
 22 25  1  0
 23 69  1  0
 24 70  1  0
 25 26  1  6
 26 27  1  0
 26 71  1  0
 26 72  1  0
 27 28  1  0
 27 73  1  0
 27 74  1  0
 28 42  1  0
 28 29  1  0
 28 75  1  6
 29 30  1  1
 29 31  1  0
 29 44  1  0
 30 76  1  0
 30 77  1  0
 30 78  1  0
 31 32  1  0
 31 79  1  0
 31 80  1  0
 32 33  1  0
 32 81  1  0
 32 82  1  0
 33 42  1  0
 33 34  1  1
 33 35  1  0
 34 83  1  0
 34 84  1  0
 34 85  1  0
 35 36  1  0
 35 37  1  0
 35 86  1  1
 36 87  1  0
 37 38  1  0
 37 39  1  0
 37 88  1  1
 38 89  1  0
 39 40  1  0
 40 41  1  0
 40 42  1  0
 40 90  1  1
 41 91  1  0
 42 43  1  6
 43 92  1  0
 43 93  1  0
 43 94  1  0
 44 45  1  0
 44 46  1  0
 44 95  1  6
 45 96  1  0
 46 47  1  0
 46 97  1  6
 47 98  1  0
 48 49  1  0
 48 99  1  0
 48100  1  0
 49 50  2  0
M  END
>  <i_m_ct_stereo_status>  (41) 
1

>  <s_m_source_file>  (41) 
/var/tmp/pbs.5075288.sched01/tmpl15vq434/14426guvkcq.sdf

>  <i_m_source_file_index>  (41) 
25

>  <i_lp_mmshare_version>  (41) 
48012

>  <i_f3d_flags>  (41) 
0

>  <s_epik_input>  (41) 
W08tXVtTK10xW0NASF0yW0NIMl1bQ0BIXShbT0hdKVtDSDJdW0NAXTEoW0NAQEhdKFtDSDJdQzM9TylPW0NASF0zQyhbQ0gzXSkoW0NIM10pW09IXSlbQ0BAXShbT0hdKShDNChbT0hdKVtPSF0pT1tDQEhdKE81KVtDQEBdNChbQ0BAXTI1NilbQ0gyXVtDSDJdW0NASF03W0NAQF0oW0NIM10pKFtDQEBIXShbT0hdKVtDQEhdNltPSF0pW0NIMl1bQ0gyXVtDQF04KFtDSDNdKVtDQF03KFtDSDNdKVtDQEhdKFtPSF0pT1tDQEhdKFtPSF0pW0NAQEhdOFtPSF0=

>  <s_epik_cmdline>  (41) 
J2VwaWtfcHl0aG9uJywgJy1waHQnLCAnMi4wJywgJy1waCcsICc3LjAnLCAnLXRuJywgJzgnLCAnLW1hJywgJzIwMCcsICctaW1hZScsICc8aW5maWxlLm1hZT4nLCAnLW9tYWUnLCAnPG91dGZpbGUubWFlPic=

>  <r_lp_tautomer_probability>  (41) 
1

>  <r_epik_Ionization_Penalty>  (41) 
8.52892e-06

>  <r_epik_Ionization_Penalty_Charging>  (41) 
0

>  <r_epik_Ionization_Penalty_Neutral>  (41) 
8.52892e-06

>  <r_epik_State_Penalty>  (41) 
-0

>  <r_epik_Charging_Adjusted_Penalty>  (41) 
0

>  <i_epik_Tot_Q>  (41) 
0

>  <i_epik_Tot_abs_Q>  (41) 
2

>  <s_epik_Chemistry_Notes>  (41) 
This compound contains an acetal/aminal-like group ( X-CH(R)-Y where X, Y are N, S, or O) that may be acid/base labile, releasing an aldehyde.

>  <s_lp_Force_Field>  (41) 
OPLS3e

>  <r_lp_Energy>  (41) 
141.337

>  <b_lp_Chiralities_Consistent>  (41) 
1

>  <s_lp_Variant>  (41) 
45:0-1

>  <s_i_glide_gridfile>  (41) 
pfpi4k_grid

>  <i_i_glide_lignum>  (41) 
25

>  <i_i_glide_rotatable_bonds>  (41) 
12

>  <r_i_docking_score>  (41) 
-3.47366

>  <r_i_glide_ligand_efficiency>  (41) 
-0.0694731

>  <r_i_glide_ligand_efficiency_sa>  (41) 
-0.255941

>  <r_i_glide_ligand_efficiency_ln>  (41) 
-0.707174

>  <r_i_glide_gscore>  (41) 
-3.47366

>  <r_i_glide_lipo>  (41) 
-0.0746328

>  <r_i_glide_hbond>  (41) 
0

>  <r_i_glide_metal>  (41) 
-0

>  <r_i_glide_rewards>  (41) 
-0.0497456

>  <r_i_glide_evdw>  (41) 
-31.091

>  <r_i_glide_ecoul>  (41) 
-11.4746

>  <r_i_glide_erotb>  (41) 
0.0798799

>  <r_i_glide_esite>  (41) 
-0.153419

>  <r_i_glide_emodel>  (41) 
-44.0804

>  <r_i_glide_energy>  (41) 
-42.5656

>  <r_i_glide_einternal>  (41) 
13.8987

>  <r_i_glide_intrahb_reward>  (41) 
-0

>  <i_i_glide_confnum>  (41) 
4

>  <i_i_glide_posenum>  (41) 
1

>  <r_i_glide_eff_state_penalty>  (41) 
0

>  <ligand_id>  (41) 
45

>  <original_smiles>  (41) 
CC(C)(O)C1OC(C23CC(O)CC([S+]2[O-])C24OC5OC3(O)C(O)(O)C52CCC2C(C)(CCC3(C)C(O)C(O)OC(O)C23C)C(O)C4O)CC1=O

>  <smiles>  (41) 
[H]OC1([H])OC([H])(O[H])C2(C([H])([H])[H])C3([H])C([H])([H])C([H])([H])C45C6([H])OC(O[H])(C4(O[H])O[H])C4(C7([H])OC([H])(C(O[H])(C([H])([H])[H])C([H])([H])[H])C(=O)C7([H])[H])S(=O)C([H])(C([H])([H])C([H])(O[H])C4([H])[H])C5(O6)C([H])(O[H])C([H])(O[H])C3(C([H])([H])[H])C([H])([H])C([H])([H])C2(C([H])([H])[H])C1([H])O[H]

$$$$
45:0:1
     RDKit          3D

100107  0  0  1  0  0  0  0  0999 V2000
    0.0702   -9.8341    3.0033 C   0  0  0  0  0  0  0  0  0  0  0  0
   -0.7757   -8.5814    3.3674 C   0  0  0  0  0  0  0  0  0  0  0  0
   -0.9159   -7.6908    2.1284 C   0  0  0  0  0  0  0  0  0  0  0  0
   -2.0820   -9.0120    3.6702 O   0  0  0  0  0  0  0  0  0  0  0  0
   -0.2480   -7.7588    4.5798 C   0  0  2  0  0  0  0  0  0  0  0  0
    0.7521   -6.7932    4.2210 O   0  0  0  0  0  0  0  0  0  0  0  0
    2.0549   -7.3592    4.4211 C   0  0  1  0  0  0  0  0  0  0  0  0
    3.1841   -6.2968    4.6995 C   0  0  2  0  0  0  0  0  0  0  0  0
    4.4526   -7.0742    5.2073 C   0  0  0  0  0  0  0  0  0  0  0  0
    5.5243   -6.3773    6.0787 C   0  0  1  0  0  0  0  0  0  0  0  0
    6.7050   -6.0616    5.3655 O   0  0  0  0  0  0  0  0  0  0  0  0
    5.0603   -5.2430    7.0159 C   0  0  0  0  0  0  0  0  0  0  0  0
    3.9530   -4.2785    6.5163 C   0  0  2  0  0  0  0  0  0  0  0  0
    2.4616   -5.2459    6.0504 S   0  0  0  0  0  0  0  0  0  0  0  0
    2.0531   -6.0649    7.2726 O   0  0  0  0  0  0  0  0  0  0  0  0
    4.3251   -3.0795    5.5563 C   0  0  1  0  0  0  0  0  0  0  0  0
    5.6546   -3.4130    5.0937 O   0  0  0  0  0  0  0  0  0  0  0  0
    5.1628   -3.6801    3.7799 C   0  0  1  0  0  0  0  0  0  0  0  0
    4.9069   -5.0554    3.5323 O   0  0  0  0  0  0  0  0  0  0  0  0
    3.5494   -5.3765    3.4341 C   0  0  1  0  0  0  0  0  0  0  0  0
    3.3572   -6.1248    2.2437 O   0  0  0  0  0  0  0  0  0  0  0  0
    2.8857   -3.9379    3.2532 C   0  0  0  0  0  0  0  0  0  0  0  0
    2.9123   -3.5906    1.8697 O   0  0  0  0  0  0  0  0  0  0  0  0
    1.5378   -3.8514    3.6607 O   0  0  0  0  0  0  0  0  0  0  0  0
    3.8423   -2.9632    4.0312 C   0  0  1  0  0  0  0  0  0  0  0  0
    3.8130   -1.5236    3.4592 C   0  0  0  0  0  0  0  0  0  0  0  0
    2.4787   -0.7101    3.4857 C   0  0  0  0  0  0  0  0  0  0  0  0
    1.7088   -0.0952    4.7398 C   0  0  1  0  0  0  0  0  0  0  0  0
    2.2062   -0.5034    6.2059 C   0  0  2  0  0  0  0  0  0  0  0  0
    1.6273   -1.8992    6.5052 C   0  0  0  0  0  0  0  0  0  0  0  0
    1.5654    0.3304    7.3832 C   0  0  0  0  0  0  0  0  0  0  0  0
    1.2491    1.7951    7.0859 C   0  0  0  0  0  0  0  0  0  0  0  0
    0.4223    1.9373    5.7990 C   0  0  1  0  0  0  0  0  0  0  0  0
   -0.8837    1.0914    6.0164 C   0  0  0  0  0  0  0  0  0  0  0  0
   -0.0767    3.4110    5.6490 C   0  0  1  0  0  0  0  0  0  0  0  0
    0.8989    4.4007    5.9400 O   0  0  0  0  0  0  0  0  0  0  0  0
   -0.7040    3.5993    4.2528 C   0  0  1  0  0  0  0  0  0  0  0  0
   -0.9869    4.9439    4.0157 O   0  0  0  0  0  0  0  0  0  0  0  0
    0.1595    3.1108    3.2799 O   0  0  0  0  0  0  0  0  0  0  0  0
    0.4021    1.7369    3.3204 C   0  0  1  0  0  0  0  0  0  0  0  0
    0.9633    1.3612    2.0862 O   0  0  0  0  0  0  0  0  0  0  0  0
    1.3209    1.4564    4.5696 C   0  0  2  0  0  0  0  0  0  0  0  0
    2.6143    2.3155    4.3884 C   0  0  0  0  0  0  0  0  0  0  0  0
    3.7878   -0.4573    6.2898 C   0  0  1  0  0  0  0  0  0  0  0  0
    4.2969    0.4882    7.2157 O   0  0  0  0  0  0  0  0  0  0  0  0
    4.6563   -1.7679    6.4026 C   0  0  1  0  0  0  0  0  0  0  0  0
    4.8632   -2.0410    7.7843 O   0  0  0  0  0  0  0  0  0  0  0  0
    1.9064   -8.4227    5.5491 C   0  0  0  0  0  0  0  0  0  0  0  0
    0.4210   -8.6635    5.6061 C   0  0  0  0  0  0  0  0  0  0  0  0
   -0.1378   -9.3513    6.4266 O   0  0  0  0  0  0  0  0  0  0  0  0
    1.1138   -9.5850    2.7719 H   0  0  0  0  0  0  0  0  0  0  0  0
   -0.3065  -10.3497    2.1179 H   0  0  0  0  0  0  0  0  0  0  0  0
    0.0949  -10.5661    3.8235 H   0  0  0  0  0  0  0  0  0  0  0  0
    0.0246   -7.2060    1.8457 H   0  0  0  0  0  0  0  0  0  0  0  0
   -1.6546   -6.9164    2.2926 H   0  0  0  0  0  0  0  0  0  0  0  0
   -1.2333   -8.2746    1.2720 H   0  0  0  0  0  0  0  0  0  0  0  0
   -2.0465   -9.7600    4.3127 H   0  0  0  0  0  0  0  0  0  0  0  0
   -1.0606   -7.1866    5.0598 H   0  0  0  0  0  0  0  0  0  0  0  0
    2.2874   -7.8883    3.4932 H   0  0  0  0  0  0  0  0  0  0  0  0
    4.1246   -7.8802    5.8521 H   0  0  0  0  0  0  0  0  0  0  0  0
    4.9280   -7.5769    4.3570 H   0  0  0  0  0  0  0  0  0  0  0  0
    5.8967   -7.1514    6.7495 H   0  0  0  0  0  0  0  0  0  0  0  0
    6.9867   -6.8414    4.9104 H   0  0  0  0  0  0  0  0  0  0  0  0
    4.6353   -5.7270    7.8922 H   0  0  0  0  0  0  0  0  0  0  0  0
    5.9290   -4.6964    7.3797 H   0  0  0  0  0  0  0  0  0  0  0  0
    3.5289   -3.8655    7.4279 H   0  0  0  0  0  0  0  0  0  0  0  0
    5.7830   -3.2335    3.0095 H   0  0  0  0  0  0  0  0  0  0  0  0
    3.8819   -6.9150    2.2807 H   0  0  0  0  0  0  0  0  0  0  0  0
    2.7429   -2.6657    1.7726 H   0  0  0  0  0  0  0  0  0  0  0  0
    1.2675   -2.9449    3.6254 H   0  0  0  0  0  0  0  0  0  0  0  0
    4.6649   -0.9641    3.8327 H   0  0  0  0  0  0  0  0  0  0  0  0
    4.1222   -1.5421    2.4104 H   0  0  0  0  0  0  0  0  0  0  0  0
    2.7819    0.1136    2.8566 H   0  0  0  0  0  0  0  0  0  0  0  0
    1.7434   -1.2373    2.8778 H   0  0  0  0  0  0  0  0  0  0  0  0
    0.7421   -0.5867    4.6397 H   0  0  0  0  0  0  0  0  0  0  0  0
    1.9779   -2.2825    7.4661 H   0  0  0  0  0  0  0  0  0  0  0  0
    1.8669   -2.5920    5.7180 H   0  0  0  0  0  0  0  0  0  0  0  0
    0.5344   -1.8886    6.5337 H   0  0  0  0  0  0  0  0  0  0  0  0
    0.6352   -0.1251    7.7298 H   0  0  0  0  0  0  0  0  0  0  0  0
    2.1728    0.2679    8.2813 H   0  0  0  0  0  0  0  0  0  0  0  0
    0.7096    2.2213    7.9329 H   0  0  0  0  0  0  0  0  0  0  0  0
    2.1715    2.3679    7.0493 H   0  0  0  0  0  0  0  0  0  0  0  0
   -1.6315    1.2444    5.2472 H   0  0  0  0  0  0  0  0  0  0  0  0
   -1.3607    1.3583    6.9610 H   0  0  0  0  0  0  0  0  0  0  0  0
   -0.7240    0.0184    6.0469 H   0  0  0  0  0  0  0  0  0  0  0  0
   -0.8695    3.5953    6.3890 H   0  0  0  0  0  0  0  0  0  0  0  0
    1.5959    4.3028    5.3073 H   0  0  0  0  0  0  0  0  0  0  0  0
   -1.6511    3.0798    4.1722 H   0  0  0  0  0  0  0  0  0  0  0  0
   -0.1669    5.3686    3.8129 H   0  0  0  0  0  0  0  0  0  0  0  0
   -0.5448    1.2078    3.3762 H   0  0  0  0  0  0  0  0  0  0  0  0
    0.4058    1.7107    1.4057 H   0  0  0  0  0  0  0  0  0  0  0  0
    2.4022    3.3727    4.2486 H   0  0  0  0  0  0  0  0  0  0  0  0
    3.1699    2.0514    3.4928 H   0  0  0  0  0  0  0  0  0  0  0  0
    3.3083    2.2403    5.2192 H   0  0  0  0  0  0  0  0  0  0  0  0
    4.1072    0.0851    5.4123 H   0  0  0  0  0  0  0  0  0  0  0  0
    3.9004    1.3228    7.0253 H   0  0  0  0  0  0  0  0  0  0  0  0
    5.6500   -1.4279    6.0967 H   0  0  0  0  0  0  0  0  0  0  0  0
    5.5275   -2.7095    7.8351 H   0  0  0  0  0  0  0  0  0  0  0  0
    2.4126   -9.3438    5.2438 H   0  0  0  0  0  0  0  0  0  0  0  0
    2.2448   -8.0364    6.5223 H   0  0  0  0  0  0  0  0  0  0  0  0
  1  2  1  0
  1 51  1  0
  1 52  1  0
  1 53  1  0
  2  3  1  0
  2  4  1  0
  2  5  1  0
  3 54  1  0
  3 55  1  0
  3 56  1  0
  4 57  1  0
  5 49  1  0
  5  6  1  0
  5 58  1  1
  6  7  1  0
  7  8  1  0
  7 48  1  0
  7 59  1  6
 14  8  1  6
  8 20  1  0
  8  9  1  1
  9 10  1  0
  9 60  1  0
  9 61  1  0
 10 11  1  0
 10 12  1  0
 10 62  1  1
 11 63  1  0
 12 13  1  0
 12 64  1  0
 12 65  1  0
 13 14  1  0
 13 16  1  0
 13 66  1  1
 14 15  2  0
 16 25  1  0
 16 46  1  0
 16 17  1  6
 17 18  1  0
 18 25  1  0
 18 19  1  0
 18 67  1  6
 19 20  1  0
 20 21  1  6
 20 22  1  0
 21 68  1  0
 22 23  1  0
 22 24  1  0
 22 25  1  0
 23 69  1  0
 24 70  1  0
 25 26  1  6
 26 27  1  0
 26 71  1  0
 26 72  1  0
 27 28  1  0
 27 73  1  0
 27 74  1  0
 28 42  1  0
 28 29  1  0
 28 75  1  6
 29 30  1  1
 29 31  1  0
 29 44  1  0
 30 76  1  0
 30 77  1  0
 30 78  1  0
 31 32  1  0
 31 79  1  0
 31 80  1  0
 32 33  1  0
 32 81  1  0
 32 82  1  0
 33 42  1  0
 33 34  1  1
 33 35  1  0
 34 83  1  0
 34 84  1  0
 34 85  1  0
 35 36  1  0
 35 37  1  0
 35 86  1  1
 36 87  1  0
 37 38  1  0
 37 39  1  0
 37 88  1  1
 38 89  1  0
 39 40  1  0
 40 41  1  0
 40 42  1  0
 40 90  1  1
 41 91  1  0
 42 43  1  6
 43 92  1  0
 43 93  1  0
 43 94  1  0
 44 45  1  0
 44 46  1  0
 44 95  1  6
 45 96  1  0
 46 47  1  0
 46 97  1  6
 47 98  1  0
 48 49  1  0
 48 99  1  0
 48100  1  0
 49 50  2  0
M  END
>  <i_m_ct_stereo_status>  (42) 
1

>  <s_m_source_file>  (42) 
/var/tmp/pbs.5075288.sched01/tmpl15vq434/14426guvkcq.sdf

>  <i_m_source_file_index>  (42) 
25

>  <i_lp_mmshare_version>  (42) 
48012

>  <i_f3d_flags>  (42) 
0

>  <s_epik_input>  (42) 
W08tXVtTK10xW0NASF0yW0NIMl1bQ0BIXShbT0hdKVtDSDJdW0NAXTEoW0NAQEhdKFtDSDJdQzM9TylPW0NASF0zQyhbQ0gzXSkoW0NIM10pW09IXSlbQ0BAXShbT0hdKShDNChbT0hdKVtPSF0pT1tDQEhdKE81KVtDQEBdNChbQ0BAXTI1NilbQ0gyXVtDSDJdW0NASF03W0NAQF0oW0NIM10pKFtDQEBIXShbT0hdKVtDQEhdNltPSF0pW0NIMl1bQ0gyXVtDQF04KFtDSDNdKVtDQF03KFtDSDNdKVtDQEhdKFtPSF0pT1tDQEhdKFtPSF0pW0NAQEhdOFtPSF0=

>  <s_epik_cmdline>  (42) 
J2VwaWtfcHl0aG9uJywgJy1waHQnLCAnMi4wJywgJy1waCcsICc3LjAnLCAnLXRuJywgJzgnLCAnLW1hJywgJzIwMCcsICctaW1hZScsICc8aW5maWxlLm1hZT4nLCAnLW9tYWUnLCAnPG91dGZpbGUubWFlPic=

>  <r_lp_tautomer_probability>  (42) 
1

>  <r_epik_Ionization_Penalty>  (42) 
8.52892e-06

>  <r_epik_Ionization_Penalty_Charging>  (42) 
0

>  <r_epik_Ionization_Penalty_Neutral>  (42) 
8.52892e-06

>  <r_epik_State_Penalty>  (42) 
-0

>  <r_epik_Charging_Adjusted_Penalty>  (42) 
0

>  <i_epik_Tot_Q>  (42) 
0

>  <i_epik_Tot_abs_Q>  (42) 
2

>  <s_epik_Chemistry_Notes>  (42) 
This compound contains an acetal/aminal-like group ( X-CH(R)-Y where X, Y are N, S, or O) that may be acid/base labile, releasing an aldehyde.

>  <s_lp_Force_Field>  (42) 
OPLS3e

>  <r_lp_Energy>  (42) 
141.337

>  <b_lp_Chiralities_Consistent>  (42) 
1

>  <s_lp_Variant>  (42) 
45:0-1

>  <s_i_glide_gridfile>  (42) 
pfpi4k_grid

>  <i_i_glide_lignum>  (42) 
25

>  <i_i_glide_rotatable_bonds>  (42) 
12

>  <r_i_docking_score>  (42) 
-3.00643

>  <r_i_glide_ligand_efficiency>  (42) 
-0.0601285

>  <r_i_glide_ligand_efficiency_sa>  (42) 
-0.221515

>  <r_i_glide_ligand_efficiency_ln>  (42) 
-0.612054

>  <r_i_glide_gscore>  (42) 
-3.00643

>  <r_i_glide_lipo>  (42) 
-0.00383016

>  <r_i_glide_hbond>  (42) 
0

>  <r_i_glide_metal>  (42) 
-0

>  <r_i_glide_rewards>  (42) 
-0.0425087

>  <r_i_glide_evdw>  (42) 
-31.6605

>  <r_i_glide_ecoul>  (42) 
-8.88259

>  <r_i_glide_erotb>  (42) 
0.0798799

>  <r_i_glide_esite>  (42) 
-0.124556

>  <r_i_glide_emodel>  (42) 
-40.4131

>  <r_i_glide_energy>  (42) 
-40.543

>  <r_i_glide_einternal>  (42) 
14.5637

>  <r_i_glide_intrahb_reward>  (42) 
-0

>  <i_i_glide_confnum>  (42) 
4

>  <i_i_glide_posenum>  (42) 
30

>  <r_i_glide_eff_state_penalty>  (42) 
0

>  <ligand_id>  (42) 
45

>  <original_smiles>  (42) 
CC(C)(O)C1OC(C23CC(O)CC([S+]2[O-])C24OC5OC3(O)C(O)(O)C52CCC2C(C)(CCC3(C)C(O)C(O)OC(O)C23C)C(O)C4O)CC1=O

>  <smiles>  (42) 
[H]OC1([H])OC([H])(O[H])C2(C([H])([H])[H])C3([H])C([H])([H])C([H])([H])C45C6([H])OC(O[H])(C4(O[H])O[H])C4(C7([H])OC([H])(C(O[H])(C([H])([H])[H])C([H])([H])[H])C(=O)C7([H])[H])S(=O)C([H])(C([H])([H])C([H])(O[H])C4([H])[H])C5(O6)C([H])(O[H])C([H])(O[H])C3(C([H])([H])[H])C([H])([H])C([H])([H])C2(C([H])([H])[H])C1([H])O[H]

$$$$
45:0:2
     RDKit          3D

100107  0  0  1  0  0  0  0  0999 V2000
    1.0367  -10.1728    5.3788 C   0  0  0  0  0  0  0  0  0  0  0  0
    1.4053  -10.3936    3.8909 C   0  0  0  0  0  0  0  0  0  0  0  0
    2.5284  -11.4313    3.7851 C   0  0  0  0  0  0  0  0  0  0  0  0
    0.2904  -11.0113    3.2861 O   0  0  0  0  0  0  0  0  0  0  0  0
    1.7247   -9.0747    3.1251 C   0  0  2  0  0  0  0  0  0  0  0  0
    2.8224   -8.3621    3.7201 O   0  0  0  0  0  0  0  0  0  0  0  0
    2.3155   -7.2946    4.5475 C   0  0  1  0  0  0  0  0  0  0  0  0
    3.3050   -6.1168    4.8311 C   0  0  2  0  0  0  0  0  0  0  0  0
    4.5921   -6.7103    5.5022 C   0  0  0  0  0  0  0  0  0  0  0  0
    5.5451   -5.8268    6.3646 C   0  0  1  0  0  0  0  0  0  0  0  0
    6.6869   -5.4109    5.6467 O   0  0  0  0  0  0  0  0  0  0  0  0
    4.9226   -4.6542    7.1599 C   0  0  0  0  0  0  0  0  0  0  0  0
    3.7265   -3.8869    6.5393 C   0  0  2  0  0  0  0  0  0  0  0  0
    2.4160   -5.0881    6.0898 S   0  0  0  0  0  0  0  0  0  0  0  0
    2.1285   -5.9586    7.3329 O   0  0  0  0  0  0  0  0  0  0  0  0
    3.9911   -2.7303    5.4784 C   0  0  1  0  0  0  0  0  0  0  0  0
    5.3787   -2.9106    5.0972 O   0  0  0  0  0  0  0  0  0  0  0  0
    4.9926   -3.3558    3.8003 C   0  0  1  0  0  0  0  0  0  0  0  0
    4.9125   -4.7687    3.6869 O   0  0  0  0  0  0  0  0  0  0  0  0
    3.6185   -5.2633    3.5346 C   0  0  1  0  0  0  0  0  0  0  0  0
    3.6143   -6.1088    2.3896 O   0  0  0  0  0  0  0  0  0  0  0  0
    2.7930   -3.9407    3.2281 C   0  0  0  0  0  0  0  0  0  0  0  0
    2.8204   -3.7120    1.8244 O   0  0  0  0  0  0  0  0  0  0  0  0
    1.4401   -3.9072    3.6301 O   0  0  0  0  0  0  0  0  0  0  0  0
    3.5790   -2.8037    3.9415 C   0  0  1  0  0  0  0  0  0  0  0  0
    3.3632   -1.4355    3.2370 C   0  0  0  0  0  0  0  0  0  0  0  0
    1.9241   -0.8181    3.1613 C   0  0  0  0  0  0  0  0  0  0  0  0
    1.0293   -0.1974    4.3274 C   0  0  1  0  0  0  0  0  0  0  0  0
    1.5248   -0.4004    5.8347 C   0  0  2  0  0  0  0  0  0  0  0  0
    1.1235   -1.8218    6.2649 C   0  0  0  0  0  0  0  0  0  0  0  0
    0.7357    0.4451    6.9058 C   0  0  0  0  0  0  0  0  0  0  0  0
    0.2473    1.8245    6.4714 C   0  0  0  0  0  0  0  0  0  0  0  0
   -0.5492    1.7403    5.1560 C   0  0  1  0  0  0  0  0  0  0  0  0
   -1.7313    0.7465    5.4227 C   0  0  0  0  0  0  0  0  0  0  0  0
   -1.2325    3.1167    4.8519 C   0  0  1  0  0  0  0  0  0  0  0  0
   -0.3979    4.2424    5.0704 O   0  0  0  0  0  0  0  0  0  0  0  0
   -1.8451    3.1010    3.4321 C   0  0  1  0  0  0  0  0  0  0  0  0
   -2.2583    4.3845    3.0462 O   0  0  0  0  0  0  0  0  0  0  0  0
   -0.9164    2.6117    2.5213 O   0  0  0  0  0  0  0  0  0  0  0  0
   -0.4622    1.3071    2.7100 C   0  0  1  0  0  0  0  0  0  0  0  0
    0.2376    0.9300    1.5569 O   0  0  0  0  0  0  0  0  0  0  0  0
    0.4433    1.2697    4.0013 C   0  0  2  0  0  0  0  0  0  0  0  0
    1.6216    2.2690    3.7621 C   0  0  0  0  0  0  0  0  0  0  0  0
    3.0825   -0.1537    5.9506 C   0  0  1  0  0  0  0  0  0  0  0  0
    3.4453    0.9005    6.8241 O   0  0  0  0  0  0  0  0  0  0  0  0
    4.1062   -1.3225    6.1973 C   0  0  1  0  0  0  0  0  0  0  0  0
    4.2963   -1.4232    7.5966 O   0  0  0  0  0  0  0  0  0  0  0  0
    0.9468   -6.8938    3.9717 C   0  0  0  0  0  0  0  0  0  0  0  0
    0.5627   -8.0770    3.1513 C   0  0  0  0  0  0  0  0  0  0  0  0
   -0.4894   -8.1450    2.5122 O   0  0  0  0  0  0  0  0  0  0  0  0
    1.9010   -9.8266    5.9457 H   0  0  0  0  0  0  0  0  0  0  0  0
    0.6834  -11.0837    5.8603 H   0  0  0  0  0  0  0  0  0  0  0  0
    0.2419   -9.4381    5.4993 H   0  0  0  0  0  0  0  0  0  0  0  0
    3.4882  -11.0550    4.1410 H   0  0  0  0  0  0  0  0  0  0  0  0
    2.6509  -11.7663    2.7551 H   0  0  0  0  0  0  0  0  0  0  0  0
    2.2775  -12.3072    4.3847 H   0  0  0  0  0  0  0  0  0  0  0  0
   -0.4053  -11.0284    3.9269 H   0  0  0  0  0  0  0  0  0  0  0  0
    2.0254   -9.2698    2.0909 H   0  0  0  0  0  0  0  0  0  0  0  0
    2.1336   -7.7628    5.5226 H   0  0  0  0  0  0  0  0  0  0  0  0
    4.2542   -7.4655    6.2080 H   0  0  0  0  0  0  0  0  0  0  0  0
    5.1831   -7.2858    4.7735 H   0  0  0  0  0  0  0  0  0  0  0  0
    5.9873   -6.4857    7.1139 H   0  0  0  0  0  0  0  0  0  0  0  0
    7.1069   -6.1743    5.2766 H   0  0  0  0  0  0  0  0  0  0  0  0
    4.5402   -5.0848    8.0836 H   0  0  0  0  0  0  0  0  0  0  0  0
    5.7010   -3.9631    7.4763 H   0  0  0  0  0  0  0  0  0  0  0  0
    3.2274   -3.4466    7.4005 H   0  0  0  0  0  0  0  0  0  0  0  0
    5.5595   -2.8998    2.9952 H   0  0  0  0  0  0  0  0  0  0  0  0
    4.0569   -6.9229    2.6113 H   0  0  0  0  0  0  0  0  0  0  0  0
    2.4922   -2.8417    1.6467 H   0  0  0  0  0  0  0  0  0  0  0  0
    1.3703   -4.1698    4.5420 H   0  0  0  0  0  0  0  0  0  0  0  0
    4.1187   -0.7342    3.5714 H   0  0  0  0  0  0  0  0  0  0  0  0
    3.6997   -1.5064    2.1975 H   0  0  0  0  0  0  0  0  0  0  0  0
    2.1370   -0.0319    2.4568 H   0  0  0  0  0  0  0  0  0  0  0  0
    1.2822   -1.4903    2.5906 H   0  0  0  0  0  0  0  0  0  0  0  0
    0.1414   -0.8253    4.2500 H   0  0  0  0  0  0  0  0  0  0  0  0
    1.4807   -2.0640    7.2641 H   0  0  0  0  0  0  0  0  0  0  0  0
    1.4924   -2.5467    5.5724 H   0  0  0  0  0  0  0  0  0  0  0  0
    0.0419   -1.9570    6.2540 H   0  0  0  0  0  0  0  0  0  0  0  0
   -0.1326   -0.1022    7.2805 H   0  0  0  0  0  0  0  0  0  0  0  0
    1.3159    0.5513    7.8125 H   0  0  0  0  0  0  0  0  0  0  0  0
   -0.3724    2.2546    7.2597 H   0  0  0  0  0  0  0  0  0  0  0  0
    1.0928    2.5007    6.3961 H   0  0  0  0  0  0  0  0  0  0  0  0
   -2.4518    0.7262    4.6146 H   0  0  0  0  0  0  0  0  0  0  0  0
   -2.2765    1.0358    6.3202 H   0  0  0  0  0  0  0  0  0  0  0  0
   -1.4341   -0.2869    5.5591 H   0  0  0  0  0  0  0  0  0  0  0  0
   -2.0587    3.2547    5.5605 H   0  0  0  0  0  0  0  0  0  0  0  0
    0.2892    4.2083    4.4118 H   0  0  0  0  0  0  0  0  0  0  0  0
   -2.7353    2.4783    3.3924 H   0  0  0  0  0  0  0  0  0  0  0  0
   -1.7936    4.5824    2.2419 H   0  0  0  0  0  0  0  0  0  0  0  0
   -1.3076    0.6250    2.7789 H   0  0  0  0  0  0  0  0  0  0  0  0
   -0.3436    0.9487    0.7957 H   0  0  0  0  0  0  0  0  0  0  0  0
    1.2821    3.2717    3.5083 H   0  0  0  0  0  0  0  0  0  0  0  0
    2.2400    1.9930    2.9136 H   0  0  0  0  0  0  0  0  0  0  0  0
    2.2932    2.3621    4.6107 H   0  0  0  0  0  0  0  0  0  0  0  0
    3.3652    0.3525    5.0423 H   0  0  0  0  0  0  0  0  0  0  0  0
    3.0070    1.6821    6.5125 H   0  0  0  0  0  0  0  0  0  0  0  0
    5.0612   -0.8844    5.8918 H   0  0  0  0  0  0  0  0  0  0  0  0
    4.4394   -0.5356    7.8993 H   0  0  0  0  0  0  0  0  0  0  0  0
    0.2340   -6.7349    4.7875 H   0  0  0  0  0  0  0  0  0  0  0  0
    0.9958   -6.0736    3.2642 H   0  0  0  0  0  0  0  0  0  0  0  0
  1  2  1  0
  1 51  1  0
  1 52  1  0
  1 53  1  0
  2  3  1  0
  2  4  1  0
  2  5  1  0
  3 54  1  0
  3 55  1  0
  3 56  1  0
  4 57  1  0
  5 49  1  0
  5  6  1  0
  5 58  1  6
  6  7  1  0
  7  8  1  0
  7 48  1  0
  7 59  1  1
 14  8  1  6
  8 20  1  0
  8  9  1  1
  9 10  1  0
  9 60  1  0
  9 61  1  0
 10 11  1  0
 10 12  1  0
 10 62  1  1
 11 63  1  0
 12 13  1  0
 12 64  1  0
 12 65  1  0
 13 14  1  0
 13 16  1  0
 13 66  1  1
 14 15  2  0
 16 25  1  0
 16 46  1  0
 16 17  1  6
 17 18  1  0
 18 25  1  0
 18 19  1  0
 18 67  1  6
 19 20  1  0
 20 21  1  6
 20 22  1  0
 21 68  1  0
 22 23  1  0
 22 24  1  0
 22 25  1  0
 23 69  1  0
 24 70  1  0
 25 26  1  6
 26 27  1  0
 26 71  1  0
 26 72  1  0
 27 28  1  0
 27 73  1  0
 27 74  1  0
 28 42  1  0
 28 29  1  0
 28 75  1  1
 29 30  1  1
 29 31  1  0
 29 44  1  0
 30 76  1  0
 30 77  1  0
 30 78  1  0
 31 32  1  0
 31 79  1  0
 31 80  1  0
 32 33  1  0
 32 81  1  0
 32 82  1  0
 33 42  1  0
 33 34  1  1
 33 35  1  0
 34 83  1  0
 34 84  1  0
 34 85  1  0
 35 36  1  0
 35 37  1  0
 35 86  1  1
 36 87  1  0
 37 38  1  0
 37 39  1  0
 37 88  1  1
 38 89  1  0
 39 40  1  0
 40 41  1  0
 40 42  1  0
 40 90  1  1
 41 91  1  0
 42 43  1  6
 43 92  1  0
 43 93  1  0
 43 94  1  0
 44 45  1  0
 44 46  1  0
 44 95  1  6
 45 96  1  0
 46 47  1  0
 46 97  1  6
 47 98  1  0
 48 49  1  0
 48 99  1  0
 48100  1  0
 49 50  2  0
M  END
>  <i_m_ct_stereo_status>  (43) 
1

>  <s_m_source_file>  (43) 
/var/tmp/pbs.5075288.sched01/tmpl15vq434/14426guvkcq.sdf

>  <i_m_source_file_index>  (43) 
25

>  <i_lp_mmshare_version>  (43) 
48012

>  <i_f3d_flags>  (43) 
0

>  <s_epik_input>  (43) 
W08tXVtTK10xW0NASF0yW0NIMl1bQ0BIXShbT0hdKVtDSDJdW0NAXTEoW0NAQEhdKFtDSDJdQzM9TylPW0NASF0zQyhbQ0gzXSkoW0NIM10pW09IXSlbQ0BAXShbT0hdKShDNChbT0hdKVtPSF0pT1tDQEhdKE81KVtDQEBdNChbQ0BAXTI1NilbQ0gyXVtDSDJdW0NASF03W0NAQF0oW0NIM10pKFtDQEBIXShbT0hdKVtDQEhdNltPSF0pW0NIMl1bQ0gyXVtDQF04KFtDSDNdKVtDQF03KFtDSDNdKVtDQEhdKFtPSF0pT1tDQEhdKFtPSF0pW0NAQEhdOFtPSF0=

>  <s_epik_cmdline>  (43) 
J2VwaWtfcHl0aG9uJywgJy1waHQnLCAnMi4wJywgJy1waCcsICc3LjAnLCAnLXRuJywgJzgnLCAnLW1hJywgJzIwMCcsICctaW1hZScsICc8aW5maWxlLm1hZT4nLCAnLW9tYWUnLCAnPG91dGZpbGUubWFlPic=

>  <r_lp_tautomer_probability>  (43) 
1

>  <r_epik_Ionization_Penalty>  (43) 
8.52892e-06

>  <r_epik_Ionization_Penalty_Charging>  (43) 
0

>  <r_epik_Ionization_Penalty_Neutral>  (43) 
8.52892e-06

>  <r_epik_State_Penalty>  (43) 
-0

>  <r_epik_Charging_Adjusted_Penalty>  (43) 
0

>  <i_epik_Tot_Q>  (43) 
0

>  <i_epik_Tot_abs_Q>  (43) 
2

>  <s_epik_Chemistry_Notes>  (43) 
This compound contains an acetal/aminal-like group ( X-CH(R)-Y where X, Y are N, S, or O) that may be acid/base labile, releasing an aldehyde.

>  <s_lp_Force_Field>  (43) 
OPLS3e

>  <r_lp_Energy>  (43) 
141.337

>  <b_lp_Chiralities_Consistent>  (43) 
1

>  <s_lp_Variant>  (43) 
45:0-1

>  <s_i_glide_gridfile>  (43) 
pfpi4k_grid

>  <i_i_glide_lignum>  (43) 
25

>  <i_i_glide_rotatable_bonds>  (43) 
12

>  <r_i_docking_score>  (43) 
-2.96067

>  <r_i_glide_ligand_efficiency>  (43) 
-0.0592134

>  <r_i_glide_ligand_efficiency_sa>  (43) 
-0.218144

>  <r_i_glide_ligand_efficiency_ln>  (43) 
-0.602739

>  <r_i_glide_gscore>  (43) 
-2.96067

>  <r_i_glide_lipo>  (43) 
-0.0121051

>  <r_i_glide_hbond>  (43) 
0

>  <r_i_glide_metal>  (43) 
-0

>  <r_i_glide_rewards>  (43) 
-0.0533424

>  <r_i_glide_evdw>  (43) 
-36.3672

>  <r_i_glide_ecoul>  (43) 
-6.82194

>  <r_i_glide_erotb>  (43) 
0.0798799

>  <r_i_glide_esite>  (43) 
-0.13345

>  <r_i_glide_emodel>  (43) 
-48.6028

>  <r_i_glide_energy>  (43) 
-43.1891

>  <r_i_glide_einternal>  (43) 
5.3324

>  <r_i_glide_intrahb_reward>  (43) 
-0

>  <i_i_glide_confnum>  (43) 
4

>  <i_i_glide_posenum>  (43) 
39

>  <r_i_glide_eff_state_penalty>  (43) 
0

>  <ligand_id>  (43) 
45

>  <original_smiles>  (43) 
CC(C)(O)C1OC(C23CC(O)CC([S+]2[O-])C24OC5OC3(O)C(O)(O)C52CCC2C(C)(CCC3(C)C(O)C(O)OC(O)C23C)C(O)C4O)CC1=O

>  <smiles>  (43) 
[H]OC1([H])OC([H])(O[H])C2(C([H])([H])[H])C3([H])C([H])([H])C([H])([H])C45C6([H])OC(O[H])(C4(O[H])O[H])C4(C7([H])OC([H])(C(O[H])(C([H])([H])[H])C([H])([H])[H])C(=O)C7([H])[H])S(=O)C([H])(C([H])([H])C([H])(O[H])C4([H])[H])C5(O6)C([H])(O[H])C([H])(O[H])C3(C([H])([H])[H])C([H])([H])C([H])([H])C2(C([H])([H])[H])C1([H])O[H]

$$$$
46:0:0
     RDKit          3D

 72 76  0  0  1  0  0  0  0  0999 V2000
    6.7179   -7.3256    9.2396 C   0  0  0  0  0  0  0  0  0  0  0  0
    7.1568   -7.3534    7.9615 C   0  0  0  0  0  0  0  0  0  0  0  0
    6.8191   -8.4788    7.0007 C   0  0  0  0  0  0  0  0  0  0  0  0
    6.3782   -8.0135    5.5889 C   0  0  0  0  0  0  0  0  0  0  0  0
    6.5073   -6.6919    5.2688 C   0  0  0  0  0  0  0  0  0  0  0  0
    7.1328   -5.6567    6.2064 C   0  0  0  0  0  0  0  0  0  0  0  0
    7.9728   -6.2617    7.3188 C   0  0  1  0  0  0  0  0  0  0  0  0
    8.3845   -5.2517    8.2246 O   0  0  0  0  0  0  0  0  0  0  0  0
    6.0433   -6.0820    3.9624 C   0  0  1  0  0  0  0  0  0  0  0  0
    7.1807   -6.4885    2.5358 S   0  0  0  0  0  0  0  0  0  0  0  0
    6.5604   -6.3795    1.1508 O   0  0  0  0  0  0  0  0  0  0  0  0
    7.7074   -8.2327    2.9026 C   0  0  0  0  0  0  0  0  0  0  0  0
    6.5436   -9.1998    3.1883 C   0  0  2  0  0  0  0  0  0  0  0  0
    7.1904  -10.4636    3.0760 O   0  0  0  0  0  0  0  0  0  0  0  0
    5.4109   -9.1580    2.1042 C   0  0  1  0  0  0  0  0  0  0  0  0
    5.6774   -9.8585    0.8863 O   0  0  0  0  0  0  0  0  0  0  0  0
    4.1209   -9.5927    2.8057 C   0  0  2  0  0  0  0  0  0  0  0  0
    4.1710  -11.0041    2.8907 O   0  0  0  0  0  0  0  0  0  0  0  0
    2.7570   -9.2894    2.1481 C   0  0  0  0  0  0  0  0  0  0  0  0
    2.0100   -7.9712    2.5359 C   0  0  1  0  0  0  0  0  0  0  0  0
    0.4513   -8.1080    2.4739 C   0  0  2  0  0  0  0  0  0  0  0  0
    0.0120   -7.4609    1.2958 O   0  0  0  0  0  0  0  0  0  0  0  0
   -0.3948   -7.6432    3.6961 C   0  0  0  0  0  0  0  0  0  0  0  0
   -1.8989   -7.7902    3.4083 C   0  0  0  0  0  0  0  0  0  0  0  0
   -0.0901   -8.4067    5.0159 C   0  0  0  0  0  0  0  0  0  0  0  0
   -0.1642   -6.2569    3.9186 O   0  0  0  0  0  0  0  0  0  0  0  0
    2.3900   -7.3903    3.8012 O   0  0  0  0  0  0  0  0  0  0  0  0
    3.7655   -7.4434    4.2112 C   0  0  1  0  0  0  0  0  0  0  0  0
    4.3200   -8.9107    4.1716 C   0  0  2  0  0  0  0  0  0  0  0  0
    5.8206   -9.1141    4.6046 C   0  0  2  0  0  0  0  0  0  0  0  0
    5.8931  -10.5084    5.3513 C   0  0  0  0  0  0  0  0  0  0  0  0
    4.5056   -6.1275    3.7277 C   0  0  0  0  0  0  0  0  0  0  0  0
    3.9057   -5.0145    4.6371 C   0  0  0  0  0  0  0  0  0  0  0  0
    4.1233   -5.6226    2.3159 C   0  0  0  0  0  0  0  0  0  0  0  0
    6.9438   -6.5037    9.8989 H   0  0  0  0  0  0  0  0  0  0  0  0
    6.1149   -8.1262    9.6289 H   0  0  0  0  0  0  0  0  0  0  0  0
    7.7148   -9.0883    6.9052 H   0  0  0  0  0  0  0  0  0  0  0  0
    6.0423   -9.0681    7.4837 H   0  0  0  0  0  0  0  0  0  0  0  0
    7.7802   -4.9888    5.6359 H   0  0  0  0  0  0  0  0  0  0  0  0
    6.3297   -5.0501    6.6270 H   0  0  0  0  0  0  0  0  0  0  0  0
    8.8656   -6.7200    6.9016 H   0  0  0  0  0  0  0  0  0  0  0  0
    7.6226   -4.8456    8.6057 H   0  0  0  0  0  0  0  0  0  0  0  0
    6.2592   -5.0186    4.0451 H   0  0  0  0  0  0  0  0  0  0  0  0
    8.2246   -8.5454    2.0009 H   0  0  0  0  0  0  0  0  0  0  0  0
    8.4445   -8.2459    3.7101 H   0  0  0  0  0  0  0  0  0  0  0  0
    6.5270  -11.1318    3.1094 H   0  0  0  0  0  0  0  0  0  0  0  0
    5.2180   -8.1440    1.7993 H   0  0  0  0  0  0  0  0  0  0  0  0
    5.2118  -10.6759    0.8811 H   0  0  0  0  0  0  0  0  0  0  0  0
    4.0197  -11.4212    2.0300 H   0  0  0  0  0  0  0  0  0  0  0  0
    2.8463   -9.3233    1.0726 H   0  0  0  0  0  0  0  0  0  0  0  0
    2.1008  -10.1270    2.3647 H   0  0  0  0  0  0  0  0  0  0  0  0
    2.2987   -7.2582    1.7635 H   0  0  0  0  0  0  0  0  0  0  0  0
    0.1523   -9.1410    2.3200 H   0  0  0  0  0  0  0  0  0  0  0  0
    0.0465   -8.0949    0.6030 H   0  0  0  0  0  0  0  0  0  0  0  0
   -2.1714   -8.8320    3.2435 H   0  0  0  0  0  0  0  0  0  0  0  0
   -2.2298   -7.2175    2.5411 H   0  0  0  0  0  0  0  0  0  0  0  0
   -2.4777   -7.4263    4.2524 H   0  0  0  0  0  0  0  0  0  0  0  0
   -0.3434   -9.4628    4.9117 H   0  0  0  0  0  0  0  0  0  0  0  0
   -0.6843   -7.9989    5.8285 H   0  0  0  0  0  0  0  0  0  0  0  0
    0.9191   -8.3556    5.4137 H   0  0  0  0  0  0  0  0  0  0  0  0
    0.7519   -6.1822    4.1296 H   0  0  0  0  0  0  0  0  0  0  0  0
    3.6723   -7.3070    5.3082 H   0  0  0  0  0  0  0  0  0  0  0  0
    3.6967   -9.4508    4.8917 H   0  0  0  0  0  0  0  0  0  0  0  0
    5.5939  -11.3654    4.7500 H   0  0  0  0  0  0  0  0  0  0  0  0
    5.2319  -10.5549    6.2109 H   0  0  0  0  0  0  0  0  0  0  0  0
    6.9033  -10.7578    5.6906 H   0  0  0  0  0  0  0  0  0  0  0  0
    2.8182   -4.9816    4.5628 H   0  0  0  0  0  0  0  0  0  0  0  0
    4.2662   -4.0242    4.3451 H   0  0  0  0  0  0  0  0  0  0  0  0
    4.1510   -5.1523    5.6874 H   0  0  0  0  0  0  0  0  0  0  0  0
    3.0941   -5.2669    2.2762 H   0  0  0  0  0  0  0  0  0  0  0  0
    4.2210   -6.3644    1.5260 H   0  0  0  0  0  0  0  0  0  0  0  0
    4.7427   -4.7718    2.0213 H   0  0  0  0  0  0  0  0  0  0  0  0
  1  2  2  0
  1 35  1  0
  1 36  1  0
  2  7  1  0
  2  3  1  0
  3  4  1  0
  3 37  1  0
  3 38  1  0
  4 30  1  0
  4  5  2  0
  5  6  1  0
  5  9  1  0
  6  7  1  0
  6 39  1  0
  6 40  1  0
  7  8  1  0
  7 41  1  6
  8 42  1  0
  9 32  1  0
  9 10  1  0
  9 43  1  1
 10 11  2  0
 10 12  1  1
 12 13  1  0
 12 44  1  0
 12 45  1  0
 13 30  1  0
 13 14  1  1
 13 15  1  0
 14 46  1  0
 15 16  1  0
 15 17  1  0
 15 47  1  6
 16 48  1  0
 17 29  1  0
 17 18  1  1
 17 19  1  0
 18 49  1  0
 19 20  1  0
 19 50  1  0
 19 51  1  0
 20 21  1  0
 20 27  1  0
 20 52  1  6
 21 22  1  0
 21 23  1  0
 21 53  1  6
 22 54  1  0
 23 24  1  0
 23 25  1  0
 23 26  1  0
 24 55  1  0
 24 56  1  0
 24 57  1  0
 25 58  1  0
 25 59  1  0
 25 60  1  0
 26 61  1  0
 27 28  1  0
 28 29  1  0
 28 32  1  0
 28 62  1  1
 29 30  1  0
 29 63  1  1
 30 31  1  1
 31 64  1  0
 31 65  1  0
 31 66  1  0
 32 33  1  0
 32 34  1  0
 33 67  1  0
 33 68  1  0
 33 69  1  0
 34 70  1  0
 34 71  1  0
 34 72  1  0
M  END
>  <i_m_ct_stereo_status>  (44) 
1

>  <s_m_source_file>  (44) 
/var/tmp/pbs.5075288.sched01/tmpl15vq434/14426guvkcq.sdf

>  <i_m_source_file_index>  (44) 
26

>  <i_lp_mmshare_version>  (44) 
48012

>  <i_f3d_flags>  (44) 
0

>  <s_epik_input>  (44) 
W0NIMl09QyhbQ0gyXTEpW0NASF0oW09IXSlbQ0gyXUMoPUMxW0NAXTIoW0NIM10pW0NAXTM0W09IXSlbQ0BASF0oW1MrXShbTy1dKVtDSDJdMylDKFtDSDNdKShbQ0gzXSlbQ0BASF01W0NASF0yW0NAXShbT0hdKShbQ0BASF00W09IXSlbQ0gyXVtDQEhdKE81KVtDQEhdKFtPSF0pQyhbQ0gzXSkoW0NIM10pW09IXQ==

>  <s_epik_cmdline>  (44) 
J2VwaWtfcHl0aG9uJywgJy1waHQnLCAnMi4wJywgJy1waCcsICc3LjAnLCAnLXRuJywgJzgnLCAnLW1hJywgJzIwMCcsICctaW1hZScsICc8aW5maWxlLm1hZT4nLCAnLW9tYWUnLCAnPG91dGZpbGUubWFlPic=

>  <r_lp_tautomer_probability>  (44) 
1

>  <r_epik_Ionization_Penalty>  (44) 
7.03703e-07

>  <r_epik_Ionization_Penalty_Charging>  (44) 
0

>  <r_epik_Ionization_Penalty_Neutral>  (44) 
7.03703e-07

>  <r_epik_State_Penalty>  (44) 
-0

>  <r_epik_Charging_Adjusted_Penalty>  (44) 
0

>  <i_epik_Tot_Q>  (44) 
0

>  <i_epik_Tot_abs_Q>  (44) 
2

>  <s_lp_Force_Field>  (44) 
OPLS3e

>  <r_lp_Energy>  (44) 
91.5832

>  <b_lp_Chiralities_Consistent>  (44) 
1

>  <s_lp_Variant>  (44) 
46:0-1

>  <s_i_glide_gridfile>  (44) 
pfpi4k_grid

>  <i_i_glide_lignum>  (44) 
26

>  <i_i_glide_rotatable_bonds>  (44) 
8

>  <r_i_docking_score>  (44) 
-4.10943

>  <r_i_glide_ligand_efficiency>  (44) 
-0.120866

>  <r_i_glide_ligand_efficiency_sa>  (44) 
-0.391557

>  <r_i_glide_ligand_efficiency_ln>  (44) 
-0.907888

>  <r_i_glide_gscore>  (44) 
-4.10943

>  <r_i_glide_lipo>  (44) 
-0.029017

>  <r_i_glide_hbond>  (44) 
0

>  <r_i_glide_metal>  (44) 
-0

>  <r_i_glide_rewards>  (44) 
-1.02713

>  <r_i_glide_evdw>  (44) 
-26.1467

>  <r_i_glide_ecoul>  (44) 
-12.734

>  <r_i_glide_erotb>  (44) 
0.164157

>  <r_i_glide_esite>  (44) 
0

>  <r_i_glide_emodel>  (44) 
-54.9518

>  <r_i_glide_energy>  (44) 
-38.8807

>  <r_i_glide_einternal>  (44) 
10.3117

>  <r_i_glide_intrahb_reward>  (44) 
-1

>  <i_i_glide_confnum>  (44) 
3

>  <i_i_glide_posenum>  (44) 
40

>  <r_i_glide_eff_state_penalty>  (44) 
0

>  <ligand_id>  (44) 
46

>  <original_smiles>  (44) 
C=C1CC2=C(CC1O)C1[S+]([O-])CC3(O)C(O)C4(O)CC(C(O)C(C)(C)O)OC(C4C23C)C1(C)C

>  <smiles>  (44) 
[H]OC1([H])C(=C([H])[H])C([H])([H])C2=C(C1([H])[H])C1([H])S(=O)C([H])([H])C3(O[H])C([H])(O[H])C4(O[H])C([H])([H])C([H])(C([H])(O[H])C(O[H])(C([H])([H])[H])C([H])([H])[H])OC([H])(C4([H])C23C([H])([H])[H])C1(C([H])([H])[H])C([H])([H])[H]

$$$$
46:0:1
     RDKit          3D

 72 76  0  0  1  0  0  0  0  0999 V2000
    4.4508   -0.3582    1.3412 C   0  0  0  0  0  0  0  0  0  0  0  0
    5.1815   -1.4697    1.5170 C   0  0  0  0  0  0  0  0  0  0  0  0
    5.2194   -2.2226    2.8333 C   0  0  0  0  0  0  0  0  0  0  0  0
    5.1124   -3.7630    2.7069 C   0  0  0  0  0  0  0  0  0  0  0  0
    5.1709   -4.3219    1.4643 C   0  0  0  0  0  0  0  0  0  0  0  0
    5.4205   -3.5122    0.1918 C   0  0  0  0  0  0  0  0  0  0  0  0
    6.0143   -2.1354    0.4544 C   0  0  1  0  0  0  0  0  0  0  0  0
    6.0597   -1.4188   -0.7582 O   0  0  0  0  0  0  0  0  0  0  0  0
    4.9788   -5.7968    1.1976 C   0  0  1  0  0  0  0  0  0  0  0  0
    6.4887   -6.8198    1.6317 S   0  0  0  0  0  0  0  0  0  0  0  0
    6.2292   -8.3104    1.8493 O   0  0  0  0  0  0  0  0  0  0  0  0
    7.1197   -6.0146    3.1748 C   0  0  0  0  0  0  0  0  0  0  0  0
    6.0304   -5.7711    4.2485 C   0  0  2  0  0  0  0  0  0  0  0  0
    6.8205   -5.4921    5.3975 O   0  0  0  0  0  0  0  0  0  0  0  0
    5.1971   -7.0583    4.5833 C   0  0  1  0  0  0  0  0  0  0  0  0
    5.8316   -7.9626    5.4671 O   0  0  0  0  0  0  0  0  0  0  0  0
    3.8329   -6.5708    5.0832 C   0  0  2  0  0  0  0  0  0  0  0  0
    3.9953   -6.1807    6.4322 O   0  0  0  0  0  0  0  0  0  0  0  0
    2.6519   -7.5802    5.1319 C   0  0  0  0  0  0  0  0  0  0  0  0
    1.7116   -7.6550    3.9010 C   0  0  1  0  0  0  0  0  0  0  0  0
    0.2540   -8.0278    4.3066 C   0  0  2  0  0  0  0  0  0  0  0  0
    0.2790   -9.1815    5.1298 O   0  0  0  0  0  0  0  0  0  0  0  0
   -0.7646   -8.2514    3.1419 C   0  0  0  0  0  0  0  0  0  0  0  0
   -0.6582   -9.6319    2.4836 C   0  0  0  0  0  0  0  0  0  0  0  0
   -2.1736   -8.0302    3.6634 C   0  0  0  0  0  0  0  0  0  0  0  0
   -0.6540   -7.3115    2.0919 O   0  0  0  0  0  0  0  0  0  0  0  0
    1.6522   -6.4023    3.2058 O   0  0  0  0  0  0  0  0  0  0  0  0
    2.8688   -5.7401    2.8668 C   0  0  1  0  0  0  0  0  0  0  0  0
    3.6073   -5.3579    4.1775 C   0  0  2  0  0  0  0  0  0  0  0  0
    4.9743   -4.5901    4.0385 C   0  0  2  0  0  0  0  0  0  0  0  0
    5.0251   -3.5752    5.2481 C   0  0  0  0  0  0  0  0  0  0  0  0
    3.5526   -6.3412    1.5723 C   0  0  0  0  0  0  0  0  0  0  0  0
    2.6154   -5.8243    0.4699 C   0  0  0  0  0  0  0  0  0  0  0  0
    3.5002   -7.8773    1.3626 C   0  0  0  0  0  0  0  0  0  0  0  0
    4.4167    0.1646    0.3935 H   0  0  0  0  0  0  0  0  0  0  0  0
    3.8647    0.0507    2.1512 H   0  0  0  0  0  0  0  0  0  0  0  0
    6.1916   -1.9816    3.2654 H   0  0  0  0  0  0  0  0  0  0  0  0
    4.4236   -1.8177    3.4502 H   0  0  0  0  0  0  0  0  0  0  0  0
    6.1110   -4.0413   -0.4568 H   0  0  0  0  0  0  0  0  0  0  0  0
    4.4737   -3.4065   -0.3439 H   0  0  0  0  0  0  0  0  0  0  0  0
    7.0371   -2.2324    0.8337 H   0  0  0  0  0  0  0  0  0  0  0  0
    5.1665   -1.2236   -1.0156 H   0  0  0  0  0  0  0  0  0  0  0  0
    5.0284   -5.8924    0.1102 H   0  0  0  0  0  0  0  0  0  0  0  0
    7.8999   -6.6603    3.5676 H   0  0  0  0  0  0  0  0  0  0  0  0
    7.6213   -5.0759    2.8692 H   0  0  0  0  0  0  0  0  0  0  0  0
    7.3691   -4.7490    5.1970 H   0  0  0  0  0  0  0  0  0  0  0  0
    4.9908   -7.6319    3.6895 H   0  0  0  0  0  0  0  0  0  0  0  0
    5.8830   -7.5119    6.3028 H   0  0  0  0  0  0  0  0  0  0  0  0
    3.1425   -5.9573    6.7826 H   0  0  0  0  0  0  0  0  0  0  0  0
    3.0288   -8.5873    5.3428 H   0  0  0  0  0  0  0  0  0  0  0  0
    2.0403   -7.3625    6.0055 H   0  0  0  0  0  0  0  0  0  0  0  0
    2.0517   -8.4657    3.2667 H   0  0  0  0  0  0  0  0  0  0  0  0
   -0.1201   -7.2289    4.9433 H   0  0  0  0  0  0  0  0  0  0  0  0
   -0.5318   -9.6730    5.0375 H   0  0  0  0  0  0  0  0  0  0  0  0
   -0.8553  -10.4189    3.2036 H   0  0  0  0  0  0  0  0  0  0  0  0
    0.3383   -9.8151    2.0807 H   0  0  0  0  0  0  0  0  0  0  0  0
   -1.3939   -9.7498    1.6844 H   0  0  0  0  0  0  0  0  0  0  0  0
   -2.4291   -8.8005    4.3929 H   0  0  0  0  0  0  0  0  0  0  0  0
   -2.8693   -8.0937    2.8265 H   0  0  0  0  0  0  0  0  0  0  0  0
   -2.2854   -7.0418    4.1220 H   0  0  0  0  0  0  0  0  0  0  0  0
    0.1123   -7.5646    1.5917 H   0  0  0  0  0  0  0  0  0  0  0  0
    2.5166   -4.7472    2.5661 H   0  0  0  0  0  0  0  0  0  0  0  0
    2.9063   -4.7063    4.6959 H   0  0  0  0  0  0  0  0  0  0  0  0
    4.9990   -4.0360    6.2276 H   0  0  0  0  0  0  0  0  0  0  0  0
    4.1681   -2.9012    5.2536 H   0  0  0  0  0  0  0  0  0  0  0  0
    5.9310   -2.9694    5.2601 H   0  0  0  0  0  0  0  0  0  0  0  0
    1.5850   -6.1597    0.5866 H   0  0  0  0  0  0  0  0  0  0  0  0
    2.9764   -6.2327   -0.4563 H   0  0  0  0  0  0  0  0  0  0  0  0
    2.6240   -4.7339    0.3449 H   0  0  0  0  0  0  0  0  0  0  0  0
    2.4861   -8.2364    1.1737 H   0  0  0  0  0  0  0  0  0  0  0  0
    3.8912   -8.4710    2.1819 H   0  0  0  0  0  0  0  0  0  0  0  0
    4.0740   -8.1764    0.4818 H   0  0  0  0  0  0  0  0  0  0  0  0
  1  2  2  0
  1 35  1  0
  1 36  1  0
  2  7  1  0
  2  3  1  0
  3  4  1  0
  3 37  1  0
  3 38  1  0
  4 30  1  0
  4  5  2  0
  5  6  1  0
  5  9  1  0
  6  7  1  0
  6 39  1  0
  6 40  1  0
  7  8  1  0
  7 41  1  1
  8 42  1  0
  9 32  1  0
  9 10  1  0
  9 43  1  6
 10 11  2  0
 10 12  1  1
 12 13  1  0
 12 44  1  0
 12 45  1  0
 13 30  1  0
 13 14  1  1
 13 15  1  0
 14 46  1  0
 15 16  1  0
 15 17  1  0
 15 47  1  6
 16 48  1  0
 17 29  1  0
 17 18  1  1
 17 19  1  0
 18 49  1  0
 19 20  1  0
 19 50  1  0
 19 51  1  0
 20 21  1  0
 20 27  1  0
 20 52  1  6
 21 22  1  0
 21 23  1  0
 21 53  1  1
 22 54  1  0
 23 24  1  0
 23 25  1  0
 23 26  1  0
 24 55  1  0
 24 56  1  0
 24 57  1  0
 25 58  1  0
 25 59  1  0
 25 60  1  0
 26 61  1  0
 27 28  1  0
 28 29  1  0
 28 32  1  0
 28 62  1  6
 29 30  1  0
 29 63  1  1
 30 31  1  1
 31 64  1  0
 31 65  1  0
 31 66  1  0
 32 33  1  0
 32 34  1  0
 33 67  1  0
 33 68  1  0
 33 69  1  0
 34 70  1  0
 34 71  1  0
 34 72  1  0
M  END
>  <i_m_ct_stereo_status>  (45) 
1

>  <s_m_source_file>  (45) 
/var/tmp/pbs.5075288.sched01/tmpl15vq434/14426guvkcq.sdf

>  <i_m_source_file_index>  (45) 
26

>  <i_lp_mmshare_version>  (45) 
48012

>  <i_f3d_flags>  (45) 
0

>  <s_epik_input>  (45) 
W0NIMl09QyhbQ0gyXTEpW0NASF0oW09IXSlbQ0gyXUMoPUMxW0NAXTIoW0NIM10pW0NAXTM0W09IXSlbQ0BASF0oW1MrXShbTy1dKVtDSDJdMylDKFtDSDNdKShbQ0gzXSlbQ0BASF01W0NASF0yW0NAXShbT0hdKShbQ0BASF00W09IXSlbQ0gyXVtDQEhdKE81KVtDQEhdKFtPSF0pQyhbQ0gzXSkoW0NIM10pW09IXQ==

>  <s_epik_cmdline>  (45) 
J2VwaWtfcHl0aG9uJywgJy1waHQnLCAnMi4wJywgJy1waCcsICc3LjAnLCAnLXRuJywgJzgnLCAnLW1hJywgJzIwMCcsICctaW1hZScsICc8aW5maWxlLm1hZT4nLCAnLW9tYWUnLCAnPG91dGZpbGUubWFlPic=

>  <r_lp_tautomer_probability>  (45) 
1

>  <r_epik_Ionization_Penalty>  (45) 
7.03703e-07

>  <r_epik_Ionization_Penalty_Charging>  (45) 
0

>  <r_epik_Ionization_Penalty_Neutral>  (45) 
7.03703e-07

>  <r_epik_State_Penalty>  (45) 
-0

>  <r_epik_Charging_Adjusted_Penalty>  (45) 
0

>  <i_epik_Tot_Q>  (45) 
0

>  <i_epik_Tot_abs_Q>  (45) 
2

>  <s_lp_Force_Field>  (45) 
OPLS3e

>  <r_lp_Energy>  (45) 
91.5832

>  <b_lp_Chiralities_Consistent>  (45) 
1

>  <s_lp_Variant>  (45) 
46:0-1

>  <s_i_glide_gridfile>  (45) 
pfpi4k_grid

>  <i_i_glide_lignum>  (45) 
26

>  <i_i_glide_rotatable_bonds>  (45) 
8

>  <r_i_docking_score>  (45) 
-3.32779

>  <r_i_glide_ligand_efficiency>  (45) 
-0.0978761

>  <r_i_glide_ligand_efficiency_sa>  (45) 
-0.317081

>  <r_i_glide_ligand_efficiency_ln>  (45) 
-0.735201

>  <r_i_glide_gscore>  (45) 
-3.32779

>  <r_i_glide_lipo>  (45) 
-0.739088

>  <r_i_glide_hbond>  (45) 
-0.19937

>  <r_i_glide_metal>  (45) 
-0

>  <r_i_glide_rewards>  (45) 
-0.118936

>  <r_i_glide_evdw>  (45) 
-27.9728

>  <r_i_glide_ecoul>  (45) 
-6.90606

>  <r_i_glide_erotb>  (45) 
0.164157

>  <r_i_glide_esite>  (45) 
0

>  <r_i_glide_emodel>  (45) 
-41.978

>  <r_i_glide_energy>  (45) 
-34.8789

>  <r_i_glide_einternal>  (45) 
3.44708

>  <r_i_glide_intrahb_reward>  (45) 
-0

>  <i_i_glide_confnum>  (45) 
3

>  <i_i_glide_posenum>  (45) 
6

>  <r_i_glide_eff_state_penalty>  (45) 
0

>  <ligand_id>  (45) 
46

>  <original_smiles>  (45) 
C=C1CC2=C(CC1O)C1[S+]([O-])CC3(O)C(O)C4(O)CC(C(O)C(C)(C)O)OC(C4C23C)C1(C)C

>  <smiles>  (45) 
[H]OC1([H])C(=C([H])[H])C([H])([H])C2=C(C1([H])[H])C1([H])S(=O)C([H])([H])C3(O[H])C([H])(O[H])C4(O[H])C([H])([H])C([H])(C([H])(O[H])C(O[H])(C([H])([H])[H])C([H])([H])[H])OC([H])(C4([H])C23C([H])([H])[H])C1(C([H])([H])[H])C([H])([H])[H]

$$$$
46:0:2
     RDKit          3D

 72 76  0  0  1  0  0  0  0  0999 V2000
    6.6755   -6.1844    9.4173 C   0  0  0  0  0  0  0  0  0  0  0  0
    7.1069   -6.4884    8.1810 C   0  0  0  0  0  0  0  0  0  0  0  0
    6.9208   -7.8635    7.5582 C   0  0  0  0  0  0  0  0  0  0  0  0
    6.4102   -7.8435    6.0966 C   0  0  0  0  0  0  0  0  0  0  0  0
    6.3562   -6.6551    5.4343 C   0  0  0  0  0  0  0  0  0  0  0  0
    6.8466   -5.3373    6.0396 C   0  0  0  0  0  0  0  0  0  0  0  0
    7.7696   -5.5147    7.2407 C   0  0  1  0  0  0  0  0  0  0  0  0
    8.0477   -4.2591    7.8350 O   0  0  0  0  0  0  0  0  0  0  0  0
    5.8053   -6.4890    4.0354 C   0  0  1  0  0  0  0  0  0  0  0  0
    6.9931   -7.0842    2.7226 S   0  0  0  0  0  0  0  0  0  0  0  0
    6.3488   -7.4450    1.3834 O   0  0  0  0  0  0  0  0  0  0  0  0
    7.7390   -8.5840    3.5151 C   0  0  0  0  0  0  0  0  0  0  0  0
    6.7161   -9.5933    4.0759 C   0  0  2  0  0  0  0  0  0  0  0  0
    7.5512  -10.7305    4.2626 O   0  0  0  0  0  0  0  0  0  0  0  0
    5.5759   -9.9991    3.0666 C   0  0  1  0  0  0  0  0  0  0  0  0
    5.9126  -11.0089    2.1168 O   0  0  0  0  0  0  0  0  0  0  0  0
    4.3696  -10.3557    3.9336 C   0  0  2  0  0  0  0  0  0  0  0  0
    4.5809  -11.6763    4.4008 O   0  0  0  0  0  0  0  0  0  0  0  0
    2.9701  -10.4292    3.2755 C   0  0  0  0  0  0  0  0  0  0  0  0
    2.0710   -9.1675    3.3306 C   0  0  1  0  0  0  0  0  0  0  0  0
    0.5449   -9.5177    3.3390 C   0  0  2  0  0  0  0  0  0  0  0  0
    0.3000  -10.6029    2.4751 O   0  0  0  0  0  0  0  0  0  0  0  0
   -0.4379   -8.3737    2.9341 C   0  0  0  0  0  0  0  0  0  0  0  0
   -1.8830   -8.8660    2.7507 C   0  0  0  0  0  0  0  0  0  0  0  0
   -0.4390   -7.2212    3.9488 C   0  0  0  0  0  0  0  0  0  0  0  0
   -0.0593   -7.8392    1.6785 O   0  0  0  0  0  0  0  0  0  0  0  0
    2.3565   -8.3468    4.4749 O   0  0  0  0  0  0  0  0  0  0  0  0
    3.7166   -8.0033    4.7593 C   0  0  1  0  0  0  0  0  0  0  0  0
    4.4879   -9.3270    5.0697 C   0  0  2  0  0  0  0  0  0  0  0  0
    6.0085   -9.2258    5.4588 C   0  0  2  0  0  0  0  0  0  0  0  0
    6.2691  -10.3575    6.5302 C   0  0  0  0  0  0  0  0  0  0  0  0
    4.2693   -6.7863    3.8892 C   0  0  0  0  0  0  0  0  0  0  0  0
    3.5493   -5.5467    4.4923 C   0  0  0  0  0  0  0  0  0  0  0  0
    3.8301   -6.7253    2.4058 C   0  0  0  0  0  0  0  0  0  0  0  0
    6.7972   -5.1929    9.8343 H   0  0  0  0  0  0  0  0  0  0  0  0
    6.1871   -6.9265   10.0326 H   0  0  0  0  0  0  0  0  0  0  0  0
    7.8914   -8.3611    7.5888 H   0  0  0  0  0  0  0  0  0  0  0  0
    6.2332   -8.4001    8.2069 H   0  0  0  0  0  0  0  0  0  0  0  0
    7.3973   -4.7715    5.2914 H   0  0  0  0  0  0  0  0  0  0  0  0
    5.9751   -4.7438    6.3232 H   0  0  0  0  0  0  0  0  0  0  0  0
    8.7205   -5.9486    6.9205 H   0  0  0  0  0  0  0  0  0  0  0  0
    7.2380   -3.8707    8.1363 H   0  0  0  0  0  0  0  0  0  0  0  0
    5.8735   -5.4233    3.8259 H   0  0  0  0  0  0  0  0  0  0  0  0
    8.3071   -9.0495    2.7218 H   0  0  0  0  0  0  0  0  0  0  0  0
    8.4707   -8.2908    4.2674 H   0  0  0  0  0  0  0  0  0  0  0  0
    6.9819  -11.4543    4.4890 H   0  0  0  0  0  0  0  0  0  0  0  0
    5.2651   -9.1492    2.4834 H   0  0  0  0  0  0  0  0  0  0  0  0
    5.1692  -11.2059    1.5440 H   0  0  0  0  0  0  0  0  0  0  0  0
    4.4613  -12.2635    3.6685 H   0  0  0  0  0  0  0  0  0  0  0  0
    3.0654  -10.7330    2.2297 H   0  0  0  0  0  0  0  0  0  0  0  0
    2.4224  -11.2418    3.7519 H   0  0  0  0  0  0  0  0  0  0  0  0
    2.2533   -8.6351    2.4068 H   0  0  0  0  0  0  0  0  0  0  0  0
    0.2718   -9.8757    4.3341 H   0  0  0  0  0  0  0  0  0  0  0  0
    0.7988  -11.3499    2.7834 H   0  0  0  0  0  0  0  0  0  0  0  0
   -2.2540   -9.3135    3.6735 H   0  0  0  0  0  0  0  0  0  0  0  0
   -1.9713   -9.6187    1.9628 H   0  0  0  0  0  0  0  0  0  0  0  0
   -2.5521   -8.0451    2.4820 H   0  0  0  0  0  0  0  0  0  0  0  0
   -0.7765   -7.5759    4.9237 H   0  0  0  0  0  0  0  0  0  0  0  0
   -1.1036   -6.4167    3.6346 H   0  0  0  0  0  0  0  0  0  0  0  0
    0.5501   -6.7881    4.0660 H   0  0  0  0  0  0  0  0  0  0  0  0
   -0.0408   -8.5663    1.0674 H   0  0  0  0  0  0  0  0  0  0  0  0
    3.6348   -7.6012    5.7779 H   0  0  0  0  0  0  0  0  0  0  0  0
    3.9527   -9.7650    5.9165 H   0  0  0  0  0  0  0  0  0  0  0  0
    6.0844  -11.3694    6.1834 H   0  0  0  0  0  0  0  0  0  0  0  0
    5.6218  -10.2586    7.3987 H   0  0  0  0  0  0  0  0  0  0  0  0
    7.3014  -10.3768    6.8778 H   0  0  0  0  0  0  0  0  0  0  0  0
    2.4647   -5.6626    4.4599 H   0  0  0  0  0  0  0  0  0  0  0  0
    3.7920   -4.6417    3.9306 H   0  0  0  0  0  0  0  0  0  0  0  0
    3.8296   -5.3713    5.5328 H   0  0  0  0  0  0  0  0  0  0  0  0
    2.7656   -6.5180    2.3025 H   0  0  0  0  0  0  0  0  0  0  0  0
    4.0313   -7.6201    1.8268 H   0  0  0  0  0  0  0  0  0  0  0  0
    4.3377   -5.9114    1.8901 H   0  0  0  0  0  0  0  0  0  0  0  0
  1  2  2  0
  1 35  1  0
  1 36  1  0
  2  7  1  0
  2  3  1  0
  3  4  1  0
  3 37  1  0
  3 38  1  0
  4 30  1  0
  4  5  2  0
  5  6  1  0
  5  9  1  0
  6  7  1  0
  6 39  1  0
  6 40  1  0
  7  8  1  0
  7 41  1  6
  8 42  1  0
  9 32  1  0
  9 10  1  0
  9 43  1  6
 10 11  2  0
 10 12  1  1
 12 13  1  0
 12 44  1  0
 12 45  1  0
 13 30  1  0
 13 14  1  1
 13 15  1  0
 14 46  1  0
 15 16  1  0
 15 17  1  0
 15 47  1  6
 16 48  1  0
 17 29  1  0
 17 18  1  1
 17 19  1  0
 18 49  1  0
 19 20  1  0
 19 50  1  0
 19 51  1  0
 20 21  1  0
 20 27  1  0
 20 52  1  6
 21 22  1  0
 21 23  1  0
 21 53  1  1
 22 54  1  0
 23 24  1  0
 23 25  1  0
 23 26  1  0
 24 55  1  0
 24 56  1  0
 24 57  1  0
 25 58  1  0
 25 59  1  0
 25 60  1  0
 26 61  1  0
 27 28  1  0
 28 29  1  0
 28 32  1  0
 28 62  1  1
 29 30  1  0
 29 63  1  1
 30 31  1  1
 31 64  1  0
 31 65  1  0
 31 66  1  0
 32 33  1  0
 32 34  1  0
 33 67  1  0
 33 68  1  0
 33 69  1  0
 34 70  1  0
 34 71  1  0
 34 72  1  0
M  END
>  <i_m_ct_stereo_status>  (46) 
1

>  <s_m_source_file>  (46) 
/var/tmp/pbs.5075288.sched01/tmpl15vq434/14426guvkcq.sdf

>  <i_m_source_file_index>  (46) 
26

>  <i_lp_mmshare_version>  (46) 
48012

>  <i_f3d_flags>  (46) 
0

>  <s_epik_input>  (46) 
W0NIMl09QyhbQ0gyXTEpW0NASF0oW09IXSlbQ0gyXUMoPUMxW0NAXTIoW0NIM10pW0NAXTM0W09IXSlbQ0BASF0oW1MrXShbTy1dKVtDSDJdMylDKFtDSDNdKShbQ0gzXSlbQ0BASF01W0NASF0yW0NAXShbT0hdKShbQ0BASF00W09IXSlbQ0gyXVtDQEhdKE81KVtDQEhdKFtPSF0pQyhbQ0gzXSkoW0NIM10pW09IXQ==

>  <s_epik_cmdline>  (46) 
J2VwaWtfcHl0aG9uJywgJy1waHQnLCAnMi4wJywgJy1waCcsICc3LjAnLCAnLXRuJywgJzgnLCAnLW1hJywgJzIwMCcsICctaW1hZScsICc8aW5maWxlLm1hZT4nLCAnLW9tYWUnLCAnPG91dGZpbGUubWFlPic=

>  <r_lp_tautomer_probability>  (46) 
1

>  <r_epik_Ionization_Penalty>  (46) 
7.03703e-07

>  <r_epik_Ionization_Penalty_Charging>  (46) 
0

>  <r_epik_Ionization_Penalty_Neutral>  (46) 
7.03703e-07

>  <r_epik_State_Penalty>  (46) 
-0

>  <r_epik_Charging_Adjusted_Penalty>  (46) 
0

>  <i_epik_Tot_Q>  (46) 
0

>  <i_epik_Tot_abs_Q>  (46) 
2

>  <s_lp_Force_Field>  (46) 
OPLS3e

>  <r_lp_Energy>  (46) 
91.5832

>  <b_lp_Chiralities_Consistent>  (46) 
1

>  <s_lp_Variant>  (46) 
46:0-1

>  <s_i_glide_gridfile>  (46) 
pfpi4k_grid

>  <i_i_glide_lignum>  (46) 
26

>  <i_i_glide_rotatable_bonds>  (46) 
8

>  <r_i_docking_score>  (46) 
-3.0519

>  <r_i_glide_ligand_efficiency>  (46) 
-0.0897617

>  <r_i_glide_ligand_efficiency_sa>  (46) 
-0.290793

>  <r_i_glide_ligand_efficiency_ln>  (46) 
-0.67425

>  <r_i_glide_gscore>  (46) 
-3.0519

>  <r_i_glide_lipo>  (46) 
-0.0673494

>  <r_i_glide_hbond>  (46) 
0

>  <r_i_glide_metal>  (46) 
-0

>  <r_i_glide_rewards>  (46) 
-0.529289

>  <r_i_glide_evdw>  (46) 
-26.4111

>  <r_i_glide_ecoul>  (46) 
-8.65907

>  <r_i_glide_erotb>  (46) 
0.164157

>  <r_i_glide_esite>  (46) 
0

>  <r_i_glide_emodel>  (46) 
-45.3155

>  <r_i_glide_energy>  (46) 
-35.0702

>  <r_i_glide_einternal>  (46) 
6.54053

>  <r_i_glide_intrahb_reward>  (46) 
-0.5

>  <i_i_glide_confnum>  (46) 
3

>  <i_i_glide_posenum>  (46) 
22

>  <r_i_glide_eff_state_penalty>  (46) 
0

>  <ligand_id>  (46) 
46

>  <original_smiles>  (46) 
C=C1CC2=C(CC1O)C1[S+]([O-])CC3(O)C(O)C4(O)CC(C(O)C(C)(C)O)OC(C4C23C)C1(C)C

>  <smiles>  (46) 
[H]OC1([H])C(=C([H])[H])C([H])([H])C2=C(C1([H])[H])C1([H])S(=O)C([H])([H])C3(O[H])C([H])(O[H])C4(O[H])C([H])([H])C([H])(C([H])(O[H])C(O[H])(C([H])([H])[H])C([H])([H])[H])OC([H])(C4([H])C23C([H])([H])[H])C1(C([H])([H])[H])C([H])([H])[H]

$$$$
51:0:0
     RDKit          3D

 56 59  0  0  1  0  0  0  0  0999 V2000
    2.7373   -6.7372    3.6087 C   0  0  0  0  0  0  0  0  0  0  0  0
    1.9252   -5.4281    3.6696 C   0  0  0  0  0  0  0  0  0  0  0  0
    0.8359   -5.3750    4.2430 O   0  0  0  0  0  0  0  0  0  0  0  0
    2.4331   -4.3729    2.9904 O   0  0  0  0  0  0  0  0  0  0  0  0
    3.6190   -4.4219    2.1814 C   0  0  2  0  0  0  0  0  0  0  0  0
    4.6910   -3.2297    2.7942 C   0  0  1  0  0  0  0  0  0  0  0  0
    5.7219   -3.9201    3.4574 O   0  0  0  0  0  0  0  0  0  0  0  0
    5.3115   -1.8710    1.9828 C   0  0  1  0  0  0  0  0  0  0  0  0
    5.5259   -0.8070    2.8996 O   0  0  0  0  0  0  0  0  0  0  0  0
    6.3009   -1.6829    0.6914 C   0  0  2  0  0  0  0  0  0  0  0  0
    5.8842   -0.4740    0.1350 O   0  0  0  0  0  0  0  0  0  0  0  0
    4.4942   -0.6598   -0.1159 C   0  0  1  0  0  0  0  0  0  0  0  0
    4.0306   -1.2934   -1.8925 S   0  0  0  0  0  0  0  0  0  0  0  0
    2.7733   -0.6041   -2.4011 O   0  0  0  0  0  0  0  0  0  0  0  0
    3.7318   -3.1931   -1.9570 C   0  0  0  0  0  0  0  0  0  0  0  0
    2.4752   -3.3162   -2.9029 C   0  0  0  0  0  0  0  0  0  0  0  0
    4.9816   -3.8223   -2.6561 C   0  0  0  0  0  0  0  0  0  0  0  0
    3.5682   -3.6600   -0.4459 C   0  0  1  0  0  0  0  0  0  0  0  0
    2.3113   -3.0538   -0.2330 O   0  0  0  0  0  0  0  0  0  0  0  0
    3.2521   -4.9002    0.5818 C   0  0  1  0  0  0  0  0  0  0  0  0
    4.0514   -6.1612    0.0982 C   0  0  0  0  0  0  0  0  0  0  0  0
    1.8065   -5.3072    0.5129 O   0  0  0  0  0  0  0  0  0  0  0  0
    1.2337   -6.5371    0.7425 C   0  0  0  0  0  0  0  0  0  0  0  0
   -0.2707   -6.5253    0.7076 C   0  0  0  0  0  0  0  0  0  0  0  0
    1.7837   -7.5960    0.9646 O   0  0  0  0  0  0  0  0  0  0  0  0
    4.8009   -3.0703    0.2347 C   0  0  1  0  0  0  0  0  0  0  0  0
    5.7012   -4.1210    0.6682 O   0  0  0  0  0  0  0  0  0  0  0  0
    5.9063   -2.5433   -0.3448 O   0  0  0  0  0  0  0  0  0  0  0  0
    4.2858   -1.7294    1.0002 C   0  0  1  0  0  0  0  0  0  0  0  0
    2.9149   -1.3719    1.7196 C   0  0  0  0  0  0  0  0  0  0  0  0
    2.9504   -6.9516    2.5811 H   0  0  0  0  0  0  0  0  0  0  0  0
    2.1614   -7.5911    3.9592 H   0  0  0  0  0  0  0  0  0  0  0  0
    3.6918   -6.6662    4.1542 H   0  0  0  0  0  0  0  0  0  0  0  0
    4.2000   -5.2759    2.5045 H   0  0  0  0  0  0  0  0  0  0  0  0
    4.1649   -2.7978    3.6509 H   0  0  0  0  0  0  0  0  0  0  0  0
    6.1812   -3.3013    4.0052 H   0  0  0  0  0  0  0  0  0  0  0  0
    4.7551   -0.6821    3.4294 H   0  0  0  0  0  0  0  0  0  0  0  0
    7.3681   -1.6943    0.8847 H   0  0  0  0  0  0  0  0  0  0  0  0
    3.9897    0.2727    0.1292 H   0  0  0  0  0  0  0  0  0  0  0  0
    1.9783   -4.2423   -2.8628 H   0  0  0  0  0  0  0  0  0  0  0  0
    2.7420   -3.1164   -3.9531 H   0  0  0  0  0  0  0  0  0  0  0  0
    1.6299   -2.6749   -2.6041 H   0  0  0  0  0  0  0  0  0  0  0  0
    5.4281   -4.6047   -2.0382 H   0  0  0  0  0  0  0  0  0  0  0  0
    5.7604   -3.0662   -2.8223 H   0  0  0  0  0  0  0  0  0  0  0  0
    4.7488   -4.2668   -3.6257 H   0  0  0  0  0  0  0  0  0  0  0  0
    2.2524   -2.2125   -0.6790 H   0  0  0  0  0  0  0  0  0  0  0  0
    5.0133   -6.0245   -0.3791 H   0  0  0  0  0  0  0  0  0  0  0  0
    3.4967   -6.6347   -0.6905 H   0  0  0  0  0  0  0  0  0  0  0  0
    4.1382   -6.9268    0.8728 H   0  0  0  0  0  0  0  0  0  0  0  0
   -0.6838   -5.8879    1.4791 H   0  0  0  0  0  0  0  0  0  0  0  0
   -0.6731   -7.5180    0.8637 H   0  0  0  0  0  0  0  0  0  0  0  0
   -0.6111   -6.1873   -0.2752 H   0  0  0  0  0  0  0  0  0  0  0  0
    5.8590   -4.6576   -0.1038 H   0  0  0  0  0  0  0  0  0  0  0  0
    2.2020   -0.9161    1.0302 H   0  0  0  0  0  0  0  0  0  0  0  0
    3.0641   -0.5947    2.4764 H   0  0  0  0  0  0  0  0  0  0  0  0
    2.3818   -2.1635    2.2242 H   0  0  0  0  0  0  0  0  0  0  0  0
  1  2  1  0
  1 31  1  0
  1 32  1  0
  1 33  1  0
  2  3  2  0
  2  4  1  0
  4  5  1  0
  5 20  1  0
  5  6  1  0
  5 34  1  1
  6  7  1  0
  6  8  1  0
  6 35  1  1
  7 36  1  0
  8 29  1  0
  8  9  1  1
  8 10  1  0
  9 37  1  0
 10 28  1  0
 10 11  1  0
 10 38  1  1
 11 12  1  0
 12 29  1  0
 12 13  1  0
 12 39  1  1
 13 14  2  0
 13 15  1  1
 15 16  1  0
 15 17  1  0
 15 18  1  0
 16 40  1  0
 16 41  1  0
 16 42  1  0
 17 43  1  0
 17 44  1  0
 17 45  1  0
 18 19  1  1
 18 20  1  0
 18 26  1  0
 19 46  1  0
 20 21  1  0
 20 22  1  1
 21 47  1  0
 21 48  1  0
 21 49  1  0
 22 23  1  0
 23 24  1  0
 23 25  2  0
 24 50  1  0
 24 51  1  0
 24 52  1  0
 26 27  1  1
 26 28  1  0
 26 29  1  0
 27 53  1  0
 29 30  1  1
 30 54  1  0
 30 55  1  0
 30 56  1  0
M  END
>  <i_m_ct_stereo_status>  (47) 
1

>  <s_m_source_file>  (47) 
/var/tmp/pbs.5075288.sched01/tmpl15vq434/14426guvkcq.sdf

>  <i_m_source_file_index>  (47) 
34

>  <i_lp_mmshare_version>  (47) 
48012

>  <i_f3d_flags>  (47) 
0

>  <s_epik_input>  (47) 
W0NIM11DKD1PKU9bQ0BIXShbQ0BIXTFbT0hdKVtDQEBdKFtDSDNdKShPQyg9TylbQ0gzXSlbQ0BdKFtPSF0pKEMoW1MrXTJbTy1dKShbQ0gzXSlbQ0gzXSlbQ0BdKE8zKShbT0hdKVtDQF00KFtDSDNdKVtDQEhdMk9bQ0BIXTNbQ0BdMTRbT0hd

>  <s_epik_cmdline>  (47) 
J2VwaWtfcHl0aG9uJywgJy1waHQnLCAnMi4wJywgJy1waCcsICc3LjAnLCAnLXRuJywgJzgnLCAnLW1hJywgJzIwMCcsICctaW1hZScsICc8aW5maWxlLm1hZT4nLCAnLW9tYWUnLCAnPG91dGZpbGUubWFlPic=

>  <r_lp_tautomer_probability>  (47) 
1

>  <r_epik_Ionization_Penalty>  (47) 
4.65379e-05

>  <r_epik_Ionization_Penalty_Charging>  (47) 
0

>  <r_epik_Ionization_Penalty_Neutral>  (47) 
4.65379e-05

>  <r_epik_State_Penalty>  (47) 
-0

>  <r_epik_Charging_Adjusted_Penalty>  (47) 
0

>  <i_epik_Tot_Q>  (47) 
0

>  <i_epik_Tot_abs_Q>  (47) 
2

>  <s_epik_Chemistry_Notes>  (47) 
This compound has an ester and may undergo hydrolysis at high or low pH. This compound contains an acetal/aminal-like group ( X-CH(R)-Y where X, Y are N, S, or O) that may be acid/base labile, releasing an aldehyde.

>  <s_lp_Force_Field>  (47) 
OPLS3e

>  <r_lp_Energy>  (47) 
304.203

>  <b_lp_Chiralities_Consistent>  (47) 
1

>  <s_lp_Variant>  (47) 
51:0-1

>  <s_i_glide_gridfile>  (47) 
pfpi4k_grid

>  <i_i_glide_lignum>  (47) 
34

>  <i_i_glide_rotatable_bonds>  (47) 
8

>  <r_i_docking_score>  (47) 
-1.44764

>  <r_i_glide_ligand_efficiency>  (47) 
-0.0482548

>  <r_i_glide_ligand_efficiency_sa>  (47) 
-0.149939

>  <r_i_glide_ligand_efficiency_ln>  (47) 
-0.32892

>  <r_i_glide_gscore>  (47) 
-1.44764

>  <r_i_glide_lipo>  (47) 
-0.322862

>  <r_i_glide_hbond>  (47) 
-0.0952573

>  <r_i_glide_metal>  (47) 
-0

>  <r_i_glide_rewards>  (47) 
-0.489607

>  <r_i_glide_evdw>  (47) 
-8.85193

>  <r_i_glide_ecoul>  (47) 
-1.11787

>  <r_i_glide_erotb>  (47) 
0.197614

>  <r_i_glide_esite>  (47) 
-0.127254

>  <r_i_glide_emodel>  (47) 
-3.13082

>  <r_i_glide_energy>  (47) 
-9.96979

>  <r_i_glide_einternal>  (47) 
10.3289

>  <r_i_glide_intrahb_reward>  (47) 
-0

>  <i_i_glide_confnum>  (47) 
5

>  <i_i_glide_posenum>  (47) 
28

>  <r_i_glide_eff_state_penalty>  (47) 
0

>  <ligand_id>  (47) 
51

>  <original_smiles>  (47) 
CC(=O)OC1C(O)C2(O)C3OC4[S+]([O-])C(C)(C)C(O)(C1(C)OC(C)=O)C(O)(O3)C42C

>  <smiles>  (47) 
[H]OC1([H])C([H])(OC(=O)C([H])([H])[H])C(OC(=O)C([H])([H])[H])(C([H])([H])[H])C2(O[H])C3(O[H])OC4([H])OC([H])(S(=O)C2(C([H])([H])[H])C([H])([H])[H])C3(C([H])([H])[H])C41O[H]

$$$$
66:0:0
     RDKit          3D

 22 23  0  0  1  0  0  0  0  0999 V2000
   -2.6402    3.1103    5.7245 C   0  0  0  0  0  0  0  0  0  0  0  0
   -1.2673    2.8711    5.0969 C   0  0  2  0  0  0  0  0  0  0  0  0
   -1.0240    3.6541    3.8110 C   0  0  0  0  0  0  0  0  0  0  0  0
   -1.3853    4.8215    3.6804 O   0  0  0  0  0  0  0  0  0  0  0  0
   -0.3823    2.9407    2.8865 N   0  0  0  0  0  0  0  0  0  0  0  0
   -0.1126    1.6324    3.1930 C   0  0  0  0  0  0  0  0  0  0  0  0
    0.8097    0.9115    2.5080 C   0  0  0  0  0  0  0  0  0  0  0  0
    1.2333   -0.4886    2.7078 C   0  0  0  0  0  0  0  0  0  0  0  0
    2.2119   -1.1150    1.9644 C   0  0  0  0  0  0  0  0  0  0  0  0
    2.4608   -2.7702    2.4745 S   0  0  0  0  0  0  0  0  0  0  0  0
    1.2181   -2.5111    3.6832 C   0  0  0  0  0  0  0  0  0  0  0  0
    0.6358   -3.8350    4.9195 Br  0  0  0  0  0  0  0  0  0  0  0  0
    0.6582   -1.3116    3.6810 N   0  0  0  0  0  0  0  0  0  0  0  0
   -1.1235    1.0891    4.6184 S   0  0  0  0  0  0  0  0  0  0  0  0
   -0.2523    0.4215    5.6830 O   0  0  0  0  0  0  0  0  0  0  0  0
   -2.7519    4.1463    6.0506 H   0  0  0  0  0  0  0  0  0  0  0  0
   -2.7828    2.4713    6.5979 H   0  0  0  0  0  0  0  0  0  0  0  0
   -3.4375    2.9207    5.0066 H   0  0  0  0  0  0  0  0  0  0  0  0
   -0.4746    3.1249    5.8023 H   0  0  0  0  0  0  0  0  0  0  0  0
   -0.1584    3.3456    1.9563 H   0  0  0  0  0  0  0  0  0  0  0  0
    1.3177    1.4194    1.6962 H   0  0  0  0  0  0  0  0  0  0  0  0
    2.7826   -0.7338    1.1301 H   0  0  0  0  0  0  0  0  0  0  0  0
  1  2  1  0
  1 16  1  0
  1 17  1  0
  1 18  1  0
  2 14  1  0
  2  3  1  0
  2 19  1  1
  3  4  2  0
  3  5  1  0
  5  6  1  0
  5 20  1  0
  6  7  2  3
 14  6  1  6
  7  8  1  0
  7 21  1  0
  8 13  1  0
  8  9  2  0
  9 10  1  0
  9 22  1  0
 10 11  1  0
 11 12  1  0
 11 13  2  0
 14 15  2  0
M  END
>  <i_m_ct_stereo_status>  (48) 
1

>  <s_m_source_file>  (48) 
/var/tmp/pbs.5075288.sched01/tmpl15vq434/14426guvkcq.sdf

>  <i_m_source_file_index>  (48) 
65

>  <i_lp_mmshare_version>  (48) 
48012

>  <i_f3d_flags>  (48) 
0

>  <s_epik_input>  (48) 
W0NIM11bQ0BASF0xQyg9TylbTkhdL0MoW1MrXTFbTy1dKT1bQ0hdL2MyW2NIXXNjKEJyKW4y

>  <s_epik_cmdline>  (48) 
J2VwaWtfcHl0aG9uJywgJy1waHQnLCAnMi4wJywgJy1waCcsICc3LjAnLCAnLXRuJywgJzgnLCAnLW1hJywgJzIwMCcsICctaW1hZScsICc8aW5maWxlLm1hZT4nLCAnLW9tYWUnLCAnPG91dGZpbGUubWFlPic=

>  <r_lp_tautomer_probability>  (48) 
1

>  <r_epik_Ionization_Penalty>  (48) 
1.81173e-06

>  <r_epik_Ionization_Penalty_Charging>  (48) 
0

>  <r_epik_Ionization_Penalty_Neutral>  (48) 
1.81173e-06

>  <r_epik_State_Penalty>  (48) 
-0

>  <r_epik_Charging_Adjusted_Penalty>  (48) 
0

>  <i_epik_Tot_Q>  (48) 
0

>  <i_epik_Tot_abs_Q>  (48) 
2

>  <s_lp_Force_Field>  (48) 
OPLS3e

>  <r_lp_Energy>  (48) 
2.71698

>  <b_lp_Chiralities_Consistent>  (48) 
1

>  <s_lp_Variant>  (48) 
66:0-1

>  <s_i_glide_gridfile>  (48) 
pfpi4k_grid

>  <i_i_glide_lignum>  (48) 
65

>  <i_i_glide_rotatable_bonds>  (48) 
1

>  <r_i_docking_score>  (48) 
-3.96577

>  <r_i_glide_ligand_efficiency>  (48) 
-0.264385

>  <r_i_glide_ligand_efficiency_sa>  (48) 
-0.652029

>  <r_i_glide_ligand_efficiency_ln>  (48) 
-1.0695

>  <r_i_glide_gscore>  (48) 
-3.96577

>  <r_i_glide_lipo>  (48) 
-0.0744385

>  <r_i_glide_hbond>  (48) 
-0.32

>  <r_i_glide_metal>  (48) 
-0

>  <r_i_glide_rewards>  (48) 
-1.31462

>  <r_i_glide_evdw>  (48) 
-15.2031

>  <r_i_glide_ecoul>  (48) 
-8.67037

>  <r_i_glide_erotb>  (48) 
0

>  <r_i_glide_esite>  (48) 
-0.196001

>  <r_i_glide_emodel>  (48) 
-30.6681

>  <r_i_glide_energy>  (48) 
-23.8735

>  <r_i_glide_einternal>  (48) 
0.000226827

>  <r_i_glide_intrahb_reward>  (48) 
-0

>  <i_i_glide_confnum>  (48) 
2

>  <i_i_glide_posenum>  (48) 
5

>  <r_i_glide_eff_state_penalty>  (48) 
0

>  <ligand_id>  (48) 
66

>  <original_smiles>  (48) 
CC1C(=O)NC(=Cc2csc(Br)n2)[S+]1[O-]

>  <smiles>  (48) 
[H]C(=C1N([H])C(=O)C([H])(C([H])([H])[H])S1=O)c1nc(Br)sc1[H]

$$$$
66:0:1
     RDKit          3D

 22 23  0  0  1  0  0  0  0  0999 V2000
   -2.0900    2.5710    6.0435 C   0  0  0  0  0  0  0  0  0  0  0  0
   -0.7128    2.6429    5.3735 C   0  0  2  0  0  0  0  0  0  0  0  0
   -0.5380    3.8006    4.3884 C   0  0  0  0  0  0  0  0  0  0  0  0
   -0.9851    4.9252    4.6097 O   0  0  0  0  0  0  0  0  0  0  0  0
    0.1337    3.4486    3.2930 N   0  0  0  0  0  0  0  0  0  0  0  0
    0.4686    2.1122    3.1880 C   0  0  0  0  0  0  0  0  0  0  0  0
    1.4155    1.6838    2.3257 C   0  0  0  0  0  0  0  0  0  0  0  0
    1.9600    0.3369    2.0782 C   0  0  0  0  0  0  0  0  0  0  0  0
    1.4831   -0.8725    2.5572 C   0  0  0  0  0  0  0  0  0  0  0  0
    2.4585   -2.2140    2.0241 S   0  0  0  0  0  0  0  0  0  0  0  0
    3.4418   -1.0611    1.1449 C   0  0  0  0  0  0  0  0  0  0  0  0
    4.9291   -1.6000    0.0836 Br  0  0  0  0  0  0  0  0  0  0  0  0
    3.1054    0.2210    1.2829 N   0  0  0  0  0  0  0  0  0  0  0  0
   -0.4489    1.1095    4.3759 S   0  0  0  0  0  0  0  0  0  0  0  0
    0.5211    0.2354    5.1649 O   0  0  0  0  0  0  0  0  0  0  0  0
   -2.2605    3.4415    6.6761 H   0  0  0  0  0  0  0  0  0  0  0  0
   -2.1628    1.6833    6.6728 H   0  0  0  0  0  0  0  0  0  0  0  0
   -2.8832    2.5381    5.2995 H   0  0  0  0  0  0  0  0  0  0  0  0
    0.0724    2.6995    6.1285 H   0  0  0  0  0  0  0  0  0  0  0  0
    0.2989    4.0767    2.5029 H   0  0  0  0  0  0  0  0  0  0  0  0
    1.8564    2.4605    1.7089 H   0  0  0  0  0  0  0  0  0  0  0  0
    0.6292   -1.0718    3.1809 H   0  0  0  0  0  0  0  0  0  0  0  0
  1  2  1  0
  1 16  1  0
  1 17  1  0
  1 18  1  0
  2 14  1  0
  2  3  1  0
  2 19  1  1
  3  4  2  0
  3  5  1  0
  5  6  1  0
  5 20  1  0
  6  7  2  3
 14  6  1  6
  7  8  1  0
  7 21  1  0
  8 13  1  0
  8  9  2  0
  9 10  1  0
  9 22  1  0
 10 11  1  0
 11 12  1  0
 11 13  2  0
 14 15  2  0
M  END
>  <i_m_ct_stereo_status>  (49) 
1

>  <s_m_source_file>  (49) 
/var/tmp/pbs.5075288.sched01/tmpl15vq434/14426guvkcq.sdf

>  <i_m_source_file_index>  (49) 
65

>  <i_lp_mmshare_version>  (49) 
48012

>  <i_f3d_flags>  (49) 
0

>  <s_epik_input>  (49) 
W0NIM11bQ0BASF0xQyg9TylbTkhdL0MoW1MrXTFbTy1dKT1bQ0hdL2MyW2NIXXNjKEJyKW4y

>  <s_epik_cmdline>  (49) 
J2VwaWtfcHl0aG9uJywgJy1waHQnLCAnMi4wJywgJy1waCcsICc3LjAnLCAnLXRuJywgJzgnLCAnLW1hJywgJzIwMCcsICctaW1hZScsICc8aW5maWxlLm1hZT4nLCAnLW9tYWUnLCAnPG91dGZpbGUubWFlPic=

>  <r_lp_tautomer_probability>  (49) 
1

>  <r_epik_Ionization_Penalty>  (49) 
1.81173e-06

>  <r_epik_Ionization_Penalty_Charging>  (49) 
0

>  <r_epik_Ionization_Penalty_Neutral>  (49) 
1.81173e-06

>  <r_epik_State_Penalty>  (49) 
-0

>  <r_epik_Charging_Adjusted_Penalty>  (49) 
0

>  <i_epik_Tot_Q>  (49) 
0

>  <i_epik_Tot_abs_Q>  (49) 
2

>  <s_lp_Force_Field>  (49) 
OPLS3e

>  <r_lp_Energy>  (49) 
2.71698

>  <b_lp_Chiralities_Consistent>  (49) 
1

>  <s_lp_Variant>  (49) 
66:0-1

>  <s_i_glide_gridfile>  (49) 
pfpi4k_grid

>  <i_i_glide_lignum>  (49) 
65

>  <i_i_glide_rotatable_bonds>  (49) 
1

>  <r_i_docking_score>  (49) 
-3.58192

>  <r_i_glide_ligand_efficiency>  (49) 
-0.238795

>  <r_i_glide_ligand_efficiency_sa>  (49) 
-0.588919

>  <r_i_glide_ligand_efficiency_ln>  (49) 
-0.965986

>  <r_i_glide_gscore>  (49) 
-3.58192

>  <r_i_glide_lipo>  (49) 
-0.0705955

>  <r_i_glide_hbond>  (49) 
-0.203808

>  <r_i_glide_metal>  (49) 
-0

>  <r_i_glide_rewards>  (49) 
-1.31462

>  <r_i_glide_evdw>  (49) 
-18.3593

>  <r_i_glide_ecoul>  (49) 
-6.10773

>  <r_i_glide_erotb>  (49) 
0

>  <r_i_glide_esite>  (49) 
-0.15878

>  <r_i_glide_emodel>  (49) 
-30.6646

>  <r_i_glide_energy>  (49) 
-24.467

>  <r_i_glide_einternal>  (49) 
0.162294

>  <r_i_glide_intrahb_reward>  (49) 
-0

>  <i_i_glide_confnum>  (49) 
1

>  <i_i_glide_posenum>  (49) 
9

>  <r_i_glide_eff_state_penalty>  (49) 
0

>  <ligand_id>  (49) 
66

>  <original_smiles>  (49) 
CC1C(=O)NC(=Cc2csc(Br)n2)[S+]1[O-]

>  <smiles>  (49) 
[H]C(=C1N([H])C(=O)C([H])(C([H])([H])[H])S1=O)c1nc(Br)sc1[H]

$$$$
66:0:2
     RDKit          3D

 22 23  0  0  1  0  0  0  0  0999 V2000
    5.1170   -0.6387    3.4758 C   0  0  0  0  0  0  0  0  0  0  0  0
    3.6409   -0.7775    3.0857 C   0  0  2  0  0  0  0  0  0  0  0  0
    3.3662   -0.7163    1.5804 C   0  0  0  0  0  0  0  0  0  0  0  0
    4.1266   -1.2428    0.7722 O   0  0  0  0  0  0  0  0  0  0  0  0
    2.2493   -0.0524    1.2765 N   0  0  0  0  0  0  0  0  0  0  0  0
    1.6048    0.5516    2.3256 C   0  0  0  0  0  0  0  0  0  0  0  0
    0.3542    1.0255    2.2031 C   0  0  0  0  0  0  0  0  0  0  0  0
   -0.5497    1.5700    3.2208 C   0  0  0  0  0  0  0  0  0  0  0  0
   -1.3539    2.6571    2.9891 C   0  0  0  0  0  0  0  0  0  0  0  0
   -2.2616    3.1089    4.4289 S   0  0  0  0  0  0  0  0  0  0  0  0
   -1.4764    1.7732    5.2450 C   0  0  0  0  0  0  0  0  0  0  0  0
   -1.8224    1.3634    7.0662 Br  0  0  0  0  0  0  0  0  0  0  0  0
   -0.6274    1.0519    4.5155 N   0  0  0  0  0  0  0  0  0  0  0  0
    2.6371    0.5929    3.8228 S   0  0  0  0  0  0  0  0  0  0  0  0
    1.8807   -0.0310    4.9967 O   0  0  0  0  0  0  0  0  0  0  0  0
    5.7001   -1.4678    3.0754 H   0  0  0  0  0  0  0  0  0  0  0  0
    5.2311   -0.6490    4.5598 H   0  0  0  0  0  0  0  0  0  0  0  0
    5.5366    0.2850    3.0894 H   0  0  0  0  0  0  0  0  0  0  0  0
    3.2641   -1.7317    3.4573 H   0  0  0  0  0  0  0  0  0  0  0  0
    1.8351   -0.0335    0.3333 H   0  0  0  0  0  0  0  0  0  0  0  0
   -0.0899    0.9190    1.2257 H   0  0  0  0  0  0  0  0  0  0  0  0
   -1.4504    3.2173    2.0703 H   0  0  0  0  0  0  0  0  0  0  0  0
  1  2  1  0
  1 16  1  0
  1 17  1  0
  1 18  1  0
  2 14  1  0
  2  3  1  0
  2 19  1  1
  3  4  2  0
  3  5  1  0
  5  6  1  0
  5 20  1  0
  6  7  2  3
 14  6  1  6
  7  8  1  0
  7 21  1  0
  8 13  1  0
  8  9  2  0
  9 10  1  0
  9 22  1  0
 10 11  1  0
 11 12  1  0
 11 13  2  0
 14 15  2  0
M  END
>  <i_m_ct_stereo_status>  (50) 
1

>  <s_m_source_file>  (50) 
/var/tmp/pbs.5075288.sched01/tmpl15vq434/14426guvkcq.sdf

>  <i_m_source_file_index>  (50) 
65

>  <i_lp_mmshare_version>  (50) 
48012

>  <i_f3d_flags>  (50) 
0

>  <s_epik_input>  (50) 
W0NIM11bQ0BASF0xQyg9TylbTkhdL0MoW1MrXTFbTy1dKT1bQ0hdL2MyW2NIXXNjKEJyKW4y

>  <s_epik_cmdline>  (50) 
J2VwaWtfcHl0aG9uJywgJy1waHQnLCAnMi4wJywgJy1waCcsICc3LjAnLCAnLXRuJywgJzgnLCAnLW1hJywgJzIwMCcsICctaW1hZScsICc8aW5maWxlLm1hZT4nLCAnLW9tYWUnLCAnPG91dGZpbGUubWFlPic=

>  <r_lp_tautomer_probability>  (50) 
1

>  <r_epik_Ionization_Penalty>  (50) 
1.81173e-06

>  <r_epik_Ionization_Penalty_Charging>  (50) 
0

>  <r_epik_Ionization_Penalty_Neutral>  (50) 
1.81173e-06

>  <r_epik_State_Penalty>  (50) 
-0

>  <r_epik_Charging_Adjusted_Penalty>  (50) 
0

>  <i_epik_Tot_Q>  (50) 
0

>  <i_epik_Tot_abs_Q>  (50) 
2

>  <s_lp_Force_Field>  (50) 
OPLS3e

>  <r_lp_Energy>  (50) 
2.71698

>  <b_lp_Chiralities_Consistent>  (50) 
1

>  <s_lp_Variant>  (50) 
66:0-1

>  <s_i_glide_gridfile>  (50) 
pfpi4k_grid

>  <i_i_glide_lignum>  (50) 
65

>  <i_i_glide_rotatable_bonds>  (50) 
1

>  <r_i_docking_score>  (50) 
-3.30125

>  <r_i_glide_ligand_efficiency>  (50) 
-0.220083

>  <r_i_glide_ligand_efficiency_sa>  (50) 
-0.542772

>  <r_i_glide_ligand_efficiency_ln>  (50) 
-0.890292

>  <r_i_glide_gscore>  (50) 
-3.30125

>  <r_i_glide_lipo>  (50) 
-0.138272

>  <r_i_glide_hbond>  (50) 
-0.137104

>  <r_i_glide_metal>  (50) 
-0

>  <r_i_glide_rewards>  (50) 
-1.31462

>  <r_i_glide_evdw>  (50) 
-19.6826

>  <r_i_glide_ecoul>  (50) 
-4.22987

>  <r_i_glide_erotb>  (50) 
0

>  <r_i_glide_esite>  (50) 
-0.0926397

>  <r_i_glide_emodel>  (50) 
-28.1488

>  <r_i_glide_energy>  (50) 
-23.9125

>  <r_i_glide_einternal>  (50) 
2.60998

>  <r_i_glide_intrahb_reward>  (50) 
-0

>  <i_i_glide_confnum>  (50) 
1

>  <i_i_glide_posenum>  (50) 
6

>  <r_i_glide_eff_state_penalty>  (50) 
0

>  <ligand_id>  (50) 
66

>  <original_smiles>  (50) 
CC1C(=O)NC(=Cc2csc(Br)n2)[S+]1[O-]

>  <smiles>  (50) 
[H]C(=C1N([H])C(=O)C([H])(C([H])([H])[H])S1=O)c1nc(Br)sc1[H]

$$$$
66:1:0
     RDKit          3D

 22 23  0  0  1  0  0  0  0  0999 V2000
    6.5848   -6.8625    2.3860 C   0  0  0  0  0  0  0  0  0  0  0  0
    5.8709   -5.6822    1.7098 C   0  0  2  0  0  0  0  0  0  0  0  0
    4.6962   -6.0629    0.8080 C   0  0  0  0  0  0  0  0  0  0  0  0
    3.9162   -6.9714    1.0796 O   0  0  0  0  0  0  0  0  0  0  0  0
    4.6277   -5.3121   -0.3049 N   0  0  0  0  0  0  0  0  0  0  0  0
    5.6788   -4.4341   -0.4757 C   0  0  0  0  0  0  0  0  0  0  0  0
    5.6902   -3.3219   -1.2298 C   0  0  0  0  0  0  0  0  0  0  0  0
    4.6196   -2.7970   -2.0870 C   0  0  0  0  0  0  0  0  0  0  0  0
    3.3778   -3.3532   -2.3072 C   0  0  0  0  0  0  0  0  0  0  0  0
    2.5011   -2.4909   -3.5287 S   0  0  0  0  0  0  0  0  0  0  0  0
    3.7953   -1.3284   -3.5612 C   0  0  0  0  0  0  0  0  0  0  0  0
    3.7644    0.2013   -4.6969 Br  0  0  0  0  0  0  0  0  0  0  0  0
    4.8442   -1.6046   -2.7778 N   0  0  0  0  0  0  0  0  0  0  0  0
    7.0628   -4.8087    0.5921 S   0  0  0  0  0  0  0  0  0  0  0  0
    7.4830   -3.4886    1.2322 O   0  0  0  0  0  0  0  0  0  0  0  0
    5.9120   -7.3700    3.0827 H   0  0  0  0  0  0  0  0  0  0  0  0
    7.4484   -6.5176    2.9568 H   0  0  0  0  0  0  0  0  0  0  0  0
    6.9309   -7.5903    1.6540 H   0  0  0  0  0  0  0  0  0  0  0  0
    5.5262   -4.9839    2.4706 H   0  0  0  0  0  0  0  0  0  0  0  0
    3.9498   -5.4438   -1.0366 H   0  0  0  0  0  0  0  0  0  0  0  0
    6.5834   -2.7151   -1.1679 H   0  0  0  0  0  0  0  0  0  0  0  0
    2.9065   -4.2178   -1.8827 H   0  0  0  0  0  0  0  0  0  0  0  0
  1  2  1  0
  1 16  1  0
  1 17  1  0
  1 18  1  0
  2 14  1  0
  2  3  1  0
  2 19  1  1
  3  4  2  0
  3  5  1  0
  5  6  1  0
  5 20  1  0
  6  7  2  3
 14  6  1  6
  7  8  1  0
  7 21  1  0
  8 13  1  0
  8  9  2  0
  9 10  1  0
  9 22  1  0
 10 11  1  0
 11 12  1  0
 11 13  2  0
 14 15  2  0
M  END
>  <i_m_ct_stereo_status>  (51) 
1

>  <s_m_source_file>  (51) 
/var/tmp/pbs.5075288.sched01/tmpl15vq434/14426guvkcq.sdf

>  <i_m_source_file_index>  (51) 
66

>  <i_lp_mmshare_version>  (51) 
48012

>  <i_f3d_flags>  (51) 
0

>  <s_epik_input>  (51) 
W0NIM11bQ0BASF0xQyg9TylbTkhdL0MoW1MrXTFbTy1dKT1bQ0hdL2MyW2NIXXNjKEJyKW4y

>  <s_epik_cmdline>  (51) 
J2VwaWtfcHl0aG9uJywgJy1waHQnLCAnMi4wJywgJy1waCcsICc3LjAnLCAnLXRuJywgJzgnLCAnLW1hJywgJzIwMCcsICctaW1hZScsICc8aW5maWxlLm1hZT4nLCAnLW9tYWUnLCAnPG91dGZpbGUubWFlPic=

>  <r_lp_tautomer_probability>  (51) 
1

>  <r_epik_Ionization_Penalty>  (51) 
1.81173e-06

>  <r_epik_Ionization_Penalty_Charging>  (51) 
0

>  <r_epik_Ionization_Penalty_Neutral>  (51) 
1.81173e-06

>  <r_epik_State_Penalty>  (51) 
-0

>  <r_epik_Charging_Adjusted_Penalty>  (51) 
0

>  <i_epik_Tot_Q>  (51) 
0

>  <i_epik_Tot_abs_Q>  (51) 
2

>  <s_lp_Force_Field>  (51) 
OPLS3e

>  <r_lp_Energy>  (51) 
0.488931

>  <b_lp_Chiralities_Consistent>  (51) 
1

>  <s_lp_Variant>  (51) 
66:0-2

>  <s_i_glide_gridfile>  (51) 
pfpi4k_grid

>  <i_i_glide_lignum>  (51) 
66

>  <i_i_glide_rotatable_bonds>  (51) 
1

>  <r_i_docking_score>  (51) 
-4.73852

>  <r_i_glide_ligand_efficiency>  (51) 
-0.315901

>  <r_i_glide_ligand_efficiency_sa>  (51) 
-0.77908

>  <r_i_glide_ligand_efficiency_ln>  (51) 
-1.2779

>  <r_i_glide_gscore>  (51) 
-4.73852

>  <r_i_glide_lipo>  (51) 
-0.908844

>  <r_i_glide_hbond>  (51) 
-0.32

>  <r_i_glide_metal>  (51) 
-0

>  <r_i_glide_rewards>  (51) 
-1.62007

>  <r_i_glide_evdw>  (51) 
-23.9533

>  <r_i_glide_ecoul>  (51) 
-4.45158

>  <r_i_glide_erotb>  (51) 
0

>  <r_i_glide_esite>  (51) 
-0.0242086

>  <r_i_glide_emodel>  (51) 
-36.7035

>  <r_i_glide_energy>  (51) 
-28.4048

>  <r_i_glide_einternal>  (51) 
0.0157235

>  <r_i_glide_intrahb_reward>  (51) 
-0

>  <i_i_glide_confnum>  (51) 
1

>  <i_i_glide_posenum>  (51) 
16

>  <r_i_glide_eff_state_penalty>  (51) 
0

>  <ligand_id>  (51) 
66

>  <original_smiles>  (51) 
CC1C(=O)NC(=Cc2csc(Br)n2)[S+]1[O-]

>  <smiles>  (51) 
[H]C(=C1N([H])C(=O)C([H])(C([H])([H])[H])S1=O)c1nc(Br)sc1[H]

$$$$
66:1:1
     RDKit          3D

 22 23  0  0  1  0  0  0  0  0999 V2000
    5.3898   -6.1946    3.2045 C   0  0  0  0  0  0  0  0  0  0  0  0
    4.6654   -5.2019    2.2842 C   0  0  2  0  0  0  0  0  0  0  0  0
    4.0642   -5.8165    1.0188 C   0  0  0  0  0  0  0  0  0  0  0  0
    3.5195   -6.9194    1.0173 O   0  0  0  0  0  0  0  0  0  0  0  0
    4.1947   -5.0296   -0.0574 N   0  0  0  0  0  0  0  0  0  0  0  0
    4.9155   -3.8651    0.1553 C   0  0  0  0  0  0  0  0  0  0  0  0
    4.8844   -2.7356   -0.5740 C   0  0  0  0  0  0  0  0  0  0  0  0
    4.0992   -2.4338   -1.7839 C   0  0  0  0  0  0  0  0  0  0  0  0
    3.1472   -3.2378   -2.3682 C   0  0  0  0  0  0  0  0  0  0  0  0
    2.5824   -2.5811   -3.8676 S   0  0  0  0  0  0  0  0  0  0  0  0
    3.5800   -1.1804   -3.5503 C   0  0  0  0  0  0  0  0  0  0  0  0
    3.6230    0.3050   -4.7377 Br  0  0  0  0  0  0  0  0  0  0  0  0
    4.3614   -1.2475   -2.4742 N   0  0  0  0  0  0  0  0  0  0  0  0
    5.8702   -3.9400    1.6651 S   0  0  0  0  0  0  0  0  0  0  0  0
    5.6461   -2.6243    2.4121 O   0  0  0  0  0  0  0  0  0  0  0  0
    4.6897   -6.9251    3.6141 H   0  0  0  0  0  0  0  0  0  0  0  0
    5.8503   -5.6784    4.0478 H   0  0  0  0  0  0  0  0  0  0  0  0
    6.1691   -6.7354    2.6717 H   0  0  0  0  0  0  0  0  0  0  0  0
    3.8791   -4.6936    2.8431 H   0  0  0  0  0  0  0  0  0  0  0  0
    3.8530   -5.2766   -0.9746 H   0  0  0  0  0  0  0  0  0  0  0  0
    5.4604   -1.9044   -0.1852 H   0  0  0  0  0  0  0  0  0  0  0  0
    2.7408   -4.1797   -2.0343 H   0  0  0  0  0  0  0  0  0  0  0  0
  1  2  1  0
  1 16  1  0
  1 17  1  0
  1 18  1  0
  2 14  1  0
  2  3  1  0
  2 19  1  1
  3  4  2  0
  3  5  1  0
  5  6  1  0
  5 20  1  0
  6  7  2  3
 14  6  1  6
  7  8  1  0
  7 21  1  0
  8 13  1  0
  8  9  2  0
  9 10  1  0
  9 22  1  0
 10 11  1  0
 11 12  1  0
 11 13  2  0
 14 15  2  0
M  END
>  <i_m_ct_stereo_status>  (52) 
1

>  <s_m_source_file>  (52) 
/var/tmp/pbs.5075288.sched01/tmpl15vq434/14426guvkcq.sdf

>  <i_m_source_file_index>  (52) 
66

>  <i_lp_mmshare_version>  (52) 
48012

>  <i_f3d_flags>  (52) 
0

>  <s_epik_input>  (52) 
W0NIM11bQ0BASF0xQyg9TylbTkhdL0MoW1MrXTFbTy1dKT1bQ0hdL2MyW2NIXXNjKEJyKW4y

>  <s_epik_cmdline>  (52) 
J2VwaWtfcHl0aG9uJywgJy1waHQnLCAnMi4wJywgJy1waCcsICc3LjAnLCAnLXRuJywgJzgnLCAnLW1hJywgJzIwMCcsICctaW1hZScsICc8aW5maWxlLm1hZT4nLCAnLW9tYWUnLCAnPG91dGZpbGUubWFlPic=

>  <r_lp_tautomer_probability>  (52) 
1

>  <r_epik_Ionization_Penalty>  (52) 
1.81173e-06

>  <r_epik_Ionization_Penalty_Charging>  (52) 
0

>  <r_epik_Ionization_Penalty_Neutral>  (52) 
1.81173e-06

>  <r_epik_State_Penalty>  (52) 
-0

>  <r_epik_Charging_Adjusted_Penalty>  (52) 
0

>  <i_epik_Tot_Q>  (52) 
0

>  <i_epik_Tot_abs_Q>  (52) 
2

>  <s_lp_Force_Field>  (52) 
OPLS3e

>  <r_lp_Energy>  (52) 
0.488931

>  <b_lp_Chiralities_Consistent>  (52) 
1

>  <s_lp_Variant>  (52) 
66:0-2

>  <s_i_glide_gridfile>  (52) 
pfpi4k_grid

>  <i_i_glide_lignum>  (52) 
66

>  <i_i_glide_rotatable_bonds>  (52) 
1

>  <r_i_docking_score>  (52) 
-4.20545

>  <r_i_glide_ligand_efficiency>  (52) 
-0.280364

>  <r_i_glide_ligand_efficiency_sa>  (52) 
-0.691436

>  <r_i_glide_ligand_efficiency_ln>  (52) 
-1.13414

>  <r_i_glide_gscore>  (52) 
-4.20545

>  <r_i_glide_lipo>  (52) 
-0.573787

>  <r_i_glide_hbond>  (52) 
-0.32

>  <r_i_glide_metal>  (52) 
-0

>  <r_i_glide_rewards>  (52) 
-1.47251

>  <r_i_glide_evdw>  (52) 
-23.6166

>  <r_i_glide_ecoul>  (52) 
-4.28907

>  <r_i_glide_erotb>  (52) 
0

>  <r_i_glide_esite>  (52) 
-0.0149638

>  <r_i_glide_emodel>  (52) 
-35.1862

>  <r_i_glide_energy>  (52) 
-27.9056

>  <r_i_glide_einternal>  (52) 
0.150306

>  <r_i_glide_intrahb_reward>  (52) 
-0

>  <i_i_glide_confnum>  (52) 
1

>  <i_i_glide_posenum>  (52) 
22

>  <r_i_glide_eff_state_penalty>  (52) 
0

>  <ligand_id>  (52) 
66

>  <original_smiles>  (52) 
CC1C(=O)NC(=Cc2csc(Br)n2)[S+]1[O-]

>  <smiles>  (52) 
[H]C(=C1N([H])C(=O)C([H])(C([H])([H])[H])S1=O)c1nc(Br)sc1[H]

$$$$
66:1:2
     RDKit          3D

 22 23  0  0  1  0  0  0  0  0999 V2000
    4.5735   -3.2179    4.4311 C   0  0  0  0  0  0  0  0  0  0  0  0
    4.0423   -2.6207    3.1184 C   0  0  2  0  0  0  0  0  0  0  0  0
    3.5029   -3.6476    2.1153 C   0  0  0  0  0  0  0  0  0  0  0  0
    2.8403   -4.6250    2.4591 O   0  0  0  0  0  0  0  0  0  0  0  0
    3.8253   -3.3578    0.8465 N   0  0  0  0  0  0  0  0  0  0  0  0
    4.6411   -2.2519    0.6898 C   0  0  0  0  0  0  0  0  0  0  0  0
    4.7763   -1.5028   -0.4177 C   0  0  0  0  0  0  0  0  0  0  0  0
    4.1841   -1.7081   -1.7549 C   0  0  0  0  0  0  0  0  0  0  0  0
    3.5833   -2.8545   -2.2461 C   0  0  0  0  0  0  0  0  0  0  0  0
    3.0057   -2.6288   -3.8778 S   0  0  0  0  0  0  0  0  0  0  0  0
    3.5751   -0.9716   -3.7760 C   0  0  0  0  0  0  0  0  0  0  0  0
    3.4054    0.2816   -5.1968 Br  0  0  0  0  0  0  0  0  0  0  0  0
    4.2144   -0.6443   -2.6567 N   0  0  0  0  0  0  0  0  0  0  0  0
    5.4211   -1.7678    2.2222 S   0  0  0  0  0  0  0  0  0  0  0  0
    5.2834   -0.2514    2.3731 O   0  0  0  0  0  0  0  0  0  0  0  0
    3.7672   -3.6871    4.9973 H   0  0  0  0  0  0  0  0  0  0  0  0
    5.0050   -2.4399    5.0615 H   0  0  0  0  0  0  0  0  0  0  0  0
    5.3401   -3.9677    4.2473 H   0  0  0  0  0  0  0  0  0  0  0  0
    3.2604   -1.8914    3.3349 H   0  0  0  0  0  0  0  0  0  0  0  0
    3.5352   -3.9085    0.0561 H   0  0  0  0  0  0  0  0  0  0  0  0
    5.3824   -0.6110   -0.3133 H   0  0  0  0  0  0  0  0  0  0  0  0
    3.4428   -3.8200   -1.7838 H   0  0  0  0  0  0  0  0  0  0  0  0
  1  2  1  0
  1 16  1  0
  1 17  1  0
  1 18  1  0
  2 14  1  0
  2  3  1  0
  2 19  1  1
  3  4  2  0
  3  5  1  0
  5  6  1  0
  5 20  1  0
  6  7  2  3
 14  6  1  6
  7  8  1  0
  7 21  1  0
  8 13  1  0
  8  9  2  0
  9 10  1  0
  9 22  1  0
 10 11  1  0
 11 12  1  0
 11 13  2  0
 14 15  2  0
M  END
>  <i_m_ct_stereo_status>  (53) 
1

>  <s_m_source_file>  (53) 
/var/tmp/pbs.5075288.sched01/tmpl15vq434/14426guvkcq.sdf

>  <i_m_source_file_index>  (53) 
66

>  <i_lp_mmshare_version>  (53) 
48012

>  <i_f3d_flags>  (53) 
0

>  <s_epik_input>  (53) 
W0NIM11bQ0BASF0xQyg9TylbTkhdL0MoW1MrXTFbTy1dKT1bQ0hdL2MyW2NIXXNjKEJyKW4y

>  <s_epik_cmdline>  (53) 
J2VwaWtfcHl0aG9uJywgJy1waHQnLCAnMi4wJywgJy1waCcsICc3LjAnLCAnLXRuJywgJzgnLCAnLW1hJywgJzIwMCcsICctaW1hZScsICc8aW5maWxlLm1hZT4nLCAnLW9tYWUnLCAnPG91dGZpbGUubWFlPic=

>  <r_lp_tautomer_probability>  (53) 
1

>  <r_epik_Ionization_Penalty>  (53) 
1.81173e-06

>  <r_epik_Ionization_Penalty_Charging>  (53) 
0

>  <r_epik_Ionization_Penalty_Neutral>  (53) 
1.81173e-06

>  <r_epik_State_Penalty>  (53) 
-0

>  <r_epik_Charging_Adjusted_Penalty>  (53) 
0

>  <i_epik_Tot_Q>  (53) 
0

>  <i_epik_Tot_abs_Q>  (53) 
2

>  <s_lp_Force_Field>  (53) 
OPLS3e

>  <r_lp_Energy>  (53) 
0.488931

>  <b_lp_Chiralities_Consistent>  (53) 
1

>  <s_lp_Variant>  (53) 
66:0-2

>  <s_i_glide_gridfile>  (53) 
pfpi4k_grid

>  <i_i_glide_lignum>  (53) 
66

>  <i_i_glide_rotatable_bonds>  (53) 
1

>  <r_i_docking_score>  (53) 
-3.75877

>  <r_i_glide_ligand_efficiency>  (53) 
-0.250585

>  <r_i_glide_ligand_efficiency_sa>  (53) 
-0.617995

>  <r_i_glide_ligand_efficiency_ln>  (53) 
-1.01368

>  <r_i_glide_gscore>  (53) 
-3.75877

>  <r_i_glide_lipo>  (53) 
-0.492225

>  <r_i_glide_hbond>  (53) 
-0.135968

>  <r_i_glide_metal>  (53) 
-0

>  <r_i_glide_rewards>  (53) 
-1.44019

>  <r_i_glide_evdw>  (53) 
-28.3937

>  <r_i_glide_ecoul>  (53) 
-1.80468

>  <r_i_glide_erotb>  (53) 
0

>  <r_i_glide_esite>  (53) 
0

>  <r_i_glide_emodel>  (53) 
-36.5286

>  <r_i_glide_energy>  (53) 
-30.1984

>  <r_i_glide_einternal>  (53) 
0.403663

>  <r_i_glide_intrahb_reward>  (53) 
-0

>  <i_i_glide_confnum>  (53) 
1

>  <i_i_glide_posenum>  (53) 
1

>  <r_i_glide_eff_state_penalty>  (53) 
0

>  <ligand_id>  (53) 
66

>  <original_smiles>  (53) 
CC1C(=O)NC(=Cc2csc(Br)n2)[S+]1[O-]

>  <smiles>  (53) 
[H]C(=C1N([H])C(=O)C([H])(C([H])([H])[H])S1=O)c1nc(Br)sc1[H]

$$$$
71:0:0
     RDKit          3D

 98104  0  0  1  0  0  0  0  0999 V2000
    4.0908   -3.4239    8.8847 C   0  0  0  0  0  0  0  0  0  0  0  0
    3.4082   -2.6385    8.0349 C   0  0  0  0  0  0  0  0  0  0  0  0
    1.9996   -3.2006    7.4669 C   0  0  0  0  0  0  0  0  0  0  0  0
    1.2077   -2.7439    6.0902 C   0  0  1  0  0  0  0  0  0  0  0  0
   -0.2174   -2.8355    6.2202 O   0  0  0  0  0  0  0  0  0  0  0  0
   -0.7269   -4.1261    6.5521 C   0  0  0  0  0  0  0  0  0  0  0  0
    1.7483   -1.3752    5.5118 C   0  0  1  0  0  0  0  0  0  0  0  0
    1.2650   -0.5510    6.8836 C   0  0  0  0  0  0  0  0  0  0  0  0
    0.6980    0.7488    7.1750 O   0  0  0  0  0  0  0  0  0  0  0  0
    1.2635    2.0359    7.1180 C   0  0  1  0  0  0  0  0  0  0  0  0
    0.3274    2.9654    7.6612 O   0  0  0  0  0  0  0  0  0  0  0  0
    2.6103    2.2540    7.8627 C   0  0  1  0  0  0  0  0  0  0  0  0
    2.4557    2.5354    9.2485 O   0  0  0  0  0  0  0  0  0  0  0  0
    3.0060    3.6078    9.8988 C   0  0  0  0  0  0  0  0  0  0  0  0
    3.7559    4.6695    9.1001 C   0  0  0  0  0  0  0  0  0  0  0  0
    2.8981    3.7273   11.1301 O   0  0  0  0  0  0  0  0  0  0  0  0
    3.6848    1.2162    7.4523 C   0  0  1  0  0  0  0  0  0  0  0  0
    4.8491    1.9833    7.6939 O   0  0  0  0  0  0  0  0  0  0  0  0
    3.8894   -0.0018    8.5412 C   0  0  0  0  0  0  0  0  0  0  0  0
    5.1601    0.1263    9.4587 C   0  0  0  0  0  0  0  0  0  0  0  0
    2.7984   -0.1715    9.6504 C   0  0  0  0  0  0  0  0  0  0  0  0
    4.0835   -1.2587    7.6843 C   0  0  1  0  0  0  0  0  0  0  0  0
    5.2148   -1.0589    6.6507 C   0  0  0  0  0  0  0  0  0  0  0  0
    4.7703   -0.1330    5.4396 C   0  0  1  0  0  0  0  0  0  0  0  0
    6.1319    0.4979    5.0115 C   0  0  0  0  0  0  0  0  0  0  0  0
    4.2231   -1.0272    4.2954 C   0  0  1  0  0  0  0  0  0  0  0  0
    5.2693   -1.6949    3.5600 O   0  0  0  0  0  0  0  0  0  0  0  0
    5.5510   -1.3659    2.2764 C   0  0  0  0  0  0  0  0  0  0  0  0
    6.2055   -2.4512    1.7094 N   0  0  0  0  0  0  0  0  0  0  0  0
    5.2481   -0.3341    1.7084 O   0  0  0  0  0  0  0  0  0  0  0  0
    3.1316   -2.0672    4.7184 C   0  0  0  0  0  0  0  0  0  0  0  0
    3.8655   -3.4135    5.2258 C   0  0  0  0  0  0  0  0  0  0  0  0
    2.7109   -2.8021    3.3559 C   0  0  0  0  0  0  0  0  0  0  0  0
    3.6759    1.0082    5.7860 C   0  0  2  0  0  0  0  0  0  0  0  0
    4.2845    2.2237    5.3076 O   0  0  0  0  0  0  0  0  0  0  0  0
    2.2221    1.1541    4.8789 C   0  0  2  0  0  0  0  0  0  0  0  0
    2.2896    1.8335    3.4637 C   0  0  0  0  0  0  0  0  0  0  0  0
    1.0119    1.8703    2.7708 O   0  0  0  0  0  0  0  0  0  0  0  0
   -0.2697    1.4663    3.3729 C   0  0  2  0  0  0  0  0  0  0  0  0
   -1.0208    1.0114    2.1160 C   0  0  0  0  0  0  0  0  0  0  0  0
   -0.9416    2.6982    3.9474 C   0  0  1  0  0  0  0  0  0  0  0  0
   -2.1537    2.4380    4.6576 O   0  0  0  0  0  0  0  0  0  0  0  0
    0.2933    3.6162    4.9551 S   0  0  0  0  0  0  0  0  0  0  0  0
    1.0955    4.6046    4.0846 O   0  0  0  0  0  0  0  0  0  0  0  0
    1.4911    2.3541    5.6636 C   0  0  1  0  0  0  0  0  0  0  0  0
   -0.1633    0.3149    4.4519 C   0  0  1  0  0  0  0  0  0  0  0  0
   -1.0510   -0.7585    4.2575 O   0  0  0  0  0  0  0  0  0  0  0  0
    1.2998   -0.1645    4.5884 C   0  0  2  0  0  0  0  0  0  0  0  0
    1.3961   -0.5743    3.2384 O   0  0  0  0  0  0  0  0  0  0  0  0
    5.0371   -3.0780    9.2842 H   0  0  0  0  0  0  0  0  0  0  0  0
    3.7294   -4.3915    9.1917 H   0  0  0  0  0  0  0  0  0  0  0  0
    2.1055   -4.2809    7.4079 H   0  0  0  0  0  0  0  0  0  0  0  0
    1.3038   -3.0755    8.2991 H   0  0  0  0  0  0  0  0  0  0  0  0
    1.3322   -3.5258    5.3577 H   0  0  0  0  0  0  0  0  0  0  0  0
   -1.8139   -4.0775    6.5951 H   0  0  0  0  0  0  0  0  0  0  0  0
   -0.3812   -4.4664    7.5315 H   0  0  0  0  0  0  0  0  0  0  0  0
   -0.4507   -4.8753    5.8098 H   0  0  0  0  0  0  0  0  0  0  0  0
    0.2259   -0.8222    6.8945 H   0  0  0  0  0  0  0  0  0  0  0  0
    1.4735   -0.9797    7.8356 H   0  0  0  0  0  0  0  0  0  0  0  0
   -0.4824    2.9171    7.1803 H   0  0  0  0  0  0  0  0  0  0  0  0
    2.9949    3.2075    7.4800 H   0  0  0  0  0  0  0  0  0  0  0  0
    3.1165    5.1405    8.3604 H   0  0  0  0  0  0  0  0  0  0  0  0
    4.6493    4.2591    8.6217 H   0  0  0  0  0  0  0  0  0  0  0  0
    4.1205    5.4968    9.7555 H   0  0  0  0  0  0  0  0  0  0  0  0
    4.8366    2.6647    7.0300 H   0  0  0  0  0  0  0  0  0  0  0  0
    5.2906   -0.7918   10.0471 H   0  0  0  0  0  0  0  0  0  0  0  0
    5.0598    0.9600   10.1620 H   0  0  0  0  0  0  0  0  0  0  0  0
    6.1032    0.3009    8.9596 H   0  0  0  0  0  0  0  0  0  0  0  0
    2.7296   -1.1930   10.0268 H   0  0  0  0  0  0  0  0  0  0  0  0
    1.7991    0.1646    9.3922 H   0  0  0  0  0  0  0  0  0  0  0  0
    3.0251    0.4346   10.5375 H   0  0  0  0  0  0  0  0  0  0  0  0
    3.4166   -1.1106    6.9591 H   0  0  0  0  0  0  0  0  0  0  0  0
    6.0744   -0.5885    7.1375 H   0  0  0  0  0  0  0  0  0  0  0  0
    5.6733   -1.9629    6.3106 H   0  0  0  0  0  0  0  0  0  0  0  0
    6.0937    0.9381    4.0081 H   0  0  0  0  0  0  0  0  0  0  0  0
    6.9435   -0.2153    4.9801 H   0  0  0  0  0  0  0  0  0  0  0  0
    6.5006    1.2110    5.7443 H   0  0  0  0  0  0  0  0  0  0  0  0
    3.7957   -0.3484    3.5678 H   0  0  0  0  0  0  0  0  0  0  0  0
    6.3511   -3.2592    2.2922 H   0  0  0  0  0  0  0  0  0  0  0  0
    6.4295   -2.4107    0.7339 H   0  0  0  0  0  0  0  0  0  0  0  0
    4.6735   -3.7105    4.5537 H   0  0  0  0  0  0  0  0  0  0  0  0
    3.2259   -4.2946    5.2334 H   0  0  0  0  0  0  0  0  0  0  0  0
    4.4102   -3.4596    6.1359 H   0  0  0  0  0  0  0  0  0  0  0  0
    2.9040   -2.1889    2.4765 H   0  0  0  0  0  0  0  0  0  0  0  0
    1.6598   -3.0725    3.3213 H   0  0  0  0  0  0  0  0  0  0  0  0
    3.2428   -3.7078    3.0741 H   0  0  0  0  0  0  0  0  0  0  0  0
    4.3226    2.1916    4.3525 H   0  0  0  0  0  0  0  0  0  0  0  0
    2.6618    2.8537    3.4913 H   0  0  0  0  0  0  0  0  0  0  0  0
    2.9953    1.3411    2.8001 H   0  0  0  0  0  0  0  0  0  0  0  0
   -2.0791    0.8380    2.3165 H   0  0  0  0  0  0  0  0  0  0  0  0
   -0.5748    0.1238    1.6959 H   0  0  0  0  0  0  0  0  0  0  0  0
   -0.9527    1.7547    1.3242 H   0  0  0  0  0  0  0  0  0  0  0  0
   -1.2216    3.4011    3.1610 H   0  0  0  0  0  0  0  0  0  0  0  0
   -2.8019    2.0745    4.0431 H   0  0  0  0  0  0  0  0  0  0  0  0
    2.2241    3.1472    5.6838 H   0  0  0  0  0  0  0  0  0  0  0  0
   -0.5595    0.7305    5.3704 H   0  0  0  0  0  0  0  0  0  0  0  0
   -0.7743   -1.4736    4.8375 H   0  0  0  0  0  0  0  0  0  0  0  0
    1.1889    0.1759    2.6996 H   0  0  0  0  0  0  0  0  0  0  0  0
  1  2  2  0
  1 50  1  0
  1 51  1  0
  2 22  1  0
  2  3  1  0
  3  4  1  0
  3 52  1  0
  3 53  1  0
  4  5  1  0
  4  7  1  0
  4 54  1  6
  5  6  1  0
  6 55  1  0
  6 56  1  0
  6 57  1  0
  7 31  1  0
  7 48  1  0
  7  8  1  1
  8  9  1  0
  8 58  1  0
  8 59  1  0
  9 10  1  0
 10 45  1  0
 10 11  1  1
 10 12  1  0
 11 60  1  0
 12 13  1  0
 12 17  1  0
 12 61  1  6
 13 14  1  0
 14 15  1  0
 14 16  2  0
 15 62  1  0
 15 63  1  0
 15 64  1  0
 17 34  1  0
 17 18  1  6
 17 19  1  0
 18 65  1  0
 19 20  1  0
 19 21  1  0
 19 22  1  0
 20 66  1  0
 20 67  1  0
 20 68  1  0
 21 69  1  0
 21 70  1  0
 21 71  1  0
 22 23  1  0
 22 72  1  6
 23 24  1  0
 23 73  1  0
 23 74  1  0
 24 25  1  6
 24 26  1  0
 24 34  1  0
 25 75  1  0
 25 76  1  0
 25 77  1  0
 26 27  1  0
 26 31  1  0
 26 78  1  6
 27 28  1  0
 28 29  1  0
 28 30  2  0
 29 79  1  0
 29 80  1  0
 31 32  1  0
 31 33  1  0
 32 81  1  0
 32 82  1  0
 32 83  1  0
 33 84  1  0
 33 85  1  0
 33 86  1  0
 34 35  1  6
 34 36  1  0
 35 87  1  0
 36 45  1  0
 36 48  1  0
 36 37  1  6
 37 38  1  0
 37 88  1  0
 37 89  1  0
 38 39  1  0
 39 40  1  6
 39 41  1  0
 39 46  1  0
 40 90  1  0
 40 91  1  0
 40 92  1  0
 41 42  1  0
 43 41  1  6
 41 93  1  6
 42 94  1  0
 43 44  2  0
 43 45  1  0
 45 95  1  1
 46 47  1  0
 46 48  1  0
 46 96  1  1
 47 97  1  0
 48 49  1  6
 49 98  1  0
M  END
>  <i_m_ct_stereo_status>  (54) 
1

>  <s_m_source_file>  (54) 
/var/tmp/pbs.5075288.sched01/tmpndvtliwj/216foptgilz.sdf

>  <i_m_source_file_index>  (54) 
1

>  <i_lp_mmshare_version>  (54) 
48012

>  <i_f3d_flags>  (54) 
0

>  <s_epik_input>  (54) 
W05IMl1DKD1PKU9bQ0BASF0oQzEoW0NIM10pW0NIM10pW0NAXTIoW0NIM10pW0NIMl1bQ0BASF0oQyg9W0NIMl0pW0NIMl1bQ0BIXTNPW0NIM10pQyhbQ0gzXSkoW0NIM10pW0NAQF0oW09IXSkoW0NAXTIoW09IXSlbQ0BdNDVbQ0BdNihbQ0BdMTM3KVtPSF0pW0NASF0oT0MoPU8pW0NIM10pW0NAXShbT0hdKShPW0NIMl03KVtDSF01W1MrXShbTy1dKVtDQEhdKFtPSF0pW0NAQF0oW0NIM10pKE9bQ0gyXTQpW0NASF02W09IXQ==

>  <s_epik_cmdline>  (54) 
J2VwaWtfcHl0aG9uJywgJy1waHQnLCAnMi4wJywgJy1waCcsICc3LjAnLCAnLXRuJywgJzgnLCAnLW1hJywgJzIwMCcsICctaW1hZScsICc8aW5maWxlLm1hZT4nLCAnLW9tYWUnLCAnPG91dGZpbGUubWFlPic=

>  <r_lp_tautomer_probability>  (54) 
1

>  <r_epik_Ionization_Penalty>  (54) 
5.63845e-06

>  <r_epik_Ionization_Penalty_Charging>  (54) 
0

>  <r_epik_Ionization_Penalty_Neutral>  (54) 
5.63845e-06

>  <r_epik_State_Penalty>  (54) 
-0

>  <r_epik_Charging_Adjusted_Penalty>  (54) 
0

>  <i_epik_Tot_Q>  (54) 
0

>  <i_epik_Tot_abs_Q>  (54) 
2

>  <s_epik_Chemistry_Notes>  (54) 
This compound has an ester and may undergo hydrolysis at high or low pH. This compound contains an acetal/aminal-like group ( X-CH(R)-Y where X, Y are N, S, or O) that may be acid/base labile, releasing an aldehyde.

>  <s_lp_Force_Field>  (54) 
OPLS3e

>  <r_lp_Energy>  (54) 
424.664

>  <b_lp_Chiralities_Consistent>  (54) 
1

>  <s_lp_Variant>  (54) 
71:0-1

>  <s_i_glide_gridfile>  (54) 
pfpi4k_grid

>  <i_i_glide_lignum>  (54) 
1

>  <i_i_glide_rotatable_bonds>  (54) 
11

>  <r_i_docking_score>  (54) 
-2.15614

>  <r_i_glide_ligand_efficiency>  (54) 
-0.0440028

>  <r_i_glide_ligand_efficiency_sa>  (54) 
-0.16102

>  <r_i_glide_ligand_efficiency_ln>  (54) 
-0.440764

>  <r_i_glide_gscore>  (54) 
-2.15614

>  <r_i_glide_lipo>  (54) 
-0.191255

>  <r_i_glide_hbond>  (54) 
-0.124656

>  <r_i_glide_metal>  (54) 
-0

>  <r_i_glide_rewards>  (54) 
-0.671397

>  <r_i_glide_evdw>  (54) 
-22.4499

>  <r_i_glide_ecoul>  (54) 
-0.753405

>  <r_i_glide_erotb>  (54) 
0.0839099

>  <r_i_glide_esite>  (54) 
-0.0172334

>  <r_i_glide_emodel>  (54) 
-26.5135

>  <r_i_glide_energy>  (54) 
-23.2033

>  <r_i_glide_einternal>  (54) 
7.76173

>  <r_i_glide_intrahb_reward>  (54) 
-0.5

>  <i_i_glide_confnum>  (54) 
4

>  <i_i_glide_posenum>  (54) 
32

>  <r_i_glide_eff_state_penalty>  (54) 
0

>  <ligand_id>  (54) 
71

>  <original_smiles>  (54) 
C=C1CC(OC)C23COC4(O)C(OC(C)=O)C5(O)C(C)(C)C1CC(C)(C(OC(N)=O)C2(C)C)C5(O)C12COC(C)(C(O)[S+]([O-])C41)C(O)C32O

>  <smiles>  (54) 
[H]OC1([H])S(=O)C2([H])C3(O[H])OC([H])([H])C45C([H])(OC([H])([H])[H])C([H])([H])C(=C([H])[H])C6([H])C([H])([H])C(C([H])([H])[H])(C([H])(OC(=O)N([H])[H])C4(C([H])([H])[H])C([H])([H])[H])C(O[H])(C(O[H])(C3([H])OC(=O)C([H])([H])[H])C6(C([H])([H])[H])C([H])([H])[H])C23C([H])([H])OC1(C([H])([H])[H])C([H])(O[H])C35O[H]

$$$$
71:0:1
     RDKit          3D

 98104  0  0  1  0  0  0  0  0999 V2000
    5.5492   -4.7582    7.4562 C   0  0  0  0  0  0  0  0  0  0  0  0
    4.5615   -3.8937    7.1742 C   0  0  0  0  0  0  0  0  0  0  0  0
    3.0489   -4.4638    7.1126 C   0  0  0  0  0  0  0  0  0  0  0  0
    1.7525   -3.8241    6.3181 C   0  0  1  0  0  0  0  0  0  0  0  0
    0.5070   -4.0736    6.9864 O   0  0  0  0  0  0  0  0  0  0  0  0
    0.1767   -5.4442    7.1920 C   0  0  0  0  0  0  0  0  0  0  0  0
    1.9900   -2.3105    5.8983 C   0  0  1  0  0  0  0  0  0  0  0  0
    2.1098   -1.8382    7.4980 C   0  0  0  0  0  0  0  0  0  0  0  0
    1.7545   -0.6672    8.2843 O   0  0  0  0  0  0  0  0  0  0  0  0
    2.2354    0.6378    8.2983 C   0  0  1  0  0  0  0  0  0  0  0  0
    1.6374    1.3512    9.3525 O   0  0  0  0  0  0  0  0  0  0  0  0
    3.7704    0.8434    8.4463 C   0  0  1  0  0  0  0  0  0  0  0  0
    4.2452    0.8088    9.8006 O   0  0  0  0  0  0  0  0  0  0  0  0
    5.1287    1.6781   10.3543 C   0  0  0  0  0  0  0  0  0  0  0  0
    5.5844    2.8629    9.4917 C   0  0  0  0  0  0  0  0  0  0  0  0
    5.5886    1.5390   11.4891 O   0  0  0  0  0  0  0  0  0  0  0  0
    4.5800    0.0393    7.4065 C   0  0  1  0  0  0  0  0  0  0  0  0
    5.7412    0.8428    7.3066 O   0  0  0  0  0  0  0  0  0  0  0  0
    5.2108   -1.3707    8.0121 C   0  0  0  0  0  0  0  0  0  0  0  0
    6.7461   -1.3219    8.3279 C   0  0  0  0  0  0  0  0  0  0  0  0
    4.6766   -1.8706    9.4026 C   0  0  0  0  0  0  0  0  0  0  0  0
    5.0021   -2.4092    6.8959 C   0  0  1  0  0  0  0  0  0  0  0  0
    5.5829   -1.8873    5.5677 C   0  0  0  0  0  0  0  0  0  0  0  0
    4.7051   -0.7747    4.8644 C   0  0  1  0  0  0  0  0  0  0  0  0
    5.7921    0.0479    4.0784 C   0  0  0  0  0  0  0  0  0  0  0  0
    3.7318   -1.4711    3.8861 C   0  0  1  0  0  0  0  0  0  0  0  0
    4.4055   -1.8497    2.6683 O   0  0  0  0  0  0  0  0  0  0  0  0
    4.2940   -1.1019    1.5405 C   0  0  0  0  0  0  0  0  0  0  0  0
    4.9916   -1.7557    0.5356 N   0  0  0  0  0  0  0  0  0  0  0  0
    3.7068   -0.0528    1.4188 O   0  0  0  0  0  0  0  0  0  0  0  0
    2.9191   -2.6934    4.4749 C   0  0  0  0  0  0  0  0  0  0  0  0
    3.7959   -4.0301    4.3126 C   0  0  0  0  0  0  0  0  0  0  0  0
    1.9732   -3.1586    3.2638 C   0  0  0  0  0  0  0  0  0  0  0  0
    3.8493    0.1518    5.8843 C   0  0  2  0  0  0  0  0  0  0  0  0
    4.1702    1.4790    5.4525 O   0  0  0  0  0  0  0  0  0  0  0  0
    2.1486    0.3462    5.7275 C   0  0  2  0  0  0  0  0  0  0  0  0
    1.5994    1.2924    4.5910 C   0  0  0  0  0  0  0  0  0  0  0  0
    0.1437    1.3396    4.5119 O   0  0  0  0  0  0  0  0  0  0  0  0
   -0.7581    0.6974    5.4658 C   0  0  2  0  0  0  0  0  0  0  0  0
   -1.9992    0.4354    4.5979 C   0  0  0  0  0  0  0  0  0  0  0  0
   -1.1033    1.7317    6.5406 C   0  0  1  0  0  0  0  0  0  0  0  0
   -1.8798    1.2453    7.6190 O   0  0  0  0  0  0  0  0  0  0  0  0
    0.4435    2.5457    7.1131 S   0  0  0  0  0  0  0  0  0  0  0  0
    0.7469    3.7431    6.2096 O   0  0  0  0  0  0  0  0  0  0  0  0
    1.8333    1.2735    6.9937 C   0  0  1  0  0  0  0  0  0  0  0  0
   -0.2046   -0.6349    6.1122 C   0  0  1  0  0  0  0  0  0  0  0  0
   -1.0924   -1.7489    6.0253 O   0  0  0  0  0  0  0  0  0  0  0  0
    1.1938   -0.9827    5.5213 C   0  0  2  0  0  0  0  0  0  0  0  0
    0.7126   -1.1020    4.1973 O   0  0  0  0  0  0  0  0  0  0  0  0
    6.5715   -4.4177    7.5020 H   0  0  0  0  0  0  0  0  0  0  0  0
    5.3577   -5.8025    7.6588 H   0  0  0  0  0  0  0  0  0  0  0  0
    3.1317   -5.5009    6.7801 H   0  0  0  0  0  0  0  0  0  0  0  0
    2.7639   -4.5807    8.1611 H   0  0  0  0  0  0  0  0  0  0  0  0
    1.5642   -4.4249    5.4421 H   0  0  0  0  0  0  0  0  0  0  0  0
   -0.7906   -5.5079    7.6884 H   0  0  0  0  0  0  0  0  0  0  0  0
    0.8964   -5.9585    7.8287 H   0  0  0  0  0  0  0  0  0  0  0  0
    0.0987   -5.9889    6.2509 H   0  0  0  0  0  0  0  0  0  0  0  0
    1.1666   -2.1968    7.8762 H   0  0  0  0  0  0  0  0  0  0  0  0
    2.7002   -2.4376    8.1507 H   0  0  0  0  0  0  0  0  0  0  0  0
    0.7017    1.2965    9.2827 H   0  0  0  0  0  0  0  0  0  0  0  0
    3.9297    1.8859    8.1869 H   0  0  0  0  0  0  0  0  0  0  0  0
    4.7144    3.4803    9.2159 H   0  0  0  0  0  0  0  0  0  0  0  0
    6.0936    2.5041    8.6076 H   0  0  0  0  0  0  0  0  0  0  0  0
    6.2462    3.5396   10.0604 H   0  0  0  0  0  0  0  0  0  0  0  0
    5.4568    1.7326    7.0660 H   0  0  0  0  0  0  0  0  0  0  0  0
    7.1133   -2.3157    8.5778 H   0  0  0  0  0  0  0  0  0  0  0  0
    6.9622   -0.6675    9.1755 H   0  0  0  0  0  0  0  0  0  0  0  0
    7.3976   -0.9553    7.5377 H   0  0  0  0  0  0  0  0  0  0  0  0
    4.7671   -2.9481    9.5288 H   0  0  0  0  0  0  0  0  0  0  0  0
    3.6617   -1.5914    9.6513 H   0  0  0  0  0  0  0  0  0  0  0  0
    5.2538   -1.4529   10.2250 H   0  0  0  0  0  0  0  0  0  0  0  0
    4.0865   -2.1672    6.5709 H   0  0  0  0  0  0  0  0  0  0  0  0
    6.5569   -1.4631    5.7816 H   0  0  0  0  0  0  0  0  0  0  0  0
    5.8583   -2.6591    4.8681 H   0  0  0  0  0  0  0  0  0  0  0  0
    5.3470    0.7781    3.4066 H   0  0  0  0  0  0  0  0  0  0  0  0
    6.4194   -0.5980    3.4682 H   0  0  0  0  0  0  0  0  0  0  0  0
    6.4759    0.5717    4.7455 H   0  0  0  0  0  0  0  0  0  0  0  0
    3.0195   -0.7204    3.5770 H   0  0  0  0  0  0  0  0  0  0  0  0
    5.4170   -2.6354    0.7402 H   0  0  0  0  0  0  0  0  0  0  0  0
    4.9592   -1.3312   -0.3796 H   0  0  0  0  0  0  0  0  0  0  0  0
    4.2551   -4.1037    3.3257 H   0  0  0  0  0  0  0  0  0  0  0  0
    3.2300   -4.9593    4.3863 H   0  0  0  0  0  0  0  0  0  0  0  0
    4.6700   -4.2198    4.8951 H   0  0  0  0  0  0  0  0  0  0  0  0
    1.7922   -2.3644    2.5407 H   0  0  0  0  0  0  0  0  0  0  0  0
    1.0000   -3.5117    3.6013 H   0  0  0  0  0  0  0  0  0  0  0  0
    2.3311   -3.9478    2.6016 H   0  0  0  0  0  0  0  0  0  0  0  0
    5.1055    1.5186    5.3412 H   0  0  0  0  0  0  0  0  0  0  0  0
    1.9570    2.3132    4.6868 H   0  0  0  0  0  0  0  0  0  0  0  0
    1.9627    1.0070    3.6096 H   0  0  0  0  0  0  0  0  0  0  0  0
   -2.8035   -0.0126    5.1778 H   0  0  0  0  0  0  0  0  0  0  0  0
   -1.7703   -0.2564    3.7871 H   0  0  0  0  0  0  0  0  0  0  0  0
   -2.3629    1.3550    4.1380 H   0  0  0  0  0  0  0  0  0  0  0  0
   -1.6930    2.5402    6.1226 H   0  0  0  0  0  0  0  0  0  0  0  0
   -1.6614    1.7526    8.3935 H   0  0  0  0  0  0  0  0  0  0  0  0
    2.5040    2.1199    6.8827 H   0  0  0  0  0  0  0  0  0  0  0  0
   -0.1632   -0.4750    7.1814 H   0  0  0  0  0  0  0  0  0  0  0  0
   -0.5840   -2.5348    6.1826 H   0  0  0  0  0  0  0  0  0  0  0  0
    0.3577   -0.2566    3.9500 H   0  0  0  0  0  0  0  0  0  0  0  0
  1  2  2  0
  1 50  1  0
  1 51  1  0
  2 22  1  0
  2  3  1  0
  3  4  1  0
  3 52  1  0
  3 53  1  0
  4  5  1  0
  4  7  1  0
  4 54  1  6
  5  6  1  0
  6 55  1  0
  6 56  1  0
  6 57  1  0
  7 31  1  0
  7 48  1  0
  7  8  1  1
  8  9  1  0
  8 58  1  0
  8 59  1  0
  9 10  1  0
 10 45  1  0
 10 11  1  1
 10 12  1  0
 11 60  1  0
 12 13  1  0
 12 17  1  0
 12 61  1  6
 13 14  1  0
 14 15  1  0
 14 16  2  0
 15 62  1  0
 15 63  1  0
 15 64  1  0
 17 34  1  0
 17 18  1  6
 17 19  1  0
 18 65  1  0
 19 20  1  0
 19 21  1  0
 19 22  1  0
 20 66  1  0
 20 67  1  0
 20 68  1  0
 21 69  1  0
 21 70  1  0
 21 71  1  0
 22 23  1  0
 22 72  1  6
 23 24  1  0
 23 73  1  0
 23 74  1  0
 24 25  1  6
 24 26  1  0
 24 34  1  0
 25 75  1  0
 25 76  1  0
 25 77  1  0
 26 27  1  0
 26 31  1  0
 26 78  1  6
 27 28  1  0
 28 29  1  0
 28 30  2  0
 29 79  1  0
 29 80  1  0
 31 32  1  0
 31 33  1  0
 32 81  1  0
 32 82  1  0
 32 83  1  0
 33 84  1  0
 33 85  1  0
 33 86  1  0
 34 35  1  6
 34 36  1  0
 35 87  1  0
 36 45  1  0
 36 48  1  0
 36 37  1  6
 37 38  1  0
 37 88  1  0
 37 89  1  0
 38 39  1  0
 39 40  1  6
 39 41  1  0
 39 46  1  0
 40 90  1  0
 40 91  1  0
 40 92  1  0
 41 42  1  0
 43 41  1  6
 41 93  1  6
 42 94  1  0
 43 44  2  0
 43 45  1  0
 45 95  1  6
 46 47  1  0
 46 48  1  0
 46 96  1  1
 47 97  1  0
 48 49  1  6
 49 98  1  0
M  END
>  <i_m_ct_stereo_status>  (55) 
1

>  <s_m_source_file>  (55) 
/var/tmp/pbs.5075288.sched01/tmpndvtliwj/216foptgilz.sdf

>  <i_m_source_file_index>  (55) 
1

>  <i_lp_mmshare_version>  (55) 
48012

>  <i_f3d_flags>  (55) 
0

>  <s_epik_input>  (55) 
W05IMl1DKD1PKU9bQ0BASF0oQzEoW0NIM10pW0NIM10pW0NAXTIoW0NIM10pW0NIMl1bQ0BASF0oQyg9W0NIMl0pW0NIMl1bQ0BIXTNPW0NIM10pQyhbQ0gzXSkoW0NIM10pW0NAQF0oW09IXSkoW0NAXTIoW09IXSlbQ0BdNDVbQ0BdNihbQ0BdMTM3KVtPSF0pW0NASF0oT0MoPU8pW0NIM10pW0NAXShbT0hdKShPW0NIMl03KVtDSF01W1MrXShbTy1dKVtDQEhdKFtPSF0pW0NAQF0oW0NIM10pKE9bQ0gyXTQpW0NASF02W09IXQ==

>  <s_epik_cmdline>  (55) 
J2VwaWtfcHl0aG9uJywgJy1waHQnLCAnMi4wJywgJy1waCcsICc3LjAnLCAnLXRuJywgJzgnLCAnLW1hJywgJzIwMCcsICctaW1hZScsICc8aW5maWxlLm1hZT4nLCAnLW9tYWUnLCAnPG91dGZpbGUubWFlPic=

>  <r_lp_tautomer_probability>  (55) 
1

>  <r_epik_Ionization_Penalty>  (55) 
5.63845e-06

>  <r_epik_Ionization_Penalty_Charging>  (55) 
0

>  <r_epik_Ionization_Penalty_Neutral>  (55) 
5.63845e-06

>  <r_epik_State_Penalty>  (55) 
-0

>  <r_epik_Charging_Adjusted_Penalty>  (55) 
0

>  <i_epik_Tot_Q>  (55) 
0

>  <i_epik_Tot_abs_Q>  (55) 
2

>  <s_epik_Chemistry_Notes>  (55) 
This compound has an ester and may undergo hydrolysis at high or low pH. This compound contains an acetal/aminal-like group ( X-CH(R)-Y where X, Y are N, S, or O) that may be acid/base labile, releasing an aldehyde.

>  <s_lp_Force_Field>  (55) 
OPLS3e

>  <r_lp_Energy>  (55) 
424.664

>  <b_lp_Chiralities_Consistent>  (55) 
1

>  <s_lp_Variant>  (55) 
71:0-1

>  <s_i_glide_gridfile>  (55) 
pfpi4k_grid

>  <i_i_glide_lignum>  (55) 
1

>  <i_i_glide_rotatable_bonds>  (55) 
11

>  <r_i_docking_score>  (55) 
-2.07285

>  <r_i_glide_ligand_efficiency>  (55) 
-0.0423031

>  <r_i_glide_ligand_efficiency_sa>  (55) 
-0.1548

>  <r_i_glide_ligand_efficiency_ln>  (55) 
-0.423739

>  <r_i_glide_gscore>  (55) 
-2.07285

>  <r_i_glide_lipo>  (55) 
-0.156009

>  <r_i_glide_hbond>  (55) 
0

>  <r_i_glide_metal>  (55) 
-0

>  <r_i_glide_rewards>  (55) 
-0.541175

>  <r_i_glide_evdw>  (55) 
-20.2873

>  <r_i_glide_ecoul>  (55) 
-2.96728

>  <r_i_glide_erotb>  (55) 
0.0839099

>  <r_i_glide_esite>  (55) 
-0.000121766

>  <r_i_glide_emodel>  (55) 
-26.4426

>  <r_i_glide_energy>  (55) 
-23.2546

>  <r_i_glide_einternal>  (55) 
6.98894

>  <r_i_glide_intrahb_reward>  (55) 
-0.5

>  <i_i_glide_confnum>  (55) 
1

>  <i_i_glide_posenum>  (55) 
13

>  <r_i_glide_eff_state_penalty>  (55) 
0

>  <ligand_id>  (55) 
71

>  <original_smiles>  (55) 
C=C1CC(OC)C23COC4(O)C(OC(C)=O)C5(O)C(C)(C)C1CC(C)(C(OC(N)=O)C2(C)C)C5(O)C12COC(C)(C(O)[S+]([O-])C41)C(O)C32O

>  <smiles>  (55) 
[H]OC1([H])S(=O)C2([H])C3(O[H])OC([H])([H])C45C([H])(OC([H])([H])[H])C([H])([H])C(=C([H])[H])C6([H])C([H])([H])C(C([H])([H])[H])(C([H])(OC(=O)N([H])[H])C4(C([H])([H])[H])C([H])([H])[H])C(O[H])(C(O[H])(C3([H])OC(=O)C([H])([H])[H])C6(C([H])([H])[H])C([H])([H])[H])C23C([H])([H])OC1(C([H])([H])[H])C([H])(O[H])C35O[H]

$$$$
71:0:2
     RDKit          3D

 98104  0  0  1  0  0  0  0  0999 V2000
    4.4939   -4.6598    4.5581 C   0  0  0  0  0  0  0  0  0  0  0  0
    3.8497   -3.4778    4.5719 C   0  0  0  0  0  0  0  0  0  0  0  0
    3.8708   -2.6013    3.2059 C   0  0  0  0  0  0  0  0  0  0  0  0
    3.6394   -0.9775    3.0491 C   0  0  1  0  0  0  0  0  0  0  0  0
    3.0120   -0.6680    1.8025 O   0  0  0  0  0  0  0  0  0  0  0  0
    3.7316   -1.0075    0.6204 C   0  0  0  0  0  0  0  0  0  0  0  0
    2.9845   -0.3287    4.3359 C   0  0  1  0  0  0  0  0  0  0  0  0
    1.5904   -1.2290    4.1482 C   0  0  0  0  0  0  0  0  0  0  0  0
    0.1690   -1.0144    4.3775 O   0  0  0  0  0  0  0  0  0  0  0  0
   -0.5761   -0.8892    5.5628 C   0  0  1  0  0  0  0  0  0  0  0  0
   -1.9614   -0.8554    5.2446 O   0  0  0  0  0  0  0  0  0  0  0  0
   -0.3816   -2.0010    6.6382 C   0  0  1  0  0  0  0  0  0  0  0  0
   -1.2318   -3.1194    6.3601 O   0  0  0  0  0  0  0  0  0  0  0  0
   -1.7312   -3.9276    7.3375 C   0  0  0  0  0  0  0  0  0  0  0  0
   -2.8247   -4.8475    6.8647 C   0  0  0  0  0  0  0  0  0  0  0  0
   -1.4757   -3.8902    8.5365 O   0  0  0  0  0  0  0  0  0  0  0  0
    1.0951   -2.1933    7.0333 C   0  0  1  0  0  0  0  0  0  0  0  0
    0.9456   -2.6030    8.3820 O   0  0  0  0  0  0  0  0  0  0  0  0
    1.7645   -3.5111    6.3328 C   0  0  0  0  0  0  0  0  0  0  0  0
    1.9059   -4.7501    7.2793 C   0  0  0  0  0  0  0  0  0  0  0  0
    0.9850   -4.1908    5.1518 C   0  0  0  0  0  0  0  0  0  0  0  0
    3.1796   -3.0882    5.9448 C   0  0  1  0  0  0  0  0  0  0  0  0
    3.9106   -2.5037    7.1686 C   0  0  0  0  0  0  0  0  0  0  0  0
    3.4086   -1.0395    7.5131 C   0  0  1  0  0  0  0  0  0  0  0  0
    3.7288   -0.9594    9.0513 C   0  0  0  0  0  0  0  0  0  0  0  0
    4.2724   -0.0057    6.7720 C   0  0  1  0  0  0  0  0  0  0  0  0
    5.5331    0.2122    7.4629 O   0  0  0  0  0  0  0  0  0  0  0  0
    5.9445    1.3676    8.0565 C   0  0  0  0  0  0  0  0  0  0  0  0
    5.1035    2.4538    7.8887 N   0  0  0  0  0  0  0  0  0  0  0  0
    7.0084    1.4317    8.6878 O   0  0  0  0  0  0  0  0  0  0  0  0
    4.4607   -0.2441    5.2350 C   0  0  0  0  0  0  0  0  0  0  0  0
    5.6949   -1.2292    5.0297 C   0  0  0  0  0  0  0  0  0  0  0  0
    5.3767    0.9498    4.7125 C   0  0  0  0  0  0  0  0  0  0  0  0
    1.8599   -0.7082    7.1762 C   0  0  2  0  0  0  0  0  0  0  0  0
    1.3736   -0.1789    8.4265 O   0  0  0  0  0  0  0  0  0  0  0  0
    1.4066    0.6451    6.2161 C   0  0  2  0  0  0  0  0  0  0  0  0
    1.3998    2.0778    6.8811 C   0  0  0  0  0  0  0  0  0  0  0  0
    1.0364    3.1628    5.9787 O   0  0  0  0  0  0  0  0  0  0  0  0
    0.5619    2.9573    4.6097 C   0  0  2  0  0  0  0  0  0  0  0  0
    0.9970    4.2822    3.9257 C   0  0  0  0  0  0  0  0  0  0  0  0
   -0.9650    2.9188    4.6321 C   0  0  1  0  0  0  0  0  0  0  0  0
   -1.5425    2.6438    3.3602 O   0  0  0  0  0  0  0  0  0  0  0  0
   -1.4715    1.7739    5.9825 S   0  0  0  0  0  0  0  0  0  0  0  0
   -1.6058    2.5555    7.3096 O   0  0  0  0  0  0  0  0  0  0  0  0
   -0.1683    0.4269    6.1785 C   0  0  1  0  0  0  0  0  0  0  0  0
    1.1584    1.6962    3.8691 C   0  0  1  0  0  0  0  0  0  0  0  0
    1.7304    2.0163    2.6184 O   0  0  0  0  0  0  0  0  0  0  0  0
    2.1517    0.9486    4.7877 C   0  0  2  0  0  0  0  0  0  0  0  0
    3.0300    2.0396    4.9058 O   0  0  0  0  0  0  0  0  0  0  0  0
    4.5071   -5.2720    5.4505 H   0  0  0  0  0  0  0  0  0  0  0  0
    5.0004   -5.0335    3.6747 H   0  0  0  0  0  0  0  0  0  0  0  0
    4.8220   -2.8307    2.7105 H   0  0  0  0  0  0  0  0  0  0  0  0
    3.1441   -3.0978    2.5515 H   0  0  0  0  0  0  0  0  0  0  0  0
    4.5905   -0.5267    2.8214 H   0  0  0  0  0  0  0  0  0  0  0  0
    3.1601   -0.6584   -0.2402 H   0  0  0  0  0  0  0  0  0  0  0  0
    3.8544   -2.0874    0.5195 H   0  0  0  0  0  0  0  0  0  0  0  0
    4.7169   -0.5355    0.5783 H   0  0  0  0  0  0  0  0  0  0  0  0
    1.3261   -0.9329    3.1524 H   0  0  0  0  0  0  0  0  0  0  0  0
    1.6999   -2.2659    3.9093 H   0  0  0  0  0  0  0  0  0  0  0  0
   -2.0790   -0.2584    4.5143 H   0  0  0  0  0  0  0  0  0  0  0  0
   -0.8427   -1.5807    7.5370 H   0  0  0  0  0  0  0  0  0  0  0  0
   -2.4957   -5.5575    6.1150 H   0  0  0  0  0  0  0  0  0  0  0  0
   -3.6476   -4.2773    6.4454 H   0  0  0  0  0  0  0  0  0  0  0  0
   -3.2593   -5.3664    7.7124 H   0  0  0  0  0  0  0  0  0  0  0  0
    1.8214   -2.7174    8.7553 H   0  0  0  0  0  0  0  0  0  0  0  0
    2.4924   -5.5271    6.7855 H   0  0  0  0  0  0  0  0  0  0  0  0
    0.9362   -5.1839    7.5355 H   0  0  0  0  0  0  0  0  0  0  0  0
    2.3854   -4.5776    8.2390 H   0  0  0  0  0  0  0  0  0  0  0  0
    1.6422   -4.7292    4.4667 H   0  0  0  0  0  0  0  0  0  0  0  0
    0.3505   -3.5387    4.5590 H   0  0  0  0  0  0  0  0  0  0  0  0
    0.2817   -4.9478    5.5061 H   0  0  0  0  0  0  0  0  0  0  0  0
    3.0047   -2.1675    5.5935 H   0  0  0  0  0  0  0  0  0  0  0  0
    3.7805   -3.1383    8.0501 H   0  0  0  0  0  0  0  0  0  0  0  0
    4.9865   -2.5370    7.0849 H   0  0  0  0  0  0  0  0  0  0  0  0
    3.6224    0.0535    9.4624 H   0  0  0  0  0  0  0  0  0  0  0  0
    4.7492   -1.2977    9.2766 H   0  0  0  0  0  0  0  0  0  0  0  0
    3.0708   -1.6148    9.6245 H   0  0  0  0  0  0  0  0  0  0  0  0
    3.6798    0.8813    6.8484 H   0  0  0  0  0  0  0  0  0  0  0  0
    4.3242    2.3481    7.2489 H   0  0  0  0  0  0  0  0  0  0  0  0
    5.3930    3.3538    8.2555 H   0  0  0  0  0  0  0  0  0  0  0  0
    6.5141   -0.9443    5.6838 H   0  0  0  0  0  0  0  0  0  0  0  0
    6.0915   -1.1590    4.0109 H   0  0  0  0  0  0  0  0  0  0  0  0
    5.6830   -2.2791    5.2486 H   0  0  0  0  0  0  0  0  0  0  0  0
    5.3000    1.8375    5.3158 H   0  0  0  0  0  0  0  0  0  0  0  0
    5.1073    1.2435    3.7098 H   0  0  0  0  0  0  0  0  0  0  0  0
    6.4629    0.8393    4.6978 H   0  0  0  0  0  0  0  0  0  0  0  0
    1.8809    0.6010    8.6508 H   0  0  0  0  0  0  0  0  0  0  0  0
    0.7455    2.1450    7.7440 H   0  0  0  0  0  0  0  0  0  0  0  0
    2.3640    2.3305    7.2965 H   0  0  0  0  0  0  0  0  0  0  0  0
    0.6282    4.3683    2.8933 H   0  0  0  0  0  0  0  0  0  0  0  0
    2.0931    4.3758    3.8838 H   0  0  0  0  0  0  0  0  0  0  0  0
    0.6275    5.1578    4.4768 H   0  0  0  0  0  0  0  0  0  0  0  0
   -1.3707    3.8939    4.9167 H   0  0  0  0  0  0  0  0  0  0  0  0
   -2.1028    1.8868    3.4356 H   0  0  0  0  0  0  0  0  0  0  0  0
   -0.4858    0.3143    7.2043 H   0  0  0  0  0  0  0  0  0  0  0  0
    0.3229    1.0771    3.5898 H   0  0  0  0  0  0  0  0  0  0  0  0
    1.0577    2.4435    2.0810 H   0  0  0  0  0  0  0  0  0  0  0  0
    2.5053    2.8309    5.0255 H   0  0  0  0  0  0  0  0  0  0  0  0
  1  2  2  0
  1 50  1  0
  1 51  1  0
  2 22  1  0
  2  3  1  0
  3  4  1  0
  3 52  1  0
  3 53  1  0
  4  5  1  0
  4  7  1  0
  4 54  1  6
  5  6  1  0
  6 55  1  0
  6 56  1  0
  6 57  1  0
  7 31  1  0
  7 48  1  0
  7  8  1  1
  8  9  1  0
  8 58  1  0
  8 59  1  0
  9 10  1  0
 10 45  1  0
 10 11  1  6
 10 12  1  0
 11 60  1  0
 12 13  1  0
 12 17  1  0
 12 61  1  1
 13 14  1  0
 14 15  1  0
 14 16  2  0
 15 62  1  0
 15 63  1  0
 15 64  1  0
 17 34  1  0
 17 18  1  1
 17 19  1  0
 18 65  1  0
 19 20  1  0
 19 21  1  0
 19 22  1  0
 20 66  1  0
 20 67  1  0
 20 68  1  0
 21 69  1  0
 21 70  1  0
 21 71  1  0
 22 23  1  0
 22 72  1  6
 23 24  1  0
 23 73  1  0
 23 74  1  0
 24 25  1  1
 24 26  1  0
 24 34  1  0
 25 75  1  0
 25 76  1  0
 25 77  1  0
 26 27  1  0
 26 31  1  0
 26 78  1  6
 27 28  1  0
 28 29  1  0
 28 30  2  0
 29 79  1  0
 29 80  1  0
 31 32  1  0
 31 33  1  0
 32 81  1  0
 32 82  1  0
 32 83  1  0
 33 84  1  0
 33 85  1  0
 33 86  1  0
 34 35  1  1
 34 36  1  0
 35 87  1  0
 36 45  1  0
 36 48  1  0
 36 37  1  1
 37 38  1  0
 37 88  1  0
 37 89  1  0
 38 39  1  0
 39 40  1  6
 39 41  1  0
 39 46  1  0
 40 90  1  0
 40 91  1  0
 40 92  1  0
 41 42  1  0
 43 41  1  6
 41 93  1  1
 42 94  1  0
 43 44  2  0
 43 45  1  0
 45 95  1  1
 46 47  1  0
 46 48  1  0
 46 96  1  6
 47 97  1  0
 48 49  1  1
 49 98  1  0
M  END
>  <i_m_ct_stereo_status>  (56) 
1

>  <s_m_source_file>  (56) 
/var/tmp/pbs.5075288.sched01/tmpndvtliwj/216foptgilz.sdf

>  <i_m_source_file_index>  (56) 
1

>  <i_lp_mmshare_version>  (56) 
48012

>  <i_f3d_flags>  (56) 
0

>  <s_epik_input>  (56) 
W05IMl1DKD1PKU9bQ0BASF0oQzEoW0NIM10pW0NIM10pW0NAXTIoW0NIM10pW0NIMl1bQ0BASF0oQyg9W0NIMl0pW0NIMl1bQ0BIXTNPW0NIM10pQyhbQ0gzXSkoW0NIM10pW0NAQF0oW09IXSkoW0NAXTIoW09IXSlbQ0BdNDVbQ0BdNihbQ0BdMTM3KVtPSF0pW0NASF0oT0MoPU8pW0NIM10pW0NAXShbT0hdKShPW0NIMl03KVtDSF01W1MrXShbTy1dKVtDQEhdKFtPSF0pW0NAQF0oW0NIM10pKE9bQ0gyXTQpW0NASF02W09IXQ==

>  <s_epik_cmdline>  (56) 
J2VwaWtfcHl0aG9uJywgJy1waHQnLCAnMi4wJywgJy1waCcsICc3LjAnLCAnLXRuJywgJzgnLCAnLW1hJywgJzIwMCcsICctaW1hZScsICc8aW5maWxlLm1hZT4nLCAnLW9tYWUnLCAnPG91dGZpbGUubWFlPic=

>  <r_lp_tautomer_probability>  (56) 
1

>  <r_epik_Ionization_Penalty>  (56) 
5.63845e-06

>  <r_epik_Ionization_Penalty_Charging>  (56) 
0

>  <r_epik_Ionization_Penalty_Neutral>  (56) 
5.63845e-06

>  <r_epik_State_Penalty>  (56) 
-0

>  <r_epik_Charging_Adjusted_Penalty>  (56) 
0

>  <i_epik_Tot_Q>  (56) 
0

>  <i_epik_Tot_abs_Q>  (56) 
2

>  <s_epik_Chemistry_Notes>  (56) 
This compound has an ester and may undergo hydrolysis at high or low pH. This compound contains an acetal/aminal-like group ( X-CH(R)-Y where X, Y are N, S, or O) that may be acid/base labile, releasing an aldehyde.

>  <s_lp_Force_Field>  (56) 
OPLS3e

>  <r_lp_Energy>  (56) 
424.664

>  <b_lp_Chiralities_Consistent>  (56) 
1

>  <s_lp_Variant>  (56) 
71:0-1

>  <s_i_glide_gridfile>  (56) 
pfpi4k_grid

>  <i_i_glide_lignum>  (56) 
1

>  <i_i_glide_rotatable_bonds>  (56) 
11

>  <r_i_docking_score>  (56) 
-1.98073

>  <r_i_glide_ligand_efficiency>  (56) 
-0.0404231

>  <r_i_glide_ligand_efficiency_sa>  (56) 
-0.14792

>  <r_i_glide_ligand_efficiency_ln>  (56) 
-0.404907

>  <r_i_glide_gscore>  (56) 
-1.98073

>  <r_i_glide_lipo>  (56) 
-0.119704

>  <r_i_glide_hbond>  (56) 
-0.0604647

>  <r_i_glide_metal>  (56) 
-0

>  <r_i_glide_rewards>  (56) 
0

>  <r_i_glide_evdw>  (56) 
-21.3677

>  <r_i_glide_ecoul>  (56) 
-5.02466

>  <r_i_glide_erotb>  (56) 
0.0839099

>  <r_i_glide_esite>  (56) 
-0.0623894

>  <r_i_glide_emodel>  (56) 
-25.735

>  <r_i_glide_energy>  (56) 
-26.3923

>  <r_i_glide_einternal>  (56) 
5.03771

>  <r_i_glide_intrahb_reward>  (56) 
-0

>  <i_i_glide_confnum>  (56) 
4

>  <i_i_glide_posenum>  (56) 
12

>  <r_i_glide_eff_state_penalty>  (56) 
0

>  <ligand_id>  (56) 
71

>  <original_smiles>  (56) 
C=C1CC(OC)C23COC4(O)C(OC(C)=O)C5(O)C(C)(C)C1CC(C)(C(OC(N)=O)C2(C)C)C5(O)C12COC(C)(C(O)[S+]([O-])C41)C(O)C32O

>  <smiles>  (56) 
[H]OC1([H])S(=O)C2([H])C3(O[H])OC([H])([H])C45C([H])(OC([H])([H])[H])C([H])([H])C(=C([H])[H])C6([H])C([H])([H])C(C([H])([H])[H])(C([H])(OC(=O)N([H])[H])C4(C([H])([H])[H])C([H])([H])[H])C(O[H])(C(O[H])(C3([H])OC(=O)C([H])([H])[H])C6(C([H])([H])[H])C([H])([H])[H])C23C([H])([H])OC1(C([H])([H])[H])C([H])(O[H])C35O[H]

$$$$
72:0:0
     RDKit          3D

 34 35  0  0  1  0  0  0  0  0999 V2000
    2.2160    7.3546    6.7979 C   0  0  0  0  0  0  0  0  0  0  0  0
    1.2514    6.3958    6.0886 C   0  0  0  0  0  0  0  0  0  0  0  0
    0.0877    6.4492    6.4971 O   0  0  0  0  0  0  0  0  0  0  0  0
    1.6268    5.5637    5.0703 N   0  0  0  0  0  0  0  0  0  0  0  0
    2.9671    5.5423    4.4045 C   0  0  0  0  0  0  0  0  0  0  0  0
    3.4109    6.9421    3.9049 C   0  0  0  0  0  0  0  0  0  0  0  0
    4.0447    4.8961    5.3239 C   0  0  0  0  0  0  0  0  0  0  0  0
    2.8557    4.6843    3.1202 C   0  0  0  0  0  0  0  0  0  0  0  0
    1.6127    3.3739    3.4511 S   0  0  0  0  0  0  0  0  0  0  0  0
    2.2381    2.3873    4.4422 O   0  0  0  0  0  0  0  0  0  0  0  0
    0.6585    4.5925    4.4590 C   0  0  1  0  0  0  0  0  0  0  0  0
   -0.1432    3.8130    5.4869 C   0  0  0  0  0  0  0  0  0  0  0  0
   -1.4279    3.4861    5.2775 C   0  0  0  0  0  0  0  0  0  0  0  0
   -2.0952    3.8116    4.0340 C   0  0  0  0  0  0  0  0  0  0  0  0
   -3.3170    3.3287    3.7614 C   0  0  0  0  0  0  0  0  0  0  0  0
   -4.2494    3.7500    2.0773 Br  0  0  0  0  0  0  0  0  0  0  0  0
   -1.5032    4.6373    3.1098 O   0  0  0  0  0  0  0  0  0  0  0  0
   -0.3086    5.3359    3.4927 C   0  0  0  0  0  0  0  0  0  0  0  0
    3.2200    6.9931    6.9277 H   0  0  0  0  0  0  0  0  0  0  0  0
    1.8668    7.5735    7.8043 H   0  0  0  0  0  0  0  0  0  0  0  0
    2.2632    8.3044    6.2770 H   0  0  0  0  0  0  0  0  0  0  0  0
    4.2833    6.8743    3.2525 H   0  0  0  0  0  0  0  0  0  0  0  0
    3.6975    7.6260    4.6966 H   0  0  0  0  0  0  0  0  0  0  0  0
    2.6191    7.4252    3.3269 H   0  0  0  0  0  0  0  0  0  0  0  0
    4.9953    4.7816    4.8159 H   0  0  0  0  0  0  0  0  0  0  0  0
    3.7405    3.9066    5.6528 H   0  0  0  0  0  0  0  0  0  0  0  0
    4.3036    5.4456    6.2191 H   0  0  0  0  0  0  0  0  0  0  0  0
    2.4887    5.2495    2.2623 H   0  0  0  0  0  0  0  0  0  0  0  0
    3.7855    4.2228    2.8018 H   0  0  0  0  0  0  0  0  0  0  0  0
    0.3374    3.5468    6.4161 H   0  0  0  0  0  0  0  0  0  0  0  0
   -1.9688    2.9659    6.0510 H   0  0  0  0  0  0  0  0  0  0  0  0
   -3.8896    2.7240    4.4365 H   0  0  0  0  0  0  0  0  0  0  0  0
   -0.6484    6.2290    3.9951 H   0  0  0  0  0  0  0  0  0  0  0  0
    0.2018    5.7147    2.5987 H   0  0  0  0  0  0  0  0  0  0  0  0
  1  2  1  0
  1 19  1  0
  1 20  1  0
  1 21  1  0
  2  3  2  0
  2  4  1  0
 11  4  1  1
  4  5  1  0
  5  6  1  0
  5  7  1  0
  5  8  1  0
  6 22  1  0
  6 23  1  0
  6 24  1  0
  7 25  1  0
  7 26  1  0
  7 27  1  0
  9  8  1  1
  8 28  1  0
  8 29  1  0
  9 10  2  0
  9 11  1  0
 11 18  1  0
 11 12  1  0
 12 13  2  0
 12 30  1  0
 13 14  1  0
 13 31  1  0
 14 15  2  3
 14 17  1  0
 15 16  1  0
 15 32  1  0
 17 18  1  0
 18 33  1  0
 18 34  1  0
M  END
>  <i_m_ct_stereo_status>  (57) 
1

>  <s_m_source_file>  (57) 
/var/tmp/pbs.5075288.sched01/tmpndvtliwj/216foptgilz.sdf

>  <i_m_source_file_index>  (57) 
2

>  <i_lp_mmshare_version>  (57) 
48012

>  <i_f3d_flags>  (57) 
0

>  <s_epik_input>  (57) 
W08tXVtTK10xW0NIMl1DKFtDSDNdKShbQ0gzXSlOKEMoPU8pW0NIM10pW0NAXTEyW0NIXT1bQ0hdL0MoPVtDSF0vQnIpT1tDSDJdMg==

>  <s_epik_cmdline>  (57) 
J2VwaWtfcHl0aG9uJywgJy1waHQnLCAnMi4wJywgJy1waCcsICc3LjAnLCAnLXRuJywgJzgnLCAnLW1hJywgJzIwMCcsICctaW1hZScsICc8aW5maWxlLm1hZT4nLCAnLW9tYWUnLCAnPG91dGZpbGUubWFlPic=

>  <r_lp_tautomer_probability>  (57) 
1

>  <r_epik_Ionization_Penalty>  (57) 
4.81774e-07

>  <r_epik_Ionization_Penalty_Charging>  (57) 
0

>  <r_epik_Ionization_Penalty_Neutral>  (57) 
4.81774e-07

>  <r_epik_State_Penalty>  (57) 
-0

>  <r_epik_Charging_Adjusted_Penalty>  (57) 
0

>  <i_epik_Tot_Q>  (57) 
0

>  <i_epik_Tot_abs_Q>  (57) 
2

>  <s_lp_Force_Field>  (57) 
OPLS3e

>  <r_lp_Energy>  (57) 
14.6709

>  <b_lp_Chiralities_Consistent>  (57) 
1

>  <s_lp_Variant>  (57) 
72:0-1

>  <s_i_glide_gridfile>  (57) 
pfpi4k_grid

>  <i_i_glide_lignum>  (57) 
2

>  <i_i_glide_rotatable_bonds>  (57) 
1

>  <r_i_docking_score>  (57) 
-2.92674

>  <r_i_glide_ligand_efficiency>  (57) 
-0.162597

>  <r_i_glide_ligand_efficiency_sa>  (57) 
-0.426124

>  <r_i_glide_ligand_efficiency_ln>  (57) 
-0.752303

>  <r_i_glide_gscore>  (57) 
-2.92674

>  <r_i_glide_lipo>  (57) 
-0.324235

>  <r_i_glide_hbond>  (57) 
-0.138657

>  <r_i_glide_metal>  (57) 
-0

>  <r_i_glide_rewards>  (57) 
-1.13025

>  <r_i_glide_evdw>  (57) 
-18.8865

>  <r_i_glide_ecoul>  (57) 
-2.14079

>  <r_i_glide_erotb>  (57) 
0

>  <r_i_glide_esite>  (57) 
-0.068157

>  <r_i_glide_emodel>  (57) 
-24.72

>  <r_i_glide_energy>  (57) 
-21.0273

>  <r_i_glide_einternal>  (57) 
0.0120888

>  <r_i_glide_intrahb_reward>  (57) 
-0

>  <i_i_glide_confnum>  (57) 
1

>  <i_i_glide_posenum>  (57) 
31

>  <r_i_glide_eff_state_penalty>  (57) 
0

>  <ligand_id>  (57) 
72

>  <original_smiles>  (57) 
CC(=O)N1C(C)(C)C[S+]([O-])C12C=CC(=CBr)OC2

>  <smiles>  (57) 
[H]C(Br)=C1OC([H])([H])C2(C([H])=C1[H])N(C(=O)C([H])([H])[H])C(C([H])([H])[H])(C([H])([H])[H])C([H])([H])S2=O

$$$$
72:0:1
     RDKit          3D

 34 35  0  0  1  0  0  0  0  0999 V2000
    8.0672   -2.8238   -0.0726 C   0  0  0  0  0  0  0  0  0  0  0  0
    6.8559   -3.7271    0.2354 C   0  0  0  0  0  0  0  0  0  0  0  0
    7.1431   -4.8830    0.5359 O   0  0  0  0  0  0  0  0  0  0  0  0
    5.5648   -3.2796    0.1798 N   0  0  0  0  0  0  0  0  0  0  0  0
    5.1335   -1.8611   -0.0502 C   0  0  0  0  0  0  0  0  0  0  0  0
    5.8079   -0.8670    0.9338 C   0  0  0  0  0  0  0  0  0  0  0  0
    5.3644   -1.4406   -1.5295 C   0  0  0  0  0  0  0  0  0  0  0  0
    3.6172   -1.7446    0.2384 C   0  0  0  0  0  0  0  0  0  0  0  0
    2.8829   -3.3659   -0.2046 S   0  0  0  0  0  0  0  0  0  0  0  0
    2.8794   -3.4541   -1.7336 O   0  0  0  0  0  0  0  0  0  0  0  0
    4.4117   -4.2075    0.4016 C   0  0  1  0  0  0  0  0  0  0  0  0
    4.5491   -5.5098   -0.3547 C   0  0  0  0  0  0  0  0  0  0  0  0
    4.1204   -6.6726    0.1590 C   0  0  0  0  0  0  0  0  0  0  0  0
    3.4385   -6.7285    1.4357 C   0  0  0  0  0  0  0  0  0  0  0  0
    2.8723   -7.8746    1.8664 C   0  0  0  0  0  0  0  0  0  0  0  0
    1.9413   -7.9182    3.6091 Br  0  0  0  0  0  0  0  0  0  0  0  0
    3.3438   -5.6055    2.2208 O   0  0  0  0  0  0  0  0  0  0  0  0
    4.2185   -4.5100    1.9159 C   0  0  0  0  0  0  0  0  0  0  0  0
    7.9102   -2.1157   -0.8604 H   0  0  0  0  0  0  0  0  0  0  0  0
    8.9123   -3.4485   -0.3754 H   0  0  0  0  0  0  0  0  0  0  0  0
    8.3853   -2.3144    0.8370 H   0  0  0  0  0  0  0  0  0  0  0  0
    5.3427    0.1171    0.8773 H   0  0  0  0  0  0  0  0  0  0  0  0
    6.8635   -0.7063    0.7393 H   0  0  0  0  0  0  0  0  0  0  0  0
    5.7094   -1.2078    1.9634 H   0  0  0  0  0  0  0  0  0  0  0  0
    4.9440   -0.4452   -1.7105 H   0  0  0  0  0  0  0  0  0  0  0  0
    4.8558   -2.1159   -2.2178 H   0  0  0  0  0  0  0  0  0  0  0  0
    6.3962   -1.4294   -1.8304 H   0  0  0  0  0  0  0  0  0  0  0  0
    3.4080   -1.5911    1.2952 H   0  0  0  0  0  0  0  0  0  0  0  0
    3.1202   -0.9403   -0.3007 H   0  0  0  0  0  0  0  0  0  0  0  0
    5.0139   -5.4970   -1.3288 H   0  0  0  0  0  0  0  0  0  0  0  0
    4.2587   -7.5836   -0.4035 H   0  0  0  0  0  0  0  0  0  0  0  0
    2.8818   -8.8149    1.3339 H   0  0  0  0  0  0  0  0  0  0  0  0
    5.1730   -4.7735    2.3578 H   0  0  0  0  0  0  0  0  0  0  0  0
    3.8744   -3.6195    2.4530 H   0  0  0  0  0  0  0  0  0  0  0  0
  1  2  1  0
  1 19  1  0
  1 20  1  0
  1 21  1  0
  2  3  2  0
  2  4  1  0
 11  4  1  1
  4  5  1  0
  5  6  1  0
  5  7  1  0
  5  8  1  0
  6 22  1  0
  6 23  1  0
  6 24  1  0
  7 25  1  0
  7 26  1  0
  7 27  1  0
  9  8  1  6
  8 28  1  0
  8 29  1  0
  9 10  2  0
  9 11  1  0
 11 18  1  0
 11 12  1  0
 12 13  2  0
 12 30  1  0
 13 14  1  0
 13 31  1  0
 14 15  2  3
 14 17  1  0
 15 16  1  0
 15 32  1  0
 17 18  1  0
 18 33  1  0
 18 34  1  0
M  END
>  <i_m_ct_stereo_status>  (58) 
1

>  <s_m_source_file>  (58) 
/var/tmp/pbs.5075288.sched01/tmpndvtliwj/216foptgilz.sdf

>  <i_m_source_file_index>  (58) 
2

>  <i_lp_mmshare_version>  (58) 
48012

>  <i_f3d_flags>  (58) 
0

>  <s_epik_input>  (58) 
W08tXVtTK10xW0NIMl1DKFtDSDNdKShbQ0gzXSlOKEMoPU8pW0NIM10pW0NAXTEyW0NIXT1bQ0hdL0MoPVtDSF0vQnIpT1tDSDJdMg==

>  <s_epik_cmdline>  (58) 
J2VwaWtfcHl0aG9uJywgJy1waHQnLCAnMi4wJywgJy1waCcsICc3LjAnLCAnLXRuJywgJzgnLCAnLW1hJywgJzIwMCcsICctaW1hZScsICc8aW5maWxlLm1hZT4nLCAnLW9tYWUnLCAnPG91dGZpbGUubWFlPic=

>  <r_lp_tautomer_probability>  (58) 
1

>  <r_epik_Ionization_Penalty>  (58) 
4.81774e-07

>  <r_epik_Ionization_Penalty_Charging>  (58) 
0

>  <r_epik_Ionization_Penalty_Neutral>  (58) 
4.81774e-07

>  <r_epik_State_Penalty>  (58) 
-0

>  <r_epik_Charging_Adjusted_Penalty>  (58) 
0

>  <i_epik_Tot_Q>  (58) 
0

>  <i_epik_Tot_abs_Q>  (58) 
2

>  <s_lp_Force_Field>  (58) 
OPLS3e

>  <r_lp_Energy>  (58) 
14.6709

>  <b_lp_Chiralities_Consistent>  (58) 
1

>  <s_lp_Variant>  (58) 
72:0-1

>  <s_i_glide_gridfile>  (58) 
pfpi4k_grid

>  <i_i_glide_lignum>  (58) 
2

>  <i_i_glide_rotatable_bonds>  (58) 
1

>  <r_i_docking_score>  (58) 
-2.74488

>  <r_i_glide_ligand_efficiency>  (58) 
-0.152494

>  <r_i_glide_ligand_efficiency_sa>  (58) 
-0.399646

>  <r_i_glide_ligand_efficiency_ln>  (58) 
-0.705558

>  <r_i_glide_gscore>  (58) 
-2.74488

>  <r_i_glide_lipo>  (58) 
-0.456217

>  <r_i_glide_hbond>  (58) 
0

>  <r_i_glide_metal>  (58) 
-0

>  <r_i_glide_rewards>  (58) 
-1.36547

>  <r_i_glide_evdw>  (58) 
-23.614

>  <r_i_glide_ecoul>  (58) 
1.76547

>  <r_i_glide_erotb>  (58) 
0

>  <r_i_glide_esite>  (58) 
-0.00731488

>  <r_i_glide_emodel>  (58) 
-25.3027

>  <r_i_glide_energy>  (58) 
-21.8485

>  <r_i_glide_einternal>  (58) 
0.0140308

>  <r_i_glide_intrahb_reward>  (58) 
-0

>  <i_i_glide_confnum>  (58) 
3

>  <i_i_glide_posenum>  (58) 
16

>  <r_i_glide_eff_state_penalty>  (58) 
0

>  <ligand_id>  (58) 
72

>  <original_smiles>  (58) 
CC(=O)N1C(C)(C)C[S+]([O-])C12C=CC(=CBr)OC2

>  <smiles>  (58) 
[H]C(Br)=C1OC([H])([H])C2(C([H])=C1[H])N(C(=O)C([H])([H])[H])C(C([H])([H])[H])(C([H])([H])[H])C([H])([H])S2=O

$$$$
72:0:2
     RDKit          3D

 34 35  0  0  1  0  0  0  0  0999 V2000
    6.3735   -4.8540    1.6529 C   0  0  0  0  0  0  0  0  0  0  0  0
    6.2672   -3.5048    0.9168 C   0  0  0  0  0  0  0  0  0  0  0  0
    7.2948   -2.8281    0.8736 O   0  0  0  0  0  0  0  0  0  0  0  0
    5.0919   -3.0767    0.3548 N   0  0  0  0  0  0  0  0  0  0  0  0
    4.9203   -1.6983   -0.2086 C   0  0  0  0  0  0  0  0  0  0  0  0
    5.2509   -0.6073    0.8355 C   0  0  0  0  0  0  0  0  0  0  0  0
    5.7978   -1.5066   -1.4632 C   0  0  0  0  0  0  0  0  0  0  0  0
    3.4521   -1.4890   -0.6048 C   0  0  0  0  0  0  0  0  0  0  0  0
    2.8364   -3.1323   -1.1341 S   0  0  0  0  0  0  0  0  0  0  0  0
    3.4752   -3.4182   -2.4960 O   0  0  0  0  0  0  0  0  0  0  0  0
    3.8874   -3.9204    0.1661 C   0  0  1  0  0  0  0  0  0  0  0  0
    4.2239   -5.3122   -0.3183 C   0  0  0  0  0  0  0  0  0  0  0  0
    3.5620   -6.3769    0.1400 C   0  0  0  0  0  0  0  0  0  0  0  0
    2.4204   -6.2421    1.0148 C   0  0  0  0  0  0  0  0  0  0  0  0
    1.6498   -7.3103    1.3106 C   0  0  0  0  0  0  0  0  0  0  0  0
    0.0833   -7.0621    2.5041 Br  0  0  0  0  0  0  0  0  0  0  0  0
    2.0697   -5.0255    1.5526 O   0  0  0  0  0  0  0  0  0  0  0  0
    3.0435   -3.9739    1.4850 C   0  0  0  0  0  0  0  0  0  0  0  0
    5.4929   -5.1328    2.2177 H   0  0  0  0  0  0  0  0  0  0  0  0
    7.2048   -4.8309    2.3608 H   0  0  0  0  0  0  0  0  0  0  0  0
    6.5926   -5.6529    0.9413 H   0  0  0  0  0  0  0  0  0  0  0  0
    4.9591    0.3814    0.4781 H   0  0  0  0  0  0  0  0  0  0  0  0
    6.3105   -0.5507    1.0644 H   0  0  0  0  0  0  0  0  0  0  0  0
    4.7161   -0.7734    1.7704 H   0  0  0  0  0  0  0  0  0  0  0  0
    5.6177   -0.5266   -1.9118 H   0  0  0  0  0  0  0  0  0  0  0  0
    5.6033   -2.2519   -2.2311 H   0  0  0  0  0  0  0  0  0  0  0  0
    6.8536   -1.5702   -1.2131 H   0  0  0  0  0  0  0  0  0  0  0  0
    2.8522   -1.1759    0.2508 H   0  0  0  0  0  0  0  0  0  0  0  0
    3.2951   -0.7497   -1.3918 H   0  0  0  0  0  0  0  0  0  0  0  0
    5.0256   -5.4441   -1.0242 H   0  0  0  0  0  0  0  0  0  0  0  0
    3.8828   -7.3501   -0.1880 H   0  0  0  0  0  0  0  0  0  0  0  0
    1.7928   -8.3201    0.9535 H   0  0  0  0  0  0  0  0  0  0  0  0
    3.6800   -4.1331    2.3498 H   0  0  0  0  0  0  0  0  0  0  0  0
    2.5629   -3.0035    1.6767 H   0  0  0  0  0  0  0  0  0  0  0  0
  1  2  1  0
  1 19  1  0
  1 20  1  0
  1 21  1  0
  2  3  2  0
  2  4  1  0
 11  4  1  1
  4  5  1  0
  5  6  1  0
  5  7  1  0
  5  8  1  0
  6 22  1  0
  6 23  1  0
  6 24  1  0
  7 25  1  0
  7 26  1  0
  7 27  1  0
  9  8  1  1
  8 28  1  0
  8 29  1  0
  9 10  2  0
  9 11  1  0
 11 18  1  0
 11 12  1  0
 12 13  2  0
 12 30  1  0
 13 14  1  0
 13 31  1  0
 14 15  2  3
 14 17  1  0
 15 16  1  0
 15 32  1  0
 17 18  1  0
 18 33  1  0
 18 34  1  0
M  END
>  <i_m_ct_stereo_status>  (59) 
1

>  <s_m_source_file>  (59) 
/var/tmp/pbs.5075288.sched01/tmpndvtliwj/216foptgilz.sdf

>  <i_m_source_file_index>  (59) 
2

>  <i_lp_mmshare_version>  (59) 
48012

>  <i_f3d_flags>  (59) 
0

>  <s_epik_input>  (59) 
W08tXVtTK10xW0NIMl1DKFtDSDNdKShbQ0gzXSlOKEMoPU8pW0NIM10pW0NAXTEyW0NIXT1bQ0hdL0MoPVtDSF0vQnIpT1tDSDJdMg==

>  <s_epik_cmdline>  (59) 
J2VwaWtfcHl0aG9uJywgJy1waHQnLCAnMi4wJywgJy1waCcsICc3LjAnLCAnLXRuJywgJzgnLCAnLW1hJywgJzIwMCcsICctaW1hZScsICc8aW5maWxlLm1hZT4nLCAnLW9tYWUnLCAnPG91dGZpbGUubWFlPic=

>  <r_lp_tautomer_probability>  (59) 
1

>  <r_epik_Ionization_Penalty>  (59) 
4.81774e-07

>  <r_epik_Ionization_Penalty_Charging>  (59) 
0

>  <r_epik_Ionization_Penalty_Neutral>  (59) 
4.81774e-07

>  <r_epik_State_Penalty>  (59) 
-0

>  <r_epik_Charging_Adjusted_Penalty>  (59) 
0

>  <i_epik_Tot_Q>  (59) 
0

>  <i_epik_Tot_abs_Q>  (59) 
2

>  <s_lp_Force_Field>  (59) 
OPLS3e

>  <r_lp_Energy>  (59) 
14.6709

>  <b_lp_Chiralities_Consistent>  (59) 
1

>  <s_lp_Variant>  (59) 
72:0-1

>  <s_i_glide_gridfile>  (59) 
pfpi4k_grid

>  <i_i_glide_lignum>  (59) 
2

>  <i_i_glide_rotatable_bonds>  (59) 
1

>  <r_i_docking_score>  (59) 
-2.64083

>  <r_i_glide_ligand_efficiency>  (59) 
-0.146713

>  <r_i_glide_ligand_efficiency_sa>  (59) 
-0.384496

>  <r_i_glide_ligand_efficiency_ln>  (59) 
-0.678811

>  <r_i_glide_gscore>  (59) 
-2.64083

>  <r_i_glide_lipo>  (59) 
-0.227798

>  <r_i_glide_hbond>  (59) 
-0.0172427

>  <r_i_glide_metal>  (59) 
-0

>  <r_i_glide_rewards>  (59) 
-1.28712

>  <r_i_glide_evdw>  (59) 
-20.1508

>  <r_i_glide_ecoul>  (59) 
-0.663339

>  <r_i_glide_erotb>  (59) 
0

>  <r_i_glide_esite>  (59) 
-0.00162567

>  <r_i_glide_emodel>  (59) 
-24.1683

>  <r_i_glide_energy>  (59) 
-20.8141

>  <r_i_glide_einternal>  (59) 
0.336696

>  <r_i_glide_intrahb_reward>  (59) 
-0

>  <i_i_glide_confnum>  (59) 
1

>  <i_i_glide_posenum>  (59) 
1

>  <r_i_glide_eff_state_penalty>  (59) 
0

>  <ligand_id>  (59) 
72

>  <original_smiles>  (59) 
CC(=O)N1C(C)(C)C[S+]([O-])C12C=CC(=CBr)OC2

>  <smiles>  (59) 
[H]C(Br)=C1OC([H])([H])C2(C([H])=C1[H])N(C(=O)C([H])([H])[H])C(C([H])([H])[H])(C([H])([H])[H])C([H])([H])S2=O

$$$$
72:1:0
     RDKit          3D

 34 35  0  0  1  0  0  0  0  0999 V2000
    8.1802   -3.7144   -0.2469 C   0  0  0  0  0  0  0  0  0  0  0  0
    6.9392   -3.0728   -0.9018 C   0  0  0  0  0  0  0  0  0  0  0  0
    7.1459   -2.5499   -1.9825 O   0  0  0  0  0  0  0  0  0  0  0  0
    5.6732   -3.0493   -0.3507 N   0  0  0  0  0  0  0  0  0  0  0  0
    5.2260   -3.7363    0.8989 C   0  0  0  0  0  0  0  0  0  0  0  0
    5.5700   -5.2451    0.8994 C   0  0  0  0  0  0  0  0  0  0  0  0
    5.7690   -3.0108    2.1395 C   0  0  0  0  0  0  0  0  0  0  0  0
    3.6957   -3.6591    1.0306 C   0  0  0  0  0  0  0  0  0  0  0  0
    3.2345   -2.0815    0.2254 S   0  0  0  0  0  0  0  0  0  0  0  0
    3.6868   -0.9485    1.1435 O   0  0  0  0  0  0  0  0  0  0  0  0
    4.5709   -2.2903   -1.0227 C   0  0  1  0  0  0  0  0  0  0  0  0
    4.9490   -0.9054   -1.5140 C   0  0  0  0  0  0  0  0  0  0  0  0
    4.4416   -0.3983   -2.6449 C   0  0  0  0  0  0  0  0  0  0  0  0
    3.4501   -1.1367   -3.4212 C   0  0  0  0  0  0  0  0  0  0  0  0
    2.8157   -0.6021   -4.4609 C   0  0  0  0  0  0  0  0  0  0  0  0
    3.3009    1.1651   -5.1454 Br  0  0  0  0  0  0  0  0  0  0  0  0
    3.1060   -2.4194   -3.1032 O   0  0  0  0  0  0  0  0  0  0  0  0
    3.9569   -3.1102   -2.1988 C   0  0  0  0  0  0  0  0  0  0  0  0
    8.3082   -3.5309    0.8160 H   0  0  0  0  0  0  0  0  0  0  0  0
    9.0766   -3.2867   -0.7151 H   0  0  0  0  0  0  0  0  0  0  0  0
    8.2353   -4.7922   -0.4002 H   0  0  0  0  0  0  0  0  0  0  0  0
    5.0925   -5.7502    1.7414 H   0  0  0  0  0  0  0  0  0  0  0  0
    6.6250   -5.4660    1.0026 H   0  0  0  0  0  0  0  0  0  0  0  0
    5.2115   -5.7233   -0.0148 H   0  0  0  0  0  0  0  0  0  0  0  0
    5.3922   -3.4466    3.0724 H   0  0  0  0  0  0  0  0  0  0  0  0
    5.5655   -1.9393    2.1454 H   0  0  0  0  0  0  0  0  0  0  0  0
    6.8439   -3.0948    2.1520 H   0  0  0  0  0  0  0  0  0  0  0  0
    3.2048   -4.4659    0.4877 H   0  0  0  0  0  0  0  0  0  0  0  0
    3.3454   -3.7012    2.0612 H   0  0  0  0  0  0  0  0  0  0  0  0
    5.6534   -0.3171   -0.9317 H   0  0  0  0  0  0  0  0  0  0  0  0
    4.7372    0.5874   -2.9499 H   0  0  0  0  0  0  0  0  0  0  0  0
    2.0345   -1.0539   -5.0402 H   0  0  0  0  0  0  0  0  0  0  0  0
    4.7461   -3.4973   -2.8344 H   0  0  0  0  0  0  0  0  0  0  0  0
    3.4287   -3.9813   -1.8240 H   0  0  0  0  0  0  0  0  0  0  0  0
  1  2  1  0
  1 19  1  0
  1 20  1  0
  1 21  1  0
  2  3  2  0
  2  4  1  0
 11  4  1  1
  4  5  1  0
  5  6  1  0
  5  7  1  0
  5  8  1  0
  6 22  1  0
  6 23  1  0
  6 24  1  0
  7 25  1  0
  7 26  1  0
  7 27  1  0
  9  8  1  1
  8 28  1  0
  8 29  1  0
  9 10  2  0
  9 11  1  0
 11 18  1  0
 11 12  1  0
 12 13  2  0
 12 30  1  0
 13 14  1  0
 13 31  1  0
 14 15  2  3
 14 17  1  0
 15 16  1  0
 15 32  1  0
 17 18  1  0
 18 33  1  0
 18 34  1  0
M  END
>  <i_m_ct_stereo_status>  (60) 
1

>  <s_m_source_file>  (60) 
/var/tmp/pbs.5075288.sched01/tmpndvtliwj/216foptgilz.sdf

>  <i_m_source_file_index>  (60) 
3

>  <i_lp_mmshare_version>  (60) 
48012

>  <i_f3d_flags>  (60) 
0

>  <s_epik_input>  (60) 
W08tXVtTK10xW0NIMl1DKFtDSDNdKShbQ0gzXSlOKEMoPU8pW0NIM10pW0NAXTEyW0NIXT1bQ0hdL0MoPVtDSF0vQnIpT1tDSDJdMg==

>  <s_epik_cmdline>  (60) 
J2VwaWtfcHl0aG9uJywgJy1waHQnLCAnMi4wJywgJy1waCcsICc3LjAnLCAnLXRuJywgJzgnLCAnLW1hJywgJzIwMCcsICctaW1hZScsICc8aW5maWxlLm1hZT4nLCAnLW9tYWUnLCAnPG91dGZpbGUubWFlPic=

>  <r_lp_tautomer_probability>  (60) 
1

>  <r_epik_Ionization_Penalty>  (60) 
4.81774e-07

>  <r_epik_Ionization_Penalty_Charging>  (60) 
0

>  <r_epik_Ionization_Penalty_Neutral>  (60) 
4.81774e-07

>  <r_epik_State_Penalty>  (60) 
-0

>  <r_epik_Charging_Adjusted_Penalty>  (60) 
0

>  <i_epik_Tot_Q>  (60) 
0

>  <i_epik_Tot_abs_Q>  (60) 
2

>  <s_lp_Force_Field>  (60) 
OPLS3e

>  <r_lp_Energy>  (60) 
15.1446

>  <b_lp_Chiralities_Consistent>  (60) 
1

>  <s_lp_Variant>  (60) 
72:0-2

>  <s_i_glide_gridfile>  (60) 
pfpi4k_grid

>  <i_i_glide_lignum>  (60) 
3

>  <i_i_glide_rotatable_bonds>  (60) 
1

>  <r_i_docking_score>  (60) 
-3.62573

>  <r_i_glide_ligand_efficiency>  (60) 
-0.20143

>  <r_i_glide_ligand_efficiency_sa>  (60) 
-0.527895

>  <r_i_glide_ligand_efficiency_ln>  (60) 
-0.931976

>  <r_i_glide_gscore>  (60) 
-3.62573

>  <r_i_glide_lipo>  (60) 
-0.743127

>  <r_i_glide_hbond>  (60) 
-0.155577

>  <r_i_glide_metal>  (60) 
-0

>  <r_i_glide_rewards>  (60) 
-1.26112

>  <r_i_glide_evdw>  (60) 
-22.07

>  <r_i_glide_ecoul>  (60) 
-1.99519

>  <r_i_glide_erotb>  (60) 
0

>  <r_i_glide_esite>  (60) 
-0.0631334

>  <r_i_glide_emodel>  (60) 
-29.3312

>  <r_i_glide_energy>  (60) 
-24.0652

>  <r_i_glide_einternal>  (60) 
0.0891728

>  <r_i_glide_intrahb_reward>  (60) 
-0

>  <i_i_glide_confnum>  (60) 
3

>  <i_i_glide_posenum>  (60) 
32

>  <r_i_glide_eff_state_penalty>  (60) 
0

>  <ligand_id>  (60) 
72

>  <original_smiles>  (60) 
CC(=O)N1C(C)(C)C[S+]([O-])C12C=CC(=CBr)OC2

>  <smiles>  (60) 
[H]C(Br)=C1OC([H])([H])C2(C([H])=C1[H])N(C(=O)C([H])([H])[H])C(C([H])([H])[H])(C([H])([H])[H])C([H])([H])S2=O

$$$$
72:1:1
     RDKit          3D

 34 35  0  0  1  0  0  0  0  0999 V2000
    8.1875   -3.7315    0.7334 C   0  0  0  0  0  0  0  0  0  0  0  0
    7.0700   -3.0936   -0.1042 C   0  0  0  0  0  0  0  0  0  0  0  0
    7.4350   -2.1978   -0.8592 O   0  0  0  0  0  0  0  0  0  0  0  0
    5.7656   -3.5229   -0.0474 N   0  0  0  0  0  0  0  0  0  0  0  0
    5.2259   -4.5621    0.8906 C   0  0  0  0  0  0  0  0  0  0  0  0
    5.9991   -5.9124    0.8415 C   0  0  0  0  0  0  0  0  0  0  0  0
    5.1660   -4.0086    2.3422 C   0  0  0  0  0  0  0  0  0  0  0  0
    3.7915   -4.9332    0.4531 C   0  0  0  0  0  0  0  0  0  0  0  0
    3.0645   -3.4272   -0.3054 S   0  0  0  0  0  0  0  0  0  0  0  0
    2.7711   -2.4747    0.8479 O   0  0  0  0  0  0  0  0  0  0  0  0
    4.7267   -2.9634   -0.9745 C   0  0  1  0  0  0  0  0  0  0  0  0
    4.7663   -1.4499   -1.1272 C   0  0  0  0  0  0  0  0  0  0  0  0
    4.5213   -0.8525   -2.2969 C   0  0  0  0  0  0  0  0  0  0  0  0
    4.1357   -1.6098   -3.4727 C   0  0  0  0  0  0  0  0  0  0  0  0
    3.7216   -1.0454   -4.6200 C   0  0  0  0  0  0  0  0  0  0  0  0
    3.6484    0.9084   -4.8503 Br  0  0  0  0  0  0  0  0  0  0  0  0
    4.1612   -2.9850   -3.4505 O   0  0  0  0  0  0  0  0  0  0  0  0
    4.8793   -3.6113   -2.3831 C   0  0  0  0  0  0  0  0  0  0  0  0
    7.8892   -4.0332    1.7298 H   0  0  0  0  0  0  0  0  0  0  0  0
    9.0141   -3.0244    0.8544 H   0  0  0  0  0  0  0  0  0  0  0  0
    8.5810   -4.6025    0.1993 H   0  0  0  0  0  0  0  0  0  0  0  0
    5.4471   -6.7026    1.3651 H   0  0  0  0  0  0  0  0  0  0  0  0
    6.9905   -5.9051    1.2849 H   0  0  0  0  0  0  0  0  0  0  0  0
    6.0984   -6.2361   -0.1961 H   0  0  0  0  0  0  0  0  0  0  0  0
    4.6857   -4.7337    3.0084 H   0  0  0  0  0  0  0  0  0  0  0  0
    4.5837   -3.0850    2.3879 H   0  0  0  0  0  0  0  0  0  0  0  0
    6.1376   -3.7859    2.7690 H   0  0  0  0  0  0  0  0  0  0  0  0
    3.7845   -5.6982   -0.3209 H   0  0  0  0  0  0  0  0  0  0  0  0
    3.1560   -5.2970    1.2571 H   0  0  0  0  0  0  0  0  0  0  0  0
    5.0280   -0.8558   -0.2584 H   0  0  0  0  0  0  0  0  0  0  0  0
    4.5958    0.2165   -2.3562 H   0  0  0  0  0  0  0  0  0  0  0  0
    3.4213   -1.5630   -5.5172 H   0  0  0  0  0  0  0  0  0  0  0  0
    5.9241   -3.5990   -2.6957 H   0  0  0  0  0  0  0  0  0  0  0  0
    4.6189   -4.6676   -2.3497 H   0  0  0  0  0  0  0  0  0  0  0  0
  1  2  1  0
  1 19  1  0
  1 20  1  0
  1 21  1  0
  2  3  2  0
  2  4  1  0
 11  4  1  1
  4  5  1  0
  5  6  1  0
  5  7  1  0
  5  8  1  0
  6 22  1  0
  6 23  1  0
  6 24  1  0
  7 25  1  0
  7 26  1  0
  7 27  1  0
  9  8  1  1
  8 28  1  0
  8 29  1  0
  9 10  2  0
  9 11  1  0
 11 18  1  0
 11 12  1  0
 12 13  2  0
 12 30  1  0
 13 14  1  0
 13 31  1  0
 14 15  2  3
 14 17  1  0
 15 16  1  0
 15 32  1  0
 17 18  1  0
 18 33  1  0
 18 34  1  0
M  END
>  <i_m_ct_stereo_status>  (61) 
1

>  <s_m_source_file>  (61) 
/var/tmp/pbs.5075288.sched01/tmpndvtliwj/216foptgilz.sdf

>  <i_m_source_file_index>  (61) 
3

>  <i_lp_mmshare_version>  (61) 
48012

>  <i_f3d_flags>  (61) 
0

>  <s_epik_input>  (61) 
W08tXVtTK10xW0NIMl1DKFtDSDNdKShbQ0gzXSlOKEMoPU8pW0NIM10pW0NAXTEyW0NIXT1bQ0hdL0MoPVtDSF0vQnIpT1tDSDJdMg==

>  <s_epik_cmdline>  (61) 
J2VwaWtfcHl0aG9uJywgJy1waHQnLCAnMi4wJywgJy1waCcsICc3LjAnLCAnLXRuJywgJzgnLCAnLW1hJywgJzIwMCcsICctaW1hZScsICc8aW5maWxlLm1hZT4nLCAnLW9tYWUnLCAnPG91dGZpbGUubWFlPic=

>  <r_lp_tautomer_probability>  (61) 
1

>  <r_epik_Ionization_Penalty>  (61) 
4.81774e-07

>  <r_epik_Ionization_Penalty_Charging>  (61) 
0

>  <r_epik_Ionization_Penalty_Neutral>  (61) 
4.81774e-07

>  <r_epik_State_Penalty>  (61) 
-0

>  <r_epik_Charging_Adjusted_Penalty>  (61) 
0

>  <i_epik_Tot_Q>  (61) 
0

>  <i_epik_Tot_abs_Q>  (61) 
2

>  <s_lp_Force_Field>  (61) 
OPLS3e

>  <r_lp_Energy>  (61) 
15.1446

>  <b_lp_Chiralities_Consistent>  (61) 
1

>  <s_lp_Variant>  (61) 
72:0-2

>  <s_i_glide_gridfile>  (61) 
pfpi4k_grid

>  <i_i_glide_lignum>  (61) 
3

>  <i_i_glide_rotatable_bonds>  (61) 
1

>  <r_i_docking_score>  (61) 
-3.57455

>  <r_i_glide_ligand_efficiency>  (61) 
-0.198586

>  <r_i_glide_ligand_efficiency_sa>  (61) 
-0.520443

>  <r_i_glide_ligand_efficiency_ln>  (61) 
-0.918821

>  <r_i_glide_gscore>  (61) 
-3.57455

>  <r_i_glide_lipo>  (61) 
-0.549061

>  <r_i_glide_hbond>  (61) 
-0.16

>  <r_i_glide_metal>  (61) 
-0

>  <r_i_glide_rewards>  (61) 
-1.39431

>  <r_i_glide_evdw>  (61) 
-26.4499

>  <r_i_glide_ecoul>  (61) 
-0.991281

>  <r_i_glide_erotb>  (61) 
0

>  <r_i_glide_esite>  (61) 
0

>  <r_i_glide_emodel>  (61) 
-32.8707

>  <r_i_glide_energy>  (61) 
-27.4411

>  <r_i_glide_einternal>  (61) 
0.682469

>  <r_i_glide_intrahb_reward>  (61) 
-0

>  <i_i_glide_confnum>  (61) 
1

>  <i_i_glide_posenum>  (61) 
21

>  <r_i_glide_eff_state_penalty>  (61) 
0

>  <ligand_id>  (61) 
72

>  <original_smiles>  (61) 
CC(=O)N1C(C)(C)C[S+]([O-])C12C=CC(=CBr)OC2

>  <smiles>  (61) 
[H]C(Br)=C1OC([H])([H])C2(C([H])=C1[H])N(C(=O)C([H])([H])[H])C(C([H])([H])[H])(C([H])([H])[H])C([H])([H])S2=O

$$$$
72:1:2
     RDKit          3D

 34 35  0  0  1  0  0  0  0  0999 V2000
    1.7762   -3.7399   -1.4483 C   0  0  0  0  0  0  0  0  0  0  0  0
    2.7855   -4.2040   -0.3758 C   0  0  0  0  0  0  0  0  0  0  0  0
    2.3781   -5.0543    0.4080 O   0  0  0  0  0  0  0  0  0  0  0  0
    4.0572   -3.6777   -0.3412 N   0  0  0  0  0  0  0  0  0  0  0  0
    5.0805   -4.1047    0.6601 C   0  0  0  0  0  0  0  0  0  0  0  0
    4.5714   -4.0059    2.1177 C   0  0  0  0  0  0  0  0  0  0  0  0
    5.5206   -5.5577    0.3818 C   0  0  0  0  0  0  0  0  0  0  0  0
    6.3107   -3.1735    0.5819 C   0  0  0  0  0  0  0  0  0  0  0  0
    6.3585   -2.4685   -1.1172 S   0  0  0  0  0  0  0  0  0  0  0  0
    6.8740   -3.4687   -2.1397 O   0  0  0  0  0  0  0  0  0  0  0  0
    4.5411   -2.6333   -1.2745 C   0  0  1  0  0  0  0  0  0  0  0  0
    4.2035   -2.9113   -2.7478 C   0  0  0  0  0  0  0  0  0  0  0  0
    3.8843   -1.9224   -3.5690 C   0  0  0  0  0  0  0  0  0  0  0  0
    3.9741   -0.5411   -3.1357 C   0  0  0  0  0  0  0  0  0  0  0  0
    3.8026    0.5286   -3.9203 C   0  0  0  0  0  0  0  0  0  0  0  0
    3.4176    0.2867   -5.8173 Br  0  0  0  0  0  0  0  0  0  0  0  0
    4.2935   -0.2424   -1.8205 O   0  0  0  0  0  0  0  0  0  0  0  0
    4.0491   -1.2433   -0.8407 C   0  0  0  0  0  0  0  0  0  0  0  0
    1.8154   -2.6768   -1.6669 H   0  0  0  0  0  0  0  0  0  0  0  0
    0.7663   -3.9638   -1.1294 H   0  0  0  0  0  0  0  0  0  0  0  0
    1.9041   -4.2688   -2.3801 H   0  0  0  0  0  0  0  0  0  0  0  0
    5.3858   -4.1724    2.8276 H   0  0  0  0  0  0  0  0  0  0  0  0
    3.8127   -4.7482    2.3478 H   0  0  0  0  0  0  0  0  0  0  0  0
    4.1521   -3.0190    2.3191 H   0  0  0  0  0  0  0  0  0  0  0  0
    6.3400   -5.8671    1.0355 H   0  0  0  0  0  0  0  0  0  0  0  0
    5.8402   -5.6538   -0.6510 H   0  0  0  0  0  0  0  0  0  0  0  0
    4.7074   -6.2674    0.5237 H   0  0  0  0  0  0  0  0  0  0  0  0
    6.1718   -2.2920    1.2134 H   0  0  0  0  0  0  0  0  0  0  0  0
    7.2564   -3.6228    0.8825 H   0  0  0  0  0  0  0  0  0  0  0  0
    4.1988   -3.9489   -3.1003 H   0  0  0  0  0  0  0  0  0  0  0  0
    3.5484   -2.1549   -4.5852 H   0  0  0  0  0  0  0  0  0  0  0  0
    3.8624    1.5591   -3.6259 H   0  0  0  0  0  0  0  0  0  0  0  0
    2.9928   -1.2626   -0.6044 H   0  0  0  0  0  0  0  0  0  0  0  0
    4.5442   -0.9433    0.0868 H   0  0  0  0  0  0  0  0  0  0  0  0
  1  2  1  0
  1 19  1  0
  1 20  1  0
  1 21  1  0
  2  3  2  0
  2  4  1  0
 11  4  1  1
  4  5  1  0
  5  6  1  0
  5  7  1  0
  5  8  1  0
  6 22  1  0
  6 23  1  0
  6 24  1  0
  7 25  1  0
  7 26  1  0
  7 27  1  0
  9  8  1  1
  8 28  1  0
  8 29  1  0
  9 10  2  0
  9 11  1  0
 11 18  1  0
 11 12  1  0
 12 13  2  0
 12 30  1  0
 13 14  1  0
 13 31  1  0
 14 15  2  3
 14 17  1  0
 15 16  1  0
 15 32  1  0
 17 18  1  0
 18 33  1  0
 18 34  1  0
M  END
>  <i_m_ct_stereo_status>  (62) 
1

>  <s_m_source_file>  (62) 
/var/tmp/pbs.5075288.sched01/tmpndvtliwj/216foptgilz.sdf

>  <i_m_source_file_index>  (62) 
3

>  <i_lp_mmshare_version>  (62) 
48012

>  <i_f3d_flags>  (62) 
0

>  <s_epik_input>  (62) 
W08tXVtTK10xW0NIMl1DKFtDSDNdKShbQ0gzXSlOKEMoPU8pW0NIM10pW0NAXTEyW0NIXT1bQ0hdL0MoPVtDSF0vQnIpT1tDSDJdMg==

>  <s_epik_cmdline>  (62) 
J2VwaWtfcHl0aG9uJywgJy1waHQnLCAnMi4wJywgJy1waCcsICc3LjAnLCAnLXRuJywgJzgnLCAnLW1hJywgJzIwMCcsICctaW1hZScsICc8aW5maWxlLm1hZT4nLCAnLW9tYWUnLCAnPG91dGZpbGUubWFlPic=

>  <r_lp_tautomer_probability>  (62) 
1

>  <r_epik_Ionization_Penalty>  (62) 
4.81774e-07

>  <r_epik_Ionization_Penalty_Charging>  (62) 
0

>  <r_epik_Ionization_Penalty_Neutral>  (62) 
4.81774e-07

>  <r_epik_State_Penalty>  (62) 
-0

>  <r_epik_Charging_Adjusted_Penalty>  (62) 
0

>  <i_epik_Tot_Q>  (62) 
0

>  <i_epik_Tot_abs_Q>  (62) 
2

>  <s_lp_Force_Field>  (62) 
OPLS3e

>  <r_lp_Energy>  (62) 
15.1446

>  <b_lp_Chiralities_Consistent>  (62) 
1

>  <s_lp_Variant>  (62) 
72:0-2

>  <s_i_glide_gridfile>  (62) 
pfpi4k_grid

>  <i_i_glide_lignum>  (62) 
3

>  <i_i_glide_rotatable_bonds>  (62) 
1

>  <r_i_docking_score>  (62) 
-3.40948

>  <r_i_glide_ligand_efficiency>  (62) 
-0.189416

>  <r_i_glide_ligand_efficiency_sa>  (62) 
-0.496409

>  <r_i_glide_ligand_efficiency_ln>  (62) 
-0.87639

>  <r_i_glide_gscore>  (62) 
-3.40948

>  <r_i_glide_lipo>  (62) 
-0.81225

>  <r_i_glide_hbond>  (62) 
0

>  <r_i_glide_metal>  (62) 
-0

>  <r_i_glide_rewards>  (62) 
-1.18781

>  <r_i_glide_evdw>  (62) 
-18.5631

>  <r_i_glide_ecoul>  (62) 
-2.68076

>  <r_i_glide_erotb>  (62) 
0

>  <r_i_glide_esite>  (62) 
-0.0791573

>  <r_i_glide_emodel>  (62) 
-25.7613

>  <r_i_glide_energy>  (62) 
-21.2438

>  <r_i_glide_einternal>  (62) 
0.875175

>  <r_i_glide_intrahb_reward>  (62) 
-0

>  <i_i_glide_confnum>  (62) 
3

>  <i_i_glide_posenum>  (62) 
19

>  <r_i_glide_eff_state_penalty>  (62) 
0

>  <ligand_id>  (62) 
72

>  <original_smiles>  (62) 
CC(=O)N1C(C)(C)C[S+]([O-])C12C=CC(=CBr)OC2

>  <smiles>  (62) 
[H]C(Br)=C1OC([H])([H])C2(C([H])=C1[H])N(C(=O)C([H])([H])[H])C(C([H])([H])[H])(C([H])([H])[H])C([H])([H])S2=O

$$$$
74:0:0
     RDKit          3D

113123  0  0  1  0  0  0  0  0999 V2000
   -0.7784   -4.2174    8.1346 C   0  0  0  0  0  0  0  0  0  0  0  0
    0.1007   -3.0601    7.6349 C   0  0  2  0  0  0  0  0  0  0  0  0
    1.5698   -3.5162    7.4172 C   0  0  0  0  0  0  0  0  0  0  0  0
    1.8427   -3.5794    6.0016 O   0  0  0  0  0  0  0  0  0  0  0  0
    3.1259   -3.3138    5.3950 C   0  0  2  0  0  0  0  0  0  0  0  0
    3.3478   -1.7635    5.1602 C   0  0  0  0  0  0  0  0  0  0  0  0
    2.3963   -0.7873    5.9136 C   0  0  2  0  0  0  0  0  0  0  0  0
    0.9245   -0.7910    5.4333 C   0  0  2  0  0  0  0  0  0  0  0  0
    0.7725    0.3503    4.5613 O   0  0  0  0  0  0  0  0  0  0  0  0
    0.4966    1.1122    5.7517 C   0  0  2  0  0  0  0  0  0  0  0  0
   -0.3905    2.1855    5.5472 O   0  0  0  0  0  0  0  0  0  0  0  0
    1.6907    1.5101    6.4208 O   0  0  0  0  0  0  0  0  0  0  0  0
    2.8449    0.7047    6.1047 C   0  0  0  0  0  0  0  0  0  0  0  0
    3.7713    0.8743    7.3269 C   0  0  0  0  0  0  0  0  0  0  0  0
    3.5363    1.2870    4.8429 C   0  0  0  0  0  0  0  0  0  0  0  0
   -0.1183   -0.1596    6.3691 C   0  0  2  0  0  0  0  0  0  0  0  0
   -0.1755   -0.4190    7.8750 C   0  0  2  0  0  0  0  0  0  0  0  0
    1.0000   -0.8394    8.5515 O   0  0  0  0  0  0  0  0  0  0  0  0
   -0.0661   -1.8186    8.5125 C   0  0  2  0  0  0  0  0  0  0  0  0
    3.0856   -4.0041    3.9712 C   0  0  1  0  0  0  0  0  0  0  0  0
    4.3455   -3.6989    3.3129 O   0  0  0  0  0  0  0  0  0  0  0  0
    4.2954   -3.3014    1.9561 C   0  0  2  0  0  0  0  0  0  0  0  0
    4.0095   -4.3754    1.1413 O   0  0  0  0  0  0  0  0  0  0  0  0
    3.8702   -4.1603   -0.2416 C   0  0  1  0  0  0  0  0  0  0  0  0
    2.6222   -3.2636   -0.5141 C   0  0  0  0  0  0  0  0  0  0  0  0
    1.7701   -3.8687   -1.4898 O   0  0  0  0  0  0  0  0  0  0  0  0
    5.2070   -3.6210   -0.7898 C   0  0  1  0  0  0  0  0  0  0  0  0
    5.1502   -3.3493   -2.1913 O   0  0  0  0  0  0  0  0  0  0  0  0
    5.7047   -2.3788    0.0050 C   0  0  1  0  0  0  0  0  0  0  0  0
    4.8945   -1.2611   -0.2926 O   0  0  0  0  0  0  0  0  0  0  0  0
    5.6567   -2.6864    1.5172 C   0  0  1  0  0  0  0  0  0  0  0  0
    5.8929   -1.4875    2.2801 O   0  0  0  0  0  0  0  0  0  0  0  0
    2.8640   -5.5759    3.9911 C   0  0  2  0  0  0  0  0  0  0  0  0
    3.1184   -6.1126    2.7255 O   0  0  0  0  0  0  0  0  0  0  0  0
    1.3265   -5.9492    4.2787 C   0  0  1  0  0  0  0  0  0  0  0  0
    0.4840   -6.6892    3.1723 C   0  0  0  0  0  0  0  0  0  0  0  0
    0.3044   -8.2183    3.4076 C   0  0  0  0  0  0  0  0  0  0  0  0
    1.5983   -8.8168    3.9858 C   0  0  2  0  0  0  0  0  0  0  0  0
    1.6754  -10.2716    4.4581 C   0  0  1  0  0  0  0  0  0  0  0  0
    0.8263  -11.2446    3.6188 C   0  0  0  0  0  0  0  0  0  0  0  0
    3.1587  -10.7741    4.5773 C   0  0  0  0  0  0  0  0  0  0  0  0
    3.9444  -10.5570    5.9127 C   0  0  0  0  0  0  0  0  0  0  0  0
    4.5352   -8.8120    6.2994 S   0  0  0  0  0  0  0  0  0  0  0  0
    5.9933   -8.7421    5.8336 O   0  0  0  0  0  0  0  0  0  0  0  0
    3.5516   -7.7881    5.1055 C   0  0  1  0  0  0  0  0  0  0  0  0
    2.0317   -8.0680    5.2699 C   0  0  1  0  0  0  0  0  0  0  0  0
    1.1976   -6.7928    5.5346 C   0  0  0  0  0  0  0  0  0  0  0  0
    1.7298   -8.9388    6.3420 O   0  0  0  0  0  0  0  0  0  0  0  0
    1.0972  -10.1409    5.7268 O   0  0  0  0  0  0  0  0  0  0  0  0
    3.9226   -6.2675    4.9775 C   0  0  1  0  0  0  0  0  0  0  0  0
    5.2194   -6.2596    4.3859 O   0  0  0  0  0  0  0  0  0  0  0  0
    4.1499   -5.5290    6.3520 C   0  0  0  0  0  0  0  0  0  0  0  0
    4.3203   -3.9885    6.2045 C   0  0  0  0  0  0  0  0  0  0  0  0
    4.4248   -3.4434    7.4907 O   0  0  0  0  0  0  0  0  0  0  0  0
    5.6198   -2.6871    7.5446 C   0  0  0  0  0  0  0  0  0  0  0  0
    6.4972   -3.4090    6.5271 C   0  0  0  0  0  0  0  0  0  0  0  0
    5.5286   -3.7236    5.5556 O   0  0  0  0  0  0  0  0  0  0  0  0
   -0.4669   -4.5509    9.1255 H   0  0  0  0  0  0  0  0  0  0  0  0
   -0.7152   -5.0753    7.4610 H   0  0  0  0  0  0  0  0  0  0  0  0
   -1.8274   -3.9289    8.1927 H   0  0  0  0  0  0  0  0  0  0  0  0
   -0.3075   -2.8190    6.6535 H   0  0  0  0  0  0  0  0  0  0  0  0
    2.2384   -2.8706    7.9750 H   0  0  0  0  0  0  0  0  0  0  0  0
    1.7171   -4.5000    7.8612 H   0  0  0  0  0  0  0  0  0  0  0  0
    4.3713   -1.4946    5.3763 H   0  0  0  0  0  0  0  0  0  0  0  0
    3.2376   -1.5250    4.0967 H   0  0  0  0  0  0  0  0  0  0  0  0
    2.4427   -1.1631    6.9102 H   0  0  0  0  0  0  0  0  0  0  0  0
    0.5648   -1.7102    4.9677 H   0  0  0  0  0  0  0  0  0  0  0  0
    0.0286    2.7583    4.9267 H   0  0  0  0  0  0  0  0  0  0  0  0
    4.6845    0.2928    7.2321 H   0  0  0  0  0  0  0  0  0  0  0  0
    3.2556    0.5554    8.2391 H   0  0  0  0  0  0  0  0  0  0  0  0
    4.0527    1.9149    7.4589 H   0  0  0  0  0  0  0  0  0  0  0  0
    4.4993    0.8172    4.6545 H   0  0  0  0  0  0  0  0  0  0  0  0
    3.7037    2.3587    4.9580 H   0  0  0  0  0  0  0  0  0  0  0  0
    2.9347    1.1472    3.9456 H   0  0  0  0  0  0  0  0  0  0  0  0
   -1.1148   -0.2364    5.9208 H   0  0  0  0  0  0  0  0  0  0  0  0
   -0.7430    0.3226    8.4353 H   0  0  0  0  0  0  0  0  0  0  0  0
   -0.5296   -1.9848    9.4875 H   0  0  0  0  0  0  0  0  0  0  0  0
    2.2730   -3.5485    3.4045 H   0  0  0  0  0  0  0  0  0  0  0  0
    3.4831   -2.5963    1.8177 H   0  0  0  0  0  0  0  0  0  0  0  0
    3.7283   -5.1567   -0.6650 H   0  0  0  0  0  0  0  0  0  0  0  0
    2.0460   -3.1492    0.4194 H   0  0  0  0  0  0  0  0  0  0  0  0
    2.8965   -2.2703   -0.8364 H   0  0  0  0  0  0  0  0  0  0  0  0
    2.1790   -3.8713   -2.3750 H   0  0  0  0  0  0  0  0  0  0  0  0
    5.9498   -4.4048   -0.6780 H   0  0  0  0  0  0  0  0  0  0  0  0
    4.3864   -2.7703   -2.3437 H   0  0  0  0  0  0  0  0  0  0  0  0
    6.7597   -2.2003   -0.2612 H   0  0  0  0  0  0  0  0  0  0  0  0
    5.1825   -0.5332    0.2620 H   0  0  0  0  0  0  0  0  0  0  0  0
    6.4492   -3.4093    1.7703 H   0  0  0  0  0  0  0  0  0  0  0  0
    5.1499   -0.8946    2.1109 H   0  0  0  0  0  0  0  0  0  0  0  0
    3.1946   -7.0310    2.8445 H   0  0  0  0  0  0  0  0  0  0  0  0
    0.7947   -5.0068    4.4446 H   0  0  0  0  0  0  0  0  0  0  0  0
   -0.5092   -6.2579    3.1592 H   0  0  0  0  0  0  0  0  0  0  0  0
    0.8516   -6.5117    2.1576 H   0  0  0  0  0  0  0  0  0  0  0  0
   -0.5178   -8.3840    4.1017 H   0  0  0  0  0  0  0  0  0  0  0  0
    0.0292   -8.6997    2.4706 H   0  0  0  0  0  0  0  0  0  0  0  0
    2.2771   -8.7129    3.1424 H   0  0  0  0  0  0  0  0  0  0  0  0
    1.1817  -11.3209    2.5930 H   0  0  0  0  0  0  0  0  0  0  0  0
   -0.2072  -10.9137    3.6004 H   0  0  0  0  0  0  0  0  0  0  0  0
    0.8365  -12.2424    4.0612 H   0  0  0  0  0  0  0  0  0  0  0  0
    3.1188  -11.8591    4.4697 H   0  0  0  0  0  0  0  0  0  0  0  0
    3.7487  -10.4525    3.7249 H   0  0  0  0  0  0  0  0  0  0  0  0
    3.3657  -10.9231    6.7578 H   0  0  0  0  0  0  0  0  0  0  0  0
    4.8390  -11.1724    5.8873 H   0  0  0  0  0  0  0  0  0  0  0  0
    3.9038   -8.2084    4.1630 H   0  0  0  0  0  0  0  0  0  0  0  0
    1.5124   -6.2582    6.4184 H   0  0  0  0  0  0  0  0  0  0  0  0
    0.1452   -7.0121    5.7216 H   0  0  0  0  0  0  0  0  0  0  0  0
    5.2100   -6.8028    3.6149 H   0  0  0  0  0  0  0  0  0  0  0  0
    3.3672   -5.7339    7.0705 H   0  0  0  0  0  0  0  0  0  0  0  0
    5.0454   -5.9313    6.8394 H   0  0  0  0  0  0  0  0  0  0  0  0
    5.4346   -1.6776    7.1794 H   0  0  0  0  0  0  0  0  0  0  0  0
    6.0582   -2.6230    8.5489 H   0  0  0  0  0  0  0  0  0  0  0  0
    7.3001   -2.7781    6.1257 H   0  0  0  0  0  0  0  0  0  0  0  0
    6.9267   -4.3189    6.9639 H   0  0  0  0  0  0  0  0  0  0  0  0
  1  2  1  0
  1 58  1  0
  1 59  1  0
  1 60  1  0
  2 19  1  0
  2  3  1  0
  2 61  1  6
  3  4  1  0
  3 62  1  0
  3 63  1  0
  5  4  1  1
  5 53  1  0
  5  6  1  0
  5 20  1  0
  6  7  1  0
  6 64  1  0
  6 65  1  0
  7 13  1  0
  7  8  1  0
  7 66  1  1
  8 16  1  0
  8  9  1  0
  8 67  1  6
  9 10  1  0
 10 11  1  6
 10 12  1  0
 10 16  1  0
 11 68  1  0
 12 13  1  0
 13 14  1  0
 13 15  1  0
 14 69  1  0
 14 70  1  0
 14 71  1  0
 15 72  1  0
 15 73  1  0
 15 74  1  0
 16 17  1  0
 16 75  1  6
 17 19  1  0
 17 18  1  0
 17 76  1  1
 18 19  1  0
 19 77  1  1
 20 21  1  0
 20 33  1  0
 20 78  1  6
 21 22  1  0
 22 31  1  0
 22 23  1  0
 22 79  1  1
 23 24  1  0
 24 25  1  0
 24 27  1  0
 24 80  1  6
 25 26  1  0
 25 81  1  0
 25 82  1  0
 26 83  1  0
 27 28  1  0
 27 29  1  0
 27 84  1  6
 28 85  1  0
 29 30  1  0
 29 31  1  0
 29 86  1  6
 30 87  1  0
 31 32  1  0
 31 88  1  6
 32 89  1  0
 33 50  1  0
 33 34  1  6
 33 35  1  0
 34 90  1  0
 35 47  1  0
 35 36  1  0
 35 91  1  1
 36 37  1  0
 36 92  1  0
 36 93  1  0
 37 38  1  0
 37 94  1  0
 37 95  1  0
 38 46  1  0
 38 39  1  0
 38 96  1  6
 39 49  1  0
 39 40  1  6
 39 41  1  0
 40 97  1  0
 40 98  1  0
 40 99  1  0
 41 42  1  0
 41100  1  0
 41101  1  0
 43 42  1  6
 42102  1  0
 42103  1  0
 43 44  2  0
 43 45  1  0
 45 46  1  0
 45 50  1  0
 45104  1  6
 46 47  1  0
 46 48  1  1
 47105  1  0
 47106  1  0
 48 49  1  0
 50 51  1  6
 50 52  1  0
 51107  1  0
 52 53  1  0
 52108  1  0
 52109  1  0
 53 57  1  0
 53 54  1  0
 54 55  1  0
 55 56  1  0
 55110  1  0
 55111  1  0
 56 57  1  0
 56112  1  0
 56113  1  0
M  END
>  <i_m_ct_stereo_status>  (63) 
1

>  <s_m_source_file>  (63) 
/var/tmp/pbs.5075288.sched01/tmpndvtliwj/216foptgilz.sdf

>  <i_m_source_file_index>  (63) 
5

>  <i_lp_mmshare_version>  (63) 
48012

>  <i_f3d_flags>  (63) 
0

>  <s_epik_input>  (63) 
TzFbQ0BdMihbT0hdKU9DKFtDSDNdKShbQ0gzXSlbQ0BIXShbQ0gyXTMpW0NASF0xW0NASF0yW0NASF0oTzQpW0NASF00W0NASF0oW0NIM10pW0NIMl1PW0NAXTM1QzYoT1tDSDJdW0NIMl1PNilbQ0gyXVtDQF03KFtPSF0pW0NAXShbT0hdKShbQ0BASF01T1tDQEBIXThPW0NAQEhdKFtDSDJdW09IXSlbQ0BASF0oW09IXSlbQ0BASF0oW09IXSlbQ0BIXThbT0hdKVtDQEhdOVtDSDJdW0NIMl1bQ0BIXTFbQ0BdMihbQ0gyXTkpW0NAQEhdN1tTK10oW08tXSlbQ0gyXVtDSDJdW0NAQF0xKFtDSDNdKU9PMg==

>  <s_epik_cmdline>  (63) 
J2VwaWtfcHl0aG9uJywgJy1waHQnLCAnMi4wJywgJy1waCcsICc3LjAnLCAnLXRuJywgJzgnLCAnLW1hJywgJzIwMCcsICctaW1hZScsICc8aW5maWxlLm1hZT4nLCAnLW9tYWUnLCAnPG91dGZpbGUubWFlPic=

>  <r_epik_Ionization_Penalty>  (63) 
0.000765209

>  <r_epik_Ionization_Penalty_Charging>  (63) 
0

>  <r_epik_Ionization_Penalty_Neutral>  (63) 
0.000765209

>  <r_epik_State_Penalty>  (63) 
0.00048774

>  <r_epik_Charging_Adjusted_Penalty>  (63) 
0.00048774

>  <i_epik_Tot_Q>  (63) 
0

>  <i_epik_Tot_abs_Q>  (63) 
2

>  <s_epik_Chemistry_Notes>  (63) 
This compound contains an acetal/aminal-like group ( X-CH(R)-Y where X, Y are N, S, or O) that may be acid/base labile, releasing an aldehyde.

>  <s_lp_Force_Field>  (63) 
OPLS3e

>  <r_lp_Energy>  (63) 
119.279

>  <b_lp_Chiralities_Consistent>  (63) 
1

>  <s_lp_Variant>  (63) 
74:0-1

>  <s_i_glide_gridfile>  (63) 
pfpi4k_grid

>  <i_i_glide_lignum>  (63) 
5

>  <i_i_glide_rotatable_bonds>  (63) 
10

>  <r_i_docking_score>  (63) 
-1.66064

>  <r_i_glide_ligand_efficiency>  (63) 
-0.029134

>  <r_i_glide_ligand_efficiency_sa>  (63) 
-0.112122

>  <r_i_glide_ligand_efficiency_ln>  (63) 
-0.329292

>  <r_i_glide_gscore>  (63) 
-1.66064

>  <r_i_glide_lipo>  (63) 
-0.290186

>  <r_i_glide_hbond>  (63) 
0

>  <r_i_glide_metal>  (63) 
-0

>  <r_i_glide_rewards>  (63) 
-0.016639

>  <r_i_glide_evdw>  (63) 
-30.4199

>  <r_i_glide_ecoul>  (63) 
0.52187

>  <r_i_glide_erotb>  (63) 
0.0945917

>  <r_i_glide_esite>  (63) 
-0.00569237

>  <r_i_glide_emodel>  (63) 
-24.0669

>  <r_i_glide_energy>  (63) 
-29.898

>  <r_i_glide_einternal>  (63) 
13.4676

>  <r_i_glide_intrahb_reward>  (63) 
-0

>  <i_i_glide_confnum>  (63) 
1

>  <i_i_glide_posenum>  (63) 
5

>  <r_i_glide_eff_state_penalty>  (63) 
0

>  <ligand_id>  (63) 
74

>  <original_smiles>  (63) 
CC1COC2(CC3C4OC(O)(OC3(C)C)C4C3OC13)C(OC1OC(CO)C(O)C(O)C1O)C1(O)C3CCC4C5(C)CC[S+]([O-])C(C4(C3)OO5)C1(O)CC21OCCO1

>  <smiles>  (63) 
[H]OC([H])([H])C1([H])OC([H])(OC2([H])C3(OC([H])([H])C([H])(C([H])([H])[H])C4([H])OC4([H])C4([H])C5(O[H])OC4([H])C([H])(C3([H])[H])C(C([H])([H])[H])(C([H])([H])[H])O5)C3(OC([H])([H])C([H])([H])O3)C([H])([H])C3(O[H])C4([H])S(=O)C([H])([H])C([H])([H])C5(C([H])([H])[H])OOC46C([H])([H])C([H])(C([H])([H])C([H])([H])C56[H])C23O[H])C([H])(O[H])C([H])(O[H])C1([H])O[H]

$$$$
79:0:0
     RDKit          3D

 71 75  0  0  1  0  0  0  0  0999 V2000
   -2.5264    3.5992    4.1853 C   0  0  0  0  0  0  0  0  0  0  0  0
   -1.3545    3.5294    4.8448 C   0  0  0  0  0  0  0  0  0  0  0  0
   -0.1423    4.1700    4.1453 C   0  0  1  0  0  0  0  0  0  0  0  0
   -0.3098    5.5676    4.1040 O   0  0  0  0  0  0  0  0  0  0  0  0
    1.2556    3.5430    4.5275 C   0  0  1  0  0  0  0  0  0  0  0  0
    1.1603    2.0446    3.9896 C   0  0  1  0  0  0  0  0  0  0  0  0
    2.3413    1.2739    3.8436 O   0  0  0  0  0  0  0  0  0  0  0  0
    2.7478    0.6535    2.6864 C   0  0  0  0  0  0  0  0  0  0  0  0
    1.7296    0.6246    1.5110 C   0  0  0  0  0  0  0  0  0  0  0  0
    3.8376    0.1528    2.5898 O   0  0  0  0  0  0  0  0  0  0  0  0
   -0.0168    1.1479    4.4665 C   0  0  1  0  0  0  0  0  0  0  0  0
    0.1725   -0.1926    4.0198 O   0  0  0  0  0  0  0  0  0  0  0  0
   -0.5695    1.2496    5.9334 C   0  0  1  0  0  0  0  0  0  0  0  0
   -1.8041    0.2277    5.9350 C   0  0  0  0  0  0  0  0  0  0  0  0
   -1.5633   -1.1548    5.7517 O   0  0  0  0  0  0  0  0  0  0  0  0
    0.5154    0.8293    7.0377 C   0  0  1  0  0  0  0  0  0  0  0  0
    0.0303   -0.2404    7.8604 O   0  0  0  0  0  0  0  0  0  0  0  0
    0.2237   -0.3533    9.2112 C   0  0  0  0  0  0  0  0  0  0  0  0
    0.9882    0.7866    9.9134 C   0  0  0  0  0  0  0  0  0  0  0  0
   -0.1766   -1.3209    9.8262 O   0  0  0  0  0  0  0  0  0  0  0  0
    2.0298    0.4161    6.7225 C   0  0  1  0  0  0  0  0  0  0  0  0
    2.3268   -0.9299    5.9883 C   0  0  0  0  0  0  0  0  0  0  0  0
    3.4890    1.6256    6.5799 S   0  0  0  0  0  0  0  0  0  0  0  0
    4.0286    1.7394    7.9938 O   0  0  0  0  0  0  0  0  0  0  0  0
    3.2663    3.4007    5.9568 C   0  0  1  0  0  0  0  0  0  0  0  0
    3.7535    3.6323    4.5193 C   0  0  0  0  0  0  0  0  0  0  0  0
    2.4699    4.2141    3.8232 C   0  0  1  0  0  0  0  0  0  0  0  0
    2.5126    4.0732    2.4276 O   0  0  0  0  0  0  0  0  0  0  0  0
    2.4257    5.5450    4.2401 O   0  0  0  0  0  0  0  0  0  0  0  0
    2.1145    5.5164    5.6314 C   0  0  0  0  0  0  0  0  0  0  0  0
    1.8463    3.9992    5.9082 C   0  0  1  0  0  0  0  0  0  0  0  0
    1.1303    3.8334    7.2605 C   0  0  1  0  0  0  0  0  0  0  0  0
    1.4853    4.8297    8.2140 O   0  0  0  0  0  0  0  0  0  0  0  0
   -0.4113    3.7085    7.2208 C   0  0  1  0  0  0  0  0  0  0  0  0
   -0.9284    5.0246    7.1844 O   0  0  0  0  0  0  0  0  0  0  0  0
   -1.1729    2.7655    6.1952 C   0  0  1  0  0  0  0  0  0  0  0  0
   -2.5661    2.7002    6.9223 C   0  0  0  0  0  0  0  0  0  0  0  0
   -3.4399    3.1636    4.5521 H   0  0  0  0  0  0  0  0  0  0  0  0
   -2.5919    4.1107    3.2414 H   0  0  0  0  0  0  0  0  0  0  0  0
   -0.2766    3.9263    3.0854 H   0  0  0  0  0  0  0  0  0  0  0  0
    0.2289    5.9165    3.4030 H   0  0  0  0  0  0  0  0  0  0  0  0
    0.9008    2.2177    2.9552 H   0  0  0  0  0  0  0  0  0  0  0  0
    0.6796    0.5979    1.8427 H   0  0  0  0  0  0  0  0  0  0  0  0
    1.9340   -0.2481    0.8954 H   0  0  0  0  0  0  0  0  0  0  0  0
    1.8988    1.4852    0.8896 H   0  0  0  0  0  0  0  0  0  0  0  0
   -0.8354    1.3993    3.7973 H   0  0  0  0  0  0  0  0  0  0  0  0
    0.4015   -0.1954    3.1008 H   0  0  0  0  0  0  0  0  0  0  0  0
   -2.3500    0.2682    6.8762 H   0  0  0  0  0  0  0  0  0  0  0  0
   -2.4849    0.5073    5.1243 H   0  0  0  0  0  0  0  0  0  0  0  0
   -0.9288   -1.2040    5.0392 H   0  0  0  0  0  0  0  0  0  0  0  0
    0.4529    1.5748    7.7952 H   0  0  0  0  0  0  0  0  0  0  0  0
    1.9497    0.9999    9.4303 H   0  0  0  0  0  0  0  0  0  0  0  0
    1.1478    0.5380   10.9567 H   0  0  0  0  0  0  0  0  0  0  0  0
    0.3673    1.6913    9.9252 H   0  0  0  0  0  0  0  0  0  0  0  0
    2.3356    0.1113    7.7118 H   0  0  0  0  0  0  0  0  0  0  0  0
    2.8092   -1.6218    6.6833 H   0  0  0  0  0  0  0  0  0  0  0  0
    3.0053   -0.8387    5.1376 H   0  0  0  0  0  0  0  0  0  0  0  0
    1.4214   -1.4484    5.6825 H   0  0  0  0  0  0  0  0  0  0  0  0
    3.8821    3.9930    6.6302 H   0  0  0  0  0  0  0  0  0  0  0  0
    4.5388    4.3905    4.5029 H   0  0  0  0  0  0  0  0  0  0  0  0
    4.1567    2.7254    4.0656 H   0  0  0  0  0  0  0  0  0  0  0  0
    1.6703    4.3215    2.0297 H   0  0  0  0  0  0  0  0  0  0  0  0
    2.9586    5.9076    6.2120 H   0  0  0  0  0  0  0  0  0  0  0  0
    1.2573    6.1612    5.8313 H   0  0  0  0  0  0  0  0  0  0  0  0
    1.5833    3.0063    7.7836 H   0  0  0  0  0  0  0  0  0  0  0  0
    1.3038    5.6815    7.8491 H   0  0  0  0  0  0  0  0  0  0  0  0
   -0.6519    3.3615    8.2279 H   0  0  0  0  0  0  0  0  0  0  0  0
   -0.6301    5.4630    7.9682 H   0  0  0  0  0  0  0  0  0  0  0  0
   -2.4825    2.2409    7.9121 H   0  0  0  0  0  0  0  0  0  0  0  0
   -3.3442    2.1565    6.3974 H   0  0  0  0  0  0  0  0  0  0  0  0
   -2.9798    3.7002    7.0689 H   0  0  0  0  0  0  0  0  0  0  0  0
  1  2  2  0
  1 38  1  0
  1 39  1  0
  2 36  1  0
  2  3  1  0
  3  4  1  0
  3  5  1  0
  3 40  1  6
  4 41  1  0
  5 27  1  6
  5 31  1  0
  5  6  1  0
  6  7  1  0
  6 11  1  0
  6 42  1  6
  7  8  1  0
  8  9  1  0
  8 10  2  0
  9 43  1  0
  9 44  1  0
  9 45  1  0
 11 12  1  0
 11 13  1  0
 11 46  1  6
 12 47  1  0
 13 36  1  0
 13 14  1  6
 13 16  1  0
 14 15  1  0
 14 48  1  0
 14 49  1  0
 15 50  1  0
 16 17  1  0
 16 21  1  0
 16 51  1  1
 17 18  1  0
 18 19  1  0
 18 20  2  0
 19 52  1  0
 19 53  1  0
 19 54  1  0
 21 22  1  0
 23 21  1  1
 21 55  1  1
 22 56  1  0
 22 57  1  0
 22 58  1  0
 23 24  2  0
 23 25  1  0
 25 31  1  0
 25 26  1  0
 25 59  1  1
 26 27  1  0
 26 60  1  0
 26 61  1  0
 27 28  1  6
 27 29  1  0
 28 62  1  0
 29 30  1  0
 31 30  1  6
 30 63  1  0
 30 64  1  0
 31 32  1  0
 32 33  1  0
 32 34  1  0
 32 65  1  1
 33 66  1  0
 34 35  1  0
 34 36  1  0
 34 67  1  1
 35 68  1  0
 36 37  1  1
 37 69  1  0
 37 70  1  0
 37 71  1  0
M  END
>  <i_m_ct_stereo_status>  (64) 
1

>  <s_m_source_file>  (64) 
/var/tmp/pbs.5075288.sched01/tmpndvtliwj/216foptgilz.sdf

>  <i_m_source_file_index>  (64) 
12

>  <i_lp_mmshare_version>  (64) 
48012

>  <i_f3d_flags>  (64) 
0

>  <s_epik_input>  (64) 
W0NIM11DKD1PKU9bQ0BIXTFbQ0BASF0oW09IXSlbQ0BdKFtDSDJdW09IXSkoW0NAXShbQ0gzXSkoQyg9W0NIMl0pW0NASF0yW09IXSlbQ0BIXShbT0hdKVtDQEBIXTNbT0hdKVtDQEBIXShPQyg9TylbQ0gzXSlbQ0BASF0oW0NIM10pW1MrXShbTy1dKVtDQEhdKFtDQEBdMzRbQ0BAXTEyNSlbQ0gyXVtDQF01KFtPSF0pT1tDSDJdNA==

>  <s_epik_cmdline>  (64) 
J2VwaWtfcHl0aG9uJywgJy1waHQnLCAnMi4wJywgJy1waCcsICc3LjAnLCAnLXRuJywgJzgnLCAnLW1hJywgJzIwMCcsICctaW1hZScsICc8aW5maWxlLm1hZT4nLCAnLW9tYWUnLCAnPG91dGZpbGUubWFlPic=

>  <r_lp_tautomer_probability>  (64) 
1

>  <r_epik_Ionization_Penalty>  (64) 
4.5925e-06

>  <r_epik_Ionization_Penalty_Charging>  (64) 
0

>  <r_epik_Ionization_Penalty_Neutral>  (64) 
4.5925e-06

>  <r_epik_State_Penalty>  (64) 
-0

>  <r_epik_Charging_Adjusted_Penalty>  (64) 
0

>  <i_epik_Tot_Q>  (64) 
0

>  <i_epik_Tot_abs_Q>  (64) 
2

>  <s_epik_Chemistry_Notes>  (64) 
This compound has an ester and may undergo hydrolysis at high or low pH.

>  <s_lp_Force_Field>  (64) 
OPLS3e

>  <r_lp_Energy>  (64) 
153.291

>  <b_lp_Chiralities_Consistent>  (64) 
1

>  <s_lp_Variant>  (64) 
79:0-1

>  <s_i_glide_gridfile>  (64) 
pfpi4k_grid

>  <i_i_glide_lignum>  (64) 
12

>  <i_i_glide_rotatable_bonds>  (64) 
11

>  <r_i_docking_score>  (64) 
-3.26315

>  <r_i_glide_ligand_efficiency>  (64) 
-0.0881934

>  <r_i_glide_ligand_efficiency_sa>  (64) 
-0.29388

>  <r_i_glide_ligand_efficiency_ln>  (64) 
-0.707702

>  <r_i_glide_gscore>  (64) 
-3.26315

>  <r_i_glide_lipo>  (64) 
-0.173778

>  <r_i_glide_hbond>  (64) 
-0.133034

>  <r_i_glide_metal>  (64) 
-0

>  <r_i_glide_rewards>  (64) 
-0.535314

>  <r_i_glide_evdw>  (64) 
-19.9762

>  <r_i_glide_ecoul>  (64) 
-10.4427

>  <r_i_glide_erotb>  (64) 
0.207971

>  <r_i_glide_esite>  (64) 
-0.0637909

>  <r_i_glide_emodel>  (64) 
-35.7345

>  <r_i_glide_energy>  (64) 
-30.4188

>  <r_i_glide_einternal>  (64) 
12.7345

>  <r_i_glide_intrahb_reward>  (64) 
-0.5

>  <i_i_glide_confnum>  (64) 
5

>  <i_i_glide_posenum>  (64) 
15

>  <r_i_glide_eff_state_penalty>  (64) 
0

>  <ligand_id>  (64) 
79

>  <original_smiles>  (64) 
C=C1C(O)C23C(OC(C)=O)C(O)C4(CO)C(OC(C)=O)C(C)[S+]([O-])C5CC2(O)OCC53C(O)C(O)C14C

>  <smiles>  (64) 
[H]OC([H])([H])C12C([H])(O[H])C([H])(OC(=O)C([H])([H])[H])C34C([H])(O[H])C(=C([H])[H])C1(C([H])([H])[H])C([H])(O[H])C([H])(O[H])C31C([H])([H])OC4(O[H])C([H])([H])C1([H])S(=O)C([H])(C([H])([H])[H])C2([H])OC(=O)C([H])([H])[H]

$$$$
79:0:1
     RDKit          3D

 71 75  0  0  1  0  0  0  0  0999 V2000
   -2.4523    3.7111    4.2233 C   0  0  0  0  0  0  0  0  0  0  0  0
   -1.2745    3.7146    4.8765 C   0  0  0  0  0  0  0  0  0  0  0  0
   -0.0886    4.3378    4.1327 C   0  0  1  0  0  0  0  0  0  0  0  0
   -0.2953    5.7350    4.0166 O   0  0  0  0  0  0  0  0  0  0  0  0
    1.3247    3.7888    4.5585 C   0  0  1  0  0  0  0  0  0  0  0  0
    1.3012    2.2524    4.1174 C   0  0  1  0  0  0  0  0  0  0  0  0
    2.5220    1.5061    4.0726 O   0  0  0  0  0  0  0  0  0  0  0  0
    2.9806    0.9167    2.9295 C   0  0  0  0  0  0  0  0  0  0  0  0
    4.2851    0.1547    3.1393 C   0  0  0  0  0  0  0  0  0  0  0  0
    2.4271    0.9425    1.8313 O   0  0  0  0  0  0  0  0  0  0  0  0
    0.1585    1.3515    4.6541 C   0  0  1  0  0  0  0  0  0  0  0  0
    0.3562    0.0152    4.2152 O   0  0  0  0  0  0  0  0  0  0  0  0
   -0.4011    1.5488    6.1267 C   0  0  1  0  0  0  0  0  0  0  0  0
   -1.5971    0.5002    6.1870 C   0  0  0  0  0  0  0  0  0  0  0  0
   -1.3121   -0.8825    6.0695 O   0  0  0  0  0  0  0  0  0  0  0  0
    0.6553    1.2114    7.2933 C   0  0  1  0  0  0  0  0  0  0  0  0
    0.2022    0.1235    8.1259 O   0  0  0  0  0  0  0  0  0  0  0  0
    0.4394    0.0854    9.4636 C   0  0  0  0  0  0  0  0  0  0  0  0
    0.0388   -1.2330   10.1057 C   0  0  0  0  0  0  0  0  0  0  0  0
    0.9682    0.9819   10.1238 O   0  0  0  0  0  0  0  0  0  0  0  0
    2.1878    0.8737    7.0106 C   0  0  1  0  0  0  0  0  0  0  0  0
    2.5249   -0.4976    6.3851 C   0  0  0  0  0  0  0  0  0  0  0  0
    3.6012    2.1142    6.7549 S   0  0  0  0  0  0  0  0  0  0  0  0
    4.1998    2.3601    8.1412 O   0  0  0  0  0  0  0  0  0  0  0  0
    3.3136    3.8226    6.0064 C   0  0  1  0  0  0  0  0  0  0  0  0
    3.8047    3.9797    4.5519 C   0  0  0  0  0  0  0  0  0  0  0  0
    2.5161    4.4767    3.8246 C   0  0  1  0  0  0  0  0  0  0  0  0
    2.5784    4.2580    2.4354 O   0  0  0  0  0  0  0  0  0  0  0  0
    2.4210    5.8236    4.1537 O   0  0  0  0  0  0  0  0  0  0  0  0
    2.1041    5.8643    5.5429 C   0  0  0  0  0  0  0  0  0  0  0  0
    1.8879    4.3581    5.9169 C   0  0  1  0  0  0  0  0  0  0  0  0
    1.1726    4.2579    7.2711 C   0  0  1  0  0  0  0  0  0  0  0  0
    1.5111    5.3216    8.1542 O   0  0  0  0  0  0  0  0  0  0  0  0
   -0.3502    4.0752    7.2577 C   0  0  1  0  0  0  0  0  0  0  0  0
   -0.9136    5.3684    7.1512 O   0  0  0  0  0  0  0  0  0  0  0  0
   -1.0683    3.0516    6.2806 C   0  0  1  0  0  0  0  0  0  0  0  0
   -2.4763    2.9776    6.9948 C   0  0  0  0  0  0  0  0  0  0  0  0
   -3.3597    3.2829    4.6125 H   0  0  0  0  0  0  0  0  0  0  0  0
   -2.5320    4.1560    3.2407 H   0  0  0  0  0  0  0  0  0  0  0  0
   -0.2165    4.0274    3.0929 H   0  0  0  0  0  0  0  0  0  0  0  0
    0.2268    6.0627    3.2901 H   0  0  0  0  0  0  0  0  0  0  0  0
    1.0324    2.3445    3.0651 H   0  0  0  0  0  0  0  0  0  0  0  0
    4.8808    0.6074    3.9329 H   0  0  0  0  0  0  0  0  0  0  0  0
    4.8784    0.1398    2.2250 H   0  0  0  0  0  0  0  0  0  0  0  0
    4.0614   -0.8737    3.4165 H   0  0  0  0  0  0  0  0  0  0  0  0
   -0.6759    1.5526    3.9840 H   0  0  0  0  0  0  0  0  0  0  0  0
    0.6177    0.0469    3.3021 H   0  0  0  0  0  0  0  0  0  0  0  0
   -2.1283    0.5527    7.1329 H   0  0  0  0  0  0  0  0  0  0  0  0
   -2.3023    0.7143    5.3833 H   0  0  0  0  0  0  0  0  0  0  0  0
   -0.7410   -0.9595    5.3067 H   0  0  0  0  0  0  0  0  0  0  0  0
    0.5602    1.9908    8.0252 H   0  0  0  0  0  0  0  0  0  0  0  0
   -0.9846   -1.4981    9.8611 H   0  0  0  0  0  0  0  0  0  0  0  0
    0.1094   -1.1714   11.1894 H   0  0  0  0  0  0  0  0  0  0  0  0
    0.6876   -2.0353    9.7634 H   0  0  0  0  0  0  0  0  0  0  0  0
    2.5307    0.6687    8.0230 H   0  0  0  0  0  0  0  0  0  0  0  0
    3.0278   -1.1331    7.1150 H   0  0  0  0  0  0  0  0  0  0  0  0
    3.2007   -0.4244    5.5411 H   0  0  0  0  0  0  0  0  0  0  0  0
    1.6376   -1.0456    6.0750 H   0  0  0  0  0  0  0  0  0  0  0  0
    3.9160    4.4762    6.6395 H   0  0  0  0  0  0  0  0  0  0  0  0
    4.5760    4.7506    4.4805 H   0  0  0  0  0  0  0  0  0  0  0  0
    4.2091    3.0651    4.1320 H   0  0  0  0  0  0  0  0  0  0  0  0
    1.7243    4.4207    2.0354 H   0  0  0  0  0  0  0  0  0  0  0  0
    2.9281    6.3253    6.0956 H   0  0  0  0  0  0  0  0  0  0  0  0
    1.2357    6.4993    5.7093 H   0  0  0  0  0  0  0  0  0  0  0  0
    1.6487    3.4819    7.8407 H   0  0  0  0  0  0  0  0  0  0  0  0
    1.2888    6.1517    7.7526 H   0  0  0  0  0  0  0  0  0  0  0  0
   -0.5837    3.7793    8.2843 H   0  0  0  0  0  0  0  0  0  0  0  0
   -0.6046    5.8718    7.8901 H   0  0  0  0  0  0  0  0  0  0  0  0
   -2.3987    2.5770    8.0097 H   0  0  0  0  0  0  0  0  0  0  0  0
   -3.2318    2.3798    6.4855 H   0  0  0  0  0  0  0  0  0  0  0  0
   -2.9401    3.9595    7.0916 H   0  0  0  0  0  0  0  0  0  0  0  0
  1  2  2  0
  1 38  1  0
  1 39  1  0
  2 36  1  0
  2  3  1  0
  3  4  1  0
  3  5  1  0
  3 40  1  6
  4 41  1  0
  5 27  1  6
  5 31  1  0
  5  6  1  0
  6  7  1  0
  6 11  1  0
  6 42  1  6
  7  8  1  0
  8  9  1  0
  8 10  2  0
  9 43  1  0
  9 44  1  0
  9 45  1  0
 11 12  1  0
 11 13  1  0
 11 46  1  6
 12 47  1  0
 13 36  1  0
 13 14  1  1
 13 16  1  0
 14 15  1  0
 14 48  1  0
 14 49  1  0
 15 50  1  0
 16 17  1  0
 16 21  1  0
 16 51  1  1
 17 18  1  0
 18 19  1  0
 18 20  2  0
 19 52  1  0
 19 53  1  0
 19 54  1  0
 21 22  1  0
 23 21  1  1
 21 55  1  1
 22 56  1  0
 22 57  1  0
 22 58  1  0
 23 24  2  0
 23 25  1  0
 25 31  1  0
 25 26  1  0
 25 59  1  1
 26 27  1  0
 26 60  1  0
 26 61  1  0
 27 28  1  6
 27 29  1  0
 28 62  1  0
 29 30  1  0
 31 30  1  6
 30 63  1  0
 30 64  1  0
 31 32  1  0
 32 33  1  0
 32 34  1  0
 32 65  1  1
 33 66  1  0
 34 35  1  0
 34 36  1  0
 34 67  1  1
 35 68  1  0
 36 37  1  1
 37 69  1  0
 37 70  1  0
 37 71  1  0
M  END
>  <i_m_ct_stereo_status>  (65) 
1

>  <s_m_source_file>  (65) 
/var/tmp/pbs.5075288.sched01/tmpndvtliwj/216foptgilz.sdf

>  <i_m_source_file_index>  (65) 
12

>  <i_lp_mmshare_version>  (65) 
48012

>  <i_f3d_flags>  (65) 
0

>  <s_epik_input>  (65) 
W0NIM11DKD1PKU9bQ0BIXTFbQ0BASF0oW09IXSlbQ0BdKFtDSDJdW09IXSkoW0NAXShbQ0gzXSkoQyg9W0NIMl0pW0NASF0yW09IXSlbQ0BIXShbT0hdKVtDQEBIXTNbT0hdKVtDQEBIXShPQyg9TylbQ0gzXSlbQ0BASF0oW0NIM10pW1MrXShbTy1dKVtDQEhdKFtDQEBdMzRbQ0BAXTEyNSlbQ0gyXVtDQF01KFtPSF0pT1tDSDJdNA==

>  <s_epik_cmdline>  (65) 
J2VwaWtfcHl0aG9uJywgJy1waHQnLCAnMi4wJywgJy1waCcsICc3LjAnLCAnLXRuJywgJzgnLCAnLW1hJywgJzIwMCcsICctaW1hZScsICc8aW5maWxlLm1hZT4nLCAnLW9tYWUnLCAnPG91dGZpbGUubWFlPic=

>  <r_lp_tautomer_probability>  (65) 
1

>  <r_epik_Ionization_Penalty>  (65) 
4.5925e-06

>  <r_epik_Ionization_Penalty_Charging>  (65) 
0

>  <r_epik_Ionization_Penalty_Neutral>  (65) 
4.5925e-06

>  <r_epik_State_Penalty>  (65) 
-0

>  <r_epik_Charging_Adjusted_Penalty>  (65) 
0

>  <i_epik_Tot_Q>  (65) 
0

>  <i_epik_Tot_abs_Q>  (65) 
2

>  <s_epik_Chemistry_Notes>  (65) 
This compound has an ester and may undergo hydrolysis at high or low pH.

>  <s_lp_Force_Field>  (65) 
OPLS3e

>  <r_lp_Energy>  (65) 
153.291

>  <b_lp_Chiralities_Consistent>  (65) 
1

>  <s_lp_Variant>  (65) 
79:0-1

>  <s_i_glide_gridfile>  (65) 
pfpi4k_grid

>  <i_i_glide_lignum>  (65) 
12

>  <i_i_glide_rotatable_bonds>  (65) 
11

>  <r_i_docking_score>  (65) 
-2.62079

>  <r_i_glide_ligand_efficiency>  (65) 
-0.0708322

>  <r_i_glide_ligand_efficiency_sa>  (65) 
-0.236029

>  <r_i_glide_ligand_efficiency_ln>  (65) 
-0.568388

>  <r_i_glide_gscore>  (65) 
-2.62079

>  <r_i_glide_lipo>  (65) 
-0.148686

>  <r_i_glide_hbond>  (65) 
0

>  <r_i_glide_metal>  (65) 
-0

>  <r_i_glide_rewards>  (65) 
-0.510058

>  <r_i_glide_evdw>  (65) 
-19.2274

>  <r_i_glide_ecoul>  (65) 
-7.78079

>  <r_i_glide_erotb>  (65) 
0.207971

>  <r_i_glide_esite>  (65) 
-0.04153

>  <r_i_glide_emodel>  (65) 
-36.0874

>  <r_i_glide_energy>  (65) 
-27.0082

>  <r_i_glide_einternal>  (65) 
3.31041

>  <r_i_glide_intrahb_reward>  (65) 
-0.5

>  <i_i_glide_confnum>  (65) 
5

>  <i_i_glide_posenum>  (65) 
1

>  <r_i_glide_eff_state_penalty>  (65) 
0

>  <ligand_id>  (65) 
79

>  <original_smiles>  (65) 
C=C1C(O)C23C(OC(C)=O)C(O)C4(CO)C(OC(C)=O)C(C)[S+]([O-])C5CC2(O)OCC53C(O)C(O)C14C

>  <smiles>  (65) 
[H]OC([H])([H])C12C([H])(O[H])C([H])(OC(=O)C([H])([H])[H])C34C([H])(O[H])C(=C([H])[H])C1(C([H])([H])[H])C([H])(O[H])C([H])(O[H])C31C([H])([H])OC4(O[H])C([H])([H])C1([H])S(=O)C([H])(C([H])([H])[H])C2([H])OC(=O)C([H])([H])[H]

$$$$
79:0:2
     RDKit          3D

 71 75  0  0  1  0  0  0  0  0999 V2000
    2.3209    5.1447    3.3229 C   0  0  0  0  0  0  0  0  0  0  0  0
    2.2255    4.3169    4.3827 C   0  0  0  0  0  0  0  0  0  0  0  0
    3.4479    4.2252    5.3095 C   0  0  1  0  0  0  0  0  0  0  0  0
    3.5587    5.4733    5.9678 O   0  0  0  0  0  0  0  0  0  0  0  0
    3.5921    2.8881    6.1424 C   0  0  1  0  0  0  0  0  0  0  0  0
    3.7765    1.7565    5.0313 C   0  0  1  0  0  0  0  0  0  0  0  0
    4.2220    0.4595    5.4465 O   0  0  0  0  0  0  0  0  0  0  0  0
    5.4525   -0.0258    5.1320 C   0  0  0  0  0  0  0  0  0  0  0  0
    5.7559   -1.3517    5.8218 C   0  0  0  0  0  0  0  0  0  0  0  0
    6.2975    0.5318    4.4282 O   0  0  0  0  0  0  0  0  0  0  0  0
    2.7331    1.6530    3.8899 C   0  0  1  0  0  0  0  0  0  0  0  0
    3.0574    0.5357    3.0879 O   0  0  0  0  0  0  0  0  0  0  0  0
    1.1936    1.9031    4.1800 C   0  0  1  0  0  0  0  0  0  0  0  0
    0.4911    1.7646    2.7508 C   0  0  0  0  0  0  0  0  0  0  0  0
    0.5891    0.5257    2.0597 O   0  0  0  0  0  0  0  0  0  0  0  0
    0.5469    0.8467    5.1916 C   0  0  1  0  0  0  0  0  0  0  0  0
   -0.5666    0.1333    4.6234 O   0  0  0  0  0  0  0  0  0  0  0  0
   -1.7589   -0.0855    5.2677 C   0  0  0  0  0  0  0  0  0  0  0  0
   -2.1728    0.9172    6.3570 C   0  0  0  0  0  0  0  0  0  0  0  0
   -2.4925   -1.0256    4.9927 O   0  0  0  0  0  0  0  0  0  0  0  0
    1.3515   -0.2988    5.9527 C   0  0  1  0  0  0  0  0  0  0  0  0
    1.8638   -1.5077    5.1342 C   0  0  0  0  0  0  0  0  0  0  0  0
    2.2915   -0.1267    7.5917 S   0  0  0  0  0  0  0  0  0  0  0  0
    1.2660   -0.4759    8.6737 O   0  0  0  0  0  0  0  0  0  0  0  0
    3.0849    1.5035    8.1238 C   0  0  1  0  0  0  0  0  0  0  0  0
    4.6262    1.5565    8.0091 C   0  0  0  0  0  0  0  0  0  0  0  0
    4.8300    2.8298    7.1098 C   0  0  1  0  0  0  0  0  0  0  0  0
    6.0973    2.8670    6.4828 O   0  0  0  0  0  0  0  0  0  0  0  0
    4.6661    3.8950    7.9847 O   0  0  0  0  0  0  0  0  0  0  0  0
    3.2846    3.9069    8.3168 C   0  0  0  0  0  0  0  0  0  0  0  0
    2.6683    2.7898    7.4078 C   0  0  1  0  0  0  0  0  0  0  0  0
    1.1450    2.9462    7.3839 C   0  0  1  0  0  0  0  0  0  0  0  0
    0.6423    3.4490    8.6095 O   0  0  0  0  0  0  0  0  0  0  0  0
    0.5216    3.7222    6.2075 C   0  0  1  0  0  0  0  0  0  0  0  0
    0.5628    5.1141    6.5051 O   0  0  0  0  0  0  0  0  0  0  0  0
    0.9609    3.4590    4.6952 C   0  0  1  0  0  0  0  0  0  0  0  0
   -0.2754    4.1264    3.9764 C   0  0  0  0  0  0  0  0  0  0  0  0
    1.5368    5.2909    2.5929 H   0  0  0  0  0  0  0  0  0  0  0  0
    3.2275    5.7045    3.1418 H   0  0  0  0  0  0  0  0  0  0  0  0
    4.3077    4.2328    4.6367 H   0  0  0  0  0  0  0  0  0  0  0  0
    3.6202    6.1465    5.3110 H   0  0  0  0  0  0  0  0  0  0  0  0
    4.6203    2.1420    4.4678 H   0  0  0  0  0  0  0  0  0  0  0  0
    5.1924   -1.4449    6.7499 H   0  0  0  0  0  0  0  0  0  0  0  0
    6.8127   -1.4016    6.0910 H   0  0  0  0  0  0  0  0  0  0  0  0
    5.5105   -2.1960    5.1767 H   0  0  0  0  0  0  0  0  0  0  0  0
    3.0159    2.4052    3.1547 H   0  0  0  0  0  0  0  0  0  0  0  0
    2.4234    0.5091    2.3798 H   0  0  0  0  0  0  0  0  0  0  0  0
   -0.5829    1.9634    2.7998 H   0  0  0  0  0  0  0  0  0  0  0  0
    0.9178    2.5030    2.0721 H   0  0  0  0  0  0  0  0  0  0  0  0
    0.1979    0.6158    1.1981 H   0  0  0  0  0  0  0  0  0  0  0  0
    0.0230    1.4587    5.8668 H   0  0  0  0  0  0  0  0  0  0  0  0
   -1.4180    1.0088    7.1416 H   0  0  0  0  0  0  0  0  0  0  0  0
   -3.1235    0.6396    6.8078 H   0  0  0  0  0  0  0  0  0  0  0  0
   -2.3151    1.8914    5.8955 H   0  0  0  0  0  0  0  0  0  0  0  0
    0.5152   -0.7923    6.4491 H   0  0  0  0  0  0  0  0  0  0  0  0
    1.3142   -2.4116    5.4052 H   0  0  0  0  0  0  0  0  0  0  0  0
    2.9171   -1.7113    5.3026 H   0  0  0  0  0  0  0  0  0  0  0  0
    1.6998   -1.3648    4.0693 H   0  0  0  0  0  0  0  0  0  0  0  0
    2.8360    1.5774    9.1832 H   0  0  0  0  0  0  0  0  0  0  0  0
    5.0879    1.7404    8.9802 H   0  0  0  0  0  0  0  0  0  0  0  0
    5.0691    0.6427    7.6311 H   0  0  0  0  0  0  0  0  0  0  0  0
    6.7498    2.6399    7.1264 H   0  0  0  0  0  0  0  0  0  0  0  0
    3.1672    3.7026    9.3831 H   0  0  0  0  0  0  0  0  0  0  0  0
    2.8682    4.8995    8.1654 H   0  0  0  0  0  0  0  0  0  0  0  0
    0.7078    1.9714    7.5011 H   0  0  0  0  0  0  0  0  0  0  0  0
   -0.2958    3.3564    8.6288 H   0  0  0  0  0  0  0  0  0  0  0  0
   -0.5400    3.4878    6.2908 H   0  0  0  0  0  0  0  0  0  0  0  0
    1.4652    5.4038    6.4973 H   0  0  0  0  0  0  0  0  0  0  0  0
   -1.2119    3.6178    4.2113 H   0  0  0  0  0  0  0  0  0  0  0  0
   -0.2073    4.1785    2.8884 H   0  0  0  0  0  0  0  0  0  0  0  0
   -0.4105    5.1670    4.2773 H   0  0  0  0  0  0  0  0  0  0  0  0
  1  2  2  0
  1 38  1  0
  1 39  1  0
  2 36  1  0
  2  3  1  0
  3  4  1  0
  3  5  1  0
  3 40  1  6
  4 41  1  0
  5 27  1  1
  5 31  1  0
  5  6  1  0
  6  7  1  0
  6 11  1  0
  6 42  1  6
  7  8  1  0
  8  9  1  0
  8 10  2  0
  9 43  1  0
  9 44  1  0
  9 45  1  0
 11 12  1  0
 11 13  1  0
 11 46  1  6
 12 47  1  0
 13 36  1  0
 13 14  1  6
 13 16  1  0
 14 15  1  0
 14 48  1  0
 14 49  1  0
 15 50  1  0
 16 17  1  0
 16 21  1  0
 16 51  1  1
 17 18  1  0
 18 19  1  0
 18 20  2  0
 19 52  1  0
 19 53  1  0
 19 54  1  0
 21 22  1  0
 23 21  1  6
 21 55  1  1
 22 56  1  0
 22 57  1  0
 22 58  1  0
 23 24  2  0
 23 25  1  0
 25 31  1  0
 25 26  1  0
 25 59  1  1
 26 27  1  0
 26 60  1  0
 26 61  1  0
 27 28  1  6
 27 29  1  0
 28 62  1  0
 29 30  1  0
 31 30  1  1
 30 63  1  0
 30 64  1  0
 31 32  1  0
 32 33  1  0
 32 34  1  0
 32 65  1  6
 33 66  1  0
 34 35  1  0
 34 36  1  0
 34 67  1  6
 35 68  1  0
 36 37  1  6
 37 69  1  0
 37 70  1  0
 37 71  1  0
M  END
>  <i_m_ct_stereo_status>  (66) 
1

>  <s_m_source_file>  (66) 
/var/tmp/pbs.5075288.sched01/tmpndvtliwj/216foptgilz.sdf

>  <i_m_source_file_index>  (66) 
12

>  <i_lp_mmshare_version>  (66) 
48012

>  <i_f3d_flags>  (66) 
0

>  <s_epik_input>  (66) 
W0NIM11DKD1PKU9bQ0BIXTFbQ0BASF0oW09IXSlbQ0BdKFtDSDJdW09IXSkoW0NAXShbQ0gzXSkoQyg9W0NIMl0pW0NASF0yW09IXSlbQ0BIXShbT0hdKVtDQEBIXTNbT0hdKVtDQEBIXShPQyg9TylbQ0gzXSlbQ0BASF0oW0NIM10pW1MrXShbTy1dKVtDQEhdKFtDQEBdMzRbQ0BAXTEyNSlbQ0gyXVtDQF01KFtPSF0pT1tDSDJdNA==

>  <s_epik_cmdline>  (66) 
J2VwaWtfcHl0aG9uJywgJy1waHQnLCAnMi4wJywgJy1waCcsICc3LjAnLCAnLXRuJywgJzgnLCAnLW1hJywgJzIwMCcsICctaW1hZScsICc8aW5maWxlLm1hZT4nLCAnLW9tYWUnLCAnPG91dGZpbGUubWFlPic=

>  <r_lp_tautomer_probability>  (66) 
1

>  <r_epik_Ionization_Penalty>  (66) 
4.5925e-06

>  <r_epik_Ionization_Penalty_Charging>  (66) 
0

>  <r_epik_Ionization_Penalty_Neutral>  (66) 
4.5925e-06

>  <r_epik_State_Penalty>  (66) 
-0

>  <r_epik_Charging_Adjusted_Penalty>  (66) 
0

>  <i_epik_Tot_Q>  (66) 
0

>  <i_epik_Tot_abs_Q>  (66) 
2

>  <s_epik_Chemistry_Notes>  (66) 
This compound has an ester and may undergo hydrolysis at high or low pH.

>  <s_lp_Force_Field>  (66) 
OPLS3e

>  <r_lp_Energy>  (66) 
153.291

>  <b_lp_Chiralities_Consistent>  (66) 
1

>  <s_lp_Variant>  (66) 
79:0-1

>  <s_i_glide_gridfile>  (66) 
pfpi4k_grid

>  <i_i_glide_lignum>  (66) 
12

>  <i_i_glide_rotatable_bonds>  (66) 
11

>  <r_i_docking_score>  (66) 
-2.08501

>  <r_i_glide_ligand_efficiency>  (66) 
-0.0563515

>  <r_i_glide_ligand_efficiency_sa>  (66) 
-0.187776

>  <r_i_glide_ligand_efficiency_ln>  (66) 
-0.452189

>  <r_i_glide_gscore>  (66) 
-2.08501

>  <r_i_glide_lipo>  (66) 
-0.0183604

>  <r_i_glide_hbond>  (66) 
0

>  <r_i_glide_metal>  (66) 
-0

>  <r_i_glide_rewards>  (66) 
-0.585259

>  <r_i_glide_evdw>  (66) 
-23.1655

>  <r_i_glide_ecoul>  (66) 
-3.18303

>  <r_i_glide_erotb>  (66) 
0.207971

>  <r_i_glide_esite>  (66) 
-0.0536276

>  <r_i_glide_emodel>  (66) 
-30.5004

>  <r_i_glide_energy>  (66) 
-26.3485

>  <r_i_glide_einternal>  (66) 
9.45743

>  <r_i_glide_intrahb_reward>  (66) 
-0.5

>  <i_i_glide_confnum>  (66) 
5

>  <i_i_glide_posenum>  (66) 
14

>  <r_i_glide_eff_state_penalty>  (66) 
0

>  <ligand_id>  (66) 
79

>  <original_smiles>  (66) 
C=C1C(O)C23C(OC(C)=O)C(O)C4(CO)C(OC(C)=O)C(C)[S+]([O-])C5CC2(O)OCC53C(O)C(O)C14C

>  <smiles>  (66) 
[H]OC([H])([H])C12C([H])(O[H])C([H])(OC(=O)C([H])([H])[H])C34C([H])(O[H])C(=C([H])[H])C1(C([H])([H])[H])C([H])(O[H])C([H])(O[H])C31C([H])([H])OC4(O[H])C([H])([H])C1([H])S(=O)C([H])(C([H])([H])[H])C2([H])OC(=O)C([H])([H])[H]

$$$$
80:0:0
     RDKit          3D

 55 59  0  0  1  0  0  0  0  0999 V2000
    2.8495   -4.3909    6.8732 O   0  0  0  0  0  0  0  0  0  0  0  0
    2.2384   -4.5142    5.8148 C   0  0  0  0  0  0  0  0  0  0  0  0
    1.6555   -3.5240    5.0845 O   0  0  0  0  0  0  0  0  0  0  0  0
    1.1900   -3.9582    3.7931 C   0  0  0  0  0  0  0  0  0  0  0  0
    2.0442   -5.2107    3.6542 C   0  0  1  0  0  0  0  0  0  0  0  0
    2.0134   -5.8256    5.0526 C   0  0  2  0  0  0  0  0  0  0  0  0
    0.7561   -6.2252    5.5453 O   0  0  0  0  0  0  0  0  0  0  0  0
    3.0480   -6.9899    5.2168 C   0  0  0  0  0  0  0  0  0  0  0  0
    2.6085   -8.4252    4.7520 C   0  0  1  0  0  0  0  0  0  0  0  0
    1.2528   -8.7178    5.1045 O   0  0  0  0  0  0  0  0  0  0  0  0
    0.2336   -8.9976    4.1447 C   0  0  0  0  0  0  0  0  0  0  0  0
   -0.0198   -7.9342    3.0490 C   0  0  1  0  0  0  0  0  0  0  0  0
   -0.8798   -6.9083    3.4952 O   0  0  0  0  0  0  0  0  0  0  0  0
    1.2313   -7.4188    2.3685 C   0  0  1  0  0  0  0  0  0  0  0  0
    2.0398   -8.5884    1.8638 C   0  0  0  0  0  0  0  0  0  0  0  0
    3.3209   -9.0380    3.1345 S   0  0  0  0  0  0  0  0  0  0  0  0
    4.6170   -8.2674    2.8091 O   0  0  0  0  0  0  0  0  0  0  0  0
    0.8735   -6.3031    1.5313 O   0  0  0  0  0  0  0  0  0  0  0  0
    1.9944   -6.1032    2.4066 C   0  0  1  0  0  0  0  0  0  0  0  0
    3.2838   -6.1938    1.7479 O   0  0  0  0  0  0  0  0  0  0  0  0
    3.7065   -5.0325    1.0609 C   0  0  2  0  0  0  0  0  0  0  0  0
    2.6812   -4.4973    0.2481 O   0  0  0  0  0  0  0  0  0  0  0  0
    2.9720   -3.2380   -0.3908 C   0  0  1  0  0  0  0  0  0  0  0  0
    3.1330   -2.0687    0.6428 C   0  0  0  0  0  0  0  0  0  0  0  0
    1.9021   -1.7322    1.2799 O   0  0  0  0  0  0  0  0  0  0  0  0
    4.1909   -3.4456   -1.3220 C   0  0  1  0  0  0  0  0  0  0  0  0
    4.5065   -2.2927   -2.1010 O   0  0  0  0  0  0  0  0  0  0  0  0
    5.4060   -4.0360   -0.5634 C   0  0  1  0  0  0  0  0  0  0  0  0
    5.9735   -3.0463    0.2970 O   0  0  0  0  0  0  0  0  0  0  0  0
    4.9786   -5.3179    0.2309 C   0  0  1  0  0  0  0  0  0  0  0  0
    6.0207   -5.7521    1.1167 O   0  0  0  0  0  0  0  0  0  0  0  0
    0.1206   -4.1931    3.7884 H   0  0  0  0  0  0  0  0  0  0  0  0
    1.3970   -3.2347    3.0092 H   0  0  0  0  0  0  0  0  0  0  0  0
    3.0685   -4.8365    3.5978 H   0  0  0  0  0  0  0  0  0  0  0  0
    0.5873   -7.0845    5.1750 H   0  0  0  0  0  0  0  0  0  0  0  0
    4.0035   -6.7308    4.7536 H   0  0  0  0  0  0  0  0  0  0  0  0
    3.2644   -7.0689    6.2823 H   0  0  0  0  0  0  0  0  0  0  0  0
    3.1783   -9.0764    5.4128 H   0  0  0  0  0  0  0  0  0  0  0  0
    0.4506   -9.9555    3.6692 H   0  0  0  0  0  0  0  0  0  0  0  0
   -0.6914   -9.1592    4.7004 H   0  0  0  0  0  0  0  0  0  0  0  0
   -0.5984   -8.4126    2.2616 H   0  0  0  0  0  0  0  0  0  0  0  0
   -1.5996   -7.3180    3.9577 H   0  0  0  0  0  0  0  0  0  0  0  0
    1.3933   -9.4280    1.6034 H   0  0  0  0  0  0  0  0  0  0  0  0
    2.5772   -8.2989    0.9780 H   0  0  0  0  0  0  0  0  0  0  0  0
    3.9313   -4.3064    1.8433 H   0  0  0  0  0  0  0  0  0  0  0  0
    2.1166   -3.0598   -1.0446 H   0  0  0  0  0  0  0  0  0  0  0  0
    3.8750   -2.2719    1.4262 H   0  0  0  0  0  0  0  0  0  0  0  0
    3.4817   -1.1762    0.1008 H   0  0  0  0  0  0  0  0  0  0  0  0
    1.3342   -1.3601    0.5592 H   0  0  0  0  0  0  0  0  0  0  0  0
    3.8839   -4.1521   -2.0730 H   0  0  0  0  0  0  0  0  0  0  0  0
    3.6802   -1.9800   -2.5004 H   0  0  0  0  0  0  0  0  0  0  0  0
    6.1825   -4.2833   -1.2920 H   0  0  0  0  0  0  0  0  0  0  0  0
    5.3197   -2.7330    0.9359 H   0  0  0  0  0  0  0  0  0  0  0  0
    4.7756   -6.1294   -0.4734 H   0  0  0  0  0  0  0  0  0  0  0  0
    5.7456   -6.5491    1.6003 H   0  0  0  0  0  0  0  0  0  0  0  0
  1  2  2  0
  2  6  1  0
  2  3  1  0
  3  4  1  0
  4  5  1  0
  4 32  1  0
  4 33  1  0
  5 19  1  0
  5  6  1  0
  5 34  1  6
  6  7  1  1
  6  8  1  0
  7 35  1  0
  8  9  1  0
  8 36  1  0
  8 37  1  0
  9 16  1  0
  9 10  1  0
  9 38  1  1
 10 11  1  0
 11 12  1  0
 11 39  1  0
 11 40  1  0
 12 13  1  0
 12 14  1  0
 12 41  1  6
 13 42  1  0
 14 19  1  0
 14 15  1  0
 14 18  1  6
 16 15  1  6
 15 43  1  0
 15 44  1  0
 16 17  2  0
 18 19  1  0
 19 20  1  6
 20 21  1  0
 21 30  1  0
 21 22  1  0
 21 45  1  1
 22 23  1  0
 23 24  1  0
 23 26  1  0
 23 46  1  6
 24 25  1  0
 24 47  1  0
 24 48  1  0
 25 49  1  0
 26 27  1  0
 26 28  1  0
 26 50  1  6
 27 51  1  0
 28 29  1  0
 28 30  1  0
 28 52  1  6
 29 53  1  0
 30 31  1  0
 30 54  1  6
 31 55  1  0
M  END
>  <i_m_ct_stereo_status>  (67) 
1

>  <s_m_source_file>  (67) 
/var/tmp/pbs.5075288.sched01/tmpndvtliwj/216foptgilz.sdf

>  <i_m_source_file_index>  (67) 
13

>  <i_lp_mmshare_version>  (67) 
48012

>  <i_f3d_flags>  (67) 
0

>  <s_epik_input>  (67) 
W09IXVtDQEBIXTFbQ0gyXU9bQ0hdKFtTK10oW08tXSlbQ0gyXTIpW0NIMl1bQ0BAXShbT0hdKShDKD1PKU9bQ0gyXTMpW0NASF0zW0NAQF0oW0NAXTEyNCkoTzQpT1tDQEBIXTVPW0NAQEhdKFtDSDJdW09IXSlbQ0BASF0oW09IXSlbQ0BASF0oW09IXSlbQ0BIXTVbT0hd

>  <s_epik_cmdline>  (67) 
J2VwaWtfcHl0aG9uJywgJy1waHQnLCAnMi4wJywgJy1waCcsICc3LjAnLCAnLXRuJywgJzgnLCAnLW1hJywgJzIwMCcsICctaW1hZScsICc8aW5maWxlLm1hZT4nLCAnLW9tYWUnLCAnPG91dGZpbGUubWFlPic=

>  <r_lp_tautomer_probability>  (67) 
1

>  <r_epik_Ionization_Penalty>  (67) 
7.00418e-06

>  <r_epik_Ionization_Penalty_Charging>  (67) 
0

>  <r_epik_Ionization_Penalty_Neutral>  (67) 
7.00418e-06

>  <r_epik_State_Penalty>  (67) 
-0

>  <r_epik_Charging_Adjusted_Penalty>  (67) 
0

>  <i_epik_Tot_Q>  (67) 
0

>  <i_epik_Tot_abs_Q>  (67) 
2

>  <s_epik_Chemistry_Notes>  (67) 
This compound has an ester and may undergo hydrolysis at high or low pH. This compound contains an acetal/aminal-like group ( X-CH(R)-Y where X, Y are N, S, or O) that may be acid/base labile, releasing an aldehyde.

>  <s_lp_Force_Field>  (67) 
OPLS3e

>  <r_lp_Energy>  (67) 
57.1062

>  <b_lp_Chiralities_Consistent>  (67) 
1

>  <s_lp_Variant>  (67) 
80:0-1

>  <s_i_glide_gridfile>  (67) 
pfpi4k_grid

>  <i_i_glide_lignum>  (67) 
13

>  <i_i_glide_rotatable_bonds>  (67) 
9

>  <r_i_docking_score>  (67) 
-3.73297

>  <r_i_glide_ligand_efficiency>  (67) 
-0.120418

>  <r_i_glide_ligand_efficiency_sa>  (67) 
-0.37828

>  <r_i_glide_ligand_efficiency_ln>  (67) 
-0.8419

>  <r_i_glide_gscore>  (67) 
-3.73297

>  <r_i_glide_lipo>  (67) 
-0.119098

>  <r_i_glide_hbond>  (67) 
-0.145576

>  <r_i_glide_metal>  (67) 
-0

>  <r_i_glide_rewards>  (67) 
-0.725278

>  <r_i_glide_evdw>  (67) 
-19.773

>  <r_i_glide_ecoul>  (67) 
-13.3584

>  <r_i_glide_erotb>  (67) 
0.276035

>  <r_i_glide_esite>  (67) 
-0.0266484

>  <r_i_glide_emodel>  (67) 
-45.0253

>  <r_i_glide_energy>  (67) 
-33.1314

>  <r_i_glide_einternal>  (67) 
3.19612

>  <r_i_glide_intrahb_reward>  (67) 
-0.5

>  <i_i_glide_confnum>  (67) 
4

>  <i_i_glide_posenum>  (67) 
16

>  <r_i_glide_eff_state_penalty>  (67) 
0

>  <ligand_id>  (67) 
80

>  <original_smiles>  (67) 
O=C1OCC2C1(O)CC1OCC(O)C3(C[S+]1[O-])OC23OC1OC(CO)C(O)C(O)C1O

>  <smiles>  (67) 
[H]OC([H])([H])C1([H])OC([H])(OC23OC24C([H])([H])S(=O)C([H])(OC([H])([H])C4([H])O[H])C([H])([H])C2(O[H])C(=O)OC([H])([H])C32[H])C([H])(O[H])C([H])(O[H])C1([H])O[H]

$$$$
80:0:1
     RDKit          3D

 55 59  0  0  1  0  0  0  0  0999 V2000
    9.0087   -4.3568    0.6800 O   0  0  0  0  0  0  0  0  0  0  0  0
    7.8101   -4.5947    0.5378 C   0  0  0  0  0  0  0  0  0  0  0  0
    7.2096   -5.8236    0.5475 O   0  0  0  0  0  0  0  0  0  0  0  0
    5.7708   -5.7755    0.4768 C   0  0  0  0  0  0  0  0  0  0  0  0
    5.5879   -4.3466    0.9785 C   0  0  1  0  0  0  0  0  0  0  0  0
    6.7053   -3.5544    0.3056 C   0  0  2  0  0  0  0  0  0  0  0  0
    6.7094   -3.4689   -1.0977 O   0  0  0  0  0  0  0  0  0  0  0  0
    6.9140   -2.1253    0.8905 C   0  0  0  0  0  0  0  0  0  0  0  0
    5.9871   -0.9925    0.3147 C   0  0  1  0  0  0  0  0  0  0  0  0
    5.8151   -1.0569   -1.1066 O   0  0  0  0  0  0  0  0  0  0  0  0
    4.5331   -1.2574   -1.7173 C   0  0  0  0  0  0  0  0  0  0  0  0
    3.7082   -2.4936   -1.2682 C   0  0  1  0  0  0  0  0  0  0  0  0
    4.2030   -3.6176   -1.9672 O   0  0  0  0  0  0  0  0  0  0  0  0
    3.6313   -2.6808    0.2352 C   0  0  1  0  0  0  0  0  0  0  0  0
    3.1376   -1.4281    0.9044 C   0  0  0  0  0  0  0  0  0  0  0  0
    4.6052   -0.4183    1.4521 S   0  0  0  0  0  0  0  0  0  0  0  0
    4.9539   -0.7440    2.9037 O   0  0  0  0  0  0  0  0  0  0  0  0
    3.0133   -3.9591    0.4996 O   0  0  0  0  0  0  0  0  0  0  0  0
    4.2471   -3.6886    1.1923 C   0  0  1  0  0  0  0  0  0  0  0  0
    4.0970   -3.2936    2.5741 O   0  0  0  0  0  0  0  0  0  0  0  0
    3.3602   -4.1977    3.3663 C   0  0  2  0  0  0  0  0  0  0  0  0
    1.9762   -3.9426    3.2952 O   0  0  0  0  0  0  0  0  0  0  0  0
    1.1305   -4.8431    4.0265 C   0  0  1  0  0  0  0  0  0  0  0  0
    1.1132   -6.2757    3.3742 C   0  0  0  0  0  0  0  0  0  0  0  0
    0.4476   -6.3163    2.1155 O   0  0  0  0  0  0  0  0  0  0  0  0
    1.5403   -4.7866    5.5225 C   0  0  1  0  0  0  0  0  0  0  0  0
    0.7305   -5.6272    6.3355 O   0  0  0  0  0  0  0  0  0  0  0  0
    3.0324   -5.0601    5.7403 C   0  0  1  0  0  0  0  0  0  0  0  0
    3.3312   -6.4417    5.4988 O   0  0  0  0  0  0  0  0  0  0  0  0
    3.8647   -4.1400    4.8239 C   0  0  1  0  0  0  0  0  0  0  0  0
    5.2403   -4.5298    4.8497 O   0  0  0  0  0  0  0  0  0  0  0  0
    5.3773   -5.8828   -0.5432 H   0  0  0  0  0  0  0  0  0  0  0  0
    5.2853   -6.5135    1.1177 H   0  0  0  0  0  0  0  0  0  0  0  0
    5.9151   -4.4473    2.0288 H   0  0  0  0  0  0  0  0  0  0  0  0
    5.8935   -3.0690   -1.3598 H   0  0  0  0  0  0  0  0  0  0  0  0
    6.8129   -2.1314    1.9676 H   0  0  0  0  0  0  0  0  0  0  0  0
    7.9351   -1.8231    0.6700 H   0  0  0  0  0  0  0  0  0  0  0  0
    6.6022   -0.1016    0.4175 H   0  0  0  0  0  0  0  0  0  0  0  0
    3.9548   -0.3515   -1.5819 H   0  0  0  0  0  0  0  0  0  0  0  0
    4.7107   -1.3205   -2.7961 H   0  0  0  0  0  0  0  0  0  0  0  0
    2.6760   -2.3492   -1.6125 H   0  0  0  0  0  0  0  0  0  0  0  0
    3.5553   -4.3175   -1.9187 H   0  0  0  0  0  0  0  0  0  0  0  0
    2.6539   -0.8104    0.1677 H   0  0  0  0  0  0  0  0  0  0  0  0
    2.4421   -1.6737    1.7151 H   0  0  0  0  0  0  0  0  0  0  0  0
    3.5199   -5.1938    2.9462 H   0  0  0  0  0  0  0  0  0  0  0  0
    0.1240   -4.4184    4.0077 H   0  0  0  0  0  0  0  0  0  0  0  0
    2.1217   -6.6639    3.2395 H   0  0  0  0  0  0  0  0  0  0  0  0
    0.5551   -6.9778    4.0047 H   0  0  0  0  0  0  0  0  0  0  0  0
    0.6425   -7.1779    1.7036 H   0  0  0  0  0  0  0  0  0  0  0  0
    1.3546   -3.7800    5.8731 H   0  0  0  0  0  0  0  0  0  0  0  0
    0.8787   -6.5557    6.1033 H   0  0  0  0  0  0  0  0  0  0  0  0
    3.2757   -4.8608    6.7857 H   0  0  0  0  0  0  0  0  0  0  0  0
    3.0888   -6.7090    4.5959 H   0  0  0  0  0  0  0  0  0  0  0  0
    3.8048   -3.1220    5.2079 H   0  0  0  0  0  0  0  0  0  0  0  0
    5.2869   -5.4829    4.6663 H   0  0  0  0  0  0  0  0  0  0  0  0
  1  2  2  0
  2  6  1  0
  2  3  1  0
  3  4  1  0
  4  5  1  0
  4 32  1  0
  4 33  1  0
  5 19  1  0
  5  6  1  0
  5 34  1  1
  6  7  1  6
  6  8  1  0
  7 35  1  0
  8  9  1  0
  8 36  1  0
  8 37  1  0
  9 16  1  0
  9 10  1  0
  9 38  1  6
 10 11  1  0
 11 12  1  0
 11 39  1  0
 11 40  1  0
 12 13  1  0
 12 14  1  0
 12 41  1  6
 13 42  1  0
 14 19  1  0
 14 15  1  0
 14 18  1  6
 16 15  1  6
 15 43  1  0
 15 44  1  0
 16 17  2  0
 18 19  1  0
 19 20  1  1
 20 21  1  0
 21 30  1  0
 21 22  1  0
 21 45  1  6
 22 23  1  0
 23 24  1  0
 23 26  1  0
 23 46  1  1
 24 25  1  0
 24 47  1  0
 24 48  1  0
 25 49  1  0
 26 27  1  0
 26 28  1  0
 26 50  1  1
 27 51  1  0
 28 29  1  0
 28 30  1  0
 28 52  1  1
 29 53  1  0
 30 31  1  0
 30 54  1  1
 31 55  1  0
M  END
>  <i_m_ct_stereo_status>  (68) 
1

>  <s_m_source_file>  (68) 
/var/tmp/pbs.5075288.sched01/tmpndvtliwj/216foptgilz.sdf

>  <i_m_source_file_index>  (68) 
13

>  <i_lp_mmshare_version>  (68) 
48012

>  <i_f3d_flags>  (68) 
0

>  <s_epik_input>  (68) 
W09IXVtDQEBIXTFbQ0gyXU9bQ0hdKFtTK10oW08tXSlbQ0gyXTIpW0NIMl1bQ0BAXShbT0hdKShDKD1PKU9bQ0gyXTMpW0NASF0zW0NAQF0oW0NAXTEyNCkoTzQpT1tDQEBIXTVPW0NAQEhdKFtDSDJdW09IXSlbQ0BASF0oW09IXSlbQ0BASF0oW09IXSlbQ0BIXTVbT0hd

>  <s_epik_cmdline>  (68) 
J2VwaWtfcHl0aG9uJywgJy1waHQnLCAnMi4wJywgJy1waCcsICc3LjAnLCAnLXRuJywgJzgnLCAnLW1hJywgJzIwMCcsICctaW1hZScsICc8aW5maWxlLm1hZT4nLCAnLW9tYWUnLCAnPG91dGZpbGUubWFlPic=

>  <r_lp_tautomer_probability>  (68) 
1

>  <r_epik_Ionization_Penalty>  (68) 
7.00418e-06

>  <r_epik_Ionization_Penalty_Charging>  (68) 
0

>  <r_epik_Ionization_Penalty_Neutral>  (68) 
7.00418e-06

>  <r_epik_State_Penalty>  (68) 
-0

>  <r_epik_Charging_Adjusted_Penalty>  (68) 
0

>  <i_epik_Tot_Q>  (68) 
0

>  <i_epik_Tot_abs_Q>  (68) 
2

>  <s_epik_Chemistry_Notes>  (68) 
This compound has an ester and may undergo hydrolysis at high or low pH. This compound contains an acetal/aminal-like group ( X-CH(R)-Y where X, Y are N, S, or O) that may be acid/base labile, releasing an aldehyde.

>  <s_lp_Force_Field>  (68) 
OPLS3e

>  <r_lp_Energy>  (68) 
57.1062

>  <b_lp_Chiralities_Consistent>  (68) 
1

>  <s_lp_Variant>  (68) 
80:0-1

>  <s_i_glide_gridfile>  (68) 
pfpi4k_grid

>  <i_i_glide_lignum>  (68) 
13

>  <i_i_glide_rotatable_bonds>  (68) 
9

>  <r_i_docking_score>  (68) 
-3.60585

>  <r_i_glide_ligand_efficiency>  (68) 
-0.116318

>  <r_i_glide_ligand_efficiency_sa>  (68) 
-0.365398

>  <r_i_glide_ligand_efficiency_ln>  (68) 
-0.81323

>  <r_i_glide_gscore>  (68) 
-3.60585

>  <r_i_glide_lipo>  (68) 
-0.407856

>  <r_i_glide_hbond>  (68) 
-0.0890578

>  <r_i_glide_metal>  (68) 
-0

>  <r_i_glide_rewards>  (68) 
-0.639869

>  <r_i_glide_evdw>  (68) 
-24.3742

>  <r_i_glide_ecoul>  (68) 
-10.176

>  <r_i_glide_erotb>  (68) 
0.276035

>  <r_i_glide_esite>  (68) 
0

>  <r_i_glide_emodel>  (68) 
-42.1138

>  <r_i_glide_energy>  (68) 
-34.5502

>  <r_i_glide_einternal>  (68) 
1.93815

>  <r_i_glide_intrahb_reward>  (68) 
-0

>  <i_i_glide_confnum>  (68) 
3

>  <i_i_glide_posenum>  (68) 
2

>  <r_i_glide_eff_state_penalty>  (68) 
0

>  <ligand_id>  (68) 
80

>  <original_smiles>  (68) 
O=C1OCC2C1(O)CC1OCC(O)C3(C[S+]1[O-])OC23OC1OC(CO)C(O)C(O)C1O

>  <smiles>  (68) 
[H]OC([H])([H])C1([H])OC([H])(OC23OC24C([H])([H])S(=O)C([H])(OC([H])([H])C4([H])O[H])C([H])([H])C2(O[H])C(=O)OC([H])([H])C32[H])C([H])(O[H])C([H])(O[H])C1([H])O[H]

$$$$
80:0:2
     RDKit          3D

 55 59  0  0  1  0  0  0  0  0999 V2000
    2.3563   -4.8776    7.1805 O   0  0  0  0  0  0  0  0  0  0  0  0
    1.8864   -4.8793    6.0592 C   0  0  0  0  0  0  0  0  0  0  0  0
    1.4178   -3.8164    5.3634 O   0  0  0  0  0  0  0  0  0  0  0  0
    1.1372   -4.0977    3.9859 C   0  0  0  0  0  0  0  0  0  0  0  0
    2.0054   -5.3387    3.8287 C   0  0  1  0  0  0  0  0  0  0  0  0
    1.7816   -6.0978    5.1321 C   0  0  2  0  0  0  0  0  0  0  0  0
    0.4701   -6.5667    5.3381 O   0  0  0  0  0  0  0  0  0  0  0  0
    2.7881   -7.2866    5.3306 C   0  0  0  0  0  0  0  0  0  0  0  0
    2.4175   -8.6733    4.6749 C   0  0  1  0  0  0  0  0  0  0  0  0
    1.0245   -8.9751    4.8340 O   0  0  0  0  0  0  0  0  0  0  0  0
    0.1457   -9.1646    3.7263 C   0  0  0  0  0  0  0  0  0  0  0  0
    0.0191   -7.9858    2.7249 C   0  0  1  0  0  0  0  0  0  0  0  0
   -0.9483   -7.0209    3.1448 O   0  0  0  0  0  0  0  0  0  0  0  0
    1.3635   -7.4346    2.2437 C   0  0  1  0  0  0  0  0  0  0  0  0
    2.2534   -8.5275    1.6998 C   0  0  0  0  0  0  0  0  0  0  0  0
    3.3112   -9.1432    3.0924 S   0  0  0  0  0  0  0  0  0  0  0  0
    4.6581   -8.3741    3.0458 O   0  0  0  0  0  0  0  0  0  0  0  0
    1.0772   -6.2399    1.4944 O   0  0  0  0  0  0  0  0  0  0  0  0
    2.0955   -6.1066    2.5126 C   0  0  1  0  0  0  0  0  0  0  0  0
    3.4492   -6.1522    2.0239 O   0  0  0  0  0  0  0  0  0  0  0  0
    3.9305   -4.9465    1.4532 C   0  0  2  0  0  0  0  0  0  0  0  0
    3.0587   -4.4809    0.4462 O   0  0  0  0  0  0  0  0  0  0  0  0
    3.4010   -3.2061   -0.1236 C   0  0  1  0  0  0  0  0  0  0  0  0
    3.2542   -2.0396    0.9168 C   0  0  0  0  0  0  0  0  0  0  0  0
    1.8960   -1.8050    1.2907 O   0  0  0  0  0  0  0  0  0  0  0  0
    4.7974   -3.3509   -0.7713 C   0  0  1  0  0  0  0  0  0  0  0  0
    5.2199   -2.1530   -1.4140 O   0  0  0  0  0  0  0  0  0  0  0  0
    5.8682   -3.8458    0.2096 C   0  0  1  0  0  0  0  0  0  0  0  0
    6.1532   -2.8111    1.1545 O   0  0  0  0  0  0  0  0  0  0  0  0
    5.3670   -5.1435    0.8954 C   0  0  1  0  0  0  0  0  0  0  0  0
    6.2281   -5.5375    1.9617 O   0  0  0  0  0  0  0  0  0  0  0  0
    0.0795   -4.3237    3.8250 H   0  0  0  0  0  0  0  0  0  0  0  0
    1.4337   -3.3009    3.3063 H   0  0  0  0  0  0  0  0  0  0  0  0
    3.0398   -4.9852    3.9374 H   0  0  0  0  0  0  0  0  0  0  0  0
    0.5063   -7.5074    5.1495 H   0  0  0  0  0  0  0  0  0  0  0  0
    3.7917   -6.9934    5.0203 H   0  0  0  0  0  0  0  0  0  0  0  0
    2.8756   -7.4691    6.4028 H   0  0  0  0  0  0  0  0  0  0  0  0
    2.9025   -9.3876    5.3437 H   0  0  0  0  0  0  0  0  0  0  0  0
    0.4404  -10.0675    3.1924 H   0  0  0  0  0  0  0  0  0  0  0  0
   -0.8420   -9.3853    4.1276 H   0  0  0  0  0  0  0  0  0  0  0  0
   -0.4345   -8.3774    1.8207 H   0  0  0  0  0  0  0  0  0  0  0  0
   -0.6768   -6.7201    4.0167 H   0  0  0  0  0  0  0  0  0  0  0  0
    1.6356   -9.3202    1.3056 H   0  0  0  0  0  0  0  0  0  0  0  0
    2.8489   -8.1658    0.8656 H   0  0  0  0  0  0  0  0  0  0  0  0
    3.9310   -4.1989    2.2525 H   0  0  0  0  0  0  0  0  0  0  0  0
    2.6963   -3.0468   -0.9395 H   0  0  0  0  0  0  0  0  0  0  0  0
    3.8393   -2.2300    1.8230 H   0  0  0  0  0  0  0  0  0  0  0  0
    3.6401   -1.1073    0.4777 H   0  0  0  0  0  0  0  0  0  0  0  0
    1.4168   -1.4418    0.4958 H   0  0  0  0  0  0  0  0  0  0  0  0
    4.7172   -4.1048   -1.5489 H   0  0  0  0  0  0  0  0  0  0  0  0
    5.0375   -1.4072   -0.8260 H   0  0  0  0  0  0  0  0  0  0  0  0
    6.7778   -4.0861   -0.3539 H   0  0  0  0  0  0  0  0  0  0  0  0
    6.4721   -2.0248    0.6934 H   0  0  0  0  0  0  0  0  0  0  0  0
    5.3626   -5.9552    0.1722 H   0  0  0  0  0  0  0  0  0  0  0  0
    7.1348   -5.6804    1.6448 H   0  0  0  0  0  0  0  0  0  0  0  0
  1  2  2  0
  2  6  1  0
  2  3  1  0
  3  4  1  0
  4  5  1  0
  4 32  1  0
  4 33  1  0
  5 19  1  0
  5  6  1  0
  5 34  1  1
  6  7  1  6
  6  8  1  0
  7 35  1  0
  8  9  1  0
  8 36  1  0
  8 37  1  0
  9 16  1  0
  9 10  1  0
  9 38  1  1
 10 11  1  0
 11 12  1  0
 11 39  1  0
 11 40  1  0
 12 13  1  0
 12 14  1  0
 12 41  1  6
 13 42  1  0
 14 19  1  0
 14 15  1  0
 14 18  1  6
 16 15  1  6
 15 43  1  0
 15 44  1  0
 16 17  2  0
 18 19  1  0
 19 20  1  6
 20 21  1  0
 21 30  1  0
 21 22  1  0
 21 45  1  1
 22 23  1  0
 23 24  1  0
 23 26  1  0
 23 46  1  6
 24 25  1  0
 24 47  1  0
 24 48  1  0
 25 49  1  0
 26 27  1  0
 26 28  1  0
 26 50  1  6
 27 51  1  0
 28 29  1  0
 28 30  1  0
 28 52  1  6
 29 53  1  0
 30 31  1  0
 30 54  1  6
 31 55  1  0
M  END
>  <i_m_ct_stereo_status>  (69) 
1

>  <s_m_source_file>  (69) 
/var/tmp/pbs.5075288.sched01/tmpndvtliwj/216foptgilz.sdf

>  <i_m_source_file_index>  (69) 
13

>  <i_lp_mmshare_version>  (69) 
48012

>  <i_f3d_flags>  (69) 
0

>  <s_epik_input>  (69) 
W09IXVtDQEBIXTFbQ0gyXU9bQ0hdKFtTK10oW08tXSlbQ0gyXTIpW0NIMl1bQ0BAXShbT0hdKShDKD1PKU9bQ0gyXTMpW0NASF0zW0NAQF0oW0NAXTEyNCkoTzQpT1tDQEBIXTVPW0NAQEhdKFtDSDJdW09IXSlbQ0BASF0oW09IXSlbQ0BASF0oW09IXSlbQ0BIXTVbT0hd

>  <s_epik_cmdline>  (69) 
J2VwaWtfcHl0aG9uJywgJy1waHQnLCAnMi4wJywgJy1waCcsICc3LjAnLCAnLXRuJywgJzgnLCAnLW1hJywgJzIwMCcsICctaW1hZScsICc8aW5maWxlLm1hZT4nLCAnLW9tYWUnLCAnPG91dGZpbGUubWFlPic=

>  <r_lp_tautomer_probability>  (69) 
1

>  <r_epik_Ionization_Penalty>  (69) 
7.00418e-06

>  <r_epik_Ionization_Penalty_Charging>  (69) 
0

>  <r_epik_Ionization_Penalty_Neutral>  (69) 
7.00418e-06

>  <r_epik_State_Penalty>  (69) 
-0

>  <r_epik_Charging_Adjusted_Penalty>  (69) 
0

>  <i_epik_Tot_Q>  (69) 
0

>  <i_epik_Tot_abs_Q>  (69) 
2

>  <s_epik_Chemistry_Notes>  (69) 
This compound has an ester and may undergo hydrolysis at high or low pH. This compound contains an acetal/aminal-like group ( X-CH(R)-Y where X, Y are N, S, or O) that may be acid/base labile, releasing an aldehyde.

>  <s_lp_Force_Field>  (69) 
OPLS3e

>  <r_lp_Energy>  (69) 
57.1062

>  <b_lp_Chiralities_Consistent>  (69) 
1

>  <s_lp_Variant>  (69) 
80:0-1

>  <s_i_glide_gridfile>  (69) 
pfpi4k_grid

>  <i_i_glide_lignum>  (69) 
13

>  <i_i_glide_rotatable_bonds>  (69) 
9

>  <r_i_docking_score>  (69) 
-3.55154

>  <r_i_glide_ligand_efficiency>  (69) 
-0.114566

>  <r_i_glide_ligand_efficiency_sa>  (69) 
-0.359895

>  <r_i_glide_ligand_efficiency_ln>  (69) 
-0.800981

>  <r_i_glide_gscore>  (69) 
-3.55154

>  <r_i_glide_lipo>  (69) 
-0.195104

>  <r_i_glide_hbond>  (69) 
-0.129578

>  <r_i_glide_metal>  (69) 
-0

>  <r_i_glide_rewards>  (69) 
-0.738268

>  <r_i_glide_evdw>  (69) 
-20.0263

>  <r_i_glide_ecoul>  (69) 
-11.6008

>  <r_i_glide_erotb>  (69) 
0.276035

>  <r_i_glide_esite>  (69) 
-0.0231891

>  <r_i_glide_emodel>  (69) 
-43.1989

>  <r_i_glide_energy>  (69) 
-31.6271

>  <r_i_glide_einternal>  (69) 
1.90362

>  <r_i_glide_intrahb_reward>  (69) 
-0.5

>  <i_i_glide_confnum>  (69) 
3

>  <i_i_glide_posenum>  (69) 
27

>  <r_i_glide_eff_state_penalty>  (69) 
0

>  <ligand_id>  (69) 
80

>  <original_smiles>  (69) 
O=C1OCC2C1(O)CC1OCC(O)C3(C[S+]1[O-])OC23OC1OC(CO)C(O)C(O)C1O

>  <smiles>  (69) 
[H]OC([H])([H])C1([H])OC([H])(OC23OC24C([H])([H])S(=O)C([H])(OC([H])([H])C4([H])O[H])C([H])([H])C2(O[H])C(=O)OC([H])([H])C32[H])C([H])(O[H])C([H])(O[H])C1([H])O[H]

$$$$
81:0:0
     RDKit          3D

111120  0  0  1  0  0  0  0  0999 V2000
    2.3264   -3.7940    9.6839 C   0  0  0  0  0  0  0  0  0  0  0  0
    1.6798   -2.8616    8.6382 C   0  0  0  0  0  0  0  0  0  0  0  0
    0.5186   -2.9283    8.3617 O   0  0  0  0  0  0  0  0  0  0  0  0
    2.6274   -2.0789    8.0514 O   0  0  0  0  0  0  0  0  0  0  0  0
    2.3292   -1.0770    7.0397 C   0  0  2  0  0  0  0  0  0  0  0  0
    1.3875   -0.0271    7.6925 C   0  0  1  0  0  0  0  0  0  0  0  0
    1.8089    1.2984    7.5043 O   0  0  0  0  0  0  0  0  0  0  0  0
    0.0116   -0.3485    7.1041 C   0  0  1  0  0  0  0  0  0  0  0  0
   -0.9961    0.6389    7.2185 O   0  0  0  0  0  0  0  0  0  0  0  0
    0.2076   -1.0247    5.7089 C   0  0  1  0  0  0  0  0  0  0  0  0
   -0.9622   -2.0213    5.4958 C   0  0  0  0  0  0  0  0  0  0  0  0
    0.0876   -0.1157    4.6221 O   0  0  0  0  0  0  0  0  0  0  0  0
    0.9005    1.0248    4.6646 C   0  0  2  0  0  0  0  0  0  0  0  0
    1.3699    1.5438    3.4272 O   0  0  0  0  0  0  0  0  0  0  0  0
    2.3226    0.7456    4.1884 C   0  0  1  0  0  0  0  0  0  0  0  0
    3.3896    1.6254    4.8383 C   0  0  0  0  0  0  0  0  0  0  0  0
    2.7163   -0.6107    3.4870 C   0  0  1  0  0  0  0  0  0  0  0  0
    1.9803   -0.5957    2.0940 C   0  0  0  0  0  0  0  0  0  0  0  0
    4.2068   -0.7821    2.9660 C   0  0  1  0  0  0  0  0  0  0  0  0
    5.2283    0.0627    3.3608 O   0  0  0  0  0  0  0  0  0  0  0  0
    4.6349   -2.2112    3.2633 C   0  0  0  0  0  0  0  0  0  0  0  0
    3.8021   -2.7645    4.4293 C   0  0  1  0  0  0  0  0  0  0  0  0
    4.6443   -3.0537    5.7376 C   0  0  0  0  0  0  0  0  0  0  0  0
    4.9346   -4.1448    6.5029 C   0  0  0  0  0  0  0  0  0  0  0  0
    5.9809   -3.7303    7.5232 C   0  0  0  0  0  0  0  0  0  0  0  0
    6.2474   -2.3941    7.2473 O   0  0  0  0  0  0  0  0  0  0  0  0
    5.5109   -1.9433    6.2518 C   0  0  0  0  0  0  0  0  0  0  0  0
    5.5631   -0.7903    5.8833 O   0  0  0  0  0  0  0  0  0  0  0  0
    4.4953   -5.6749    6.6460 C   0  0  1  0  0  0  0  0  0  0  0  0
    5.5859   -6.4775    7.4085 C   0  0  0  0  0  0  0  0  0  0  0  0
    3.2350   -5.8295    7.5031 C   0  0  0  0  0  0  0  0  0  0  0  0
    2.4118   -7.1268    7.4130 C   0  0  0  0  0  0  0  0  0  0  0  0
    1.3801   -7.2995    6.2848 C   0  0  1  0  0  0  0  0  0  0  0  0
    0.4509   -5.7111    6.0362 S   0  0  0  0  0  0  0  0  0  0  0  0
   -0.9420   -5.9805    5.4476 O   0  0  0  0  0  0  0  0  0  0  0  0
    1.6015   -5.1838    4.6775 C   0  0  2  0  0  0  0  0  0  0  0  0
    1.0523   -4.1522    3.7332 C   0  0  0  0  0  0  0  0  0  0  0  0
    1.3816   -2.8443    3.6187 C   0  0  0  0  0  0  0  0  0  0  0  0
    2.4112   -1.9497    4.3828 C   0  0  2  0  0  0  0  0  0  0  0  0
    1.6390   -1.6866    5.7651 C   0  0  1  0  0  0  0  0  0  0  0  0
    2.3826   -6.4244    4.1012 C   0  0  2  0  0  0  0  0  0  0  0  0
    3.7055   -5.9061    4.3739 O   0  0  0  0  0  0  0  0  0  0  0  0
    4.4100   -6.5238    5.5035 O   0  0  0  0  0  0  0  0  0  0  0  0
    2.6223   -6.6877    2.5375 C   0  0  1  0  0  0  0  0  0  0  0  0
    1.3383   -6.9410    1.6908 C   0  0  0  0  0  0  0  0  0  0  0  0
    3.2398   -5.4783    1.8262 C   0  0  0  0  0  0  0  0  0  0  0  0
    4.5174   -5.3395    1.4285 C   0  0  0  0  0  0  0  0  0  0  0  0
    5.5371   -6.3414    1.7326 C   0  0  0  0  0  0  0  0  0  0  0  0
    6.7380   -6.0785    1.6006 O   0  0  0  0  0  0  0  0  0  0  0  0
    5.1286   -7.7375    2.2300 C   0  0  1  0  0  0  0  0  0  0  0  0
    5.7797   -8.7824    1.2819 C   0  0  0  0  0  0  0  0  0  0  0  0
    5.7773   -7.9572    3.4683 O   0  0  0  0  0  0  0  0  0  0  0  0
    3.5728   -7.9556    2.3509 C   0  0  1  0  0  0  0  0  0  0  0  0
    3.1962   -9.1844    3.2411 C   0  0  0  0  0  0  0  0  0  0  0  0
    2.8316   -8.8809    4.7184 C   0  0  0  0  0  0  0  0  0  0  0  0
    1.8289   -7.7088    4.8484 C   0  0  1  0  0  0  0  0  0  0  0  0
    0.4806   -8.2436    4.2470 C   0  0  0  0  0  0  0  0  0  0  0  0
    2.5418   -3.2940   10.6551 H   0  0  0  0  0  0  0  0  0  0  0  0
    3.2247   -4.1656    9.2630 H   0  0  0  0  0  0  0  0  0  0  0  0
    1.5970   -4.5967    9.8426 H   0  0  0  0  0  0  0  0  0  0  0  0
    3.2496   -0.5795    6.7510 H   0  0  0  0  0  0  0  0  0  0  0  0
    1.3865   -0.1408    8.7799 H   0  0  0  0  0  0  0  0  0  0  0  0
    1.9037    1.4743    6.5856 H   0  0  0  0  0  0  0  0  0  0  0  0
   -0.4096   -1.0792    7.7534 H   0  0  0  0  0  0  0  0  0  0  0  0
   -0.7166    1.4315    6.7870 H   0  0  0  0  0  0  0  0  0  0  0  0
   -0.8719   -2.9103    6.1109 H   0  0  0  0  0  0  0  0  0  0  0  0
   -1.0216   -2.3458    4.4613 H   0  0  0  0  0  0  0  0  0  0  0  0
   -1.9200   -1.5605    5.7221 H   0  0  0  0  0  0  0  0  0  0  0  0
    0.6225    1.8193    5.3476 H   0  0  0  0  0  0  0  0  0  0  0  0
    4.0093    1.0531    5.5210 H   0  0  0  0  0  0  0  0  0  0  0  0
    2.9290    2.4154    5.4129 H   0  0  0  0  0  0  0  0  0  0  0  0
    4.0058    2.1295    4.0969 H   0  0  0  0  0  0  0  0  0  0  0  0
    2.1713   -1.4860    1.4939 H   0  0  0  0  0  0  0  0  0  0  0  0
    2.3039    0.2471    1.4756 H   0  0  0  0  0  0  0  0  0  0  0  0
    0.9011   -0.4804    2.1682 H   0  0  0  0  0  0  0  0  0  0  0  0
    4.2713   -0.6444    1.8820 H   0  0  0  0  0  0  0  0  0  0  0  0
    4.8914    0.9864    3.2738 H   0  0  0  0  0  0  0  0  0  0  0  0
    4.3903   -2.7732    2.3639 H   0  0  0  0  0  0  0  0  0  0  0  0
    5.7174   -2.3161    3.3878 H   0  0  0  0  0  0  0  0  0  0  0  0
    3.6328   -3.7442    4.0392 H   0  0  0  0  0  0  0  0  0  0  0  0
    6.9105   -4.2903    7.4072 H   0  0  0  0  0  0  0  0  0  0  0  0
    5.6217   -3.8267    8.5472 H   0  0  0  0  0  0  0  0  0  0  0  0
    5.7712   -6.1192    8.4276 H   0  0  0  0  0  0  0  0  0  0  0  0
    6.5397   -6.4712    6.8770 H   0  0  0  0  0  0  0  0  0  0  0  0
    5.2997   -7.5214    7.5264 H   0  0  0  0  0  0  0  0  0  0  0  0
    3.5330   -5.8074    8.5374 H   0  0  0  0  0  0  0  0  0  0  0  0
    2.6028   -4.9628    7.3779 H   0  0  0  0  0  0  0  0  0  0  0  0
    3.0581   -7.9999    7.4953 H   0  0  0  0  0  0  0  0  0  0  0  0
    1.8269   -7.1253    8.3354 H   0  0  0  0  0  0  0  0  0  0  0  0
    0.6738   -8.0219    6.7036 H   0  0  0  0  0  0  0  0  0  0  0  0
    2.2722   -4.6156    5.2997 H   0  0  0  0  0  0  0  0  0  0  0  0
    0.2362   -4.5097    3.1350 H   0  0  0  0  0  0  0  0  0  0  0  0
    0.7038   -2.3600    2.9441 H   0  0  0  0  0  0  0  0  0  0  0  0
    1.4379   -2.7032    6.0610 H   0  0  0  0  0  0  0  0  0  0  0  0
    0.9827   -7.9680    1.7100 H   0  0  0  0  0  0  0  0  0  0  0  0
    1.5161   -6.7549    0.6316 H   0  0  0  0  0  0  0  0  0  0  0  0
    0.5122   -6.2946    1.9751 H   0  0  0  0  0  0  0  0  0  0  0  0
    2.5504   -4.6921    1.5599 H   0  0  0  0  0  0  0  0  0  0  0  0
    4.8209   -4.4626    0.8755 H   0  0  0  0  0  0  0  0  0  0  0  0
    5.3880   -8.6775    0.2699 H   0  0  0  0  0  0  0  0  0  0  0  0
    5.5887   -9.8063    1.6004 H   0  0  0  0  0  0  0  0  0  0  0  0
    6.8644   -8.6655    1.2193 H   0  0  0  0  0  0  0  0  0  0  0  0
    6.7110   -7.9422    3.3119 H   0  0  0  0  0  0  0  0  0  0  0  0
    3.3444   -8.3013    1.3457 H   0  0  0  0  0  0  0  0  0  0  0  0
    2.3784   -9.7139    2.7554 H   0  0  0  0  0  0  0  0  0  0  0  0
    3.9928   -9.9255    3.2246 H   0  0  0  0  0  0  0  0  0  0  0  0
    2.3992   -9.7762    5.1639 H   0  0  0  0  0  0  0  0  0  0  0  0
    3.7434   -8.7177    5.2862 H   0  0  0  0  0  0  0  0  0  0  0  0
    0.5916   -8.9944    3.4765 H   0  0  0  0  0  0  0  0  0  0  0  0
   -0.1335   -7.4529    3.8253 H   0  0  0  0  0  0  0  0  0  0  0  0
   -0.1428   -8.7579    4.9774 H   0  0  0  0  0  0  0  0  0  0  0  0
  1  2  1  0
  1 58  1  0
  1 59  1  0
  1 60  1  0
  2  3  2  0
  2  4  1  0
  4  5  1  0
  5 40  1  0
  5  6  1  0
  5 61  1  6
  6  7  1  0
  6  8  1  0
  6 62  1  1
  7 63  1  0
  8  9  1  0
  8 10  1  0
  8 64  1  1
  9 65  1  0
 10 40  1  0
 10 11  1  6
 10 12  1  0
 11 66  1  0
 11 67  1  0
 11 68  1  0
 12 13  1  0
 13 15  1  0
 13 14  1  0
 13 69  1  1
 14 15  1  0
 15 16  1  1
 15 17  1  0
 16 70  1  0
 16 71  1  0
 16 72  1  0
 17 39  1  0
 17 18  1  6
 17 19  1  0
 18 73  1  0
 18 74  1  0
 18 75  1  0
 19 20  1  0
 19 21  1  0
 19 76  1  6
 20 77  1  0
 21 22  1  0
 21 78  1  0
 21 79  1  0
 22 39  1  0
 22 80  1  6
 22 23  1  0
 23 24  2  0
 23 27  1  0
 24 29  1  0
 24 25  1  0
 25 26  1  0
 25 81  1  0
 25 82  1  0
 26 27  1  0
 27 28  2  0
 29 43  1  0
 29 30  1  1
 29 31  1  0
 30 83  1  0
 30 84  1  0
 30 85  1  0
 31 32  1  0
 31 86  1  0
 31 87  1  0
 32 33  1  0
 32 88  1  0
 32 89  1  0
 33 56  1  0
 34 33  1  6
 33 90  1  1
 34 35  2  0
 34 36  1  0
 36 37  1  0
 36 41  1  0
 36 91  1  1
 37 38  2  3
 37 92  1  0
 39 38  1  6
 38 93  1  0
 39 40  1  0
 40 94  1  1
 41 56  1  0
 41 42  1  1
 41 44  1  0
 42 43  1  0
 44 53  1  0
 44 45  1  6
 44 46  1  0
 45 95  1  0
 45 96  1  0
 45 97  1  0
 46 47  2  0
 46 98  1  0
 47 48  1  0
 47 99  1  0
 48 49  2  0
 48 50  1  0
 50 51  1  0
 50 52  1  1
 50 53  1  0
 51100  1  0
 51101  1  0
 51102  1  0
 52103  1  0
 53 54  1  0
 53104  1  6
 54 55  1  0
 54105  1  0
 54106  1  0
 55 56  1  0
 55107  1  0
 55108  1  0
 56 57  1  6
 57109  1  0
 57110  1  0
 57111  1  0
M  END
>  <i_m_ct_stereo_status>  (70) 
1

>  <s_m_source_file>  (70) 
/var/tmp/pbs.5075288.sched01/tmpndvtliwj/216foptgilz.sdf

>  <i_m_source_file_index>  (70) 
14

>  <i_lp_mmshare_version>  (70) 
48012

>  <i_f3d_flags>  (70) 
0

>  <s_epik_input>  (70) 
W0NIM11DKD1PKU9bQ0BIXShbQ0BASF0oW09IXSlbQ0BIXTFbT0hdKVtDQEhdMltDQF0xKFtDSDNdKU9bQ0BIXShPMylbQ0BAXTMoW0NIM10pW0NAQF0oW0NAXTI0NSkoW0NIM10pW0NAQEhdKFtPSF0pW0NIMl1bQ0BIXTRjNmMoW2NIXW9jNltPSF0pW0NAQF03KFtDSDNdKVtDSDJdW0NIMl1bQ0BASF04W0NAQF05KFtDSDNdKVtDQF0oT083KShbQ0BASF0oW1MrXThbTy1dKS9bQ0hdPVtDSF1cNSlbQ0BdMShbQ0gzXSlbQ0BIXShbQ0gyXVtDSDJdOSlbQ0BdKFtDSDNdKShbT0hdKUMoPU8pW0NIXT1bQ0hdMQ==

>  <s_epik_cmdline>  (70) 
J2VwaWtfcHl0aG9uJywgJy1waHQnLCAnMi4wJywgJy1waCcsICc3LjAnLCAnLXRuJywgJzgnLCAnLW1hJywgJzIwMCcsICctaW1hZScsICc8aW5maWxlLm1hZT4nLCAnLW9tYWUnLCAnPG91dGZpbGUubWFlPic=

>  <r_lp_tautomer_probability>  (70) 
1

>  <r_epik_Ionization_Penalty>  (70) 
2.08912e-06

>  <r_epik_Ionization_Penalty_Charging>  (70) 
0

>  <r_epik_Ionization_Penalty_Neutral>  (70) 
2.08912e-06

>  <r_epik_State_Penalty>  (70) 
-0

>  <r_epik_Charging_Adjusted_Penalty>  (70) 
0

>  <i_epik_Tot_Q>  (70) 
0

>  <i_epik_Tot_abs_Q>  (70) 
0

>  <s_epik_Chemistry_Notes>  (70) 
This compound has an ester and may undergo hydrolysis at high or low pH. This compound contains an acetal/aminal-like group ( X-CH(R)-Y where X, Y are N, S, or O) that may be acid/base labile, releasing an aldehyde.

>  <s_lp_Force_Field>  (70) 
OPLS3e

>  <r_lp_Energy>  (70) 
188.442

>  <b_lp_Chiralities_Consistent>  (70) 
1

>  <s_lp_Variant>  (70) 
81:0-1

>  <s_i_glide_gridfile>  (70) 
pfpi4k_grid

>  <i_i_glide_lignum>  (70) 
14

>  <i_i_glide_rotatable_bonds>  (70) 
6

>  <r_i_docking_score>  (70) 
-2.94911

>  <r_i_glide_ligand_efficiency>  (70) 
-0.0517387

>  <r_i_glide_ligand_efficiency_sa>  (70) 
-0.199117

>  <r_i_glide_ligand_efficiency_ln>  (70) 
-0.584787

>  <r_i_glide_gscore>  (70) 
-2.94911

>  <r_i_glide_lipo>  (70) 
-0.224526

>  <r_i_glide_hbond>  (70) 
0

>  <r_i_glide_metal>  (70) 
-0

>  <r_i_glide_rewards>  (70) 
-0.105237

>  <r_i_glide_evdw>  (70) 
-36.9683

>  <r_i_glide_ecoul>  (70) 
-5.2859

>  <r_i_glide_erotb>  (70) 
0.0328588

>  <r_i_glide_esite>  (70) 
-0.0109045

>  <r_i_glide_emodel>  (70) 
-42.9484

>  <r_i_glide_energy>  (70) 
-42.2542

>  <r_i_glide_einternal>  (70) 
8.35994

>  <r_i_glide_intrahb_reward>  (70) 
-0

>  <i_i_glide_confnum>  (70) 
2

>  <i_i_glide_posenum>  (70) 
7

>  <r_i_glide_eff_state_penalty>  (70) 
0

>  <ligand_id>  (70) 
81

>  <original_smiles>  (70) 
CC(=O)OC1C(O)C(O)C2(C)OC3OC3(C)C3(C)C(O)CC4c5c(coc5O)C5(C)CCC6[S+]([O-])C(C=CC43C12)C1(OO5)C2(C)C=CC(=O)C(C)(O)C2CCC61C

>  <smiles>  (70) 
[H]OC1([H])C([H])(OC(=O)C([H])([H])[H])C2([H])C(C([H])([H])[H])(OC3([H])OC3(C([H])([H])[H])C3(C([H])([H])[H])C([H])(O[H])C([H])([H])C4([H])C5=C(C([H])([H])OC5=O)C5(C([H])([H])[H])OOC67C([H])(C([H])=C([H])C423)S(=O)C([H])(C([H])([H])C5([H])[H])C6(C([H])([H])[H])C([H])([H])C([H])([H])C2([H])C(O[H])(C([H])([H])[H])C(=O)C([H])=C([H])C27C([H])([H])[H])C1([H])O[H]

$$$$
81:0:1
     RDKit          3D

111120  0  0  1  0  0  0  0  0999 V2000
    2.3711   -4.0938    9.6677 C   0  0  0  0  0  0  0  0  0  0  0  0
    1.7435   -3.1421    8.6179 C   0  0  0  0  0  0  0  0  0  0  0  0
    0.5947   -3.1789    8.3361 O   0  0  0  0  0  0  0  0  0  0  0  0
    2.7216   -2.3779    8.0443 O   0  0  0  0  0  0  0  0  0  0  0  0
    2.4488   -1.3694    7.0316 C   0  0  2  0  0  0  0  0  0  0  0  0
    1.5341   -0.2967    7.6828 C   0  0  1  0  0  0  0  0  0  0  0  0
    1.9884    1.0199    7.4970 O   0  0  0  0  0  0  0  0  0  0  0  0
    0.1498   -0.5844    7.1006 C   0  0  1  0  0  0  0  0  0  0  0  0
   -0.8282    0.4348    7.1986 O   0  0  0  0  0  0  0  0  0  0  0  0
    0.3275   -1.2704    5.7043 C   0  0  1  0  0  0  0  0  0  0  0  0
   -0.8670   -2.2340    5.4920 C   0  0  0  0  0  0  0  0  0  0  0  0
    0.2312   -0.3534    4.6172 O   0  0  0  0  0  0  0  0  0  0  0  0
    1.0725    0.7598    4.6498 C   0  0  2  0  0  0  0  0  0  0  0  0
    1.5557    1.2694    3.4217 O   0  0  0  0  0  0  0  0  0  0  0  0
    2.4840    0.4529    4.1828 C   0  0  1  0  0  0  0  0  0  0  0  0
    3.5753    1.3018    4.8314 C   0  0  0  0  0  0  0  0  0  0  0  0
    2.8535   -0.9161    3.4821 C   0  0  1  0  0  0  0  0  0  0  0  0
    2.1095   -0.8862    2.0895 C   0  0  0  0  0  0  0  0  0  0  0  0
    4.3373   -1.1192    2.9631 C   0  0  1  0  0  0  0  0  0  0  0  0
    5.3725   -0.2429    3.3391 O   0  0  0  0  0  0  0  0  0  0  0  0
    4.7258   -2.5576    3.2609 C   0  0  0  0  0  0  0  0  0  0  0  0
    3.8786   -3.0956    4.4242 C   0  0  1  0  0  0  0  0  0  0  0  0
    4.7135   -3.4042    5.7332 C   0  0  0  0  0  0  0  0  0  0  0  0
    4.9752   -4.5056    6.5006 C   0  0  0  0  0  0  0  0  0  0  0  0
    6.0313   -4.1136    7.5208 C   0  0  0  0  0  0  0  0  0  0  0  0
    6.3325   -2.7853    7.2422 O   0  0  0  0  0  0  0  0  0  0  0  0
    5.6054   -2.3159    6.2470 C   0  0  0  0  0  0  0  0  0  0  0  0
    5.6809   -1.1647    5.8809 O   0  0  0  0  0  0  0  0  0  0  0  0
    4.4985   -6.0221    6.6436 C   0  0  1  0  0  0  0  0  0  0  0  0
    5.5669   -6.8520    7.4084 C   0  0  0  0  0  0  0  0  0  0  0  0
    3.2316   -6.1396    7.5020 C   0  0  0  0  0  0  0  0  0  0  0  0
    2.3782   -7.4201    7.4127 C   0  0  0  0  0  0  0  0  0  0  0  0
    1.3421   -7.5666    6.2827 C   0  0  1  0  0  0  0  0  0  0  0  0
    0.4517   -5.9583    6.0265 S   0  0  0  0  0  0  0  0  0  0  0  0
   -0.9453   -6.1932    5.4259 O   0  0  0  0  0  0  0  0  0  0  0  0
    1.6163   -5.4594    4.6739 C   0  0  2  0  0  0  0  0  0  0  0  0
    1.0935   -4.4171    3.7268 C   0  0  0  0  0  0  0  0  0  0  0  0
    1.4531   -3.1175    3.6139 C   0  0  0  0  0  0  0  0  0  0  0  0
    2.5081   -2.2465    4.3743 C   0  0  2  0  0  0  0  0  0  0  0  0
    1.7434   -1.9625    5.7597 C   0  0  1  0  0  0  0  0  0  0  0  0
    2.3701   -6.7229    4.0981 C   0  0  2  0  0  0  0  0  0  0  0  0
    3.7031   -6.2364    4.3733 O   0  0  0  0  0  0  0  0  0  0  0  0
    4.3890   -6.8716    5.5044 O   0  0  0  0  0  0  0  0  0  0  0  0
    2.6004   -6.9924    2.5377 C   0  0  1  0  0  0  0  0  0  0  0  0
    1.3116   -7.2144    1.6874 C   0  0  0  0  0  0  0  0  0  0  0  0
    3.2464   -5.7996    1.8241 C   0  0  0  0  0  0  0  0  0  0  0  0
    4.5325   -5.6916    1.4287 C   0  0  0  0  0  0  0  0  0  0  0  0
    5.5238   -6.7171    1.7354 C   0  0  0  0  0  0  0  0  0  0  0  0
    6.7307   -6.4771    1.5876 O   0  0  0  0  0  0  0  0  0  0  0  0
    5.0794   -8.1032    2.2359 C   0  0  1  0  0  0  0  0  0  0  0  0
    5.7117   -9.1642    1.2987 C   0  0  0  0  0  0  0  0  0  0  0  0
    5.7086   -8.3342    3.4831 O   0  0  0  0  0  0  0  0  0  0  0  0
    3.5202   -8.2850    2.3486 C   0  0  1  0  0  0  0  0  0  0  0  0
    3.1123   -9.5033    3.2400 C   0  0  0  0  0  0  0  0  0  0  0  0
    2.7558   -9.1883    4.7169 C   0  0  0  0  0  0  0  0  0  0  0  0
    1.7818   -7.9923    4.8457 C   0  0  1  0  0  0  0  0  0  0  0  0
    0.4211   -8.4929    4.2463 C   0  0  0  0  0  0  0  0  0  0  0  0
    2.5880   -3.5996   10.6405 H   0  0  0  0  0  0  0  0  0  0  0  0
    3.2631   -4.4848    9.2480 H   0  0  0  0  0  0  0  0  0  0  0  0
    1.6220   -4.8801    9.8153 H   0  0  0  0  0  0  0  0  0  0  0  0
    3.3838   -0.8962    6.7430 H   0  0  0  0  0  0  0  0  0  0  0  0
    1.5321   -0.4093    8.7734 H   0  0  0  0  0  0  0  0  0  0  0  0
    2.1038    1.1875    6.5740 H   0  0  0  0  0  0  0  0  0  0  0  0
   -0.2809   -1.3087    7.7552 H   0  0  0  0  0  0  0  0  0  0  0  0
   -0.5314    1.2119    6.7522 H   0  0  0  0  0  0  0  0  0  0  0  0
   -0.8027   -3.1248    6.1088 H   0  0  0  0  0  0  0  0  0  0  0  0
   -0.9448   -2.5617    4.4585 H   0  0  0  0  0  0  0  0  0  0  0  0
   -1.8124   -1.7480    5.7158 H   0  0  0  0  0  0  0  0  0  0  0  0
    0.8138    1.5694    5.3417 H   0  0  0  0  0  0  0  0  0  0  0  0
    4.1795    0.7141    5.5162 H   0  0  0  0  0  0  0  0  0  0  0  0
    3.1345    2.1061    5.4063 H   0  0  0  0  0  0  0  0  0  0  0  0
    4.2052    1.7918    4.0928 H   0  0  0  0  0  0  0  0  0  0  0  0
    2.2807   -1.7820    1.4911 H   0  0  0  0  0  0  0  0  0  0  0  0
    2.4545   -0.0531    1.4690 H   0  0  0  0  0  0  0  0  0  0  0  0
    1.0341   -0.7433    2.1636 H   0  0  0  0  0  0  0  0  0  0  0  0
    4.4024   -0.9920    1.8798 H   0  0  0  0  0  0  0  0  0  0  0  0
    5.0408    0.6431    3.2841 H   0  0  0  0  0  0  0  0  0  0  0  0
    4.4675   -3.1200    2.3616 H   0  0  0  0  0  0  0  0  0  0  0  0
    5.8061   -2.6966    3.3845 H   0  0  0  0  0  0  0  0  0  0  0  0
    3.6830   -4.0726    4.0353 H   0  0  0  0  0  0  0  0  0  0  0  0
    6.9469   -4.6976    7.4040 H   0  0  0  0  0  0  0  0  0  0  0  0
    5.6683   -4.1998    8.5437 H   0  0  0  0  0  0  0  0  0  0  0  0
    5.7641   -6.4956    8.4257 H   0  0  0  0  0  0  0  0  0  0  0  0
    6.5206   -6.8713    6.8746 H   0  0  0  0  0  0  0  0  0  0  0  0
    5.2551   -7.8888    7.5276 H   0  0  0  0  0  0  0  0  0  0  0  0
    3.5315   -6.1205    8.5377 H   0  0  0  0  0  0  0  0  0  0  0  0
    2.6247   -5.2636    7.3737 H   0  0  0  0  0  0  0  0  0  0  0  0
    3.0017   -8.3071    7.4978 H   0  0  0  0  0  0  0  0  0  0  0  0
    1.7914   -7.4013    8.3365 H   0  0  0  0  0  0  0  0  0  0  0  0
    0.6186   -8.2714    6.7022 H   0  0  0  0  0  0  0  0  0  0  0  0
    2.2998   -4.9090    5.2971 H   0  0  0  0  0  0  0  0  0  0  0  0
    0.2694   -4.7565    3.1256 H   0  0  0  0  0  0  0  0  0  0  0  0
    0.7862   -2.6154    2.9388 H   0  0  0  0  0  0  0  0  0  0  0  0
    1.5179   -2.9753    6.0534 H   0  0  0  0  0  0  0  0  0  0  0  0
    0.9312   -8.2322    1.7080 H   0  0  0  0  0  0  0  0  0  0  0  0
    1.4889   -7.0319    0.6297 H   0  0  0  0  0  0  0  0  0  0  0  0
    0.4988   -6.5482    1.9743 H   0  0  0  0  0  0  0  0  0  0  0  0
    2.5826   -4.9959    1.5549 H   0  0  0  0  0  0  0  0  0  0  0  0
    4.8566   -4.8250    0.8746 H   0  0  0  0  0  0  0  0  0  0  0  0
    5.3213   -9.0501    0.2819 H   0  0  0  0  0  0  0  0  0  0  0  0
    5.4938  -10.1867    1.6030 H   0  0  0  0  0  0  0  0  0  0  0  0
    6.7949   -9.0695    1.2259 H   0  0  0  0  0  0  0  0  0  0  0  0
    5.4952   -9.2144    3.7567 H   0  0  0  0  0  0  0  0  0  0  0  0
    3.2833   -8.6234    1.3414 H   0  0  0  0  0  0  0  0  0  0  0  0
    2.2786  -10.0087    2.7549 H   0  0  0  0  0  0  0  0  0  0  0  0
    3.8830  -10.2706    3.2180 H   0  0  0  0  0  0  0  0  0  0  0  0
    2.2998  -10.0728    5.1640 H   0  0  0  0  0  0  0  0  0  0  0  0
    3.6683   -9.0482    5.2888 H   0  0  0  0  0  0  0  0  0  0  0  0
    0.5131   -9.2469    3.4746 H   0  0  0  0  0  0  0  0  0  0  0  0
   -0.1738   -7.6898    3.8255 H   0  0  0  0  0  0  0  0  0  0  0  0
   -0.2140   -8.9925    4.9764 H   0  0  0  0  0  0  0  0  0  0  0  0
  1  2  1  0
  1 58  1  0
  1 59  1  0
  1 60  1  0
  2  3  2  0
  2  4  1  0
  4  5  1  0
  5 40  1  0
  5  6  1  0
  5 61  1  6
  6  7  1  0
  6  8  1  0
  6 62  1  1
  7 63  1  0
  8  9  1  0
  8 10  1  0
  8 64  1  1
  9 65  1  0
 10 40  1  0
 10 11  1  6
 10 12  1  0
 11 66  1  0
 11 67  1  0
 11 68  1  0
 12 13  1  0
 13 15  1  0
 13 14  1  0
 13 69  1  1
 14 15  1  0
 15 16  1  1
 15 17  1  0
 16 70  1  0
 16 71  1  0
 16 72  1  0
 17 39  1  0
 17 18  1  6
 17 19  1  0
 18 73  1  0
 18 74  1  0
 18 75  1  0
 19 20  1  0
 19 21  1  0
 19 76  1  6
 20 77  1  0
 21 22  1  0
 21 78  1  0
 21 79  1  0
 22 39  1  0
 22 80  1  6
 22 23  1  0
 23 24  2  0
 23 27  1  0
 24 29  1  0
 24 25  1  0
 25 26  1  0
 25 81  1  0
 25 82  1  0
 26 27  1  0
 27 28  2  0
 29 43  1  0
 29 30  1  1
 29 31  1  0
 30 83  1  0
 30 84  1  0
 30 85  1  0
 31 32  1  0
 31 86  1  0
 31 87  1  0
 32 33  1  0
 32 88  1  0
 32 89  1  0
 33 56  1  0
 34 33  1  6
 33 90  1  1
 34 35  2  0
 34 36  1  0
 36 37  1  0
 36 41  1  0
 36 91  1  1
 37 38  2  3
 37 92  1  0
 39 38  1  6
 38 93  1  0
 39 40  1  0
 40 94  1  1
 41 56  1  0
 41 42  1  1
 41 44  1  0
 42 43  1  0
 44 53  1  0
 44 45  1  6
 44 46  1  0
 45 95  1  0
 45 96  1  0
 45 97  1  0
 46 47  2  0
 46 98  1  0
 47 48  1  0
 47 99  1  0
 48 49  2  0
 48 50  1  0
 50 51  1  0
 50 52  1  1
 50 53  1  0
 51100  1  0
 51101  1  0
 51102  1  0
 52103  1  0
 53 54  1  0
 53104  1  6
 54 55  1  0
 54105  1  0
 54106  1  0
 55 56  1  0
 55107  1  0
 55108  1  0
 56 57  1  6
 57109  1  0
 57110  1  0
 57111  1  0
M  END
>  <i_m_ct_stereo_status>  (71) 
1

>  <s_m_source_file>  (71) 
/var/tmp/pbs.5075288.sched01/tmpndvtliwj/216foptgilz.sdf

>  <i_m_source_file_index>  (71) 
14

>  <i_lp_mmshare_version>  (71) 
48012

>  <i_f3d_flags>  (71) 
0

>  <s_epik_input>  (71) 
W0NIM11DKD1PKU9bQ0BIXShbQ0BASF0oW09IXSlbQ0BIXTFbT0hdKVtDQEhdMltDQF0xKFtDSDNdKU9bQ0BIXShPMylbQ0BAXTMoW0NIM10pW0NAQF0oW0NAXTI0NSkoW0NIM10pW0NAQEhdKFtPSF0pW0NIMl1bQ0BIXTRjNmMoW2NIXW9jNltPSF0pW0NAQF03KFtDSDNdKVtDSDJdW0NIMl1bQ0BASF04W0NAQF05KFtDSDNdKVtDQF0oT083KShbQ0BASF0oW1MrXThbTy1dKS9bQ0hdPVtDSF1cNSlbQ0BdMShbQ0gzXSlbQ0BIXShbQ0gyXVtDSDJdOSlbQ0BdKFtDSDNdKShbT0hdKUMoPU8pW0NIXT1bQ0hdMQ==

>  <s_epik_cmdline>  (71) 
J2VwaWtfcHl0aG9uJywgJy1waHQnLCAnMi4wJywgJy1waCcsICc3LjAnLCAnLXRuJywgJzgnLCAnLW1hJywgJzIwMCcsICctaW1hZScsICc8aW5maWxlLm1hZT4nLCAnLW9tYWUnLCAnPG91dGZpbGUubWFlPic=

>  <r_lp_tautomer_probability>  (71) 
1

>  <r_epik_Ionization_Penalty>  (71) 
2.08912e-06

>  <r_epik_Ionization_Penalty_Charging>  (71) 
0

>  <r_epik_Ionization_Penalty_Neutral>  (71) 
2.08912e-06

>  <r_epik_State_Penalty>  (71) 
-0

>  <r_epik_Charging_Adjusted_Penalty>  (71) 
0

>  <i_epik_Tot_Q>  (71) 
0

>  <i_epik_Tot_abs_Q>  (71) 
0

>  <s_epik_Chemistry_Notes>  (71) 
This compound has an ester and may undergo hydrolysis at high or low pH. This compound contains an acetal/aminal-like group ( X-CH(R)-Y where X, Y are N, S, or O) that may be acid/base labile, releasing an aldehyde.

>  <s_lp_Force_Field>  (71) 
OPLS3e

>  <r_lp_Energy>  (71) 
188.442

>  <b_lp_Chiralities_Consistent>  (71) 
1

>  <s_lp_Variant>  (71) 
81:0-1

>  <s_i_glide_gridfile>  (71) 
pfpi4k_grid

>  <i_i_glide_lignum>  (71) 
14

>  <i_i_glide_rotatable_bonds>  (71) 
6

>  <r_i_docking_score>  (71) 
-2.88564

>  <r_i_glide_ligand_efficiency>  (71) 
-0.0506252

>  <r_i_glide_ligand_efficiency_sa>  (71) 
-0.194831

>  <r_i_glide_ligand_efficiency_ln>  (71) 
-0.572201

>  <r_i_glide_gscore>  (71) 
-2.88564

>  <r_i_glide_lipo>  (71) 
-0.184811

>  <r_i_glide_hbond>  (71) 
0

>  <r_i_glide_metal>  (71) 
-0

>  <r_i_glide_rewards>  (71) 
-0.112998

>  <r_i_glide_evdw>  (71) 
-37.7454

>  <r_i_glide_ecoul>  (71) 
-4.83115

>  <r_i_glide_erotb>  (71) 
0.0328588

>  <r_i_glide_esite>  (71) 
-0.0087456

>  <r_i_glide_emodel>  (71) 
-43.8395

>  <r_i_glide_energy>  (71) 
-42.5765

>  <r_i_glide_einternal>  (71) 
6.79233

>  <r_i_glide_intrahb_reward>  (71) 
-0

>  <i_i_glide_confnum>  (71) 
5

>  <i_i_glide_posenum>  (71) 
16

>  <r_i_glide_eff_state_penalty>  (71) 
0

>  <ligand_id>  (71) 
81

>  <original_smiles>  (71) 
CC(=O)OC1C(O)C(O)C2(C)OC3OC3(C)C3(C)C(O)CC4c5c(coc5O)C5(C)CCC6[S+]([O-])C(C=CC43C12)C1(OO5)C2(C)C=CC(=O)C(C)(O)C2CCC61C

>  <smiles>  (71) 
[H]OC1([H])C([H])(OC(=O)C([H])([H])[H])C2([H])C(C([H])([H])[H])(OC3([H])OC3(C([H])([H])[H])C3(C([H])([H])[H])C([H])(O[H])C([H])([H])C4([H])C5=C(C([H])([H])OC5=O)C5(C([H])([H])[H])OOC67C([H])(C([H])=C([H])C423)S(=O)C([H])(C([H])([H])C5([H])[H])C6(C([H])([H])[H])C([H])([H])C([H])([H])C2([H])C(O[H])(C([H])([H])[H])C(=O)C([H])=C([H])C27C([H])([H])[H])C1([H])O[H]

$$$$
81:0:2
     RDKit          3D

111120  0  0  1  0  0  0  0  0999 V2000
    4.7271   -0.9707    8.6936 C   0  0  0  0  0  0  0  0  0  0  0  0
    3.8044   -2.2160    8.8617 C   0  0  0  0  0  0  0  0  0  0  0  0
    4.0057   -3.0760    9.7329 O   0  0  0  0  0  0  0  0  0  0  0  0
    2.8145   -2.3280    7.9510 O   0  0  0  0  0  0  0  0  0  0  0  0
    2.5062   -1.3203    6.9706 C   0  0  2  0  0  0  0  0  0  0  0  0
    1.5624   -0.3145    7.6840 C   0  0  1  0  0  0  0  0  0  0  0  0
    1.9730    1.0275    7.4830 O   0  0  0  0  0  0  0  0  0  0  0  0
    0.1876   -0.6455    7.1208 C   0  0  1  0  0  0  0  0  0  0  0  0
   -0.8073    0.3631    7.2484 O   0  0  0  0  0  0  0  0  0  0  0  0
    0.3401   -1.2800    5.7251 C   0  0  1  0  0  0  0  0  0  0  0  0
   -0.8622   -2.2307    5.4990 C   0  0  0  0  0  0  0  0  0  0  0  0
    0.2222   -0.3579    4.6465 O   0  0  0  0  0  0  0  0  0  0  0  0
    1.0760    0.7970    4.6889 C   0  0  2  0  0  0  0  0  0  0  0  0
    1.5460    1.2724    3.4072 O   0  0  0  0  0  0  0  0  0  0  0  0
    2.4944    0.4457    4.1728 C   0  0  1  0  0  0  0  0  0  0  0  0
    3.5780    1.3036    4.8131 C   0  0  0  0  0  0  0  0  0  0  0  0
    2.8418   -0.9126    3.4773 C   0  0  1  0  0  0  0  0  0  0  0  0
    2.1002   -0.8821    2.0837 C   0  0  0  0  0  0  0  0  0  0  0  0
    4.3202   -1.1139    2.9341 C   0  0  1  0  0  0  0  0  0  0  0  0
    5.3608   -0.2068    3.2531 O   0  0  0  0  0  0  0  0  0  0  0  0
    4.7148   -2.5601    3.2161 C   0  0  0  0  0  0  0  0  0  0  0  0
    3.8785   -3.1097    4.3950 C   0  0  1  0  0  0  0  0  0  0  0  0
    4.7363   -3.4334    5.6718 C   0  0  0  0  0  0  0  0  0  0  0  0
    5.0089   -4.5043    6.4667 C   0  0  0  0  0  0  0  0  0  0  0  0
    6.1116   -4.1381    7.4334 C   0  0  0  0  0  0  0  0  0  0  0  0
    6.4733   -2.8527    7.0759 O   0  0  0  0  0  0  0  0  0  0  0  0
    5.7172   -2.3788    6.1052 C   0  0  0  0  0  0  0  0  0  0  0  0
    5.8228   -1.2593    5.7003 O   0  0  0  0  0  0  0  0  0  0  0  0
    4.4651   -5.9838    6.6677 C   0  0  1  0  0  0  0  0  0  0  0  0
    5.5470   -6.8290    7.4145 C   0  0  0  0  0  0  0  0  0  0  0  0
    3.2032   -6.0268    7.5522 C   0  0  0  0  0  0  0  0  0  0  0  0
    2.3817   -7.3417    7.4577 C   0  0  0  0  0  0  0  0  0  0  0  0
    1.3564   -7.5356    6.3055 C   0  0  1  0  0  0  0  0  0  0  0  0
    0.4553   -5.9344    6.0388 S   0  0  0  0  0  0  0  0  0  0  0  0
   -0.9398   -6.1788    5.4456 O   0  0  0  0  0  0  0  0  0  0  0  0
    1.6179   -5.4494    4.6789 C   0  0  2  0  0  0  0  0  0  0  0  0
    1.0831   -4.4107    3.7326 C   0  0  0  0  0  0  0  0  0  0  0  0
    1.4427   -3.1144    3.6220 C   0  0  0  0  0  0  0  0  0  0  0  0
    2.5025   -2.2539    4.3751 C   0  0  2  0  0  0  0  0  0  0  0  0
    1.7545   -1.9868    5.7735 C   0  0  1  0  0  0  0  0  0  0  0  0
    2.3684   -6.7099    4.1150 C   0  0  2  0  0  0  0  0  0  0  0  0
    3.7045   -6.2416    4.3867 O   0  0  0  0  0  0  0  0  0  0  0  0
    4.3412   -6.8578    5.5577 O   0  0  0  0  0  0  0  0  0  0  0  0
    2.5932   -6.9891    2.5342 C   0  0  1  0  0  0  0  0  0  0  0  0
    1.2913   -7.2083    1.7020 C   0  0  0  0  0  0  0  0  0  0  0  0
    3.2354   -5.7990    1.8211 C   0  0  0  0  0  0  0  0  0  0  0  0
    4.5120   -5.6912    1.4171 C   0  0  0  0  0  0  0  0  0  0  0  0
    5.5130   -6.7184    1.7243 C   0  0  0  0  0  0  0  0  0  0  0  0
    6.7140   -6.4847    1.5830 O   0  0  0  0  0  0  0  0  0  0  0  0
    5.0700   -8.1029    2.2256 C   0  0  1  0  0  0  0  0  0  0  0  0
    5.6847   -9.1639    1.2843 C   0  0  0  0  0  0  0  0  0  0  0  0
    5.7250   -8.3335    3.4608 O   0  0  0  0  0  0  0  0  0  0  0  0
    3.4989   -8.2769    2.3554 C   0  0  1  0  0  0  0  0  0  0  0  0
    3.1009   -9.4935    3.2446 C   0  0  0  0  0  0  0  0  0  0  0  0
    2.7502   -9.1774    4.7289 C   0  0  0  0  0  0  0  0  0  0  0  0
    1.7817   -7.9733    4.8630 C   0  0  1  0  0  0  0  0  0  0  0  0
    0.4176   -8.4822    4.2662 C   0  0  0  0  0  0  0  0  0  0  0  0
    4.2760   -0.0705    9.1196 H   0  0  0  0  0  0  0  0  0  0  0  0
    4.9425   -0.7970    7.6517 H   0  0  0  0  0  0  0  0  0  0  0  0
    5.6961   -1.1689    9.1611 H   0  0  0  0  0  0  0  0  0  0  0  0
    3.3912   -0.8453    6.5891 H   0  0  0  0  0  0  0  0  0  0  0  0
    1.5656   -0.4316    8.7656 H   0  0  0  0  0  0  0  0  0  0  0  0
    2.0920    1.1868    6.5762 H   0  0  0  0  0  0  0  0  0  0  0  0
   -0.1590   -1.4408    7.7744 H   0  0  0  0  0  0  0  0  0  0  0  0
   -0.5114    1.1244    6.7909 H   0  0  0  0  0  0  0  0  0  0  0  0
   -0.7998   -3.1182    6.1221 H   0  0  0  0  0  0  0  0  0  0  0  0
   -0.9438   -2.5506    4.4658 H   0  0  0  0  0  0  0  0  0  0  0  0
   -1.8070   -1.7331    5.7255 H   0  0  0  0  0  0  0  0  0  0  0  0
    0.8228    1.5681    5.3203 H   0  0  0  0  0  0  0  0  0  0  0  0
    4.2015    0.7178    5.4877 H   0  0  0  0  0  0  0  0  0  0  0  0
    3.1447    2.1133    5.3882 H   0  0  0  0  0  0  0  0  0  0  0  0
    4.2054    1.7980    4.0693 H   0  0  0  0  0  0  0  0  0  0  0  0
    2.2669   -1.7801    1.4862 H   0  0  0  0  0  0  0  0  0  0  0  0
    2.4418   -0.0526    1.4629 H   0  0  0  0  0  0  0  0  0  0  0  0
    1.0203   -0.7384    2.1606 H   0  0  0  0  0  0  0  0  0  0  0  0
    4.3766   -0.9937    1.8514 H   0  0  0  0  0  0  0  0  0  0  0  0
    5.0140    0.6532    3.2734 H   0  0  0  0  0  0  0  0  0  0  0  0
    4.4520   -3.1220    2.3228 H   0  0  0  0  0  0  0  0  0  0  0  0
    5.7891   -2.6919    3.3363 H   0  0  0  0  0  0  0  0  0  0  0  0
    3.6671   -4.0829    3.9958 H   0  0  0  0  0  0  0  0  0  0  0  0
    6.9948   -4.7612    7.3435 H   0  0  0  0  0  0  0  0  0  0  0  0
    5.7680   -4.1848    8.4678 H   0  0  0  0  0  0  0  0  0  0  0  0
    5.7642   -6.4823    8.4262 H   0  0  0  0  0  0  0  0  0  0  0  0
    6.4890   -6.8507    6.8670 H   0  0  0  0  0  0  0  0  0  0  0  0
    5.2473   -7.8707    7.5247 H   0  0  0  0  0  0  0  0  0  0  0  0
    3.5196   -5.9265    8.5927 H   0  0  0  0  0  0  0  0  0  0  0  0
    2.5868   -5.1384    7.4208 H   0  0  0  0  0  0  0  0  0  0  0  0
    3.0248   -8.2220    7.5208 H   0  0  0  0  0  0  0  0  0  0  0  0
    1.7961   -7.3794    8.3779 H   0  0  0  0  0  0  0  0  0  0  0  0
    0.6430   -8.2424    6.7239 H   0  0  0  0  0  0  0  0  0  0  0  0
    2.3025   -4.8985    5.3060 H   0  0  0  0  0  0  0  0  0  0  0  0
    0.2611   -4.7491    3.1320 H   0  0  0  0  0  0  0  0  0  0  0  0
    0.7795   -2.6081    2.9438 H   0  0  0  0  0  0  0  0  0  0  0  0
    1.5147   -2.9765    6.1471 H   0  0  0  0  0  0  0  0  0  0  0  0
    0.9156   -8.2276    1.7208 H   0  0  0  0  0  0  0  0  0  0  0  0
    1.4697   -7.0309    0.6358 H   0  0  0  0  0  0  0  0  0  0  0  0
    0.4862   -6.5449    1.9838 H   0  0  0  0  0  0  0  0  0  0  0  0
    2.5650   -4.9882    1.5536 H   0  0  0  0  0  0  0  0  0  0  0  0
    4.8386   -4.8243    0.8619 H   0  0  0  0  0  0  0  0  0  0  0  0
    5.2930   -9.0546    0.2711 H   0  0  0  0  0  0  0  0  0  0  0  0
    5.4730  -10.1831    1.6029 H   0  0  0  0  0  0  0  0  0  0  0  0
    6.7766   -9.0744    1.2083 H   0  0  0  0  0  0  0  0  0  0  0  0
    6.6415   -8.3544    3.2945 H   0  0  0  0  0  0  0  0  0  0  0  0
    3.2637   -8.6216    1.3444 H   0  0  0  0  0  0  0  0  0  0  0  0
    2.2682  -10.0029    2.7654 H   0  0  0  0  0  0  0  0  0  0  0  0
    3.8764  -10.2573    3.2272 H   0  0  0  0  0  0  0  0  0  0  0  0
    2.2978  -10.0590    5.1743 H   0  0  0  0  0  0  0  0  0  0  0  0
    3.6699   -9.0364    5.2870 H   0  0  0  0  0  0  0  0  0  0  0  0
    0.5047   -9.2339    3.4959 H   0  0  0  0  0  0  0  0  0  0  0  0
   -0.1805   -7.6795    3.8425 H   0  0  0  0  0  0  0  0  0  0  0  0
   -0.2160   -8.9787    4.9981 H   0  0  0  0  0  0  0  0  0  0  0  0
  1  2  1  0
  1 58  1  0
  1 59  1  0
  1 60  1  0
  2  3  2  0
  2  4  1  0
  4  5  1  0
  5 40  1  0
  5  6  1  0
  5 61  1  6
  6  7  1  0
  6  8  1  0
  6 62  1  1
  7 63  1  0
  8  9  1  0
  8 10  1  0
  8 64  1  1
  9 65  1  0
 10 40  1  0
 10 11  1  6
 10 12  1  0
 11 66  1  0
 11 67  1  0
 11 68  1  0
 12 13  1  0
 13 15  1  0
 13 14  1  0
 13 69  1  1
 14 15  1  0
 15 16  1  1
 15 17  1  0
 16 70  1  0
 16 71  1  0
 16 72  1  0
 17 39  1  0
 17 18  1  6
 17 19  1  0
 18 73  1  0
 18 74  1  0
 18 75  1  0
 19 20  1  0
 19 21  1  0
 19 76  1  6
 20 77  1  0
 21 22  1  0
 21 78  1  0
 21 79  1  0
 22 39  1  0
 22 80  1  6
 22 23  1  0
 23 24  2  0
 23 27  1  0
 24 29  1  0
 24 25  1  0
 25 26  1  0
 25 81  1  0
 25 82  1  0
 26 27  1  0
 27 28  2  0
 29 43  1  0
 29 30  1  1
 29 31  1  0
 30 83  1  0
 30 84  1  0
 30 85  1  0
 31 32  1  0
 31 86  1  0
 31 87  1  0
 32 33  1  0
 32 88  1  0
 32 89  1  0
 33 56  1  0
 34 33  1  6
 33 90  1  1
 34 35  2  0
 34 36  1  0
 36 37  1  0
 36 41  1  0
 36 91  1  1
 37 38  2  3
 37 92  1  0
 39 38  1  6
 38 93  1  0
 39 40  1  0
 40 94  1  1
 41 56  1  0
 41 42  1  1
 41 44  1  0
 42 43  1  0
 44 53  1  0
 44 45  1  6
 44 46  1  0
 45 95  1  0
 45 96  1  0
 45 97  1  0
 46 47  2  0
 46 98  1  0
 47 48  1  0
 47 99  1  0
 48 49  2  0
 48 50  1  0
 50 51  1  0
 50 52  1  1
 50 53  1  0
 51100  1  0
 51101  1  0
 51102  1  0
 52103  1  0
 53 54  1  0
 53104  1  6
 54 55  1  0
 54105  1  0
 54106  1  0
 55 56  1  0
 55107  1  0
 55108  1  0
 56 57  1  6
 57109  1  0
 57110  1  0
 57111  1  0
M  END
>  <i_m_ct_stereo_status>  (72) 
1

>  <s_m_source_file>  (72) 
/var/tmp/pbs.5075288.sched01/tmpndvtliwj/216foptgilz.sdf

>  <i_m_source_file_index>  (72) 
14

>  <i_lp_mmshare_version>  (72) 
48012

>  <i_f3d_flags>  (72) 
0

>  <s_epik_input>  (72) 
W0NIM11DKD1PKU9bQ0BIXShbQ0BASF0oW09IXSlbQ0BIXTFbT0hdKVtDQEhdMltDQF0xKFtDSDNdKU9bQ0BIXShPMylbQ0BAXTMoW0NIM10pW0NAQF0oW0NAXTI0NSkoW0NIM10pW0NAQEhdKFtPSF0pW0NIMl1bQ0BIXTRjNmMoW2NIXW9jNltPSF0pW0NAQF03KFtDSDNdKVtDSDJdW0NIMl1bQ0BASF04W0NAQF05KFtDSDNdKVtDQF0oT083KShbQ0BASF0oW1MrXThbTy1dKS9bQ0hdPVtDSF1cNSlbQ0BdMShbQ0gzXSlbQ0BIXShbQ0gyXVtDSDJdOSlbQ0BdKFtDSDNdKShbT0hdKUMoPU8pW0NIXT1bQ0hdMQ==

>  <s_epik_cmdline>  (72) 
J2VwaWtfcHl0aG9uJywgJy1waHQnLCAnMi4wJywgJy1waCcsICc3LjAnLCAnLXRuJywgJzgnLCAnLW1hJywgJzIwMCcsICctaW1hZScsICc8aW5maWxlLm1hZT4nLCAnLW9tYWUnLCAnPG91dGZpbGUubWFlPic=

>  <r_lp_tautomer_probability>  (72) 
1

>  <r_epik_Ionization_Penalty>  (72) 
2.08912e-06

>  <r_epik_Ionization_Penalty_Charging>  (72) 
0

>  <r_epik_Ionization_Penalty_Neutral>  (72) 
2.08912e-06

>  <r_epik_State_Penalty>  (72) 
-0

>  <r_epik_Charging_Adjusted_Penalty>  (72) 
0

>  <i_epik_Tot_Q>  (72) 
0

>  <i_epik_Tot_abs_Q>  (72) 
0

>  <s_epik_Chemistry_Notes>  (72) 
This compound has an ester and may undergo hydrolysis at high or low pH. This compound contains an acetal/aminal-like group ( X-CH(R)-Y where X, Y are N, S, or O) that may be acid/base labile, releasing an aldehyde.

>  <s_lp_Force_Field>  (72) 
OPLS3e

>  <r_lp_Energy>  (72) 
188.442

>  <b_lp_Chiralities_Consistent>  (72) 
1

>  <s_lp_Variant>  (72) 
81:0-1

>  <s_i_glide_gridfile>  (72) 
pfpi4k_grid

>  <i_i_glide_lignum>  (72) 
14

>  <i_i_glide_rotatable_bonds>  (72) 
6

>  <r_i_docking_score>  (72) 
-2.71662

>  <r_i_glide_ligand_efficiency>  (72) 
-0.04766

>  <r_i_glide_ligand_efficiency_sa>  (72) 
-0.18342

>  <r_i_glide_ligand_efficiency_ln>  (72) 
-0.538686

>  <r_i_glide_gscore>  (72) 
-2.71662

>  <r_i_glide_lipo>  (72) 
-0.180507

>  <r_i_glide_hbond>  (72) 
0

>  <r_i_glide_metal>  (72) 
-0

>  <r_i_glide_rewards>  (72) 
-0.116327

>  <r_i_glide_evdw>  (72) 
-36.2712

>  <r_i_glide_ecoul>  (72) 
-4.21254

>  <r_i_glide_erotb>  (72) 
0.0328588

>  <r_i_glide_esite>  (72) 
-0.00720539

>  <r_i_glide_emodel>  (72) 
-42.5444

>  <r_i_glide_energy>  (72) 
-40.4838

>  <r_i_glide_einternal>  (72) 
7.189

>  <r_i_glide_intrahb_reward>  (72) 
-0

>  <i_i_glide_confnum>  (72) 
6

>  <i_i_glide_posenum>  (72) 
23

>  <r_i_glide_eff_state_penalty>  (72) 
0

>  <ligand_id>  (72) 
81

>  <original_smiles>  (72) 
CC(=O)OC1C(O)C(O)C2(C)OC3OC3(C)C3(C)C(O)CC4c5c(coc5O)C5(C)CCC6[S+]([O-])C(C=CC43C12)C1(OO5)C2(C)C=CC(=O)C(C)(O)C2CCC61C

>  <smiles>  (72) 
[H]OC1([H])C([H])(OC(=O)C([H])([H])[H])C2([H])C(C([H])([H])[H])(OC3([H])OC3(C([H])([H])[H])C3(C([H])([H])[H])C([H])(O[H])C([H])([H])C4([H])C5=C(C([H])([H])OC5=O)C5(C([H])([H])[H])OOC67C([H])(C([H])=C([H])C423)S(=O)C([H])(C([H])([H])C5([H])[H])C6(C([H])([H])[H])C([H])([H])C([H])([H])C2([H])C(O[H])(C([H])([H])[H])C(=O)C([H])=C([H])C27C([H])([H])[H])C1([H])O[H]

$$$$
81:1:0
     RDKit          3D

111120  0  0  1  0  0  0  0  0999 V2000
    6.2647   -1.6148    0.9495 C   0  0  0  0  0  0  0  0  0  0  0  0
    5.2903   -0.9188    1.8895 C   0  0  0  0  0  0  0  0  0  0  0  0
    4.5606   -0.0126    1.4939 O   0  0  0  0  0  0  0  0  0  0  0  0
    5.3212   -1.4166    3.1433 O   0  0  0  0  0  0  0  0  0  0  0  0
    4.4620   -0.9122    4.1814 C   0  0  2  0  0  0  0  0  0  0  0  0
    5.1490    0.3648    4.7204 C   0  0  1  0  0  0  0  0  0  0  0  0
    4.2182    1.4135    4.8728 O   0  0  0  0  0  0  0  0  0  0  0  0
    5.8065   -0.0887    6.0281 C   0  0  1  0  0  0  0  0  0  0  0  0
    6.1766    0.9336    6.9315 O   0  0  0  0  0  0  0  0  0  0  0  0
    5.0018   -1.2646    6.6188 C   0  0  1  0  0  0  0  0  0  0  0  0
    5.9266   -2.1721    7.4600 C   0  0  0  0  0  0  0  0  0  0  0  0
    4.0839   -0.8010    7.5977 O   0  0  0  0  0  0  0  0  0  0  0  0
    3.0198    0.0239    7.1871 C   0  0  2  0  0  0  0  0  0  0  0  0
    1.7274   -0.1856    7.7638 O   0  0  0  0  0  0  0  0  0  0  0  0
    1.9544   -0.7727    6.4878 C   0  0  1  0  0  0  0  0  0  0  0  0
    1.2352   -0.0563    5.3590 C   0  0  0  0  0  0  0  0  0  0  0  0
    1.9584   -2.3632    6.4862 C   0  0  1  0  0  0  0  0  0  0  0  0
    1.9726   -2.8550    7.9729 C   0  0  0  0  0  0  0  0  0  0  0  0
    0.6600   -2.9898    5.8927 C   0  0  1  0  0  0  0  0  0  0  0  0
   -0.5620   -2.3586    6.2183 O   0  0  0  0  0  0  0  0  0  0  0  0
    0.8885   -3.1384    4.4000 C   0  0  0  0  0  0  0  0  0  0  0  0
    2.3703   -3.5735    4.2863 C   0  0  1  0  0  0  0  0  0  0  0  0
    2.9900   -3.6558    2.8549 C   0  0  0  0  0  0  0  0  0  0  0  0
    3.6847   -4.5966    2.1588 C   0  0  0  0  0  0  0  0  0  0  0  0
    3.8380   -4.0930    0.7354 C   0  0  0  0  0  0  0  0  0  0  0  0
    3.0833   -2.9173    0.6923 O   0  0  0  0  0  0  0  0  0  0  0  0
    2.5777   -2.6159    1.8761 C   0  0  0  0  0  0  0  0  0  0  0  0
    1.8943   -1.6259    2.0739 O   0  0  0  0  0  0  0  0  0  0  0  0
    4.3206   -6.0182    2.4332 C   0  0  1  0  0  0  0  0  0  0  0  0
    4.7450   -6.6671    1.0779 C   0  0  0  0  0  0  0  0  0  0  0  0
    5.5889   -5.9755    3.3257 C   0  0  0  0  0  0  0  0  0  0  0  0
    6.1884   -7.3507    3.7672 C   0  0  0  0  0  0  0  0  0  0  0  0
    5.6290   -8.1708    4.9747 C   0  0  1  0  0  0  0  0  0  0  0  0
    5.5978   -7.0907    6.4997 S   0  0  0  0  0  0  0  0  0  0  0  0
    5.8073   -7.9533    7.7443 O   0  0  0  0  0  0  0  0  0  0  0  0
    3.7838   -6.7735    6.2816 C   0  0  2  0  0  0  0  0  0  0  0  0
    3.1601   -5.4021    6.5193 C   0  0  0  0  0  0  0  0  0  0  0  0
    3.7818   -4.2343    6.2124 C   0  0  0  0  0  0  0  0  0  0  0  0
    3.1401   -2.9739    5.5724 C   0  0  2  0  0  0  0  0  0  0  0  0
    4.3821   -1.9653    5.3496 C   0  0  1  0  0  0  0  0  0  0  0  0
    3.1317   -7.7235    5.2005 C   0  0  2  0  0  0  0  0  0  0  0  0
    2.8483   -6.7386    4.1724 O   0  0  0  0  0  0  0  0  0  0  0  0
    3.4085   -7.0261    2.8561 O   0  0  0  0  0  0  0  0  0  0  0  0
    1.6635   -8.3122    5.4020 C   0  0  1  0  0  0  0  0  0  0  0  0
    1.4642   -9.0567    6.7461 C   0  0  0  0  0  0  0  0  0  0  0  0
    0.6146   -7.1996    5.4936 C   0  0  0  0  0  0  0  0  0  0  0  0
   -0.1942   -6.7749    4.5108 C   0  0  0  0  0  0  0  0  0  0  0  0
   -0.1085   -7.3184    3.1569 C   0  0  0  0  0  0  0  0  0  0  0  0
   -0.5823   -6.7007    2.1969 O   0  0  0  0  0  0  0  0  0  0  0  0
    0.5233   -8.7084    2.9494 C   0  0  1  0  0  0  0  0  0  0  0  0
   -0.6118   -9.6695    2.5222 C   0  0  0  0  0  0  0  0  0  0  0  0
    1.3690   -8.6476    1.8147 O   0  0  0  0  0  0  0  0  0  0  0  0
    1.2934   -9.2801    4.2057 C   0  0  1  0  0  0  0  0  0  0  0  0
    2.4096  -10.3039    3.8295 C   0  0  0  0  0  0  0  0  0  0  0  0
    3.8534   -9.7384    3.7438 C   0  0  0  0  0  0  0  0  0  0  0  0
    4.2173   -8.8555    4.9658 C   0  0  1  0  0  0  0  0  0  0  0  0
    4.3182   -9.8760    6.1588 C   0  0  0  0  0  0  0  0  0  0  0  0
    6.7178   -2.4816    1.4342 H   0  0  0  0  0  0  0  0  0  0  0  0
    7.0494   -0.9258    0.6322 H   0  0  0  0  0  0  0  0  0  0  0  0
    5.7372   -1.9584    0.0595 H   0  0  0  0  0  0  0  0  0  0  0  0
    3.4839   -0.6772    3.7780 H   0  0  0  0  0  0  0  0  0  0  0  0
    5.9047    0.7454    4.0315 H   0  0  0  0  0  0  0  0  0  0  0  0
    3.9334    1.6928    4.0106 H   0  0  0  0  0  0  0  0  0  0  0  0
    6.7536   -0.5201    5.7074 H   0  0  0  0  0  0  0  0  0  0  0  0
    6.7427    1.5405    6.4735 H   0  0  0  0  0  0  0  0  0  0  0  0
    6.6736   -2.6785    6.8452 H   0  0  0  0  0  0  0  0  0  0  0  0
    5.3669   -2.9352    8.0024 H   0  0  0  0  0  0  0  0  0  0  0  0
    6.4702   -1.5980    8.2145 H   0  0  0  0  0  0  0  0  0  0  0  0
    3.2298    1.0711    7.0610 H   0  0  0  0  0  0  0  0  0  0  0  0
    1.5834   -0.3558    4.3803 H   0  0  0  0  0  0  0  0  0  0  0  0
    1.4297    1.0194    5.4376 H   0  0  0  0  0  0  0  0  0  0  0  0
    0.1548   -0.1722    5.4038 H   0  0  0  0  0  0  0  0  0  0  0  0
    1.7677   -3.9182    8.0916 H   0  0  0  0  0  0  0  0  0  0  0  0
    1.1905   -2.3781    8.5654 H   0  0  0  0  0  0  0  0  0  0  0  0
    2.9170   -2.6775    8.4843 H   0  0  0  0  0  0  0  0  0  0  0  0
    0.5373   -4.0061    6.2641 H   0  0  0  0  0  0  0  0  0  0  0  0
   -1.2565   -2.7911    5.7379 H   0  0  0  0  0  0  0  0  0  0  0  0
    0.2129   -3.8758    3.9622 H   0  0  0  0  0  0  0  0  0  0  0  0
    0.6324   -2.2030    3.9303 H   0  0  0  0  0  0  0  0  0  0  0  0
    2.1959   -4.6213    4.4347 H   0  0  0  0  0  0  0  0  0  0  0  0
    3.4453   -4.7729   -0.0146 H   0  0  0  0  0  0  0  0  0  0  0  0
    4.8868   -3.9073    0.5154 H   0  0  0  0  0  0  0  0  0  0  0  0
    5.5409   -6.1225    0.5695 H   0  0  0  0  0  0  0  0  0  0  0  0
    3.9090   -6.7571    0.3887 H   0  0  0  0  0  0  0  0  0  0  0  0
    5.1040   -7.6835    1.1997 H   0  0  0  0  0  0  0  0  0  0  0  0
    6.3640   -5.4989    2.7232 H   0  0  0  0  0  0  0  0  0  0  0  0
    5.4768   -5.2767    4.1499 H   0  0  0  0  0  0  0  0  0  0  0  0
    6.2895   -8.0300    2.9264 H   0  0  0  0  0  0  0  0  0  0  0  0
    7.2207   -7.1328    4.0389 H   0  0  0  0  0  0  0  0  0  0  0  0
    6.3976   -8.9305    5.1310 H   0  0  0  0  0  0  0  0  0  0  0  0
    4.3153   -6.2773    5.5056 H   0  0  0  0  0  0  0  0  0  0  0  0
    2.0929   -5.4206    6.5663 H   0  0  0  0  0  0  0  0  0  0  0  0
    4.8501   -4.3023    6.0799 H   0  0  0  0  0  0  0  0  0  0  0  0
    5.2002   -2.6123    5.0389 H   0  0  0  0  0  0  0  0  0  0  0  0
    1.8116  -10.0839    6.7428 H   0  0  0  0  0  0  0  0  0  0  0  0
    0.4048   -9.1389    6.9953 H   0  0  0  0  0  0  0  0  0  0  0  0
    1.9419   -8.5281    7.5689 H   0  0  0  0  0  0  0  0  0  0  0  0
    0.4921   -6.7696    6.4807 H   0  0  0  0  0  0  0  0  0  0  0  0
   -0.9372   -6.0126    4.7057 H   0  0  0  0  0  0  0  0  0  0  0  0
   -1.3630   -9.8091    3.3021 H   0  0  0  0  0  0  0  0  0  0  0  0
   -0.2286  -10.6590    2.2596 H   0  0  0  0  0  0  0  0  0  0  0  0
   -1.1663   -9.2978    1.6603 H   0  0  0  0  0  0  0  0  0  0  0  0
    0.9130   -9.0668    1.0926 H   0  0  0  0  0  0  0  0  0  0  0  0
    0.5241   -9.9199    4.6400 H   0  0  0  0  0  0  0  0  0  0  0  0
    2.3585  -11.1261    4.5429 H   0  0  0  0  0  0  0  0  0  0  0  0
    2.1749  -10.8030    2.8908 H   0  0  0  0  0  0  0  0  0  0  0  0
    4.5419  -10.5821    3.6833 H   0  0  0  0  0  0  0  0  0  0  0  0
    3.9847   -9.2260    2.7987 H   0  0  0  0  0  0  0  0  0  0  0  0
    3.6818  -10.7473    6.0710 H   0  0  0  0  0  0  0  0  0  0  0  0
    4.0697   -9.4249    7.1163 H   0  0  0  0  0  0  0  0  0  0  0  0
    5.3111  -10.3115    6.2683 H   0  0  0  0  0  0  0  0  0  0  0  0
  1  2  1  0
  1 58  1  0
  1 59  1  0
  1 60  1  0
  2  3  2  0
  2  4  1  0
  4  5  1  0
  5 40  1  0
  5  6  1  0
  5 61  1  6
  6  7  1  0
  6  8  1  0
  6 62  1  6
  7 63  1  0
  8  9  1  0
  8 10  1  0
  8 64  1  6
  9 65  1  0
 10 40  1  0
 10 11  1  1
 10 12  1  0
 11 66  1  0
 11 67  1  0
 11 68  1  0
 12 13  1  0
 13 15  1  0
 13 14  1  0
 13 69  1  6
 14 15  1  0
 15 16  1  6
 15 17  1  0
 16 70  1  0
 16 71  1  0
 16 72  1  0
 17 39  1  0
 17 18  1  1
 17 19  1  0
 18 73  1  0
 18 74  1  0
 18 75  1  0
 19 20  1  0
 19 21  1  0
 19 76  1  1
 20 77  1  0
 21 22  1  0
 21 78  1  0
 21 79  1  0
 22 39  1  0
 22 80  1  1
 22 23  1  0
 23 24  2  0
 23 27  1  0
 24 29  1  0
 24 25  1  0
 25 26  1  0
 25 81  1  0
 25 82  1  0
 26 27  1  0
 27 28  2  0
 29 43  1  0
 29 30  1  6
 29 31  1  0
 30 83  1  0
 30 84  1  0
 30 85  1  0
 31 32  1  0
 31 86  1  0
 31 87  1  0
 32 33  1  0
 32 88  1  0
 32 89  1  0
 33 56  1  0
 34 33  1  6
 33 90  1  1
 34 35  2  0
 34 36  1  0
 36 37  1  0
 36 41  1  0
 36 91  1  1
 37 38  2  3
 37 92  1  0
 39 38  1  1
 38 93  1  0
 39 40  1  0
 40 94  1  6
 41 56  1  0
 41 42  1  6
 41 44  1  0
 42 43  1  0
 44 53  1  0
 44 45  1  1
 44 46  1  0
 45 95  1  0
 45 96  1  0
 45 97  1  0
 46 47  2  0
 46 98  1  0
 47 48  1  0
 47 99  1  0
 48 49  2  0
 48 50  1  0
 50 51  1  0
 50 52  1  6
 50 53  1  0
 51100  1  0
 51101  1  0
 51102  1  0
 52103  1  0
 53 54  1  0
 53104  1  1
 54 55  1  0
 54105  1  0
 54106  1  0
 55 56  1  0
 55107  1  0
 55108  1  0
 56 57  1  1
 57109  1  0
 57110  1  0
 57111  1  0
M  END
>  <i_m_ct_stereo_status>  (73) 
1

>  <s_m_source_file>  (73) 
/var/tmp/pbs.5075288.sched01/tmpndvtliwj/216foptgilz.sdf

>  <i_m_source_file_index>  (73) 
15

>  <i_lp_mmshare_version>  (73) 
48012

>  <i_f3d_flags>  (73) 
0

>  <s_epik_input>  (73) 
W0NIM11DKD1PKU9bQ0BIXShbQ0BASF0oW09IXSlbQ0BIXTFbT0hdKVtDQEhdMltDQF0xKFtDSDNdKU9bQ0BIXShPMylbQ0BAXTMoW0NIM10pW0NAQF0oW0NAXTI0NSkoW0NIM10pW0NAQEhdKFtPSF0pW0NIMl1bQ0BIXTRjNmMoW2NIXW9jNltPSF0pW0NAQF03KFtDSDNdKVtDSDJdW0NIMl1bQ0BASF04W0NAQF05KFtDSDNdKVtDQF0oT083KShbQ0BASF0oW1MrXThbTy1dKS9bQ0hdPVtDSF1cNSlbQ0BdMShbQ0gzXSlbQ0BIXShbQ0gyXVtDSDJdOSlbQ0BdKFtDSDNdKShbT0hdKUMoPU8pW0NIXT1bQ0hdMQ==

>  <s_epik_cmdline>  (73) 
J2VwaWtfcHl0aG9uJywgJy1waHQnLCAnMi4wJywgJy1waCcsICc3LjAnLCAnLXRuJywgJzgnLCAnLW1hJywgJzIwMCcsICctaW1hZScsICc8aW5maWxlLm1hZT4nLCAnLW9tYWUnLCAnPG91dGZpbGUubWFlPic=

>  <r_lp_tautomer_probability>  (73) 
1

>  <r_epik_Ionization_Penalty>  (73) 
2.08912e-06

>  <r_epik_Ionization_Penalty_Charging>  (73) 
0

>  <r_epik_Ionization_Penalty_Neutral>  (73) 
2.08912e-06

>  <r_epik_State_Penalty>  (73) 
-0

>  <r_epik_Charging_Adjusted_Penalty>  (73) 
0

>  <i_epik_Tot_Q>  (73) 
0

>  <i_epik_Tot_abs_Q>  (73) 
0

>  <s_epik_Chemistry_Notes>  (73) 
This compound has an ester and may undergo hydrolysis at high or low pH. This compound contains an acetal/aminal-like group ( X-CH(R)-Y where X, Y are N, S, or O) that may be acid/base labile, releasing an aldehyde.

>  <s_lp_Force_Field>  (73) 
OPLS3e

>  <r_lp_Energy>  (73) 
208.48

>  <b_lp_Chiralities_Consistent>  (73) 
1

>  <s_lp_Variant>  (73) 
81:0-2

>  <s_i_glide_gridfile>  (73) 
pfpi4k_grid

>  <i_i_glide_lignum>  (73) 
15

>  <i_i_glide_rotatable_bonds>  (73) 
6

>  <r_i_docking_score>  (73) 
-4.14962

>  <r_i_glide_ligand_efficiency>  (73) 
-0.0728003

>  <r_i_glide_ligand_efficiency_sa>  (73) 
-0.280172

>  <r_i_glide_ligand_efficiency_ln>  (73) 
-0.822839

>  <r_i_glide_gscore>  (73) 
-4.14962

>  <r_i_glide_lipo>  (73) 
-0.503169

>  <r_i_glide_hbond>  (73) 
-0.20653

>  <r_i_glide_metal>  (73) 
-0

>  <r_i_glide_rewards>  (73) 
-0.162883

>  <r_i_glide_evdw>  (73) 
-41.1499

>  <r_i_glide_ecoul>  (73) 
-7.87993

>  <r_i_glide_erotb>  (73) 
0.0328588

>  <r_i_glide_esite>  (73) 
-0.0704116

>  <r_i_glide_emodel>  (73) 
-59.9133

>  <r_i_glide_energy>  (73) 
-49.0298

>  <r_i_glide_einternal>  (73) 
3.82715

>  <r_i_glide_intrahb_reward>  (73) 
-0

>  <i_i_glide_confnum>  (73) 
3

>  <i_i_glide_posenum>  (73) 
19

>  <r_i_glide_eff_state_penalty>  (73) 
0

>  <ligand_id>  (73) 
81

>  <original_smiles>  (73) 
CC(=O)OC1C(O)C(O)C2(C)OC3OC3(C)C3(C)C(O)CC4c5c(coc5O)C5(C)CCC6[S+]([O-])C(C=CC43C12)C1(OO5)C2(C)C=CC(=O)C(C)(O)C2CCC61C

>  <smiles>  (73) 
[H]OC1([H])C([H])(OC(=O)C([H])([H])[H])C2([H])C(C([H])([H])[H])(OC3([H])OC3(C([H])([H])[H])C3(C([H])([H])[H])C([H])(O[H])C([H])([H])C4([H])C5=C(C([H])([H])OC5=O)C5(C([H])([H])[H])OOC67C([H])(C([H])=C([H])C423)S(=O)C([H])(C([H])([H])C5([H])[H])C6(C([H])([H])[H])C([H])([H])C([H])([H])C2([H])C(O[H])(C([H])([H])[H])C(=O)C([H])=C([H])C27C([H])([H])[H])C1([H])O[H]

$$$$
81:1:1
     RDKit          3D

111120  0  0  1  0  0  0  0  0999 V2000
    3.0702   -4.1522   10.7112 C   0  0  0  0  0  0  0  0  0  0  0  0
    3.3705   -3.1028    9.6455 C   0  0  0  0  0  0  0  0  0  0  0  0
    4.2708   -2.2759    9.7950 O   0  0  0  0  0  0  0  0  0  0  0  0
    2.5823   -3.2216    8.5562 O   0  0  0  0  0  0  0  0  0  0  0  0
    2.7277   -2.3574    7.4213 C   0  0  2  0  0  0  0  0  0  0  0  0
    2.0161   -1.0349    7.7988 C   0  0  1  0  0  0  0  0  0  0  0  0
    2.7852    0.0785    7.4152 O   0  0  0  0  0  0  0  0  0  0  0  0
    0.6667   -1.1218    7.0827 C   0  0  1  0  0  0  0  0  0  0  0  0
   -0.0362    0.0930    6.9323 O   0  0  0  0  0  0  0  0  0  0  0  0
    0.8224   -1.9824    5.8169 C   0  0  1  0  0  0  0  0  0  0  0  0
   -0.5143   -2.6484    5.4662 C   0  0  0  0  0  0  0  0  0  0  0  0
    1.0357   -1.1424    4.6741 O   0  0  0  0  0  0  0  0  0  0  0  0
    2.2524   -0.4329    4.5908 C   0  0  2  0  0  0  0  0  0  0  0  0
    2.9120   -0.3721    3.3155 O   0  0  0  0  0  0  0  0  0  0  0  0
    3.4204   -1.3386    4.2524 C   0  0  1  0  0  0  0  0  0  0  0  0
    4.7273   -0.9487    4.8707 C   0  0  0  0  0  0  0  0  0  0  0  0
    3.1947   -2.8390    3.7891 C   0  0  1  0  0  0  0  0  0  0  0  0
    2.2589   -2.8490    2.5411 C   0  0  0  0  0  0  0  0  0  0  0  0
    4.4995   -3.5272    3.2800 C   0  0  1  0  0  0  0  0  0  0  0  0
    5.3683   -2.7286    2.5121 O   0  0  0  0  0  0  0  0  0  0  0  0
    5.1739   -4.1389    4.4951 C   0  0  0  0  0  0  0  0  0  0  0  0
    4.0021   -4.7013    5.3317 C   0  0  1  0  0  0  0  0  0  0  0  0
    4.3419   -5.2542    6.7448 C   0  0  0  0  0  0  0  0  0  0  0  0
    4.0699   -6.4191    7.4093 C   0  0  0  0  0  0  0  0  0  0  0  0
    4.8460   -6.4016    8.7070 C   0  0  0  0  0  0  0  0  0  0  0  0
    5.6380   -5.2491    8.6322 O   0  0  0  0  0  0  0  0  0  0  0  0
    5.4016   -4.5610    7.5286 C   0  0  0  0  0  0  0  0  0  0  0  0
    5.9693   -3.5121    7.2668 O   0  0  0  0  0  0  0  0  0  0  0  0
    3.2120   -7.7238    7.1629 C   0  0  1  0  0  0  0  0  0  0  0  0
    3.5785   -8.7872    8.2445 C   0  0  0  0  0  0  0  0  0  0  0  0
    1.6838   -7.5038    7.2566 C   0  0  0  0  0  0  0  0  0  0  0  0
    0.7787   -8.7210    6.8836 C   0  0  0  0  0  0  0  0  0  0  0  0
    0.4172   -9.0809    5.4024 C   0  0  1  0  0  0  0  0  0  0  0  0
   -0.3094   -7.5800    4.5542 S   0  0  0  0  0  0  0  0  0  0  0  0
   -1.3200   -7.9862    3.4803 O   0  0  0  0  0  0  0  0  0  0  0  0
    1.3082   -7.2150    3.7290 C   0  0  2  0  0  0  0  0  0  0  0  0
    1.8403   -5.7992    3.5868 C   0  0  0  0  0  0  0  0  0  0  0  0
    1.6628   -4.8326    4.5235 C   0  0  0  0  0  0  0  0  0  0  0  0
    2.7075   -3.7913    4.9969 C   0  0  2  0  0  0  0  0  0  0  0  0
    1.9757   -2.9880    6.1931 C   0  0  1  0  0  0  0  0  0  0  0  0
    2.3505   -8.3967    3.8920 C   0  0  2  0  0  0  0  0  0  0  0  0
    3.2999   -7.7669    4.7735 O   0  0  0  0  0  0  0  0  0  0  0  0
    3.5704   -8.4901    6.0258 O   0  0  0  0  0  0  0  0  0  0  0  0
    3.3328   -8.7876    2.7047 C   0  0  1  0  0  0  0  0  0  0  0  0
    2.6258   -9.0718    1.3705 C   0  0  0  0  0  0  0  0  0  0  0  0
    4.2592   -7.6222    2.3392 C   0  0  0  0  0  0  0  0  0  0  0  0
    5.5264   -7.4588    2.7150 C   0  0  0  0  0  0  0  0  0  0  0  0
    6.1805   -8.4109    3.6208 C   0  0  0  0  0  0  0  0  0  0  0  0
    7.2052   -8.1070    4.2428 O   0  0  0  0  0  0  0  0  0  0  0  0
    5.6243   -9.8337    3.7551 C   0  0  1  0  0  0  0  0  0  0  0  0
    6.6614  -10.8088    3.1376 C   0  0  0  0  0  0  0  0  0  0  0  0
    5.5919  -10.1611    5.1270 O   0  0  0  0  0  0  0  0  0  0  0  0
    4.2030  -10.0431    3.1062 C   0  0  1  0  0  0  0  0  0  0  0  0
    3.3911  -11.2138    3.7445 C   0  0  0  0  0  0  0  0  0  0  0  0
    2.3564  -10.8131    4.8256 C   0  0  0  0  0  0  0  0  0  0  0  0
    1.4701   -9.6205    4.3805 C   0  0  1  0  0  0  0  0  0  0  0  0
    0.5637  -10.2302    3.2484 C   0  0  0  0  0  0  0  0  0  0  0  0
    2.3292   -4.8712   10.3559 H   0  0  0  0  0  0  0  0  0  0  0  0
    2.7098   -3.6901   11.6320 H   0  0  0  0  0  0  0  0  0  0  0  0
    3.9822   -4.6983   10.9537 H   0  0  0  0  0  0  0  0  0  0  0  0
    3.7741   -2.1684    7.2190 H   0  0  0  0  0  0  0  0  0  0  0  0
    1.8729   -0.9317    8.8689 H   0  0  0  0  0  0  0  0  0  0  0  0
    2.3461    0.8554    7.7473 H   0  0  0  0  0  0  0  0  0  0  0  0
    0.0399   -1.7210    7.7476 H   0  0  0  0  0  0  0  0  0  0  0  0
    0.4449    0.6400    6.3199 H   0  0  0  0  0  0  0  0  0  0  0  0
   -0.8177   -3.3758    6.2219 H   0  0  0  0  0  0  0  0  0  0  0  0
   -0.4769   -3.1636    4.5005 H   0  0  0  0  0  0  0  0  0  0  0  0
   -1.3212   -1.9136    5.3846 H   0  0  0  0  0  0  0  0  0  0  0  0
    2.2964    0.5200    5.0845 H   0  0  0  0  0  0  0  0  0  0  0  0
    4.9930   -1.5512    5.7296 H   0  0  0  0  0  0  0  0  0  0  0  0
    4.6614    0.0890    5.2418 H   0  0  0  0  0  0  0  0  0  0  0  0
    5.5504   -0.9536    4.1632 H   0  0  0  0  0  0  0  0  0  0  0  0
    2.2241   -3.8062    2.0195 H   0  0  0  0  0  0  0  0  0  0  0  0
    2.6034   -2.1551    1.7710 H   0  0  0  0  0  0  0  0  0  0  0  0
    1.2248   -2.5904    2.7669 H   0  0  0  0  0  0  0  0  0  0  0  0
    4.2597   -4.3647    2.6367 H   0  0  0  0  0  0  0  0  0  0  0  0
    4.9080   -2.4331    1.7400 H   0  0  0  0  0  0  0  0  0  0  0  0
    5.8892   -4.9155    4.2135 H   0  0  0  0  0  0  0  0  0  0  0  0
    5.7561   -3.3666    4.9600 H   0  0  0  0  0  0  0  0  0  0  0  0
    3.9294   -5.6360    4.8150 H   0  0  0  0  0  0  0  0  0  0  0  0
    5.4968   -7.2546    8.8364 H   0  0  0  0  0  0  0  0  0  0  0  0
    4.1574   -6.3681    9.5448 H   0  0  0  0  0  0  0  0  0  0  0  0
    3.3066   -8.4868    9.2548 H   0  0  0  0  0  0  0  0  0  0  0  0
    4.6369   -9.0216    8.2369 H   0  0  0  0  0  0  0  0  0  0  0  0
    3.0910   -9.7394    8.0687 H   0  0  0  0  0  0  0  0  0  0  0  0
    1.4729   -7.2992    8.3092 H   0  0  0  0  0  0  0  0  0  0  0  0
    1.3749   -6.5815    6.7699 H   0  0  0  0  0  0  0  0  0  0  0  0
    1.1056   -9.6375    7.3693 H   0  0  0  0  0  0  0  0  0  0  0  0
   -0.1798   -8.5164    7.3579 H   0  0  0  0  0  0  0  0  0  0  0  0
   -0.3679   -9.8208    5.5405 H   0  0  0  0  0  0  0  0  0  0  0  0
    1.4035   -7.0260    4.7754 H   0  0  0  0  0  0  0  0  0  0  0  0
    2.6777   -5.7217    2.9277 H   0  0  0  0  0  0  0  0  0  0  0  0
    0.8721   -5.0226    5.2384 H   0  0  0  0  0  0  0  0  0  0  0  0
    1.4173   -3.7628    6.7220 H   0  0  0  0  0  0  0  0  0  0  0  0
    2.2189  -10.0717    1.2934 H   0  0  0  0  0  0  0  0  0  0  0  0
    3.3361   -9.0116    0.5483 H   0  0  0  0  0  0  0  0  0  0  0  0
    1.8271   -8.3513    1.1815 H   0  0  0  0  0  0  0  0  0  0  0  0
    3.8217   -6.9041    1.6467 H   0  0  0  0  0  0  0  0  0  0  0  0
    6.1145   -6.6235    2.3670 H   0  0  0  0  0  0  0  0  0  0  0  0
    6.8129  -10.6292    2.0717 H   0  0  0  0  0  0  0  0  0  0  0  0
    6.3761  -11.8562    3.2443 H   0  0  0  0  0  0  0  0  0  0  0  0
    7.6429  -10.7032    3.6042 H   0  0  0  0  0  0  0  0  0  0  0  0
    5.2666  -11.0435    5.2165 H   0  0  0  0  0  0  0  0  0  0  0  0
    4.4862  -10.4610    2.1353 H   0  0  0  0  0  0  0  0  0  0  0  0
    2.9242  -11.7702    2.9383 H   0  0  0  0  0  0  0  0  0  0  0  0
    4.0630  -11.9632    4.1720 H   0  0  0  0  0  0  0  0  0  0  0  0
    1.7311  -11.6836    5.0381 H   0  0  0  0  0  0  0  0  0  0  0  0
    2.8605  -10.6237    5.7681 H   0  0  0  0  0  0  0  0  0  0  0  0
    1.0099  -11.0487    2.6971 H   0  0  0  0  0  0  0  0  0  0  0  0
    0.2592   -9.4931    2.5104 H   0  0  0  0  0  0  0  0  0  0  0  0
   -0.3532  -10.6687    3.6417 H   0  0  0  0  0  0  0  0  0  0  0  0
  1  2  1  0
  1 58  1  0
  1 59  1  0
  1 60  1  0
  2  3  2  0
  2  4  1  0
  4  5  1  0
  5 40  1  0
  5  6  1  0
  5 61  1  6
  6  7  1  0
  6  8  1  0
  6 62  1  1
  7 63  1  0
  8  9  1  0
  8 10  1  0
  8 64  1  1
  9 65  1  0
 10 40  1  0
 10 11  1  6
 10 12  1  0
 11 66  1  0
 11 67  1  0
 11 68  1  0
 12 13  1  0
 13 15  1  0
 13 14  1  0
 13 69  1  1
 14 15  1  0
 15 16  1  1
 15 17  1  0
 16 70  1  0
 16 71  1  0
 16 72  1  0
 17 39  1  0
 17 18  1  6
 17 19  1  0
 18 73  1  0
 18 74  1  0
 18 75  1  0
 19 20  1  0
 19 21  1  0
 19 76  1  6
 20 77  1  0
 21 22  1  0
 21 78  1  0
 21 79  1  0
 22 39  1  0
 22 80  1  6
 22 23  1  0
 23 24  2  0
 23 27  1  0
 24 29  1  0
 24 25  1  0
 25 26  1  0
 25 81  1  0
 25 82  1  0
 26 27  1  0
 27 28  2  0
 29 43  1  0
 29 30  1  1
 29 31  1  0
 30 83  1  0
 30 84  1  0
 30 85  1  0
 31 32  1  0
 31 86  1  0
 31 87  1  0
 32 33  1  0
 32 88  1  0
 32 89  1  0
 33 56  1  0
 34 33  1  1
 33 90  1  1
 34 35  2  0
 34 36  1  0
 36 37  1  0
 36 41  1  0
 36 91  1  6
 37 38  2  3
 37 92  1  0
 39 38  1  6
 38 93  1  0
 39 40  1  0
 40 94  1  1
 41 56  1  0
 41 42  1  1
 41 44  1  0
 42 43  1  0
 44 53  1  0
 44 45  1  6
 44 46  1  0
 45 95  1  0
 45 96  1  0
 45 97  1  0
 46 47  2  0
 46 98  1  0
 47 48  1  0
 47 99  1  0
 48 49  2  0
 48 50  1  0
 50 51  1  0
 50 52  1  1
 50 53  1  0
 51100  1  0
 51101  1  0
 51102  1  0
 52103  1  0
 53 54  1  0
 53104  1  6
 54 55  1  0
 54105  1  0
 54106  1  0
 55 56  1  0
 55107  1  0
 55108  1  0
 56 57  1  6
 57109  1  0
 57110  1  0
 57111  1  0
M  END
>  <i_m_ct_stereo_status>  (74) 
1

>  <s_m_source_file>  (74) 
/var/tmp/pbs.5075288.sched01/tmpndvtliwj/216foptgilz.sdf

>  <i_m_source_file_index>  (74) 
15

>  <i_lp_mmshare_version>  (74) 
48012

>  <i_f3d_flags>  (74) 
0

>  <s_epik_input>  (74) 
W0NIM11DKD1PKU9bQ0BIXShbQ0BASF0oW09IXSlbQ0BIXTFbT0hdKVtDQEhdMltDQF0xKFtDSDNdKU9bQ0BIXShPMylbQ0BAXTMoW0NIM10pW0NAQF0oW0NAXTI0NSkoW0NIM10pW0NAQEhdKFtPSF0pW0NIMl1bQ0BIXTRjNmMoW2NIXW9jNltPSF0pW0NAQF03KFtDSDNdKVtDSDJdW0NIMl1bQ0BASF04W0NAQF05KFtDSDNdKVtDQF0oT083KShbQ0BASF0oW1MrXThbTy1dKS9bQ0hdPVtDSF1cNSlbQ0BdMShbQ0gzXSlbQ0BIXShbQ0gyXVtDSDJdOSlbQ0BdKFtDSDNdKShbT0hdKUMoPU8pW0NIXT1bQ0hdMQ==

>  <s_epik_cmdline>  (74) 
J2VwaWtfcHl0aG9uJywgJy1waHQnLCAnMi4wJywgJy1waCcsICc3LjAnLCAnLXRuJywgJzgnLCAnLW1hJywgJzIwMCcsICctaW1hZScsICc8aW5maWxlLm1hZT4nLCAnLW9tYWUnLCAnPG91dGZpbGUubWFlPic=

>  <r_lp_tautomer_probability>  (74) 
1

>  <r_epik_Ionization_Penalty>  (74) 
2.08912e-06

>  <r_epik_Ionization_Penalty_Charging>  (74) 
0

>  <r_epik_Ionization_Penalty_Neutral>  (74) 
2.08912e-06

>  <r_epik_State_Penalty>  (74) 
-0

>  <r_epik_Charging_Adjusted_Penalty>  (74) 
0

>  <i_epik_Tot_Q>  (74) 
0

>  <i_epik_Tot_abs_Q>  (74) 
0

>  <s_epik_Chemistry_Notes>  (74) 
This compound has an ester and may undergo hydrolysis at high or low pH. This compound contains an acetal/aminal-like group ( X-CH(R)-Y where X, Y are N, S, or O) that may be acid/base labile, releasing an aldehyde.

>  <s_lp_Force_Field>  (74) 
OPLS3e

>  <r_lp_Energy>  (74) 
208.48

>  <b_lp_Chiralities_Consistent>  (74) 
1

>  <s_lp_Variant>  (74) 
81:0-2

>  <s_i_glide_gridfile>  (74) 
pfpi4k_grid

>  <i_i_glide_lignum>  (74) 
15

>  <i_i_glide_rotatable_bonds>  (74) 
6

>  <r_i_docking_score>  (74) 
-2.30588

>  <r_i_glide_ligand_efficiency>  (74) 
-0.0404541

>  <r_i_glide_ligand_efficiency_sa>  (74) 
-0.155688

>  <r_i_glide_ligand_efficiency_ln>  (74) 
-0.457239

>  <r_i_glide_gscore>  (74) 
-2.30588

>  <r_i_glide_lipo>  (74) 
-0.0729085

>  <r_i_glide_hbond>  (74) 
0

>  <r_i_glide_metal>  (74) 
-0

>  <r_i_glide_rewards>  (74) 
-0.00199251

>  <r_i_glide_evdw>  (74) 
-37.779

>  <r_i_glide_ecoul>  (74) 
-2.2475

>  <r_i_glide_erotb>  (74) 
0.0328588

>  <r_i_glide_esite>  (74) 
-0.0377648

>  <r_i_glide_emodel>  (74) 
-46.532

>  <r_i_glide_energy>  (74) 
-40.0265

>  <r_i_glide_einternal>  (74) 
0.737517

>  <r_i_glide_intrahb_reward>  (74) 
-0

>  <i_i_glide_confnum>  (74) 
3

>  <i_i_glide_posenum>  (74) 
2

>  <r_i_glide_eff_state_penalty>  (74) 
0

>  <ligand_id>  (74) 
81

>  <original_smiles>  (74) 
CC(=O)OC1C(O)C(O)C2(C)OC3OC3(C)C3(C)C(O)CC4c5c(coc5O)C5(C)CCC6[S+]([O-])C(C=CC43C12)C1(OO5)C2(C)C=CC(=O)C(C)(O)C2CCC61C

>  <smiles>  (74) 
[H]OC1([H])C([H])(OC(=O)C([H])([H])[H])C2([H])C(C([H])([H])[H])(OC3([H])OC3(C([H])([H])[H])C3(C([H])([H])[H])C([H])(O[H])C([H])([H])C4([H])C5=C(C([H])([H])OC5=O)C5(C([H])([H])[H])OOC67C([H])(C([H])=C([H])C423)S(=O)C([H])(C([H])([H])C5([H])[H])C6(C([H])([H])[H])C([H])([H])C([H])([H])C2([H])C(O[H])(C([H])([H])[H])C(=O)C([H])=C([H])C27C([H])([H])[H])C1([H])O[H]

$$$$
81:1:2
     RDKit          3D

111120  0  0  1  0  0  0  0  0999 V2000
    3.0791   -4.1495   10.7085 C   0  0  0  0  0  0  0  0  0  0  0  0
    3.3731   -3.0961    9.6414 C   0  0  0  0  0  0  0  0  0  0  0  0
    4.2707   -2.2711    9.7860 O   0  0  0  0  0  0  0  0  0  0  0  0
    2.5706   -3.2133    8.5592 O   0  0  0  0  0  0  0  0  0  0  0  0
    2.7202   -2.3536    7.4224 C   0  0  2  0  0  0  0  0  0  0  0  0
    2.0096   -1.0340    7.8005 C   0  0  1  0  0  0  0  0  0  0  0  0
    2.7826    0.0767    7.4091 O   0  0  0  0  0  0  0  0  0  0  0  0
    0.6646   -1.1230    7.0766 C   0  0  1  0  0  0  0  0  0  0  0  0
   -0.0603    0.0776    6.9104 O   0  0  0  0  0  0  0  0  0  0  0  0
    0.8172   -1.9827    5.8111 C   0  0  1  0  0  0  0  0  0  0  0  0
   -0.5290   -2.6499    5.4693 C   0  0  0  0  0  0  0  0  0  0  0  0
    1.0311   -1.1533    4.6665 O   0  0  0  0  0  0  0  0  0  0  0  0
    2.2385   -0.4246    4.5905 C   0  0  2  0  0  0  0  0  0  0  0  0
    2.8891   -0.3636    3.3193 O   0  0  0  0  0  0  0  0  0  0  0  0
    3.3967   -1.3281    4.2535 C   0  0  1  0  0  0  0  0  0  0  0  0
    4.7181   -0.9306    4.8713 C   0  0  0  0  0  0  0  0  0  0  0  0
    3.1867   -2.8298    3.7907 C   0  0  1  0  0  0  0  0  0  0  0  0
    2.2466   -2.8412    2.5386 C   0  0  0  0  0  0  0  0  0  0  0  0
    4.4891   -3.5120    3.2785 C   0  0  1  0  0  0  0  0  0  0  0  0
    5.3549   -2.7095    2.5074 O   0  0  0  0  0  0  0  0  0  0  0  0
    5.1701   -4.1237    4.4894 C   0  0  0  0  0  0  0  0  0  0  0  0
    3.9999   -4.6925    5.3262 C   0  0  1  0  0  0  0  0  0  0  0  0
    4.3399   -5.2460    6.7434 C   0  0  0  0  0  0  0  0  0  0  0  0
    4.0716   -6.4073    7.4090 C   0  0  0  0  0  0  0  0  0  0  0  0
    4.8480   -6.3861    8.7070 C   0  0  0  0  0  0  0  0  0  0  0  0
    5.6435   -5.2375    8.6239 O   0  0  0  0  0  0  0  0  0  0  0  0
    5.4018   -4.5435    7.5176 C   0  0  0  0  0  0  0  0  0  0  0  0
    5.9568   -3.4920    7.2544 O   0  0  0  0  0  0  0  0  0  0  0  0
    3.2164   -7.7142    7.1665 C   0  0  1  0  0  0  0  0  0  0  0  0
    3.5862   -8.7755    8.2445 C   0  0  0  0  0  0  0  0  0  0  0  0
    1.6876   -7.5011    7.2604 C   0  0  0  0  0  0  0  0  0  0  0  0
    0.7815   -8.7186    6.8835 C   0  0  0  0  0  0  0  0  0  0  0  0
    0.4177   -9.0787    5.4072 C   0  0  1  0  0  0  0  0  0  0  0  0
   -0.3067   -7.5788    4.5646 S   0  0  0  0  0  0  0  0  0  0  0  0
   -1.3209   -7.9927    3.4817 O   0  0  0  0  0  0  0  0  0  0  0  0
    1.3022   -7.2151    3.7308 C   0  0  2  0  0  0  0  0  0  0  0  0
    1.8354   -5.7959    3.5909 C   0  0  0  0  0  0  0  0  0  0  0  0
    1.6575   -4.8320    4.5282 C   0  0  0  0  0  0  0  0  0  0  0  0
    2.7048   -3.7863    4.9945 C   0  0  2  0  0  0  0  0  0  0  0  0
    1.9726   -2.9902    6.1933 C   0  0  1  0  0  0  0  0  0  0  0  0
    2.3415   -8.3921    3.8851 C   0  0  2  0  0  0  0  0  0  0  0  0
    3.2945   -7.7553    4.7696 O   0  0  0  0  0  0  0  0  0  0  0  0
    3.5720   -8.4788    6.0217 O   0  0  0  0  0  0  0  0  0  0  0  0
    3.3345   -8.7778    2.7067 C   0  0  1  0  0  0  0  0  0  0  0  0
    2.6213   -9.0647    1.3706 C   0  0  0  0  0  0  0  0  0  0  0  0
    4.2480   -7.6090    2.3373 C   0  0  0  0  0  0  0  0  0  0  0  0
    5.5272   -7.4424    2.7133 C   0  0  0  0  0  0  0  0  0  0  0  0
    6.1793   -8.3974    3.6123 C   0  0  0  0  0  0  0  0  0  0  0  0
    7.1990   -8.0983    4.2415 O   0  0  0  0  0  0  0  0  0  0  0  0
    5.6280   -9.8264    3.7450 C   0  0  1  0  0  0  0  0  0  0  0  0
    6.6692  -10.7966    3.1269 C   0  0  0  0  0  0  0  0  0  0  0  0
    5.6005  -10.1505    5.1190 O   0  0  0  0  0  0  0  0  0  0  0  0
    4.2041  -10.0371    3.1032 C   0  0  1  0  0  0  0  0  0  0  0  0
    3.3972  -11.2094    3.7415 C   0  0  0  0  0  0  0  0  0  0  0  0
    2.3631  -10.8096    4.8276 C   0  0  0  0  0  0  0  0  0  0  0  0
    1.4738   -9.6194    4.3861 C   0  0  1  0  0  0  0  0  0  0  0  0
    0.5701  -10.2307    3.2538 C   0  0  0  0  0  0  0  0  0  0  0  0
    2.3405   -4.8675   10.3473 H   0  0  0  0  0  0  0  0  0  0  0  0
    2.7214   -3.6841   11.6286 H   0  0  0  0  0  0  0  0  0  0  0  0
    3.9914   -4.6937   10.9520 H   0  0  0  0  0  0  0  0  0  0  0  0
    3.7637   -2.1688    7.2098 H   0  0  0  0  0  0  0  0  0  0  0  0
    1.8628   -0.9270    8.8747 H   0  0  0  0  0  0  0  0  0  0  0  0
    3.5893    0.0709    7.9043 H   0  0  0  0  0  0  0  0  0  0  0  0
    0.0386   -1.7086    7.7424 H   0  0  0  0  0  0  0  0  0  0  0  0
    0.4667    0.6607    6.3791 H   0  0  0  0  0  0  0  0  0  0  0  0
   -0.8272   -3.3713    6.2256 H   0  0  0  0  0  0  0  0  0  0  0  0
   -0.4850   -3.1607    4.5070 H   0  0  0  0  0  0  0  0  0  0  0  0
   -1.3335   -1.9166    5.3854 H   0  0  0  0  0  0  0  0  0  0  0  0
    2.2802    0.5331    5.0999 H   0  0  0  0  0  0  0  0  0  0  0  0
    4.9775   -1.5388    5.7228 H   0  0  0  0  0  0  0  0  0  0  0  0
    4.6431    0.0986    5.2324 H   0  0  0  0  0  0  0  0  0  0  0  0
    5.5366   -0.9415    4.1586 H   0  0  0  0  0  0  0  0  0  0  0  0
    2.2156   -3.7977    2.0192 H   0  0  0  0  0  0  0  0  0  0  0  0
    2.5830   -2.1467    1.7693 H   0  0  0  0  0  0  0  0  0  0  0  0
    1.2125   -2.5852    2.7670 H   0  0  0  0  0  0  0  0  0  0  0  0
    4.2511   -4.3531    2.6333 H   0  0  0  0  0  0  0  0  0  0  0  0
    4.8938   -2.4199    1.7325 H   0  0  0  0  0  0  0  0  0  0  0  0
    5.8804   -4.9002    4.2079 H   0  0  0  0  0  0  0  0  0  0  0  0
    5.7600   -3.3509    4.9561 H   0  0  0  0  0  0  0  0  0  0  0  0
    3.9228   -5.6299    4.8095 H   0  0  0  0  0  0  0  0  0  0  0  0
    5.5059   -7.2360    8.8371 H   0  0  0  0  0  0  0  0  0  0  0  0
    4.1518   -6.3599    9.5441 H   0  0  0  0  0  0  0  0  0  0  0  0
    3.3181   -8.4796    9.2592 H   0  0  0  0  0  0  0  0  0  0  0  0
    4.6474   -9.0120    8.2361 H   0  0  0  0  0  0  0  0  0  0  0  0
    3.1046   -9.7320    8.0714 H   0  0  0  0  0  0  0  0  0  0  0  0
    1.4793   -7.2981    8.3125 H   0  0  0  0  0  0  0  0  0  0  0  0
    1.3796   -6.5769    6.7768 H   0  0  0  0  0  0  0  0  0  0  0  0
    1.1089   -9.6348    7.3746 H   0  0  0  0  0  0  0  0  0  0  0  0
   -0.1731   -8.5124    7.3639 H   0  0  0  0  0  0  0  0  0  0  0  0
   -0.3651   -9.8246    5.5440 H   0  0  0  0  0  0  0  0  0  0  0  0
    1.4097   -7.0219    4.7731 H   0  0  0  0  0  0  0  0  0  0  0  0
    2.6666   -5.7171    2.9237 H   0  0  0  0  0  0  0  0  0  0  0  0
    0.8682   -5.0171    5.2443 H   0  0  0  0  0  0  0  0  0  0  0  0
    1.4106   -3.7564    6.7223 H   0  0  0  0  0  0  0  0  0  0  0  0
    2.2187  -10.0663    1.2878 H   0  0  0  0  0  0  0  0  0  0  0  0
    3.3286   -9.0016    0.5389 H   0  0  0  0  0  0  0  0  0  0  0  0
    1.8203   -8.3492    1.1827 H   0  0  0  0  0  0  0  0  0  0  0  0
    3.8189   -6.8998    1.6433 H   0  0  0  0  0  0  0  0  0  0  0  0
    6.1126   -6.6083    2.3586 H   0  0  0  0  0  0  0  0  0  0  0  0
    6.8164  -10.6124    2.0601 H   0  0  0  0  0  0  0  0  0  0  0  0
    6.3868  -11.8448    3.2376 H   0  0  0  0  0  0  0  0  0  0  0  0
    7.6527  -10.6829    3.5902 H   0  0  0  0  0  0  0  0  0  0  0  0
    5.2875  -11.0392    5.2089 H   0  0  0  0  0  0  0  0  0  0  0  0
    4.4897  -10.4514    2.1372 H   0  0  0  0  0  0  0  0  0  0  0  0
    2.9263  -11.7648    2.9337 H   0  0  0  0  0  0  0  0  0  0  0  0
    4.0710  -11.9559    4.1637 H   0  0  0  0  0  0  0  0  0  0  0  0
    1.7416  -11.6812    5.0370 H   0  0  0  0  0  0  0  0  0  0  0  0
    2.8683  -10.6171    5.7669 H   0  0  0  0  0  0  0  0  0  0  0  0
    1.0165  -11.0457    2.6957 H   0  0  0  0  0  0  0  0  0  0  0  0
    0.2571   -9.4913    2.5163 H   0  0  0  0  0  0  0  0  0  0  0  0
   -0.3449  -10.6724    3.6475 H   0  0  0  0  0  0  0  0  0  0  0  0
  1  2  1  0
  1 58  1  0
  1 59  1  0
  1 60  1  0
  2  3  2  0
  2  4  1  0
  4  5  1  0
  5 40  1  0
  5  6  1  0
  5 61  1  6
  6  7  1  0
  6  8  1  0
  6 62  1  1
  7 63  1  0
  8  9  1  0
  8 10  1  0
  8 64  1  1
  9 65  1  0
 10 40  1  0
 10 11  1  6
 10 12  1  0
 11 66  1  0
 11 67  1  0
 11 68  1  0
 12 13  1  0
 13 15  1  0
 13 14  1  0
 13 69  1  1
 14 15  1  0
 15 16  1  1
 15 17  1  0
 16 70  1  0
 16 71  1  0
 16 72  1  0
 17 39  1  0
 17 18  1  6
 17 19  1  0
 18 73  1  0
 18 74  1  0
 18 75  1  0
 19 20  1  0
 19 21  1  0
 19 76  1  6
 20 77  1  0
 21 22  1  0
 21 78  1  0
 21 79  1  0
 22 39  1  0
 22 80  1  6
 22 23  1  0
 23 24  2  0
 23 27  1  0
 24 29  1  0
 24 25  1  0
 25 26  1  0
 25 81  1  0
 25 82  1  0
 26 27  1  0
 27 28  2  0
 29 43  1  0
 29 30  1  1
 29 31  1  0
 30 83  1  0
 30 84  1  0
 30 85  1  0
 31 32  1  0
 31 86  1  0
 31 87  1  0
 32 33  1  0
 32 88  1  0
 32 89  1  0
 33 56  1  0
 34 33  1  1
 33 90  1  1
 34 35  2  0
 34 36  1  0
 36 37  1  0
 36 41  1  0
 36 91  1  6
 37 38  2  3
 37 92  1  0
 39 38  1  6
 38 93  1  0
 39 40  1  0
 40 94  1  1
 41 56  1  0
 41 42  1  1
 41 44  1  0
 42 43  1  0
 44 53  1  0
 44 45  1  6
 44 46  1  0
 45 95  1  0
 45 96  1  0
 45 97  1  0
 46 47  2  0
 46 98  1  0
 47 48  1  0
 47 99  1  0
 48 49  2  0
 48 50  1  0
 50 51  1  0
 50 52  1  1
 50 53  1  0
 51100  1  0
 51101  1  0
 51102  1  0
 52103  1  0
 53 54  1  0
 53104  1  6
 54 55  1  0
 54105  1  0
 54106  1  0
 55 56  1  0
 55107  1  0
 55108  1  0
 56 57  1  6
 57109  1  0
 57110  1  0
 57111  1  0
M  END
>  <i_m_ct_stereo_status>  (75) 
1

>  <s_m_source_file>  (75) 
/var/tmp/pbs.5075288.sched01/tmpndvtliwj/216foptgilz.sdf

>  <i_m_source_file_index>  (75) 
15

>  <i_lp_mmshare_version>  (75) 
48012

>  <i_f3d_flags>  (75) 
0

>  <s_epik_input>  (75) 
W0NIM11DKD1PKU9bQ0BIXShbQ0BASF0oW09IXSlbQ0BIXTFbT0hdKVtDQEhdMltDQF0xKFtDSDNdKU9bQ0BIXShPMylbQ0BAXTMoW0NIM10pW0NAQF0oW0NAXTI0NSkoW0NIM10pW0NAQEhdKFtPSF0pW0NIMl1bQ0BIXTRjNmMoW2NIXW9jNltPSF0pW0NAQF03KFtDSDNdKVtDSDJdW0NIMl1bQ0BASF04W0NAQF05KFtDSDNdKVtDQF0oT083KShbQ0BASF0oW1MrXThbTy1dKS9bQ0hdPVtDSF1cNSlbQ0BdMShbQ0gzXSlbQ0BIXShbQ0gyXVtDSDJdOSlbQ0BdKFtDSDNdKShbT0hdKUMoPU8pW0NIXT1bQ0hdMQ==

>  <s_epik_cmdline>  (75) 
J2VwaWtfcHl0aG9uJywgJy1waHQnLCAnMi4wJywgJy1waCcsICc3LjAnLCAnLXRuJywgJzgnLCAnLW1hJywgJzIwMCcsICctaW1hZScsICc8aW5maWxlLm1hZT4nLCAnLW9tYWUnLCAnPG91dGZpbGUubWFlPic=

>  <r_lp_tautomer_probability>  (75) 
1

>  <r_epik_Ionization_Penalty>  (75) 
2.08912e-06

>  <r_epik_Ionization_Penalty_Charging>  (75) 
0

>  <r_epik_Ionization_Penalty_Neutral>  (75) 
2.08912e-06

>  <r_epik_State_Penalty>  (75) 
-0

>  <r_epik_Charging_Adjusted_Penalty>  (75) 
0

>  <i_epik_Tot_Q>  (75) 
0

>  <i_epik_Tot_abs_Q>  (75) 
0

>  <s_epik_Chemistry_Notes>  (75) 
This compound has an ester and may undergo hydrolysis at high or low pH. This compound contains an acetal/aminal-like group ( X-CH(R)-Y where X, Y are N, S, or O) that may be acid/base labile, releasing an aldehyde.

>  <s_lp_Force_Field>  (75) 
OPLS3e

>  <r_lp_Energy>  (75) 
208.48

>  <b_lp_Chiralities_Consistent>  (75) 
1

>  <s_lp_Variant>  (75) 
81:0-2

>  <s_i_glide_gridfile>  (75) 
pfpi4k_grid

>  <i_i_glide_lignum>  (75) 
15

>  <i_i_glide_rotatable_bonds>  (75) 
6

>  <r_i_docking_score>  (75) 
-2.30178

>  <r_i_glide_ligand_efficiency>  (75) 
-0.0403822

>  <r_i_glide_ligand_efficiency_sa>  (75) 
-0.155411

>  <r_i_glide_ligand_efficiency_ln>  (75) 
-0.456427

>  <r_i_glide_gscore>  (75) 
-2.30178

>  <r_i_glide_lipo>  (75) 
-0.0731563

>  <r_i_glide_hbond>  (75) 
0

>  <r_i_glide_metal>  (75) 
-0

>  <r_i_glide_rewards>  (75) 
-0.00195851

>  <r_i_glide_evdw>  (75) 
-37.7794

>  <r_i_glide_ecoul>  (75) 
-2.21994

>  <r_i_glide_erotb>  (75) 
0.0328588

>  <r_i_glide_esite>  (75) 
-0.0375642

>  <r_i_glide_emodel>  (75) 
-46.4746

>  <r_i_glide_energy>  (75) 
-39.9994

>  <r_i_glide_einternal>  (75) 
0.713147

>  <r_i_glide_intrahb_reward>  (75) 
-0

>  <i_i_glide_confnum>  (75) 
6

>  <i_i_glide_posenum>  (75) 
13

>  <r_i_glide_eff_state_penalty>  (75) 
0

>  <ligand_id>  (75) 
81

>  <original_smiles>  (75) 
CC(=O)OC1C(O)C(O)C2(C)OC3OC3(C)C3(C)C(O)CC4c5c(coc5O)C5(C)CCC6[S+]([O-])C(C=CC43C12)C1(OO5)C2(C)C=CC(=O)C(C)(O)C2CCC61C

>  <smiles>  (75) 
[H]OC1([H])C([H])(OC(=O)C([H])([H])[H])C2([H])C(C([H])([H])[H])(OC3([H])OC3(C([H])([H])[H])C3(C([H])([H])[H])C([H])(O[H])C([H])([H])C4([H])C5=C(C([H])([H])OC5=O)C5(C([H])([H])[H])OOC67C([H])(C([H])=C([H])C423)S(=O)C([H])(C([H])([H])C5([H])[H])C6(C([H])([H])[H])C([H])([H])C([H])([H])C2([H])C(O[H])(C([H])([H])[H])C(=O)C([H])=C([H])C27C([H])([H])[H])C1([H])O[H]

$$$$
81:2:0
     RDKit          3D

111120  0  0  1  0  0  0  0  0999 V2000
    4.1084   -2.1122    9.6540 C   0  0  0  0  0  0  0  0  0  0  0  0
    3.6628   -0.8908    8.8338 C   0  0  0  0  0  0  0  0  0  0  0  0
    4.1967    0.2118    8.9753 O   0  0  0  0  0  0  0  0  0  0  0  0
    2.6855   -1.1759    7.9510 O   0  0  0  0  0  0  0  0  0  0  0  0
    2.1428   -0.1904    7.0674 C   0  0  2  0  0  0  0  0  0  0  0  0
    1.1089    0.6348    7.8818 C   0  0  1  0  0  0  0  0  0  0  0  0
    1.2968    2.0238    7.7367 O   0  0  0  0  0  0  0  0  0  0  0  0
   -0.2429    0.1431    7.3663 C   0  0  1  0  0  0  0  0  0  0  0  0
   -1.3690    0.9634    7.6150 O   0  0  0  0  0  0  0  0  0  0  0  0
   -0.1012   -0.3551    5.9222 C   0  0  1  0  0  0  0  0  0  0  0  0
   -1.2005   -1.3993    5.6083 C   0  0  0  0  0  0  0  0  0  0  0  0
   -0.4479    0.6988    5.0324 O   0  0  0  0  0  0  0  0  0  0  0  0
    0.4827    1.7845    4.8719 C   0  0  2  0  0  0  0  0  0  0  0  0
    0.7439    2.2350    3.5373 O   0  0  0  0  0  0  0  0  0  0  0  0
    1.7234    1.3660    4.1246 C   0  0  1  0  0  0  0  0  0  0  0  0
    2.9798    2.1161    4.5012 C   0  0  0  0  0  0  0  0  0  0  0  0
    1.8549   -0.0499    3.4325 C   0  0  1  0  0  0  0  0  0  0  0  0
    0.6598   -0.1767    2.4257 C   0  0  0  0  0  0  0  0  0  0  0  0
    3.0856   -0.1840    2.4933 C   0  0  1  0  0  0  0  0  0  0  0  0
    3.3984    0.9158    1.6781 O   0  0  0  0  0  0  0  0  0  0  0  0
    4.2508   -0.6417    3.3471 C   0  0  0  0  0  0  0  0  0  0  0  0
    3.6224   -1.6484    4.3480 C   0  0  1  0  0  0  0  0  0  0  0  0
    4.5748   -2.0096    5.5162 C   0  0  0  0  0  0  0  0  0  0  0  0
    5.1023   -3.2216    5.8695 C   0  0  0  0  0  0  0  0  0  0  0  0
    6.2551   -3.0390    6.8137 C   0  0  0  0  0  0  0  0  0  0  0  0
    6.3697   -1.6351    6.9065 O   0  0  0  0  0  0  0  0  0  0  0  0
    5.4651   -1.0082    6.1508 C   0  0  0  0  0  0  0  0  0  0  0  0
    5.4339    0.2210    6.0288 O   0  0  0  0  0  0  0  0  0  0  0  0
    4.7930   -4.6385    5.3773 C   0  0  1  0  0  0  0  0  0  0  0  0
    5.8026   -4.9914    4.2702 C   0  0  0  0  0  0  0  0  0  0  0  0
    4.9643   -5.7141    6.4900 C   0  0  0  0  0  0  0  0  0  0  0  0
    4.0849   -5.6690    7.7588 C   0  0  0  0  0  0  0  0  0  0  0  0
    2.5477   -5.7681    7.6481 C   0  0  1  0  0  0  0  0  0  0  0  0
    1.9309   -4.1106    7.1048 S   0  0  0  0  0  0  0  0  0  0  0  0
    0.8332   -3.6939    8.0765 O   0  0  0  0  0  0  0  0  0  0  0  0
    1.0806   -4.7095    5.5674 C   0  0  1  0  0  0  0  0  0  0  0  0
    0.9588   -3.7895    4.3365 C   0  0  0  0  0  0  0  0  0  0  0  0
    1.3280   -2.5489    3.9284 C   0  0  0  0  0  0  0  0  0  0  0  0
    2.0516   -1.2779    4.4927 C   0  0  2  0  0  0  0  0  0  0  0  0
    1.3759   -0.9168    5.8987 C   0  0  1  0  0  0  0  0  0  0  0  0
    1.6659   -6.1614    5.3082 C   0  0  2  0  0  0  0  0  0  0  0  0
    2.9883   -6.0949    4.7451 O   0  0  0  0  0  0  0  0  0  0  0  0
    3.5273   -4.6882    4.7611 O   0  0  0  0  0  0  0  0  0  0  0  0
    0.8692   -7.1234    4.2773 C   0  0  1  0  0  0  0  0  0  0  0  0
   -0.6664   -6.8727    4.3296 C   0  0  0  0  0  0  0  0  0  0  0  0
    1.2924   -6.7955    2.8306 C   0  0  0  0  0  0  0  0  0  0  0  0
    1.7601   -7.6388    1.9053 C   0  0  0  0  0  0  0  0  0  0  0  0
    1.9010   -9.0706    2.1844 C   0  0  0  0  0  0  0  0  0  0  0  0
    2.6335   -9.7974    1.5345 O   0  0  0  0  0  0  0  0  0  0  0  0
    1.0233   -9.6187    3.3217 C   0  0  1  0  0  0  0  0  0  0  0  0
   -0.4101   -9.8274    2.7819 C   0  0  0  0  0  0  0  0  0  0  0  0
    1.4199  -10.9314    3.6653 O   0  0  0  0  0  0  0  0  0  0  0  0
    1.1157   -8.6662    4.5826 C   0  0  1  0  0  0  0  0  0  0  0  0
    2.4601   -8.8922    5.3256 C   0  0  0  0  0  0  0  0  0  0  0  0
    2.5739   -8.1669    6.6707 C   0  0  0  0  0  0  0  0  0  0  0  0
    1.8288   -6.8045    6.7373 C   0  0  1  0  0  0  0  0  0  0  0  0
    0.4779   -7.0851    7.4572 C   0  0  0  0  0  0  0  0  0  0  0  0
    3.2640   -2.8004    9.8202 H   0  0  0  0  0  0  0  0  0  0  0  0
    4.5010   -1.7935   10.6313 H   0  0  0  0  0  0  0  0  0  0  0  0
    4.8930   -2.6263    9.1274 H   0  0  0  0  0  0  0  0  0  0  0  0
    2.9291    0.4514    6.6988 H   0  0  0  0  0  0  0  0  0  0  0  0
    1.1984    0.4438    8.9401 H   0  0  0  0  0  0  0  0  0  0  0  0
    1.3643    2.2143    6.8202 H   0  0  0  0  0  0  0  0  0  0  0  0
   -0.4241   -0.7580    7.9485 H   0  0  0  0  0  0  0  0  0  0  0  0
   -1.1736    1.8290    7.2958 H   0  0  0  0  0  0  0  0  0  0  0  0
   -1.0956   -2.2881    6.2199 H   0  0  0  0  0  0  0  0  0  0  0  0
   -1.1892   -1.7072    4.5637 H   0  0  0  0  0  0  0  0  0  0  0  0
   -2.1990   -0.9946    5.7912 H   0  0  0  0  0  0  0  0  0  0  0  0
    0.3560    2.5959    5.5301 H   0  0  0  0  0  0  0  0  0  0  0  0
    3.6134    1.5457    5.1473 H   0  0  0  0  0  0  0  0  0  0  0  0
    2.7036    3.0259    5.0513 H   0  0  0  0  0  0  0  0  0  0  0  0
    3.5428    2.4450    3.6370 H   0  0  0  0  0  0  0  0  0  0  0  0
    0.7918   -0.9597    1.6749 H   0  0  0  0  0  0  0  0  0  0  0  0
    0.5479    0.7035    1.7945 H   0  0  0  0  0  0  0  0  0  0  0  0
   -0.2992   -0.3603    2.9073 H   0  0  0  0  0  0  0  0  0  0  0  0
    2.9253   -1.0116    1.8103 H   0  0  0  0  0  0  0  0  0  0  0  0
    3.8199    1.6014    2.1804 H   0  0  0  0  0  0  0  0  0  0  0  0
    5.0368   -1.1112    2.7573 H   0  0  0  0  0  0  0  0  0  0  0  0
    4.6944    0.2300    3.7890 H   0  0  0  0  0  0  0  0  0  0  0  0
    3.6494   -2.5500    3.7464 H   0  0  0  0  0  0  0  0  0  0  0  0
    7.1788   -3.4463    6.4047 H   0  0  0  0  0  0  0  0  0  0  0  0
    6.0601   -3.5087    7.7673 H   0  0  0  0  0  0  0  0  0  0  0  0
    6.8103   -4.9950    4.6660 H   0  0  0  0  0  0  0  0  0  0  0  0
    5.7543   -4.2673    3.4521 H   0  0  0  0  0  0  0  0  0  0  0  0
    5.6202   -5.9823    3.8581 H   0  0  0  0  0  0  0  0  0  0  0  0
    4.9276   -6.6966    6.0296 H   0  0  0  0  0  0  0  0  0  0  0  0
    5.9882   -5.6561    6.8484 H   0  0  0  0  0  0  0  0  0  0  0  0
    4.4161   -6.4903    8.3986 H   0  0  0  0  0  0  0  0  0  0  0  0
    4.3207   -4.7750    8.3280 H   0  0  0  0  0  0  0  0  0  0  0  0
    2.2111   -5.8918    8.6752 H   0  0  0  0  0  0  0  0  0  0  0  0
    0.0428   -4.8061    5.8786 H   0  0  0  0  0  0  0  0  0  0  0  0
    0.4165   -4.2915    3.5638 H   0  0  0  0  0  0  0  0  0  0  0  0
    1.0465   -2.4726    2.9021 H   0  0  0  0  0  0  0  0  0  0  0  0
    1.1505   -1.8686    6.3345 H   0  0  0  0  0  0  0  0  0  0  0  0
   -1.1170   -7.0883    5.2917 H   0  0  0  0  0  0  0  0  0  0  0  0
   -1.2198   -7.4819    3.6198 H   0  0  0  0  0  0  0  0  0  0  0  0
   -0.9301   -5.8576    4.0917 H   0  0  0  0  0  0  0  0  0  0  0  0
    1.2235   -5.7610    2.5294 H   0  0  0  0  0  0  0  0  0  0  0  0
    2.0337   -7.3045    0.9122 H   0  0  0  0  0  0  0  0  0  0  0  0
   -0.7818   -8.9802    2.1990 H   0  0  0  0  0  0  0  0  0  0  0  0
   -1.0912   -9.9922    3.6057 H   0  0  0  0  0  0  0  0  0  0  0  0
   -0.4560  -10.6807    2.0984 H   0  0  0  0  0  0  0  0  0  0  0  0
    0.8663  -11.2624    4.3515 H   0  0  0  0  0  0  0  0  0  0  0  0
    0.3346   -9.0379    5.2526 H   0  0  0  0  0  0  0  0  0  0  0  0
    2.6387   -9.9454    5.5251 H   0  0  0  0  0  0  0  0  0  0  0  0
    3.2838   -8.5735    4.6713 H   0  0  0  0  0  0  0  0  0  0  0  0
    2.1552   -8.8370    7.4319 H   0  0  0  0  0  0  0  0  0  0  0  0
    3.6150   -8.0966    6.9418 H   0  0  0  0  0  0  0  0  0  0  0  0
   -0.1060   -7.8797    6.9996 H   0  0  0  0  0  0  0  0  0  0  0  0
   -0.1687   -6.2060    7.5344 H   0  0  0  0  0  0  0  0  0  0  0  0
    0.6300   -7.4207    8.4843 H   0  0  0  0  0  0  0  0  0  0  0  0
  1  2  1  0
  1 58  1  0
  1 59  1  0
  1 60  1  0
  2  3  2  0
  2  4  1  0
  4  5  1  0
  5 40  1  0
  5  6  1  0
  5 61  1  6
  6  7  1  0
  6  8  1  0
  6 62  1  1
  7 63  1  0
  8  9  1  0
  8 10  1  0
  8 64  1  1
  9 65  1  0
 10 40  1  0
 10 11  1  1
 10 12  1  0
 11 66  1  0
 11 67  1  0
 11 68  1  0
 12 13  1  0
 13 15  1  0
 13 14  1  0
 13 69  1  1
 14 15  1  0
 15 16  1  1
 15 17  1  0
 16 70  1  0
 16 71  1  0
 16 72  1  0
 17 39  1  0
 17 18  1  6
 17 19  1  0
 18 73  1  0
 18 74  1  0
 18 75  1  0
 19 20  1  0
 19 21  1  0
 19 76  1  6
 20 77  1  0
 21 22  1  0
 21 78  1  0
 21 79  1  0
 22 39  1  0
 22 80  1  6
 22 23  1  0
 23 24  2  0
 23 27  1  0
 24 29  1  0
 24 25  1  0
 25 26  1  0
 25 81  1  0
 25 82  1  0
 26 27  1  0
 27 28  2  0
 29 43  1  0
 29 30  1  6
 29 31  1  0
 30 83  1  0
 30 84  1  0
 30 85  1  0
 31 32  1  0
 31 86  1  0
 31 87  1  0
 32 33  1  0
 32 88  1  0
 32 89  1  0
 33 56  1  0
 34 33  1  1
 33 90  1  1
 34 35  2  0
 34 36  1  0
 36 37  1  0
 36 41  1  0
 36 91  1  1
 37 38  2  3
 37 92  1  0
 39 38  1  6
 38 93  1  0
 39 40  1  0
 40 94  1  1
 41 56  1  0
 41 42  1  6
 41 44  1  0
 42 43  1  0
 44 53  1  0
 44 45  1  6
 44 46  1  0
 45 95  1  0
 45 96  1  0
 45 97  1  0
 46 47  2  0
 46 98  1  0
 47 48  1  0
 47 99  1  0
 48 49  2  0
 48 50  1  0
 50 51  1  0
 50 52  1  1
 50 53  1  0
 51100  1  0
 51101  1  0
 51102  1  0
 52103  1  0
 53 54  1  0
 53104  1  1
 54 55  1  0
 54105  1  0
 54106  1  0
 55 56  1  0
 55107  1  0
 55108  1  0
 56 57  1  1
 57109  1  0
 57110  1  0
 57111  1  0
M  END
>  <i_m_ct_stereo_status>  (76) 
1

>  <s_m_source_file>  (76) 
/var/tmp/pbs.5075288.sched01/tmpndvtliwj/216foptgilz.sdf

>  <i_m_source_file_index>  (76) 
16

>  <i_lp_mmshare_version>  (76) 
48012

>  <i_f3d_flags>  (76) 
0

>  <s_epik_input>  (76) 
W0NIM11DKD1PKU9bQ0BIXShbQ0BASF0oW09IXSlbQ0BIXTFbT0hdKVtDQEhdMltDQF0xKFtDSDNdKU9bQ0BIXShPMylbQ0BAXTMoW0NIM10pW0NAQF0oW0NAXTI0NSkoW0NIM10pW0NAQEhdKFtPSF0pW0NIMl1bQ0BIXTRjNmMoW2NIXW9jNltPSF0pW0NAQF03KFtDSDNdKVtDSDJdW0NIMl1bQ0BASF04W0NAQF05KFtDSDNdKVtDQF0oT083KShbQ0BASF0oW1MrXThbTy1dKS9bQ0hdPVtDSF1cNSlbQ0BdMShbQ0gzXSlbQ0BIXShbQ0gyXVtDSDJdOSlbQ0BdKFtDSDNdKShbT0hdKUMoPU8pW0NIXT1bQ0hdMQ==

>  <s_epik_cmdline>  (76) 
J2VwaWtfcHl0aG9uJywgJy1waHQnLCAnMi4wJywgJy1waCcsICc3LjAnLCAnLXRuJywgJzgnLCAnLW1hJywgJzIwMCcsICctaW1hZScsICc8aW5maWxlLm1hZT4nLCAnLW9tYWUnLCAnPG91dGZpbGUubWFlPic=

>  <r_lp_tautomer_probability>  (76) 
1

>  <r_epik_Ionization_Penalty>  (76) 
2.08912e-06

>  <r_epik_Ionization_Penalty_Charging>  (76) 
0

>  <r_epik_Ionization_Penalty_Neutral>  (76) 
2.08912e-06

>  <r_epik_State_Penalty>  (76) 
-0

>  <r_epik_Charging_Adjusted_Penalty>  (76) 
0

>  <i_epik_Tot_Q>  (76) 
0

>  <i_epik_Tot_abs_Q>  (76) 
0

>  <s_epik_Chemistry_Notes>  (76) 
This compound has an ester and may undergo hydrolysis at high or low pH. This compound contains an acetal/aminal-like group ( X-CH(R)-Y where X, Y are N, S, or O) that may be acid/base labile, releasing an aldehyde.

>  <s_lp_Force_Field>  (76) 
OPLS3e

>  <r_lp_Energy>  (76) 
151.459

>  <b_lp_Chiralities_Consistent>  (76) 
1

>  <s_lp_Variant>  (76) 
81:0-3

>  <s_i_glide_gridfile>  (76) 
pfpi4k_grid

>  <i_i_glide_lignum>  (76) 
16

>  <i_i_glide_rotatable_bonds>  (76) 
6

>  <r_i_docking_score>  (76) 
-2.87157

>  <r_i_glide_ligand_efficiency>  (76) 
-0.0503785

>  <r_i_glide_ligand_efficiency_sa>  (76) 
-0.193882

>  <r_i_glide_ligand_efficiency_ln>  (76) 
-0.569412

>  <r_i_glide_gscore>  (76) 
-2.87157

>  <r_i_glide_lipo>  (76) 
-0.122553

>  <r_i_glide_hbond>  (76) 
0

>  <r_i_glide_metal>  (76) 
-0

>  <r_i_glide_rewards>  (76) 
-0.0785237

>  <r_i_glide_evdw>  (76) 
-37.9023

>  <r_i_glide_ecoul>  (76) 
-5.34072

>  <r_i_glide_erotb>  (76) 
0.0328588

>  <r_i_glide_esite>  (76) 
-0.00713134

>  <r_i_glide_emodel>  (76) 
-49.3126

>  <r_i_glide_energy>  (76) 
-43.243

>  <r_i_glide_einternal>  (76) 
0.297428

>  <r_i_glide_intrahb_reward>  (76) 
-0

>  <i_i_glide_confnum>  (76) 
4

>  <i_i_glide_posenum>  (76) 
7

>  <r_i_glide_eff_state_penalty>  (76) 
0

>  <ligand_id>  (76) 
81

>  <original_smiles>  (76) 
CC(=O)OC1C(O)C(O)C2(C)OC3OC3(C)C3(C)C(O)CC4c5c(coc5O)C5(C)CCC6[S+]([O-])C(C=CC43C12)C1(OO5)C2(C)C=CC(=O)C(C)(O)C2CCC61C

>  <smiles>  (76) 
[H]OC1([H])C([H])(OC(=O)C([H])([H])[H])C2([H])C(C([H])([H])[H])(OC3([H])OC3(C([H])([H])[H])C3(C([H])([H])[H])C([H])(O[H])C([H])([H])C4([H])C5=C(C([H])([H])OC5=O)C5(C([H])([H])[H])OOC67C([H])(C([H])=C([H])C423)S(=O)C([H])(C([H])([H])C5([H])[H])C6(C([H])([H])[H])C([H])([H])C([H])([H])C2([H])C(O[H])(C([H])([H])[H])C(=O)C([H])=C([H])C27C([H])([H])[H])C1([H])O[H]

$$$$
81:2:1
     RDKit          3D

111120  0  0  1  0  0  0  0  0999 V2000
    4.0229   -1.9544   10.0430 C   0  0  0  0  0  0  0  0  0  0  0  0
    3.6498   -0.9163    8.9712 C   0  0  0  0  0  0  0  0  0  0  0  0
    4.1187    0.2220    8.9630 O   0  0  0  0  0  0  0  0  0  0  0  0
    2.7962   -1.4058    8.0495 O   0  0  0  0  0  0  0  0  0  0  0  0
    2.3265   -0.6159    6.9540 C   0  0  2  0  0  0  0  0  0  0  0  0
    1.1416    0.2387    7.4659 C   0  0  1  0  0  0  0  0  0  0  0  0
    1.2865    1.5892    7.0919 O   0  0  0  0  0  0  0  0  0  0  0  0
   -0.1014   -0.4280    6.8846 C   0  0  1  0  0  0  0  0  0  0  0  0
   -1.2720    0.3759    6.8505 O   0  0  0  0  0  0  0  0  0  0  0  0
    0.2878   -1.1242    5.5706 C   0  0  1  0  0  0  0  0  0  0  0  0
   -0.6795   -2.2855    5.2807 C   0  0  0  0  0  0  0  0  0  0  0  0
    0.0141   -0.2459    4.4742 O   0  0  0  0  0  0  0  0  0  0  0  0
    0.8951    0.8435    4.2456 C   0  0  2  0  0  0  0  0  0  0  0  0
    1.3422    1.1302    2.9009 O   0  0  0  0  0  0  0  0  0  0  0  0
    2.2644    0.4321    3.7617 C   0  0  1  0  0  0  0  0  0  0  0  0
    3.3953    1.3307    4.1916 C   0  0  0  0  0  0  0  0  0  0  0  0
    2.5776   -1.0568    3.3321 C   0  0  1  0  0  0  0  0  0  0  0  0
    1.5660   -1.4467    2.1961 C   0  0  0  0  0  0  0  0  0  0  0  0
    3.9460   -1.2267    2.6104 C   0  0  1  0  0  0  0  0  0  0  0  0
    4.3138   -0.2370    1.6714 O   0  0  0  0  0  0  0  0  0  0  0  0
    4.9856   -1.4499    3.6780 C   0  0  0  0  0  0  0  0  0  0  0  0
    4.2809   -2.3317    4.7432 C   0  0  1  0  0  0  0  0  0  0  0  0
    5.0642   -2.4385    6.0737 C   0  0  0  0  0  0  0  0  0  0  0  0
    5.6163   -3.5378    6.6927 C   0  0  0  0  0  0  0  0  0  0  0  0
    6.5915   -3.1057    7.7413 C   0  0  0  0  0  0  0  0  0  0  0  0
    6.6018   -1.7078    7.6295 O   0  0  0  0  0  0  0  0  0  0  0  0
    5.7832   -1.2758    6.6677 C   0  0  0  0  0  0  0  0  0  0  0  0
    5.6960   -0.0875    6.3605 O   0  0  0  0  0  0  0  0  0  0  0  0
    5.4772   -5.0314    6.3982 C   0  0  1  0  0  0  0  0  0  0  0  0
    6.6608   -5.4512    5.5121 C   0  0  0  0  0  0  0  0  0  0  0  0
    5.5404   -5.9050    7.6892 C   0  0  0  0  0  0  0  0  0  0  0  0
    4.4741   -5.7393    8.7942 C   0  0  0  0  0  0  0  0  0  0  0  0
    2.9756   -5.9767    8.4850 C   0  0  1  0  0  0  0  0  0  0  0  0
    2.3484   -4.4853    7.6002 S   0  0  0  0  0  0  0  0  0  0  0  0
    1.0946   -3.9942    8.3508 O   0  0  0  0  0  0  0  0  0  0  0  0
    1.7689   -5.3764    6.0813 C   0  0  1  0  0  0  0  0  0  0  0  0
    1.7727   -4.6775    4.7089 C   0  0  0  0  0  0  0  0  0  0  0  0
    2.1292   -3.4801    4.1571 C   0  0  0  0  0  0  0  0  0  0  0  0
    2.6846   -2.0882    4.5985 C   0  0  2  0  0  0  0  0  0  0  0  0
    1.7847   -1.5635    5.8259 C   0  0  1  0  0  0  0  0  0  0  0  0
    2.4789   -6.8012    6.1427 C   0  0  2  0  0  0  0  0  0  0  0  0
    3.8727   -6.7123    5.7709 O   0  0  0  0  0  0  0  0  0  0  0  0
    4.3223   -5.2841    5.6241 O   0  0  0  0  0  0  0  0  0  0  0  0
    1.9019   -7.9702    5.1848 C   0  0  1  0  0  0  0  0  0  0  0  0
    0.3606   -7.8401    4.9865 C   0  0  0  0  0  0  0  0  0  0  0  0
    2.5126   -7.8444    3.7725 C   0  0  0  0  0  0  0  0  0  0  0  0
    3.1578   -8.7912    3.0729 C   0  0  0  0  0  0  0  0  0  0  0  0
    3.3307  -10.1466    3.5976 C   0  0  0  0  0  0  0  0  0  0  0  0
    4.1939  -10.9072    3.1710 O   0  0  0  0  0  0  0  0  0  0  0  0
    2.3377  -10.5767    4.6903 C   0  0  1  0  0  0  0  0  0  0  0  0
    1.0079  -11.0049    4.0139 C   0  0  0  0  0  0  0  0  0  0  0  0
    2.8024  -11.7733    5.2894 O   0  0  0  0  0  0  0  0  0  0  0  0
    2.1933   -9.4298    5.7697 C   0  0  1  0  0  0  0  0  0  0  0  0
    3.4255   -9.4157    6.7173 C   0  0  0  0  0  0  0  0  0  0  0  0
    3.2758   -8.4980    7.9377 C   0  0  0  0  0  0  0  0  0  0  0  0
    2.4652   -7.2012    7.6698 C   0  0  1  0  0  0  0  0  0  0  0  0
    1.0313   -7.4749    8.2314 C   0  0  0  0  0  0  0  0  0  0  0  0
    3.1893   -2.6471   10.2316 H   0  0  0  0  0  0  0  0  0  0  0  0
    4.2569   -1.4558   10.9938 H   0  0  0  0  0  0  0  0  0  0  0  0
    4.8923   -2.5078    9.7095 H   0  0  0  0  0  0  0  0  0  0  0  0
    3.1186    0.0245    6.6009 H   0  0  0  0  0  0  0  0  0  0  0  0
    1.0836    0.2367    8.5485 H   0  0  0  0  0  0  0  0  0  0  0  0
    0.5975    2.0798    7.5147 H   0  0  0  0  0  0  0  0  0  0  0  0
   -0.3251   -1.2466    7.5641 H   0  0  0  0  0  0  0  0  0  0  0  0
   -1.1295    1.0714    6.2209 H   0  0  0  0  0  0  0  0  0  0  0  0
   -0.6060   -3.0653    6.0326 H   0  0  0  0  0  0  0  0  0  0  0  0
   -0.4935   -2.7435    4.3085 H   0  0  0  0  0  0  0  0  0  0  0  0
   -1.7155   -1.9434    5.2690 H   0  0  0  0  0  0  0  0  0  0  0  0
    0.6506    1.7419    4.7526 H   0  0  0  0  0  0  0  0  0  0  0  0
    3.9604    0.9180    5.0086 H   0  0  0  0  0  0  0  0  0  0  0  0
    2.9985    2.2889    4.5357 H   0  0  0  0  0  0  0  0  0  0  0  0
    4.0677    1.5477    3.3733 H   0  0  0  0  0  0  0  0  0  0  0  0
    1.8602   -2.3116    1.5962 H   0  0  0  0  0  0  0  0  0  0  0  0
    1.4856   -0.6673    1.4357 H   0  0  0  0  0  0  0  0  0  0  0  0
    0.5677   -1.6479    2.5770 H   0  0  0  0  0  0  0  0  0  0  0  0
    3.9534   -2.1586    2.0502 H   0  0  0  0  0  0  0  0  0  0  0  0
    4.1781    0.6192    2.0530 H   0  0  0  0  0  0  0  0  0  0  0  0
    5.8708   -1.9436    3.2728 H   0  0  0  0  0  0  0  0  0  0  0  0
    5.3196   -0.4842    4.0279 H   0  0  0  0  0  0  0  0  0  0  0  0
    4.4561   -3.3104    4.2981 H   0  0  0  0  0  0  0  0  0  0  0  0
    7.5903   -3.4967    7.5390 H   0  0  0  0  0  0  0  0  0  0  0  0
    6.2718   -3.4166    8.7283 H   0  0  0  0  0  0  0  0  0  0  0  0
    7.6141   -5.2619    6.0047 H   0  0  0  0  0  0  0  0  0  0  0  0
    6.6521   -4.8941    4.5761 H   0  0  0  0  0  0  0  0  0  0  0  0
    6.6275   -6.5121    5.2675 H   0  0  0  0  0  0  0  0  0  0  0  0
    5.6298   -6.9485    7.3994 H   0  0  0  0  0  0  0  0  0  0  0  0
    6.4953   -5.7081    8.1748 H   0  0  0  0  0  0  0  0  0  0  0  0
    4.7488   -6.4195    9.6036 H   0  0  0  0  0  0  0  0  0  0  0  0
    4.5669   -4.7489    9.2366 H   0  0  0  0  0  0  0  0  0  0  0  0
    2.4969   -5.9639    9.4623 H   0  0  0  0  0  0  0  0  0  0  0  0
    0.7067   -5.5130    6.2658 H   0  0  0  0  0  0  0  0  0  0  0  0
    1.3872   -5.3339    3.9571 H   0  0  0  0  0  0  0  0  0  0  0  0
    2.0097   -3.5900    3.1011 H   0  0  0  0  0  0  0  0  0  0  0  0
    1.5630   -2.4565    6.3739 H   0  0  0  0  0  0  0  0  0  0  0  0
   -0.2081   -7.9230    5.9076 H   0  0  0  0  0  0  0  0  0  0  0  0
   -0.0429   -8.6062    4.3278 H   0  0  0  0  0  0  0  0  0  0  0  0
    0.0689   -6.8999    4.5263 H   0  0  0  0  0  0  0  0  0  0  0  0
    2.4334   -6.8834    3.2926 H   0  0  0  0  0  0  0  0  0  0  0  0
    3.5614   -8.5798    2.0929 H   0  0  0  0  0  0  0  0  0  0  0  0
    0.6636  -10.2974    3.2555 H   0  0  0  0  0  0  0  0  0  0  0  0
    0.2069  -11.1331    4.7451 H   0  0  0  0  0  0  0  0  0  0  0  0
    1.1176  -11.9578    3.4901 H   0  0  0  0  0  0  0  0  0  0  0  0
    2.2137  -12.0276    5.9991 H   0  0  0  0  0  0  0  0  0  0  0  0
    1.3457   -9.7493    6.3833 H   0  0  0  0  0  0  0  0  0  0  0  0
    3.6284  -10.4106    7.1112 H   0  0  0  0  0  0  0  0  0  0  0  0
    4.3182   -9.1449    6.1443 H   0  0  0  0  0  0  0  0  0  0  0  0
    2.8053   -9.0698    8.7437 H   0  0  0  0  0  0  0  0  0  0  0  0
    4.2692   -8.2948    8.3185 H   0  0  0  0  0  0  0  0  0  0  0  0
    0.5700   -8.3749    7.8355 H   0  0  0  0  0  0  0  0  0  0  0  0
    0.3342   -6.6522    8.0741 H   0  0  0  0  0  0  0  0  0  0  0  0
    1.0504   -7.6364    9.3110 H   0  0  0  0  0  0  0  0  0  0  0  0
  1  2  1  0
  1 58  1  0
  1 59  1  0
  1 60  1  0
  2  3  2  0
  2  4  1  0
  4  5  1  0
  5 40  1  0
  5  6  1  0
  5 61  1  6
  6  7  1  0
  6  8  1  0
  6 62  1  1
  7 63  1  0
  8  9  1  0
  8 10  1  0
  8 64  1  1
  9 65  1  0
 10 40  1  0
 10 11  1  6
 10 12  1  0
 11 66  1  0
 11 67  1  0
 11 68  1  0
 12 13  1  0
 13 15  1  0
 13 14  1  0
 13 69  1  1
 14 15  1  0
 15 16  1  1
 15 17  1  0
 16 70  1  0
 16 71  1  0
 16 72  1  0
 17 39  1  0
 17 18  1  6
 17 19  1  0
 18 73  1  0
 18 74  1  0
 18 75  1  0
 19 20  1  0
 19 21  1  0
 19 76  1  6
 20 77  1  0
 21 22  1  0
 21 78  1  0
 21 79  1  0
 22 39  1  0
 22 80  1  6
 22 23  1  0
 23 24  2  0
 23 27  1  0
 24 29  1  0
 24 25  1  0
 25 26  1  0
 25 81  1  0
 25 82  1  0
 26 27  1  0
 27 28  2  0
 29 43  1  0
 29 30  1  6
 29 31  1  0
 30 83  1  0
 30 84  1  0
 30 85  1  0
 31 32  1  0
 31 86  1  0
 31 87  1  0
 32 33  1  0
 32 88  1  0
 32 89  1  0
 33 56  1  0
 34 33  1  1
 33 90  1  1
 34 35  2  0
 34 36  1  0
 36 37  1  0
 36 41  1  0
 36 91  1  1
 37 38  2  3
 37 92  1  0
 39 38  1  6
 38 93  1  0
 39 40  1  0
 40 94  1  1
 41 56  1  0
 41 42  1  6
 41 44  1  0
 42 43  1  0
 44 53  1  0
 44 45  1  6
 44 46  1  0
 45 95  1  0
 45 96  1  0
 45 97  1  0
 46 47  2  0
 46 98  1  0
 47 48  1  0
 47 99  1  0
 48 49  2  0
 48 50  1  0
 50 51  1  0
 50 52  1  1
 50 53  1  0
 51100  1  0
 51101  1  0
 51102  1  0
 52103  1  0
 53 54  1  0
 53104  1  1
 54 55  1  0
 54105  1  0
 54106  1  0
 55 56  1  0
 55107  1  0
 55108  1  0
 56 57  1  1
 57109  1  0
 57110  1  0
 57111  1  0
M  END
>  <i_m_ct_stereo_status>  (77) 
1

>  <s_m_source_file>  (77) 
/var/tmp/pbs.5075288.sched01/tmpndvtliwj/216foptgilz.sdf

>  <i_m_source_file_index>  (77) 
16

>  <i_lp_mmshare_version>  (77) 
48012

>  <i_f3d_flags>  (77) 
0

>  <s_epik_input>  (77) 
W0NIM11DKD1PKU9bQ0BIXShbQ0BASF0oW09IXSlbQ0BIXTFbT0hdKVtDQEhdMltDQF0xKFtDSDNdKU9bQ0BIXShPMylbQ0BAXTMoW0NIM10pW0NAQF0oW0NAXTI0NSkoW0NIM10pW0NAQEhdKFtPSF0pW0NIMl1bQ0BIXTRjNmMoW2NIXW9jNltPSF0pW0NAQF03KFtDSDNdKVtDSDJdW0NIMl1bQ0BASF04W0NAQF05KFtDSDNdKVtDQF0oT083KShbQ0BASF0oW1MrXThbTy1dKS9bQ0hdPVtDSF1cNSlbQ0BdMShbQ0gzXSlbQ0BIXShbQ0gyXVtDSDJdOSlbQ0BdKFtDSDNdKShbT0hdKUMoPU8pW0NIXT1bQ0hdMQ==

>  <s_epik_cmdline>  (77) 
J2VwaWtfcHl0aG9uJywgJy1waHQnLCAnMi4wJywgJy1waCcsICc3LjAnLCAnLXRuJywgJzgnLCAnLW1hJywgJzIwMCcsICctaW1hZScsICc8aW5maWxlLm1hZT4nLCAnLW9tYWUnLCAnPG91dGZpbGUubWFlPic=

>  <r_lp_tautomer_probability>  (77) 
1

>  <r_epik_Ionization_Penalty>  (77) 
2.08912e-06

>  <r_epik_Ionization_Penalty_Charging>  (77) 
0

>  <r_epik_Ionization_Penalty_Neutral>  (77) 
2.08912e-06

>  <r_epik_State_Penalty>  (77) 
-0

>  <r_epik_Charging_Adjusted_Penalty>  (77) 
0

>  <i_epik_Tot_Q>  (77) 
0

>  <i_epik_Tot_abs_Q>  (77) 
0

>  <s_epik_Chemistry_Notes>  (77) 
This compound has an ester and may undergo hydrolysis at high or low pH. This compound contains an acetal/aminal-like group ( X-CH(R)-Y where X, Y are N, S, or O) that may be acid/base labile, releasing an aldehyde.

>  <s_lp_Force_Field>  (77) 
OPLS3e

>  <r_lp_Energy>  (77) 
151.459

>  <b_lp_Chiralities_Consistent>  (77) 
1

>  <s_lp_Variant>  (77) 
81:0-3

>  <s_i_glide_gridfile>  (77) 
pfpi4k_grid

>  <i_i_glide_lignum>  (77) 
16

>  <i_i_glide_rotatable_bonds>  (77) 
6

>  <r_i_docking_score>  (77) 
-2.64342

>  <r_i_glide_ligand_efficiency>  (77) 
-0.0463759

>  <r_i_glide_ligand_efficiency_sa>  (77) 
-0.178478

>  <r_i_glide_ligand_efficiency_ln>  (77) 
-0.524172

>  <r_i_glide_gscore>  (77) 
-2.64342

>  <r_i_glide_lipo>  (77) 
-0.215559

>  <r_i_glide_hbond>  (77) 
0

>  <r_i_glide_metal>  (77) 
-0

>  <r_i_glide_rewards>  (77) 
-0.0301314

>  <r_i_glide_evdw>  (77) 
-32.5133

>  <r_i_glide_ecoul>  (77) 
-5.22213

>  <r_i_glide_erotb>  (77) 
0.0328588

>  <r_i_glide_esite>  (77) 
-0.0216084

>  <r_i_glide_emodel>  (77) 
-43.0998

>  <r_i_glide_energy>  (77) 
-37.7354

>  <r_i_glide_einternal>  (77) 
0.542829

>  <r_i_glide_intrahb_reward>  (77) 
-0

>  <i_i_glide_confnum>  (77) 
4

>  <i_i_glide_posenum>  (77) 
4

>  <r_i_glide_eff_state_penalty>  (77) 
0

>  <ligand_id>  (77) 
81

>  <original_smiles>  (77) 
CC(=O)OC1C(O)C(O)C2(C)OC3OC3(C)C3(C)C(O)CC4c5c(coc5O)C5(C)CCC6[S+]([O-])C(C=CC43C12)C1(OO5)C2(C)C=CC(=O)C(C)(O)C2CCC61C

>  <smiles>  (77) 
[H]OC1([H])C([H])(OC(=O)C([H])([H])[H])C2([H])C(C([H])([H])[H])(OC3([H])OC3(C([H])([H])[H])C3(C([H])([H])[H])C([H])(O[H])C([H])([H])C4([H])C5=C(C([H])([H])OC5=O)C5(C([H])([H])[H])OOC67C([H])(C([H])=C([H])C423)S(=O)C([H])(C([H])([H])C5([H])[H])C6(C([H])([H])[H])C([H])([H])C([H])([H])C2([H])C(O[H])(C([H])([H])[H])C(=O)C([H])=C([H])C27C([H])([H])[H])C1([H])O[H]

$$$$
81:2:2
     RDKit          3D

111120  0  0  1  0  0  0  0  0999 V2000
    3.8038   -1.9976   10.0987 C   0  0  0  0  0  0  0  0  0  0  0  0
    3.4734   -0.9129    9.0605 C   0  0  0  0  0  0  0  0  0  0  0  0
    3.9349    0.2226    9.1182 O   0  0  0  0  0  0  0  0  0  0  0  0
    2.6604   -1.3650    8.0855 O   0  0  0  0  0  0  0  0  0  0  0  0
    2.2257   -0.5229    7.0177 C   0  0  2  0  0  0  0  0  0  0  0  0
    1.0487    0.3515    7.5255 C   0  0  1  0  0  0  0  0  0  0  0  0
    1.2253    1.7151    7.2458 O   0  0  0  0  0  0  0  0  0  0  0  0
   -0.1972   -0.2731    6.9002 C   0  0  1  0  0  0  0  0  0  0  0  0
   -1.3646    0.5372    6.8739 O   0  0  0  0  0  0  0  0  0  0  0  0
    0.1976   -0.9411    5.5706 C   0  0  1  0  0  0  0  0  0  0  0  0
   -0.7881   -2.0702    5.2228 C   0  0  0  0  0  0  0  0  0  0  0  0
   -0.0315   -0.0142    4.4872 O   0  0  0  0  0  0  0  0  0  0  0  0
    0.8821    1.0345    4.2940 C   0  0  2  0  0  0  0  0  0  0  0  0
    1.3802    1.3648    2.9903 O   0  0  0  0  0  0  0  0  0  0  0  0
    2.2498    0.6364    3.8454 C   0  0  1  0  0  0  0  0  0  0  0  0
    3.3978    1.4719    4.3425 C   0  0  0  0  0  0  0  0  0  0  0  0
    2.5375   -0.8675    3.3845 C   0  0  1  0  0  0  0  0  0  0  0  0
    1.5362   -1.1928    2.2174 C   0  0  0  0  0  0  0  0  0  0  0  0
    3.9092   -1.0475    2.6813 C   0  0  1  0  0  0  0  0  0  0  0  0
    4.3107   -0.0474    1.7779 O   0  0  0  0  0  0  0  0  0  0  0  0
    4.9263   -1.3384    3.7607 C   0  0  0  0  0  0  0  0  0  0  0  0
    4.1741   -2.2254    4.7906 C   0  0  1  0  0  0  0  0  0  0  0  0
    4.9291   -2.3932    6.1471 C   0  0  0  0  0  0  0  0  0  0  0  0
    5.4357   -3.5189    6.7292 C   0  0  0  0  0  0  0  0  0  0  0  0
    6.4109   -3.1515    7.8026 C   0  0  0  0  0  0  0  0  0  0  0  0
    6.4590   -1.7597    7.7450 O   0  0  0  0  0  0  0  0  0  0  0  0
    5.6859   -1.2735    6.7679 C   0  0  0  0  0  0  0  0  0  0  0  0
    5.6417   -0.0722    6.5054 O   0  0  0  0  0  0  0  0  0  0  0  0
    5.2701   -5.0016    6.3913 C   0  0  1  0  0  0  0  0  0  0  0  0
    6.4553   -5.4221    5.5141 C   0  0  0  0  0  0  0  0  0  0  0  0
    5.2715   -5.9172    7.6509 C   0  0  0  0  0  0  0  0  0  0  0  0
    4.1881   -5.7563    8.7434 C   0  0  0  0  0  0  0  0  0  0  0  0
    2.6903   -5.9449    8.3915 C   0  0  1  0  0  0  0  0  0  0  0  0
    2.1021   -4.3958    7.5561 S   0  0  0  0  0  0  0  0  0  0  0  0
    0.8655   -3.9207    8.2670 O   0  0  0  0  0  0  0  0  0  0  0  0
    1.5554   -5.2399    5.9834 C   0  0  1  0  0  0  0  0  0  0  0  0
    1.6040   -4.4923    4.6291 C   0  0  0  0  0  0  0  0  0  0  0  0
    2.0057   -3.3046    4.1280 C   0  0  0  0  0  0  0  0  0  0  0  0
    2.5927   -1.9302    4.6205 C   0  0  2  0  0  0  0  0  0  0  0  0
    1.6782   -1.4251    5.8507 C   0  0  1  0  0  0  0  0  0  0  0  0
    2.2234   -6.6827    6.0157 C   0  0  2  0  0  0  0  0  0  0  0  0
    3.6323   -6.6207    5.6741 O   0  0  0  0  0  0  0  0  0  0  0  0
    4.1253   -5.1994    5.5800 O   0  0  0  0  0  0  0  0  0  0  0  0
    1.6360   -7.8041    5.0202 C   0  0  1  0  0  0  0  0  0  0  0  0
    0.1039   -7.6289    4.7835 C   0  0  0  0  0  0  0  0  0  0  0  0
    2.2763   -7.6565    3.6185 C   0  0  0  0  0  0  0  0  0  0  0  0
    2.9109   -8.5949    2.9135 C   0  0  0  0  0  0  0  0  0  0  0  0
    3.0472   -9.9699    3.3921 C   0  0  0  0  0  0  0  0  0  0  0  0
    3.8920  -10.7436    2.9585 O   0  0  0  0  0  0  0  0  0  0  0  0
    2.0161  -10.4016    4.4535 C   0  0  1  0  0  0  0  0  0  0  0  0
    0.6959  -10.7766    3.7291 C   0  0  0  0  0  0  0  0  0  0  0  0
    2.4254  -11.6344    5.0284 O   0  0  0  0  0  0  0  0  0  0  0  0
    1.8747   -9.2925    5.5605 C   0  0  1  0  0  0  0  0  0  0  0  0
    3.0920   -9.3313    6.5325 C   0  0  0  0  0  0  0  0  0  0  0  0
    2.9299   -8.4553    7.7808 C   0  0  0  0  0  0  0  0  0  0  0  0
    2.1676   -7.1262    7.5320 C   0  0  1  0  0  0  0  0  0  0  0  0
    0.7127   -7.3809    8.0525 C   0  0  0  0  0  0  0  0  0  0  0  0
    2.9493   -2.6598   10.2758 H   0  0  0  0  0  0  0  0  0  0  0  0
    4.0389   -1.5465   11.0710 H   0  0  0  0  0  0  0  0  0  0  0  0
    4.6528   -2.5768    9.7495 H   0  0  0  0  0  0  0  0  0  0  0  0
    3.0474    0.1026    6.7009 H   0  0  0  0  0  0  0  0  0  0  0  0
    0.9545    0.2915    8.6026 H   0  0  0  0  0  0  0  0  0  0  0  0
    1.4324    1.7866    6.3143 H   0  0  0  0  0  0  0  0  0  0  0  0
   -0.4474   -1.1189    7.5399 H   0  0  0  0  0  0  0  0  0  0  0  0
   -1.1783    1.3068    6.3518 H   0  0  0  0  0  0  0  0  0  0  0  0
   -0.7539   -2.8710    5.9587 H   0  0  0  0  0  0  0  0  0  0  0  0
   -0.5920   -2.5098    4.2411 H   0  0  0  0  0  0  0  0  0  0  0  0
   -1.8130   -1.6969    5.2000 H   0  0  0  0  0  0  0  0  0  0  0  0
    0.6350    1.9488    4.8520 H   0  0  0  0  0  0  0  0  0  0  0  0
    3.9309    1.0239    5.1579 H   0  0  0  0  0  0  0  0  0  0  0  0
    3.0156    2.4349    4.7035 H   0  0  0  0  0  0  0  0  0  0  0  0
    4.0944    1.7035    3.5558 H   0  0  0  0  0  0  0  0  0  0  0  0
    1.8223   -2.0473    1.5957 H   0  0  0  0  0  0  0  0  0  0  0  0
    1.4974   -0.3926    1.4785 H   0  0  0  0  0  0  0  0  0  0  0  0
    0.5229   -1.3778    2.5630 H   0  0  0  0  0  0  0  0  0  0  0  0
    3.9070   -1.9679    2.1021 H   0  0  0  0  0  0  0  0  0  0  0  0
    4.1660    0.8058    2.1853 H   0  0  0  0  0  0  0  0  0  0  0  0
    5.8201   -1.8341    3.3699 H   0  0  0  0  0  0  0  0  0  0  0  0
    5.2667   -0.3856    4.1382 H   0  0  0  0  0  0  0  0  0  0  0  0
    4.3377   -3.1952    4.3181 H   0  0  0  0  0  0  0  0  0  0  0  0
    7.3962   -3.5700    7.5974 H   0  0  0  0  0  0  0  0  0  0  0  0
    6.0648   -3.4698    8.7737 H   0  0  0  0  0  0  0  0  0  0  0  0
    7.3956   -5.2798    6.0447 H   0  0  0  0  0  0  0  0  0  0  0  0
    6.5037   -4.8278    4.6030 H   0  0  0  0  0  0  0  0  0  0  0  0
    6.3946   -6.4734    5.2342 H   0  0  0  0  0  0  0  0  0  0  0  0
    5.3353   -6.9544    7.3283 H   0  0  0  0  0  0  0  0  0  0  0  0
    6.2215   -5.7612    8.1642 H   0  0  0  0  0  0  0  0  0  0  0  0
    4.4261   -6.4731    9.5340 H   0  0  0  0  0  0  0  0  0  0  0  0
    4.2956   -4.7808    9.2185 H   0  0  0  0  0  0  0  0  0  0  0  0
    2.1922   -5.9474    9.3586 H   0  0  0  0  0  0  0  0  0  0  0  0
    0.4856   -5.3532    6.1410 H   0  0  0  0  0  0  0  0  0  0  0  0
    1.2172   -5.1249    3.8492 H   0  0  0  0  0  0  0  0  0  0  0  0
    1.9054   -3.3733    3.0638 H   0  0  0  0  0  0  0  0  0  0  0  0
    1.4234   -2.3346    6.3645 H   0  0  0  0  0  0  0  0  0  0  0  0
   -0.4888   -7.7226    5.6887 H   0  0  0  0  0  0  0  0  0  0  0  0
   -0.3015   -8.3654    4.0949 H   0  0  0  0  0  0  0  0  0  0  0  0
   -0.1505   -6.6644    4.3500 H   0  0  0  0  0  0  0  0  0  0  0  0
    2.2456   -6.6785    3.1708 H   0  0  0  0  0  0  0  0  0  0  0  0
    3.3477   -8.3687    1.9498 H   0  0  0  0  0  0  0  0  0  0  0  0
    0.3864  -10.0415    2.9842 H   0  0  0  0  0  0  0  0  0  0  0  0
   -0.1273  -10.9021    4.4359 H   0  0  0  0  0  0  0  0  0  0  0  0
    0.7926  -11.7182    3.1841 H   0  0  0  0  0  0  0  0  0  0  0  0
    1.8822  -11.8430    5.7890 H   0  0  0  0  0  0  0  0  0  0  0  0
    1.0030   -9.6000    6.1487 H   0  0  0  0  0  0  0  0  0  0  0  0
    3.2577  -10.3408    6.9095 H   0  0  0  0  0  0  0  0  0  0  0  0
    4.0039   -9.0740    5.9843 H   0  0  0  0  0  0  0  0  0  0  0  0
    2.4269   -9.0390    8.5596 H   0  0  0  0  0  0  0  0  0  0  0  0
    3.9237   -8.2906    8.1887 H   0  0  0  0  0  0  0  0  0  0  0  0
    0.2377   -8.2533    7.6233 H   0  0  0  0  0  0  0  0  0  0  0  0
    0.0428   -6.5393    7.9071 H   0  0  0  0  0  0  0  0  0  0  0  0
    0.7040   -7.5753    9.1259 H   0  0  0  0  0  0  0  0  0  0  0  0
  1  2  1  0
  1 58  1  0
  1 59  1  0
  1 60  1  0
  2  3  2  0
  2  4  1  0
  4  5  1  0
  5 40  1  0
  5  6  1  0
  5 61  1  6
  6  7  1  0
  6  8  1  0
  6 62  1  1
  7 63  1  0
  8  9  1  0
  8 10  1  0
  8 64  1  1
  9 65  1  0
 10 40  1  0
 10 11  1  6
 10 12  1  0
 11 66  1  0
 11 67  1  0
 11 68  1  0
 12 13  1  0
 13 15  1  0
 13 14  1  0
 13 69  1  1
 14 15  1  0
 15 16  1  1
 15 17  1  0
 16 70  1  0
 16 71  1  0
 16 72  1  0
 17 39  1  0
 17 18  1  6
 17 19  1  0
 18 73  1  0
 18 74  1  0
 18 75  1  0
 19 20  1  0
 19 21  1  0
 19 76  1  6
 20 77  1  0
 21 22  1  0
 21 78  1  0
 21 79  1  0
 22 39  1  0
 22 80  1  6
 22 23  1  0
 23 24  2  0
 23 27  1  0
 24 29  1  0
 24 25  1  0
 25 26  1  0
 25 81  1  0
 25 82  1  0
 26 27  1  0
 27 28  2  0
 29 43  1  0
 29 30  1  6
 29 31  1  0
 30 83  1  0
 30 84  1  0
 30 85  1  0
 31 32  1  0
 31 86  1  0
 31 87  1  0
 32 33  1  0
 32 88  1  0
 32 89  1  0
 33 56  1  0
 34 33  1  1
 33 90  1  1
 34 35  2  0
 34 36  1  0
 36 37  1  0
 36 41  1  0
 36 91  1  1
 37 38  2  3
 37 92  1  0
 39 38  1  6
 38 93  1  0
 39 40  1  0
 40 94  1  1
 41 56  1  0
 41 42  1  6
 41 44  1  0
 42 43  1  0
 44 53  1  0
 44 45  1  6
 44 46  1  0
 45 95  1  0
 45 96  1  0
 45 97  1  0
 46 47  2  0
 46 98  1  0
 47 48  1  0
 47 99  1  0
 48 49  2  0
 48 50  1  0
 50 51  1  0
 50 52  1  1
 50 53  1  0
 51100  1  0
 51101  1  0
 51102  1  0
 52103  1  0
 53 54  1  0
 53104  1  1
 54 55  1  0
 54105  1  0
 54106  1  0
 55 56  1  0
 55107  1  0
 55108  1  0
 56 57  1  1
 57109  1  0
 57110  1  0
 57111  1  0
M  END
>  <i_m_ct_stereo_status>  (78) 
1

>  <s_m_source_file>  (78) 
/var/tmp/pbs.5075288.sched01/tmpndvtliwj/216foptgilz.sdf

>  <i_m_source_file_index>  (78) 
16

>  <i_lp_mmshare_version>  (78) 
48012

>  <i_f3d_flags>  (78) 
0

>  <s_epik_input>  (78) 
W0NIM11DKD1PKU9bQ0BIXShbQ0BASF0oW09IXSlbQ0BIXTFbT0hdKVtDQEhdMltDQF0xKFtDSDNdKU9bQ0BIXShPMylbQ0BAXTMoW0NIM10pW0NAQF0oW0NAXTI0NSkoW0NIM10pW0NAQEhdKFtPSF0pW0NIMl1bQ0BIXTRjNmMoW2NIXW9jNltPSF0pW0NAQF03KFtDSDNdKVtDSDJdW0NIMl1bQ0BASF04W0NAQF05KFtDSDNdKVtDQF0oT083KShbQ0BASF0oW1MrXThbTy1dKS9bQ0hdPVtDSF1cNSlbQ0BdMShbQ0gzXSlbQ0BIXShbQ0gyXVtDSDJdOSlbQ0BdKFtDSDNdKShbT0hdKUMoPU8pW0NIXT1bQ0hdMQ==

>  <s_epik_cmdline>  (78) 
J2VwaWtfcHl0aG9uJywgJy1waHQnLCAnMi4wJywgJy1waCcsICc3LjAnLCAnLXRuJywgJzgnLCAnLW1hJywgJzIwMCcsICctaW1hZScsICc8aW5maWxlLm1hZT4nLCAnLW9tYWUnLCAnPG91dGZpbGUubWFlPic=

>  <r_lp_tautomer_probability>  (78) 
1

>  <r_epik_Ionization_Penalty>  (78) 
2.08912e-06

>  <r_epik_Ionization_Penalty_Charging>  (78) 
0

>  <r_epik_Ionization_Penalty_Neutral>  (78) 
2.08912e-06

>  <r_epik_State_Penalty>  (78) 
-0

>  <r_epik_Charging_Adjusted_Penalty>  (78) 
0

>  <i_epik_Tot_Q>  (78) 
0

>  <i_epik_Tot_abs_Q>  (78) 
0

>  <s_epik_Chemistry_Notes>  (78) 
This compound has an ester and may undergo hydrolysis at high or low pH. This compound contains an acetal/aminal-like group ( X-CH(R)-Y where X, Y are N, S, or O) that may be acid/base labile, releasing an aldehyde.

>  <s_lp_Force_Field>  (78) 
OPLS3e

>  <r_lp_Energy>  (78) 
151.459

>  <b_lp_Chiralities_Consistent>  (78) 
1

>  <s_lp_Variant>  (78) 
81:0-3

>  <s_i_glide_gridfile>  (78) 
pfpi4k_grid

>  <i_i_glide_lignum>  (78) 
16

>  <i_i_glide_rotatable_bonds>  (78) 
6

>  <r_i_docking_score>  (78) 
-2.57437

>  <r_i_glide_ligand_efficiency>  (78) 
-0.0451644

>  <r_i_glide_ligand_efficiency_sa>  (78) 
-0.173815

>  <r_i_glide_ligand_efficiency_ln>  (78) 
-0.510479

>  <r_i_glide_gscore>  (78) 
-2.57437

>  <r_i_glide_lipo>  (78) 
-0.115083

>  <r_i_glide_hbond>  (78) 
0

>  <r_i_glide_metal>  (78) 
-0

>  <r_i_glide_rewards>  (78) 
-0.0229326

>  <r_i_glide_evdw>  (78) 
-33.8315

>  <r_i_glide_ecoul>  (78) 
-5.05348

>  <r_i_glide_erotb>  (78) 
0.0328588

>  <r_i_glide_esite>  (78) 
-0.0196187

>  <r_i_glide_emodel>  (78) 
-43.8872

>  <r_i_glide_energy>  (78) 
-38.8849

>  <r_i_glide_einternal>  (78) 
0.508777

>  <r_i_glide_intrahb_reward>  (78) 
-0

>  <i_i_glide_confnum>  (78) 
1

>  <i_i_glide_posenum>  (78) 
2

>  <r_i_glide_eff_state_penalty>  (78) 
0

>  <ligand_id>  (78) 
81

>  <original_smiles>  (78) 
CC(=O)OC1C(O)C(O)C2(C)OC3OC3(C)C3(C)C(O)CC4c5c(coc5O)C5(C)CCC6[S+]([O-])C(C=CC43C12)C1(OO5)C2(C)C=CC(=O)C(C)(O)C2CCC61C

>  <smiles>  (78) 
[H]OC1([H])C([H])(OC(=O)C([H])([H])[H])C2([H])C(C([H])([H])[H])(OC3([H])OC3(C([H])([H])[H])C3(C([H])([H])[H])C([H])(O[H])C([H])([H])C4([H])C5=C(C([H])([H])OC5=O)C5(C([H])([H])[H])OOC67C([H])(C([H])=C([H])C423)S(=O)C([H])(C([H])([H])C5([H])[H])C6(C([H])([H])[H])C([H])([H])C([H])([H])C2([H])C(O[H])(C([H])([H])[H])C(=O)C([H])=C([H])C27C([H])([H])[H])C1([H])O[H]

$$$$
81:3:0
     RDKit          3D

111120  0  0  1  0  0  0  0  0999 V2000
    4.0738    3.5618    5.7151 C   0  0  0  0  0  0  0  0  0  0  0  0
    4.3987    2.4142    6.7075 C   0  0  0  0  0  0  0  0  0  0  0  0
    5.2538    2.5497    7.5752 O   0  0  0  0  0  0  0  0  0  0  0  0
    3.6954    1.2697    6.5890 O   0  0  0  0  0  0  0  0  0  0  0  0
    2.7243    0.9974    5.5835 C   0  0  2  0  0  0  0  0  0  0  0  0
    1.4615    1.8402    5.9300 C   0  0  1  0  0  0  0  0  0  0  0  0
    0.9927    2.6179    4.8357 O   0  0  0  0  0  0  0  0  0  0  0  0
    0.4089    0.8337    6.3679 C   0  0  1  0  0  0  0  0  0  0  0  0
   -0.9491    1.2407    6.2433 O   0  0  0  0  0  0  0  0  0  0  0  0
    0.7275   -0.5225    5.7189 C   0  0  1  0  0  0  0  0  0  0  0  0
    0.1273   -1.6129    6.6269 C   0  0  0  0  0  0  0  0  0  0  0  0
    0.0714   -0.7297    4.4774 O   0  0  0  0  0  0  0  0  0  0  0  0
    0.3015    0.2204    3.4682 C   0  0  2  0  0  0  0  0  0  0  0  0
    0.4283   -0.2576    2.1358 O   0  0  0  0  0  0  0  0  0  0  0  0
    1.6566    0.1533    2.7542 C   0  0  1  0  0  0  0  0  0  0  0  0
    2.1497    1.4448    2.1488 C   0  0  0  0  0  0  0  0  0  0  0  0
    2.6749   -1.0604    2.9219 C   0  0  1  0  0  0  0  0  0  0  0  0
    2.2154   -2.1427    1.9157 C   0  0  0  0  0  0  0  0  0  0  0  0
    4.1631   -0.8399    2.4238 C   0  0  1  0  0  0  0  0  0  0  0  0
    4.4780    0.0974    1.4301 O   0  0  0  0  0  0  0  0  0  0  0  0
    5.0442   -0.7148    3.6376 C   0  0  0  0  0  0  0  0  0  0  0  0
    4.4475   -1.7577    4.5973 C   0  0  1  0  0  0  0  0  0  0  0  0
    5.1242   -1.9133    5.9900 C   0  0  0  0  0  0  0  0  0  0  0  0
    5.2596   -2.9755    6.8361 C   0  0  0  0  0  0  0  0  0  0  0  0
    6.0344   -2.5439    8.0512 C   0  0  0  0  0  0  0  0  0  0  0  0
    6.4327   -1.2375    7.7512 O   0  0  0  0  0  0  0  0  0  0  0  0
    6.0129   -0.8571    6.5459 C   0  0  0  0  0  0  0  0  0  0  0  0
    6.3900    0.1690    5.9971 O   0  0  0  0  0  0  0  0  0  0  0  0
    4.8396   -4.4654    6.7518 C   0  0  1  0  0  0  0  0  0  0  0  0
    6.1083   -5.3462    6.9169 C   0  0  0  0  0  0  0  0  0  0  0  0
    3.8400   -4.7699    7.9063 C   0  0  0  0  0  0  0  0  0  0  0  0
    3.2560   -6.2047    8.1133 C   0  0  0  0  0  0  0  0  0  0  0  0
    2.0302   -6.7144    7.2792 C   0  0  1  0  0  0  0  0  0  0  0  0
    1.0826   -5.2176    6.7428 S   0  0  0  0  0  0  0  0  0  0  0  0
   -0.4174   -5.5294    6.8261 O   0  0  0  0  0  0  0  0  0  0  0  0
    1.6084   -5.3506    4.9686 C   0  0  1  0  0  0  0  0  0  0  0  0
    1.9466   -4.0371    4.2794 C   0  0  0  0  0  0  0  0  0  0  0  0
    2.3442   -2.9164    4.9208 C   0  0  0  0  0  0  0  0  0  0  0  0
    2.8826   -1.5443    4.4759 C   0  0  2  0  0  0  0  0  0  0  0  0
    2.2904   -0.5251    5.5673 C   0  0  1  0  0  0  0  0  0  0  0  0
    2.6779   -6.5223    4.8820 C   0  0  2  0  0  0  0  0  0  0  0  0
    4.0024   -6.2152    5.3805 O   0  0  0  0  0  0  0  0  0  0  0  0
    4.2914   -4.7600    5.4750 O   0  0  0  0  0  0  0  0  0  0  0  0
    2.9146   -7.1645    3.4393 C   0  0  1  0  0  0  0  0  0  0  0  0
    1.6145   -7.1377    2.5878 C   0  0  0  0  0  0  0  0  0  0  0  0
    3.9225   -6.2822    2.6837 C   0  0  0  0  0  0  0  0  0  0  0  0
    5.0773   -6.6699    2.1221 C   0  0  0  0  0  0  0  0  0  0  0  0
    5.4928   -8.0758    2.1163 C   0  0  0  0  0  0  0  0  0  0  0  0
    6.6397   -8.4299    1.8821 O   0  0  0  0  0  0  0  0  0  0  0  0
    4.3661   -9.1039    2.3166 C   0  0  1  0  0  0  0  0  0  0  0  0
    3.6398   -9.2856    0.9697 C   0  0  0  0  0  0  0  0  0  0  0  0
    4.9187  -10.4034    2.5457 O   0  0  0  0  0  0  0  0  0  0  0  0
    3.4257   -8.6732    3.5100 C   0  0  1  0  0  0  0  0  0  0  0  0
    4.0927   -8.9983    4.8748 C   0  0  0  0  0  0  0  0  0  0  0  0
    3.2368   -8.7155    6.1202 C   0  0  0  0  0  0  0  0  0  0  0  0
    2.2197   -7.5492    5.9713 C   0  0  1  0  0  0  0  0  0  0  0  0
    0.8473   -8.2322    5.6599 C   0  0  0  0  0  0  0  0  0  0  0  0
    3.2063    3.3939    5.0804 H   0  0  0  0  0  0  0  0  0  0  0  0
    4.9526    3.7945    5.0961 H   0  0  0  0  0  0  0  0  0  0  0  0
    3.9160    4.4753    6.2925 H   0  0  0  0  0  0  0  0  0  0  0  0
    3.1385    1.2635    4.6153 H   0  0  0  0  0  0  0  0  0  0  0  0
    1.6258    2.5567    6.7381 H   0  0  0  0  0  0  0  0  0  0  0  0
    1.6867    3.1502    4.5077 H   0  0  0  0  0  0  0  0  0  0  0  0
    0.5729    0.7128    7.4410 H   0  0  0  0  0  0  0  0  0  0  0  0
   -1.0641    1.5672    5.3560 H   0  0  0  0  0  0  0  0  0  0  0  0
    0.7103   -1.7185    7.5433 H   0  0  0  0  0  0  0  0  0  0  0  0
    0.0529   -2.5772    6.1342 H   0  0  0  0  0  0  0  0  0  0  0  0
   -0.8848   -1.3386    6.9138 H   0  0  0  0  0  0  0  0  0  0  0  0
   -0.3354    1.0916    3.5039 H   0  0  0  0  0  0  0  0  0  0  0  0
    3.0401    1.8421    2.6371 H   0  0  0  0  0  0  0  0  0  0  0  0
    1.3781    2.2068    2.2156 H   0  0  0  0  0  0  0  0  0  0  0  0
    2.3356    1.3071    1.0875 H   0  0  0  0  0  0  0  0  0  0  0  0
    2.8787   -3.0030    1.8700 H   0  0  0  0  0  0  0  0  0  0  0  0
    2.1982   -1.7421    0.9003 H   0  0  0  0  0  0  0  0  0  0  0  0
    1.2052   -2.4996    2.1341 H   0  0  0  0  0  0  0  0  0  0  0  0
    4.5365   -1.7544    1.9554 H   0  0  0  0  0  0  0  0  0  0  0  0
    3.8873   -0.0252    0.6960 H   0  0  0  0  0  0  0  0  0  0  0  0
    6.0864   -0.9181    3.3779 H   0  0  0  0  0  0  0  0  0  0  0  0
    4.9759    0.3021    4.0111 H   0  0  0  0  0  0  0  0  0  0  0  0
    4.6697   -2.7053    4.1073 H   0  0  0  0  0  0  0  0  0  0  0  0
    6.9137   -3.1535    8.2289 H   0  0  0  0  0  0  0  0  0  0  0  0
    5.4120   -2.5688    8.9402 H   0  0  0  0  0  0  0  0  0  0  0  0
    6.5826   -5.2104    7.8902 H   0  0  0  0  0  0  0  0  0  0  0  0
    6.8584   -5.1228    6.1560 H   0  0  0  0  0  0  0  0  0  0  0  0
    5.8931   -6.4128    6.8525 H   0  0  0  0  0  0  0  0  0  0  0  0
    4.3859   -4.5853    8.8319 H   0  0  0  0  0  0  0  0  0  0  0  0
    3.0709   -4.0002    7.9367 H   0  0  0  0  0  0  0  0  0  0  0  0
    4.0594   -6.9298    8.1627 H   0  0  0  0  0  0  0  0  0  0  0  0
    2.8864   -6.1912    9.1391 H   0  0  0  0  0  0  0  0  0  0  0  0
    1.4059   -7.2848    7.9687 H   0  0  0  0  0  0  0  0  0  0  0  0
    0.6882   -5.6590    4.4826 H   0  0  0  0  0  0  0  0  0  0  0  0
    1.8891   -4.1397    3.2159 H   0  0  0  0  0  0  0  0  0  0  0  0
    2.4013   -3.0106    5.9906 H   0  0  0  0  0  0  0  0  0  0  0  0
    2.6240   -0.9054    6.5447 H   0  0  0  0  0  0  0  0  0  0  0  0
    0.7802   -7.6562    3.0575 H   0  0  0  0  0  0  0  0  0  0  0  0
    1.7399   -7.5977    1.6141 H   0  0  0  0  0  0  0  0  0  0  0  0
    1.2838   -6.1212    2.3791 H   0  0  0  0  0  0  0  0  0  0  0  0
    3.6612   -5.2331    2.6245 H   0  0  0  0  0  0  0  0  0  0  0  0
    5.7197   -5.9598    1.6163 H   0  0  0  0  0  0  0  0  0  0  0  0
    3.4187   -8.3366    0.4985 H   0  0  0  0  0  0  0  0  0  0  0  0
    2.7174   -9.8583    1.0881 H   0  0  0  0  0  0  0  0  0  0  0  0
    4.2609   -9.8350    0.2579 H   0  0  0  0  0  0  0  0  0  0  0  0
    4.5749  -11.0021    1.8833 H   0  0  0  0  0  0  0  0  0  0  0  0
    2.5550   -9.3379    3.4365 H   0  0  0  0  0  0  0  0  0  0  0  0
    4.3607  -10.0550    4.9227 H   0  0  0  0  0  0  0  0  0  0  0  0
    5.0325   -8.4518    4.9476 H   0  0  0  0  0  0  0  0  0  0  0  0
    2.6982   -9.6246    6.3819 H   0  0  0  0  0  0  0  0  0  0  0  0
    3.9205   -8.5720    6.9576 H   0  0  0  0  0  0  0  0  0  0  0  0
    0.9072   -8.9483    4.8446 H   0  0  0  0  0  0  0  0  0  0  0  0
    0.0443   -7.5460    5.4110 H   0  0  0  0  0  0  0  0  0  0  0  0
    0.4841   -8.8065    6.5124 H   0  0  0  0  0  0  0  0  0  0  0  0
  1  2  1  0
  1 58  1  0
  1 59  1  0
  1 60  1  0
  2  3  2  0
  2  4  1  0
  4  5  1  0
  5 40  1  0
  5  6  1  0
  5 61  1  6
  6  7  1  0
  6  8  1  0
  6 62  1  1
  7 63  1  0
  8  9  1  0
  8 10  1  0
  8 64  1  1
  9 65  1  0
 10 40  1  0
 10 11  1  1
 10 12  1  0
 11 66  1  0
 11 67  1  0
 11 68  1  0
 12 13  1  0
 13 15  1  0
 13 14  1  0
 13 69  1  6
 14 15  1  0
 15 16  1  6
 15 17  1  0
 16 70  1  0
 16 71  1  0
 16 72  1  0
 17 39  1  0
 17 18  1  6
 17 19  1  0
 18 73  1  0
 18 74  1  0
 18 75  1  0
 19 20  1  0
 19 21  1  0
 19 76  1  6
 20 77  1  0
 21 22  1  0
 21 78  1  0
 21 79  1  0
 22 39  1  0
 22 80  1  6
 22 23  1  0
 23 24  2  0
 23 27  1  0
 24 29  1  0
 24 25  1  0
 25 26  1  0
 25 81  1  0
 25 82  1  0
 26 27  1  0
 27 28  2  0
 29 43  1  0
 29 30  1  1
 29 31  1  0
 30 83  1  0
 30 84  1  0
 30 85  1  0
 31 32  1  0
 31 86  1  0
 31 87  1  0
 32 33  1  0
 32 88  1  0
 32 89  1  0
 33 56  1  0
 34 33  1  1
 33 90  1  1
 34 35  2  0
 34 36  1  0
 36 37  1  0
 36 41  1  0
 36 91  1  6
 37 38  2  3
 37 92  1  0
 39 38  1  6
 38 93  1  0
 39 40  1  0
 40 94  1  1
 41 56  1  0
 41 42  1  1
 41 44  1  0
 42 43  1  0
 44 53  1  0
 44 45  1  6
 44 46  1  0
 45 95  1  0
 45 96  1  0
 45 97  1  0
 46 47  2  0
 46 98  1  0
 47 48  1  0
 47 99  1  0
 48 49  2  0
 48 50  1  0
 50 51  1  0
 50 52  1  1
 50 53  1  0
 51100  1  0
 51101  1  0
 51102  1  0
 52103  1  0
 53 54  1  0
 53104  1  6
 54 55  1  0
 54105  1  0
 54106  1  0
 55 56  1  0
 55107  1  0
 55108  1  0
 56 57  1  6
 57109  1  0
 57110  1  0
 57111  1  0
M  END
>  <i_m_ct_stereo_status>  (79) 
1

>  <s_m_source_file>  (79) 
/var/tmp/pbs.5075288.sched01/tmpndvtliwj/216foptgilz.sdf

>  <i_m_source_file_index>  (79) 
17

>  <i_lp_mmshare_version>  (79) 
48012

>  <i_f3d_flags>  (79) 
0

>  <s_epik_input>  (79) 
W0NIM11DKD1PKU9bQ0BIXShbQ0BASF0oW09IXSlbQ0BIXTFbT0hdKVtDQEhdMltDQF0xKFtDSDNdKU9bQ0BIXShPMylbQ0BAXTMoW0NIM10pW0NAQF0oW0NAXTI0NSkoW0NIM10pW0NAQEhdKFtPSF0pW0NIMl1bQ0BIXTRjNmMoW2NIXW9jNltPSF0pW0NAQF03KFtDSDNdKVtDSDJdW0NIMl1bQ0BASF04W0NAQF05KFtDSDNdKVtDQF0oT083KShbQ0BASF0oW1MrXThbTy1dKS9bQ0hdPVtDSF1cNSlbQ0BdMShbQ0gzXSlbQ0BIXShbQ0gyXVtDSDJdOSlbQ0BdKFtDSDNdKShbT0hdKUMoPU8pW0NIXT1bQ0hdMQ==

>  <s_epik_cmdline>  (79) 
J2VwaWtfcHl0aG9uJywgJy1waHQnLCAnMi4wJywgJy1waCcsICc3LjAnLCAnLXRuJywgJzgnLCAnLW1hJywgJzIwMCcsICctaW1hZScsICc8aW5maWxlLm1hZT4nLCAnLW9tYWUnLCAnPG91dGZpbGUubWFlPic=

>  <r_lp_tautomer_probability>  (79) 
1

>  <r_epik_Ionization_Penalty>  (79) 
2.08912e-06

>  <r_epik_Ionization_Penalty_Charging>  (79) 
0

>  <r_epik_Ionization_Penalty_Neutral>  (79) 
2.08912e-06

>  <r_epik_State_Penalty>  (79) 
-0

>  <r_epik_Charging_Adjusted_Penalty>  (79) 
0

>  <i_epik_Tot_Q>  (79) 
0

>  <i_epik_Tot_abs_Q>  (79) 
0

>  <s_epik_Chemistry_Notes>  (79) 
This compound has an ester and may undergo hydrolysis at high or low pH. This compound contains an acetal/aminal-like group ( X-CH(R)-Y where X, Y are N, S, or O) that may be acid/base labile, releasing an aldehyde.

>  <s_lp_Force_Field>  (79) 
OPLS3e

>  <r_lp_Energy>  (79) 
145.477

>  <b_lp_Chiralities_Consistent>  (79) 
1

>  <s_lp_Variant>  (79) 
81:0-4

>  <s_i_glide_gridfile>  (79) 
pfpi4k_grid

>  <i_i_glide_lignum>  (79) 
17

>  <i_i_glide_rotatable_bonds>  (79) 
6

>  <r_i_docking_score>  (79) 
-2.87818

>  <r_i_glide_ligand_efficiency>  (79) 
-0.0504943

>  <r_i_glide_ligand_efficiency_sa>  (79) 
-0.194327

>  <r_i_glide_ligand_efficiency_ln>  (79) 
-0.570721

>  <r_i_glide_gscore>  (79) 
-2.87818

>  <r_i_glide_lipo>  (79) 
-0.232814

>  <r_i_glide_hbond>  (79) 
-0.0493276

>  <r_i_glide_metal>  (79) 
-0

>  <r_i_glide_rewards>  (79) 
-0.101212

>  <r_i_glide_evdw>  (79) 
-35.9636

>  <r_i_glide_ecoul>  (79) 
-4.73356

>  <r_i_glide_erotb>  (79) 
0.0328588

>  <r_i_glide_esite>  (79) 
-0.0194682

>  <r_i_glide_emodel>  (79) 
-43.6086

>  <r_i_glide_energy>  (79) 
-40.6971

>  <r_i_glide_einternal>  (79) 
8.74786

>  <r_i_glide_intrahb_reward>  (79) 
-0

>  <i_i_glide_confnum>  (79) 
4

>  <i_i_glide_posenum>  (79) 
16

>  <r_i_glide_eff_state_penalty>  (79) 
0

>  <ligand_id>  (79) 
81

>  <original_smiles>  (79) 
CC(=O)OC1C(O)C(O)C2(C)OC3OC3(C)C3(C)C(O)CC4c5c(coc5O)C5(C)CCC6[S+]([O-])C(C=CC43C12)C1(OO5)C2(C)C=CC(=O)C(C)(O)C2CCC61C

>  <smiles>  (79) 
[H]OC1([H])C([H])(OC(=O)C([H])([H])[H])C2([H])C(C([H])([H])[H])(OC3([H])OC3(C([H])([H])[H])C3(C([H])([H])[H])C([H])(O[H])C([H])([H])C4([H])C5=C(C([H])([H])OC5=O)C5(C([H])([H])[H])OOC67C([H])(C([H])=C([H])C423)S(=O)C([H])(C([H])([H])C5([H])[H])C6(C([H])([H])[H])C([H])([H])C([H])([H])C2([H])C(O[H])(C([H])([H])[H])C(=O)C([H])=C([H])C27C([H])([H])[H])C1([H])O[H]

$$$$
81:3:1
     RDKit          3D

111120  0  0  1  0  0  0  0  0999 V2000
    1.9723   -0.7580   10.5650 C   0  0  0  0  0  0  0  0  0  0  0  0
    1.3837   -0.8356    9.1738 C   0  0  0  0  0  0  0  0  0  0  0  0
    0.2724   -1.3372    9.0010 O   0  0  0  0  0  0  0  0  0  0  0  0
    2.2057   -0.3415    8.2079 O   0  0  0  0  0  0  0  0  0  0  0  0
    1.8710   -0.2707    6.8109 C   0  0  2  0  0  0  0  0  0  0  0  0
    0.6341    0.6542    6.6393 C   0  0  1  0  0  0  0  0  0  0  0  0
    0.8324    1.7257    5.7430 O   0  0  0  0  0  0  0  0  0  0  0  0
   -0.4922   -0.2952    6.2177 C   0  0  1  0  0  0  0  0  0  0  0  0
   -1.6498    0.2517    5.6044 O   0  0  0  0  0  0  0  0  0  0  0  0
    0.1313   -1.5537    5.5554 C   0  0  1  0  0  0  0  0  0  0  0  0
   -0.7767   -2.7629    5.8409 C   0  0  0  0  0  0  0  0  0  0  0  0
    0.1827   -1.4887    4.1338 O   0  0  0  0  0  0  0  0  0  0  0  0
    0.8108   -0.3519    3.5960 C   0  0  2  0  0  0  0  0  0  0  0  0
    1.5488   -0.5608    2.4258 O   0  0  0  0  0  0  0  0  0  0  0  0
    2.3383   -0.3684    3.6166 C   0  0  1  0  0  0  0  0  0  0  0  0
    3.0075    0.9976    3.6427 C   0  0  0  0  0  0  0  0  0  0  0  0
    3.2098   -1.6544    3.9736 C   0  0  1  0  0  0  0  0  0  0  0  0
    3.3176   -2.4611    2.6504 C   0  0  0  0  0  0  0  0  0  0  0  0
    4.7373   -1.4231    4.3130 C   0  0  1  0  0  0  0  0  0  0  0  0
    5.4523   -0.3074    3.8315 O   0  0  0  0  0  0  0  0  0  0  0  0
    4.9358   -1.6488    5.7951 C   0  0  0  0  0  0  0  0  0  0  0  0
    3.9918   -2.8266    6.0833 C   0  0  1  0  0  0  0  0  0  0  0  0
    3.9296   -3.3350    7.5613 C   0  0  0  0  0  0  0  0  0  0  0  0
    3.6901   -4.5643    8.1032 C   0  0  0  0  0  0  0  0  0  0  0  0
    3.7764   -4.4695    9.6053 C   0  0  0  0  0  0  0  0  0  0  0  0
    4.2262   -3.1621    9.8326 O   0  0  0  0  0  0  0  0  0  0  0  0
    4.3905   -2.4896    8.6938 C   0  0  0  0  0  0  0  0  0  0  0  0
    4.8783   -1.3593    8.6504 O   0  0  0  0  0  0  0  0  0  0  0  0
    3.4126   -5.9651    7.5037 C   0  0  1  0  0  0  0  0  0  0  0  0
    4.4815   -6.9603    8.0435 C   0  0  0  0  0  0  0  0  0  0  0  0
    1.9941   -6.4356    7.9464 C   0  0  0  0  0  0  0  0  0  0  0  0
    1.4295   -7.8332    7.5173 C   0  0  0  0  0  0  0  0  0  0  0  0
    0.7663   -8.0559    6.1125 C   0  0  1  0  0  0  0  0  0  0  0  0
    0.1262   -6.4101    5.5499 S   0  0  0  0  0  0  0  0  0  0  0  0
   -1.1953   -6.6444    4.8331 O   0  0  0  0  0  0  0  0  0  0  0  0
    1.4471   -6.1953    4.2598 C   0  0  1  0  0  0  0  0  0  0  0  0
    2.0233   -4.7937    4.1251 C   0  0  0  0  0  0  0  0  0  0  0  0
    2.0358   -3.8673    5.1063 C   0  0  0  0  0  0  0  0  0  0  0  0
    2.6669   -2.4678    5.2845 C   0  0  2  0  0  0  0  0  0  0  0  0
    1.5788   -1.6728    6.1564 C   0  0  1  0  0  0  0  0  0  0  0  0
    2.4695   -7.3973    4.4197 C   0  0  2  0  0  0  0  0  0  0  0  0
    3.3873   -7.3160    5.5324 O   0  0  0  0  0  0  0  0  0  0  0  0
    3.5440   -5.9321    6.0874 O   0  0  0  0  0  0  0  0  0  0  0  0
    3.3932   -7.7194    3.1545 C   0  0  1  0  0  0  0  0  0  0  0  0
    2.6532   -7.4087    1.8222 C   0  0  0  0  0  0  0  0  0  0  0  0
    4.6094   -6.7719    3.1820 C   0  0  0  0  0  0  0  0  0  0  0  0
    5.9036   -7.1118    3.1593 C   0  0  0  0  0  0  0  0  0  0  0  0
    6.3188   -8.5134    3.0331 C   0  0  0  0  0  0  0  0  0  0  0  0
    7.4439   -8.9082    3.3160 O   0  0  0  0  0  0  0  0  0  0  0  0
    5.2716   -9.4726    2.4403 C   0  0  1  0  0  0  0  0  0  0  0  0
    5.2868   -9.3116    0.9114 C   0  0  0  0  0  0  0  0  0  0  0  0
    5.6906  -10.8234    2.5993 O   0  0  0  0  0  0  0  0  0  0  0  0
    3.8661   -9.2420    3.1093 C   0  0  1  0  0  0  0  0  0  0  0  0
    3.8098   -9.9149    4.5120 C   0  0  0  0  0  0  0  0  0  0  0  0
    2.4557   -9.8409    5.2416 C   0  0  0  0  0  0  0  0  0  0  0  0
    1.5902   -8.5961    4.8972 C   0  0  1  0  0  0  0  0  0  0  0  0
    0.5593   -9.0864    3.8284 C   0  0  0  0  0  0  0  0  0  0  0  0
    2.9298   -0.2294   10.5917 H   0  0  0  0  0  0  0  0  0  0  0  0
    2.1134   -1.7775   10.9188 H   0  0  0  0  0  0  0  0  0  0  0  0
    1.2627   -0.2646   11.2273 H   0  0  0  0  0  0  0  0  0  0  0  0
    2.7103    0.1929    6.3055 H   0  0  0  0  0  0  0  0  0  0  0  0
    0.3849    1.1635    7.5692 H   0  0  0  0  0  0  0  0  0  0  0  0
    1.0813    1.3990    4.8922 H   0  0  0  0  0  0  0  0  0  0  0  0
   -0.9273   -0.6402    7.1408 H   0  0  0  0  0  0  0  0  0  0  0  0
   -1.4139    0.6776    4.7897 H   0  0  0  0  0  0  0  0  0  0  0  0
   -0.6809   -3.1258    6.8644 H   0  0  0  0  0  0  0  0  0  0  0  0
   -0.5688   -3.5885    5.1658 H   0  0  0  0  0  0  0  0  0  0  0  0
   -1.8233   -2.5083    5.6815 H   0  0  0  0  0  0  0  0  0  0  0  0
    0.2055    0.5555    3.5486 H   0  0  0  0  0  0  0  0  0  0  0  0
    3.5131    1.1917    4.5818 H   0  0  0  0  0  0  0  0  0  0  0  0
    2.2630    1.7803    3.5142 H   0  0  0  0  0  0  0  0  0  0  0  0
    3.6900    1.1097    2.8052 H   0  0  0  0  0  0  0  0  0  0  0  0
    3.9624   -3.3358    2.7374 H   0  0  0  0  0  0  0  0  0  0  0  0
    3.7620   -1.8467    1.8668 H   0  0  0  0  0  0  0  0  0  0  0  0
    2.3496   -2.7871    2.2731 H   0  0  0  0  0  0  0  0  0  0  0  0
    5.3269   -2.2319    3.8794 H   0  0  0  0  0  0  0  0  0  0  0  0
    5.0222    0.4876    4.1224 H   0  0  0  0  0  0  0  0  0  0  0  0
    5.9768   -1.8920    6.0281 H   0  0  0  0  0  0  0  0  0  0  0  0
    4.6692   -0.7382    6.3294 H   0  0  0  0  0  0  0  0  0  0  0  0
    4.4582   -3.6614    5.5539 H   0  0  0  0  0  0  0  0  0  0  0  0
    4.4866   -5.1673   10.0403 H   0  0  0  0  0  0  0  0  0  0  0  0
    2.7999   -4.6265   10.0600 H   0  0  0  0  0  0  0  0  0  0  0  0
    4.4343   -7.0721    9.1289 H   0  0  0  0  0  0  0  0  0  0  0  0
    5.4961   -6.6386    7.8005 H   0  0  0  0  0  0  0  0  0  0  0  0
    4.3666   -7.9723    7.6513 H   0  0  0  0  0  0  0  0  0  0  0  0
    2.0247   -6.4986    9.0336 H   0  0  0  0  0  0  0  0  0  0  0  0
    1.2761   -5.6374    7.7788 H   0  0  0  0  0  0  0  0  0  0  0  0
    2.1394   -8.6158    7.7683 H   0  0  0  0  0  0  0  0  0  0  0  0
    0.6190   -8.0211    8.2250 H   0  0  0  0  0  0  0  0  0  0  0  0
   -0.0931   -8.7115    6.2764 H   0  0  0  0  0  0  0  0  0  0  0  0
    0.8817   -6.3194    3.3400 H   0  0  0  0  0  0  0  0  0  0  0  0
    2.4742   -4.6551    3.1701 H   0  0  0  0  0  0  0  0  0  0  0  0
    1.5735   -4.1960    6.0226 H   0  0  0  0  0  0  0  0  0  0  0  0
    1.4438   -2.3350    7.0053 H   0  0  0  0  0  0  0  0  0  0  0  0
    1.7178   -7.9559    1.7056 H   0  0  0  0  0  0  0  0  0  0  0  0
    3.2472   -7.6502    0.9467 H   0  0  0  0  0  0  0  0  0  0  0  0
    2.4263   -6.3488    1.7127 H   0  0  0  0  0  0  0  0  0  0  0  0
    4.3737   -5.7218    3.2389 H   0  0  0  0  0  0  0  0  0  0  0  0
    6.6873   -6.3646    3.1818 H   0  0  0  0  0  0  0  0  0  0  0  0
    5.2466   -8.2733    0.5832 H   0  0  0  0  0  0  0  0  0  0  0  0
    4.4552   -9.8542    0.4564 H   0  0  0  0  0  0  0  0  0  0  0  0
    6.2118   -9.7225    0.4972 H   0  0  0  0  0  0  0  0  0  0  0  0
    5.1004  -11.3894    2.1082 H   0  0  0  0  0  0  0  0  0  0  0  0
    3.1593   -9.8042    2.4914 H   0  0  0  0  0  0  0  0  0  0  0  0
    4.0707  -10.9729    4.4440 H   0  0  0  0  0  0  0  0  0  0  0  0
    4.5754   -9.4711    5.1480 H   0  0  0  0  0  0  0  0  0  0  0  0
    1.8946  -10.7452    5.0158 H   0  0  0  0  0  0  0  0  0  0  0  0
    2.6607   -9.9352    6.3061 H   0  0  0  0  0  0  0  0  0  0  0  0
    1.0268   -9.6096    2.9977 H   0  0  0  0  0  0  0  0  0  0  0  0
   -0.0536   -8.3002    3.3944 H   0  0  0  0  0  0  0  0  0  0  0  0
   -0.1479   -9.8003    4.2562 H   0  0  0  0  0  0  0  0  0  0  0  0
  1  2  1  0
  1 58  1  0
  1 59  1  0
  1 60  1  0
  2  3  2  0
  2  4  1  0
  4  5  1  0
  5 40  1  0
  5  6  1  0
  5 61  1  6
  6  7  1  0
  6  8  1  0
  6 62  1  1
  7 63  1  0
  8  9  1  0
  8 10  1  0
  8 64  1  1
  9 65  1  0
 10 40  1  0
 10 11  1  6
 10 12  1  0
 11 66  1  0
 11 67  1  0
 11 68  1  0
 12 13  1  0
 13 15  1  0
 13 14  1  0
 13 69  1  6
 14 15  1  0
 15 16  1  6
 15 17  1  0
 16 70  1  0
 16 71  1  0
 16 72  1  0
 17 39  1  0
 17 18  1  6
 17 19  1  0
 18 73  1  0
 18 74  1  0
 18 75  1  0
 19 20  1  0
 19 21  1  0
 19 76  1  6
 20 77  1  0
 21 22  1  0
 21 78  1  0
 21 79  1  0
 22 39  1  0
 22 80  1  6
 22 23  1  0
 23 24  2  0
 23 27  1  0
 24 29  1  0
 24 25  1  0
 25 26  1  0
 25 81  1  0
 25 82  1  0
 26 27  1  0
 27 28  2  0
 29 43  1  0
 29 30  1  1
 29 31  1  0
 30 83  1  0
 30 84  1  0
 30 85  1  0
 31 32  1  0
 31 86  1  0
 31 87  1  0
 32 33  1  0
 32 88  1  0
 32 89  1  0
 33 56  1  0
 34 33  1  1
 33 90  1  1
 34 35  2  0
 34 36  1  0
 36 37  1  0
 36 41  1  0
 36 91  1  6
 37 38  2  3
 37 92  1  0
 39 38  1  6
 38 93  1  0
 39 40  1  0
 40 94  1  1
 41 56  1  0
 41 42  1  1
 41 44  1  0
 42 43  1  0
 44 53  1  0
 44 45  1  6
 44 46  1  0
 45 95  1  0
 45 96  1  0
 45 97  1  0
 46 47  2  0
 46 98  1  0
 47 48  1  0
 47 99  1  0
 48 49  2  0
 48 50  1  0
 50 51  1  0
 50 52  1  6
 50 53  1  0
 51100  1  0
 51101  1  0
 51102  1  0
 52103  1  0
 53 54  1  0
 53104  1  6
 54 55  1  0
 54105  1  0
 54106  1  0
 55 56  1  0
 55107  1  0
 55108  1  0
 56 57  1  6
 57109  1  0
 57110  1  0
 57111  1  0
M  END
>  <i_m_ct_stereo_status>  (80) 
1

>  <s_m_source_file>  (80) 
/var/tmp/pbs.5075288.sched01/tmpndvtliwj/216foptgilz.sdf

>  <i_m_source_file_index>  (80) 
17

>  <i_lp_mmshare_version>  (80) 
48012

>  <i_f3d_flags>  (80) 
0

>  <s_epik_input>  (80) 
W0NIM11DKD1PKU9bQ0BIXShbQ0BASF0oW09IXSlbQ0BIXTFbT0hdKVtDQEhdMltDQF0xKFtDSDNdKU9bQ0BIXShPMylbQ0BAXTMoW0NIM10pW0NAQF0oW0NAXTI0NSkoW0NIM10pW0NAQEhdKFtPSF0pW0NIMl1bQ0BIXTRjNmMoW2NIXW9jNltPSF0pW0NAQF03KFtDSDNdKVtDSDJdW0NIMl1bQ0BASF04W0NAQF05KFtDSDNdKVtDQF0oT083KShbQ0BASF0oW1MrXThbTy1dKS9bQ0hdPVtDSF1cNSlbQ0BdMShbQ0gzXSlbQ0BIXShbQ0gyXVtDSDJdOSlbQ0BdKFtDSDNdKShbT0hdKUMoPU8pW0NIXT1bQ0hdMQ==

>  <s_epik_cmdline>  (80) 
J2VwaWtfcHl0aG9uJywgJy1waHQnLCAnMi4wJywgJy1waCcsICc3LjAnLCAnLXRuJywgJzgnLCAnLW1hJywgJzIwMCcsICctaW1hZScsICc8aW5maWxlLm1hZT4nLCAnLW9tYWUnLCAnPG91dGZpbGUubWFlPic=

>  <r_lp_tautomer_probability>  (80) 
1

>  <r_epik_Ionization_Penalty>  (80) 
2.08912e-06

>  <r_epik_Ionization_Penalty_Charging>  (80) 
0

>  <r_epik_Ionization_Penalty_Neutral>  (80) 
2.08912e-06

>  <r_epik_State_Penalty>  (80) 
-0

>  <r_epik_Charging_Adjusted_Penalty>  (80) 
0

>  <i_epik_Tot_Q>  (80) 
0

>  <i_epik_Tot_abs_Q>  (80) 
0

>  <s_epik_Chemistry_Notes>  (80) 
This compound has an ester and may undergo hydrolysis at high or low pH. This compound contains an acetal/aminal-like group ( X-CH(R)-Y where X, Y are N, S, or O) that may be acid/base labile, releasing an aldehyde.

>  <s_lp_Force_Field>  (80) 
OPLS3e

>  <r_lp_Energy>  (80) 
145.477

>  <b_lp_Chiralities_Consistent>  (80) 
1

>  <s_lp_Variant>  (80) 
81:0-4

>  <s_i_glide_gridfile>  (80) 
pfpi4k_grid

>  <i_i_glide_lignum>  (80) 
17

>  <i_i_glide_rotatable_bonds>  (80) 
6

>  <r_i_docking_score>  (80) 
-2.69254

>  <r_i_glide_ligand_efficiency>  (80) 
-0.0472376

>  <r_i_glide_ligand_efficiency_sa>  (80) 
-0.181794

>  <r_i_glide_ligand_efficiency_ln>  (80) 
-0.533912

>  <r_i_glide_gscore>  (80) 
-2.69254

>  <r_i_glide_lipo>  (80) 
-0.054388

>  <r_i_glide_hbond>  (80) 
-0.0708709

>  <r_i_glide_metal>  (80) 
-0

>  <r_i_glide_rewards>  (80) 
-0.022708

>  <r_i_glide_evdw>  (80) 
-37.4581

>  <r_i_glide_ecoul>  (80) 
-4.51025

>  <r_i_glide_erotb>  (80) 
0.0328588

>  <r_i_glide_esite>  (80) 
-0.0279956

>  <r_i_glide_emodel>  (80) 
-47.0612

>  <r_i_glide_energy>  (80) 
-41.9683

>  <r_i_glide_einternal>  (80) 
4.27859

>  <r_i_glide_intrahb_reward>  (80) 
-0

>  <i_i_glide_confnum>  (80) 
5

>  <i_i_glide_posenum>  (80) 
36

>  <r_i_glide_eff_state_penalty>  (80) 
0

>  <ligand_id>  (80) 
81

>  <original_smiles>  (80) 
CC(=O)OC1C(O)C(O)C2(C)OC3OC3(C)C3(C)C(O)CC4c5c(coc5O)C5(C)CCC6[S+]([O-])C(C=CC43C12)C1(OO5)C2(C)C=CC(=O)C(C)(O)C2CCC61C

>  <smiles>  (80) 
[H]OC1([H])C([H])(OC(=O)C([H])([H])[H])C2([H])C(C([H])([H])[H])(OC3([H])OC3(C([H])([H])[H])C3(C([H])([H])[H])C([H])(O[H])C([H])([H])C4([H])C5=C(C([H])([H])OC5=O)C5(C([H])([H])[H])OOC67C([H])(C([H])=C([H])C423)S(=O)C([H])(C([H])([H])C5([H])[H])C6(C([H])([H])[H])C([H])([H])C([H])([H])C2([H])C(O[H])(C([H])([H])[H])C(=O)C([H])=C([H])C27C([H])([H])[H])C1([H])O[H]

$$$$
81:3:2
     RDKit          3D

111120  0  0  1  0  0  0  0  0999 V2000
    3.9343    4.6424    5.2373 C   0  0  0  0  0  0  0  0  0  0  0  0
    4.5888    3.5272    6.0887 C   0  0  0  0  0  0  0  0  0  0  0  0
    5.6976    3.6394    6.5973 O   0  0  0  0  0  0  0  0  0  0  0  0
    3.8506    2.4103    6.2750 O   0  0  0  0  0  0  0  0  0  0  0  0
    2.6392    2.0974    5.5940 C   0  0  2  0  0  0  0  0  0  0  0  0
    1.5443    3.0880    6.0699 C   0  0  1  0  0  0  0  0  0  0  0  0
    0.8841    3.7658    5.0125 O   0  0  0  0  0  0  0  0  0  0  0  0
    0.5928    2.2831    6.9210 C   0  0  1  0  0  0  0  0  0  0  0  0
   -0.7247    2.8054    7.0543 O   0  0  0  0  0  0  0  0  0  0  0  0
    0.6535    0.8123    6.4701 C   0  0  1  0  0  0  0  0  0  0  0  0
    0.2332   -0.0355    7.6833 C   0  0  0  0  0  0  0  0  0  0  0  0
   -0.2937    0.4784    5.4814 O   0  0  0  0  0  0  0  0  0  0  0  0
   -0.2920    1.2092    4.2901 C   0  0  2  0  0  0  0  0  0  0  0  0
   -0.5326    0.5316    3.0753 O   0  0  0  0  0  0  0  0  0  0  0  0
    0.8299    0.8927    3.3090 C   0  0  1  0  0  0  0  0  0  0  0  0
    1.2553    2.0345    2.3716 C   0  0  0  0  0  0  0  0  0  0  0  0
    1.8046   -0.3648    3.4422 C   0  0  1  0  0  0  0  0  0  0  0  0
    1.0322   -1.5384    2.7919 C   0  0  0  0  0  0  0  0  0  0  0  0
    3.1282   -0.3825    2.5709 C   0  0  1  0  0  0  0  0  0  0  0  0
    3.2333    0.3442    1.3677 O   0  0  0  0  0  0  0  0  0  0  0  0
    4.2912   -0.1734    3.4952 C   0  0  0  0  0  0  0  0  0  0  0  0
    3.8846   -0.9734    4.7440 C   0  0  1  0  0  0  0  0  0  0  0  0
    4.8774   -0.9793    5.9464 C   0  0  0  0  0  0  0  0  0  0  0  0
    5.1471   -1.9095    6.9126 C   0  0  0  0  0  0  0  0  0  0  0  0
    6.2361   -1.3691    7.8103 C   0  0  0  0  0  0  0  0  0  0  0  0
    6.6382   -0.1796    7.1951 O   0  0  0  0  0  0  0  0  0  0  0  0
    5.9431    0.0449    6.0797 C   0  0  0  0  0  0  0  0  0  0  0  0
    6.2362    0.9363    5.2764 O   0  0  0  0  0  0  0  0  0  0  0  0
    4.6215   -3.3371    7.2004 C   0  0  1  0  0  0  0  0  0  0  0  0
    5.8291   -4.3139    7.2195 C   0  0  0  0  0  0  0  0  0  0  0  0
    3.9238   -3.3372    8.5931 C   0  0  0  0  0  0  0  0  0  0  0  0
    3.3098   -4.6482    9.1867 C   0  0  0  0  0  0  0  0  0  0  0  0
    1.8824   -5.1374    8.7804 C   0  0  1  0  0  0  0  0  0  0  0  0
    0.9395   -3.6474    8.2113 S   0  0  0  0  0  0  0  0  0  0  0  0
   -0.5093   -3.7440    8.6869 O   0  0  0  0  0  0  0  0  0  0  0  0
    0.9886   -4.1256    6.4215 C   0  0  1  0  0  0  0  0  0  0  0  0
    1.2411   -2.9836    5.4485 C   0  0  0  0  0  0  0  0  0  0  0  0
    1.8589   -1.8248    5.7622 C   0  0  0  0  0  0  0  0  0  0  0  0
    2.3631   -0.6144    4.9582 C   0  0  2  0  0  0  0  0  0  0  0  0
    2.1217    0.6297    5.9496 C   0  0  1  0  0  0  0  0  0  0  0  0
    1.9167   -5.4022    6.3026 C   0  0  2  0  0  0  0  0  0  0  0  0
    3.3421   -5.1725    6.4085 O   0  0  0  0  0  0  0  0  0  0  0  0
    3.7444   -3.7669    6.1662 O   0  0  0  0  0  0  0  0  0  0  0  0
    1.7388   -6.2824    4.9806 C   0  0  1  0  0  0  0  0  0  0  0  0
    0.2731   -6.2548    4.4731 C   0  0  0  0  0  0  0  0  0  0  0  0
    2.5870   -5.6496    3.8597 C   0  0  0  0  0  0  0  0  0  0  0  0
    3.5381   -6.2534    3.1130 C   0  0  0  0  0  0  0  0  0  0  0  0
    3.8173   -7.6797    3.2693 C   0  0  0  0  0  0  0  0  0  0  0  0
    4.8567   -8.2019    2.8552 O   0  0  0  0  0  0  0  0  0  0  0  0
    2.7068   -8.5258    3.9083 C   0  0  1  0  0  0  0  0  0  0  0  0
    1.6562   -8.8655    2.8222 C   0  0  0  0  0  0  0  0  0  0  0  0
    3.2154   -9.8138    4.2532 O   0  0  0  0  0  0  0  0  0  0  0  0
    2.1472   -7.8095    5.1921 C   0  0  1  0  0  0  0  0  0  0  0  0
    3.1130   -7.9942    6.4022 C   0  0  0  0  0  0  0  0  0  0  0  0
    2.6219   -7.4198    7.7461 C   0  0  0  0  0  0  0  0  0  0  0  0
    1.6846   -6.1866    7.6364 C   0  0  1  0  0  0  0  0  0  0  0  0
    0.2310   -6.7504    7.7833 C   0  0  0  0  0  0  0  0  0  0  0  0
    2.8806    4.4714    4.9894 H   0  0  0  0  0  0  0  0  0  0  0  0
    4.5675    4.8519    4.3539 H   0  0  0  0  0  0  0  0  0  0  0  0
    4.0467    5.5769    5.7856 H   0  0  0  0  0  0  0  0  0  0  0  0
    2.8292    2.1798    4.5350 H   0  0  0  0  0  0  0  0  0  0  0  0
    1.9897    3.9298    6.6151 H   0  0  0  0  0  0  0  0  0  0  0  0
    0.8664    3.1974    4.2697 H   0  0  0  0  0  0  0  0  0  0  0  0
    1.0079    2.3133    7.9199 H   0  0  0  0  0  0  0  0  0  0  0  0
   -1.0451    2.9831    6.1801 H   0  0  0  0  0  0  0  0  0  0  0  0
    1.0291   -0.0590    8.4328 H   0  0  0  0  0  0  0  0  0  0  0  0
   -0.0361   -1.0489    7.4063 H   0  0  0  0  0  0  0  0  0  0  0  0
   -0.6374    0.4039    8.1787 H   0  0  0  0  0  0  0  0  0  0  0  0
   -0.8448    2.1389    4.2899 H   0  0  0  0  0  0  0  0  0  0  0  0
    2.2727    2.3848    2.5685 H   0  0  0  0  0  0  0  0  0  0  0  0
    0.5955    2.8754    2.4892 H   0  0  0  0  0  0  0  0  0  0  0  0
    1.1735    1.7403    1.3266 H   0  0  0  0  0  0  0  0  0  0  0  0
    1.6095   -2.4616    2.7389 H   0  0  0  0  0  0  0  0  0  0  0  0
    0.7804   -1.2934    1.7545 H   0  0  0  0  0  0  0  0  0  0  0  0
    0.0927   -1.7524    3.2823 H   0  0  0  0  0  0  0  0  0  0  0  0
    3.3036   -1.4025    2.1940 H   0  0  0  0  0  0  0  0  0  0  0  0
    2.5242    0.0825    0.7891 H   0  0  0  0  0  0  0  0  0  0  0  0
    5.2259   -0.5374    3.0531 H   0  0  0  0  0  0  0  0  0  0  0  0
    4.3963    0.8934    3.6882 H   0  0  0  0  0  0  0  0  0  0  0  0
    3.9052   -2.0091    4.3923 H   0  0  0  0  0  0  0  0  0  0  0  0
    7.0937   -2.0443    7.8846 H   0  0  0  0  0  0  0  0  0  0  0  0
    5.8489   -1.1865    8.8076 H   0  0  0  0  0  0  0  0  0  0  0  0
    6.5451   -4.0757    8.0107 H   0  0  0  0  0  0  0  0  0  0  0  0
    6.3815   -4.3010    6.2772 H   0  0  0  0  0  0  0  0  0  0  0  0
    5.5366   -5.3441    7.4043 H   0  0  0  0  0  0  0  0  0  0  0  0
    4.6970   -3.0702    9.3145 H   0  0  0  0  0  0  0  0  0  0  0  0
    3.2430   -2.4915    8.6606 H   0  0  0  0  0  0  0  0  0  0  0  0
    4.0437   -5.4412    9.1785 H   0  0  0  0  0  0  0  0  0  0  0  0
    3.2178   -4.4299   10.2496 H   0  0  0  0  0  0  0  0  0  0  0  0
    1.4108   -5.5208    9.6900 H   0  0  0  0  0  0  0  0  0  0  0  0
   -0.0423   -4.3999    6.2281 H   0  0  0  0  0  0  0  0  0  0  0  0
    0.8999   -3.2471    4.4706 H   0  0  0  0  0  0  0  0  0  0  0  0
    2.1759   -1.7470    6.7849 H   0  0  0  0  0  0  0  0  0  0  0  0
    2.6686    0.3883    6.8614 H   0  0  0  0  0  0  0  0  0  0  0  0
   -0.4536   -6.5992    5.2128 H   0  0  0  0  0  0  0  0  0  0  0  0
    0.1187   -6.8739    3.5958 H   0  0  0  0  0  0  0  0  0  0  0  0
   -0.0262   -5.2551    4.1650 H   0  0  0  0  0  0  0  0  0  0  0  0
    2.3834   -4.6031    3.6764 H   0  0  0  0  0  0  0  0  0  0  0  0
    4.0739   -5.7033    2.3417 H   0  0  0  0  0  0  0  0  0  0  0  0
    1.3489   -7.9883    2.2600 H   0  0  0  0  0  0  0  0  0  0  0  0
    0.7776   -9.3318    3.2736 H   0  0  0  0  0  0  0  0  0  0  0  0
    2.0514   -9.5693    2.0860 H   0  0  0  0  0  0  0  0  0  0  0  0
    3.4566  -10.2627    3.4484 H   0  0  0  0  0  0  0  0  0  0  0  0
    1.2464   -8.3873    5.4503 H   0  0  0  0  0  0  0  0  0  0  0  0
    3.3113   -9.0582    6.5767 H   0  0  0  0  0  0  0  0  0  0  0  0
    4.0698   -7.5523    6.1596 H   0  0  0  0  0  0  0  0  0  0  0  0
    2.1112   -8.2036    8.2775 H   0  0  0  0  0  0  0  0  0  0  0  0
    3.5122   -7.2177    8.3595 H   0  0  0  0  0  0  0  0  0  0  0  0
    0.0403   -7.5946    7.1148 H   0  0  0  0  0  0  0  0  0  0  0  0
   -0.5596   -6.0260    7.6104 H   0  0  0  0  0  0  0  0  0  0  0  0
    0.0591   -7.1407    8.7884 H   0  0  0  0  0  0  0  0  0  0  0  0
  1  2  1  0
  1 58  1  0
  1 59  1  0
  1 60  1  0
  2  3  2  0
  2  4  1  0
  4  5  1  0
  5 40  1  0
  5  6  1  0
  5 61  1  6
  6  7  1  0
  6  8  1  0
  6 62  1  1
  7 63  1  0
  8  9  1  0
  8 10  1  0
  8 64  1  1
  9 65  1  0
 10 40  1  0
 10 11  1  1
 10 12  1  0
 11 66  1  0
 11 67  1  0
 11 68  1  0
 12 13  1  0
 13 15  1  0
 13 14  1  0
 13 69  1  1
 14 15  1  0
 15 16  1  6
 15 17  1  0
 16 70  1  0
 16 71  1  0
 16 72  1  0
 17 39  1  0
 17 18  1  6
 17 19  1  0
 18 73  1  0
 18 74  1  0
 18 75  1  0
 19 20  1  0
 19 21  1  0
 19 76  1  6
 20 77  1  0
 21 22  1  0
 21 78  1  0
 21 79  1  0
 22 39  1  0
 22 80  1  6
 22 23  1  0
 23 24  2  0
 23 27  1  0
 24 29  1  0
 24 25  1  0
 25 26  1  0
 25 81  1  0
 25 82  1  0
 26 27  1  0
 27 28  2  0
 29 43  1  0
 29 30  1  1
 29 31  1  0
 30 83  1  0
 30 84  1  0
 30 85  1  0
 31 32  1  0
 31 86  1  0
 31 87  1  0
 32 33  1  0
 32 88  1  0
 32 89  1  0
 33 56  1  0
 34 33  1  1
 33 90  1  1
 34 35  2  0
 34 36  1  0
 36 37  1  0
 36 41  1  0
 36 91  1  6
 37 38  2  3
 37 92  1  0
 39 38  1  1
 38 93  1  0
 39 40  1  0
 40 94  1  1
 41 56  1  0
 41 42  1  1
 41 44  1  0
 42 43  1  0
 44 53  1  0
 44 45  1  6
 44 46  1  0
 45 95  1  0
 45 96  1  0
 45 97  1  0
 46 47  2  0
 46 98  1  0
 47 48  1  0
 47 99  1  0
 48 49  2  0
 48 50  1  0
 50 51  1  0
 50 52  1  1
 50 53  1  0
 51100  1  0
 51101  1  0
 51102  1  0
 52103  1  0
 53 54  1  0
 53104  1  1
 54 55  1  0
 54105  1  0
 54106  1  0
 55 56  1  0
 55107  1  0
 55108  1  0
 56 57  1  6
 57109  1  0
 57110  1  0
 57111  1  0
M  END
>  <i_m_ct_stereo_status>  (81) 
1

>  <s_m_source_file>  (81) 
/var/tmp/pbs.5075288.sched01/tmpndvtliwj/216foptgilz.sdf

>  <i_m_source_file_index>  (81) 
17

>  <i_lp_mmshare_version>  (81) 
48012

>  <i_f3d_flags>  (81) 
0

>  <s_epik_input>  (81) 
W0NIM11DKD1PKU9bQ0BIXShbQ0BASF0oW09IXSlbQ0BIXTFbT0hdKVtDQEhdMltDQF0xKFtDSDNdKU9bQ0BIXShPMylbQ0BAXTMoW0NIM10pW0NAQF0oW0NAXTI0NSkoW0NIM10pW0NAQEhdKFtPSF0pW0NIMl1bQ0BIXTRjNmMoW2NIXW9jNltPSF0pW0NAQF03KFtDSDNdKVtDSDJdW0NIMl1bQ0BASF04W0NAQF05KFtDSDNdKVtDQF0oT083KShbQ0BASF0oW1MrXThbTy1dKS9bQ0hdPVtDSF1cNSlbQ0BdMShbQ0gzXSlbQ0BIXShbQ0gyXVtDSDJdOSlbQ0BdKFtDSDNdKShbT0hdKUMoPU8pW0NIXT1bQ0hdMQ==

>  <s_epik_cmdline>  (81) 
J2VwaWtfcHl0aG9uJywgJy1waHQnLCAnMi4wJywgJy1waCcsICc3LjAnLCAnLXRuJywgJzgnLCAnLW1hJywgJzIwMCcsICctaW1hZScsICc8aW5maWxlLm1hZT4nLCAnLW9tYWUnLCAnPG91dGZpbGUubWFlPic=

>  <r_lp_tautomer_probability>  (81) 
1

>  <r_epik_Ionization_Penalty>  (81) 
2.08912e-06

>  <r_epik_Ionization_Penalty_Charging>  (81) 
0

>  <r_epik_Ionization_Penalty_Neutral>  (81) 
2.08912e-06

>  <r_epik_State_Penalty>  (81) 
-0

>  <r_epik_Charging_Adjusted_Penalty>  (81) 
0

>  <i_epik_Tot_Q>  (81) 
0

>  <i_epik_Tot_abs_Q>  (81) 
0

>  <s_epik_Chemistry_Notes>  (81) 
This compound has an ester and may undergo hydrolysis at high or low pH. This compound contains an acetal/aminal-like group ( X-CH(R)-Y where X, Y are N, S, or O) that may be acid/base labile, releasing an aldehyde.

>  <s_lp_Force_Field>  (81) 
OPLS3e

>  <r_lp_Energy>  (81) 
145.477

>  <b_lp_Chiralities_Consistent>  (81) 
1

>  <s_lp_Variant>  (81) 
81:0-4

>  <s_i_glide_gridfile>  (81) 
pfpi4k_grid

>  <i_i_glide_lignum>  (81) 
17

>  <i_i_glide_rotatable_bonds>  (81) 
6

>  <r_i_docking_score>  (81) 
-2.50078

>  <r_i_glide_ligand_efficiency>  (81) 
-0.0438733

>  <r_i_glide_ligand_efficiency_sa>  (81) 
-0.168846

>  <r_i_glide_ligand_efficiency_ln>  (81) 
-0.495886

>  <r_i_glide_gscore>  (81) 
-2.50078

>  <r_i_glide_lipo>  (81) 
-0.0547255

>  <r_i_glide_hbond>  (81) 
-0.0258817

>  <r_i_glide_metal>  (81) 
-0

>  <r_i_glide_rewards>  (81) 
-0.0830566

>  <r_i_glide_evdw>  (81) 
-35.1306

>  <r_i_glide_ecoul>  (81) 
-3.94317

>  <r_i_glide_erotb>  (81) 
0.0328588

>  <r_i_glide_esite>  (81) 
-0.0219652

>  <r_i_glide_emodel>  (81) 
-39.7521

>  <r_i_glide_energy>  (81) 
-39.0738

>  <r_i_glide_einternal>  (81) 
8.42324

>  <r_i_glide_intrahb_reward>  (81) 
-0

>  <i_i_glide_confnum>  (81) 
6

>  <i_i_glide_posenum>  (81) 
23

>  <r_i_glide_eff_state_penalty>  (81) 
0

>  <ligand_id>  (81) 
81

>  <original_smiles>  (81) 
CC(=O)OC1C(O)C(O)C2(C)OC3OC3(C)C3(C)C(O)CC4c5c(coc5O)C5(C)CCC6[S+]([O-])C(C=CC43C12)C1(OO5)C2(C)C=CC(=O)C(C)(O)C2CCC61C

>  <smiles>  (81) 
[H]OC1([H])C([H])(OC(=O)C([H])([H])[H])C2([H])C(C([H])([H])[H])(OC3([H])OC3(C([H])([H])[H])C3(C([H])([H])[H])C([H])(O[H])C([H])([H])C4([H])C5=C(C([H])([H])OC5=O)C5(C([H])([H])[H])OOC67C([H])(C([H])=C([H])C423)S(=O)C([H])(C([H])([H])C5([H])[H])C6(C([H])([H])[H])C([H])([H])C([H])([H])C2([H])C(O[H])(C([H])([H])[H])C(=O)C([H])=C([H])C27C([H])([H])[H])C1([H])O[H]

$$$$
86:0:0
     RDKit          3D

120129  0  0  1  0  0  0  0  0999 V2000
   -0.0277   -6.0613   11.1125 C   0  0  0  0  0  0  0  0  0  0  0  0
    0.0780   -5.7309    9.7411 O   0  0  0  0  0  0  0  0  0  0  0  0
    1.2898   -5.5032    9.2076 C   0  0  0  0  0  0  0  0  0  0  0  0
    2.3672   -5.6256    9.8034 O   0  0  0  0  0  0  0  0  0  0  0  0
    1.2066   -5.0747    7.7341 C   0  0  2  0  0  0  0  0  0  0  0  0
    1.7575   -6.3049    6.9654 C   0  0  0  0  0  0  0  0  0  0  0  0
    1.5212   -6.3906    5.4520 C   0  0  1  0  0  0  0  0  0  0  0  0
    0.1175   -6.5335    5.2013 O   0  0  0  0  0  0  0  0  0  0  0  0
   -0.4533   -7.5424    4.4893 C   0  0  0  0  0  0  0  0  0  0  0  0
    0.4068   -8.7881    4.2459 C   0  0  0  0  0  0  0  0  0  0  0  0
   -1.6004   -7.4746    4.0801 O   0  0  0  0  0  0  0  0  0  0  0  0
    2.1236   -5.2281    4.6131 C   0  0  1  0  0  0  0  0  0  0  0  0
    3.6582   -5.0771    4.8312 C   0  0  0  0  0  0  0  0  0  0  0  0
    4.3664   -3.9598    4.0446 C   0  0  0  0  0  0  0  0  0  0  0  0
    3.9369   -3.8924    2.6002 C   0  0  2  0  0  0  0  0  0  0  0  0
    5.0800   -3.5812    1.6787 C   0  0  0  0  0  0  0  0  0  0  0  0
    2.6860   -3.1903    2.3592 O   0  0  0  0  0  0  0  0  0  0  0  0
    2.6801   -4.6109    2.0980 C   0  0  1  0  0  0  0  0  0  0  0  0
    2.5449   -5.0108    0.6338 C   0  0  0  0  0  0  0  0  0  0  0  0
    1.8977   -5.4909    3.0655 C   0  0  1  0  0  0  0  0  0  0  0  0
    2.3065   -6.7970    2.7645 O   0  0  0  0  0  0  0  0  0  0  0  0
    1.2707   -4.1228    4.9703 O   0  0  0  0  0  0  0  0  0  0  0  0
    1.6043   -3.1270    5.9254 C   0  0  2  0  0  0  0  0  0  0  0  0
    1.9338   -3.7119    7.3741 C   0  0  1  0  0  0  0  0  0  0  0  0
    2.0947   -2.5815    8.4452 C   0  0  1  0  0  0  0  0  0  0  0  0
    1.1526   -2.5350    9.6472 C   0  0  0  0  0  0  0  0  0  0  0  0
    3.4082   -2.2013    8.9140 O   0  0  0  0  0  0  0  0  0  0  0  0
    2.8639   -1.4209    7.8832 C   0  0  2  0  0  0  0  0  0  0  0  0
    2.4244    0.0310    8.0700 C   0  0  1  0  0  0  0  0  0  0  0  0
    3.5596    1.0353    7.8434 C   0  0  0  0  0  0  0  0  0  0  0  0
    4.4935    0.8329    6.6522 C   0  0  0  0  0  0  0  0  0  0  0  0
    3.9268    0.9660    5.2232 C   0  0  2  0  0  0  0  0  0  0  0  0
    5.0622    0.3888    4.3360 C   0  0  0  0  0  0  0  0  0  0  0  0
    3.6117    2.4194    4.7117 C   0  0  1  0  0  0  0  0  0  0  0  0
    2.6791    2.6089    3.5086 C   0  0  0  0  0  0  0  0  0  0  0  0
    1.1736    2.6109    3.6992 C   0  0  0  0  0  0  0  0  0  0  0  0
    0.3718    2.7339    4.7698 C   0  0  0  0  0  0  0  0  0  0  0  0
   -1.0893    3.0910    4.5994 C   0  0  1  0  0  0  0  0  0  0  0  0
   -1.8883    1.9581    4.3537 O   0  0  0  0  0  0  0  0  0  0  0  0
   -0.9253    3.6911    5.9957 C   0  0  1  0  0  0  0  0  0  0  0  0
   -2.0225    3.5979    6.8810 O   0  0  0  0  0  0  0  0  0  0  0  0
    0.4728    3.0366    6.3067 C   0  0  2  0  0  0  0  0  0  0  0  0
    1.4132    4.2371    6.5852 C   0  0  0  0  0  0  0  0  0  0  0  0
    1.2486    5.0217    7.5170 O   0  0  0  0  0  0  0  0  0  0  0  0
    2.5354    4.6036    5.6334 C   0  0  0  0  0  0  0  0  0  0  0  0
    3.7376    3.6564    5.6263 C   0  0  0  0  0  0  0  0  0  0  0  0
    0.4633    1.8649    7.4704 C   0  0  1  0  0  0  0  0  0  0  0  0
    0.7638    2.5661    8.8495 C   0  0  0  0  0  0  0  0  0  0  0  0
   -0.8849    1.0970    7.7325 C   0  0  1  0  0  0  0  0  0  0  0  0
   -1.7946    0.7050    6.7290 O   0  0  0  0  0  0  0  0  0  0  0  0
   -0.0762   -0.0268    8.2879 C   0  0  0  0  0  0  0  0  0  0  0  0
    1.0880    0.3514    7.3356 C   0  0  2  0  0  0  0  0  0  0  0  0
    1.0270   -0.4165    5.9228 C   0  0  1  0  0  0  0  0  0  0  0  0
    2.5757   -0.2766    4.8403 S   0  0  0  0  0  0  0  0  0  0  0  0
    2.1937   -0.1966    3.3669 O   0  0  0  0  0  0  0  0  0  0  0  0
    0.5115   -1.9719    5.7240 C   0  0  0  0  0  0  0  0  0  0  0  0
   -0.0004   -1.9894    4.2436 C   0  0  0  0  0  0  0  0  0  0  0  0
   -0.7879   -2.4879    6.4174 C   0  0  0  0  0  0  0  0  0  0  0  0
   -1.0791   -6.1978   11.3589 H   0  0  0  0  0  0  0  0  0  0  0  0
    0.3719   -5.2557   11.7303 H   0  0  0  0  0  0  0  0  0  0  0  0
    0.5098   -6.9858   11.3278 H   0  0  0  0  0  0  0  0  0  0  0  0
    0.1477   -4.9790    7.4963 H   0  0  0  0  0  0  0  0  0  0  0  0
    2.8227   -6.4063    7.1625 H   0  0  0  0  0  0  0  0  0  0  0  0
    1.3230   -7.2109    7.3866 H   0  0  0  0  0  0  0  0  0  0  0  0
    2.0555   -7.2911    5.1543 H   0  0  0  0  0  0  0  0  0  0  0  0
    1.2780   -8.5691    3.6514 H   0  0  0  0  0  0  0  0  0  0  0  0
   -0.1563   -9.5674    3.7387 H   0  0  0  0  0  0  0  0  0  0  0  0
    0.7276   -9.2230    5.1886 H   0  0  0  0  0  0  0  0  0  0  0  0
    3.9791   -5.0394    5.8647 H   0  0  0  0  0  0  0  0  0  0  0  0
    4.0728   -6.0242    4.4620 H   0  0  0  0  0  0  0  0  0  0  0  0
    4.2105   -2.9813    4.5029 H   0  0  0  0  0  0  0  0  0  0  0  0
    5.4412   -4.1824    4.0855 H   0  0  0  0  0  0  0  0  0  0  0  0
    5.7588   -4.4284    1.7250 H   0  0  0  0  0  0  0  0  0  0  0  0
    5.5980   -2.6954    2.0306 H   0  0  0  0  0  0  0  0  0  0  0  0
    4.7621   -3.4444    0.6573 H   0  0  0  0  0  0  0  0  0  0  0  0
    3.2374   -5.8281    0.4403 H   0  0  0  0  0  0  0  0  0  0  0  0
    2.8090   -4.2149   -0.0425 H   0  0  0  0  0  0  0  0  0  0  0  0
    1.5440   -5.3687    0.3885 H   0  0  0  0  0  0  0  0  0  0  0  0
    0.8405   -5.4323    2.8035 H   0  0  0  0  0  0  0  0  0  0  0  0
    2.1740   -6.9279    1.8125 H   0  0  0  0  0  0  0  0  0  0  0  0
    2.5221   -2.7348    5.5500 H   0  0  0  0  0  0  0  0  0  0  0  0
    2.9621   -4.0329    7.3026 H   0  0  0  0  0  0  0  0  0  0  0  0
    0.1223   -2.7659    9.3990 H   0  0  0  0  0  0  0  0  0  0  0  0
    1.2081   -1.5559   10.1201 H   0  0  0  0  0  0  0  0  0  0  0  0
    1.4927   -3.2176   10.4271 H   0  0  0  0  0  0  0  0  0  0  0  0
    3.4536   -1.5797    6.9907 H   0  0  0  0  0  0  0  0  0  0  0  0
    2.2473    0.1221    9.1401 H   0  0  0  0  0  0  0  0  0  0  0  0
    3.1606    2.0372    7.8206 H   0  0  0  0  0  0  0  0  0  0  0  0
    4.1906    1.0128    8.7332 H   0  0  0  0  0  0  0  0  0  0  0  0
    5.3072    1.5521    6.7574 H   0  0  0  0  0  0  0  0  0  0  0  0
    4.9979   -0.1245    6.7699 H   0  0  0  0  0  0  0  0  0  0  0  0
    6.0058    0.9178    4.4641 H   0  0  0  0  0  0  0  0  0  0  0  0
    4.8187    0.4234    3.2757 H   0  0  0  0  0  0  0  0  0  0  0  0
    5.2630   -0.6545    4.5714 H   0  0  0  0  0  0  0  0  0  0  0  0
    4.5251    2.6062    4.1604 H   0  0  0  0  0  0  0  0  0  0  0  0
    2.8844    3.5658    3.0346 H   0  0  0  0  0  0  0  0  0  0  0  0
    2.9179    1.9048    2.7210 H   0  0  0  0  0  0  0  0  0  0  0  0
    0.6445    2.5751    2.7531 H   0  0  0  0  0  0  0  0  0  0  0  0
   -1.3330    3.8676    3.8683 H   0  0  0  0  0  0  0  0  0  0  0  0
   -2.1156    1.9617    3.4278 H   0  0  0  0  0  0  0  0  0  0  0  0
   -0.8159    4.7693    5.8197 H   0  0  0  0  0  0  0  0  0  0  0  0
   -2.1899    2.6635    6.9998 H   0  0  0  0  0  0  0  0  0  0  0  0
    2.1484    4.8237    4.6401 H   0  0  0  0  0  0  0  0  0  0  0  0
    2.9035    5.5628    5.9954 H   0  0  0  0  0  0  0  0  0  0  0  0
    4.0630    3.4382    6.6349 H   0  0  0  0  0  0  0  0  0  0  0  0
    4.5595    4.2644    5.2463 H   0  0  0  0  0  0  0  0  0  0  0  0
    0.7287    1.9396    9.7319 H   0  0  0  0  0  0  0  0  0  0  0  0
    0.0248    3.3421    9.0473 H   0  0  0  0  0  0  0  0  0  0  0  0
    1.7418    3.0247    8.9208 H   0  0  0  0  0  0  0  0  0  0  0  0
   -1.4668    1.5448    8.5401 H   0  0  0  0  0  0  0  0  0  0  0  0
   -1.3455    0.7316    5.8872 H   0  0  0  0  0  0  0  0  0  0  0  0
    0.0742    0.0929    9.3588 H   0  0  0  0  0  0  0  0  0  0  0  0
   -0.5222   -0.9753    8.1829 H   0  0  0  0  0  0  0  0  0  0  0  0
    0.3198    0.1744    5.3527 H   0  0  0  0  0  0  0  0  0  0  0  0
   -0.6750   -1.1646    4.0169 H   0  0  0  0  0  0  0  0  0  0  0  0
   -0.5618   -2.8863    4.0039 H   0  0  0  0  0  0  0  0  0  0  0  0
    0.7957   -1.9844    3.5085 H   0  0  0  0  0  0  0  0  0  0  0  0
   -1.6021   -1.7677    6.3784 H   0  0  0  0  0  0  0  0  0  0  0  0
   -0.6202   -2.8270    7.4279 H   0  0  0  0  0  0  0  0  0  0  0  0
   -1.1599   -3.3979    5.9492 H   0  0  0  0  0  0  0  0  0  0  0  0
  1  2  1  0
  1 59  1  0
  1 60  1  0
  1 61  1  0
  2  3  1  0
  3  4  2  0
  3  5  1  0
  5 24  1  0
  5  6  1  0
  5 62  1  6
  6  7  1  0
  6 63  1  0
  6 64  1  0
  7  8  1  0
  7 12  1  0
  7 65  1  6
  8  9  1  0
  9 10  1  0
  9 11  2  0
 10 66  1  0
 10 67  1  0
 10 68  1  0
 12 20  1  0
 12 13  1  0
 12 22  1  1
 13 14  1  0
 13 69  1  0
 13 70  1  0
 14 15  1  0
 14 71  1  0
 14 72  1  0
 15 18  1  0
 15 16  1  6
 15 17  1  0
 16 73  1  0
 16 74  1  0
 16 75  1  0
 17 18  1  0
 18 19  1  6
 18 20  1  0
 19 76  1  0
 19 77  1  0
 19 78  1  0
 20 21  1  0
 20 79  1  6
 21 80  1  0
 22 23  1  0
 23 56  1  0
 23 24  1  0
 23 81  1  6
 24 25  1  0
 24 82  1  6
 25 28  1  0
 25 26  1  1
 25 27  1  0
 26 83  1  0
 26 84  1  0
 26 85  1  0
 27 28  1  0
 28 29  1  0
 28 86  1  6
 29 52  1  0
 29 30  1  0
 29 87  1  1
 30 31  1  0
 30 88  1  0
 30 89  1  0
 31 32  1  0
 31 90  1  0
 31 91  1  0
 54 32  1  1
 32 33  1  6
 32 34  1  0
 33 92  1  0
 33 93  1  0
 33 94  1  0
 34 46  1  0
 34 35  1  0
 34 95  1  6
 35 36  1  0
 35 96  1  0
 35 97  1  0
 36 37  2  3
 36 98  1  0
 37 42  1  0
 37 38  1  0
 38 39  1  0
 38 40  1  0
 38 99  1  6
 39100  1  0
 40 41  1  0
 40 42  1  0
 40101  1  6
 41102  1  0
 42 43  1  6
 42 47  1  0
 43 44  2  0
 43 45  1  0
 45 46  1  0
 45103  1  0
 45104  1  0
 46105  1  0
 46106  1  0
 47 52  1  0
 47 48  1  1
 47 49  1  0
 48107  1  0
 48108  1  0
 48109  1  0
 49 50  1  0
 49 51  1  0
 49110  1  1
 50111  1  0
 52 51  1  1
 51112  1  0
 51113  1  0
 52 53  1  0
 53 54  1  0
 53 56  1  0
 53114  1  6
 54 55  2  0
 56 57  1  0
 56 58  1  0
 57115  1  0
 57116  1  0
 57117  1  0
 58118  1  0
 58119  1  0
 58120  1  0
M  END
>  <i_m_ct_stereo_status>  (82) 
1

>  <s_m_source_file>  (82) 
/var/tmp/pbs.5075288.sched01/tmpndvtliwj/216foptgilz.sdf

>  <i_m_source_file_index>  (82) 
22

>  <i_lp_mmshare_version>  (82) 
48012

>  <i_f3d_flags>  (82) 
0

>  <s_epik_input>  (82) 
W09IXVtDQEBIXTFbQ0BdKE8yKShbQ0gzXSlbQ0BdMihbQ0gzXSlbQ0gyXVtDSDJdW0NAXTEzW0NASF0oT0MoPU8pW0NIM10pW0NIMl1bQ0BASF0oQyg9TylPW0NIM10pW0NASF00W0NAQEhdKE8zKUMoW0NIM10pKFtDSDNdKVtDQEhdNVtDQEBdNjdbQ0BASF0oW0NAQEhdOFtDQEBdNChPOClbQ0gzXSlbQ0gyXVtDSDJdW0NAQF0oW0NIM10pKFtTK101W08tXSlbQ0BASF05W0NIMl0vW0NIXT1DLzFbQ0BdKFtDQEhdKFtPSF0pW0NAQEhdMVtPSF0pKEMoPU8pW0NIMl1bQ0gyXTkpW0NAQF02KFtDSDNdKVtDQEBIXShbT0hdKVtDSDJdNw==

>  <s_epik_cmdline>  (82) 
J2VwaWtfcHl0aG9uJywgJy1waHQnLCAnMi4wJywgJy1waCcsICc3LjAnLCAnLXRuJywgJzgnLCAnLW1hJywgJzIwMCcsICctaW1hZScsICc8aW5maWxlLm1hZT4nLCAnLW9tYWUnLCAnPG91dGZpbGUubWFlPic=

>  <r_lp_tautomer_probability>  (82) 
1

>  <r_epik_Ionization_Penalty>  (82) 
1.69518e-06

>  <r_epik_Ionization_Penalty_Charging>  (82) 
0

>  <r_epik_Ionization_Penalty_Neutral>  (82) 
1.69518e-06

>  <r_epik_State_Penalty>  (82) 
-0

>  <r_epik_Charging_Adjusted_Penalty>  (82) 
0

>  <i_epik_Tot_Q>  (82) 
0

>  <i_epik_Tot_abs_Q>  (82) 
2

>  <s_epik_Chemistry_Notes>  (82) 
This compound has an ester and may undergo hydrolysis at high or low pH.

>  <s_lp_Force_Field>  (82) 
OPLS3e

>  <r_lp_Energy>  (82) 
211.532

>  <b_lp_Chiralities_Consistent>  (82) 
1

>  <s_lp_Variant>  (82) 
86:0-1

>  <s_i_glide_gridfile>  (82) 
pfpi4k_grid

>  <i_i_glide_lignum>  (82) 
22

>  <i_i_glide_rotatable_bonds>  (82) 
8

>  <r_i_docking_score>  (82) 
-2.74669

>  <r_i_glide_ligand_efficiency>  (82) 
-0.0473568

>  <r_i_glide_ligand_efficiency_sa>  (82) 
-0.183312

>  <r_i_glide_ligand_efficiency_ln>  (82) 
-0.542777

>  <r_i_glide_gscore>  (82) 
-2.74669

>  <r_i_glide_lipo>  (82) 
-0.161227

>  <r_i_glide_hbond>  (82) 
-0.097246

>  <r_i_glide_metal>  (82) 
-0

>  <r_i_glide_rewards>  (82) 
-0.5

>  <r_i_glide_evdw>  (82) 
-30.8859

>  <r_i_glide_ecoul>  (82) 
-3.10615

>  <r_i_glide_erotb>  (82) 
0.0633322

>  <r_i_glide_esite>  (82) 
-0.0413338

>  <r_i_glide_emodel>  (82) 
-39.5478

>  <r_i_glide_energy>  (82) 
-33.9921

>  <r_i_glide_einternal>  (82) 
9.77757

>  <r_i_glide_intrahb_reward>  (82) 
-0.5

>  <i_i_glide_confnum>  (82) 
2

>  <i_i_glide_posenum>  (82) 
22

>  <r_i_glide_eff_state_penalty>  (82) 
0

>  <ligand_id>  (82) 
86

>  <original_smiles>  (82) 
COC(=O)C1CC(OC(C)=O)C2(CCC3(C)OC3(C)C2O)OC2C1C1(C)OC1C1CCC3(C)C4CC=C5C(O)C(O)C5(C(=O)CC4)C4(C)C(O)CC14C([S+]3[O-])C2(C)C

>  <smiles>  (82) 
[H]OC1([H])C2=C([H])C([H])([H])C3([H])C([H])([H])C([H])([H])C(=O)C2(C1([H])O[H])C1(C([H])([H])[H])C([H])(O[H])C([H])([H])C12C1([H])S(=O)C3(C([H])([H])[H])C([H])([H])C([H])([H])C2([H])C2([H])OC2(C([H])([H])[H])C2([H])C([H])(OC3(C([H])([H])C([H])([H])C4(C([H])([H])[H])OC4(C([H])([H])[H])C3([H])O[H])C([H])(OC(=O)C([H])([H])[H])C([H])([H])C2([H])C(=O)OC([H])([H])[H])C1(C([H])([H])[H])C([H])([H])[H]

$$$$
86:0:1
     RDKit          3D

120129  0  0  1  0  0  0  0  0999 V2000
    1.9942   -6.8735    9.1913 C   0  0  0  0  0  0  0  0  0  0  0  0
    2.0884   -6.1547    7.9770 O   0  0  0  0  0  0  0  0  0  0  0  0
    0.9664   -5.8413    7.3012 C   0  0  0  0  0  0  0  0  0  0  0  0
   -0.1810   -6.1287    7.6645 O   0  0  0  0  0  0  0  0  0  0  0  0
    1.2333   -5.0719    5.9937 C   0  0  2  0  0  0  0  0  0  0  0  0
    2.0349   -6.0809    5.1259 C   0  0  0  0  0  0  0  0  0  0  0  0
    2.2096   -5.7971    3.6271 C   0  0  1  0  0  0  0  0  0  0  0  0
    0.9233   -5.9067    2.9927 O   0  0  0  0  0  0  0  0  0  0  0  0
    0.6184   -6.7802    2.0131 C   0  0  0  0  0  0  0  0  0  0  0  0
    1.6205   -7.8680    1.6785 C   0  0  0  0  0  0  0  0  0  0  0  0
   -0.4508   -6.7128    1.3883 O   0  0  0  0  0  0  0  0  0  0  0  0
    2.9218   -4.4562    3.2657 C   0  0  1  0  0  0  0  0  0  0  0  0
    4.3393   -4.3715    3.9053 C   0  0  0  0  0  0  0  0  0  0  0  0
    5.1538   -3.1034    3.6313 C   0  0  0  0  0  0  0  0  0  0  0  0
    5.1002   -2.7114    2.1493 C   0  0  2  0  0  0  0  0  0  0  0  0
    6.4385   -2.1699    1.6744 C   0  0  0  0  0  0  0  0  0  0  0  0
    3.9484   -1.9593    1.7794 O   0  0  0  0  0  0  0  0  0  0  0  0
    4.0804   -3.2529    1.2141 C   0  0  1  0  0  0  0  0  0  0  0  0
    4.3243   -3.2987   -0.3157 C   0  0  0  0  0  0  0  0  0  0  0  0
    3.1146   -4.3684    1.6985 C   0  0  1  0  0  0  0  0  0  0  0  0
    3.6438   -5.5678    1.2187 O   0  0  0  0  0  0  0  0  0  0  0  0
    1.9356   -3.4853    3.6477 O   0  0  0  0  0  0  0  0  0  0  0  0
    1.9792   -2.7367    4.8563 C   0  0  2  0  0  0  0  0  0  0  0  0
    1.9465   -3.6571    6.1621 C   0  0  1  0  0  0  0  0  0  0  0  0
    1.7502   -2.8351    7.4598 C   0  0  1  0  0  0  0  0  0  0  0  0
    0.5473   -3.0620    8.3539 C   0  0  0  0  0  0  0  0  0  0  0  0
    2.8799   -2.5800    8.3442 O   0  0  0  0  0  0  0  0  0  0  0  0
    2.5797   -1.5588    7.4085 C   0  0  2  0  0  0  0  0  0  0  0  0
    2.0256   -0.2114    7.8034 C   0  0  1  0  0  0  0  0  0  0  0  0
    3.1187    0.8176    8.1326 C   0  0  0  0  0  0  0  0  0  0  0  0
    4.3420    0.8997    7.2277 C   0  0  0  0  0  0  0  0  0  0  0  0
    4.1514    1.3834    5.7788 C   0  0  2  0  0  0  0  0  0  0  0  0
    5.5000    1.0045    5.1202 C   0  0  0  0  0  0  0  0  0  0  0  0
    3.9260    2.9258    5.5514 C   0  0  1  0  0  0  0  0  0  0  0  0
    3.2842    3.4006    4.2358 C   0  0  0  0  0  0  0  0  0  0  0  0
    1.8097    3.3498    4.0054 C   0  0  0  0  0  0  0  0  0  0  0  0
    0.7282    3.2218    4.8342 C   0  0  0  0  0  0  0  0  0  0  0  0
   -0.6256    3.6378    4.3551 C   0  0  1  0  0  0  0  0  0  0  0  0
   -1.2858    2.6117    3.6369 O   0  0  0  0  0  0  0  0  0  0  0  0
   -0.8808    3.8713    5.8388 C   0  0  1  0  0  0  0  0  0  0  0  0
   -2.1632    3.5607    6.3282 O   0  0  0  0  0  0  0  0  0  0  0  0
    0.4222    3.1509    6.3511 C   0  0  2  0  0  0  0  0  0  0  0  0
    1.1918    4.2359    7.1454 C   0  0  0  0  0  0  0  0  0  0  0  0
    0.7556    4.7898    8.1566 O   0  0  0  0  0  0  0  0  0  0  0  0
    2.5008    4.8206    6.6286 C   0  0  0  0  0  0  0  0  0  0  0  0
    3.7132    3.8986    6.7275 C   0  0  0  0  0  0  0  0  0  0  0  0
    0.1884    1.7366    7.1632 C   0  0  1  0  0  0  0  0  0  0  0  0
    0.0875    2.0801    8.7009 C   0  0  0  0  0  0  0  0  0  0  0  0
   -1.1324    0.9457    6.8828 C   0  0  1  0  0  0  0  0  0  0  0  0
   -1.7502    0.8285    5.6192 O   0  0  0  0  0  0  0  0  0  0  0  0
   -0.4464   -0.2888    7.3345 C   0  0  0  0  0  0  0  0  0  0  0  0
    0.9040    0.2967    6.8439 C   0  0  2  0  0  0  0  0  0  0  0  0
    1.2603   -0.1059    5.3322 C   0  0  1  0  0  0  0  0  0  0  0  0
    3.0171    0.2831    4.7873 S   0  0  0  0  0  0  0  0  0  0  0  0
    3.0429    0.7143    3.3002 O   0  0  0  0  0  0  0  0  0  0  0  0
    0.9095   -1.5600    4.6507 C   0  0  0  0  0  0  0  0  0  0  0  0
    0.8125   -1.2216    3.1209 C   0  0  0  0  0  0  0  0  0  0  0  0
   -0.4849   -2.2158    4.8417 C   0  0  0  0  0  0  0  0  0  0  0  0
    2.9910   -7.0573    9.5895 H   0  0  0  0  0  0  0  0  0  0  0  0
    1.5014   -7.8335    9.0344 H   0  0  0  0  0  0  0  0  0  0  0  0
    1.4267   -6.2991    9.9231 H   0  0  0  0  0  0  0  0  0  0  0  0
    0.2647   -4.9238    5.5249 H   0  0  0  0  0  0  0  0  0  0  0  0
    3.0217   -6.2421    5.5557 H   0  0  0  0  0  0  0  0  0  0  0  0
    1.5448   -7.0547    5.1903 H   0  0  0  0  0  0  0  0  0  0  0  0
    2.8612   -6.5943    3.2811 H   0  0  0  0  0  0  0  0  0  0  0  0
    2.5492   -7.4724    1.2962 H   0  0  0  0  0  0  0  0  0  0  0  0
    1.2057   -8.5406    0.9317 H   0  0  0  0  0  0  0  0  0  0  0  0
    1.7742   -8.5130    2.5471 H   0  0  0  0  0  0  0  0  0  0  0  0
    4.4106   -4.5819    4.9701 H   0  0  0  0  0  0  0  0  0  0  0  0
    4.8833   -5.1979    3.4411 H   0  0  0  0  0  0  0  0  0  0  0  0
    4.8152   -2.2523    4.2296 H   0  0  0  0  0  0  0  0  0  0  0  0
    6.1699   -3.3650    3.9014 H   0  0  0  0  0  0  0  0  0  0  0  0
    7.1188   -3.0068    1.6738 H   0  0  0  0  0  0  0  0  0  0  0  0
    6.7473   -1.3790    2.3490 H   0  0  0  0  0  0  0  0  0  0  0  0
    6.3786   -1.7795    0.6610 H   0  0  0  0  0  0  0  0  0  0  0  0
    5.0918   -4.0347   -0.5042 H   0  0  0  0  0  0  0  0  0  0  0  0
    4.7060   -2.3498   -0.6931 H   0  0  0  0  0  0  0  0  0  0  0  0
    3.4325   -3.5757   -0.8725 H   0  0  0  0  0  0  0  0  0  0  0  0
    2.1799   -4.2127    1.1776 H   0  0  0  0  0  0  0  0  0  0  0  0
    3.6229   -5.5165    0.2726 H   0  0  0  0  0  0  0  0  0  0  0  0
    2.9427   -2.2769    4.8317 H   0  0  0  0  0  0  0  0  0  0  0  0
    2.9764   -3.9589    6.2909 H   0  0  0  0  0  0  0  0  0  0  0  0
   -0.3736   -3.2205    7.7896 H   0  0  0  0  0  0  0  0  0  0  0  0
    0.4287   -2.2273    9.0339 H   0  0  0  0  0  0  0  0  0  0  0  0
    0.7235   -3.9185    9.0097 H   0  0  0  0  0  0  0  0  0  0  0  0
    3.3868   -1.5205    6.7001 H   0  0  0  0  0  0  0  0  0  0  0  0
    1.5784   -0.3747    8.7811 H   0  0  0  0  0  0  0  0  0  0  0  0
    2.6864    1.7977    8.2425 H   0  0  0  0  0  0  0  0  0  0  0  0
    3.4998    0.5737    9.1226 H   0  0  0  0  0  0  0  0  0  0  0  0
    5.0595    1.5660    7.7099 H   0  0  0  0  0  0  0  0  0  0  0  0
    4.8504   -0.0626    7.2398 H   0  0  0  0  0  0  0  0  0  0  0  0
    6.3568    1.4898    5.5912 H   0  0  0  0  0  0  0  0  0  0  0  0
    5.4981    1.2702    4.0675 H   0  0  0  0  0  0  0  0  0  0  0  0
    5.6915   -0.0664    5.1565 H   0  0  0  0  0  0  0  0  0  0  0  0
    4.9413    3.2399    5.3130 H   0  0  0  0  0  0  0  0  0  0  0  0
    3.5572    4.4411    4.0540 H   0  0  0  0  0  0  0  0  0  0  0  0
    3.7424    2.8936    3.3992 H   0  0  0  0  0  0  0  0  0  0  0  0
    1.5240    3.5489    2.9871 H   0  0  0  0  0  0  0  0  0  0  0  0
   -0.7290    4.5768    3.7980 H   0  0  0  0  0  0  0  0  0  0  0  0
   -1.2047    2.8194    2.7129 H   0  0  0  0  0  0  0  0  0  0  0  0
   -0.7728    4.9507    5.9702 H   0  0  0  0  0  0  0  0  0  0  0  0
   -2.3207    2.6579    6.0732 H   0  0  0  0  0  0  0  0  0  0  0  0
    2.3669    5.2750    5.6503 H   0  0  0  0  0  0  0  0  0  0  0  0
    2.6983    5.6530    7.2926 H   0  0  0  0  0  0  0  0  0  0  0  0
    3.7833    3.4372    7.7040 H   0  0  0  0  0  0  0  0  0  0  0  0
    4.5669    4.5771    6.7293 H   0  0  0  0  0  0  0  0  0  0  0  0
   -0.1405    1.2587    9.3705 H   0  0  0  0  0  0  0  0  0  0  0  0
   -0.7215    2.7893    8.8675 H   0  0  0  0  0  0  0  0  0  0  0  0
    0.9824    2.5039    9.1301 H   0  0  0  0  0  0  0  0  0  0  0  0
   -1.9087    1.1936    7.6056 H   0  0  0  0  0  0  0  0  0  0  0  0
   -1.0948    0.9576    4.9410 H   0  0  0  0  0  0  0  0  0  0  0  0
   -0.5657   -0.4321    8.4051 H   0  0  0  0  0  0  0  0  0  0  0  0
   -0.8795   -1.1465    6.8749 H   0  0  0  0  0  0  0  0  0  0  0  0
    0.6856    0.5978    4.7425 H   0  0  0  0  0  0  0  0  0  0  0  0
    0.1555   -0.3761    2.9134 H   0  0  0  0  0  0  0  0  0  0  0  0
    0.4280   -2.0390    2.5206 H   0  0  0  0  0  0  0  0  0  0  0  0
    1.7709   -1.0295    2.6578 H   0  0  0  0  0  0  0  0  0  0  0  0
   -1.3240   -1.5228    4.7404 H   0  0  0  0  0  0  0  0  0  0  0  0
   -0.5807   -2.7928    5.7501 H   0  0  0  0  0  0  0  0  0  0  0  0
   -0.6036   -2.9919    4.0877 H   0  0  0  0  0  0  0  0  0  0  0  0
  1  2  1  0
  1 59  1  0
  1 60  1  0
  1 61  1  0
  2  3  1  0
  3  4  2  0
  3  5  1  0
  5 24  1  0
  5  6  1  0
  5 62  1  6
  6  7  1  0
  6 63  1  0
  6 64  1  0
  7  8  1  0
  7 12  1  0
  7 65  1  6
  8  9  1  0
  9 10  1  0
  9 11  2  0
 10 66  1  0
 10 67  1  0
 10 68  1  0
 12 20  1  0
 12 13  1  0
 12 22  1  1
 13 14  1  0
 13 69  1  0
 13 70  1  0
 14 15  1  0
 14 71  1  0
 14 72  1  0
 15 18  1  0
 15 16  1  6
 15 17  1  0
 16 73  1  0
 16 74  1  0
 16 75  1  0
 17 18  1  0
 18 19  1  6
 18 20  1  0
 19 76  1  0
 19 77  1  0
 19 78  1  0
 20 21  1  0
 20 79  1  6
 21 80  1  0
 22 23  1  0
 23 56  1  0
 23 24  1  0
 23 81  1  6
 24 25  1  0
 24 82  1  1
 25 28  1  0
 25 26  1  1
 25 27  1  0
 26 83  1  0
 26 84  1  0
 26 85  1  0
 27 28  1  0
 28 29  1  0
 28 86  1  6
 29 52  1  0
 29 30  1  0
 29 87  1  1
 30 31  1  0
 30 88  1  0
 30 89  1  0
 31 32  1  0
 31 90  1  0
 31 91  1  0
 54 32  1  1
 32 33  1  6
 32 34  1  0
 33 92  1  0
 33 93  1  0
 33 94  1  0
 34 46  1  0
 34 35  1  0
 34 95  1  6
 35 36  1  0
 35 96  1  0
 35 97  1  0
 36 37  2  3
 36 98  1  0
 37 42  1  0
 37 38  1  0
 38 39  1  0
 38 40  1  0
 38 99  1  6
 39100  1  0
 40 41  1  0
 40 42  1  0
 40101  1  6
 41102  1  0
 42 43  1  1
 42 47  1  0
 43 44  2  0
 43 45  1  0
 45 46  1  0
 45103  1  0
 45104  1  0
 46105  1  0
 46106  1  0
 47 52  1  0
 47 48  1  1
 47 49  1  0
 48107  1  0
 48108  1  0
 48109  1  0
 49 50  1  0
 49 51  1  0
 49110  1  1
 50111  1  0
 52 51  1  1
 51112  1  0
 51113  1  0
 52 53  1  0
 53 54  1  0
 53 56  1  0
 53114  1  6
 54 55  2  0
 56 57  1  0
 56 58  1  0
 57115  1  0
 57116  1  0
 57117  1  0
 58118  1  0
 58119  1  0
 58120  1  0
M  END
>  <i_m_ct_stereo_status>  (83) 
1

>  <s_m_source_file>  (83) 
/var/tmp/pbs.5075288.sched01/tmpndvtliwj/216foptgilz.sdf

>  <i_m_source_file_index>  (83) 
22

>  <i_lp_mmshare_version>  (83) 
48012

>  <i_f3d_flags>  (83) 
0

>  <s_epik_input>  (83) 
W09IXVtDQEBIXTFbQ0BdKE8yKShbQ0gzXSlbQ0BdMihbQ0gzXSlbQ0gyXVtDSDJdW0NAXTEzW0NASF0oT0MoPU8pW0NIM10pW0NIMl1bQ0BASF0oQyg9TylPW0NIM10pW0NASF00W0NAQEhdKE8zKUMoW0NIM10pKFtDSDNdKVtDQEhdNVtDQEBdNjdbQ0BASF0oW0NAQEhdOFtDQEBdNChPOClbQ0gzXSlbQ0gyXVtDSDJdW0NAQF0oW0NIM10pKFtTK101W08tXSlbQ0BASF05W0NIMl0vW0NIXT1DLzFbQ0BdKFtDQEhdKFtPSF0pW0NAQEhdMVtPSF0pKEMoPU8pW0NIMl1bQ0gyXTkpW0NAQF02KFtDSDNdKVtDQEBIXShbT0hdKVtDSDJdNw==

>  <s_epik_cmdline>  (83) 
J2VwaWtfcHl0aG9uJywgJy1waHQnLCAnMi4wJywgJy1waCcsICc3LjAnLCAnLXRuJywgJzgnLCAnLW1hJywgJzIwMCcsICctaW1hZScsICc8aW5maWxlLm1hZT4nLCAnLW9tYWUnLCAnPG91dGZpbGUubWFlPic=

>  <r_lp_tautomer_probability>  (83) 
1

>  <r_epik_Ionization_Penalty>  (83) 
1.69518e-06

>  <r_epik_Ionization_Penalty_Charging>  (83) 
0

>  <r_epik_Ionization_Penalty_Neutral>  (83) 
1.69518e-06

>  <r_epik_State_Penalty>  (83) 
-0

>  <r_epik_Charging_Adjusted_Penalty>  (83) 
0

>  <i_epik_Tot_Q>  (83) 
0

>  <i_epik_Tot_abs_Q>  (83) 
2

>  <s_epik_Chemistry_Notes>  (83) 
This compound has an ester and may undergo hydrolysis at high or low pH.

>  <s_lp_Force_Field>  (83) 
OPLS3e

>  <r_lp_Energy>  (83) 
211.532

>  <b_lp_Chiralities_Consistent>  (83) 
1

>  <s_lp_Variant>  (83) 
86:0-1

>  <s_i_glide_gridfile>  (83) 
pfpi4k_grid

>  <i_i_glide_lignum>  (83) 
22

>  <i_i_glide_rotatable_bonds>  (83) 
8

>  <r_i_docking_score>  (83) 
-2.55928

>  <r_i_glide_ligand_efficiency>  (83) 
-0.0441255

>  <r_i_glide_ligand_efficiency_sa>  (83) 
-0.170804

>  <r_i_glide_ligand_efficiency_ln>  (83) 
-0.505742

>  <r_i_glide_gscore>  (83) 
-2.55928

>  <r_i_glide_lipo>  (83) 
-0.288497

>  <r_i_glide_hbond>  (83) 
-0.231318

>  <r_i_glide_metal>  (83) 
-0

>  <r_i_glide_rewards>  (83) 
0

>  <r_i_glide_evdw>  (83) 
-28.7051

>  <r_i_glide_ecoul>  (83) 
-3.92381

>  <r_i_glide_erotb>  (83) 
0.0633322

>  <r_i_glide_esite>  (83) 
-0.0789714

>  <r_i_glide_emodel>  (83) 
-33.3066

>  <r_i_glide_energy>  (83) 
-32.6289

>  <r_i_glide_einternal>  (83) 
8.20811

>  <r_i_glide_intrahb_reward>  (83) 
-0

>  <i_i_glide_confnum>  (83) 
1

>  <i_i_glide_posenum>  (83) 
35

>  <r_i_glide_eff_state_penalty>  (83) 
0

>  <ligand_id>  (83) 
86

>  <original_smiles>  (83) 
COC(=O)C1CC(OC(C)=O)C2(CCC3(C)OC3(C)C2O)OC2C1C1(C)OC1C1CCC3(C)C4CC=C5C(O)C(O)C5(C(=O)CC4)C4(C)C(O)CC14C([S+]3[O-])C2(C)C

>  <smiles>  (83) 
[H]OC1([H])C2=C([H])C([H])([H])C3([H])C([H])([H])C([H])([H])C(=O)C2(C1([H])O[H])C1(C([H])([H])[H])C([H])(O[H])C([H])([H])C12C1([H])S(=O)C3(C([H])([H])[H])C([H])([H])C([H])([H])C2([H])C2([H])OC2(C([H])([H])[H])C2([H])C([H])(OC3(C([H])([H])C([H])([H])C4(C([H])([H])[H])OC4(C([H])([H])[H])C3([H])O[H])C([H])(OC(=O)C([H])([H])[H])C([H])([H])C2([H])C(=O)OC([H])([H])[H])C1(C([H])([H])[H])C([H])([H])[H]

$$$$
86:0:2
     RDKit          3D

120129  0  0  1  0  0  0  0  0999 V2000
    0.2613   -8.0200    8.0930 C   0  0  0  0  0  0  0  0  0  0  0  0
    0.4365   -7.0545    7.0776 O   0  0  0  0  0  0  0  0  0  0  0  0
    1.4962   -6.2235    7.1302 C   0  0  0  0  0  0  0  0  0  0  0  0
    2.3529   -6.2127    8.0166 O   0  0  0  0  0  0  0  0  0  0  0  0
    1.5941   -5.3336    5.8770 C   0  0  2  0  0  0  0  0  0  0  0  0
    2.3560   -6.2561    4.8865 C   0  0  0  0  0  0  0  0  0  0  0  0
    2.3620   -5.8852    3.4014 C   0  0  1  0  0  0  0  0  0  0  0  0
    1.0285   -5.9584    2.8806 O   0  0  0  0  0  0  0  0  0  0  0  0
    0.5363   -7.0412    2.2134 C   0  0  0  0  0  0  0  0  0  0  0  0
    1.4445   -8.2710    2.1562 C   0  0  0  0  0  0  0  0  0  0  0  0
   -0.5793   -7.0375    1.6893 O   0  0  0  0  0  0  0  0  0  0  0  0
    2.9963   -4.5337    3.0305 C   0  0  1  0  0  0  0  0  0  0  0  0
    4.4615   -4.4578    3.5507 C   0  0  0  0  0  0  0  0  0  0  0  0
    5.1571   -3.1272    3.2826 C   0  0  0  0  0  0  0  0  0  0  0  0
    5.0063   -2.6526    1.8672 C   0  0  2  0  0  0  0  0  0  0  0  0
    6.2635   -2.0651    1.2840 C   0  0  0  0  0  0  0  0  0  0  0  0
    3.7657   -1.9495    1.5932 O   0  0  0  0  0  0  0  0  0  0  0  0
    3.9099   -3.2369    0.9541 C   0  0  1  0  0  0  0  0  0  0  0  0
    4.0840   -3.1886   -0.5439 C   0  0  0  0  0  0  0  0  0  0  0  0
    3.0239   -4.3687    1.4626 C   0  0  1  0  0  0  0  0  0  0  0  0
    3.5016   -5.5657    0.8435 O   0  0  0  0  0  0  0  0  0  0  0  0
    2.0338   -3.5976    3.5382 O   0  0  0  0  0  0  0  0  0  0  0  0
    2.1360   -2.9249    4.7954 C   0  0  2  0  0  0  0  0  0  0  0  0
    2.2614   -3.9125    6.0559 C   0  0  1  0  0  0  0  0  0  0  0  0
    2.1682   -3.1418    7.4189 C   0  0  1  0  0  0  0  0  0  0  0  0
    1.0144   -3.4385    8.3880 C   0  0  0  0  0  0  0  0  0  0  0  0
    3.3573   -2.8982    8.2000 O   0  0  0  0  0  0  0  0  0  0  0  0
    2.9404   -1.8589    7.3521 C   0  0  2  0  0  0  0  0  0  0  0  0
    2.3736   -0.5307    7.8665 C   0  0  1  0  0  0  0  0  0  0  0  0
    3.4583    0.5160    8.1505 C   0  0  0  0  0  0  0  0  0  0  0  0
    4.5892    0.6915    7.1396 C   0  0  0  0  0  0  0  0  0  0  0  0
    4.2605    1.2323    5.7301 C   0  0  2  0  0  0  0  0  0  0  0  0
    5.5646    0.9415    4.9385 C   0  0  0  0  0  0  0  0  0  0  0  0
    3.9678    2.7802    5.5977 C   0  0  1  0  0  0  0  0  0  0  0  0
    3.2109    3.2928    4.3655 C   0  0  0  0  0  0  0  0  0  0  0  0
    1.6948    3.1945    4.2726 C   0  0  0  0  0  0  0  0  0  0  0  0
    0.7166    2.9950    5.1687 C   0  0  0  0  0  0  0  0  0  0  0  0
   -0.7223    3.3638    4.8453 C   0  0  1  0  0  0  0  0  0  0  0  0
   -1.4291    2.3700    4.1511 O   0  0  0  0  0  0  0  0  0  0  0  0
   -0.8421    3.5216    6.3634 C   0  0  1  0  0  0  0  0  0  0  0  0
   -2.0604    3.1498    6.9769 O   0  0  0  0  0  0  0  0  0  0  0  0
    0.5317    2.8316    6.7219 C   0  0  2  0  0  0  0  0  0  0  0  0
    1.3432    3.8938    7.4981 C   0  0  0  0  0  0  0  0  0  0  0  0
    0.9719    4.3720    8.5731 O   0  0  0  0  0  0  0  0  0  0  0  0
    2.5809    4.5559    6.9150 C   0  0  0  0  0  0  0  0  0  0  0  0
    3.8349    3.6797    6.8464 C   0  0  0  0  0  0  0  0  0  0  0  0
    0.4147    1.3670    7.4740 C   0  0  1  0  0  0  0  0  0  0  0  0
    0.4384    1.6228    9.0312 C   0  0  0  0  0  0  0  0  0  0  0  0
   -0.8994    0.5448    7.2631 C   0  0  1  0  0  0  0  0  0  0  0  0
   -1.6044    0.4602    6.0517 O   0  0  0  0  0  0  0  0  0  0  0  0
   -0.1374   -0.6916    7.5996 C   0  0  0  0  0  0  0  0  0  0  0  0
    1.1538   -0.0356    7.0249 C   0  0  2  0  0  0  0  0  0  0  0  0
    1.3899   -0.3505    5.4675 C   0  0  1  0  0  0  0  0  0  0  0  0
    3.0795    0.1420    4.7623 S   0  0  0  0  0  0  0  0  0  0  0  0
    2.9470    0.6486    3.3359 O   0  0  0  0  0  0  0  0  0  0  0  0
    1.0186   -1.7760    4.7332 C   0  0  0  0  0  0  0  0  0  0  0  0
    0.7716   -1.3648    3.2373 C   0  0  0  0  0  0  0  0  0  0  0  0
   -0.3338   -2.4889    5.0114 C   0  0  0  0  0  0  0  0  0  0  0  0
   -0.5852   -8.6609    7.8533 H   0  0  0  0  0  0  0  0  0  0  0  0
    0.0683   -7.5124    9.0349 H   0  0  0  0  0  0  0  0  0  0  0  0
    1.1491   -8.6424    8.2044 H   0  0  0  0  0  0  0  0  0  0  0  0
    0.5847   -5.1882    5.4952 H   0  0  0  0  0  0  0  0  0  0  0  0
    3.3821   -6.3900    5.2192 H   0  0  0  0  0  0  0  0  0  0  0  0
    1.9422   -7.2638    4.9392 H   0  0  0  0  0  0  0  0  0  0  0  0
    2.9988   -6.6308    2.9336 H   0  0  0  0  0  0  0  0  0  0  0  0
    2.3675   -8.0420    1.6218 H   0  0  0  0  0  0  0  0  0  0  0  0
    0.9631   -9.1125    1.6711 H   0  0  0  0  0  0  0  0  0  0  0  0
    1.7009   -8.5889    3.1639 H   0  0  0  0  0  0  0  0  0  0  0  0
    4.5943   -4.7113    4.5949 H   0  0  0  0  0  0  0  0  0  0  0  0
    5.0103   -5.2403    3.0149 H   0  0  0  0  0  0  0  0  0  0  0  0
    4.8815   -2.3376    3.9731 H   0  0  0  0  0  0  0  0  0  0  0  0
    6.2091   -3.3165    3.4471 H   0  0  0  0  0  0  0  0  0  0  0  0
    6.9900   -2.8805    1.2066 H   0  0  0  0  0  0  0  0  0  0  0  0
    6.6651   -1.2919    1.9437 H   0  0  0  0  0  0  0  0  0  0  0  0
    6.1196   -1.6434    0.2944 H   0  0  0  0  0  0  0  0  0  0  0  0
    4.8449   -3.9209   -0.8179 H   0  0  0  0  0  0  0  0  0  0  0  0
    4.4232   -2.2185   -0.8857 H   0  0  0  0  0  0  0  0  0  0  0  0
    3.1552   -3.4258   -1.0643 H   0  0  0  0  0  0  0  0  0  0  0  0
    2.0098   -4.2027    1.0805 H   0  0  0  0  0  0  0  0  0  0  0  0
    3.5052   -5.4161   -0.1029 H   0  0  0  0  0  0  0  0  0  0  0  0
    3.0719   -2.4223    4.7159 H   0  0  0  0  0  0  0  0  0  0  0  0
    3.3151   -4.1656    6.0708 H   0  0  0  0  0  0  0  0  0  0  0  0
    0.0647   -3.5965    7.8912 H   0  0  0  0  0  0  0  0  0  0  0  0
    0.9227   -2.6119    9.0962 H   0  0  0  0  0  0  0  0  0  0  0  0
    1.2450   -4.3011    9.0142 H   0  0  0  0  0  0  0  0  0  0  0  0
    3.6851   -1.7278    6.5693 H   0  0  0  0  0  0  0  0  0  0  0  0
    2.0167   -0.7611    8.8705 H   0  0  0  0  0  0  0  0  0  0  0  0
    3.0030    1.4718    8.3487 H   0  0  0  0  0  0  0  0  0  0  0  0
    3.9351    0.2448    9.0908 H   0  0  0  0  0  0  0  0  0  0  0  0
    5.3247    1.3628    7.5873 H   0  0  0  0  0  0  0  0  0  0  0  0
    5.1364   -0.2487    7.0674 H   0  0  0  0  0  0  0  0  0  0  0  0
    6.4404    1.4276    5.3713 H   0  0  0  0  0  0  0  0  0  0  0  0
    5.4756    1.2595    3.9042 H   0  0  0  0  0  0  0  0  0  0  0  0
    5.7983   -0.1259    4.8991 H   0  0  0  0  0  0  0  0  0  0  0  0
    4.9507    3.1423    5.2951 H   0  0  0  0  0  0  0  0  0  0  0  0
    3.4318    4.3469    4.2181 H   0  0  0  0  0  0  0  0  0  0  0  0
    3.6120    2.8531    3.4658 H   0  0  0  0  0  0  0  0  0  0  0  0
    1.3408    3.4357    3.2753 H   0  0  0  0  0  0  0  0  0  0  0  0
   -0.8844    4.3104    4.3452 H   0  0  0  0  0  0  0  0  0  0  0  0
   -1.2665    2.4976    3.2201 H   0  0  0  0  0  0  0  0  0  0  0  0
   -0.7770    4.5986    6.5411 H   0  0  0  0  0  0  0  0  0  0  0  0
   -2.2103    2.2382    6.7270 H   0  0  0  0  0  0  0  0  0  0  0  0
    2.3523    5.0610    5.9754 H   0  0  0  0  0  0  0  0  0  0  0  0
    2.8200    5.3699    7.6009 H   0  0  0  0  0  0  0  0  0  0  0  0
    4.0003    3.1702    7.7866 H   0  0  0  0  0  0  0  0  0  0  0  0
    4.6651    4.3876    6.8275 H   0  0  0  0  0  0  0  0  0  0  0  0
    0.2960    0.7603    9.6734 H   0  0  0  0  0  0  0  0  0  0  0  0
   -0.3723    2.2948    9.3133 H   0  0  0  0  0  0  0  0  0  0  0  0
    1.3553    2.0572    9.4132 H   0  0  0  0  0  0  0  0  0  0  0  0
   -1.6306    0.7700    8.0426 H   0  0  0  0  0  0  0  0  0  0  0  0
   -0.9795    0.5209    5.3361 H   0  0  0  0  0  0  0  0  0  0  0  0
   -0.1689   -0.8912    8.6652 H   0  0  0  0  0  0  0  0  0  0  0  0
   -0.5695   -1.5566    7.1502 H   0  0  0  0  0  0  0  0  0  0  0  0
    0.7563    0.3735    4.9720 H   0  0  0  0  0  0  0  0  0  0  0  0
    0.0796   -0.5254    3.1401 H   0  0  0  0  0  0  0  0  0  0  0  0
    0.3403   -2.1633    2.6391 H   0  0  0  0  0  0  0  0  0  0  0  0
    1.6745   -1.1151    2.6904 H   0  0  0  0  0  0  0  0  0  0  0  0
   -1.1841   -1.8082    5.0472 H   0  0  0  0  0  0  0  0  0  0  0  0
   -0.3093   -3.1144    5.8939 H   0  0  0  0  0  0  0  0  0  0  0  0
   -0.5573   -3.2168    4.2319 H   0  0  0  0  0  0  0  0  0  0  0  0
  1  2  1  0
  1 59  1  0
  1 60  1  0
  1 61  1  0
  2  3  1  0
  3  4  2  0
  3  5  1  0
  5 24  1  0
  5  6  1  0
  5 62  1  6
  6  7  1  0
  6 63  1  0
  6 64  1  0
  7  8  1  0
  7 12  1  0
  7 65  1  6
  8  9  1  0
  9 10  1  0
  9 11  2  0
 10 66  1  0
 10 67  1  0
 10 68  1  0
 12 20  1  0
 12 13  1  0
 12 22  1  1
 13 14  1  0
 13 69  1  0
 13 70  1  0
 14 15  1  0
 14 71  1  0
 14 72  1  0
 15 18  1  0
 15 16  1  6
 15 17  1  0
 16 73  1  0
 16 74  1  0
 16 75  1  0
 17 18  1  0
 18 19  1  6
 18 20  1  0
 19 76  1  0
 19 77  1  0
 19 78  1  0
 20 21  1  0
 20 79  1  6
 21 80  1  0
 22 23  1  0
 23 56  1  0
 23 24  1  0
 23 81  1  6
 24 25  1  0
 24 82  1  6
 25 28  1  0
 25 26  1  1
 25 27  1  0
 26 83  1  0
 26 84  1  0
 26 85  1  0
 27 28  1  0
 28 29  1  0
 28 86  1  6
 29 52  1  0
 29 30  1  0
 29 87  1  1
 30 31  1  0
 30 88  1  0
 30 89  1  0
 31 32  1  0
 31 90  1  0
 31 91  1  0
 54 32  1  1
 32 33  1  6
 32 34  1  0
 33 92  1  0
 33 93  1  0
 33 94  1  0
 34 46  1  0
 34 35  1  0
 34 95  1  6
 35 36  1  0
 35 96  1  0
 35 97  1  0
 36 37  2  3
 36 98  1  0
 37 42  1  0
 37 38  1  0
 38 39  1  0
 38 40  1  0
 38 99  1  6
 39100  1  0
 40 41  1  0
 40 42  1  0
 40101  1  6
 41102  1  0
 42 43  1  1
 42 47  1  0
 43 44  2  0
 43 45  1  0
 45 46  1  0
 45103  1  0
 45104  1  0
 46105  1  0
 46106  1  0
 47 52  1  0
 47 48  1  1
 47 49  1  0
 48107  1  0
 48108  1  0
 48109  1  0
 49 50  1  0
 49 51  1  0
 49110  1  1
 50111  1  0
 52 51  1  1
 51112  1  0
 51113  1  0
 52 53  1  0
 53 54  1  0
 53 56  1  0
 53114  1  6
 54 55  2  0
 56 57  1  0
 56 58  1  0
 57115  1  0
 57116  1  0
 57117  1  0
 58118  1  0
 58119  1  0
 58120  1  0
M  END
>  <i_m_ct_stereo_status>  (84) 
1

>  <s_m_source_file>  (84) 
/var/tmp/pbs.5075288.sched01/tmpndvtliwj/216foptgilz.sdf

>  <i_m_source_file_index>  (84) 
22

>  <i_lp_mmshare_version>  (84) 
48012

>  <i_f3d_flags>  (84) 
0

>  <s_epik_input>  (84) 
W09IXVtDQEBIXTFbQ0BdKE8yKShbQ0gzXSlbQ0BdMihbQ0gzXSlbQ0gyXVtDSDJdW0NAXTEzW0NASF0oT0MoPU8pW0NIM10pW0NIMl1bQ0BASF0oQyg9TylPW0NIM10pW0NASF00W0NAQEhdKE8zKUMoW0NIM10pKFtDSDNdKVtDQEhdNVtDQEBdNjdbQ0BASF0oW0NAQEhdOFtDQEBdNChPOClbQ0gzXSlbQ0gyXVtDSDJdW0NAQF0oW0NIM10pKFtTK101W08tXSlbQ0BASF05W0NIMl0vW0NIXT1DLzFbQ0BdKFtDQEhdKFtPSF0pW0NAQEhdMVtPSF0pKEMoPU8pW0NIMl1bQ0gyXTkpW0NAQF02KFtDSDNdKVtDQEBIXShbT0hdKVtDSDJdNw==

>  <s_epik_cmdline>  (84) 
J2VwaWtfcHl0aG9uJywgJy1waHQnLCAnMi4wJywgJy1waCcsICc3LjAnLCAnLXRuJywgJzgnLCAnLW1hJywgJzIwMCcsICctaW1hZScsICc8aW5maWxlLm1hZT4nLCAnLW9tYWUnLCAnPG91dGZpbGUubWFlPic=

>  <r_lp_tautomer_probability>  (84) 
1

>  <r_epik_Ionization_Penalty>  (84) 
1.69518e-06

>  <r_epik_Ionization_Penalty_Charging>  (84) 
0

>  <r_epik_Ionization_Penalty_Neutral>  (84) 
1.69518e-06

>  <r_epik_State_Penalty>  (84) 
-0

>  <r_epik_Charging_Adjusted_Penalty>  (84) 
0

>  <i_epik_Tot_Q>  (84) 
0

>  <i_epik_Tot_abs_Q>  (84) 
2

>  <s_epik_Chemistry_Notes>  (84) 
This compound has an ester and may undergo hydrolysis at high or low pH.

>  <s_lp_Force_Field>  (84) 
OPLS3e

>  <r_lp_Energy>  (84) 
211.532

>  <b_lp_Chiralities_Consistent>  (84) 
1

>  <s_lp_Variant>  (84) 
86:0-1

>  <s_i_glide_gridfile>  (84) 
pfpi4k_grid

>  <i_i_glide_lignum>  (84) 
22

>  <i_i_glide_rotatable_bonds>  (84) 
8

>  <r_i_docking_score>  (84) 
-2.4047

>  <r_i_glide_ligand_efficiency>  (84) 
-0.0414603

>  <r_i_glide_ligand_efficiency_sa>  (84) 
-0.160488

>  <r_i_glide_ligand_efficiency_ln>  (84) 
-0.475195

>  <r_i_glide_gscore>  (84) 
-2.4047

>  <r_i_glide_lipo>  (84) 
-0.339046

>  <r_i_glide_hbond>  (84) 
-0.105894

>  <r_i_glide_metal>  (84) 
-0

>  <r_i_glide_rewards>  (84) 
0

>  <r_i_glide_evdw>  (84) 
-30.6593

>  <r_i_glide_ecoul>  (84) 
-2.82855

>  <r_i_glide_erotb>  (84) 
0.0633322

>  <r_i_glide_esite>  (84) 
-0.0658382

>  <r_i_glide_emodel>  (84) 
-34.2756

>  <r_i_glide_energy>  (84) 
-33.4879

>  <r_i_glide_einternal>  (84) 
8.80311

>  <r_i_glide_intrahb_reward>  (84) 
-0

>  <i_i_glide_confnum>  (84) 
2

>  <i_i_glide_posenum>  (84) 
25

>  <r_i_glide_eff_state_penalty>  (84) 
0

>  <ligand_id>  (84) 
86

>  <original_smiles>  (84) 
COC(=O)C1CC(OC(C)=O)C2(CCC3(C)OC3(C)C2O)OC2C1C1(C)OC1C1CCC3(C)C4CC=C5C(O)C(O)C5(C(=O)CC4)C4(C)C(O)CC14C([S+]3[O-])C2(C)C

>  <smiles>  (84) 
[H]OC1([H])C2=C([H])C([H])([H])C3([H])C([H])([H])C([H])([H])C(=O)C2(C1([H])O[H])C1(C([H])([H])[H])C([H])(O[H])C([H])([H])C12C1([H])S(=O)C3(C([H])([H])[H])C([H])([H])C([H])([H])C2([H])C2([H])OC2(C([H])([H])[H])C2([H])C([H])(OC3(C([H])([H])C([H])([H])C4(C([H])([H])[H])OC4(C([H])([H])[H])C3([H])O[H])C([H])(OC(=O)C([H])([H])[H])C([H])([H])C2([H])C(=O)OC([H])([H])[H])C1(C([H])([H])[H])C([H])([H])[H]

$$$$
86:1:0
     RDKit          3D

120129  0  0  1  0  0  0  0  0999 V2000
    7.4351   -5.5092    6.1654 C   0  0  0  0  0  0  0  0  0  0  0  0
    7.0390   -6.7632    5.6416 O   0  0  0  0  0  0  0  0  0  0  0  0
    5.9845   -7.4704    6.1380 C   0  0  0  0  0  0  0  0  0  0  0  0
    5.8457   -8.6612    5.8712 O   0  0  0  0  0  0  0  0  0  0  0  0
    5.0634   -6.7147    7.1459 C   0  0  2  0  0  0  0  0  0  0  0  0
    4.1119   -7.6018    7.9655 C   0  0  0  0  0  0  0  0  0  0  0  0
    2.6908   -7.8669    7.4214 C   0  0  1  0  0  0  0  0  0  0  0  0
    1.7503   -7.2114    8.2768 O   0  0  0  0  0  0  0  0  0  0  0  0
    1.0943   -7.8425    9.2712 C   0  0  0  0  0  0  0  0  0  0  0  0
    1.5097   -9.2822    9.5307 C   0  0  0  0  0  0  0  0  0  0  0  0
    0.2114   -7.3039    9.9537 O   0  0  0  0  0  0  0  0  0  0  0  0
    2.3340   -7.7083    5.9151 C   0  0  1  0  0  0  0  0  0  0  0  0
    2.8835   -8.9372    5.1373 C   0  0  0  0  0  0  0  0  0  0  0  0
    2.7439   -8.7732    3.6202 C   0  0  0  0  0  0  0  0  0  0  0  0
    1.3245   -8.3803    3.2137 C   0  0  2  0  0  0  0  0  0  0  0  0
    0.7642   -9.2068    2.0838 C   0  0  0  0  0  0  0  0  0  0  0  0
    0.9998   -6.9752    3.2554 O   0  0  0  0  0  0  0  0  0  0  0  0
    0.3852   -7.8455    4.2313 C   0  0  1  0  0  0  0  0  0  0  0  0
   -1.1182   -8.0467    4.0886 C   0  0  0  0  0  0  0  0  0  0  0  0
    0.7971   -7.7457    5.7045 C   0  0  1  0  0  0  0  0  0  0  0  0
    0.2229   -8.8345    6.4019 O   0  0  0  0  0  0  0  0  0  0  0  0
    2.8701   -6.5366    5.2476 O   0  0  0  0  0  0  0  0  0  0  0  0
    3.1528   -5.2313    5.8128 C   0  0  2  0  0  0  0  0  0  0  0  0
    4.4546   -5.3364    6.7039 C   0  0  1  0  0  0  0  0  0  0  0  0
    4.7744   -4.1544    7.6196 C   0  0  1  0  0  0  0  0  0  0  0  0
    4.5161   -4.3459    9.1102 C   0  0  0  0  0  0  0  0  0  0  0  0
    6.0216   -3.4401    7.4908 O   0  0  0  0  0  0  0  0  0  0  0  0
    4.9088   -2.8926    6.8141 C   0  0  2  0  0  0  0  0  0  0  0  0
    4.3854   -1.5188    7.1254 C   0  0  1  0  0  0  0  0  0  0  0  0
    5.2424   -0.5874    6.1631 C   0  0  0  0  0  0  0  0  0  0  0  0
    5.2498   -0.6946    4.5647 C   0  0  0  0  0  0  0  0  0  0  0  0
    3.9491   -0.5262    3.6364 C   0  0  2  0  0  0  0  0  0  0  0  0
    4.4454   -0.8696    2.2079 C   0  0  0  0  0  0  0  0  0  0  0  0
    3.2032    1.0042    3.3582 C   0  0  1  0  0  0  0  0  0  0  0  0
    3.6715    1.5974    4.6007 C   0  0  0  0  0  0  0  0  0  0  0  0
    2.8661    0.7986    5.5691 C   0  0  0  0  0  0  0  0  0  0  0  0
    1.6117    0.2327    5.4995 C   0  0  0  0  0  0  0  0  0  0  0  0
    0.3223   -0.0640    4.5678 C   0  0  1  0  0  0  0  0  0  0  0  0
    0.2799   -1.1754    3.7268 O   0  0  0  0  0  0  0  0  0  0  0  0
   -0.3832   -0.2291    5.9001 C   0  0  1  0  0  0  0  0  0  0  0  0
   -0.8699   -1.5242    6.2070 O   0  0  0  0  0  0  0  0  0  0  0  0
    0.7964    0.4864    6.6443 C   0  0  2  0  0  0  0  0  0  0  0  0
    0.7217    2.0768    6.3147 C   0  0  0  0  0  0  0  0  0  0  0  0
    0.4129    2.9054    7.1896 O   0  0  0  0  0  0  0  0  0  0  0  0
    1.0358    2.6947    4.7973 C   0  0  0  0  0  0  0  0  0  0  0  0
    1.8271    1.9993    3.4329 C   0  0  0  0  0  0  0  0  0  0  0  0
    1.7817   -0.2546    7.7507 C   0  0  1  0  0  0  0  0  0  0  0  0
    2.4783    0.8399    8.6609 C   0  0  0  0  0  0  0  0  0  0  0  0
    1.1696   -1.2009    8.8232 C   0  0  1  0  0  0  0  0  0  0  0  0
   -0.0990   -1.7884    8.7420 O   0  0  0  0  0  0  0  0  0  0  0  0
    2.3955   -2.0676    8.6696 C   0  0  0  0  0  0  0  0  0  0  0  0
    2.7673   -1.5743    7.2256 C   0  0  2  0  0  0  0  0  0  0  0  0
    2.3340   -2.5270    5.9160 C   0  0  1  0  0  0  0  0  0  0  0  0
    3.0501   -2.1304    4.1511 S   0  0  0  0  0  0  0  0  0  0  0  0
    2.2716   -2.6997    2.9601 O   0  0  0  0  0  0  0  0  0  0  0  0
    1.9794   -4.1394    5.9978 C   0  0  0  0  0  0  0  0  0  0  0  0
    1.0031   -4.4269    4.8072 C   0  0  0  0  0  0  0  0  0  0  0  0
    1.1407   -4.5060    7.2359 C   0  0  0  0  0  0  0  0  0  0  0  0
    8.3581   -5.2003    5.6902 H   0  0  0  0  0  0  0  0  0  0  0  0
    7.5172   -5.5452    7.2629 H   0  0  0  0  0  0  0  0  0  0  0  0
    6.7437   -4.7578    5.8615 H   0  0  0  0  0  0  0  0  0  0  0  0
    5.8067   -6.4672    7.9025 H   0  0  0  0  0  0  0  0  0  0  0  0
    4.5910   -8.5680    8.1818 H   0  0  0  0  0  0  0  0  0  0  0  0
    4.0137   -7.1461    8.9590 H   0  0  0  0  0  0  0  0  0  0  0  0
    2.5960   -8.9393    7.5292 H   0  0  0  0  0  0  0  0  0  0  0  0
    1.3292   -9.8898    8.6388 H   0  0  0  0  0  0  0  0  0  0  0  0
    0.9586   -9.7289   10.3545 H   0  0  0  0  0  0  0  0  0  0  0  0
    2.5808   -9.2988    9.7505 H   0  0  0  0  0  0  0  0  0  0  0  0
    3.8870   -9.1309    5.3486 H   0  0  0  0  0  0  0  0  0  0  0  0
    2.3865   -9.8595    5.4588 H   0  0  0  0  0  0  0  0  0  0  0  0
    3.4501   -8.0231    3.2562 H   0  0  0  0  0  0  0  0  0  0  0  0
    3.0142   -9.7046    3.1355 H   0  0  0  0  0  0  0  0  0  0  0  0
    0.5639  -10.2066    2.4653 H   0  0  0  0  0  0  0  0  0  0  0  0
    1.4812   -9.2435    1.2778 H   0  0  0  0  0  0  0  0  0  0  0  0
   -0.1587   -8.7800    1.7001 H   0  0  0  0  0  0  0  0  0  0  0  0
   -1.3469   -9.0578    4.4277 H   0  0  0  0  0  0  0  0  0  0  0  0
   -1.4380   -7.9561    3.0474 H   0  0  0  0  0  0  0  0  0  0  0  0
   -1.6893   -7.3077    4.6662 H   0  0  0  0  0  0  0  0  0  0  0  0
    0.3386   -6.8878    6.1450 H   0  0  0  0  0  0  0  0  0  0  0  0
    0.4939   -9.6451    5.9958 H   0  0  0  0  0  0  0  0  0  0  0  0
    3.5062   -4.8483    4.8566 H   0  0  0  0  0  0  0  0  0  0  0  0
    5.0712   -5.1977    5.8811 H   0  0  0  0  0  0  0  0  0  0  0  0
    3.5302   -4.7613    9.2871 H   0  0  0  0  0  0  0  0  0  0  0  0
    4.6271   -3.4014    9.6468 H   0  0  0  0  0  0  0  0  0  0  0  0
    5.2442   -5.0348    9.5348 H   0  0  0  0  0  0  0  0  0  0  0  0
    5.0114   -3.0665    5.7541 H   0  0  0  0  0  0  0  0  0  0  0  0
    4.7644   -1.2679    8.1123 H   0  0  0  0  0  0  0  0  0  0  0  0
    5.2386    0.4402    6.5093 H   0  0  0  0  0  0  0  0  0  0  0  0
    6.2774   -0.8214    6.4178 H   0  0  0  0  0  0  0  0  0  0  0  0
    6.0104   -0.0032    4.1972 H   0  0  0  0  0  0  0  0  0  0  0  0
    5.7145   -1.6493    4.3158 H   0  0  0  0  0  0  0  0  0  0  0  0
    5.1142   -0.0962    1.8287 H   0  0  0  0  0  0  0  0  0  0  0  0
    3.6228   -0.9473    1.4962 H   0  0  0  0  0  0  0  0  0  0  0  0
    4.9934   -1.8109    2.1531 H   0  0  0  0  0  0  0  0  0  0  0  0
    2.4063    0.2957    3.1672 H   0  0  0  0  0  0  0  0  0  0  0  0
    4.7442    1.5956    4.7215 H   0  0  0  0  0  0  0  0  0  0  0  0
    3.5340    2.6738    4.7347 H   0  0  0  0  0  0  0  0  0  0  0  0
    3.3254    1.0697    6.4897 H   0  0  0  0  0  0  0  0  0  0  0  0
   -0.2080    0.7247    4.0547 H   0  0  0  0  0  0  0  0  0  0  0  0
   -0.1407   -0.8980    2.9216 H   0  0  0  0  0  0  0  0  0  0  0  0
   -1.2601    0.4118    5.9057 H   0  0  0  0  0  0  0  0  0  0  0  0
   -0.1621   -2.1292    6.0448 H   0  0  0  0  0  0  0  0  0  0  0  0
    0.0675    3.0298    4.4378 H   0  0  0  0  0  0  0  0  0  0  0  0
    1.5399    3.6370    4.9884 H   0  0  0  0  0  0  0  0  0  0  0  0
    2.1640    2.8916    2.9041 H   0  0  0  0  0  0  0  0  0  0  0  0
    1.0767    1.6852    2.7073 H   0  0  0  0  0  0  0  0  0  0  0  0
    3.3989    0.4790    9.1261 H   0  0  0  0  0  0  0  0  0  0  0  0
    1.8259    1.1744    9.4724 H   0  0  0  0  0  0  0  0  0  0  0  0
    2.7244    1.7933    8.1907 H   0  0  0  0  0  0  0  0  0  0  0  0
    1.1763   -0.7668    9.8219 H   0  0  0  0  0  0  0  0  0  0  0  0
   -0.0835   -2.3834    8.0081 H   0  0  0  0  0  0  0  0  0  0  0  0
    3.1227   -1.7728    9.4219 H   0  0  0  0  0  0  0  0  0  0  0  0
    2.2097   -3.0940    8.8672 H   0  0  0  0  0  0  0  0  0  0  0  0
    1.3361   -2.2071    5.7803 H   0  0  0  0  0  0  0  0  0  0  0  0
    0.3030   -3.6225    4.6101 H   0  0  0  0  0  0  0  0  0  0  0  0
    0.3537   -5.2755    4.9586 H   0  0  0  0  0  0  0  0  0  0  0  0
    1.5272   -4.6557    3.8773 H   0  0  0  0  0  0  0  0  0  0  0  0
    0.4966   -3.6875    7.5082 H   0  0  0  0  0  0  0  0  0  0  0  0
    1.7641   -4.8318    8.0646 H   0  0  0  0  0  0  0  0  0  0  0  0
    0.4307   -5.2984    7.1106 H   0  0  0  0  0  0  0  0  0  0  0  0
  1  2  1  0
  1 59  1  0
  1 60  1  0
  1 61  1  0
  2  3  1  0
  3  4  2  0
  3  5  1  0
  5 24  1  0
  5  6  1  0
  5 62  1  1
  6  7  1  0
  6 63  1  0
  6 64  1  0
  7  8  1  0
  7 12  1  0
  7 65  1  1
  8  9  1  0
  9 10  1  0
  9 11  2  0
 10 66  1  0
 10 67  1  0
 10 68  1  0
 12 20  1  0
 12 13  1  0
 12 22  1  6
 13 14  1  0
 13 69  1  0
 13 70  1  0
 14 15  1  0
 14 71  1  0
 14 72  1  0
 15 18  1  0
 15 16  1  6
 15 17  1  0
 16 73  1  0
 16 74  1  0
 16 75  1  0
 17 18  1  0
 18 19  1  1
 18 20  1  0
 19 76  1  0
 19 77  1  0
 19 78  1  0
 20 21  1  0
 20 79  1  1
 21 80  1  0
 22 23  1  0
 23 56  1  0
 23 24  1  0
 23 81  1  6
 24 25  1  0
 24 82  1  6
 25 28  1  0
 25 26  1  1
 25 27  1  0
 26 83  1  0
 26 84  1  0
 26 85  1  0
 27 28  1  0
 28 29  1  0
 28 86  1  6
 29 52  1  0
 29 30  1  0
 29 87  1  1
 30 31  1  0
 30 88  1  0
 30 89  1  0
 31 32  1  0
 31 90  1  0
 31 91  1  0
 54 32  1  6
 32 33  1  6
 32 34  1  0
 33 92  1  0
 33 93  1  0
 33 94  1  0
 34 46  1  0
 34 35  1  0
 34 95  1  6
 35 36  1  0
 35 96  1  0
 35 97  1  0
 36 37  2  3
 36 98  1  0
 37 42  1  0
 37 38  1  0
 38 39  1  0
 38 40  1  0
 38 99  1  6
 39100  1  0
 40 41  1  0
 40 42  1  0
 40101  1  6
 41102  1  0
 42 43  1  1
 42 47  1  0
 43 44  2  0
 43 45  1  0
 45 46  1  0
 45103  1  0
 45104  1  0
 46105  1  0
 46106  1  0
 47 52  1  0
 47 48  1  1
 47 49  1  0
 48107  1  0
 48108  1  0
 48109  1  0
 49 50  1  0
 49 51  1  0
 49110  1  1
 50111  1  0
 52 51  1  1
 51112  1  0
 51113  1  0
 52 53  1  0
 53 54  1  0
 53 56  1  0
 53114  1  6
 54 55  2  0
 56 57  1  0
 56 58  1  0
 57115  1  0
 57116  1  0
 57117  1  0
 58118  1  0
 58119  1  0
 58120  1  0
M  END
>  <i_m_ct_stereo_status>  (85) 
1

>  <s_m_source_file>  (85) 
/var/tmp/pbs.5075288.sched01/tmpndvtliwj/216foptgilz.sdf

>  <i_m_source_file_index>  (85) 
23

>  <i_lp_mmshare_version>  (85) 
48012

>  <i_f3d_flags>  (85) 
0

>  <s_epik_input>  (85) 
W09IXVtDQEBIXTFbQ0BdKE8yKShbQ0gzXSlbQ0BdMihbQ0gzXSlbQ0gyXVtDSDJdW0NAXTEzW0NASF0oT0MoPU8pW0NIM10pW0NIMl1bQ0BASF0oQyg9TylPW0NIM10pW0NASF00W0NAQEhdKE8zKUMoW0NIM10pKFtDSDNdKVtDQEhdNVtDQEBdNjdbQ0BASF0oW0NAQEhdOFtDQEBdNChPOClbQ0gzXSlbQ0gyXVtDSDJdW0NAQF0oW0NIM10pKFtTK101W08tXSlbQ0BASF05W0NIMl0vW0NIXT1DLzFbQ0BdKFtDQEhdKFtPSF0pW0NAQEhdMVtPSF0pKEMoPU8pW0NIMl1bQ0gyXTkpW0NAQF02KFtDSDNdKVtDQEBIXShbT0hdKVtDSDJdNw==

>  <s_epik_cmdline>  (85) 
J2VwaWtfcHl0aG9uJywgJy1waHQnLCAnMi4wJywgJy1waCcsICc3LjAnLCAnLXRuJywgJzgnLCAnLW1hJywgJzIwMCcsICctaW1hZScsICc8aW5maWxlLm1hZT4nLCAnLW9tYWUnLCAnPG91dGZpbGUubWFlPic=

>  <r_lp_tautomer_probability>  (85) 
1

>  <r_epik_Ionization_Penalty>  (85) 
1.69518e-06

>  <r_epik_Ionization_Penalty_Charging>  (85) 
0

>  <r_epik_Ionization_Penalty_Neutral>  (85) 
1.69518e-06

>  <r_epik_State_Penalty>  (85) 
-0

>  <r_epik_Charging_Adjusted_Penalty>  (85) 
0

>  <i_epik_Tot_Q>  (85) 
0

>  <i_epik_Tot_abs_Q>  (85) 
2

>  <s_epik_Chemistry_Notes>  (85) 
This compound has an ester and may undergo hydrolysis at high or low pH.

>  <s_lp_Force_Field>  (85) 
OPLS3e

>  <r_lp_Energy>  (85) 
548.854

>  <b_lp_Chiralities_Consistent>  (85) 
1

>  <s_lp_Variant>  (85) 
86:0-2

>  <s_i_glide_gridfile>  (85) 
pfpi4k_grid

>  <i_i_glide_lignum>  (85) 
23

>  <i_i_glide_rotatable_bonds>  (85) 
8

>  <r_i_docking_score>  (85) 
-2.58758

>  <r_i_glide_ligand_efficiency>  (85) 
-0.0446134

>  <r_i_glide_ligand_efficiency_sa>  (85) 
-0.172693

>  <r_i_glide_ligand_efficiency_ln>  (85) 
-0.511334

>  <r_i_glide_gscore>  (85) 
-2.58758

>  <r_i_glide_lipo>  (85) 
-0.165932

>  <r_i_glide_hbond>  (85) 
-0.32

>  <r_i_glide_metal>  (85) 
-0

>  <r_i_glide_rewards>  (85) 
0

>  <r_i_glide_evdw>  (85) 
-24.3615

>  <r_i_glide_ecoul>  (85) 
-8.12268

>  <r_i_glide_erotb>  (85) 
0.0633322

>  <r_i_glide_esite>  (85) 
-0.0160632

>  <r_i_glide_emodel>  (85) 
-29.2683

>  <r_i_glide_energy>  (85) 
-32.4842

>  <r_i_glide_einternal>  (85) 
11.6679

>  <r_i_glide_intrahb_reward>  (85) 
-0

>  <i_i_glide_confnum>  (85) 
4

>  <i_i_glide_posenum>  (85) 
19

>  <r_i_glide_eff_state_penalty>  (85) 
0

>  <ligand_id>  (85) 
86

>  <original_smiles>  (85) 
COC(=O)C1CC(OC(C)=O)C2(CCC3(C)OC3(C)C2O)OC2C1C1(C)OC1C1CCC3(C)C4CC=C5C(O)C(O)C5(C(=O)CC4)C4(C)C(O)CC14C([S+]3[O-])C2(C)C

>  <smiles>  (85) 
[H]OC1([H])C2=C([H])C([H])([H])C3([H])C([H])([H])C([H])([H])C(=O)C2(C1([H])O[H])C1(C([H])([H])[H])C([H])(O[H])C([H])([H])C12C1([H])S(=O)C3(C([H])([H])[H])C([H])([H])C([H])([H])C2([H])C2([H])OC2(C([H])([H])[H])C2([H])C([H])(OC3(C([H])([H])C([H])([H])C4(C([H])([H])[H])OC4(C([H])([H])[H])C3([H])O[H])C([H])(OC(=O)C([H])([H])[H])C([H])([H])C2([H])C(=O)OC([H])([H])[H])C1(C([H])([H])[H])C([H])([H])[H]

$$$$
86:1:1
     RDKit          3D

120129  0  0  1  0  0  0  0  0999 V2000
    0.1103   -3.3204   10.3012 C   0  0  0  0  0  0  0  0  0  0  0  0
   -0.2348   -2.2465    9.4782 O   0  0  0  0  0  0  0  0  0  0  0  0
    0.6390   -1.6275    8.6685 C   0  0  0  0  0  0  0  0  0  0  0  0
    0.3077   -0.5754    8.1659 O   0  0  0  0  0  0  0  0  0  0  0  0
    2.0427   -2.3351    8.4366 C   0  0  2  0  0  0  0  0  0  0  0  0
    3.2592   -1.4164    8.2706 C   0  0  0  0  0  0  0  0  0  0  0  0
    3.7541   -1.0023    6.8699 C   0  0  1  0  0  0  0  0  0  0  0  0
    4.9673   -1.7142    6.6685 O   0  0  0  0  0  0  0  0  0  0  0  0
    6.1700   -1.1797    6.9551 C   0  0  0  0  0  0  0  0  0  0  0  0
    7.2395   -2.2592    7.0299 C   0  0  0  0  0  0  0  0  0  0  0  0
    6.4179    0.0113    7.1567 O   0  0  0  0  0  0  0  0  0  0  0  0
    2.7797   -1.0682    5.6473 C   0  0  1  0  0  0  0  0  0  0  0  0
    1.8558    0.1764    5.6791 C   0  0  0  0  0  0  0  0  0  0  0  0
    0.7131    0.0980    4.6473 C   0  0  0  0  0  0  0  0  0  0  0  0
    1.2645   -0.1556    3.2450 C   0  0  2  0  0  0  0  0  0  0  0  0
    0.6800    0.7707    2.1890 C   0  0  0  0  0  0  0  0  0  0  0  0
    1.5265   -1.5006    2.8784 O   0  0  0  0  0  0  0  0  0  0  0  0
    2.6498   -0.6732    3.0822 C   0  0  1  0  0  0  0  0  0  0  0  0
    3.4887   -0.3824    1.8278 C   0  0  0  0  0  0  0  0  0  0  0  0
    3.5613   -0.8847    4.3102 C   0  0  1  0  0  0  0  0  0  0  0  0
    4.4352    0.2236    4.3944 O   0  0  0  0  0  0  0  0  0  0  0  0
    1.9142   -2.2344    5.5793 O   0  0  0  0  0  0  0  0  0  0  0  0
    2.1600   -3.6005    6.0126 C   0  0  2  0  0  0  0  0  0  0  0  0
    2.0272   -3.6525    7.5855 C   0  0  1  0  0  0  0  0  0  0  0  0
    2.5915   -4.9038    8.2660 C   0  0  1  0  0  0  0  0  0  0  0  0
    3.9163   -4.7695    8.9890 C   0  0  0  0  0  0  0  0  0  0  0  0
    1.7291   -5.7433    9.0912 O   0  0  0  0  0  0  0  0  0  0  0  0
    1.8924   -6.1262    7.7363 C   0  0  2  0  0  0  0  0  0  0  0  0
    2.4608   -7.4690    7.3849 C   0  0  1  0  0  0  0  0  0  0  0  0
    1.1815   -8.4121    7.3737 C   0  0  0  0  0  0  0  0  0  0  0  0
   -0.0713   -8.2196    6.4040 C   0  0  0  0  0  0  0  0  0  0  0  0
   -0.0077   -8.2320    4.8111 C   0  0  2  0  0  0  0  0  0  0  0  0
   -1.4311   -7.8366    4.3487 C   0  0  0  0  0  0  0  0  0  0  0  0
    0.2314   -9.6717    3.9163 C   0  0  1  0  0  0  0  0  0  0  0  0
    0.9319  -10.3689    4.9772 C   0  0  0  0  0  0  0  0  0  0  0  0
    2.1738   -9.5688    5.0256 C   0  0  0  0  0  0  0  0  0  0  0  0
    2.9188   -8.8927    4.0481 C   0  0  0  0  0  0  0  0  0  0  0  0
    2.9751   -8.4703    2.4992 C   0  0  1  0  0  0  0  0  0  0  0  0
    2.3641   -7.2881    2.0680 O   0  0  0  0  0  0  0  0  0  0  0  0
    4.4556   -8.3429    2.7844 C   0  0  1  0  0  0  0  0  0  0  0  0
    4.9893   -7.0319    2.7246 O   0  0  0  0  0  0  0  0  0  0  0  0
    4.3048   -9.1687    4.1041 C   0  0  2  0  0  0  0  0  0  0  0  0
    4.0955  -10.7296    3.7065 C   0  0  0  0  0  0  0  0  0  0  0  0
    4.9652  -11.5693    3.9085 O   0  0  0  0  0  0  0  0  0  0  0  0
    2.7010  -11.2626    2.9655 C   0  0  0  0  0  0  0  0  0  0  0  0
    1.1443  -10.5532    2.7973 C   0  0  0  0  0  0  0  0  0  0  0  0
    4.5568   -8.5745    5.6288 C   0  0  1  0  0  0  0  0  0  0  0  0
    4.8445   -9.7603    6.6325 C   0  0  0  0  0  0  0  0  0  0  0  0
    5.7780   -7.6508    5.9055 C   0  0  1  0  0  0  0  0  0  0  0  0
    6.4964   -6.9614    4.9205 O   0  0  0  0  0  0  0  0  0  0  0  0
    4.8927   -6.8712    6.8509 C   0  0  0  0  0  0  0  0  0  0  0  0
    3.5382   -7.3035    6.1934 C   0  0  2  0  0  0  0  0  0  0  0  0
    2.7809   -6.2411    5.1432 C   0  0  1  0  0  0  0  0  0  0  0  0
    0.9490   -6.5950    4.5612 S   0  0  0  0  0  0  0  0  0  0  0  0
    0.4464   -5.8781    3.3172 O   0  0  0  0  0  0  0  0  0  0  0  0
    3.0465   -4.6064    5.0966 C   0  0  0  0  0  0  0  0  0  0  0  0
    2.7241   -4.1943    3.6185 C   0  0  0  0  0  0  0  0  0  0  0  0
    4.5454   -4.2749    5.2278 C   0  0  0  0  0  0  0  0  0  0  0  0
   -0.7867   -3.6217   10.8672 H   0  0  0  0  0  0  0  0  0  0  0  0
    0.9360   -3.0300   10.9687 H   0  0  0  0  0  0  0  0  0  0  0  0
    0.3839   -4.1355    9.6329 H   0  0  0  0  0  0  0  0  0  0  0  0
    2.2978   -2.6855    9.4239 H   0  0  0  0  0  0  0  0  0  0  0  0
    3.1218   -0.5240    8.8730 H   0  0  0  0  0  0  0  0  0  0  0  0
    4.0919   -1.9173    8.7748 H   0  0  0  0  0  0  0  0  0  0  0  0
    4.0141    0.0531    6.9620 H   0  0  0  0  0  0  0  0  0  0  0  0
    6.9112   -2.9980    7.7656 H   0  0  0  0  0  0  0  0  0  0  0  0
    8.1893   -1.8355    7.3641 H   0  0  0  0  0  0  0  0  0  0  0  0
    7.3662   -2.7652    6.0880 H   0  0  0  0  0  0  0  0  0  0  0  0
    1.4550    0.3862    6.6480 H   0  0  0  0  0  0  0  0  0  0  0  0
    2.4356    1.0777    5.4804 H   0  0  0  0  0  0  0  0  0  0  0  0
    0.0090   -0.6968    4.8877 H   0  0  0  0  0  0  0  0  0  0  0  0
    0.1569    1.0236    4.6482 H   0  0  0  0  0  0  0  0  0  0  0  0
    1.1237    1.7547    2.3581 H   0  0  0  0  0  0  0  0  0  0  0  0
   -0.4064    0.7984    2.2393 H   0  0  0  0  0  0  0  0  0  0  0  0
    0.9610    0.4349    1.1758 H   0  0  0  0  0  0  0  0  0  0  0  0
    3.8838    0.6215    1.9316 H   0  0  0  0  0  0  0  0  0  0  0  0
    2.8734   -0.4115    0.9247 H   0  0  0  0  0  0  0  0  0  0  0  0
    4.2904   -1.1091    1.7115 H   0  0  0  0  0  0  0  0  0  0  0  0
    4.2133   -1.7196    4.0946 H   0  0  0  0  0  0  0  0  0  0  0  0
    4.4234    0.6555    3.5630 H   0  0  0  0  0  0  0  0  0  0  0  0
    1.1732   -3.9743    5.7058 H   0  0  0  0  0  0  0  0  0  0  0  0
    0.9591   -3.8473    7.6221 H   0  0  0  0  0  0  0  0  0  0  0  0
    4.6693   -4.2897    8.3684 H   0  0  0  0  0  0  0  0  0  0  0  0
    4.2712   -5.7440    9.3116 H   0  0  0  0  0  0  0  0  0  0  0  0
    3.7938   -4.1684    9.8926 H   0  0  0  0  0  0  0  0  0  0  0  0
    0.9948   -5.9063    7.1811 H   0  0  0  0  0  0  0  0  0  0  0  0
    2.9923   -7.7961    8.2748 H   0  0  0  0  0  0  0  0  0  0  0  0
    1.4572   -9.4546    7.4919 H   0  0  0  0  0  0  0  0  0  0  0  0
    0.7369   -8.2622    8.3594 H   0  0  0  0  0  0  0  0  0  0  0  0
   -0.8092   -8.9667    6.7051 H   0  0  0  0  0  0  0  0  0  0  0  0
   -0.5208   -7.2677    6.6837 H   0  0  0  0  0  0  0  0  0  0  0  0
   -2.1357   -8.6396    4.5608 H   0  0  0  0  0  0  0  0  0  0  0  0
   -1.4766   -7.6603    3.2754 H   0  0  0  0  0  0  0  0  0  0  0  0
   -1.8071   -6.9377    4.8369 H   0  0  0  0  0  0  0  0  0  0  0  0
    0.5809   -8.8990    3.2419 H   0  0  0  0  0  0  0  0  0  0  0  0
    0.3658  -10.4716    5.8918 H   0  0  0  0  0  0  0  0  0  0  0  0
    1.1165  -11.4388    4.8518 H   0  0  0  0  0  0  0  0  0  0  0  0
    2.6236   -9.9189    5.9212 H   0  0  0  0  0  0  0  0  0  0  0  0
    2.9042   -9.1811    1.6806 H   0  0  0  0  0  0  0  0  0  0  0  0
    2.5662   -7.1844    1.1522 H   0  0  0  0  0  0  0  0  0  0  0  0
    5.0025   -8.9282    2.0435 H   0  0  0  0  0  0  0  0  0  0  0  0
    4.7961   -6.6683    1.8798 H   0  0  0  0  0  0  0  0  0  0  0  0
    3.0296  -11.4781    1.9668 H   0  0  0  0  0  0  0  0  0  0  0  0
    2.5494  -12.2511    3.3929 H   0  0  0  0  0  0  0  0  0  0  0  0
    0.5327  -11.4434    2.6517 H   0  0  0  0  0  0  0  0  0  0  0  0
    1.0445  -10.1358    1.7991 H   0  0  0  0  0  0  0  0  0  0  0  0
    4.6348   -9.5009    7.6686 H   0  0  0  0  0  0  0  0  0  0  0  0
    5.8870  -10.0854    6.5930 H   0  0  0  0  0  0  0  0  0  0  0  0
    4.3262  -10.6954    6.4394 H   0  0  0  0  0  0  0  0  0  0  0  0
    6.5497   -8.1310    6.5063 H   0  0  0  0  0  0  0  0  0  0  0  0
    6.7358   -7.5804    4.2457 H   0  0  0  0  0  0  0  0  0  0  0  0
    5.0383   -7.2728    7.8515 H   0  0  0  0  0  0  0  0  0  0  0  0
    5.1827   -5.8476    6.9181 H   0  0  0  0  0  0  0  0  0  0  0  0
    3.3047   -6.4624    4.2509 H   0  0  0  0  0  0  0  0  0  0  0  0
    3.0068   -4.9339    2.8761 H   0  0  0  0  0  0  0  0  0  0  0  0
    3.2530   -3.3185    3.2771 H   0  0  0  0  0  0  0  0  0  0  0  0
    1.6689   -3.9547    3.4734 H   0  0  0  0  0  0  0  0  0  0  0  0
    5.1478   -5.0658    4.8213 H   0  0  0  0  0  0  0  0  0  0  0  0
    4.8107   -4.0425    6.2485 H   0  0  0  0  0  0  0  0  0  0  0  0
    4.9077   -3.4290    4.6524 H   0  0  0  0  0  0  0  0  0  0  0  0
  1  2  1  0
  1 59  1  0
  1 60  1  0
  1 61  1  0
  2  3  1  0
  3  4  2  0
  3  5  1  0
  5 24  1  0
  5  6  1  0
  5 62  1  1
  6  7  1  0
  6 63  1  0
  6 64  1  0
  7  8  1  0
  7 12  1  0
  7 65  1  1
  8  9  1  0
  9 10  1  0
  9 11  2  0
 10 66  1  0
 10 67  1  0
 10 68  1  0
 12 20  1  0
 12 13  1  0
 12 22  1  6
 13 14  1  0
 13 69  1  0
 13 70  1  0
 14 15  1  0
 14 71  1  0
 14 72  1  0
 15 18  1  0
 15 16  1  6
 15 17  1  0
 16 73  1  0
 16 74  1  0
 16 75  1  0
 17 18  1  0
 18 19  1  6
 18 20  1  0
 19 76  1  0
 19 77  1  0
 19 78  1  0
 20 21  1  0
 20 79  1  6
 21 80  1  0
 22 23  1  0
 23 56  1  0
 23 24  1  0
 23 81  1  6
 24 25  1  0
 24 82  1  6
 25 28  1  0
 25 26  1  1
 25 27  1  0
 26 83  1  0
 26 84  1  0
 26 85  1  0
 27 28  1  0
 28 29  1  0
 28 86  1  6
 29 52  1  0
 29 30  1  0
 29 87  1  1
 30 31  1  0
 30 88  1  0
 30 89  1  0
 31 32  1  0
 31 90  1  0
 31 91  1  0
 54 32  1  6
 32 33  1  6
 32 34  1  0
 33 92  1  0
 33 93  1  0
 33 94  1  0
 34 46  1  0
 34 35  1  0
 34 95  1  6
 35 36  1  0
 35 96  1  0
 35 97  1  0
 36 37  2  3
 36 98  1  0
 37 42  1  0
 37 38  1  0
 38 39  1  0
 38 40  1  0
 38 99  1  6
 39100  1  0
 40 41  1  0
 40 42  1  0
 40101  1  6
 41102  1  0
 42 43  1  6
 42 47  1  0
 43 44  2  0
 43 45  1  0
 45 46  1  0
 45103  1  0
 45104  1  0
 46105  1  0
 46106  1  0
 47 52  1  0
 47 48  1  1
 47 49  1  0
 48107  1  0
 48108  1  0
 48109  1  0
 49 50  1  0
 49 51  1  0
 49110  1  1
 50111  1  0
 52 51  1  1
 51112  1  0
 51113  1  0
 52 53  1  0
 53 54  1  0
 53 56  1  0
 53114  1  6
 54 55  2  0
 56 57  1  0
 56 58  1  0
 57115  1  0
 57116  1  0
 57117  1  0
 58118  1  0
 58119  1  0
 58120  1  0
M  END
>  <i_m_ct_stereo_status>  (86) 
1

>  <s_m_source_file>  (86) 
/var/tmp/pbs.5075288.sched01/tmpndvtliwj/216foptgilz.sdf

>  <i_m_source_file_index>  (86) 
23

>  <i_lp_mmshare_version>  (86) 
48012

>  <i_f3d_flags>  (86) 
0

>  <s_epik_input>  (86) 
W09IXVtDQEBIXTFbQ0BdKE8yKShbQ0gzXSlbQ0BdMihbQ0gzXSlbQ0gyXVtDSDJdW0NAXTEzW0NASF0oT0MoPU8pW0NIM10pW0NIMl1bQ0BASF0oQyg9TylPW0NIM10pW0NASF00W0NAQEhdKE8zKUMoW0NIM10pKFtDSDNdKVtDQEhdNVtDQEBdNjdbQ0BASF0oW0NAQEhdOFtDQEBdNChPOClbQ0gzXSlbQ0gyXVtDSDJdW0NAQF0oW0NIM10pKFtTK101W08tXSlbQ0BASF05W0NIMl0vW0NIXT1DLzFbQ0BdKFtDQEhdKFtPSF0pW0NAQEhdMVtPSF0pKEMoPU8pW0NIMl1bQ0gyXTkpW0NAQF02KFtDSDNdKVtDQEBIXShbT0hdKVtDSDJdNw==

>  <s_epik_cmdline>  (86) 
J2VwaWtfcHl0aG9uJywgJy1waHQnLCAnMi4wJywgJy1waCcsICc3LjAnLCAnLXRuJywgJzgnLCAnLW1hJywgJzIwMCcsICctaW1hZScsICc8aW5maWxlLm1hZT4nLCAnLW9tYWUnLCAnPG91dGZpbGUubWFlPic=

>  <r_lp_tautomer_probability>  (86) 
1

>  <r_epik_Ionization_Penalty>  (86) 
1.69518e-06

>  <r_epik_Ionization_Penalty_Charging>  (86) 
0

>  <r_epik_Ionization_Penalty_Neutral>  (86) 
1.69518e-06

>  <r_epik_State_Penalty>  (86) 
-0

>  <r_epik_Charging_Adjusted_Penalty>  (86) 
0

>  <i_epik_Tot_Q>  (86) 
0

>  <i_epik_Tot_abs_Q>  (86) 
2

>  <s_epik_Chemistry_Notes>  (86) 
This compound has an ester and may undergo hydrolysis at high or low pH.

>  <s_lp_Force_Field>  (86) 
OPLS3e

>  <r_lp_Energy>  (86) 
548.854

>  <b_lp_Chiralities_Consistent>  (86) 
1

>  <s_lp_Variant>  (86) 
86:0-2

>  <s_i_glide_gridfile>  (86) 
pfpi4k_grid

>  <i_i_glide_lignum>  (86) 
23

>  <i_i_glide_rotatable_bonds>  (86) 
8

>  <r_i_docking_score>  (86) 
-2.43561

>  <r_i_glide_ligand_efficiency>  (86) 
-0.0419933

>  <r_i_glide_ligand_efficiency_sa>  (86) 
-0.162551

>  <r_i_glide_ligand_efficiency_ln>  (86) 
-0.481305

>  <r_i_glide_gscore>  (86) 
-2.43561

>  <r_i_glide_lipo>  (86) 
-0.204486

>  <r_i_glide_hbond>  (86) 
-0.204657

>  <r_i_glide_metal>  (86) 
-0

>  <r_i_glide_rewards>  (86) 
-0.0338897

>  <r_i_glide_evdw>  (86) 
-28.1797

>  <r_i_glide_ecoul>  (86) 
-3.82048

>  <r_i_glide_erotb>  (86) 
0.0633322

>  <r_i_glide_esite>  (86) 
-0.0738578

>  <r_i_glide_emodel>  (86) 
-29.2878

>  <r_i_glide_energy>  (86) 
-32.0001

>  <r_i_glide_einternal>  (86) 
12.6909

>  <r_i_glide_intrahb_reward>  (86) 
-0

>  <i_i_glide_confnum>  (86) 
4

>  <i_i_glide_posenum>  (86) 
18

>  <r_i_glide_eff_state_penalty>  (86) 
0

>  <ligand_id>  (86) 
86

>  <original_smiles>  (86) 
COC(=O)C1CC(OC(C)=O)C2(CCC3(C)OC3(C)C2O)OC2C1C1(C)OC1C1CCC3(C)C4CC=C5C(O)C(O)C5(C(=O)CC4)C4(C)C(O)CC14C([S+]3[O-])C2(C)C

>  <smiles>  (86) 
[H]OC1([H])C2=C([H])C([H])([H])C3([H])C([H])([H])C([H])([H])C(=O)C2(C1([H])O[H])C1(C([H])([H])[H])C([H])(O[H])C([H])([H])C12C1([H])S(=O)C3(C([H])([H])[H])C([H])([H])C([H])([H])C2([H])C2([H])OC2(C([H])([H])[H])C2([H])C([H])(OC3(C([H])([H])C([H])([H])C4(C([H])([H])[H])OC4(C([H])([H])[H])C3([H])O[H])C([H])(OC(=O)C([H])([H])[H])C([H])([H])C2([H])C(=O)OC([H])([H])[H])C1(C([H])([H])[H])C([H])([H])[H]

$$$$
86:1:2
     RDKit          3D

120129  0  0  1  0  0  0  0  0999 V2000
    7.5727   -6.4462    3.3175 C   0  0  0  0  0  0  0  0  0  0  0  0
    6.8428   -5.8705    4.3759 O   0  0  0  0  0  0  0  0  0  0  0  0
    5.8653   -6.6050    4.9602 C   0  0  0  0  0  0  0  0  0  0  0  0
    5.6133   -7.7511    4.6478 O   0  0  0  0  0  0  0  0  0  0  0  0
    5.1334   -5.8822    6.1182 C   0  0  2  0  0  0  0  0  0  0  0  0
    4.3162   -6.7997    7.0477 C   0  0  0  0  0  0  0  0  0  0  0  0
    2.8253   -7.0743    6.7595 C   0  0  1  0  0  0  0  0  0  0  0  0
    2.0409   -6.4818    7.8074 O   0  0  0  0  0  0  0  0  0  0  0  0
    1.4995   -7.1855    8.8412 C   0  0  0  0  0  0  0  0  0  0  0  0
    2.0054   -8.6168    9.0130 C   0  0  0  0  0  0  0  0  0  0  0  0
    0.6569   -6.7195    9.6118 O   0  0  0  0  0  0  0  0  0  0  0  0
    2.2013   -6.8755    5.3399 C   0  0  1  0  0  0  0  0  0  0  0  0
    2.5998   -8.0885    4.4543 C   0  0  0  0  0  0  0  0  0  0  0  0
    2.2007   -7.8713    2.9941 C   0  0  0  0  0  0  0  0  0  0  0  0
    0.7193   -7.4853    2.8522 C   0  0  2  0  0  0  0  0  0  0  0  0
   -0.0100   -8.2688    1.7760 C   0  0  0  0  0  0  0  0  0  0  0  0
    0.3664   -6.1146    3.0039 O   0  0  0  0  0  0  0  0  0  0  0  0
   -0.0390   -7.0079    4.0298 C   0  0  1  0  0  0  0  0  0  0  0  0
   -1.5495   -7.2062    4.1596 C   0  0  0  0  0  0  0  0  0  0  0  0
    0.6287   -6.9408    5.4298 C   0  0  1  0  0  0  0  0  0  0  0  0
    0.2177   -8.1030    6.1547 O   0  0  0  0  0  0  0  0  0  0  0  0
    2.6179   -5.6712    4.6415 O   0  0  0  0  0  0  0  0  0  0  0  0
    3.0076   -4.3897    5.2018 C   0  0  2  0  0  0  0  0  0  0  0  0
    4.4688   -4.5007    5.8152 C   0  0  1  0  0  0  0  0  0  0  0  0
    4.8868   -3.3689    6.7298 C   0  0  1  0  0  0  0  0  0  0  0  0
    4.8726   -3.6147    8.2290 C   0  0  0  0  0  0  0  0  0  0  0  0
    6.0895   -2.6146    6.4025 O   0  0  0  0  0  0  0  0  0  0  0  0
    4.8439   -2.0648    5.9706 C   0  0  2  0  0  0  0  0  0  0  0  0
    4.3605   -0.7184    6.4280 C   0  0  1  0  0  0  0  0  0  0  0  0
    5.0140    0.2722    5.3714 C   0  0  0  0  0  0  0  0  0  0  0  0
    4.7467    0.2208    3.7954 C   0  0  0  0  0  0  0  0  0  0  0  0
    3.3082    0.4112    3.1129 C   0  0  2  0  0  0  0  0  0  0  0  0
    3.5392    0.1225    1.6106 C   0  0  0  0  0  0  0  0  0  0  0  0
    2.5075    1.9321    3.0300 C   0  0  1  0  0  0  0  0  0  0  0  0
    3.1594    2.4845    4.1992 C   0  0  0  0  0  0  0  0  0  0  0  0
    2.5736    1.6395    5.2507 C   0  0  0  0  0  0  0  0  0  0  0  0
    1.3019    1.0565    5.3942 C   0  0  0  0  0  0  0  0  0  0  0  0
   -0.1073    0.7845    4.6831 C   0  0  1  0  0  0  0  0  0  0  0  0
   -0.2690   -0.3126    3.8394 O   0  0  0  0  0  0  0  0  0  0  0  0
   -0.5665    0.5627    6.1060 C   0  0  1  0  0  0  0  0  0  0  0  0
   -0.9918   -0.7505    6.4201 O   0  0  0  0  0  0  0  0  0  0  0  0
    0.7213    1.2575    6.6655 C   0  0  2  0  0  0  0  0  0  0  0  0
    0.5701    2.8593    6.4214 C   0  0  0  0  0  0  0  0  0  0  0  0
    0.4183    3.6477    7.3523 O   0  0  0  0  0  0  0  0  0  0  0  0
    0.6071    3.5208    4.8880 C   0  0  0  0  0  0  0  0  0  0  0  0
    1.1549    2.8934    3.3835 C   0  0  0  0  0  0  0  0  0  0  0  0
    1.8976    0.4918    7.5462 C   0  0  1  0  0  0  0  0  0  0  0  0
    2.7292    1.5576    8.3660 C   0  0  0  0  0  0  0  0  0  0  0  0
    1.4998   -0.5028    8.6702 C   0  0  1  0  0  0  0  0  0  0  0  0
    0.2425   -1.1052    8.7821 O   0  0  0  0  0  0  0  0  0  0  0  0
    2.6854   -1.3424    8.2732 C   0  0  0  0  0  0  0  0  0  0  0  0
    2.7864   -0.7924    6.8095 C   0  0  2  0  0  0  0  0  0  0  0  0
    2.1437   -1.7018    5.5642 C   0  0  1  0  0  0  0  0  0  0  0  0
    2.5335   -1.2294    3.7144 S   0  0  0  0  0  0  0  0  0  0  0  0
    1.5836   -1.7707    2.6507 O   0  0  0  0  0  0  0  0  0  0  0  0
    1.8512   -3.3276    5.6439 C   0  0  0  0  0  0  0  0  0  0  0  0
    0.6678   -3.5784    4.6357 C   0  0  0  0  0  0  0  0  0  0  0  0
    1.2188   -3.7484    6.9924 C   0  0  0  0  0  0  0  0  0  0  0  0
    8.4148   -5.8149    3.0401 H   0  0  0  0  0  0  0  0  0  0  0  0
    6.9021   -6.5646    2.4752 H   0  0  0  0  0  0  0  0  0  0  0  0
    7.9356   -7.4380    3.5752 H   0  0  0  0  0  0  0  0  0  0  0  0
    5.9942   -5.6349    6.7250 H   0  0  0  0  0  0  0  0  0  0  0  0
    4.8206   -7.7631    7.1356 H   0  0  0  0  0  0  0  0  0  0  0  0
    4.3898   -6.4039    8.0632 H   0  0  0  0  0  0  0  0  0  0  0  0
    2.7624   -8.1506    6.8505 H   0  0  0  0  0  0  0  0  0  0  0  0
    1.7646   -9.2145    8.1286 H   0  0  0  0  0  0  0  0  0  0  0  0
    1.5658   -9.1056    9.8845 H   0  0  0  0  0  0  0  0  0  0  0  0
    3.0918   -8.5850    9.1257 H   0  0  0  0  0  0  0  0  0  0  0  0
    3.6300   -8.3097    4.4831 H   0  0  0  0  0  0  0  0  0  0  0  0
    2.0980   -8.9874    4.8107 H   0  0  0  0  0  0  0  0  0  0  0  0
    2.7966   -7.0792    2.5412 H   0  0  0  0  0  0  0  0  0  0  0  0
    2.3874   -8.7705    2.4220 H   0  0  0  0  0  0  0  0  0  0  0  0
   -0.1268   -9.2894    2.1542 H   0  0  0  0  0  0  0  0  0  0  0  0
    0.5840   -8.2434    0.8700 H   0  0  0  0  0  0  0  0  0  0  0  0
   -1.0038   -7.8436    1.5731 H   0  0  0  0  0  0  0  0  0  0  0  0
   -1.7109   -8.2329    4.4901 H   0  0  0  0  0  0  0  0  0  0  0  0
   -2.0546   -7.0739    3.1952 H   0  0  0  0  0  0  0  0  0  0  0  0
   -1.9829   -6.5085    4.8798 H   0  0  0  0  0  0  0  0  0  0  0  0
    0.2082   -6.1086    5.9754 H   0  0  0  0  0  0  0  0  0  0  0  0
    0.4261   -8.8851    5.6724 H   0  0  0  0  0  0  0  0  0  0  0  0
    3.2295   -3.9565    4.2250 H   0  0  0  0  0  0  0  0  0  0  0  0
    5.0312   -4.2607    4.9189 H   0  0  0  0  0  0  0  0  0  0  0  0
    3.9333   -4.0512    8.5639 H   0  0  0  0  0  0  0  0  0  0  0  0
    5.0575   -2.6922    8.7719 H   0  0  0  0  0  0  0  0  0  0  0  0
    5.6721   -4.3030    8.5001 H   0  0  0  0  0  0  0  0  0  0  0  0
    4.7409   -2.1882    4.9033 H   0  0  0  0  0  0  0  0  0  0  0  0
    4.9100   -0.4965    7.3413 H   0  0  0  0  0  0  0  0  0  0  0  0
    5.0604    1.2870    5.7525 H   0  0  0  0  0  0  0  0  0  0  0  0
    6.0789    0.0427    5.4266 H   0  0  0  0  0  0  0  0  0  0  0  0
    5.4342    0.9314    3.3415 H   0  0  0  0  0  0  0  0  0  0  0  0
    5.1649   -0.7165    3.4305 H   0  0  0  0  0  0  0  0  0  0  0  0
    4.1205    0.9161    1.1466 H   0  0  0  0  0  0  0  0  0  0  0  0
    2.6036    0.0589    1.0574 H   0  0  0  0  0  0  0  0  0  0  0  0
    4.0738   -0.8080    1.4323 H   0  0  0  0  0  0  0  0  0  0  0  0
    1.6981    1.2187    2.9571 H   0  0  0  0  0  0  0  0  0  0  0  0
    4.2315    2.4934    4.1310 H   0  0  0  0  0  0  0  0  0  0  0  0
    3.0422    3.5573    4.3859 H   0  0  0  0  0  0  0  0  0  0  0  0
    3.1661    1.8742    6.0959 H   0  0  0  0  0  0  0  0  0  0  0  0
   -0.7535    1.5675    4.3083 H   0  0  0  0  0  0  0  0  0  0  0  0
   -0.1955   -0.0112    2.9460 H   0  0  0  0  0  0  0  0  0  0  0  0
   -1.4206    1.2039    6.2926 H   0  0  0  0  0  0  0  0  0  0  0  0
   -0.2762   -1.3272    6.2473 H   0  0  0  0  0  0  0  0  0  0  0  0
   -0.4116    3.8520    4.7262 H   0  0  0  0  0  0  0  0  0  0  0  0
    1.1358    4.4550    5.0365 H   0  0  0  0  0  0  0  0  0  0  0  0
    1.3878    3.8136    2.8502 H   0  0  0  0  0  0  0  0  0  0  0  0
    0.2958    2.5879    2.7881 H   0  0  0  0  0  0  0  0  0  0  0  0
    3.7248    1.2006    8.6435 H   0  0  0  0  0  0  0  0  0  0  0  0
    2.2301    1.8470    9.2962 H   0  0  0  0  0  0  0  0  0  0  0  0
    2.8734    2.5308    7.8977 H   0  0  0  0  0  0  0  0  0  0  0  0
    1.6864   -0.1157    9.6723 H   0  0  0  0  0  0  0  0  0  0  0  0
    0.2512   -1.6101    9.5781 H   0  0  0  0  0  0  0  0  0  0  0  0
    3.5248   -1.0506    8.8999 H   0  0  0  0  0  0  0  0  0  0  0  0
    2.5355   -2.3754    8.4714 H   0  0  0  0  0  0  0  0  0  0  0  0
    1.1268   -1.4065    5.6205 H   0  0  0  0  0  0  0  0  0  0  0  0
   -0.0679   -2.7760    4.5939 H   0  0  0  0  0  0  0  0  0  0  0  0
    0.0538   -4.4374    4.8707 H   0  0  0  0  0  0  0  0  0  0  0  0
    1.0160   -3.7610    3.6167 H   0  0  0  0  0  0  0  0  0  0  0  0
    0.6454   -2.9289    7.4026 H   0  0  0  0  0  0  0  0  0  0  0  0
    1.9827   -4.0897    7.6858 H   0  0  0  0  0  0  0  0  0  0  0  0
    0.4920   -4.5463    6.9538 H   0  0  0  0  0  0  0  0  0  0  0  0
  1  2  1  0
  1 59  1  0
  1 60  1  0
  1 61  1  0
  2  3  1  0
  3  4  2  0
  3  5  1  0
  5 24  1  0
  5  6  1  0
  5 62  1  1
  6  7  1  0
  6 63  1  0
  6 64  1  0
  7  8  1  0
  7 12  1  0
  7 65  1  1
  8  9  1  0
  9 10  1  0
  9 11  2  0
 10 66  1  0
 10 67  1  0
 10 68  1  0
 12 20  1  0
 12 13  1  0
 12 22  1  6
 13 14  1  0
 13 69  1  0
 13 70  1  0
 14 15  1  0
 14 71  1  0
 14 72  1  0
 15 18  1  0
 15 16  1  6
 15 17  1  0
 16 73  1  0
 16 74  1  0
 16 75  1  0
 17 18  1  0
 18 19  1  1
 18 20  1  0
 19 76  1  0
 19 77  1  0
 19 78  1  0
 20 21  1  0
 20 79  1  1
 21 80  1  0
 22 23  1  0
 23 56  1  0
 23 24  1  0
 23 81  1  6
 24 25  1  0
 24 82  1  6
 25 28  1  0
 25 26  1  1
 25 27  1  0
 26 83  1  0
 26 84  1  0
 26 85  1  0
 27 28  1  0
 28 29  1  0
 28 86  1  6
 29 52  1  0
 29 30  1  0
 29 87  1  1
 30 31  1  0
 30 88  1  0
 30 89  1  0
 31 32  1  0
 31 90  1  0
 31 91  1  0
 54 32  1  1
 32 33  1  6
 32 34  1  0
 33 92  1  0
 33 93  1  0
 33 94  1  0
 34 46  1  0
 34 35  1  0
 34 95  1  6
 35 36  1  0
 35 96  1  0
 35 97  1  0
 36 37  2  3
 36 98  1  0
 37 42  1  0
 37 38  1  0
 38 39  1  0
 38 40  1  0
 38 99  1  6
 39100  1  0
 40 41  1  0
 40 42  1  0
 40101  1  6
 41102  1  0
 42 43  1  1
 42 47  1  0
 43 44  2  0
 43 45  1  0
 45 46  1  0
 45103  1  0
 45104  1  0
 46105  1  0
 46106  1  0
 47 52  1  0
 47 48  1  1
 47 49  1  0
 48107  1  0
 48108  1  0
 48109  1  0
 49 50  1  0
 49 51  1  0
 49110  1  1
 50111  1  0
 52 51  1  1
 51112  1  0
 51113  1  0
 52 53  1  0
 53 54  1  0
 53 56  1  0
 53114  1  6
 54 55  2  0
 56 57  1  0
 56 58  1  0
 57115  1  0
 57116  1  0
 57117  1  0
 58118  1  0
 58119  1  0
 58120  1  0
M  END
>  <i_m_ct_stereo_status>  (87) 
1

>  <s_m_source_file>  (87) 
/var/tmp/pbs.5075288.sched01/tmpndvtliwj/216foptgilz.sdf

>  <i_m_source_file_index>  (87) 
23

>  <i_lp_mmshare_version>  (87) 
48012

>  <i_f3d_flags>  (87) 
0

>  <s_epik_input>  (87) 
W09IXVtDQEBIXTFbQ0BdKE8yKShbQ0gzXSlbQ0BdMihbQ0gzXSlbQ0gyXVtDSDJdW0NAXTEzW0NASF0oT0MoPU8pW0NIM10pW0NIMl1bQ0BASF0oQyg9TylPW0NIM10pW0NASF00W0NAQEhdKE8zKUMoW0NIM10pKFtDSDNdKVtDQEhdNVtDQEBdNjdbQ0BASF0oW0NAQEhdOFtDQEBdNChPOClbQ0gzXSlbQ0gyXVtDSDJdW0NAQF0oW0NIM10pKFtTK101W08tXSlbQ0BASF05W0NIMl0vW0NIXT1DLzFbQ0BdKFtDQEhdKFtPSF0pW0NAQEhdMVtPSF0pKEMoPU8pW0NIMl1bQ0gyXTkpW0NAQF02KFtDSDNdKVtDQEBIXShbT0hdKVtDSDJdNw==

>  <s_epik_cmdline>  (87) 
J2VwaWtfcHl0aG9uJywgJy1waHQnLCAnMi4wJywgJy1waCcsICc3LjAnLCAnLXRuJywgJzgnLCAnLW1hJywgJzIwMCcsICctaW1hZScsICc8aW5maWxlLm1hZT4nLCAnLW9tYWUnLCAnPG91dGZpbGUubWFlPic=

>  <r_lp_tautomer_probability>  (87) 
1

>  <r_epik_Ionization_Penalty>  (87) 
1.69518e-06

>  <r_epik_Ionization_Penalty_Charging>  (87) 
0

>  <r_epik_Ionization_Penalty_Neutral>  (87) 
1.69518e-06

>  <r_epik_State_Penalty>  (87) 
-0

>  <r_epik_Charging_Adjusted_Penalty>  (87) 
0

>  <i_epik_Tot_Q>  (87) 
0

>  <i_epik_Tot_abs_Q>  (87) 
2

>  <s_epik_Chemistry_Notes>  (87) 
This compound has an ester and may undergo hydrolysis at high or low pH.

>  <s_lp_Force_Field>  (87) 
OPLS3e

>  <r_lp_Energy>  (87) 
548.854

>  <b_lp_Chiralities_Consistent>  (87) 
1

>  <s_lp_Variant>  (87) 
86:0-2

>  <s_i_glide_gridfile>  (87) 
pfpi4k_grid

>  <i_i_glide_lignum>  (87) 
23

>  <i_i_glide_rotatable_bonds>  (87) 
8

>  <r_i_docking_score>  (87) 
-2.37891

>  <r_i_glide_ligand_efficiency>  (87) 
-0.0410156

>  <r_i_glide_ligand_efficiency_sa>  (87) 
-0.158766

>  <r_i_glide_ligand_efficiency_ln>  (87) 
-0.470099

>  <r_i_glide_gscore>  (87) 
-2.37891

>  <r_i_glide_lipo>  (87) 
-0.156019

>  <r_i_glide_hbond>  (87) 
-0.0835366

>  <r_i_glide_metal>  (87) 
-0

>  <r_i_glide_rewards>  (87) 
0

>  <r_i_glide_evdw>  (87) 
-27.706

>  <r_i_glide_ecoul>  (87) 
-5.41672

>  <r_i_glide_erotb>  (87) 
0.0633322

>  <r_i_glide_esite>  (87) 
-0.00487649

>  <r_i_glide_emodel>  (87) 
-31.8537

>  <r_i_glide_energy>  (87) 
-33.1227

>  <r_i_glide_einternal>  (87) 
8.67443

>  <r_i_glide_intrahb_reward>  (87) 
-0

>  <i_i_glide_confnum>  (87) 
2

>  <i_i_glide_posenum>  (87) 
17

>  <r_i_glide_eff_state_penalty>  (87) 
0

>  <ligand_id>  (87) 
86

>  <original_smiles>  (87) 
COC(=O)C1CC(OC(C)=O)C2(CCC3(C)OC3(C)C2O)OC2C1C1(C)OC1C1CCC3(C)C4CC=C5C(O)C(O)C5(C(=O)CC4)C4(C)C(O)CC14C([S+]3[O-])C2(C)C

>  <smiles>  (87) 
[H]OC1([H])C2=C([H])C([H])([H])C3([H])C([H])([H])C([H])([H])C(=O)C2(C1([H])O[H])C1(C([H])([H])[H])C([H])(O[H])C([H])([H])C12C1([H])S(=O)C3(C([H])([H])[H])C([H])([H])C([H])([H])C2([H])C2([H])OC2(C([H])([H])[H])C2([H])C([H])(OC3(C([H])([H])C([H])([H])C4(C([H])([H])[H])OC4(C([H])([H])[H])C3([H])O[H])C([H])(OC(=O)C([H])([H])[H])C([H])([H])C2([H])C(=O)OC([H])([H])[H])C1(C([H])([H])[H])C([H])([H])[H]

$$$$
87:1:0
     RDKit          3D

116124  0  0  1  0  0  0  0  0999 V2000
    0.9872  -10.9505    4.7278 C   0  0  0  0  0  0  0  0  0  0  0  0
    1.1738   -9.6306    4.5830 C   0  0  0  0  0  0  0  0  0  0  0  0
    0.3938   -8.5521    5.2944 C   0  0  0  0  0  0  0  0  0  0  0  0
    0.9771   -7.2199    4.7761 C   0  0  1  0  0  0  0  0  0  0  0  0
    0.2357   -6.9736    3.4106 C   0  0  0  0  0  0  0  0  0  0  0  0
    1.4007   -6.0759    2.2860 S   0  0  0  0  0  0  0  0  0  0  0  0
    1.4310   -6.8165    0.9526 O   0  0  0  0  0  0  0  0  0  0  0  0
    2.9140   -6.5093    3.2671 C   0  0  1  0  0  0  0  0  0  0  0  0
    3.7090   -5.2580    3.8246 C   0  0  1  0  0  0  0  0  0  0  0  0
    5.2305   -5.5775    3.5959 C   0  0  0  0  0  0  0  0  0  0  0  0
    3.4898   -3.6771    3.7607 C   0  0  1  0  0  0  0  0  0  0  0  0
    4.3599   -3.2784    2.7085 O   0  0  0  0  0  0  0  0  0  0  0  0
    2.1280   -2.9804    3.3562 C   0  0  0  0  0  0  0  0  0  0  0  0
    2.1943   -1.8167    2.3813 C   0  0  1  0  0  0  0  0  0  0  0  0
    2.2254   -2.2459    1.0503 O   0  0  0  0  0  0  0  0  0  0  0  0
    1.3432   -0.7287    2.6978 O   0  0  0  0  0  0  0  0  0  0  0  0
    2.7396   -0.4474    2.6770 C   0  0  2  0  0  0  0  0  0  0  0  0
    3.0764    0.5425    1.5446 C   0  0  0  0  0  0  0  0  0  0  0  0
    4.2195    0.1438    0.8086 O   0  0  0  0  0  0  0  0  0  0  0  0
    3.2895   -0.0021    4.0717 C   0  0  1  0  0  0  0  0  0  0  0  0
    2.3548   -0.2126    5.0850 O   0  0  0  0  0  0  0  0  0  0  0  0
    4.7475   -0.5104    4.4501 C   0  0  1  0  0  0  0  0  0  0  0  0
    5.5794   -0.2933    3.3085 O   0  0  0  0  0  0  0  0  0  0  0  0
    5.3947    0.4058    5.5016 C   0  0  0  0  0  0  0  0  0  0  0  0
    6.4323   -0.3520    6.0869 O   0  0  0  0  0  0  0  0  0  0  0  0
    5.9680   -1.6825    6.2521 C   0  0  0  0  0  0  0  0  0  0  0  0
    5.0575   -1.9393    5.0351 C   0  0  1  0  0  0  0  0  0  0  0  0
    4.0131   -3.1358    5.1836 C   0  0  1  0  0  0  0  0  0  0  0  0
    3.0021   -3.2142    6.4511 C   0  0  2  0  0  0  0  0  0  0  0  0
    3.1846   -1.8851    6.9525 O   0  0  0  0  0  0  0  0  0  0  0  0
    2.6945   -1.4968    8.1886 C   0  0  1  0  0  0  0  0  0  0  0  0
    3.3336   -0.1372    8.5350 C   0  0  0  0  0  0  0  0  0  0  0  0
    1.1312   -1.4822    8.1879 C   0  0  0  0  0  0  0  0  0  0  0  0
    0.4327   -0.5098    7.2391 C   0  0  0  0  0  0  0  0  0  0  0  0
    0.7762    0.6688    7.1621 O   0  0  0  0  0  0  0  0  0  0  0  0
   -0.5582   -1.0967    6.5221 O   0  0  0  0  0  0  0  0  0  0  0  0
   -1.2210   -0.3574    5.5091 C   0  0  0  0  0  0  0  0  0  0  0  0
    3.1985   -2.3563    9.1488 O   0  0  0  0  0  0  0  0  0  0  0  0
    2.8757   -3.7186    8.9804 C   0  0  0  0  0  0  0  0  0  0  0  0
    3.1693   -4.3721    7.5822 C   0  0  1  0  0  0  0  0  0  0  0  0
    2.3469   -5.7866    7.5915 C   0  0  1  0  0  0  0  0  0  0  0  0
    0.8501   -5.7439    7.1726 C   0  0  1  0  0  0  0  0  0  0  0  0
    0.0983   -4.7397    7.8666 O   0  0  0  0  0  0  0  0  0  0  0  0
   -1.2546   -4.6505    7.8310 C   0  0  0  0  0  0  0  0  0  0  0  0
   -1.8218   -4.0169    9.1001 C   0  0  0  0  0  0  0  0  0  0  0  0
   -1.9910   -5.0195    6.9234 O   0  0  0  0  0  0  0  0  0  0  0  0
    0.5033   -5.9927    5.6681 C   0  0  1  0  0  0  0  0  0  0  0  0
    0.6415   -4.7699    5.0050 O   0  0  0  0  0  0  0  0  0  0  0  0
    2.5815   -7.3436    7.7065 C   0  0  1  0  0  0  0  0  0  0  0  0
    3.5208   -8.2148    6.8906 C   0  0  1  0  0  0  0  0  0  0  0  0
    3.0951   -9.5689    6.9330 O   0  0  0  0  0  0  0  0  0  0  0  0
    3.6860   -7.7516    5.4424 C   0  0  1  0  0  0  0  0  0  0  0  0
    4.7348   -8.5525    4.9203 O   0  0  0  0  0  0  0  0  0  0  0  0
    2.4871   -7.5656    4.3717 C   0  0  1  0  0  0  0  0  0  0  0  0
    2.2360   -8.9819    3.7299 C   0  0  0  0  0  0  0  0  0  0  0  0
    2.8760   -6.5551    8.8826 C   0  0  0  0  0  0  0  0  0  0  0  0
    4.3400   -6.6148    9.3476 C   0  0  0  0  0  0  0  0  0  0  0  0
    1.9651   -6.6744   10.1046 C   0  0  0  0  0  0  0  0  0  0  0  0
    1.6091  -11.6523    4.2018 H   0  0  0  0  0  0  0  0  0  0  0  0
    0.2095  -11.3209    5.3778 H   0  0  0  0  0  0  0  0  0  0  0  0
   -0.6766   -8.6539    5.1030 H   0  0  0  0  0  0  0  0  0  0  0  0
    0.5193   -8.6790    6.3639 H   0  0  0  0  0  0  0  0  0  0  0  0
   -0.0610   -7.8879    2.9008 H   0  0  0  0  0  0  0  0  0  0  0  0
   -0.6958   -6.4123    3.4944 H   0  0  0  0  0  0  0  0  0  0  0  0
    3.5613   -7.0174    2.5419 H   0  0  0  0  0  0  0  0  0  0  0  0
    3.3962   -5.3379    4.8491 H   0  0  0  0  0  0  0  0  0  0  0  0
    5.4783   -5.5052    2.5355 H   0  0  0  0  0  0  0  0  0  0  0  0
    5.5249   -6.5801    3.8706 H   0  0  0  0  0  0  0  0  0  0  0  0
    5.9112   -4.9075    4.1180 H   0  0  0  0  0  0  0  0  0  0  0  0
    3.9822   -3.5489    1.8813 H   0  0  0  0  0  0  0  0  0  0  0  0
    1.3999   -3.6503    2.9340 H   0  0  0  0  0  0  0  0  0  0  0  0
    1.6046   -2.5989    4.2438 H   0  0  0  0  0  0  0  0  0  0  0  0
    1.8204   -1.5539    0.5109 H   0  0  0  0  0  0  0  0  0  0  0  0
    2.2220    0.6024    0.8814 H   0  0  0  0  0  0  0  0  0  0  0  0
    3.2175    1.5460    1.9403 H   0  0  0  0  0  0  0  0  0  0  0  0
    4.4738    0.8472    0.2065 H   0  0  0  0  0  0  0  0  0  0  0  0
    3.3929    1.0895    4.0056 H   0  0  0  0  0  0  0  0  0  0  0  0
    2.3473   -1.1458    5.1871 H   0  0  0  0  0  0  0  0  0  0  0  0
    6.4720   -0.5052    3.5400 H   0  0  0  0  0  0  0  0  0  0  0  0
    5.7706    1.3402    5.0924 H   0  0  0  0  0  0  0  0  0  0  0  0
    4.6751    0.6728    6.2714 H   0  0  0  0  0  0  0  0  0  0  0  0
    6.8199   -2.3640    6.2744 H   0  0  0  0  0  0  0  0  0  0  0  0
    5.4902   -1.7842    7.2271 H   0  0  0  0  0  0  0  0  0  0  0  0
    5.7915   -2.3522    4.3601 H   0  0  0  0  0  0  0  0  0  0  0  0
    4.7430   -3.8676    5.5257 H   0  0  0  0  0  0  0  0  0  0  0  0
    1.9577   -3.1989    6.1788 H   0  0  0  0  0  0  0  0  0  0  0  0
    4.4284   -0.2207    8.5472 H   0  0  0  0  0  0  0  0  0  0  0  0
    3.0398    0.1536    9.5428 H   0  0  0  0  0  0  0  0  0  0  0  0
    3.0204    0.6343    7.8307 H   0  0  0  0  0  0  0  0  0  0  0  0
    0.7839   -2.4799    7.9478 H   0  0  0  0  0  0  0  0  0  0  0  0
    0.8108   -1.2685    9.2023 H   0  0  0  0  0  0  0  0  0  0  0  0
   -2.0819   -0.9124    5.1317 H   0  0  0  0  0  0  0  0  0  0  0  0
   -0.5332   -0.1721    4.6846 H   0  0  0  0  0  0  0  0  0  0  0  0
   -1.5672    0.6062    5.8866 H   0  0  0  0  0  0  0  0  0  0  0  0
    3.4543   -4.1807    9.7725 H   0  0  0  0  0  0  0  0  0  0  0  0
    1.8420   -3.8544    9.2982 H   0  0  0  0  0  0  0  0  0  0  0  0
    4.2285   -4.6167    7.5814 H   0  0  0  0  0  0  0  0  0  0  0  0
    0.3800   -6.6140    7.6247 H   0  0  0  0  0  0  0  0  0  0  0  0
   -1.3326   -3.0664    9.3089 H   0  0  0  0  0  0  0  0  0  0  0  0
   -1.6634   -4.6872    9.9451 H   0  0  0  0  0  0  0  0  0  0  0  0
   -2.8929   -3.8667    8.9835 H   0  0  0  0  0  0  0  0  0  0  0  0
   -0.5690   -6.1642    5.6723 H   0  0  0  0  0  0  0  0  0  0  0  0
    1.5592   -4.5481    4.9730 H   0  0  0  0  0  0  0  0  0  0  0  0
    1.7211   -7.9672    7.9430 H   0  0  0  0  0  0  0  0  0  0  0  0
    4.5058   -8.2145    7.3618 H   0  0  0  0  0  0  0  0  0  0  0  0
    3.0002   -9.8445    7.8344 H   0  0  0  0  0  0  0  0  0  0  0  0
    4.2141   -6.8422    5.6692 H   0  0  0  0  0  0  0  0  0  0  0  0
    4.4046   -9.4384    4.8564 H   0  0  0  0  0  0  0  0  0  0  0  0
    3.0942   -9.6371    3.6287 H   0  0  0  0  0  0  0  0  0  0  0  0
    1.8500   -8.9030    2.7115 H   0  0  0  0  0  0  0  0  0  0  0  0
    4.5668   -7.6065    9.7439 H   0  0  0  0  0  0  0  0  0  0  0  0
    4.5608   -5.9058   10.1459 H   0  0  0  0  0  0  0  0  0  0  0  0
    5.0291   -6.4196    8.5258 H   0  0  0  0  0  0  0  0  0  0  0  0
    2.2129   -7.5639   10.6865 H   0  0  0  0  0  0  0  0  0  0  0  0
    0.9178   -6.7449    9.8128 H   0  0  0  0  0  0  0  0  0  0  0  0
    2.0713   -5.8079   10.7590 H   0  0  0  0  0  0  0  0  0  0  0  0
  1  2  2  0
  1 59  1  0
  1 60  1  0
  2 55  1  0
  2  3  1  0
  4  3  1  1
  3 61  1  0
  3 62  1  0
  4 47  1  0
  4 54  1  0
  4  5  1  0
  6  5  1  1
  5 63  1  0
  5 64  1  0
  6  7  2  0
  6  8  1  0
  8 54  1  0
  8  9  1  0
  8 65  1  6
  9 10  1  0
  9 11  1  0
  9 66  1  1
 10 67  1  0
 10 68  1  0
 10 69  1  0
 11 28  1  0
 11 12  1  6
 11 13  1  0
 12 70  1  0
 13 14  1  0
 13 71  1  0
 13 72  1  0
 14 17  1  0
 14 15  1  6
 14 16  1  0
 15 73  1  0
 16 17  1  0
 17 18  1  6
 17 20  1  0
 18 19  1  0
 18 74  1  0
 18 75  1  0
 19 76  1  0
 20 21  1  0
 20 22  1  0
 20 77  1  6
 21 78  1  0
 22 27  1  0
 22 23  1  6
 22 24  1  0
 23 79  1  0
 24 25  1  0
 24 80  1  0
 24 81  1  0
 25 26  1  0
 26 27  1  0
 26 82  1  0
 26 83  1  0
 27 28  1  0
 27 84  1  6
 28 29  1  0
 28 85  1  1
 29 40  1  0
 29 30  1  0
 29 86  1  6
 30 31  1  0
 31 32  1  1
 31 33  1  0
 31 38  1  0
 32 87  1  0
 32 88  1  0
 32 89  1  0
 33 34  1  0
 33 90  1  0
 33 91  1  0
 34 35  2  0
 34 36  1  0
 36 37  1  0
 37 92  1  0
 37 93  1  0
 37 94  1  0
 38 39  1  0
 39 40  1  0
 39 95  1  0
 39 96  1  0
 40 41  1  0
 40 97  1  1
 41 56  1  1
 41 42  1  0
 41 49  1  0
 42 43  1  0
 42 47  1  0
 42 98  1  1
 43 44  1  0
 44 45  1  0
 44 46  2  0
 45 99  1  0
 45100  1  0
 45101  1  0
 47 48  1  0
 47102  1  1
 48103  1  0
 49 50  1  0
 49 56  1  0
 49104  1  1
 50 51  1  0
 50 52  1  0
 50105  1  1
 51106  1  0
 52 53  1  0
 52 54  1  0
 52107  1  1
 53108  1  0
 54 55  1  6
 55109  1  0
 55110  1  0
 56 57  1  0
 56 58  1  0
 57111  1  0
 57112  1  0
 57113  1  0
 58114  1  0
 58115  1  0
 58116  1  0
M  END
>  <i_m_ct_stereo_status>  (88) 
1

>  <s_m_source_file>  (88) 
/var/tmp/pbs.5075288.sched01/tmpndvtliwj/216foptgilz.sdf

>  <i_m_source_file_index>  (88) 
27

>  <i_lp_mmshare_version>  (88) 
48012

>  <i_f3d_flags>  (88) 
0

>  <s_epik_input>  (88) 
W0NIMl09QyhbQ0gyXTEpW0NIMl1bQ0BdMihbQ0BdMTM0KVtDQEBIXShbUytdKFtPLV0pW0NIMl0zKVtDQEBIXShbQ0gzXSlbQ0BdNShbT0hdKVtDQEhdKFtDQEhdNltDQF0oW09IXSkoW0NIMl1PW0NIMl02KVtDQEhdKFtPSF0pW0NAXTcoW0NAXShPNykoW0NIMl01KVtPSF0pW0NIMl1bT0hdKVtDQEhdOFtDQEhdKFtDQF05KFtDQEhdKFtDQEhdNFtPSF0pT0MoPU8pW0NIM10pW0NASF0oQzkoW0NIM10pW0NIM10pW0NAQEhdKFtPSF0pW0NASF0yW09IXSlbQ0gyXU9bQ0BdKE84KShbQ0gzXSlbQ0gyXUMoPU8pT1tDSDNd

>  <s_epik_cmdline>  (88) 
J2VwaWtfcHl0aG9uJywgJy1waHQnLCAnMi4wJywgJy1waCcsICc3LjAnLCAnLXRuJywgJzgnLCAnLW1hJywgJzIwMCcsICctaW1hZScsICc8aW5maWxlLm1hZT4nLCAnLW9tYWUnLCAnPG91dGZpbGUubWFlPic=

>  <r_lp_tautomer_probability>  (88) 
1

>  <r_epik_Ionization_Penalty>  (88) 
1.07931e-05

>  <r_epik_Ionization_Penalty_Charging>  (88) 
0

>  <r_epik_Ionization_Penalty_Neutral>  (88) 
1.07931e-05

>  <r_epik_State_Penalty>  (88) 
-0

>  <r_epik_Charging_Adjusted_Penalty>  (88) 
0

>  <i_epik_Tot_Q>  (88) 
0

>  <i_epik_Tot_abs_Q>  (88) 
2

>  <s_epik_Chemistry_Notes>  (88) 
This compound has an ester and may undergo hydrolysis at high or low pH.

>  <s_lp_Force_Field>  (88) 
OPLS3e

>  <r_lp_Energy>  (88) 
213.917

>  <b_lp_Chiralities_Consistent>  (88) 
1

>  <s_lp_Variant>  (88) 
87:0-2

>  <s_i_glide_gridfile>  (88) 
pfpi4k_grid

>  <i_i_glide_lignum>  (88) 
27

>  <i_i_glide_rotatable_bonds>  (88) 
14

>  <r_i_docking_score>  (88) 
-2.58788

>  <r_i_glide_ligand_efficiency>  (88) 
-0.0446186

>  <r_i_glide_ligand_efficiency_sa>  (88) 
-0.172713

>  <r_i_glide_ligand_efficiency_ln>  (88) 
-0.511394

>  <r_i_glide_gscore>  (88) 
-2.58788

>  <r_i_glide_lipo>  (88) 
-0.332375

>  <r_i_glide_hbond>  (88) 
-0.000230111

>  <r_i_glide_metal>  (88) 
-0

>  <r_i_glide_rewards>  (88) 
0

>  <r_i_glide_evdw>  (88) 
-32.3966

>  <r_i_glide_ecoul>  (88) 
-4.18771

>  <r_i_glide_erotb>  (88) 
0.0863056

>  <r_i_glide_esite>  (88) 
-0.0935918

>  <r_i_glide_emodel>  (88) 
-36.5672

>  <r_i_glide_energy>  (88) 
-36.5844

>  <r_i_glide_einternal>  (88) 
8.80618

>  <r_i_glide_intrahb_reward>  (88) 
-0

>  <i_i_glide_confnum>  (88) 
1

>  <i_i_glide_posenum>  (88) 
7

>  <r_i_glide_eff_state_penalty>  (88) 
0

>  <ligand_id>  (88) 
87

>  <original_smiles>  (88) 
C=C1CC23C[S+]([O-])C4C(C)C5(O)CC6(O)OC6(CO)C(O)C6(O)COCC6C5C5OC(C)(CC(=O)OC)OCC5C5(C(OC(C)=O)C2O)C(C(O)C(O)C43C1)C5(C)C

>  <smiles>  (88) 
[H]OC([H])([H])C12OC1(O[H])C([H])([H])C1(O[H])C([H])(C([H])([H])[H])C3([H])S(=O)C([H])([H])C45C([H])([H])C(=C([H])[H])C([H])([H])C34C([H])(O[H])C([H])(O[H])C3([H])C(C([H])([H])[H])(C([H])([H])[H])C3(C([H])(OC(=O)C([H])([H])[H])C5([H])O[H])C3([H])C([H])([H])OC(C([H])([H])[H])(C([H])([H])C(=O)OC([H])([H])[H])OC3([H])C1([H])C1([H])C([H])([H])OC([H])([H])C1(O[H])C2([H])O[H]

$$$$
87:1:1
     RDKit          3D

116124  0  0  1  0  0  0  0  0999 V2000
    5.6197   -4.7182    5.4808 C   0  0  0  0  0  0  0  0  0  0  0  0
    4.7037   -3.7502    5.3563 C   0  0  0  0  0  0  0  0  0  0  0  0
    3.5592   -3.5100    6.3159 C   0  0  0  0  0  0  0  0  0  0  0  0
    2.7806   -2.3243    5.7126 C   0  0  1  0  0  0  0  0  0  0  0  0
    1.8333   -2.9831    4.6424 C   0  0  0  0  0  0  0  0  0  0  0  0
    1.6101   -1.7671    3.2678 S   0  0  0  0  0  0  0  0  0  0  0  0
    2.0048   -2.4859    1.9774 O   0  0  0  0  0  0  0  0  0  0  0  0
    3.0524   -0.7210    3.7607 C   0  0  1  0  0  0  0  0  0  0  0  0
    2.6688    0.7530    4.1685 C   0  0  1  0  0  0  0  0  0  0  0  0
    3.7301    1.6259    3.4930 C   0  0  0  0  0  0  0  0  0  0  0  0
    1.3511    1.6101    4.2050 C   0  0  1  0  0  0  0  0  0  0  0  0
    1.3414    2.2725    2.9397 O   0  0  0  0  0  0  0  0  0  0  0  0
   -0.0762    0.9764    4.2551 C   0  0  0  0  0  0  0  0  0  0  0  0
   -1.1490    1.6206    3.4349 C   0  0  1  0  0  0  0  0  0  0  0  0
   -1.2346    1.1367    2.0993 O   0  0  0  0  0  0  0  0  0  0  0  0
   -2.4113    1.7425    4.0930 O   0  0  0  0  0  0  0  0  0  0  0  0
   -1.8269    2.9670    3.6385 C   0  0  2  0  0  0  0  0  0  0  0  0
   -2.5361    3.6020    2.4685 C   0  0  0  0  0  0  0  0  0  0  0  0
   -3.2846    4.7732    2.6620 O   0  0  0  0  0  0  0  0  0  0  0  0
   -1.4211    3.9448    4.7481 C   0  0  1  0  0  0  0  0  0  0  0  0
   -1.6133    3.3621    5.9838 O   0  0  0  0  0  0  0  0  0  0  0  0
   -0.0808    4.7306    4.6365 C   0  0  1  0  0  0  0  0  0  0  0  0
   -0.0357    5.2980    3.3329 O   0  0  0  0  0  0  0  0  0  0  0  0
   -0.1273    5.9728    5.5356 C   0  0  0  0  0  0  0  0  0  0  0  0
    1.2069    6.3567    5.7892 O   0  0  0  0  0  0  0  0  0  0  0  0
    1.9552    5.1878    5.9718 C   0  0  0  0  0  0  0  0  0  0  0  0
    1.3002    4.1354    5.0357 C   0  0  1  0  0  0  0  0  0  0  0  0
    1.5922    2.6231    5.4338 C   0  0  1  0  0  0  0  0  0  0  0  0
    1.3470    2.0698    6.9333 C   0  0  2  0  0  0  0  0  0  0  0  0
    0.5444    3.1535    7.4250 O   0  0  0  0  0  0  0  0  0  0  0  0
    0.2569    3.2933    8.7708 C   0  0  1  0  0  0  0  0  0  0  0  0
   -0.3172    4.7021    8.9801 C   0  0  0  0  0  0  0  0  0  0  0  0
   -0.6933    2.1447    9.2377 C   0  0  0  0  0  0  0  0  0  0  0  0
   -2.0793    2.1522    8.6216 C   0  0  0  0  0  0  0  0  0  0  0  0
   -2.3721    1.3785    7.7137 O   0  0  0  0  0  0  0  0  0  0  0  0
   -2.9005    3.0787    9.1394 O   0  0  0  0  0  0  0  0  0  0  0  0
   -4.1401    3.3077    8.5544 C   0  0  0  0  0  0  0  0  0  0  0  0
    1.4255    3.2880    9.4933 O   0  0  0  0  0  0  0  0  0  0  0  0
    2.2138    2.1264    9.3556 C   0  0  0  0  0  0  0  0  0  0  0  0
    2.5952    1.6809    7.9019 C   0  0  1  0  0  0  0  0  0  0  0  0
    3.1789    0.1637    8.0515 C   0  0  1  0  0  0  0  0  0  0  0  0
    2.1546   -0.9936    8.0835 C   0  0  1  0  0  0  0  0  0  0  0  0
    1.0273   -0.8065    8.9325 O   0  0  0  0  0  0  0  0  0  0  0  0
    0.5300   -1.7547    9.7804 C   0  0  0  0  0  0  0  0  0  0  0  0
    1.2721   -3.0969    9.9258 C   0  0  0  0  0  0  0  0  0  0  0  0
   -0.5145   -1.5869   10.4092 O   0  0  0  0  0  0  0  0  0  0  0  0
    1.7633   -1.6994    6.7534 C   0  0  1  0  0  0  0  0  0  0  0  0
    0.7551   -0.9549    6.1427 O   0  0  0  0  0  0  0  0  0  0  0  0
    4.5368   -0.6303    8.0274 C   0  0  1  0  0  0  0  0  0  0  0  0
    5.5765   -0.6728    6.9474 C   0  0  1  0  0  0  0  0  0  0  0  0
    6.3680   -1.8497    7.0698 O   0  0  0  0  0  0  0  0  0  0  0  0
    4.9661   -0.5101    5.5559 C   0  0  1  0  0  0  0  0  0  0  0  0
    6.0715   -0.2495    4.7139 O   0  0  0  0  0  0  0  0  0  0  0  0
    3.8635   -1.4982    4.8781 C   0  0  1  0  0  0  0  0  0  0  0  0
    4.6763   -2.6959    4.2707 C   0  0  0  0  0  0  0  0  0  0  0  0
    4.3591    0.3079    9.1089 C   0  0  0  0  0  0  0  0  0  0  0  0
    5.4010    1.4319    9.1416 C   0  0  0  0  0  0  0  0  0  0  0  0
    4.1766   -0.2148   10.5355 C   0  0  0  0  0  0  0  0  0  0  0  0
    6.4158   -4.8175    4.7565 H   0  0  0  0  0  0  0  0  0  0  0  0
    5.5835   -5.4215    6.3010 H   0  0  0  0  0  0  0  0  0  0  0  0
    2.9564   -4.4142    6.4231 H   0  0  0  0  0  0  0  0  0  0  0  0
    3.9727   -3.2987    7.2962 H   0  0  0  0  0  0  0  0  0  0  0  0
    2.2499   -3.8870    4.1987 H   0  0  0  0  0  0  0  0  0  0  0  0
    0.8564   -3.3043    5.0272 H   0  0  0  0  0  0  0  0  0  0  0  0
    3.6667   -0.6908    2.8532 H   0  0  0  0  0  0  0  0  0  0  0  0
    2.7644    0.6630    5.2367 H   0  0  0  0  0  0  0  0  0  0  0  0
    3.5712    1.5897    2.4123 H   0  0  0  0  0  0  0  0  0  0  0  0
    4.7591    1.2885    3.6368 H   0  0  0  0  0  0  0  0  0  0  0  0
    3.7565    2.6802    3.7777 H   0  0  0  0  0  0  0  0  0  0  0  0
    0.5991    2.8375    2.8605 H   0  0  0  0  0  0  0  0  0  0  0  0
   -0.1135   -0.0558    3.9908 H   0  0  0  0  0  0  0  0  0  0  0  0
   -0.4753    0.9936    5.2755 H   0  0  0  0  0  0  0  0  0  0  0  0
   -0.8897    1.7510    1.4734 H   0  0  0  0  0  0  0  0  0  0  0  0
   -1.7687    3.9062    1.7718 H   0  0  0  0  0  0  0  0  0  0  0  0
   -3.1603    2.8619    1.9878 H   0  0  0  0  0  0  0  0  0  0  0  0
   -3.8540    4.9409    1.9023 H   0  0  0  0  0  0  0  0  0  0  0  0
   -2.2222    4.6790    4.7960 H   0  0  0  0  0  0  0  0  0  0  0  0
   -1.0114    2.6443    6.0920 H   0  0  0  0  0  0  0  0  0  0  0  0
    0.1623    4.6771    2.6413 H   0  0  0  0  0  0  0  0  0  0  0  0
   -0.5707    6.8332    5.0543 H   0  0  0  0  0  0  0  0  0  0  0  0
   -0.6320    5.7654    6.4765 H   0  0  0  0  0  0  0  0  0  0  0  0
    2.9857    5.4085    5.6866 H   0  0  0  0  0  0  0  0  0  0  0  0
    1.9444    4.9530    7.0399 H   0  0  0  0  0  0  0  0  0  0  0  0
    1.9177    4.2897    4.1511 H   0  0  0  0  0  0  0  0  0  0  0  0
    2.6723    2.7535    5.5230 H   0  0  0  0  0  0  0  0  0  0  0  0
    0.6401    1.2484    6.9777 H   0  0  0  0  0  0  0  0  0  0  0  0
    0.4229    5.4593    8.6894 H   0  0  0  0  0  0  0  0  0  0  0  0
   -0.5339    4.8515   10.0317 H   0  0  0  0  0  0  0  0  0  0  0  0
   -1.2297    4.8763    8.4115 H   0  0  0  0  0  0  0  0  0  0  0  0
   -0.2675    1.1712    8.9950 H   0  0  0  0  0  0  0  0  0  0  0  0
   -0.8111    2.1920   10.3163 H   0  0  0  0  0  0  0  0  0  0  0  0
   -4.5418    4.2771    8.8406 H   0  0  0  0  0  0  0  0  0  0  0  0
   -4.8673    2.5787    8.8708 H   0  0  0  0  0  0  0  0  0  0  0  0
   -4.0609    3.2449    7.4668 H   0  0  0  0  0  0  0  0  0  0  0  0
    3.0839    2.4059    9.9330 H   0  0  0  0  0  0  0  0  0  0  0  0
    1.7476    1.3298    9.9379 H   0  0  0  0  0  0  0  0  0  0  0  0
    3.4056    2.3284    7.5830 H   0  0  0  0  0  0  0  0  0  0  0  0
    2.6529   -1.8091    8.5709 H   0  0  0  0  0  0  0  0  0  0  0  0
    2.3144   -2.9517   10.2347 H   0  0  0  0  0  0  0  0  0  0  0  0
    1.2659   -3.6445    8.9821 H   0  0  0  0  0  0  0  0  0  0  0  0
    0.7926   -3.7360   10.6520 H   0  0  0  0  0  0  0  0  0  0  0  0
    1.2014   -2.5644    7.1060 H   0  0  0  0  0  0  0  0  0  0  0  0
    1.1377   -0.1446    5.8634 H   0  0  0  0  0  0  0  0  0  0  0  0
    4.5768   -1.6085    8.5040 H   0  0  0  0  0  0  0  0  0  0  0  0
    6.2811    0.1463    7.1041 H   0  0  0  0  0  0  0  0  0  0  0  0
    5.8367   -2.6098    6.9138 H   0  0  0  0  0  0  0  0  0  0  0  0
    4.5945    0.4871    5.7309 H   0  0  0  0  0  0  0  0  0  0  0  0
    5.7595   -0.1243    3.8345 H   0  0  0  0  0  0  0  0  0  0  0  0
    5.6753   -2.4639    3.9256 H   0  0  0  0  0  0  0  0  0  0  0  0
    4.1700   -3.1404    3.4154 H   0  0  0  0  0  0  0  0  0  0  0  0
    6.3798    1.0215    9.4010 H   0  0  0  0  0  0  0  0  0  0  0  0
    5.1651    2.1967    9.8838 H   0  0  0  0  0  0  0  0  0  0  0  0
    5.4811    1.9111    8.1645 H   0  0  0  0  0  0  0  0  0  0  0  0
    5.1351   -0.4955   10.9705 H   0  0  0  0  0  0  0  0  0  0  0  0
    3.5351   -1.0897   10.5504 H   0  0  0  0  0  0  0  0  0  0  0  0
    3.7285    0.5405   11.1778 H   0  0  0  0  0  0  0  0  0  0  0  0
  1  2  2  0
  1 59  1  0
  1 60  1  0
  2 55  1  0
  2  3  1  0
  4  3  1  1
  3 61  1  0
  3 62  1  0
  4 47  1  0
  4 54  1  0
  4  5  1  0
  6  5  1  1
  5 63  1  0
  5 64  1  0
  6  7  2  0
  6  8  1  0
  8 54  1  0
  8  9  1  0
  8 65  1  6
  9 10  1  0
  9 11  1  0
  9 66  1  1
 10 67  1  0
 10 68  1  0
 10 69  1  0
 11 28  1  0
 11 12  1  6
 11 13  1  0
 12 70  1  0
 13 14  1  0
 13 71  1  0
 13 72  1  0
 14 17  1  0
 14 15  1  6
 14 16  1  0
 15 73  1  0
 16 17  1  0
 17 18  1  6
 17 20  1  0
 18 19  1  0
 18 74  1  0
 18 75  1  0
 19 76  1  0
 20 21  1  0
 20 22  1  0
 20 77  1  1
 21 78  1  0
 22 27  1  0
 22 23  1  6
 22 24  1  0
 23 79  1  0
 24 25  1  0
 24 80  1  0
 24 81  1  0
 25 26  1  0
 26 27  1  0
 26 82  1  0
 26 83  1  0
 27 28  1  0
 27 84  1  6
 28 29  1  0
 28 85  1  1
 29 40  1  0
 29 30  1  0
 29 86  1  6
 30 31  1  0
 31 32  1  6
 31 33  1  0
 31 38  1  0
 32 87  1  0
 32 88  1  0
 32 89  1  0
 33 34  1  0
 33 90  1  0
 33 91  1  0
 34 35  2  0
 34 36  1  0
 36 37  1  0
 37 92  1  0
 37 93  1  0
 37 94  1  0
 38 39  1  0
 39 40  1  0
 39 95  1  0
 39 96  1  0
 40 41  1  0
 40 97  1  6
 41 56  1  1
 41 42  1  0
 41 49  1  0
 42 43  1  0
 42 47  1  0
 42 98  1  1
 43 44  1  0
 44 45  1  0
 44 46  2  0
 45 99  1  0
 45100  1  0
 45101  1  0
 47 48  1  0
 47102  1  1
 48103  1  0
 49 50  1  0
 49 56  1  0
 49104  1  1
 50 51  1  0
 50 52  1  0
 50105  1  1
 51106  1  0
 52 53  1  0
 52 54  1  0
 52107  1  1
 53108  1  0
 54 55  1  6
 55109  1  0
 55110  1  0
 56 57  1  0
 56 58  1  0
 57111  1  0
 57112  1  0
 57113  1  0
 58114  1  0
 58115  1  0
 58116  1  0
M  END
>  <i_m_ct_stereo_status>  (89) 
1

>  <s_m_source_file>  (89) 
/var/tmp/pbs.5075288.sched01/tmpndvtliwj/216foptgilz.sdf

>  <i_m_source_file_index>  (89) 
27

>  <i_lp_mmshare_version>  (89) 
48012

>  <i_f3d_flags>  (89) 
0

>  <s_epik_input>  (89) 
W0NIMl09QyhbQ0gyXTEpW0NIMl1bQ0BdMihbQ0BdMTM0KVtDQEBIXShbUytdKFtPLV0pW0NIMl0zKVtDQEBIXShbQ0gzXSlbQ0BdNShbT0hdKVtDQEhdKFtDQEhdNltDQF0oW09IXSkoW0NIMl1PW0NIMl02KVtDQEhdKFtPSF0pW0NAXTcoW0NAXShPNykoW0NIMl01KVtPSF0pW0NIMl1bT0hdKVtDQEhdOFtDQEhdKFtDQF05KFtDQEhdKFtDQEhdNFtPSF0pT0MoPU8pW0NIM10pW0NASF0oQzkoW0NIM10pW0NIM10pW0NAQEhdKFtPSF0pW0NASF0yW09IXSlbQ0gyXU9bQ0BdKE84KShbQ0gzXSlbQ0gyXUMoPU8pT1tDSDNd

>  <s_epik_cmdline>  (89) 
J2VwaWtfcHl0aG9uJywgJy1waHQnLCAnMi4wJywgJy1waCcsICc3LjAnLCAnLXRuJywgJzgnLCAnLW1hJywgJzIwMCcsICctaW1hZScsICc8aW5maWxlLm1hZT4nLCAnLW9tYWUnLCAnPG91dGZpbGUubWFlPic=

>  <r_lp_tautomer_probability>  (89) 
1

>  <r_epik_Ionization_Penalty>  (89) 
1.07931e-05

>  <r_epik_Ionization_Penalty_Charging>  (89) 
0

>  <r_epik_Ionization_Penalty_Neutral>  (89) 
1.07931e-05

>  <r_epik_State_Penalty>  (89) 
-0

>  <r_epik_Charging_Adjusted_Penalty>  (89) 
0

>  <i_epik_Tot_Q>  (89) 
0

>  <i_epik_Tot_abs_Q>  (89) 
2

>  <s_epik_Chemistry_Notes>  (89) 
This compound has an ester and may undergo hydrolysis at high or low pH.

>  <s_lp_Force_Field>  (89) 
OPLS3e

>  <r_lp_Energy>  (89) 
213.917

>  <b_lp_Chiralities_Consistent>  (89) 
1

>  <s_lp_Variant>  (89) 
87:0-2

>  <s_i_glide_gridfile>  (89) 
pfpi4k_grid

>  <i_i_glide_lignum>  (89) 
27

>  <i_i_glide_rotatable_bonds>  (89) 
14

>  <r_i_docking_score>  (89) 
-2.01629

>  <r_i_glide_ligand_efficiency>  (89) 
-0.0347636

>  <r_i_glide_ligand_efficiency_sa>  (89) 
-0.134565

>  <r_i_glide_ligand_efficiency_ln>  (89) 
-0.398441

>  <r_i_glide_gscore>  (89) 
-2.01629

>  <r_i_glide_lipo>  (89) 
-0.0731467

>  <r_i_glide_hbond>  (89) 
-0.251897

>  <r_i_glide_metal>  (89) 
-0

>  <r_i_glide_rewards>  (89) 
0

>  <r_i_glide_evdw>  (89) 
-14.3809

>  <r_i_glide_ecoul>  (89) 
-6.6229

>  <r_i_glide_erotb>  (89) 
0.123294

>  <r_i_glide_esite>  (89) 
-0.102058

>  <r_i_glide_emodel>  (89) 
-19.7915

>  <r_i_glide_energy>  (89) 
-21.0038

>  <r_i_glide_einternal>  (89) 
9.61696

>  <r_i_glide_intrahb_reward>  (89) 
-0

>  <i_i_glide_confnum>  (89) 
1

>  <i_i_glide_posenum>  (89) 
13

>  <r_i_glide_eff_state_penalty>  (89) 
0

>  <ligand_id>  (89) 
87

>  <original_smiles>  (89) 
C=C1CC23C[S+]([O-])C4C(C)C5(O)CC6(O)OC6(CO)C(O)C6(O)COCC6C5C5OC(C)(CC(=O)OC)OCC5C5(C(OC(C)=O)C2O)C(C(O)C(O)C43C1)C5(C)C

>  <smiles>  (89) 
[H]OC([H])([H])C12OC1(O[H])C([H])([H])C1(O[H])C([H])(C([H])([H])[H])C3([H])S(=O)C([H])([H])C45C([H])([H])C(=C([H])[H])C([H])([H])C34C([H])(O[H])C([H])(O[H])C3([H])C(C([H])([H])[H])(C([H])([H])[H])C3(C([H])(OC(=O)C([H])([H])[H])C5([H])O[H])C3([H])C([H])([H])OC(C([H])([H])[H])(C([H])([H])C(=O)OC([H])([H])[H])OC3([H])C1([H])C1([H])C([H])([H])OC([H])([H])C1(O[H])C2([H])O[H]

$$$$
92:1:0
     RDKit          3D

119127  0  0  1  0  0  0  0  0999 V2000
    3.2930   -1.5070   -2.9871 C   0  0  0  0  0  0  0  0  0  0  0  0
    4.0210   -2.5552   -2.1200 C   0  0  2  0  0  0  0  0  0  0  0  0
    4.9547   -3.4321   -2.9895 C   0  0  0  0  0  0  0  0  0  0  0  0
    4.2212   -4.1364   -3.9684 O   0  0  0  0  0  0  0  0  0  0  0  0
    3.0415   -3.3620   -1.2259 C   0  0  0  0  0  0  0  0  0  0  0  0
    3.7345   -4.3667   -0.2753 C   0  0  0  0  0  0  0  0  0  0  0  0
    2.7958   -5.1118    0.7170 C   0  0  0  0  0  0  0  0  0  0  0  0
    3.3490   -6.1584    1.7915 C   0  0  1  0  0  0  0  0  0  0  0  0
    4.3077   -7.0839    0.9528 C   0  0  0  0  0  0  0  0  0  0  0  0
    4.3260   -5.4717    2.8274 C   0  0  0  0  0  0  0  0  0  0  0  0
    5.2868   -4.9150    2.3196 O   0  0  0  0  0  0  0  0  0  0  0  0
    4.4336   -5.6641    4.4016 C   0  0  1  0  0  0  0  0  0  0  0  0
    3.2498   -6.0677    5.1415 O   0  0  0  0  0  0  0  0  0  0  0  0
    3.0018   -6.8211    6.4567 C   0  0  2  0  0  0  0  0  0  0  0  0
    3.8957   -6.5661    7.7499 C   0  0  0  0  0  0  0  0  0  0  0  0
    2.5865   -8.3282    6.7769 C   0  0  1  0  0  0  0  0  0  0  0  0
    3.5620   -9.1910    7.3481 O   0  0  0  0  0  0  0  0  0  0  0  0
    1.2743   -8.2247    7.5869 C   0  0  1  0  0  0  0  0  0  0  0  0
    1.3589   -8.3902    9.1043 C   0  0  0  0  0  0  0  0  0  0  0  0
    0.2565   -7.8191    9.9733 C   0  0  0  0  0  0  0  0  0  0  0  0
    1.6327   -7.2298   10.0394 C   0  0  0  0  0  0  0  0  0  0  0  0
    0.7603   -6.9434    7.2370 O   0  0  0  0  0  0  0  0  0  0  0  0
    1.5384   -6.3227    6.2055 C   0  0  2  0  0  0  0  0  0  0  0  0
    1.1460   -7.1610    4.7790 C   0  0  1  0  0  0  0  0  0  0  0  0
    0.0695   -6.5867    3.8528 C   0  0  0  0  0  0  0  0  0  0  0  0
    0.8351   -6.0687    2.6383 C   0  0  0  0  0  0  0  0  0  0  0  0
    2.0890   -6.9584    2.3870 C   0  0  1  0  0  0  0  0  0  0  0  0
    1.6175   -7.7625    1.3053 O   0  0  0  0  0  0  0  0  0  0  0  0
    2.2320   -7.8709    3.6904 C   0  0  2  0  0  0  0  0  0  0  0  0
    1.5749   -9.2869    3.4337 C   0  0  0  0  0  0  0  0  0  0  0  0
    3.8268   -8.2275    4.0132 C   0  0  1  0  0  0  0  0  0  0  0  0
    4.3605   -9.1911    3.1235 O   0  0  0  0  0  0  0  0  0  0  0  0
    4.9453   -7.1385    4.4639 C   0  0  1  0  0  0  0  0  0  0  0  0
    6.2146   -7.3371    3.8583 O   0  0  0  0  0  0  0  0  0  0  0  0
    1.2115   -4.6850    6.3755 C   0  0  1  0  0  0  0  0  0  0  0  0
    1.1287   -4.2641    5.0961 O   0  0  0  0  0  0  0  0  0  0  0  0
   -0.2095   -4.2952    6.8390 C   0  0  0  0  0  0  0  0  0  0  0  0
   -0.5250   -2.7742    6.9946 C   0  0  0  0  0  0  0  0  0  0  0  0
   -0.1049   -1.6778    5.9512 C   0  0  1  0  0  0  0  0  0  0  0  0
   -0.6868   -1.8815    4.5364 C   0  0  0  0  0  0  0  0  0  0  0  0
   -0.9811   -0.6129    6.3245 O   0  0  0  0  0  0  0  0  0  0  0  0
    1.4256   -1.1981    6.0968 C   0  0  2  0  0  0  0  0  0  0  0  0
    1.3542    0.0187    6.8428 O   0  0  0  0  0  0  0  0  0  0  0  0
    2.3915   -0.7485    4.8661 C   0  0  1  0  0  0  0  0  0  0  0  0
    3.2592    0.3473    5.1258 O   0  0  0  0  0  0  0  0  0  0  0  0
    3.2075   -2.0299    4.5674 C   0  0  2  0  0  0  0  0  0  0  0  0
    2.5094   -2.7194    3.4040 C   0  0  0  0  0  0  0  0  0  0  0  0
    3.3399   -2.1176    5.9564 O   0  0  0  0  0  0  0  0  0  0  0  0
    2.3630   -2.1671    6.9078 C   0  0  1  0  0  0  0  0  0  0  0  0
    3.0906   -1.5136    8.1274 C   0  0  0  0  0  0  0  0  0  0  0  0
    2.2655   -3.7519    7.1414 C   0  0  1  0  0  0  0  0  0  0  0  0
    2.1386   -4.0028    8.5221 O   0  0  0  0  0  0  0  0  0  0  0  0
    3.4542   -4.2784    6.6122 O   0  0  0  0  0  0  0  0  0  0  0  0
    4.8751   -4.0419    6.5555 C   0  0  0  0  0  0  0  0  0  0  0  0
    5.1810   -4.2953    5.0432 C   0  0  2  0  0  0  0  0  0  0  0  0
    4.9989   -2.4947    4.2786 S   0  0  0  0  0  0  0  0  0  0  0  0
    5.3598   -2.3474    2.8001 O   0  0  0  0  0  0  0  0  0  0  0  0
    2.5807   -1.9665   -3.6792 H   0  0  0  0  0  0  0  0  0  0  0  0
    4.0042   -0.9364   -3.5878 H   0  0  0  0  0  0  0  0  0  0  0  0
    2.7377   -0.7946   -2.3714 H   0  0  0  0  0  0  0  0  0  0  0  0
    4.6654   -1.9922   -1.4433 H   0  0  0  0  0  0  0  0  0  0  0  0
    5.6942   -2.8086   -3.4923 H   0  0  0  0  0  0  0  0  0  0  0  0
    5.5259   -4.1428   -2.3917 H   0  0  0  0  0  0  0  0  0  0  0  0
    3.6849   -4.7854   -3.5217 H   0  0  0  0  0  0  0  0  0  0  0  0
    2.4518   -2.6695   -0.6275 H   0  0  0  0  0  0  0  0  0  0  0  0
    2.3230   -3.8855   -1.8535 H   0  0  0  0  0  0  0  0  0  0  0  0
    4.2330   -5.0925   -0.9112 H   0  0  0  0  0  0  0  0  0  0  0  0
    4.5083   -3.8264    0.2642 H   0  0  0  0  0  0  0  0  0  0  0  0
    2.2402   -4.3182    1.2002 H   0  0  0  0  0  0  0  0  0  0  0  0
    2.0738   -5.6333    0.0878 H   0  0  0  0  0  0  0  0  0  0  0  0
    3.8116   -7.7613    0.2601 H   0  0  0  0  0  0  0  0  0  0  0  0
    5.0031   -7.6646    1.5354 H   0  0  0  0  0  0  0  0  0  0  0  0
    5.0010   -6.5113    0.3479 H   0  0  0  0  0  0  0  0  0  0  0  0
    3.6976   -7.2254    8.5863 H   0  0  0  0  0  0  0  0  0  0  0  0
    3.8174   -5.6400    8.2908 H   0  0  0  0  0  0  0  0  0  0  0  0
    4.9498   -6.7591    7.5449 H   0  0  0  0  0  0  0  0  0  0  0  0
    2.2802   -8.9476    5.9609 H   0  0  0  0  0  0  0  0  0  0  0  0
    3.2003  -10.0651    7.4134 H   0  0  0  0  0  0  0  0  0  0  0  0
    0.5820   -8.9952    7.2405 H   0  0  0  0  0  0  0  0  0  0  0  0
    1.7406   -9.3612    9.4130 H   0  0  0  0  0  0  0  0  0  0  0  0
   -0.5042   -7.2251    9.4760 H   0  0  0  0  0  0  0  0  0  0  0  0
   -0.0771   -8.3831   10.8415 H   0  0  0  0  0  0  0  0  0  0  0  0
    2.2445   -7.4451   10.9117 H   0  0  0  0  0  0  0  0  0  0  0  0
    1.7591   -6.2386    9.6164 H   0  0  0  0  0  0  0  0  0  0  0  0
    0.5612   -7.9874    5.1748 H   0  0  0  0  0  0  0  0  0  0  0  0
   -0.6014   -7.3860    3.5339 H   0  0  0  0  0  0  0  0  0  0  0  0
   -0.5759   -5.8467    4.3217 H   0  0  0  0  0  0  0  0  0  0  0  0
    0.1850   -6.0065    1.7658 H   0  0  0  0  0  0  0  0  0  0  0  0
    1.1255   -5.0516    2.8441 H   0  0  0  0  0  0  0  0  0  0  0  0
    1.0067   -8.4027    1.6450 H   0  0  0  0  0  0  0  0  0  0  0  0
    2.0273   -9.8311    2.6036 H   0  0  0  0  0  0  0  0  0  0  0  0
    0.5086   -9.2326    3.2126 H   0  0  0  0  0  0  0  0  0  0  0  0
    1.6607   -9.9615    4.2829 H   0  0  0  0  0  0  0  0  0  0  0  0
    3.8873   -8.9397    4.8177 H   0  0  0  0  0  0  0  0  0  0  0  0
    4.2720   -8.8815    2.2332 H   0  0  0  0  0  0  0  0  0  0  0  0
    5.2154   -7.3703    5.4886 H   0  0  0  0  0  0  0  0  0  0  0  0
    6.1207   -7.2496    2.9199 H   0  0  0  0  0  0  0  0  0  0  0  0
    1.9809   -4.4386    4.7234 H   0  0  0  0  0  0  0  0  0  0  0  0
   -0.9582   -4.7262    6.1717 H   0  0  0  0  0  0  0  0  0  0  0  0
   -0.3994   -4.7620    7.8045 H   0  0  0  0  0  0  0  0  0  0  0  0
   -1.6107   -2.7634    7.0311 H   0  0  0  0  0  0  0  0  0  0  0  0
   -0.1803   -2.4464    7.9791 H   0  0  0  0  0  0  0  0  0  0  0  0
   -0.4902   -2.8545    4.1059 H   0  0  0  0  0  0  0  0  0  0  0  0
   -0.3434   -1.1211    3.8344 H   0  0  0  0  0  0  0  0  0  0  0  0
   -1.7763   -1.8221    4.5604 H   0  0  0  0  0  0  0  0  0  0  0  0
   -0.7013    0.1483    5.8323 H   0  0  0  0  0  0  0  0  0  0  0  0
    2.2384    0.3669    6.8717 H   0  0  0  0  0  0  0  0  0  0  0  0
    1.7971   -0.4298    4.0080 H   0  0  0  0  0  0  0  0  0  0  0  0
    3.6513    0.5987    4.3016 H   0  0  0  0  0  0  0  0  0  0  0  0
    1.4446   -2.5423    3.3493 H   0  0  0  0  0  0  0  0  0  0  0  0
    2.6926   -3.7681    3.4190 H   0  0  0  0  0  0  0  0  0  0  0  0
    2.9128   -2.3320    2.4683 H   0  0  0  0  0  0  0  0  0  0  0  0
    2.4099   -1.3253    8.9577 H   0  0  0  0  0  0  0  0  0  0  0  0
    3.5666   -0.5644    7.8690 H   0  0  0  0  0  0  0  0  0  0  0  0
    3.9020   -2.1364    8.5008 H   0  0  0  0  0  0  0  0  0  0  0  0
    2.8264   -3.5185    8.9515 H   0  0  0  0  0  0  0  0  0  0  0  0
    5.2065   -3.0616    6.8890 H   0  0  0  0  0  0  0  0  0  0  0  0
    5.4460   -4.7217    7.1732 H   0  0  0  0  0  0  0  0  0  0  0  0
    6.2502   -4.5007    4.9732 H   0  0  0  0  0  0  0  0  0  0  0  0
  1  2  1  0
  1 58  1  0
  1 59  1  0
  1 60  1  0
  2  3  1  0
  2  5  1  0
  2 61  1  1
  3  4  1  0
  3 62  1  0
  3 63  1  0
  4 64  1  0
  5  6  1  0
  5 65  1  0
  5 66  1  0
  6  7  1  0
  6 67  1  0
  6 68  1  0
  8  7  1  6
  7 69  1  0
  7 70  1  0
  8 27  1  0
  8  9  1  0
  8 10  1  0
  9 71  1  0
  9 72  1  0
  9 73  1  0
 10 11  2  0
 12 10  1  6
 12 33  1  0
 12 55  1  0
 12 13  1  0
 13 14  1  0
 14 23  1  0
 14 15  1  1
 14 16  1  0
 15 74  1  0
 15 75  1  0
 15 76  1  0
 16 17  1  0
 16 18  1  0
 16 77  1  6
 17 78  1  0
 18 19  1  0
 18 22  1  0
 18 79  1  6
 19 21  1  0
 19 20  1  0
 19 80  1  0
 20 21  1  0
 20 81  1  0
 20 82  1  0
 21 83  1  0
 21 84  1  0
 23 22  1  1
 23 24  1  0
 23 35  1  0
 24 29  1  0
 24 25  1  0
 24 85  1  1
 25 26  1  0
 25 86  1  0
 25 87  1  0
 26 27  1  0
 26 88  1  0
 26 89  1  0
 27 28  1  6
 27 29  1  0
 28 90  1  0
 29 30  1  6
 29 31  1  0
 30 91  1  0
 30 92  1  0
 30 93  1  0
 31 32  1  0
 31 33  1  0
 31 94  1  1
 32 95  1  0
 33 34  1  0
 33 96  1  1
 34 97  1  0
 35 51  1  0
 35 36  1  6
 35 37  1  0
 36 98  1  0
 37 38  1  0
 37 99  1  0
 37100  1  0
 38 39  1  0
 38101  1  0
 38102  1  0
 39 40  1  0
 39 41  1  1
 39 42  1  0
 40103  1  0
 40104  1  0
 40105  1  0
 41106  1  0
 42 49  1  0
 42 43  1  1
 42 44  1  0
 43107  1  0
 44 45  1  0
 44 46  1  0
 44108  1  6
 45109  1  0
 56 46  1  6
 46 47  1  6
 46 48  1  0
 47110  1  0
 47111  1  0
 47112  1  0
 48 49  1  0
 49 50  1  1
 49 51  1  0
 50113  1  0
 50114  1  0
 50115  1  0
 51 52  1  1
 51 53  1  0
 52116  1  0
 53 54  1  0
 54 55  1  0
 54117  1  0
 54118  1  0
 55 56  1  0
 55119  1  1
 56 57  2  0
M  END
>  <i_m_ct_stereo_status>  (90) 
1

>  <s_m_source_file>  (90) 
/var/tmp/pbs.5075288.sched01/tmpndvtliwj/216foptgilz.sdf

>  <i_m_source_file_index>  (90) 
39

>  <i_lp_mmshare_version>  (90) 
48012

>  <i_f3d_flags>  (90) 
0

>  <s_epik_input>  (90) 
W09IXVtDSDJdW0NAQEhdKFtDSDNdKVtDSDJdW0NIMl1bQ0gyXVtDQEBdKFtDSDNdKShDMT1PKVtDQF0oW09IXSkoW0NIMl1bQ0gyXTIpW0NAQF0oW0NIM10pKFtDQEBIXShbT0hdKVtDQEhdM1tPSF0pW0NASF0yW0NAQF00KFtDQEBdKE81KShbQ0gzXSlbQ0BASF0oW09IXSlbQ0BIXShPNClbQ0hdNltDSDJdW0NIMl02KVtDQF0oW09IXSkoW0NAQF03KFtPSF0pT1tDSDJdW0NIXThbQ0BAXTEzNSlbQ0gyXVtDSDJdW0NAQF0oW0NIM10pKFtPSF0pW0NAQF05KFtPSF0pW0NAXTcoW0NIM10pT1tDQF0oW0NIM10pKFtTK104W08tXSlbQ0BASF05W09IXQ==

>  <s_epik_cmdline>  (90) 
J2VwaWtfcHl0aG9uJywgJy1waHQnLCAnMi4wJywgJy1waCcsICc3LjAnLCAnLXRuJywgJzgnLCAnLW1hJywgJzIwMCcsICctaW1hZScsICc8aW5maWxlLm1hZT4nLCAnLW9tYWUnLCAnPG91dGZpbGUubWFlPic=

>  <r_lp_tautomer_probability>  (90) 
1

>  <r_epik_Ionization_Penalty>  (90) 
2.4894e-06

>  <r_epik_Ionization_Penalty_Charging>  (90) 
0

>  <r_epik_Ionization_Penalty_Neutral>  (90) 
2.4894e-06

>  <r_epik_State_Penalty>  (90) 
-0

>  <r_epik_Charging_Adjusted_Penalty>  (90) 
0

>  <i_epik_Tot_Q>  (90) 
0

>  <i_epik_Tot_abs_Q>  (90) 
2

>  <s_lp_Force_Field>  (90) 
OPLS3e

>  <r_lp_Energy>  (90) 
455.824

>  <b_lp_Chiralities_Consistent>  (90) 
1

>  <s_lp_Variant>  (90) 
92:0-2

>  <s_i_glide_gridfile>  (90) 
pfpi4k_grid

>  <i_i_glide_lignum>  (90) 
39

>  <i_i_glide_rotatable_bonds>  (90) 
16

>  <r_i_docking_score>  (90) 
-4.26603

>  <r_i_glide_ligand_efficiency>  (90) 
-0.0748427

>  <r_i_glide_ligand_efficiency_sa>  (90) 
-0.288032

>  <r_i_glide_ligand_efficiency_ln>  (90) 
-0.845923

>  <r_i_glide_gscore>  (90) 
-4.26603

>  <r_i_glide_lipo>  (90) 
-0.428339

>  <r_i_glide_hbond>  (90) 
-0.32

>  <r_i_glide_metal>  (90) 
-0

>  <r_i_glide_rewards>  (90) 
-0.556217

>  <r_i_glide_evdw>  (90) 
-31.7973

>  <r_i_glide_ecoul>  (90) 
-10.4108

>  <r_i_glide_erotb>  (90) 
0.190016

>  <r_i_glide_esite>  (90) 
0

>  <r_i_glide_emodel>  (90) 
-57.0545

>  <r_i_glide_energy>  (90) 
-42.2082

>  <r_i_glide_einternal>  (90) 
2.65269

>  <r_i_glide_intrahb_reward>  (90) 
-0.5

>  <i_i_glide_confnum>  (90) 
2

>  <i_i_glide_posenum>  (90) 
1

>  <r_i_glide_eff_state_penalty>  (90) 
0

>  <ligand_id>  (90) 
92

>  <original_smiles>  (90) 
CC(CO)CCCC1(C)C(=O)C23OC4(C)C(O)C(C5CC5)OC4(C4CCC1(O)C4(C)C(O)C2O)C1(O)CCC(C)(O)C2(O)C(O)C4(C)OC2(C)C1(O)OCC3[S+]4[O-]

>  <smiles>  (90) 
[H]OC([H])([H])C([H])(C([H])([H])[H])C([H])([H])C([H])([H])C([H])([H])C1(C([H])([H])[H])C(=O)C23OC4(C([H])([H])[H])C([H])(O[H])C([H])(C5([H])C([H])([H])C5([H])[H])OC4(C4([H])C([H])([H])C([H])([H])C1(O[H])C4(C([H])([H])[H])C([H])(O[H])C2([H])O[H])C1(O[H])C([H])([H])C([H])([H])C(O[H])(C([H])([H])[H])C2(O[H])C([H])(O[H])C4(C([H])([H])[H])OC2(C([H])([H])[H])C1(O[H])OC([H])([H])C3([H])S4=O

$$$$
92:1:1
     RDKit          3D

119127  0  0  1  0  0  0  0  0999 V2000
    5.1136   -1.7190   -0.8792 C   0  0  0  0  0  0  0  0  0  0  0  0
    4.4084   -2.7778   -1.7395 C   0  0  2  0  0  0  0  0  0  0  0  0
    3.7968   -2.1129   -2.9883 C   0  0  0  0  0  0  0  0  0  0  0  0
    3.4672   -3.0805   -3.9561 O   0  0  0  0  0  0  0  0  0  0  0  0
    3.3594   -3.5687   -0.9180 C   0  0  0  0  0  0  0  0  0  0  0  0
    3.9623   -4.6179    0.0302 C   0  0  0  0  0  0  0  0  0  0  0  0
    2.9246   -5.4107    0.8834 C   0  0  0  0  0  0  0  0  0  0  0  0
    3.3468   -6.5216    1.9485 C   0  0  1  0  0  0  0  0  0  0  0  0
    4.2951   -7.4604    1.1239 C   0  0  0  0  0  0  0  0  0  0  0  0
    4.3059   -5.9399    3.0634 C   0  0  0  0  0  0  0  0  0  0  0  0
    5.3363   -5.4260    2.6345 O   0  0  0  0  0  0  0  0  0  0  0  0
    4.3051   -6.1921    4.6356 C   0  0  1  0  0  0  0  0  0  0  0  0
    3.0727   -6.5676    5.3080 O   0  0  0  0  0  0  0  0  0  0  0  0
    2.7034   -7.3778    6.5522 C   0  0  2  0  0  0  0  0  0  0  0  0
    3.5551   -7.2186    7.8762 C   0  0  0  0  0  0  0  0  0  0  0  0
    2.1958   -8.8720    6.7911 C   0  0  1  0  0  0  0  0  0  0  0  0
    3.0696   -9.8293    7.3788 O   0  0  0  0  0  0  0  0  0  0  0  0
    0.8544   -8.6991    7.5568 C   0  0  1  0  0  0  0  0  0  0  0  0
    0.8386   -8.9373    9.0717 C   0  0  0  0  0  0  0  0  0  0  0  0
   -0.0936   -8.1356    9.9449 C   0  0  0  0  0  0  0  0  0  0  0  0
    1.3929   -7.9512   10.0632 C   0  0  0  0  0  0  0  0  0  0  0  0
    0.4384   -7.3740    7.2258 O   0  0  0  0  0  0  0  0  0  0  0  0
    1.2925   -6.7735    6.2452 C   0  0  2  0  0  0  0  0  0  0  0  0
    0.9266   -7.5312    4.7706 C   0  0  1  0  0  0  0  0  0  0  0  0
   -0.0634   -6.8665    3.8156 C   0  0  0  0  0  0  0  0  0  0  0  0
    0.7942   -6.3333    2.6688 C   0  0  0  0  0  0  0  0  0  0  0  0
    2.0119   -7.2757    2.4453 C   0  0  1  0  0  0  0  0  0  0  0  0
    1.5626   -7.9960    1.3016 O   0  0  0  0  0  0  0  0  0  0  0  0
    2.0323   -8.2525    3.7167 C   0  0  2  0  0  0  0  0  0  0  0  0
    1.3211   -9.6220    3.3556 C   0  0  0  0  0  0  0  0  0  0  0  0
    3.5881   -8.7079    4.1124 C   0  0  1  0  0  0  0  0  0  0  0  0
    4.1229   -9.6302    3.1832 O   0  0  0  0  0  0  0  0  0  0  0  0
    4.7322   -7.6945    4.6619 C   0  0  1  0  0  0  0  0  0  0  0  0
    6.0221   -7.9373    4.1185 O   0  0  0  0  0  0  0  0  0  0  0  0
    1.0325   -5.1303    6.4881 C   0  0  1  0  0  0  0  0  0  0  0  0
    1.0409   -4.6524    5.2161 O   0  0  0  0  0  0  0  0  0  0  0  0
   -0.3963   -4.6810    6.8780 C   0  0  0  0  0  0  0  0  0  0  0  0
   -0.6483   -3.1472    7.0863 C   0  0  0  0  0  0  0  0  0  0  0  0
   -0.1073   -2.0311    6.1109 C   0  0  1  0  0  0  0  0  0  0  0  0
   -0.6082   -2.1415    4.6603 C   0  0  0  0  0  0  0  0  0  0  0  0
   -0.9366   -0.9245    6.4745 O   0  0  0  0  0  0  0  0  0  0  0  0
    1.4328   -1.6532    6.3565 C   0  0  2  0  0  0  0  0  0  0  0  0
    1.3796   -0.4574    7.1455 O   0  0  0  0  0  0  0  0  0  0  0  0
    2.4780   -1.2027    5.1989 C   0  0  1  0  0  0  0  0  0  0  0  0
    3.3910   -0.1756    5.5621 O   0  0  0  0  0  0  0  0  0  0  0  0
    3.2311   -2.5184    4.8928 C   0  0  2  0  0  0  0  0  0  0  0  0
    2.5766   -3.1215    3.6579 C   0  0  0  0  0  0  0  0  0  0  0  0
    3.2999   -2.6569    6.2881 O   0  0  0  0  0  0  0  0  0  0  0  0
    2.2639   -2.7148    7.1876 C   0  0  1  0  0  0  0  0  0  0  0  0
    2.9580   -2.1341    8.4604 C   0  0  0  0  0  0  0  0  0  0  0  0
    2.0833   -4.2969    7.3382 C   0  0  1  0  0  0  0  0  0  0  0  0
    1.8850   -4.6058    8.6859 O   0  0  0  0  0  0  0  0  0  0  0  0
    3.2714   -4.8557    6.8560 O   0  0  0  0  0  0  0  0  0  0  0  0
    4.7067   -4.6784    6.8651 C   0  0  0  0  0  0  0  0  0  0  0  0
    5.0760   -4.8873    5.3642 C   0  0  2  0  0  0  0  0  0  0  0  0
    5.0122   -3.0467    4.6617 S   0  0  0  0  0  0  0  0  0  0  0  0
    5.3696   -2.8792    3.1830 O   0  0  0  0  0  0  0  0  0  0  0  0
    4.3945   -1.0076   -0.4692 H   0  0  0  0  0  0  0  0  0  0  0  0
    5.8250   -1.1555   -1.4827 H   0  0  0  0  0  0  0  0  0  0  0  0
    5.6570   -2.1723   -0.0510 H   0  0  0  0  0  0  0  0  0  0  0  0
    5.1669   -3.4723   -2.0937 H   0  0  0  0  0  0  0  0  0  0  0  0
    2.9188   -1.5164   -2.7273 H   0  0  0  0  0  0  0  0  0  0  0  0
    4.5136   -1.4353   -3.4566 H   0  0  0  0  0  0  0  0  0  0  0  0
    2.8540   -3.6841   -3.5530 H   0  0  0  0  0  0  0  0  0  0  0  0
    2.7233   -2.8828   -0.3587 H   0  0  0  0  0  0  0  0  0  0  0  0
    2.6850   -4.1127   -1.5636 H   0  0  0  0  0  0  0  0  0  0  0  0
    4.5608   -5.2802   -0.6050 H   0  0  0  0  0  0  0  0  0  0  0  0
    4.6674   -4.1166    0.6952 H   0  0  0  0  0  0  0  0  0  0  0  0
    2.3419   -4.6316    1.3479 H   0  0  0  0  0  0  0  0  0  0  0  0
    2.2524   -5.8842    0.1692 H   0  0  0  0  0  0  0  0  0  0  0  0
    3.8117   -8.0926    0.3906 H   0  0  0  0  0  0  0  0  0  0  0  0
    4.9160   -8.1011    1.7189 H   0  0  0  0  0  0  0  0  0  0  0  0
    5.0495   -6.9048    0.5798 H   0  0  0  0  0  0  0  0  0  0  0  0
    3.2444   -7.8439    8.7000 H   0  0  0  0  0  0  0  0  0  0  0  0
    3.5132   -6.3092    8.4400 H   0  0  0  0  0  0  0  0  0  0  0  0
    4.6229   -7.4131    7.6901 H   0  0  0  0  0  0  0  0  0  0  0  0
    1.8865   -9.4294    5.9351 H   0  0  0  0  0  0  0  0  0  0  0  0
    2.6210  -10.6725    7.4213 H   0  0  0  0  0  0  0  0  0  0  0  0
    0.1307   -9.4073    7.1256 H   0  0  0  0  0  0  0  0  0  0  0  0
    0.9736   -9.9905    9.3093 H   0  0  0  0  0  0  0  0  0  0  0  0
   -0.5847   -7.2862    9.5089 H   0  0  0  0  0  0  0  0  0  0  0  0
   -0.6080   -8.6180   10.7774 H   0  0  0  0  0  0  0  0  0  0  0  0
    1.8672   -8.3824   10.9276 H   0  0  0  0  0  0  0  0  0  0  0  0
    1.8664   -7.0523    9.6808 H   0  0  0  0  0  0  0  0  0  0  0  0
    0.2836   -8.3404    5.1037 H   0  0  0  0  0  0  0  0  0  0  0  0
   -0.7532   -7.6162    3.4279 H   0  0  0  0  0  0  0  0  0  0  0  0
   -0.6931   -6.1114    4.2785 H   0  0  0  0  0  0  0  0  0  0  0  0
    0.1960   -6.2044    1.7602 H   0  0  0  0  0  0  0  0  0  0  0  0
    1.1238   -5.3424    2.9283 H   0  0  0  0  0  0  0  0  0  0  0  0
    0.9172   -8.6348    1.5753 H   0  0  0  0  0  0  0  0  0  0  0  0
    1.7829  -10.1492    2.5187 H   0  0  0  0  0  0  0  0  0  0  0  0
    0.2729   -9.4947    3.0856 H   0  0  0  0  0  0  0  0  0  0  0  0
    1.3246  -10.3319    4.1772 H   0  0  0  0  0  0  0  0  0  0  0  0
    3.5701   -9.4624    4.8815 H   0  0  0  0  0  0  0  0  0  0  0  0
    3.5311  -10.3679    3.1069 H   0  0  0  0  0  0  0  0  0  0  0  0
    4.9434   -7.9895    5.6781 H   0  0  0  0  0  0  0  0  0  0  0  0
    5.9536   -7.8683    3.1729 H   0  0  0  0  0  0  0  0  0  0  0  0
    1.8975   -4.8707    4.8687 H   0  0  0  0  0  0  0  0  0  0  0  0
   -1.1252   -5.0460    6.1511 H   0  0  0  0  0  0  0  0  0  0  0  0
   -0.6624   -5.1750    7.8091 H   0  0  0  0  0  0  0  0  0  0  0  0
   -1.7347   -3.0561    7.0998 H   0  0  0  0  0  0  0  0  0  0  0  0
   -0.3240   -2.8824    8.0993 H   0  0  0  0  0  0  0  0  0  0  0  0
   -0.4506   -3.1098    4.2035 H   0  0  0  0  0  0  0  0  0  0  0  0
   -0.1785   -1.3796    4.0095 H   0  0  0  0  0  0  0  0  0  0  0  0
   -1.6874   -1.9903    4.6371 H   0  0  0  0  0  0  0  0  0  0  0  0
   -0.5735   -0.1702    6.0290 H   0  0  0  0  0  0  0  0  0  0  0  0
    2.2783   -0.1549    7.2149 H   0  0  0  0  0  0  0  0  0  0  0  0
    1.9615   -0.8181    4.3211 H   0  0  0  0  0  0  0  0  0  0  0  0
    3.8616    0.0720    4.7775 H   0  0  0  0  0  0  0  0  0  0  0  0
    1.5373   -2.8825    3.5505 H   0  0  0  0  0  0  0  0  0  0  0  0
    2.7145   -4.1727    3.6362 H   0  0  0  0  0  0  0  0  0  0  0  0
    3.0576   -2.7125    2.7699 H   0  0  0  0  0  0  0  0  0  0  0  0
    2.2439   -1.9406    9.2604 H   0  0  0  0  0  0  0  0  0  0  0  0
    3.4951   -1.2011    8.2616 H   0  0  0  0  0  0  0  0  0  0  0  0
    3.7144   -2.8124    8.8427 H   0  0  0  0  0  0  0  0  0  0  0  0
    2.5447   -4.1513    9.1837 H   0  0  0  0  0  0  0  0  0  0  0  0
    5.0595   -3.7268    7.2542 H   0  0  0  0  0  0  0  0  0  0  0  0
    5.2163   -5.3900    7.4963 H   0  0  0  0  0  0  0  0  0  0  0  0
    6.1357   -5.1453    5.3455 H   0  0  0  0  0  0  0  0  0  0  0  0
  1  2  1  0
  1 58  1  0
  1 59  1  0
  1 60  1  0
  2  3  1  0
  2  5  1  0
  2 61  1  6
  3  4  1  0
  3 62  1  0
  3 63  1  0
  4 64  1  0
  5  6  1  0
  5 65  1  0
  5 66  1  0
  6  7  1  0
  6 67  1  0
  6 68  1  0
  8  7  1  6
  7 69  1  0
  7 70  1  0
  8 27  1  0
  8  9  1  0
  8 10  1  0
  9 71  1  0
  9 72  1  0
  9 73  1  0
 10 11  2  0
 12 10  1  6
 12 33  1  0
 12 55  1  0
 12 13  1  0
 13 14  1  0
 14 23  1  0
 14 15  1  1
 14 16  1  0
 15 74  1  0
 15 75  1  0
 15 76  1  0
 16 17  1  0
 16 18  1  0
 16 77  1  6
 17 78  1  0
 18 19  1  0
 18 22  1  0
 18 79  1  6
 19 21  1  0
 19 20  1  0
 19 80  1  0
 20 21  1  0
 20 81  1  0
 20 82  1  0
 21 83  1  0
 21 84  1  0
 23 22  1  1
 23 24  1  0
 23 35  1  0
 24 29  1  0
 24 25  1  0
 24 85  1  1
 25 26  1  0
 25 86  1  0
 25 87  1  0
 26 27  1  0
 26 88  1  0
 26 89  1  0
 27 28  1  6
 27 29  1  0
 28 90  1  0
 29 30  1  6
 29 31  1  0
 30 91  1  0
 30 92  1  0
 30 93  1  0
 31 32  1  0
 31 33  1  0
 31 94  1  1
 32 95  1  0
 33 34  1  0
 33 96  1  1
 34 97  1  0
 35 51  1  0
 35 36  1  6
 35 37  1  0
 36 98  1  0
 37 38  1  0
 37 99  1  0
 37100  1  0
 38 39  1  0
 38101  1  0
 38102  1  0
 39 40  1  0
 39 41  1  1
 39 42  1  0
 40103  1  0
 40104  1  0
 40105  1  0
 41106  1  0
 42 49  1  0
 42 43  1  1
 42 44  1  0
 43107  1  0
 44 45  1  0
 44 46  1  0
 44108  1  6
 45109  1  0
 56 46  1  6
 46 47  1  6
 46 48  1  0
 47110  1  0
 47111  1  0
 47112  1  0
 48 49  1  0
 49 50  1  1
 49 51  1  0
 50113  1  0
 50114  1  0
 50115  1  0
 51 52  1  1
 51 53  1  0
 52116  1  0
 53 54  1  0
 54 55  1  0
 54117  1  0
 54118  1  0
 55 56  1  0
 55119  1  1
 56 57  2  0
M  END
>  <i_m_ct_stereo_status>  (91) 
1

>  <s_m_source_file>  (91) 
/var/tmp/pbs.5075288.sched01/tmpndvtliwj/216foptgilz.sdf

>  <i_m_source_file_index>  (91) 
39

>  <i_lp_mmshare_version>  (91) 
48012

>  <i_f3d_flags>  (91) 
0

>  <s_epik_input>  (91) 
W09IXVtDSDJdW0NAQEhdKFtDSDNdKVtDSDJdW0NIMl1bQ0gyXVtDQEBdKFtDSDNdKShDMT1PKVtDQF0oW09IXSkoW0NIMl1bQ0gyXTIpW0NAQF0oW0NIM10pKFtDQEBIXShbT0hdKVtDQEhdM1tPSF0pW0NASF0yW0NAQF00KFtDQEBdKE81KShbQ0gzXSlbQ0BASF0oW09IXSlbQ0BIXShPNClbQ0hdNltDSDJdW0NIMl02KVtDQF0oW09IXSkoW0NAQF03KFtPSF0pT1tDSDJdW0NIXThbQ0BAXTEzNSlbQ0gyXVtDSDJdW0NAQF0oW0NIM10pKFtPSF0pW0NAQF05KFtPSF0pW0NAXTcoW0NIM10pT1tDQF0oW0NIM10pKFtTK104W08tXSlbQ0BASF05W09IXQ==

>  <s_epik_cmdline>  (91) 
J2VwaWtfcHl0aG9uJywgJy1waHQnLCAnMi4wJywgJy1waCcsICc3LjAnLCAnLXRuJywgJzgnLCAnLW1hJywgJzIwMCcsICctaW1hZScsICc8aW5maWxlLm1hZT4nLCAnLW9tYWUnLCAnPG91dGZpbGUubWFlPic=

>  <r_lp_tautomer_probability>  (91) 
1

>  <r_epik_Ionization_Penalty>  (91) 
2.4894e-06

>  <r_epik_Ionization_Penalty_Charging>  (91) 
0

>  <r_epik_Ionization_Penalty_Neutral>  (91) 
2.4894e-06

>  <r_epik_State_Penalty>  (91) 
-0

>  <r_epik_Charging_Adjusted_Penalty>  (91) 
0

>  <i_epik_Tot_Q>  (91) 
0

>  <i_epik_Tot_abs_Q>  (91) 
2

>  <s_lp_Force_Field>  (91) 
OPLS3e

>  <r_lp_Energy>  (91) 
455.824

>  <b_lp_Chiralities_Consistent>  (91) 
1

>  <s_lp_Variant>  (91) 
92:0-2

>  <s_i_glide_gridfile>  (91) 
pfpi4k_grid

>  <i_i_glide_lignum>  (91) 
39

>  <i_i_glide_rotatable_bonds>  (91) 
16

>  <r_i_docking_score>  (91) 
-3.98809

>  <r_i_glide_ligand_efficiency>  (91) 
-0.0699664

>  <r_i_glide_ligand_efficiency_sa>  (91) 
-0.269266

>  <r_i_glide_ligand_efficiency_ln>  (91) 
-0.790808

>  <r_i_glide_gscore>  (91) 
-3.98809

>  <r_i_glide_lipo>  (91) 
-0.22947

>  <r_i_glide_hbond>  (91) 
-0.159529

>  <r_i_glide_metal>  (91) 
-0

>  <r_i_glide_rewards>  (91) 
-0.543029

>  <r_i_glide_evdw>  (91) 
-32.1989

>  <r_i_glide_ecoul>  (91) 
-10.9075

>  <r_i_glide_erotb>  (91) 
0.190016

>  <r_i_glide_esite>  (91) 
-1.16382e-06

>  <r_i_glide_emodel>  (91) 
-55.9104

>  <r_i_glide_energy>  (91) 
-43.1064

>  <r_i_glide_einternal>  (91) 
3.01716

>  <r_i_glide_intrahb_reward>  (91) 
-0.5

>  <i_i_glide_confnum>  (91) 
3

>  <i_i_glide_posenum>  (91) 
12

>  <r_i_glide_eff_state_penalty>  (91) 
0

>  <ligand_id>  (91) 
92

>  <original_smiles>  (91) 
CC(CO)CCCC1(C)C(=O)C23OC4(C)C(O)C(C5CC5)OC4(C4CCC1(O)C4(C)C(O)C2O)C1(O)CCC(C)(O)C2(O)C(O)C4(C)OC2(C)C1(O)OCC3[S+]4[O-]

>  <smiles>  (91) 
[H]OC([H])([H])C([H])(C([H])([H])[H])C([H])([H])C([H])([H])C([H])([H])C1(C([H])([H])[H])C(=O)C23OC4(C([H])([H])[H])C([H])(O[H])C([H])(C5([H])C([H])([H])C5([H])[H])OC4(C4([H])C([H])([H])C([H])([H])C1(O[H])C4(C([H])([H])[H])C([H])(O[H])C2([H])O[H])C1(O[H])C([H])([H])C([H])([H])C(O[H])(C([H])([H])[H])C2(O[H])C([H])(O[H])C4(C([H])([H])[H])OC2(C([H])([H])[H])C1(O[H])OC([H])([H])C3([H])S4=O

$$$$
92:1:2
     RDKit          3D

119127  0  0  1  0  0  0  0  0999 V2000
   -2.0787    2.1929    4.6425 C   0  0  0  0  0  0  0  0  0  0  0  0
   -1.3997    0.8231    4.8621 C   0  0  2  0  0  0  0  0  0  0  0  0
   -2.4263   -0.1807    5.4316 C   0  0  0  0  0  0  0  0  0  0  0  0
   -1.9129   -1.4775    5.6046 O   0  0  0  0  0  0  0  0  0  0  0  0
   -0.1154    0.9970    5.7309 C   0  0  0  0  0  0  0  0  0  0  0  0
    0.7374   -0.2565    6.0390 C   0  0  0  0  0  0  0  0  0  0  0  0
    1.1751   -1.0702    4.7774 C   0  0  0  0  0  0  0  0  0  0  0  0
    2.6734   -1.4650    4.4771 C   0  0  1  0  0  0  0  0  0  0  0  0
    3.4243   -0.0996    4.6597 C   0  0  0  0  0  0  0  0  0  0  0  0
    3.2068   -2.4026    5.6287 C   0  0  0  0  0  0  0  0  0  0  0  0
    3.0764   -1.9493    6.7572 O   0  0  0  0  0  0  0  0  0  0  0  0
    4.1459   -3.6841    5.5221 C   0  0  1  0  0  0  0  0  0  0  0  0
    4.1232   -4.4992    4.3146 O   0  0  0  0  0  0  0  0  0  0  0  0
    5.1356   -5.4117    3.5782 C   0  0  2  0  0  0  0  0  0  0  0  0
    6.1108   -6.3725    4.4021 C   0  0  0  0  0  0  0  0  0  0  0  0
    6.0387   -5.2216    2.2713 C   0  0  1  0  0  0  0  0  0  0  0  0
    7.4555   -5.1824    2.4088 O   0  0  0  0  0  0  0  0  0  0  0  0
    5.5840   -6.3334    1.3128 C   0  0  1  0  0  0  0  0  0  0  0  0
    6.4734   -7.5698    1.2163 C   0  0  0  0  0  0  0  0  0  0  0  0
    5.8767   -8.9299    0.8781 C   0  0  0  0  0  0  0  0  0  0  0  0
    6.4515   -8.6822    2.2474 C   0  0  0  0  0  0  0  0  0  0  0  0
    4.2763   -6.6663    1.7514 O   0  0  0  0  0  0  0  0  0  0  0  0
    3.8357   -5.7793    2.7787 C   0  0  2  0  0  0  0  0  0  0  0  0
    3.4941   -4.3058    2.0068 C   0  0  1  0  0  0  0  0  0  0  0  0
    2.0601   -4.0120    1.6017 C   0  0  0  0  0  0  0  0  0  0  0  0
    1.5687   -2.9357    2.5811 C   0  0  0  0  0  0  0  0  0  0  0  0
    2.7566   -2.0193    2.9664 C   0  0  1  0  0  0  0  0  0  0  0  0
    2.5091   -0.8778    2.1401 O   0  0  0  0  0  0  0  0  0  0  0  0
    4.0564   -2.7724    2.4389 C   0  0  2  0  0  0  0  0  0  0  0  0
    4.4836   -2.1716    1.0412 C   0  0  0  0  0  0  0  0  0  0  0  0
    5.3464   -2.4615    3.4338 C   0  0  1  0  0  0  0  0  0  0  0  0
    5.8160   -1.1311    3.2999 O   0  0  0  0  0  0  0  0  0  0  0  0
    5.4231   -2.9987    4.9755 C   0  0  1  0  0  0  0  0  0  0  0  0
    5.9090   -2.0714    5.9232 O   0  0  0  0  0  0  0  0  0  0  0  0
    2.6455   -6.6831    3.5354 C   0  0  1  0  0  0  0  0  0  0  0  0
    1.7185   -5.7452    3.8091 O   0  0  0  0  0  0  0  0  0  0  0  0
    1.7916   -7.6391    2.6503 C   0  0  0  0  0  0  0  0  0  0  0  0
    0.6706   -8.4720    3.3772 C   0  0  0  0  0  0  0  0  0  0  0  0
   -0.3017   -7.8269    4.4515 C   0  0  1  0  0  0  0  0  0  0  0  0
   -1.1410   -6.6544    3.9126 C   0  0  0  0  0  0  0  0  0  0  0  0
   -1.4799   -8.6131    4.4489 O   0  0  0  0  0  0  0  0  0  0  0  0
    0.3281   -7.7658    5.9456 C   0  0  2  0  0  0  0  0  0  0  0  0
   -0.1572   -8.9574    6.5941 O   0  0  0  0  0  0  0  0  0  0  0  0
   -0.0085   -6.6025    7.0485 C   0  0  1  0  0  0  0  0  0  0  0  0
   -0.1557   -7.0078    8.4024 O   0  0  0  0  0  0  0  0  0  0  0  0
    1.1635   -5.6114    6.8686 C   0  0  2  0  0  0  0  0  0  0  0  0
    0.6552   -4.5107    5.9416 C   0  0  0  0  0  0  0  0  0  0  0  0
    1.9468   -6.7672    6.8624 O   0  0  0  0  0  0  0  0  0  0  0  0
    1.8948   -7.8326    6.0105 C   0  0  1  0  0  0  0  0  0  0  0  0
    2.4585   -8.9779    6.9170 C   0  0  0  0  0  0  0  0  0  0  0  0
    2.9954   -7.4274    4.9109 C   0  0  1  0  0  0  0  0  0  0  0  0
    3.7570   -8.5644    4.5907 O   0  0  0  0  0  0  0  0  0  0  0  0
    3.7657   -6.4332    5.5253 O   0  0  0  0  0  0  0  0  0  0  0  0
    4.3859   -6.0967    6.7800 C   0  0  0  0  0  0  0  0  0  0  0  0
    4.0054   -4.5851    6.9389 C   0  0  2  0  0  0  0  0  0  0  0  0
    2.3491   -4.6910    7.9854 S   0  0  0  0  0  0  0  0  0  0  0  0
    1.7542   -3.3641    8.4436 O   0  0  0  0  0  0  0  0  0  0  0  0
   -2.4053    2.6597    5.5737 H   0  0  0  0  0  0  0  0  0  0  0  0
   -2.9583    2.0985    4.0072 H   0  0  0  0  0  0  0  0  0  0  0  0
   -1.4127    2.8951    4.1389 H   0  0  0  0  0  0  0  0  0  0  0  0
   -1.1102    0.4859    3.8663 H   0  0  0  0  0  0  0  0  0  0  0  0
   -2.8258    0.1591    6.3894 H   0  0  0  0  0  0  0  0  0  0  0  0
   -3.2459   -0.2577    4.7190 H   0  0  0  0  0  0  0  0  0  0  0  0
   -1.3070   -1.6442    4.8920 H   0  0  0  0  0  0  0  0  0  0  0  0
    0.5284    1.7394    5.2516 H   0  0  0  0  0  0  0  0  0  0  0  0
   -0.3934    1.4452    6.6809 H   0  0  0  0  0  0  0  0  0  0  0  0
    1.5626    0.0579    6.6902 H   0  0  0  0  0  0  0  0  0  0  0  0
    0.1804   -0.9343    6.6898 H   0  0  0  0  0  0  0  0  0  0  0  0
    0.5610   -1.9630    4.8151 H   0  0  0  0  0  0  0  0  0  0  0  0
    0.8200   -0.5508    3.8865 H   0  0  0  0  0  0  0  0  0  0  0  0
    3.2322    0.6141    3.8578 H   0  0  0  0  0  0  0  0  0  0  0  0
    4.4791   -0.1891    4.8479 H   0  0  0  0  0  0  0  0  0  0  0  0
    3.1561    0.4261    5.5648 H   0  0  0  0  0  0  0  0  0  0  0  0
    6.8411   -6.9355    3.8130 H   0  0  0  0  0  0  0  0  0  0  0  0
    5.6942   -7.2388    4.8633 H   0  0  0  0  0  0  0  0  0  0  0  0
    6.6729   -5.7927    5.1488 H   0  0  0  0  0  0  0  0  0  0  0  0
    5.8976   -4.3357    1.6781 H   0  0  0  0  0  0  0  0  0  0  0  0
    7.8441   -5.2152    1.5428 H   0  0  0  0  0  0  0  0  0  0  0  0
    5.5373   -5.9240    0.3029 H   0  0  0  0  0  0  0  0  0  0  0  0
    7.4506   -7.3515    0.7854 H   0  0  0  0  0  0  0  0  0  0  0  0
    4.7939   -8.9801    0.7822 H   0  0  0  0  0  0  0  0  0  0  0  0
    6.4283   -9.5799    0.2103 H   0  0  0  0  0  0  0  0  0  0  0  0
    7.4149   -9.1613    2.4355 H   0  0  0  0  0  0  0  0  0  0  0  0
    5.7289   -8.7008    3.0651 H   0  0  0  0  0  0  0  0  0  0  0  0
    3.8964   -4.4909    1.0114 H   0  0  0  0  0  0  0  0  0  0  0  0
    2.0714   -3.6033    0.5903 H   0  0  0  0  0  0  0  0  0  0  0  0
    1.4499   -4.9156    1.5477 H   0  0  0  0  0  0  0  0  0  0  0  0
    0.7522   -2.3204    2.1927 H   0  0  0  0  0  0  0  0  0  0  0  0
    1.1467   -3.4434    3.4358 H   0  0  0  0  0  0  0  0  0  0  0  0
    2.3460   -1.1713    1.2515 H   0  0  0  0  0  0  0  0  0  0  0  0
    4.6907   -1.1027    1.0741 H   0  0  0  0  0  0  0  0  0  0  0  0
    3.7235   -2.2879    0.2647 H   0  0  0  0  0  0  0  0  0  0  0  0
    5.3917   -2.6229    0.6561 H   0  0  0  0  0  0  0  0  0  0  0  0
    6.2283   -2.8591    2.9872 H   0  0  0  0  0  0  0  0  0  0  0  0
    5.1074   -0.5669    3.5802 H   0  0  0  0  0  0  0  0  0  0  0  0
    6.2194   -3.7227    5.0069 H   0  0  0  0  0  0  0  0  0  0  0  0
    6.7678   -1.7939    5.6450 H   0  0  0  0  0  0  0  0  0  0  0  0
    2.1531   -5.0760    4.3214 H   0  0  0  0  0  0  0  0  0  0  0  0
    1.3229   -7.0803    1.8368 H   0  0  0  0  0  0  0  0  0  0  0  0
    2.4677   -8.3468    2.1555 H   0  0  0  0  0  0  0  0  0  0  0  0
    0.0665   -8.8584    2.5592 H   0  0  0  0  0  0  0  0  0  0  0  0
    1.1415   -9.3621    3.8004 H   0  0  0  0  0  0  0  0  0  0  0  0
   -0.5815   -5.8422    3.4865 H   0  0  0  0  0  0  0  0  0  0  0  0
   -1.8012   -6.2920    4.7002 H   0  0  0  0  0  0  0  0  0  0  0  0
   -1.7915   -6.9640    3.0875 H   0  0  0  0  0  0  0  0  0  0  0  0
   -1.2850   -9.4871    4.7698 H   0  0  0  0  0  0  0  0  0  0  0  0
    0.0510   -9.7290    6.0808 H   0  0  0  0  0  0  0  0  0  0  0  0
   -0.9562   -6.1292    6.8092 H   0  0  0  0  0  0  0  0  0  0  0  0
    0.6348   -7.4688    8.6054 H   0  0  0  0  0  0  0  0  0  0  0  0
   -0.0988   -4.8226    5.2350 H   0  0  0  0  0  0  0  0  0  0  0  0
    1.4560   -4.0541    5.4106 H   0  0  0  0  0  0  0  0  0  0  0  0
    0.1742   -3.7325    6.5387 H   0  0  0  0  0  0  0  0  0  0  0  0
    2.3361   -9.9675    6.4647 H   0  0  0  0  0  0  0  0  0  0  0  0
    1.9623   -9.0050    7.8885 H   0  0  0  0  0  0  0  0  0  0  0  0
    3.5143   -8.8351    7.1377 H   0  0  0  0  0  0  0  0  0  0  0  0
    3.9173   -9.0326    5.3970 H   0  0  0  0  0  0  0  0  0  0  0  0
    4.0891   -6.6943    7.6353 H   0  0  0  0  0  0  0  0  0  0  0  0
    5.4586   -6.2183    6.7768 H   0  0  0  0  0  0  0  0  0  0  0  0
    4.7315   -4.1536    7.6336 H   0  0  0  0  0  0  0  0  0  0  0  0
  1  2  1  0
  1 58  1  0
  1 59  1  0
  1 60  1  0
  2  3  1  0
  2  5  1  0
  2 61  1  6
  3  4  1  0
  3 62  1  0
  3 63  1  0
  4 64  1  0
  5  6  1  0
  5 65  1  0
  5 66  1  0
  6  7  1  0
  6 67  1  0
  6 68  1  0
  8  7  1  1
  7 69  1  0
  7 70  1  0
  8 27  1  0
  8  9  1  0
  8 10  1  0
  9 71  1  0
  9 72  1  0
  9 73  1  0
 10 11  2  0
 12 10  1  6
 12 33  1  0
 12 55  1  0
 12 13  1  0
 13 14  1  0
 14 23  1  0
 14 15  1  1
 14 16  1  0
 15 74  1  0
 15 75  1  0
 15 76  1  0
 16 17  1  0
 16 18  1  0
 16 77  1  6
 17 78  1  0
 18 19  1  0
 18 22  1  0
 18 79  1  6
 19 21  1  0
 19 20  1  0
 19 80  1  0
 20 21  1  0
 20 81  1  0
 20 82  1  0
 21 83  1  0
 21 84  1  0
 23 22  1  6
 23 24  1  0
 23 35  1  0
 24 29  1  0
 24 25  1  0
 24 85  1  6
 25 26  1  0
 25 86  1  0
 25 87  1  0
 26 27  1  0
 26 88  1  0
 26 89  1  0
 27 28  1  6
 27 29  1  0
 28 90  1  0
 29 30  1  6
 29 31  1  0
 30 91  1  0
 30 92  1  0
 30 93  1  0
 31 32  1  0
 31 33  1  0
 31 94  1  6
 32 95  1  0
 33 34  1  0
 33 96  1  6
 34 97  1  0
 35 51  1  0
 35 36  1  1
 35 37  1  0
 36 98  1  0
 37 38  1  0
 37 99  1  0
 37100  1  0
 38 39  1  0
 38101  1  0
 38102  1  0
 39 40  1  0
 39 41  1  1
 39 42  1  0
 40103  1  0
 40104  1  0
 40105  1  0
 41106  1  0
 42 49  1  0
 42 43  1  1
 42 44  1  0
 43107  1  0
 44 45  1  0
 44 46  1  0
 44108  1  6
 45109  1  0
 56 46  1  6
 46 47  1  6
 46 48  1  0
 47110  1  0
 47111  1  0
 47112  1  0
 48 49  1  0
 49 50  1  1
 49 51  1  0
 50113  1  0
 50114  1  0
 50115  1  0
 51 52  1  6
 51 53  1  0
 52116  1  0
 53 54  1  0
 54 55  1  0
 54117  1  0
 54118  1  0
 55 56  1  0
 55119  1  1
 56 57  2  0
M  END
>  <i_m_ct_stereo_status>  (92) 
1

>  <s_m_source_file>  (92) 
/var/tmp/pbs.5075288.sched01/tmpndvtliwj/216foptgilz.sdf

>  <i_m_source_file_index>  (92) 
39

>  <i_lp_mmshare_version>  (92) 
48012

>  <i_f3d_flags>  (92) 
0

>  <s_epik_input>  (92) 
W09IXVtDSDJdW0NAQEhdKFtDSDNdKVtDSDJdW0NIMl1bQ0gyXVtDQEBdKFtDSDNdKShDMT1PKVtDQF0oW09IXSkoW0NIMl1bQ0gyXTIpW0NAQF0oW0NIM10pKFtDQEBIXShbT0hdKVtDQEhdM1tPSF0pW0NASF0yW0NAQF00KFtDQEBdKE81KShbQ0gzXSlbQ0BASF0oW09IXSlbQ0BIXShPNClbQ0hdNltDSDJdW0NIMl02KVtDQF0oW09IXSkoW0NAQF03KFtPSF0pT1tDSDJdW0NIXThbQ0BAXTEzNSlbQ0gyXVtDSDJdW0NAQF0oW0NIM10pKFtPSF0pW0NAQF05KFtPSF0pW0NAXTcoW0NIM10pT1tDQF0oW0NIM10pKFtTK104W08tXSlbQ0BASF05W09IXQ==

>  <s_epik_cmdline>  (92) 
J2VwaWtfcHl0aG9uJywgJy1waHQnLCAnMi4wJywgJy1waCcsICc3LjAnLCAnLXRuJywgJzgnLCAnLW1hJywgJzIwMCcsICctaW1hZScsICc8aW5maWxlLm1hZT4nLCAnLW9tYWUnLCAnPG91dGZpbGUubWFlPic=

>  <r_lp_tautomer_probability>  (92) 
1

>  <r_epik_Ionization_Penalty>  (92) 
2.4894e-06

>  <r_epik_Ionization_Penalty_Charging>  (92) 
0

>  <r_epik_Ionization_Penalty_Neutral>  (92) 
2.4894e-06

>  <r_epik_State_Penalty>  (92) 
-0

>  <r_epik_Charging_Adjusted_Penalty>  (92) 
0

>  <i_epik_Tot_Q>  (92) 
0

>  <i_epik_Tot_abs_Q>  (92) 
2

>  <s_lp_Force_Field>  (92) 
OPLS3e

>  <r_lp_Energy>  (92) 
455.824

>  <b_lp_Chiralities_Consistent>  (92) 
1

>  <s_lp_Variant>  (92) 
92:0-2

>  <s_i_glide_gridfile>  (92) 
pfpi4k_grid

>  <i_i_glide_lignum>  (92) 
39

>  <i_i_glide_rotatable_bonds>  (92) 
16

>  <r_i_docking_score>  (92) 
-3.03107

>  <r_i_glide_ligand_efficiency>  (92) 
-0.0531766

>  <r_i_glide_ligand_efficiency_sa>  (92) 
-0.20465

>  <r_i_glide_ligand_efficiency_ln>  (92) 
-0.601038

>  <r_i_glide_gscore>  (92) 
-3.03107

>  <r_i_glide_lipo>  (92) 
-0.355037

>  <r_i_glide_hbond>  (92) 
0

>  <r_i_glide_metal>  (92) 
-0

>  <r_i_glide_rewards>  (92) 
-0.5

>  <r_i_glide_evdw>  (92) 
-18.175

>  <r_i_glide_ecoul>  (92) 
-9.71486

>  <r_i_glide_erotb>  (92) 
0.190016

>  <r_i_glide_esite>  (92) 
-6.48043e-05

>  <r_i_glide_emodel>  (92) 
-35.6102

>  <r_i_glide_energy>  (92) 
-27.8899

>  <r_i_glide_einternal>  (92) 
6.44233

>  <r_i_glide_intrahb_reward>  (92) 
-0.5

>  <i_i_glide_confnum>  (92) 
6

>  <i_i_glide_posenum>  (92) 
35

>  <r_i_glide_eff_state_penalty>  (92) 
0

>  <ligand_id>  (92) 
92

>  <original_smiles>  (92) 
CC(CO)CCCC1(C)C(=O)C23OC4(C)C(O)C(C5CC5)OC4(C4CCC1(O)C4(C)C(O)C2O)C1(O)CCC(C)(O)C2(O)C(O)C4(C)OC2(C)C1(O)OCC3[S+]4[O-]

>  <smiles>  (92) 
[H]OC([H])([H])C([H])(C([H])([H])[H])C([H])([H])C([H])([H])C([H])([H])C1(C([H])([H])[H])C(=O)C23OC4(C([H])([H])[H])C([H])(O[H])C([H])(C5([H])C([H])([H])C5([H])[H])OC4(C4([H])C([H])([H])C([H])([H])C1(O[H])C4(C([H])([H])[H])C([H])(O[H])C2([H])O[H])C1(O[H])C([H])([H])C([H])([H])C(O[H])(C([H])([H])[H])C2(O[H])C([H])(O[H])C4(C([H])([H])[H])OC2(C([H])([H])[H])C1(O[H])OC([H])([H])C3([H])S4=O

$$$$
93:0:0
     RDKit          3D

 42 45  0  0  1  0  0  0  0  0999 V2000
    4.6502   -0.6808   -2.2560 C   0  0  0  0  0  0  0  0  0  0  0  0
    4.5262   -1.9504   -1.4315 C   0  0  2  0  0  0  0  0  0  0  0  0
    3.0384   -2.8508   -2.0777 S   0  0  0  0  0  0  0  0  0  0  0  0
    3.4718   -3.4604   -3.4157 O   0  0  0  0  0  0  0  0  0  0  0  0
    3.1915   -4.0422   -0.6609 C   0  0  1  0  0  0  0  0  0  0  0  0
    4.6207   -4.6689   -0.8982 C   0  0  0  0  0  0  0  0  0  0  0  0
    5.6292   -4.4635    0.2927 C   0  0  1  0  0  0  0  0  0  0  0  0
    6.0277   -3.1149    0.7796 O   0  0  0  0  0  0  0  0  0  0  0  0
    5.1540   -1.9746    1.1625 C   0  0  2  0  0  0  0  0  0  0  0  0
    6.1257   -0.8039    1.2297 C   0  0  0  0  0  0  0  0  0  0  0  0
    4.0459   -1.9160    2.3500 C   0  0  2  0  0  0  0  0  0  0  0  0
    4.6656   -2.4948    4.1502 Br  0  0  0  0  0  0  0  0  0  0  0  0
    2.7097   -2.6508    1.8771 C   0  0  1  0  0  0  0  0  0  0  0  0
    1.5613   -1.8306    1.6965 O   0  0  0  0  0  0  0  0  0  0  0  0
    3.3918   -3.1921    0.6019 C   0  0  1  0  0  0  0  0  0  0  0  0
    3.8107   -4.2709    1.5543 O   0  0  0  0  0  0  0  0  0  0  0  0
    4.9541   -5.1078    1.4657 C   0  0  0  0  0  0  0  0  0  0  0  0
    4.4475   -6.5609    1.3079 C   0  0  0  0  0  0  0  0  0  0  0  0
    5.8598   -5.1157    2.7090 C   0  0  0  0  0  0  0  0  0  0  0  0
    4.1577   -1.9037    0.0707 C   0  0  2  0  0  0  0  0  0  0  0  0
    3.4056   -0.6826    0.1165 O   0  0  0  0  0  0  0  0  0  0  0  0
    5.3786   -0.0351   -1.7829 H   0  0  0  0  0  0  0  0  0  0  0  0
    3.7054   -0.1678   -2.3663 H   0  0  0  0  0  0  0  0  0  0  0  0
    4.9686   -0.9358   -3.2608 H   0  0  0  0  0  0  0  0  0  0  0  0
    5.4784   -2.4518   -1.5813 H   0  0  0  0  0  0  0  0  0  0  0  0
    2.3869   -4.7730   -0.5955 H   0  0  0  0  0  0  0  0  0  0  0  0
    4.5077   -5.7415   -1.0414 H   0  0  0  0  0  0  0  0  0  0  0  0
    5.0606   -4.4267   -1.8596 H   0  0  0  0  0  0  0  0  0  0  0  0
    6.5497   -5.0219    0.0638 H   0  0  0  0  0  0  0  0  0  0  0  0
    5.6130    0.1417    1.4269 H   0  0  0  0  0  0  0  0  0  0  0  0
    6.6877   -0.6983    0.2926 H   0  0  0  0  0  0  0  0  0  0  0  0
    6.8420   -0.9848    2.0365 H   0  0  0  0  0  0  0  0  0  0  0  0
    3.7855   -0.8709    2.5125 H   0  0  0  0  0  0  0  0  0  0  0  0
    2.3497   -3.3615    2.6344 H   0  0  0  0  0  0  0  0  0  0  0  0
    1.5519   -1.4411    0.8294 H   0  0  0  0  0  0  0  0  0  0  0  0
    5.2334   -7.2008    0.9040 H   0  0  0  0  0  0  0  0  0  0  0  0
    3.5554   -6.6402    0.6801 H   0  0  0  0  0  0  0  0  0  0  0  0
    4.1659   -6.9633    2.2866 H   0  0  0  0  0  0  0  0  0  0  0  0
    6.6483   -5.8578    2.6051 H   0  0  0  0  0  0  0  0  0  0  0  0
    5.2896   -5.3464    3.6085 H   0  0  0  0  0  0  0  0  0  0  0  0
    6.3434   -4.1581    2.8567 H   0  0  0  0  0  0  0  0  0  0  0  0
    2.6240   -0.7410   -0.4388 H   0  0  0  0  0  0  0  0  0  0  0  0
  1  2  1  0
  1 22  1  0
  1 23  1  0
  1 24  1  0
  2 20  1  0
  3  2  1  1
  2 25  1  1
  3  4  2  0
  3  5  1  0
  5 15  1  0
  5  6  1  0
  5 26  1  1
  6  7  1  0
  6 27  1  0
  6 28  1  0
  7 17  1  0
  7  8  1  0
  7 29  1  6
  8  9  1  0
  9 20  1  0
  9 10  1  1
  9 11  1  0
 10 30  1  0
 10 31  1  0
 10 32  1  0
 11 12  1  0
 11 13  1  0
 11 33  1  1
 13 14  1  0
 13 15  1  0
 13 34  1  1
 14 35  1  0
 15 16  1  1
 15 20  1  0
 16 17  1  0
 17 18  1  0
 17 19  1  0
 18 36  1  0
 18 37  1  0
 18 38  1  0
 19 39  1  0
 19 40  1  0
 19 41  1  0
 20 21  1  6
 21 42  1  0
M  END
>  <i_m_ct_stereo_status>  (93) 
1

>  <s_m_source_file>  (93) 
/var/tmp/pbs.5075288.sched01/tmpndvtliwj/216foptgilz.sdf

>  <i_m_source_file_index>  (93) 
40

>  <i_lp_mmshare_version>  (93) 
48012

>  <i_f3d_flags>  (93) 
0

>  <s_epik_input>  (93) 
QzEyM1tDQEhdNFtTK10oW08tXSlbQ0BASF0oW0NIM10pW0NAXTMoW09IXSlbQ0BAXShbQ0gzXSkoW0NASF0oQnIpW0NASF0xW09IXSlPW0NASF0oW0NIMl00KUMoTzIpKFtDSDNdKVtDSDNd

>  <s_epik_cmdline>  (93) 
J2VwaWtfcHl0aG9uJywgJy1waHQnLCAnMi4wJywgJy1waCcsICc3LjAnLCAnLXRuJywgJzgnLCAnLW1hJywgJzIwMCcsICctaW1hZScsICc8aW5maWxlLm1hZT4nLCAnLW9tYWUnLCAnPG91dGZpbGUubWFlPic=

>  <r_lp_tautomer_probability>  (93) 
1

>  <r_epik_Ionization_Penalty>  (93) 
9.13503e-06

>  <r_epik_Ionization_Penalty_Charging>  (93) 
0

>  <r_epik_Ionization_Penalty_Neutral>  (93) 
9.13503e-06

>  <r_epik_State_Penalty>  (93) 
-0

>  <r_epik_Charging_Adjusted_Penalty>  (93) 
0

>  <i_epik_Tot_Q>  (93) 
0

>  <i_epik_Tot_abs_Q>  (93) 
2

>  <s_lp_Force_Field>  (93) 
OPLS3e

>  <r_lp_Energy>  (93) 
162.095

>  <b_lp_Chiralities_Consistent>  (93) 
1

>  <s_lp_Variant>  (93) 
93:0-1

>  <s_i_glide_gridfile>  (93) 
pfpi4k_grid

>  <i_i_glide_lignum>  (93) 
40

>  <i_i_glide_rotatable_bonds>  (93) 
2

>  <r_i_docking_score>  (93) 
-2.79627

>  <r_i_glide_ligand_efficiency>  (93) 
-0.133156

>  <r_i_glide_ligand_efficiency_sa>  (93) 
-0.367366

>  <r_i_glide_ligand_efficiency_ln>  (93) 
-0.691372

>  <r_i_glide_gscore>  (93) 
-2.79627

>  <r_i_glide_lipo>  (93) 
-0.383108

>  <r_i_glide_hbond>  (93) 
0

>  <r_i_glide_metal>  (93) 
-0

>  <r_i_glide_rewards>  (93) 
-0.80943

>  <r_i_glide_evdw>  (93) 
-18.6598

>  <r_i_glide_ecoul>  (93) 
-4.29946

>  <r_i_glide_erotb>  (93) 
0

>  <r_i_glide_esite>  (93) 
-0.025824

>  <r_i_glide_emodel>  (93) 
-26.4599

>  <r_i_glide_energy>  (93) 
-22.9592

>  <r_i_glide_einternal>  (93) 
0.86704

>  <r_i_glide_intrahb_reward>  (93) 
-0

>  <i_i_glide_confnum>  (93) 
2

>  <i_i_glide_posenum>  (93) 
23

>  <r_i_glide_eff_state_penalty>  (93) 
0

>  <ligand_id>  (93) 
93

>  <original_smiles>  (93) 
CC1[S+]([O-])C2CC3OC4(C)C(Br)C(O)C2(OC3(C)C)C14O

>  <smiles>  (93) 
[H]OC1([H])C([H])(Br)C2(C([H])([H])[H])OC3([H])C([H])([H])C4([H])S(=O)C([H])(C([H])([H])[H])C2(O[H])C14OC3(C([H])([H])[H])C([H])([H])[H]

$$$$
93:0:1
     RDKit          3D

 42 45  0  0  1  0  0  0  0  0999 V2000
    3.6405   -2.5550    5.6957 C   0  0  0  0  0  0  0  0  0  0  0  0
    3.5475   -2.5663    4.1564 C   0  0  2  0  0  0  0  0  0  0  0  0
    1.9260   -1.8023    3.6596 S   0  0  0  0  0  0  0  0  0  0  0  0
    2.0662   -0.2832    3.7633 O   0  0  0  0  0  0  0  0  0  0  0  0
    2.2473   -2.3197    1.9039 C   0  0  1  0  0  0  0  0  0  0  0  0
    3.5732   -1.5515    1.5396 C   0  0  0  0  0  0  0  0  0  0  0  0
    4.7787   -2.5115    1.1696 C   0  0  1  0  0  0  0  0  0  0  0  0
    5.3037   -3.5597    2.0911 O   0  0  0  0  0  0  0  0  0  0  0  0
    4.5713   -4.6396    2.8126 C   0  0  2  0  0  0  0  0  0  0  0  0
    5.5945   -5.1741    3.8291 C   0  0  0  0  0  0  0  0  0  0  0  0
    3.6596   -5.8360    2.1847 C   0  0  2  0  0  0  0  0  0  0  0  0
    4.5415   -6.9417    0.7846 Br  0  0  0  0  0  0  0  0  0  0  0  0
    2.2390   -5.2486    1.7337 C   0  0  1  0  0  0  0  0  0  0  0  0
    1.1252   -5.6729    2.4993 O   0  0  0  0  0  0  0  0  0  0  0  0
    2.6874   -3.7927    1.9752 C   0  0  1  0  0  0  0  0  0  0  0  0
    3.2259   -3.9784    0.5920 O   0  0  0  0  0  0  0  0  0  0  0  0
    4.3001   -3.2856   -0.0175 C   0  0  0  0  0  0  0  0  0  0  0  0
    3.7227   -2.4846   -1.2091 C   0  0  0  0  0  0  0  0  0  0  0  0
    5.4022   -4.1918   -0.6096 C   0  0  0  0  0  0  0  0  0  0  0  0
    3.4155   -3.9054    3.3843 C   0  0  2  0  0  0  0  0  0  0  0  0
    2.7253   -4.6916    4.3716 O   0  0  0  0  0  0  0  0  0  0  0  0
    4.4181   -3.2316    6.0488 H   0  0  0  0  0  0  0  0  0  0  0  0
    2.6988   -2.8222    6.1750 H   0  0  0  0  0  0  0  0  0  0  0  0
    3.9014   -1.5566    6.0443 H   0  0  0  0  0  0  0  0  0  0  0  0
    4.4244   -2.0123    3.8309 H   0  0  0  0  0  0  0  0  0  0  0  0
    1.4217   -2.1102    1.2250 H   0  0  0  0  0  0  0  0  0  0  0  0
    3.3516   -0.8861    0.7083 H   0  0  0  0  0  0  0  0  0  0  0  0
    3.8839   -0.8070    2.2686 H   0  0  0  0  0  0  0  0  0  0  0  0
    5.6242   -1.8954    0.8669 H   0  0  0  0  0  0  0  0  0  0  0  0
    5.1744   -5.9255    4.4968 H   0  0  0  0  0  0  0  0  0  0  0  0
    5.9977   -4.3650    4.4381 H   0  0  0  0  0  0  0  0  0  0  0  0
    6.4278   -5.6324    3.2970 H   0  0  0  0  0  0  0  0  0  0  0  0
    3.4636   -6.5702    2.9691 H   0  0  0  0  0  0  0  0  0  0  0  0
    1.9579   -5.5643    0.7206 H   0  0  0  0  0  0  0  0  0  0  0  0
    1.3712   -5.5530    3.4102 H   0  0  0  0  0  0  0  0  0  0  0  0
    4.3919   -1.6770   -1.5035 H   0  0  0  0  0  0  0  0  0  0  0  0
    2.7411   -2.0643   -0.9978 H   0  0  0  0  0  0  0  0  0  0  0  0
    3.5831   -3.1295   -2.0801 H   0  0  0  0  0  0  0  0  0  0  0  0
    6.1262   -3.6025   -1.1723 H   0  0  0  0  0  0  0  0  0  0  0  0
    4.9783   -4.9253   -1.2991 H   0  0  0  0  0  0  0  0  0  0  0  0
    5.9733   -4.7359    0.1391 H   0  0  0  0  0  0  0  0  0  0  0  0
    3.2927   -4.7750    5.1296 H   0  0  0  0  0  0  0  0  0  0  0  0
  1  2  1  0
  1 22  1  0
  1 23  1  0
  1 24  1  0
  2 20  1  0
  3  2  1  1
  2 25  1  6
  3  4  2  0
  3  5  1  0
  5 15  1  0
  5  6  1  0
  5 26  1  6
  6  7  1  0
  6 27  1  0
  6 28  1  0
  7 17  1  0
  7  8  1  0
  7 29  1  6
  8  9  1  0
  9 20  1  0
  9 10  1  1
  9 11  1  0
 10 30  1  0
 10 31  1  0
 10 32  1  0
 11 12  1  0
 11 13  1  0
 11 33  1  1
 13 14  1  0
 13 15  1  0
 13 34  1  6
 14 35  1  0
 15 16  1  6
 15 20  1  0
 16 17  1  0
 17 18  1  0
 17 19  1  0
 18 36  1  0
 18 37  1  0
 18 38  1  0
 19 39  1  0
 19 40  1  0
 19 41  1  0
 20 21  1  1
 21 42  1  0
M  END
>  <i_m_ct_stereo_status>  (94) 
1

>  <s_m_source_file>  (94) 
/var/tmp/pbs.5075288.sched01/tmpndvtliwj/216foptgilz.sdf

>  <i_m_source_file_index>  (94) 
40

>  <i_lp_mmshare_version>  (94) 
48012

>  <i_f3d_flags>  (94) 
0

>  <s_epik_input>  (94) 
QzEyM1tDQEhdNFtTK10oW08tXSlbQ0BASF0oW0NIM10pW0NAXTMoW09IXSlbQ0BAXShbQ0gzXSkoW0NASF0oQnIpW0NASF0xW09IXSlPW0NASF0oW0NIMl00KUMoTzIpKFtDSDNdKVtDSDNd

>  <s_epik_cmdline>  (94) 
J2VwaWtfcHl0aG9uJywgJy1waHQnLCAnMi4wJywgJy1waCcsICc3LjAnLCAnLXRuJywgJzgnLCAnLW1hJywgJzIwMCcsICctaW1hZScsICc8aW5maWxlLm1hZT4nLCAnLW9tYWUnLCAnPG91dGZpbGUubWFlPic=

>  <r_lp_tautomer_probability>  (94) 
1

>  <r_epik_Ionization_Penalty>  (94) 
9.13503e-06

>  <r_epik_Ionization_Penalty_Charging>  (94) 
0

>  <r_epik_Ionization_Penalty_Neutral>  (94) 
9.13503e-06

>  <r_epik_State_Penalty>  (94) 
-0

>  <r_epik_Charging_Adjusted_Penalty>  (94) 
0

>  <i_epik_Tot_Q>  (94) 
0

>  <i_epik_Tot_abs_Q>  (94) 
2

>  <s_lp_Force_Field>  (94) 
OPLS3e

>  <r_lp_Energy>  (94) 
162.095

>  <b_lp_Chiralities_Consistent>  (94) 
1

>  <s_lp_Variant>  (94) 
93:0-1

>  <s_i_glide_gridfile>  (94) 
pfpi4k_grid

>  <i_i_glide_lignum>  (94) 
40

>  <i_i_glide_rotatable_bonds>  (94) 
2

>  <r_i_docking_score>  (94) 
-2.74958

>  <r_i_glide_ligand_efficiency>  (94) 
-0.130932

>  <r_i_glide_ligand_efficiency_sa>  (94) 
-0.361232

>  <r_i_glide_ligand_efficiency_ln>  (94) 
-0.679827

>  <r_i_glide_gscore>  (94) 
-2.74958

>  <r_i_glide_lipo>  (94) 
-0.236678

>  <r_i_glide_hbond>  (94) 
0

>  <r_i_glide_metal>  (94) 
-0

>  <r_i_glide_rewards>  (94) 
-1.31262

>  <r_i_glide_evdw>  (94) 
-18.1798

>  <r_i_glide_ecoul>  (94) 
-1.94192

>  <r_i_glide_erotb>  (94) 
0

>  <r_i_glide_esite>  (94) 
0

>  <r_i_glide_emodel>  (94) 
-29.2487

>  <r_i_glide_energy>  (94) 
-20.1217

>  <r_i_glide_einternal>  (94) 
0.102031

>  <r_i_glide_intrahb_reward>  (94) 
-0.5

>  <i_i_glide_confnum>  (94) 
1

>  <i_i_glide_posenum>  (94) 
2

>  <r_i_glide_eff_state_penalty>  (94) 
0

>  <ligand_id>  (94) 
93

>  <original_smiles>  (94) 
CC1[S+]([O-])C2CC3OC4(C)C(Br)C(O)C2(OC3(C)C)C14O

>  <smiles>  (94) 
[H]OC1([H])C([H])(Br)C2(C([H])([H])[H])OC3([H])C([H])([H])C4([H])S(=O)C([H])(C([H])([H])[H])C2(O[H])C14OC3(C([H])([H])[H])C([H])([H])[H]

$$$$
93:0:2
     RDKit          3D

 42 45  0  0  1  0  0  0  0  0999 V2000
    6.6385   -3.0244    0.8705 C   0  0  0  0  0  0  0  0  0  0  0  0
    5.2786   -3.7391    0.9315 C   0  0  2  0  0  0  0  0  0  0  0  0
    4.1697   -2.9260   -0.3148 S   0  0  0  0  0  0  0  0  0  0  0  0
    4.5394   -3.4568   -1.7017 O   0  0  0  0  0  0  0  0  0  0  0  0
    2.7519   -3.9103    0.3639 C   0  0  1  0  0  0  0  0  0  0  0  0
    3.1912   -5.3974    0.1284 C   0  0  0  0  0  0  0  0  0  0  0  0
    3.3287   -6.2646    1.4439 C   0  0  1  0  0  0  0  0  0  0  0  0
    4.2175   -5.8902    2.5731 O   0  0  0  0  0  0  0  0  0  0  0  0
    4.3237   -4.5956    3.2954 C   0  0  2  0  0  0  0  0  0  0  0  0
    5.6120   -4.7381    4.1141 C   0  0  0  0  0  0  0  0  0  0  0  0
    3.1647   -3.8016    4.1228 C   0  0  2  0  0  0  0  0  0  0  0  0
    2.2137   -4.8652    5.5145 Br  0  0  0  0  0  0  0  0  0  0  0  0
    2.1709   -3.0747    3.1032 C   0  0  1  0  0  0  0  0  0  0  0  0
    2.2089   -1.6592    3.0681 O   0  0  0  0  0  0  0  0  0  0  0  0
    2.8044   -3.7772    1.8917 C   0  0  1  0  0  0  0  0  0  0  0  0
    1.8432   -4.8582    2.2956 O   0  0  0  0  0  0  0  0  0  0  0  0
    1.9586   -6.2532    2.0467 C   0  0  0  0  0  0  0  0  0  0  0  0
    0.7691   -6.6588    1.1412 C   0  0  0  0  0  0  0  0  0  0  0  0
    1.8658   -7.1552    3.2995 C   0  0  0  0  0  0  0  0  0  0  0  0
    4.3652   -3.6136    2.1857 C   0  0  2  0  0  0  0  0  0  0  0  0
    4.7971   -2.3342    2.6648 O   0  0  0  0  0  0  0  0  0  0  0  0
    7.2182   -3.2735    1.7488 H   0  0  0  0  0  0  0  0  0  0  0  0
    6.5456   -1.9400    0.8056 H   0  0  0  0  0  0  0  0  0  0  0  0
    7.2055   -3.3561    0.0007 H   0  0  0  0  0  0  0  0  0  0  0  0
    5.5117   -4.7789    0.7255 H   0  0  0  0  0  0  0  0  0  0  0  0
    1.8172   -3.6499   -0.1184 H   0  0  0  0  0  0  0  0  0  0  0  0
    2.4360   -5.8390   -0.5057 H   0  0  0  0  0  0  0  0  0  0  0  0
    4.0605   -5.5217   -0.5110 H   0  0  0  0  0  0  0  0  0  0  0  0
    3.5790   -7.2887    1.1591 H   0  0  0  0  0  0  0  0  0  0  0  0
    5.8687   -3.8148    4.6383 H   0  0  0  0  0  0  0  0  0  0  0  0
    6.4482   -5.0132    3.4667 H   0  0  0  0  0  0  0  0  0  0  0  0
    5.4973   -5.5274    4.8580 H   0  0  0  0  0  0  0  0  0  0  0  0
    3.6354   -3.0062    4.7069 H   0  0  0  0  0  0  0  0  0  0  0  0
    1.1155   -3.2701    3.3423 H   0  0  0  0  0  0  0  0  0  0  0  0
    1.6907   -1.3568    2.3365 H   0  0  0  0  0  0  0  0  0  0  0  0
    0.9653   -7.6102    0.6392 H   0  0  0  0  0  0  0  0  0  0  0  0
    0.5311   -5.9197    0.3824 H   0  0  0  0  0  0  0  0  0  0  0  0
   -0.1441   -6.7912    1.7297 H   0  0  0  0  0  0  0  0  0  0  0  0
    1.8301   -8.2077    3.0147 H   0  0  0  0  0  0  0  0  0  0  0  0
    0.9595   -6.9429    3.8708 H   0  0  0  0  0  0  0  0  0  0  0  0
    2.7132   -7.0575    3.9761 H   0  0  0  0  0  0  0  0  0  0  0  0
    4.5158   -1.6765    2.0454 H   0  0  0  0  0  0  0  0  0  0  0  0
  1  2  1  0
  1 22  1  0
  1 23  1  0
  1 24  1  0
  2 20  1  0
  3  2  1  1
  2 25  1  6
  3  4  2  0
  3  5  1  0
  5 15  1  0
  5  6  1  0
  5 26  1  6
  6  7  1  0
  6 27  1  0
  6 28  1  0
  7 17  1  0
  7  8  1  0
  7 29  1  6
  8  9  1  0
  9 20  1  0
  9 10  1  1
  9 11  1  0
 10 30  1  0
 10 31  1  0
 10 32  1  0
 11 12  1  0
 11 13  1  0
 11 33  1  1
 13 14  1  0
 13 15  1  0
 13 34  1  1
 14 35  1  0
 15 16  1  1
 15 20  1  0
 16 17  1  0
 17 18  1  0
 17 19  1  0
 18 36  1  0
 18 37  1  0
 18 38  1  0
 19 39  1  0
 19 40  1  0
 19 41  1  0
 20 21  1  1
 21 42  1  0
M  END
>  <i_m_ct_stereo_status>  (95) 
1

>  <s_m_source_file>  (95) 
/var/tmp/pbs.5075288.sched01/tmpndvtliwj/216foptgilz.sdf

>  <i_m_source_file_index>  (95) 
40

>  <i_lp_mmshare_version>  (95) 
48012

>  <i_f3d_flags>  (95) 
0

>  <s_epik_input>  (95) 
QzEyM1tDQEhdNFtTK10oW08tXSlbQ0BASF0oW0NIM10pW0NAXTMoW09IXSlbQ0BAXShbQ0gzXSkoW0NASF0oQnIpW0NASF0xW09IXSlPW0NASF0oW0NIMl00KUMoTzIpKFtDSDNdKVtDSDNd

>  <s_epik_cmdline>  (95) 
J2VwaWtfcHl0aG9uJywgJy1waHQnLCAnMi4wJywgJy1waCcsICc3LjAnLCAnLXRuJywgJzgnLCAnLW1hJywgJzIwMCcsICctaW1hZScsICc8aW5maWxlLm1hZT4nLCAnLW9tYWUnLCAnPG91dGZpbGUubWFlPic=

>  <r_lp_tautomer_probability>  (95) 
1

>  <r_epik_Ionization_Penalty>  (95) 
9.13503e-06

>  <r_epik_Ionization_Penalty_Charging>  (95) 
0

>  <r_epik_Ionization_Penalty_Neutral>  (95) 
9.13503e-06

>  <r_epik_State_Penalty>  (95) 
-0

>  <r_epik_Charging_Adjusted_Penalty>  (95) 
0

>  <i_epik_Tot_Q>  (95) 
0

>  <i_epik_Tot_abs_Q>  (95) 
2

>  <s_lp_Force_Field>  (95) 
OPLS3e

>  <r_lp_Energy>  (95) 
162.095

>  <b_lp_Chiralities_Consistent>  (95) 
1

>  <s_lp_Variant>  (95) 
93:0-1

>  <s_i_glide_gridfile>  (95) 
pfpi4k_grid

>  <i_i_glide_lignum>  (95) 
40

>  <i_i_glide_rotatable_bonds>  (95) 
2

>  <r_i_docking_score>  (95) 
-2.04016

>  <r_i_glide_ligand_efficiency>  (95) 
-0.0971503

>  <r_i_glide_ligand_efficiency_sa>  (95) 
-0.26803

>  <r_i_glide_ligand_efficiency_ln>  (95) 
-0.504425

>  <r_i_glide_gscore>  (95) 
-2.04016

>  <r_i_glide_lipo>  (95) 
-0.192015

>  <r_i_glide_hbond>  (95) 
0

>  <r_i_glide_metal>  (95) 
-0

>  <r_i_glide_rewards>  (95) 
-0.80943

>  <r_i_glide_evdw>  (95) 
-17.3089

>  <r_i_glide_ecoul>  (95) 
-1.15394

>  <r_i_glide_erotb>  (95) 
0

>  <r_i_glide_esite>  (95) 
-0.000173008

>  <r_i_glide_emodel>  (95) 
-21.2622

>  <r_i_glide_energy>  (95) 
-18.4629

>  <r_i_glide_einternal>  (95) 
0.412413

>  <r_i_glide_intrahb_reward>  (95) 
-0

>  <i_i_glide_confnum>  (95) 
2

>  <i_i_glide_posenum>  (95) 
21

>  <r_i_glide_eff_state_penalty>  (95) 
0

>  <ligand_id>  (95) 
93

>  <original_smiles>  (95) 
CC1[S+]([O-])C2CC3OC4(C)C(Br)C(O)C2(OC3(C)C)C14O

>  <smiles>  (95) 
[H]OC1([H])C([H])(Br)C2(C([H])([H])[H])OC3([H])C([H])([H])C4([H])S(=O)C([H])(C([H])([H])[H])C2(O[H])C14OC3(C([H])([H])[H])C([H])([H])[H]

$$$$
96:2:0
     RDKit          3D

101109  0  0  1  0  0  0  0  0999 V2000
    0.2814  -10.1619    6.3740 C   0  0  0  0  0  0  0  0  0  0  0  0
    0.6725   -9.0053    7.1368 O   0  0  0  0  0  0  0  0  0  0  0  0
    1.5388   -7.9689    6.5745 C   0  0  2  0  0  0  0  0  0  0  0  0
    1.4434   -6.7682    7.5737 C   0  0  0  0  0  0  0  0  0  0  0  0
    0.0853   -6.6150    7.9005 O   0  0  0  0  0  0  0  0  0  0  0  0
    2.1088   -7.0947    8.7715 O   0  0  0  0  0  0  0  0  0  0  0  0
    2.1541   -5.4882    6.9803 C   0  0  1  0  0  0  0  0  0  0  0  0
    1.1261   -4.4091    6.6177 C   0  0  0  0  0  0  0  0  0  0  0  0
    0.9689   -3.3857    7.2865 O   0  0  0  0  0  0  0  0  0  0  0  0
    0.2622   -4.6599    5.3514 C   0  0  0  0  0  0  0  0  0  0  0  0
   -0.4666   -6.0332    5.1071 C   0  0  0  0  0  0  0  0  0  0  0  0
    0.1939   -7.4362    4.7097 C   0  0  1  0  0  0  0  0  0  0  0  0
   -0.5028   -8.0761    3.6652 O   0  0  0  0  0  0  0  0  0  0  0  0
    1.7119   -7.9199    5.0089 C   0  0  1  0  0  0  0  0  0  0  0  0
    3.0565   -7.2811    4.4492 C   0  0  2  0  0  0  0  0  0  0  0  0
    2.2607   -6.1751    3.1741 S   0  0  0  0  0  0  0  0  0  0  0  0
    0.7953   -5.8808    2.7970 O   0  0  0  0  0  0  0  0  0  0  0  0
    2.5566   -7.8579    2.6012 C   0  0  2  0  0  0  0  0  0  0  0  0
    1.4723   -8.3611    1.6074 C   0  0  0  0  0  0  0  0  0  0  0  0
    2.5279   -8.8919    4.0887 C   0  0  1  0  0  0  0  0  0  0  0  0
    3.9730   -9.3336    4.9421 C   0  0  2  0  0  0  0  0  0  0  0  0
    5.0642  -10.5468    5.0316 C   0  0  1  0  0  0  0  0  0  0  0  0
    5.0562  -11.6002    4.0732 O   0  0  0  0  0  0  0  0  0  0  0  0
    6.3328   -9.9229    5.3045 O   0  0  0  0  0  0  0  0  0  0  0  0
    7.2863  -10.0288    6.3121 C   0  0  0  0  0  0  0  0  0  0  0  0
    7.6895  -11.0999    6.7608 O   0  0  0  0  0  0  0  0  0  0  0  0
    7.7607   -8.6822    6.8101 C   0  0  0  0  0  0  0  0  0  0  0  0
    7.0272   -7.5378    7.0185 C   0  0  0  0  0  0  0  0  0  0  0  0
    5.5170   -7.2546    6.7840 C   0  0  1  0  0  0  0  0  0  0  0  0
    4.7858   -8.4165    7.4841 C   0  0  0  0  0  0  0  0  0  0  0  0
    4.8610   -8.3981    8.7114 O   0  0  0  0  0  0  0  0  0  0  0  0
    4.0443   -9.5376    6.6250 C   0  0  1  0  0  0  0  0  0  0  0  0
    3.0402   -9.9649    7.5194 O   0  0  0  0  0  0  0  0  0  0  0  0
    4.5730  -10.9686    6.3818 C   0  0  1  0  0  0  0  0  0  0  0  0
    3.7020  -12.0824    6.1831 O   0  0  0  0  0  0  0  0  0  0  0  0
    4.9576   -5.6850    6.4864 C   0  0  1  0  0  0  0  0  0  0  0  0
    4.6934   -5.1088    5.0663 O   0  0  0  0  0  0  0  0  0  0  0  0
    5.3515   -5.6145    3.9258 C   0  0  0  0  0  0  0  0  0  0  0  0
    6.4187   -6.3099    4.1841 C   0  0  0  0  0  0  0  0  0  0  0  0
    6.1588   -7.7007    3.8083 C   0  0  1  0  0  0  0  0  0  0  0  0
    7.3766   -8.4893    3.7393 O   0  0  0  0  0  0  0  0  0  0  0  0
    8.5884   -7.8872    3.2928 C   0  0  0  0  0  0  0  0  0  0  0  0
    4.5295   -8.2580    4.0019 C   0  0  2  0  0  0  0  0  0  0  0  0
    4.7370   -9.1108    2.6260 C   0  0  0  0  0  0  0  0  0  0  0  0
    4.7120   -8.2585    1.3711 C   0  0  1  0  0  0  0  0  0  0  0  0
    4.2236   -9.0696    0.3403 O   0  0  0  0  0  0  0  0  0  0  0  0
    3.8524   -7.0649    1.8256 C   0  0  1  0  0  0  0  0  0  0  0  0
    3.3384   -6.5497    0.5952 O   0  0  0  0  0  0  0  0  0  0  0  0
    4.7466   -5.6483    2.4126 C   0  0  1  0  0  0  0  0  0  0  0  0
    4.1203   -4.3792    2.2770 O   0  0  0  0  0  0  0  0  0  0  0  0
    5.9507   -5.2996    1.4460 C   0  0  0  0  0  0  0  0  0  0  0  0
    5.6062   -5.0678    0.0698 O   0  0  0  0  0  0  0  0  0  0  0  0
    5.5753   -3.8111   -0.4461 C   0  0  0  0  0  0  0  0  0  0  0  0
    5.1157   -3.7451   -1.9003 C   0  0  0  0  0  0  0  0  0  0  0  0
    5.8632   -2.7851    0.1686 O   0  0  0  0  0  0  0  0  0  0  0  0
    3.6999   -5.1804    7.3620 C   0  0  1  0  0  0  0  0  0  0  0  0
    3.9120   -3.7929    7.5311 O   0  0  0  0  0  0  0  0  0  0  0  0
   -0.4767   -9.8884    5.6572 H   0  0  0  0  0  0  0  0  0  0  0  0
   -0.2130  -10.8986    7.0022 H   0  0  0  0  0  0  0  0  0  0  0  0
    1.1158  -10.6375    5.8579 H   0  0  0  0  0  0  0  0  0  0  0  0
    2.5375   -7.9408    6.7923 H   0  0  0  0  0  0  0  0  0  0  0  0
   -0.2422   -7.5052    7.9925 H   0  0  0  0  0  0  0  0  0  0  0  0
    2.0034   -8.0286    8.9205 H   0  0  0  0  0  0  0  0  0  0  0  0
    2.1995   -5.6285    5.9303 H   0  0  0  0  0  0  0  0  0  0  0  0
   -0.5419   -3.9270    5.4275 H   0  0  0  0  0  0  0  0  0  0  0  0
    0.8437   -4.3582    4.4896 H   0  0  0  0  0  0  0  0  0  0  0  0
   -1.1731   -6.1762    5.9166 H   0  0  0  0  0  0  0  0  0  0  0  0
   -1.1513   -5.8456    4.2881 H   0  0  0  0  0  0  0  0  0  0  0  0
   -0.4045   -7.9287    5.4425 H   0  0  0  0  0  0  0  0  0  0  0  0
   -0.5142   -9.0140    3.8207 H   0  0  0  0  0  0  0  0  0  0  0  0
    3.4043   -6.8140    5.2937 H   0  0  0  0  0  0  0  0  0  0  0  0
    1.8626   -8.6996    0.6581 H   0  0  0  0  0  0  0  0  0  0  0  0
    0.7271   -7.6158    1.3558 H   0  0  0  0  0  0  0  0  0  0  0  0
    0.9652   -9.2468    1.9841 H   0  0  0  0  0  0  0  0  0  0  0  0
    1.9798   -9.8135    3.8738 H   0  0  0  0  0  0  0  0  0  0  0  0
    5.0055  -11.2553    3.1922 H   0  0  0  0  0  0  0  0  0  0  0  0
    8.8074   -8.6310    7.0568 H   0  0  0  0  0  0  0  0  0  0  0  0
    7.5726   -6.6819    7.3922 H   0  0  0  0  0  0  0  0  0  0  0  0
    5.4261   -7.7036    5.8761 H   0  0  0  0  0  0  0  0  0  0  0  0
    2.5802  -10.7090    7.1440 H   0  0  0  0  0  0  0  0  0  0  0  0
    5.2713  -11.2567    7.1576 H   0  0  0  0  0  0  0  0  0  0  0  0
    3.0801  -12.2231    6.8972 H   0  0  0  0  0  0  0  0  0  0  0  0
    5.7962   -5.0792    6.8472 H   0  0  0  0  0  0  0  0  0  0  0  0
    6.9566   -6.1783    5.0799 H   0  0  0  0  0  0  0  0  0  0  0  0
    6.3364   -7.4680    2.7862 H   0  0  0  0  0  0  0  0  0  0  0  0
    9.3712   -8.6547    3.2853 H   0  0  0  0  0  0  0  0  0  0  0  0
    8.9497   -7.0839    3.9509 H   0  0  0  0  0  0  0  0  0  0  0  0
    8.5127   -7.4958    2.2697 H   0  0  0  0  0  0  0  0  0  0  0  0
    5.6972   -9.6742    2.6102 H   0  0  0  0  0  0  0  0  0  0  0  0
    4.0135   -9.9266    2.5005 H   0  0  0  0  0  0  0  0  0  0  0  0
    5.6855   -7.9762    0.9959 H   0  0  0  0  0  0  0  0  0  0  0  0
    4.3716   -9.9948    0.5183 H   0  0  0  0  0  0  0  0  0  0  0  0
    4.0751   -6.2434    0.0712 H   0  0  0  0  0  0  0  0  0  0  0  0
    4.7659   -3.6965    2.4047 H   0  0  0  0  0  0  0  0  0  0  0  0
    6.5243   -4.4799    1.8811 H   0  0  0  0  0  0  0  0  0  0  0  0
    6.6647   -6.1070    1.3652 H   0  0  0  0  0  0  0  0  0  0  0  0
    4.6161   -4.6616   -2.2085 H   0  0  0  0  0  0  0  0  0  0  0  0
    5.9733   -3.5807   -2.5543 H   0  0  0  0  0  0  0  0  0  0  0  0
    4.4150   -2.9172   -2.0457 H   0  0  0  0  0  0  0  0  0  0  0  0
    3.8817   -5.5395    8.3758 H   0  0  0  0  0  0  0  0  0  0  0  0
    3.7828   -3.3660    6.6915 H   0  0  0  0  0  0  0  0  0  0  0  0
  1  2  1  0
  1 58  1  0
  1 59  1  0
  1 60  1  0
  2  3  1  0
  3 14  1  0
  3  4  1  0
  3 61  1  1
  4  5  1  0
  4  6  1  0
  4  7  1  0
  5 62  1  0
  6 63  1  0
  7 56  1  0
  7  8  1  0
  7 64  1  6
  8  9  2  0
  8 10  1  0
 10 11  1  0
 10 65  1  0
 10 66  1  0
 11 12  1  0
 11 67  1  0
 11 68  1  0
 12 13  1  0
 14 12  1  6
 12 69  1  1
 13 70  1  0
 14 20  1  0
 14 15  1  0
 15 43  1  0
 15 16  1  0
 15 71  1  1
 16 17  2  0
 16 18  1  6
 18 47  1  0
 18 19  1  6
 18 20  1  0
 19 72  1  0
 19 73  1  0
 19 74  1  0
 20 21  1  0
 20 75  1  6
 21 32  1  0
 21 43  1  0
 21 22  1  6
 22 34  1  0
 22 23  1  6
 22 24  1  0
 23 76  1  0
 24 25  1  0
 25 26  2  0
 25 27  1  0
 27 28  2  3
 27 77  1  0
 28 29  1  0
 28 78  1  0
 29 30  1  0
 29 36  1  0
 29 79  1  6
 30 31  2  0
 30 32  1  0
 32 33  1  1
 32 34  1  0
 33 80  1  0
 34 35  1  0
 34 81  1  1
 35 82  1  0
 36 37  1  0
 36 56  1  0
 36 83  1  1
 37 38  1  0
 38 49  1  0
 38 39  2  3
 39 40  1  0
 39 84  1  0
 40 41  1  0
 40 43  1  0
 40 85  1  6
 41 42  1  0
 42 86  1  0
 42 87  1  0
 42 88  1  0
 43 44  1  6
 44 45  1  0
 44 89  1  0
 44 90  1  0
 45 46  1  0
 45 47  1  0
 45 91  1  6
 46 92  1  0
 47 48  1  6
 47 49  1  0
 48 93  1  0
 49 50  1  1
 49 51  1  0
 50 94  1  0
 51 52  1  0
 51 95  1  0
 51 96  1  0
 52 53  1  0
 53 54  1  0
 53 55  2  0
 54 97  1  0
 54 98  1  0
 54 99  1  0
 56 57  1  0
 56100  1  1
 57101  1  0
M  END
>  <i_m_ct_stereo_status>  (96) 
1

>  <s_m_source_file>  (96) 
/var/tmp/pbs.5075288.sched01/tmpndvtliwj/216foptgilz.sdf

>  <i_m_source_file_index>  (96) 
56

>  <i_lp_mmshare_version>  (96) 
48012

>  <i_f3d_flags>  (96) 
0

>  <s_epik_input>  (96) 
Tz1DMVtDQF0yKFtPSF0pW0NAQEhdKFtPSF0pW0NAXTMoW09IXSlPQyg9TykvW0NIXT1bQ0hdXFtDSF0xW0NASF0oW0NAQEhdKFtPSF0pW0NAQEhdKEMoW09IXSkoW09IXSlbQ0BIXTRPW0NIM10pQyg9TylbQ0gyXVtDSDJdW0NASF01W09IXSlPL0MoPVtDSF1cW0NASF02T1tDSDNdKVtDQEBdKFtPSF0pKFtDSDJdT0MoPU8pW0NIM10pW0NAQF0oW09IXSkoW0NAQEhdKFtDSDJdNylbT0hdKVtDQEBdKFtTK104W08tXSkoW0NIM10pW0NASF05W0NAQF0yM1tDQEBdNjdbQ0BASF04QzQ1OQ==

>  <s_epik_cmdline>  (96) 
J2VwaWtfcHl0aG9uJywgJy1waHQnLCAnMi4wJywgJy1waCcsICc3LjAnLCAnLXRuJywgJzgnLCAnLW1hJywgJzIwMCcsICctaW1hZScsICc8aW5maWxlLm1hZT4nLCAnLW9tYWUnLCAnPG91dGZpbGUubWFlPic=

>  <r_lp_tautomer_probability>  (96) 
1

>  <r_epik_Ionization_Penalty>  (96) 
0.000796543

>  <r_epik_Ionization_Penalty_Charging>  (96) 
0

>  <r_epik_Ionization_Penalty_Neutral>  (96) 
0.000796543

>  <r_epik_State_Penalty>  (96) 
0.000268708

>  <r_epik_Charging_Adjusted_Penalty>  (96) 
0.000268708

>  <i_epik_Tot_Q>  (96) 
0

>  <i_epik_Tot_abs_Q>  (96) 
2

>  <s_epik_Chemistry_Notes>  (96) 
This compound has an ester and may undergo hydrolysis at high or low pH.

>  <s_lp_Force_Field>  (96) 
OPLS3e

>  <r_lp_Energy>  (96) 
769.175

>  <b_lp_Chiralities_Consistent>  (96) 
1

>  <s_lp_Variant>  (96) 
96:0-3

>  <s_i_glide_gridfile>  (96) 
pfpi4k_grid

>  <i_i_glide_lignum>  (96) 
56

>  <i_i_glide_rotatable_bonds>  (96) 
15

>  <r_i_docking_score>  (96) 
-3.78157

>  <r_i_glide_ligand_efficiency>  (96) 
-0.0663434

>  <r_i_glide_ligand_efficiency_sa>  (96) 
-0.255322

>  <r_i_glide_ligand_efficiency_ln>  (96) 
-0.749858

>  <r_i_glide_gscore>  (96) 
-3.78157

>  <r_i_glide_lipo>  (96) 
-0.161848

>  <r_i_glide_hbond>  (96) 
-0.0104242

>  <r_i_glide_metal>  (96) 
-0

>  <r_i_glide_rewards>  (96) 
-0.578139

>  <r_i_glide_evdw>  (96) 
-25.8804

>  <r_i_glide_ecoul>  (96) 
-11.9488

>  <r_i_glide_erotb>  (96) 
0.0636554

>  <r_i_glide_esite>  (96) 
-0.00847142

>  <r_i_glide_emodel>  (96) 
-45.1896

>  <r_i_glide_energy>  (96) 
-37.8292

>  <r_i_glide_einternal>  (96) 
12.5118

>  <r_i_glide_intrahb_reward>  (96) 
-0.5

>  <i_i_glide_confnum>  (96) 
1

>  <i_i_glide_posenum>  (96) 
30

>  <r_i_glide_eff_state_penalty>  (96) 
0

>  <ligand_id>  (96) 
96

>  <original_smiles>  (96) 
COC1C(O)(O)C2C(=O)CCC(O)C13C1[S+]([O-])C4(C)C3C35C6(O)OC(=O)C=CC(C(=O)C3(O)C6O)C(OC3=CC(OC)C15CC(O)C4(O)C3(O)COC(C)=O)C2O

>  <smiles>  (96) 
[H]OC1([H])C2([H])OC3=C([H])C([H])(OC([H])([H])[H])C45C([H])([H])C([H])(O[H])C(O[H])(C3(O[H])C([H])([H])OC(=O)C([H])([H])[H])C3(C([H])([H])[H])S(=O)C4([H])C4(C([H])(O[H])C([H])([H])C([H])([H])C(=O)C1([H])C(O[H])(O[H])C4([H])OC([H])([H])[H])C3([H])C51C3(O[H])OC(=O)C([H])=C([H])C2([H])C(=O)C1(O[H])C3([H])O[H]

$$$$
96:3:0
     RDKit          3D

101109  0  0  1  0  0  0  0  0999 V2000
    2.6470  -10.6449    6.3674 C   0  0  0  0  0  0  0  0  0  0  0  0
    3.2296   -9.4550    5.7928 O   0  0  0  0  0  0  0  0  0  0  0  0
    2.7856   -8.1377    6.2065 C   0  0  2  0  0  0  0  0  0  0  0  0
    1.1963   -8.0413    6.5922 C   0  0  0  0  0  0  0  0  0  0  0  0
    0.4160   -8.7471    5.7061 O   0  0  0  0  0  0  0  0  0  0  0  0
    0.9640   -8.6818    7.8445 O   0  0  0  0  0  0  0  0  0  0  0  0
    0.3966   -6.6668    6.6788 C   0  0  1  0  0  0  0  0  0  0  0  0
    0.8703   -5.6965    7.7958 C   0  0  0  0  0  0  0  0  0  0  0  0
    0.4937   -4.5234    7.7936 O   0  0  0  0  0  0  0  0  0  0  0  0
    1.6914   -6.1611    9.0245 C   0  0  0  0  0  0  0  0  0  0  0  0
    3.0635   -6.8981    8.8798 C   0  0  0  0  0  0  0  0  0  0  0  0
    4.1051   -6.6725    7.7018 C   0  0  1  0  0  0  0  0  0  0  0  0
    5.1687   -7.5737    7.9739 O   0  0  0  0  0  0  0  0  0  0  0  0
    3.7927   -6.8085    6.0508 C   0  0  1  0  0  0  0  0  0  0  0  0
    5.0633   -6.3306    4.9979 C   0  0  2  0  0  0  0  0  0  0  0  0
    5.6659   -5.0091    6.1565 S   0  0  0  0  0  0  0  0  0  0  0  0
    6.9661   -4.2343    5.9371 O   0  0  0  0  0  0  0  0  0  0  0  0
    3.9734   -4.3342    5.7343 C   0  0  2  0  0  0  0  0  0  0  0  0
    3.5178   -3.8086    7.1500 C   0  0  0  0  0  0  0  0  0  0  0  0
    3.2275   -5.7206    5.1159 C   0  0  1  0  0  0  0  0  0  0  0  0
    3.4469   -6.3916    3.4383 C   0  0  1  0  0  0  0  0  0  0  0  0
    3.4249   -8.0368    3.2478 C   0  0  1  0  0  0  0  0  0  0  0  0
    4.5158   -8.7976    3.6877 O   0  0  0  0  0  0  0  0  0  0  0  0
    2.1806   -8.6244    3.6570 O   0  0  0  0  0  0  0  0  0  0  0  0
    1.4875   -9.6258    3.0329 C   0  0  0  0  0  0  0  0  0  0  0  0
    1.9907  -10.6252    2.5313 O   0  0  0  0  0  0  0  0  0  0  0  0
    0.0231   -9.3854    2.9607 C   0  0  0  0  0  0  0  0  0  0  0  0
   -0.5795   -8.1524    3.0523 C   0  0  0  0  0  0  0  0  0  0  0  0
   -0.0529   -6.6760    2.7668 C   0  0  2  0  0  0  0  0  0  0  0  0
    1.0139   -6.8010    1.6469 C   0  0  0  0  0  0  0  0  0  0  0  0
    0.4358   -7.0389    0.5824 O   0  0  0  0  0  0  0  0  0  0  0  0
    2.5711   -6.7230    1.8962 C   0  0  1  0  0  0  0  0  0  0  0  0
    2.7839   -6.2164    0.5791 O   0  0  0  0  0  0  0  0  0  0  0  0
    3.4437   -7.9498    1.7288 C   0  0  1  0  0  0  0  0  0  0  0  0
    4.7370   -7.7991    1.1247 O   0  0  0  0  0  0  0  0  0  0  0  0
    0.4077   -5.7685    3.9966 C   0  0  1  0  0  0  0  0  0  0  0  0
    0.6738   -4.3566    3.6895 O   0  0  0  0  0  0  0  0  0  0  0  0
    1.9750   -3.8564    3.4439 C   0  0  0  0  0  0  0  0  0  0  0  0
    2.6613   -4.1009    2.3327 C   0  0  0  0  0  0  0  0  0  0  0  0
    4.1722   -4.5850    2.2570 C   0  0  1  0  0  0  0  0  0  0  0  0
    4.8189   -3.7089    1.2771 O   0  0  0  0  0  0  0  0  0  0  0  0
    4.2615   -3.4527   -0.0210 C   0  0  0  0  0  0  0  0  0  0  0  0
    4.8728   -5.7497    3.3334 C   0  0  2  0  0  0  0  0  0  0  0  0
    5.8168   -4.4452    3.4147 C   0  0  0  0  0  0  0  0  0  0  0  0
    5.3128   -3.0262    3.9849 C   0  0  1  0  0  0  0  0  0  0  0  0
    5.3821   -1.9345    3.0708 O   0  0  0  0  0  0  0  0  0  0  0  0
    4.0025   -3.0184    4.8741 C   0  0  2  0  0  0  0  0  0  0  0  0
    4.3126   -1.8398    5.6386 O   0  0  0  0  0  0  0  0  0  0  0  0
    2.5089   -2.7238    4.3027 C   0  0  1  0  0  0  0  0  0  0  0  0
    2.6135   -1.5569    3.4892 O   0  0  0  0  0  0  0  0  0  0  0  0
    1.4028   -2.2889    5.3107 C   0  0  0  0  0  0  0  0  0  0  0  0
    0.2054   -1.8241    4.6812 O   0  0  0  0  0  0  0  0  0  0  0  0
   -0.6436   -1.0296    5.3540 C   0  0  0  0  0  0  0  0  0  0  0  0
   -1.7465   -0.4641    4.4681 C   0  0  0  0  0  0  0  0  0  0  0  0
   -0.5854   -0.7533    6.5530 O   0  0  0  0  0  0  0  0  0  0  0  0
   -0.2974   -5.9443    5.3987 C   0  0  1  0  0  0  0  0  0  0  0  0
   -1.5997   -6.4165    5.2163 O   0  0  0  0  0  0  0  0  0  0  0  0
    3.1788  -11.5337    6.0322 H   0  0  0  0  0  0  0  0  0  0  0  0
    1.6104  -10.7772    6.0633 H   0  0  0  0  0  0  0  0  0  0  0  0
    2.6763  -10.6455    7.4595 H   0  0  0  0  0  0  0  0  0  0  0  0
    3.0948   -8.5343    7.1493 H   0  0  0  0  0  0  0  0  0  0  0  0
    0.7304   -9.6414    5.6732 H   0  0  0  0  0  0  0  0  0  0  0  0
    1.2884   -9.5736    7.8069 H   0  0  0  0  0  0  0  0  0  0  0  0
   -0.4974   -6.9920    7.2113 H   0  0  0  0  0  0  0  0  0  0  0  0
    1.8618   -5.2688    9.6309 H   0  0  0  0  0  0  0  0  0  0  0  0
    1.0320   -6.7705    9.6418 H   0  0  0  0  0  0  0  0  0  0  0  0
    3.5917   -6.5965    9.7883 H   0  0  0  0  0  0  0  0  0  0  0  0
    2.9239   -7.9526    9.1095 H   0  0  0  0  0  0  0  0  0  0  0  0
    4.5700   -5.7913    8.1147 H   0  0  0  0  0  0  0  0  0  0  0  0
    4.8820   -8.4609    7.8224 H   0  0  0  0  0  0  0  0  0  0  0  0
    5.8555   -7.0771    5.0305 H   0  0  0  0  0  0  0  0  0  0  0  0
    2.8130   -2.9901    7.1722 H   0  0  0  0  0  0  0  0  0  0  0  0
    4.3598   -3.4271    7.7329 H   0  0  0  0  0  0  0  0  0  0  0  0
    3.0451   -4.5048    7.7873 H   0  0  0  0  0  0  0  0  0  0  0  0
    2.2568   -5.4887    5.4825 H   0  0  0  0  0  0  0  0  0  0  0  0
    4.3615   -8.9953    4.6038 H   0  0  0  0  0  0  0  0  0  0  0  0
   -0.6373  -10.2483    3.0102 H   0  0  0  0  0  0  0  0  0  0  0  0
    0.1549   -7.7397    3.5082 H   0  0  0  0  0  0  0  0  0  0  0  0
   -0.9424   -6.2234    2.3163 H   0  0  0  0  0  0  0  0  0  0  0  0
    3.7156   -6.2137    0.4103 H   0  0  0  0  0  0  0  0  0  0  0  0
    2.9656   -8.7558    1.1797 H   0  0  0  0  0  0  0  0  0  0  0  0
    5.2426   -7.2068    1.6546 H   0  0  0  0  0  0  0  0  0  0  0  0
    1.2422   -6.3714    4.1678 H   0  0  0  0  0  0  0  0  0  0  0  0
    2.0243   -4.3687    1.5211 H   0  0  0  0  0  0  0  0  0  0  0  0
    4.4667   -5.2603    1.4730 H   0  0  0  0  0  0  0  0  0  0  0  0
    4.9554   -2.8334   -0.5920 H   0  0  0  0  0  0  0  0  0  0  0  0
    3.3221   -2.9064    0.0378 H   0  0  0  0  0  0  0  0  0  0  0  0
    4.1102   -4.3577   -0.6045 H   0  0  0  0  0  0  0  0  0  0  0  0
    6.7213   -4.8150    3.8801 H   0  0  0  0  0  0  0  0  0  0  0  0
    6.4623   -4.3001    2.5331 H   0  0  0  0  0  0  0  0  0  0  0  0
    6.1467   -2.6945    4.5930 H   0  0  0  0  0  0  0  0  0  0  0  0
    4.7944   -2.0968    2.3507 H   0  0  0  0  0  0  0  0  0  0  0  0
    4.3421   -1.1144    5.0259 H   0  0  0  0  0  0  0  0  0  0  0  0
    3.1653   -1.7537    2.7522 H   0  0  0  0  0  0  0  0  0  0  0  0
    1.1228   -3.1342    5.9331 H   0  0  0  0  0  0  0  0  0  0  0  0
    1.7841   -1.5198    5.9773 H   0  0  0  0  0  0  0  0  0  0  0  0
   -2.2845   -1.2651    3.9712 H   0  0  0  0  0  0  0  0  0  0  0  0
   -1.3209    0.1894    3.7059 H   0  0  0  0  0  0  0  0  0  0  0  0
   -2.4595    0.1161    5.0533 H   0  0  0  0  0  0  0  0  0  0  0  0
   -0.5220   -4.9233    5.6828 H   0  0  0  0  0  0  0  0  0  0  0  0
   -1.5653   -7.3451    5.0266 H   0  0  0  0  0  0  0  0  0  0  0  0
  1  2  1  0
  1 58  1  0
  1 59  1  0
  1 60  1  0
  2  3  1  0
  3 14  1  0
  3  4  1  0
  3 61  1  1
  4  5  1  0
  4  6  1  0
  4  7  1  0
  5 62  1  0
  6 63  1  0
  7 56  1  0
  7  8  1  0
  7 64  1  1
  8  9  2  0
  8 10  1  0
 10 11  1  0
 10 65  1  0
 10 66  1  0
 11 12  1  0
 11 67  1  0
 11 68  1  0
 12 13  1  0
 14 12  1  1
 12 69  1  6
 13 70  1  0
 14 20  1  0
 14 15  1  0
 15 43  1  0
 15 16  1  0
 15 71  1  6
 16 17  2  0
 16 18  1  6
 18 47  1  0
 18 19  1  1
 18 20  1  0
 19 72  1  0
 19 73  1  0
 19 74  1  0
 20 21  1  0
 20 75  1  1
 21 32  1  0
 21 43  1  0
 21 22  1  1
 22 34  1  0
 22 23  1  1
 22 24  1  0
 23 76  1  0
 24 25  1  0
 25 26  2  0
 25 27  1  0
 27 28  2  3
 27 77  1  0
 28 29  1  0
 28 78  1  0
 29 30  1  0
 29 36  1  0
 29 79  1  6
 30 31  2  0
 30 32  1  0
 32 33  1  6
 32 34  1  0
 33 80  1  0
 34 35  1  0
 34 81  1  6
 35 82  1  0
 36 37  1  0
 36 56  1  0
 36 83  1  1
 37 38  1  0
 38 49  1  0
 38 39  2  3
 39 40  1  0
 39 84  1  0
 40 41  1  0
 40 43  1  0
 40 85  1  6
 41 42  1  0
 42 86  1  0
 42 87  1  0
 42 88  1  0
 43 44  1  6
 44 45  1  0
 44 89  1  0
 44 90  1  0
 45 46  1  0
 45 47  1  0
 45 91  1  1
 46 92  1  0
 47 48  1  1
 47 49  1  0
 48 93  1  0
 49 50  1  6
 49 51  1  0
 50 94  1  0
 51 52  1  0
 51 95  1  0
 51 96  1  0
 52 53  1  0
 53 54  1  0
 53 55  2  0
 54 97  1  0
 54 98  1  0
 54 99  1  0
 56 57  1  0
 56100  1  1
 57101  1  0
M  END
>  <i_m_ct_stereo_status>  (97) 
1

>  <s_m_source_file>  (97) 
/var/tmp/pbs.5075288.sched01/tmpndvtliwj/216foptgilz.sdf

>  <i_m_source_file_index>  (97) 
57

>  <i_lp_mmshare_version>  (97) 
48012

>  <i_f3d_flags>  (97) 
3

>  <s_epik_input>  (97) 
Tz1DMVtDQF0yKFtPSF0pW0NAQEhdKFtPSF0pW0NAXTMoW09IXSlPQyg9TykvW0NIXT1bQ0hdXFtDSF0xW0NASF0oW0NAQEhdKFtPSF0pW0NAQEhdKEMoW09IXSkoW09IXSlbQ0BIXTRPW0NIM10pQyg9TylbQ0gyXVtDSDJdW0NASF01W09IXSlPL0MoPVtDSF1cW0NASF02T1tDSDNdKVtDQEBdKFtPSF0pKFtDSDJdT0MoPU8pW0NIM10pW0NAQF0oW09IXSkoW0NAQEhdKFtDSDJdNylbT0hdKVtDQEBdKFtTK104W08tXSkoW0NIM10pW0NASF05W0NAQF0yM1tDQEBdNjdbQ0BASF04QzQ1OQ==

>  <s_epik_cmdline>  (97) 
J2VwaWtfcHl0aG9uJywgJy1waHQnLCAnMi4wJywgJy1waCcsICc3LjAnLCAnLXRuJywgJzgnLCAnLW1hJywgJzIwMCcsICctaW1hZScsICc8aW5maWxlLm1hZT4nLCAnLW9tYWUnLCAnPG91dGZpbGUubWFlPic=

>  <r_lp_tautomer_probability>  (97) 
1

>  <r_epik_Ionization_Penalty>  (97) 
0.000796543

>  <r_epik_Ionization_Penalty_Charging>  (97) 
0

>  <r_epik_Ionization_Penalty_Neutral>  (97) 
0.000796543

>  <r_epik_State_Penalty>  (97) 
0.000268708

>  <r_epik_Charging_Adjusted_Penalty>  (97) 
0.000268708

>  <i_epik_Tot_Q>  (97) 
0

>  <i_epik_Tot_abs_Q>  (97) 
2

>  <s_epik_Chemistry_Notes>  (97) 
This compound has an ester and may undergo hydrolysis at high or low pH.

>  <s_lp_Force_Field>  (97) 
OPLS3e

>  <r_lp_Energy>  (97) 
748.67

>  <b_lp_Chiralities_Consistent>  (97) 
0

>  <s_lp_Variant>  (97) 
96:0-4

>  <s_i_glide_gridfile>  (97) 
pfpi4k_grid

>  <i_i_glide_lignum>  (97) 
57

>  <i_i_glide_rotatable_bonds>  (97) 
15

>  <r_i_docking_score>  (97) 
-1.48372

>  <r_i_glide_ligand_efficiency>  (97) 
-0.0260303

>  <r_i_glide_ligand_efficiency_sa>  (97) 
-0.100177

>  <r_i_glide_ligand_efficiency_ln>  (97) 
-0.294212

>  <r_i_glide_gscore>  (97) 
-1.48372

>  <r_i_glide_lipo>  (97) 
-0.0759055

>  <r_i_glide_hbond>  (97) 
-0.0413766

>  <r_i_glide_metal>  (97) 
-0

>  <r_i_glide_rewards>  (97) 
-1.04862

>  <r_i_glide_evdw>  (97) 
-23.1891

>  <r_i_glide_ecoul>  (97) 
-4.40845

>  <r_i_glide_erotb>  (97) 
0.0636554

>  <r_i_glide_esite>  (97) 
-0.11618

>  <r_i_glide_emodel>  (97) 
-29.2286

>  <r_i_glide_energy>  (97) 
-27.5975

>  <r_i_glide_einternal>  (97) 
9.38157

>  <r_i_glide_intrahb_reward>  (97) 
-1

>  <i_i_glide_confnum>  (97) 
1

>  <i_i_glide_posenum>  (97) 
15

>  <r_i_glide_eff_state_penalty>  (97) 
0

>  <ligand_id>  (97) 
96

>  <original_smiles>  (97) 
COC1C(O)(O)C2C(=O)CCC(O)C13C1[S+]([O-])C4(C)C3C35C6(O)OC(=O)C=CC(C(=O)C3(O)C6O)C(OC3=CC(OC)C15CC(O)C4(O)C3(O)COC(C)=O)C2O

>  <smiles>  (97) 
[H]OC1([H])C2([H])OC3=C([H])C([H])(OC([H])([H])[H])C45C([H])([H])C([H])(O[H])C(O[H])(C3(O[H])C([H])([H])OC(=O)C([H])([H])[H])C3(C([H])([H])[H])S(=O)C4([H])C4(C([H])(O[H])C([H])([H])C([H])([H])C(=O)C1([H])C(O[H])(O[H])C4([H])OC([H])([H])[H])C3([H])C51C3(O[H])OC(=O)C([H])=C([H])C2([H])C(=O)C1(O[H])C3([H])O[H]

$$$$
96:3:1
     RDKit          3D

101109  0  0  1  0  0  0  0  0999 V2000
    7.0549    1.3939    5.8365 C   0  0  0  0  0  0  0  0  0  0  0  0
    5.7533    1.9731    6.0820 O   0  0  0  0  0  0  0  0  0  0  0  0
    5.0797    1.7910    7.3543 C   0  0  2  0  0  0  0  0  0  0  0  0
    5.2693    0.3079    8.0126 C   0  0  0  0  0  0  0  0  0  0  0  0
    5.1670   -0.6702    7.0546 O   0  0  0  0  0  0  0  0  0  0  0  0
    6.5936    0.1798    8.5085 O   0  0  0  0  0  0  0  0  0  0  0  0
    4.3428   -0.2673    9.1726 C   0  0  1  0  0  0  0  0  0  0  0  0
    4.4160    0.5014   10.5172 C   0  0  0  0  0  0  0  0  0  0  0  0
    3.5705    0.3106   11.3864 O   0  0  0  0  0  0  0  0  0  0  0  0
    5.6080    1.4086   10.9069 C   0  0  0  0  0  0  0  0  0  0  0  0
    6.0412    2.6300   10.0278 C   0  0  0  0  0  0  0  0  0  0  0  0
    5.0636    3.5182    9.1341 C   0  0  1  0  0  0  0  0  0  0  0  0
    5.9133    4.4658    8.5080 O   0  0  0  0  0  0  0  0  0  0  0  0
    4.0201    2.9576    7.9376 C   0  0  1  0  0  0  0  0  0  0  0  0
    2.9545    4.1257    7.2639 C   0  0  2  0  0  0  0  0  0  0  0  0
    2.7940    5.0676    8.8611 S   0  0  0  0  0  0  0  0  0  0  0  0
    2.0941    6.4156    8.9704 O   0  0  0  0  0  0  0  0  0  0  0  0
    2.0093    3.4464    9.3645 C   0  0  2  0  0  0  0  0  0  0  0  0
    2.6193    3.2848   10.8108 C   0  0  0  0  0  0  0  0  0  0  0  0
    2.5818    2.4293    8.1357 C   0  0  1  0  0  0  0  0  0  0  0  0
    1.8892    2.3103    6.4452 C   0  0  1  0  0  0  0  0  0  0  0  0
    2.9547    2.0157    5.1982 C   0  0  1  0  0  0  0  0  0  0  0  0
    3.8046    3.0461    4.7383 O   0  0  0  0  0  0  0  0  0  0  0  0
    3.6186    0.7553    5.3302 O   0  0  0  0  0  0  0  0  0  0  0  0
    3.9414   -0.1380    4.3541 C   0  0  0  0  0  0  0  0  0  0  0  0
    4.2893    0.1318    3.2238 O   0  0  0  0  0  0  0  0  0  0  0  0
    3.7229   -1.5708    4.7965 C   0  0  0  0  0  0  0  0  0  0  0  0
    2.8547   -1.9889    5.7921 C   0  0  0  0  0  0  0  0  0  0  0  0
    1.5745   -1.2848    6.4962 C   0  0  2  0  0  0  0  0  0  0  0  0
    0.9358   -0.4185    5.3967 C   0  0  0  0  0  0  0  0  0  0  0  0
    0.4110   -1.1214    4.5257 O   0  0  0  0  0  0  0  0  0  0  0  0
    1.0509    1.1834    5.3060 C   0  0  1  0  0  0  0  0  0  0  0  0
   -0.2211    1.2865    4.6597 O   0  0  0  0  0  0  0  0  0  0  0  0
    1.8374    1.8410    4.1802 C   0  0  1  0  0  0  0  0  0  0  0  0
    1.3227    3.0285    3.6029 O   0  0  0  0  0  0  0  0  0  0  0  0
    1.8245   -0.4976    7.8835 C   0  0  1  0  0  0  0  0  0  0  0  0
    0.5817   -0.0790    8.5599 O   0  0  0  0  0  0  0  0  0  0  0  0
    0.0829    1.2371    8.4662 C   0  0  0  0  0  0  0  0  0  0  0  0
   -0.5152    1.7168    7.3782 C   0  0  0  0  0  0  0  0  0  0  0  0
   -0.2126    3.1191    6.6966 C   0  0  1  0  0  0  0  0  0  0  0  0
   -1.5216    3.7359    6.4613 O   0  0  0  0  0  0  0  0  0  0  0  0
   -2.5939    3.0505    5.8009 C   0  0  0  0  0  0  0  0  0  0  0  0
    1.3848    3.7789    6.5294 C   0  0  2  0  0  0  0  0  0  0  0  0
    0.4966    4.9081    7.2822 C   0  0  0  0  0  0  0  0  0  0  0  0
   -0.1388    4.7070    8.7425 C   0  0  1  0  0  0  0  0  0  0  0  0
   -1.5525    4.8083    8.8182 O   0  0  0  0  0  0  0  0  0  0  0  0
    0.4629    3.5442    9.6383 C   0  0  2  0  0  0  0  0  0  0  0  0
    0.1587    4.1068   10.9233 O   0  0  0  0  0  0  0  0  0  0  0  0
   -0.1436    2.0389    9.7347 C   0  0  1  0  0  0  0  0  0  0  0  0
   -1.5474    2.1910    9.9180 O   0  0  0  0  0  0  0  0  0  0  0  0
    0.2405    1.1596   10.9709 C   0  0  0  0  0  0  0  0  0  0  0  0
   -0.3110   -0.1598   10.9562 O   0  0  0  0  0  0  0  0  0  0  0  0
    0.1873   -1.1220   11.7616 C   0  0  0  0  0  0  0  0  0  0  0  0
   -0.5739   -2.4363   11.6442 C   0  0  0  0  0  0  0  0  0  0  0  0
    1.1400   -1.0024   12.5295 O   0  0  0  0  0  0  0  0  0  0  0  0
    2.9408   -1.0363    8.9120 C   0  0  1  0  0  0  0  0  0  0  0  0
    3.1695   -2.4159    8.7322 O   0  0  0  0  0  0  0  0  0  0  0  0
    7.4447    1.7281    4.8816 H   0  0  0  0  0  0  0  0  0  0  0  0
    7.0313    0.3061    5.7898 H   0  0  0  0  0  0  0  0  0  0  0  0
    7.7924    1.6786    6.5928 H   0  0  0  0  0  0  0  0  0  0  0  0
    6.0139    2.1909    7.6957 H   0  0  0  0  0  0  0  0  0  0  0  0
    5.6487   -0.3814    6.2923 H   0  0  0  0  0  0  0  0  0  0  0  0
    7.2044    0.5113    7.8660 H   0  0  0  0  0  0  0  0  0  0  0  0
    4.9436   -1.1145    9.5030 H   0  0  0  0  0  0  0  0  0  0  0  0
    5.3856    1.7919   11.9056 H   0  0  0  0  0  0  0  0  0  0  0  0
    6.4701    0.7605   11.0632 H   0  0  0  0  0  0  0  0  0  0  0  0
    6.4565    3.3219   10.7680 H   0  0  0  0  0  0  0  0  0  0  0  0
    6.9630    2.3760    9.5061 H   0  0  0  0  0  0  0  0  0  0  0  0
    4.7198    4.1574    9.9349 H   0  0  0  0  0  0  0  0  0  0  0  0
    6.3987    4.0442    7.8141 H   0  0  0  0  0  0  0  0  0  0  0  0
    3.5099    4.7915    6.6132 H   0  0  0  0  0  0  0  0  0  0  0  0
    2.0416    2.7330   11.5347 H   0  0  0  0  0  0  0  0  0  0  0  0
    2.7607    4.2460   11.3104 H   0  0  0  0  0  0  0  0  0  0  0  0
    3.5602    2.8023   10.8827 H   0  0  0  0  0  0  0  0  0  0  0  0
    2.6603    1.5671    8.7442 H   0  0  0  0  0  0  0  0  0  0  0  0
    4.0022    2.8318    3.8315 H   0  0  0  0  0  0  0  0  0  0  0  0
    4.3893   -2.2840    4.3797 H   0  0  0  0  0  0  0  0  0  0  0  0
    2.9195   -1.1203    6.2374 H   0  0  0  0  0  0  0  0  0  0  0  0
    0.9280   -2.1187    6.7319 H   0  0  0  0  0  0  0  0  0  0  0  0
   -0.2713    2.1460    4.2955 H   0  0  0  0  0  0  0  0  0  0  0  0
    2.0281    1.1724    3.3446 H   0  0  0  0  0  0  0  0  0  0  0  0
    1.0472    2.8561    2.7110 H   0  0  0  0  0  0  0  0  0  0  0  0
    2.3986    0.2490    7.4336 H   0  0  0  0  0  0  0  0  0  0  0  0
   -0.9002    0.9337    6.7520 H   0  0  0  0  0  0  0  0  0  0  0  0
   -0.2702    3.1855    5.6241 H   0  0  0  0  0  0  0  0  0  0  0  0
   -3.4342    3.7388    5.6877 H   0  0  0  0  0  0  0  0  0  0  0  0
   -2.9617    2.2000    6.3727 H   0  0  0  0  0  0  0  0  0  0  0  0
   -2.3365    2.7220    4.7945 H   0  0  0  0  0  0  0  0  0  0  0  0
    1.0465    5.8423    7.1831 H   0  0  0  0  0  0  0  0  0  0  0  0
   -0.2186    5.4318    6.6331 H   0  0  0  0  0  0  0  0  0  0  0  0
    0.0370    5.6636    9.2286 H   0  0  0  0  0  0  0  0  0  0  0  0
   -1.9269    3.9716    8.5747 H   0  0  0  0  0  0  0  0  0  0  0  0
   -0.7759    4.0286   11.0607 H   0  0  0  0  0  0  0  0  0  0  0  0
   -1.7391    2.1900   10.8481 H   0  0  0  0  0  0  0  0  0  0  0  0
    1.3123    1.0280   11.0021 H   0  0  0  0  0  0  0  0  0  0  0  0
   -0.0639    1.6462   11.8970 H   0  0  0  0  0  0  0  0  0  0  0  0
   -0.5898   -2.7860   10.6134 H   0  0  0  0  0  0  0  0  0  0  0  0
   -1.6001   -2.2974   11.9855 H   0  0  0  0  0  0  0  0  0  0  0  0
   -0.1105   -3.2055   12.2620 H   0  0  0  0  0  0  0  0  0  0  0  0
    2.3897   -1.0590    9.8410 H   0  0  0  0  0  0  0  0  0  0  0  0
    3.6989   -2.5425    7.9565 H   0  0  0  0  0  0  0  0  0  0  0  0
  1  2  1  0
  1 58  1  0
  1 59  1  0
  1 60  1  0
  2  3  1  0
  3 14  1  0
  3  4  1  0
  3 61  1  1
  4  5  1  0
  4  6  1  0
  4  7  1  0
  5 62  1  0
  6 63  1  0
  7 56  1  0
  7  8  1  0
  7 64  1  1
  8  9  2  0
  8 10  1  0
 10 11  1  0
 10 65  1  0
 10 66  1  0
 11 12  1  0
 11 67  1  0
 11 68  1  0
 12 13  1  0
 14 12  1  1
 12 69  1  1
 13 70  1  0
 14 20  1  0
 14 15  1  0
 15 43  1  0
 15 16  1  0
 15 71  1  6
 16 17  2  0
 16 18  1  1
 18 47  1  0
 18 19  1  1
 18 20  1  0
 19 72  1  0
 19 73  1  0
 19 74  1  0
 20 21  1  0
 20 75  1  1
 21 32  1  0
 21 43  1  0
 21 22  1  6
 22 34  1  0
 22 23  1  6
 22 24  1  0
 23 76  1  0
 24 25  1  0
 25 26  2  0
 25 27  1  0
 27 28  2  3
 27 77  1  0
 28 29  1  0
 28 78  1  0
 29 30  1  0
 29 36  1  0
 29 79  1  1
 30 31  2  0
 30 32  1  0
 32 33  1  6
 32 34  1  0
 33 80  1  0
 34 35  1  0
 34 81  1  6
 35 82  1  0
 36 37  1  0
 36 56  1  0
 36 83  1  6
 37 38  1  0
 38 49  1  0
 38 39  2  3
 39 40  1  0
 39 84  1  0
 40 41  1  0
 40 43  1  0
 40 85  1  6
 41 42  1  0
 42 86  1  0
 42 87  1  0
 42 88  1  0
 43 44  1  6
 44 45  1  0
 44 89  1  0
 44 90  1  0
 45 46  1  0
 45 47  1  0
 45 91  1  1
 46 92  1  0
 47 48  1  1
 47 49  1  0
 48 93  1  0
 49 50  1  1
 49 51  1  0
 50 94  1  0
 51 52  1  0
 51 95  1  0
 51 96  1  0
 52 53  1  0
 53 54  1  0
 53 55  2  0
 54 97  1  0
 54 98  1  0
 54 99  1  0
 56 57  1  0
 56100  1  1
 57101  1  0
M  END
>  <i_m_ct_stereo_status>  (98) 
1

>  <s_m_source_file>  (98) 
/var/tmp/pbs.5075288.sched01/tmpndvtliwj/216foptgilz.sdf

>  <i_m_source_file_index>  (98) 
57

>  <i_lp_mmshare_version>  (98) 
48012

>  <i_f3d_flags>  (98) 
3

>  <s_epik_input>  (98) 
Tz1DMVtDQF0yKFtPSF0pW0NAQEhdKFtPSF0pW0NAXTMoW09IXSlPQyg9TykvW0NIXT1bQ0hdXFtDSF0xW0NASF0oW0NAQEhdKFtPSF0pW0NAQEhdKEMoW09IXSkoW09IXSlbQ0BIXTRPW0NIM10pQyg9TylbQ0gyXVtDSDJdW0NASF01W09IXSlPL0MoPVtDSF1cW0NASF02T1tDSDNdKVtDQEBdKFtPSF0pKFtDSDJdT0MoPU8pW0NIM10pW0NAQF0oW09IXSkoW0NAQEhdKFtDSDJdNylbT0hdKVtDQEBdKFtTK104W08tXSkoW0NIM10pW0NASF05W0NAQF0yM1tDQEBdNjdbQ0BASF04QzQ1OQ==

>  <s_epik_cmdline>  (98) 
J2VwaWtfcHl0aG9uJywgJy1waHQnLCAnMi4wJywgJy1waCcsICc3LjAnLCAnLXRuJywgJzgnLCAnLW1hJywgJzIwMCcsICctaW1hZScsICc8aW5maWxlLm1hZT4nLCAnLW9tYWUnLCAnPG91dGZpbGUubWFlPic=

>  <r_lp_tautomer_probability>  (98) 
1

>  <r_epik_Ionization_Penalty>  (98) 
0.000796543

>  <r_epik_Ionization_Penalty_Charging>  (98) 
0

>  <r_epik_Ionization_Penalty_Neutral>  (98) 
0.000796543

>  <r_epik_State_Penalty>  (98) 
0.000268708

>  <r_epik_Charging_Adjusted_Penalty>  (98) 
0.000268708

>  <i_epik_Tot_Q>  (98) 
0

>  <i_epik_Tot_abs_Q>  (98) 
2

>  <s_epik_Chemistry_Notes>  (98) 
This compound has an ester and may undergo hydrolysis at high or low pH.

>  <s_lp_Force_Field>  (98) 
OPLS3e

>  <r_lp_Energy>  (98) 
748.67

>  <b_lp_Chiralities_Consistent>  (98) 
0

>  <s_lp_Variant>  (98) 
96:0-4

>  <s_i_glide_gridfile>  (98) 
pfpi4k_grid

>  <i_i_glide_lignum>  (98) 
57

>  <i_i_glide_rotatable_bonds>  (98) 
15

>  <r_i_docking_score>  (98) 
-0.179199

>  <r_i_glide_ligand_efficiency>  (98) 
-0.00314385

>  <r_i_glide_ligand_efficiency_sa>  (98) 
-0.0120991

>  <r_i_glide_ligand_efficiency_ln>  (98) 
-0.0355339

>  <r_i_glide_gscore>  (98) 
-0.179199

>  <r_i_glide_lipo>  (98) 
-0.140345

>  <r_i_glide_hbond>  (98) 
0

>  <r_i_glide_metal>  (98) 
-0

>  <r_i_glide_rewards>  (98) 
-0.0026641

>  <r_i_glide_evdw>  (98) 
-24.6099

>  <r_i_glide_ecoul>  (98) 
-3.8038

>  <r_i_glide_erotb>  (98) 
0.0636554

>  <r_i_glide_esite>  (98) 
-0.0438995

>  <r_i_glide_emodel>  (98) 
-16.4812

>  <r_i_glide_energy>  (98) 
-28.4137

>  <r_i_glide_einternal>  (98) 
10.1903

>  <r_i_glide_intrahb_reward>  (98) 
-0

>  <i_i_glide_confnum>  (98) 
3

>  <i_i_glide_posenum>  (98) 
16

>  <r_i_glide_eff_state_penalty>  (98) 
0

>  <ligand_id>  (98) 
96

>  <original_smiles>  (98) 
COC1C(O)(O)C2C(=O)CCC(O)C13C1[S+]([O-])C4(C)C3C35C6(O)OC(=O)C=CC(C(=O)C3(O)C6O)C(OC3=CC(OC)C15CC(O)C4(O)C3(O)COC(C)=O)C2O

>  <smiles>  (98) 
[H]OC1([H])C2([H])OC3=C([H])C([H])(OC([H])([H])[H])C45C([H])([H])C([H])(O[H])C(O[H])(C3(O[H])C([H])([H])OC(=O)C([H])([H])[H])C3(C([H])([H])[H])S(=O)C4([H])C4(C([H])(O[H])C([H])([H])C([H])([H])C(=O)C1([H])C(O[H])(O[H])C4([H])OC([H])([H])[H])C3([H])C51C3(O[H])OC(=O)C([H])=C([H])C2([H])C(=O)C1(O[H])C3([H])O[H]

$$$$
96:4:0
     RDKit          3D

101109  0  0  1  0  0  0  0  0999 V2000
    3.7864  -12.1344    3.4168 C   0  0  0  0  0  0  0  0  0  0  0  0
    4.1608  -10.8010    3.7382 O   0  0  0  0  0  0  0  0  0  0  0  0
    3.1500   -9.7941    3.9182 C   0  0  2  0  0  0  0  0  0  0  0  0
    1.8224   -9.6418    2.9840 C   0  0  0  0  0  0  0  0  0  0  0  0
    2.0260   -9.3841    1.6254 O   0  0  0  0  0  0  0  0  0  0  0  0
    1.1027  -10.8602    3.0740 O   0  0  0  0  0  0  0  0  0  0  0  0
    0.7423   -8.5332    3.3995 C   0  0  1  0  0  0  0  0  0  0  0  0
    0.2688   -8.6346    4.8801 C   0  0  0  0  0  0  0  0  0  0  0  0
   -0.6274   -7.8878    5.2570 O   0  0  0  0  0  0  0  0  0  0  0  0
    0.7686   -9.7256    5.8830 C   0  0  0  0  0  0  0  0  0  0  0  0
    2.1115   -9.6169    6.7252 C   0  0  0  0  0  0  0  0  0  0  0  0
    3.4811   -8.9410    6.2345 C   0  0  1  0  0  0  0  0  0  0  0  0
    4.4835   -9.8914    6.5609 O   0  0  0  0  0  0  0  0  0  0  0  0
    3.7175   -8.5006    4.7138 C   0  0  2  0  0  0  0  0  0  0  0  0
    3.8032   -7.2346    3.6982 C   0  0  2  0  0  0  0  0  0  0  0  0
    4.5283   -8.0994    2.1849 S   0  0  0  0  0  0  0  0  0  0  0  0
    4.6486   -9.5485    1.7912 O   0  0  0  0  0  0  0  0  0  0  0  0
    5.8172   -7.7133    3.3266 C   0  0  2  0  0  0  0  0  0  0  0  0
    6.7961   -8.9239    3.4332 C   0  0  0  0  0  0  0  0  0  0  0  0
    4.9325   -7.5470    4.8454 C   0  0  1  0  0  0  0  0  0  0  0  0
    4.1180   -6.0532    5.3852 C   0  0  2  0  0  0  0  0  0  0  0  0
    4.3116   -4.9023    6.5028 C   0  0  1  0  0  0  0  0  0  0  0  0
    5.5491   -4.8703    7.1959 O   0  0  0  0  0  0  0  0  0  0  0  0
    3.9442   -3.6239    5.9174 O   0  0  0  0  0  0  0  0  0  0  0  0
    2.8553   -2.7763    6.1029 C   0  0  0  0  0  0  0  0  0  0  0  0
    2.5476   -2.3088    7.1985 O   0  0  0  0  0  0  0  0  0  0  0  0
    2.0523   -2.4729    4.8601 C   0  0  0  0  0  0  0  0  0  0  0  0
    1.4352   -3.3217    3.9725 C   0  0  0  0  0  0  0  0  0  0  0  0
    1.5400   -4.8664    3.8636 C   0  0  1  0  0  0  0  0  0  0  0  0
    1.3270   -5.3724    5.2665 C   0  0  0  0  0  0  0  0  0  0  0  0
    0.2021   -5.1523    5.7483 O   0  0  0  0  0  0  0  0  0  0  0  0
    2.5325   -6.0021    6.0065 C   0  0  1  0  0  0  0  0  0  0  0  0
    1.7912   -6.9981    6.5791 O   0  0  0  0  0  0  0  0  0  0  0  0
    3.1213   -5.3867    7.3109 C   0  0  1  0  0  0  0  0  0  0  0  0
    3.4301   -6.2491    8.3967 O   0  0  0  0  0  0  0  0  0  0  0  0
    1.4064   -5.7600    2.4697 C   0  0  1  0  0  0  0  0  0  0  0  0
    2.5878   -6.0885    1.5492 O   0  0  0  0  0  0  0  0  0  0  0  0
    3.7529   -5.2701    1.4363 C   0  0  0  0  0  0  0  0  0  0  0  0
    3.7434   -4.1350    2.0442 C   0  0  0  0  0  0  0  0  0  0  0  0
    4.5338   -4.1655    3.2493 C   0  0  1  0  0  0  0  0  0  0  0  0
    4.7576   -2.8544    3.8113 O   0  0  0  0  0  0  0  0  0  0  0  0
    4.9789   -1.7097    2.9791 C   0  0  0  0  0  0  0  0  0  0  0  0
    4.6126   -5.6686    4.0603 C   0  0  2  0  0  0  0  0  0  0  0  0
    6.2014   -5.3712    4.3144 C   0  0  0  0  0  0  0  0  0  0  0  0
    7.0692   -5.5976    3.0636 C   0  0  1  0  0  0  0  0  0  0  0  0
    8.3234   -6.0919    3.5004 O   0  0  0  0  0  0  0  0  0  0  0  0
    6.2603   -6.5650    2.1853 C   0  0  1  0  0  0  0  0  0  0  0  0
    7.2646   -7.1273    1.3296 O   0  0  0  0  0  0  0  0  0  0  0  0
    5.2042   -5.8154    1.0037 C   0  0  1  0  0  0  0  0  0  0  0  0
    4.9776   -6.6199   -0.1378 O   0  0  0  0  0  0  0  0  0  0  0  0
    6.0058   -4.6955    0.2209 C   0  0  0  0  0  0  0  0  0  0  0  0
    5.2332   -3.9699   -0.7420 O   0  0  0  0  0  0  0  0  0  0  0  0
    5.7455   -2.8614   -1.3386 C   0  0  0  0  0  0  0  0  0  0  0  0
    4.8001   -2.2506   -2.3678 C   0  0  0  0  0  0  0  0  0  0  0  0
    6.8454   -2.3507   -1.1155 O   0  0  0  0  0  0  0  0  0  0  0  0
    0.4932   -7.0997    2.6221 C   0  0  1  0  0  0  0  0  0  0  0  0
   -0.0370   -7.3683    1.3326 O   0  0  0  0  0  0  0  0  0  0  0  0
    4.6870  -12.7398    3.3029 H   0  0  0  0  0  0  0  0  0  0  0  0
    3.2385  -12.1921    2.4792 H   0  0  0  0  0  0  0  0  0  0  0  0
    3.1841  -12.5848    4.2088 H   0  0  0  0  0  0  0  0  0  0  0  0
    2.7225  -10.4368    4.6544 H   0  0  0  0  0  0  0  0  0  0  0  0
    2.6393  -10.0217    1.2880 H   0  0  0  0  0  0  0  0  0  0  0  0
    1.6973  -11.5783    2.9307 H   0  0  0  0  0  0  0  0  0  0  0  0
   -0.1600   -9.0094    3.0075 H   0  0  0  0  0  0  0  0  0  0  0  0
   -0.0310   -9.8147    6.6194 H   0  0  0  0  0  0  0  0  0  0  0  0
    0.7269  -10.6971    5.3974 H   0  0  0  0  0  0  0  0  0  0  0  0
    1.8552   -9.2066    7.7042 H   0  0  0  0  0  0  0  0  0  0  0  0
    2.3319  -10.6511    6.9831 H   0  0  0  0  0  0  0  0  0  0  0  0
    3.7917   -8.1838    6.9369 H   0  0  0  0  0  0  0  0  0  0  0  0
    4.2525  -10.7227    6.1787 H   0  0  0  0  0  0  0  0  0  0  0  0
    2.7741   -7.1382    3.5803 H   0  0  0  0  0  0  0  0  0  0  0  0
    7.7378   -8.6195    3.8898 H   0  0  0  0  0  0  0  0  0  0  0  0
    7.0334   -9.3826    2.4762 H   0  0  0  0  0  0  0  0  0  0  0  0
    6.3867   -9.7047    4.0674 H   0  0  0  0  0  0  0  0  0  0  0  0
    5.6285   -7.8673    5.6289 H   0  0  0  0  0  0  0  0  0  0  0  0
    6.2031   -4.6379    6.5529 H   0  0  0  0  0  0  0  0  0  0  0  0
    1.9260   -1.4179    4.6857 H   0  0  0  0  0  0  0  0  0  0  0  0
    0.9389   -2.8439    3.1287 H   0  0  0  0  0  0  0  0  0  0  0  0
    2.5487   -4.9629    3.9865 H   0  0  0  0  0  0  0  0  0  0  0  0
    2.3569   -7.4800    7.1560 H   0  0  0  0  0  0  0  0  0  0  0  0
    2.4624   -4.6406    7.7383 H   0  0  0  0  0  0  0  0  0  0  0  0
    4.0503   -6.8901    8.1047 H   0  0  0  0  0  0  0  0  0  0  0  0
    0.8508   -5.0978    1.8223 H   0  0  0  0  0  0  0  0  0  0  0  0
    2.8572   -3.6889    2.3144 H   0  0  0  0  0  0  0  0  0  0  0  0
    5.4244   -4.0165    2.6668 H   0  0  0  0  0  0  0  0  0  0  0  0
    5.2476   -0.8747    3.6289 H   0  0  0  0  0  0  0  0  0  0  0  0
    4.0911   -1.4014    2.4273 H   0  0  0  0  0  0  0  0  0  0  0  0
    5.8025   -1.8481    2.2821 H   0  0  0  0  0  0  0  0  0  0  0  0
    6.3816   -4.3568    4.6809 H   0  0  0  0  0  0  0  0  0  0  0  0
    6.6448   -5.9234    5.1497 H   0  0  0  0  0  0  0  0  0  0  0  0
    7.3274   -4.7022    2.5089 H   0  0  0  0  0  0  0  0  0  0  0  0
    8.8044   -6.3595    2.7340 H   0  0  0  0  0  0  0  0  0  0  0  0
    6.8793   -7.8767    0.9058 H   0  0  0  0  0  0  0  0  0  0  0  0
    4.5212   -6.1277   -0.8083 H   0  0  0  0  0  0  0  0  0  0  0  0
    6.4112   -3.9418    0.8889 H   0  0  0  0  0  0  0  0  0  0  0  0
    6.8799   -5.1132   -0.2880 H   0  0  0  0  0  0  0  0  0  0  0  0
    3.8102   -2.7024   -2.2991 H   0  0  0  0  0  0  0  0  0  0  0  0
    5.1846   -2.4110   -3.3751 H   0  0  0  0  0  0  0  0  0  0  0  0
    4.6999   -1.1770   -2.2037 H   0  0  0  0  0  0  0  0  0  0  0  0
   -0.4019   -6.6941    3.0966 H   0  0  0  0  0  0  0  0  0  0  0  0
    0.2628   -8.2363    1.0729 H   0  0  0  0  0  0  0  0  0  0  0  0
  1  2  1  0
  1 58  1  0
  1 59  1  0
  1 60  1  0
  2  3  1  0
  3 14  1  0
  3  4  1  0
  3 61  1  1
  4  5  1  0
  4  6  1  0
  4  7  1  0
  5 62  1  0
  6 63  1  0
  7 56  1  0
  7  8  1  0
  7 64  1  6
  8  9  2  0
  8 10  1  0
 10 11  1  0
 10 65  1  0
 10 66  1  0
 11 12  1  0
 11 67  1  0
 11 68  1  0
 12 13  1  0
 14 12  1  1
 12 69  1  1
 13 70  1  0
 14 20  1  0
 14 15  1  0
 15 43  1  0
 15 16  1  0
 15 71  1  6
 16 17  2  0
 16 18  1  1
 18 47  1  0
 18 19  1  1
 18 20  1  0
 19 72  1  0
 19 73  1  0
 19 74  1  0
 20 21  1  0
 20 75  1  1
 21 32  1  0
 21 43  1  0
 21 22  1  1
 22 34  1  0
 22 23  1  1
 22 24  1  0
 23 76  1  0
 24 25  1  0
 25 26  2  0
 25 27  1  0
 27 28  2  3
 27 77  1  0
 28 29  1  0
 28 78  1  0
 29 30  1  0
 29 36  1  0
 29 79  1  1
 30 31  2  0
 30 32  1  0
 32 33  1  1
 32 34  1  0
 33 80  1  0
 34 35  1  0
 34 81  1  1
 35 82  1  0
 36 37  1  0
 36 56  1  0
 36 83  1  6
 37 38  1  0
 38 49  1  0
 38 39  2  3
 39 40  1  0
 39 84  1  0
 40 41  1  0
 40 43  1  0
 40 85  1  6
 41 42  1  0
 42 86  1  0
 42 87  1  0
 42 88  1  0
 43 44  1  1
 44 45  1  0
 44 89  1  0
 44 90  1  0
 45 46  1  0
 45 47  1  0
 45 91  1  6
 46 92  1  0
 47 48  1  6
 47 49  1  0
 48 93  1  0
 49 50  1  6
 49 51  1  0
 50 94  1  0
 51 52  1  0
 51 95  1  0
 51 96  1  0
 52 53  1  0
 53 54  1  0
 53 55  2  0
 54 97  1  0
 54 98  1  0
 54 99  1  0
 56 57  1  0
 56100  1  1
 57101  1  0
M  END
>  <i_m_ct_stereo_status>  (99) 
1

>  <s_m_source_file>  (99) 
/var/tmp/pbs.5075288.sched01/tmpndvtliwj/216foptgilz.sdf

>  <i_m_source_file_index>  (99) 
58

>  <i_lp_mmshare_version>  (99) 
48012

>  <i_f3d_flags>  (99) 
0

>  <s_epik_input>  (99) 
Tz1DMVtDQF0yKFtPSF0pW0NAQEhdKFtPSF0pW0NAXTMoW09IXSlPQyg9TykvW0NIXT1bQ0hdXFtDSF0xW0NASF0oW0NAQEhdKFtPSF0pW0NAQEhdKEMoW09IXSkoW09IXSlbQ0BIXTRPW0NIM10pQyg9TylbQ0gyXVtDSDJdW0NASF01W09IXSlPL0MoPVtDSF1cW0NASF02T1tDSDNdKVtDQEBdKFtPSF0pKFtDSDJdT0MoPU8pW0NIM10pW0NAQF0oW09IXSkoW0NAQEhdKFtDSDJdNylbT0hdKVtDQEBdKFtTK104W08tXSkoW0NIM10pW0NASF05W0NAQF0yM1tDQEBdNjdbQ0BASF04QzQ1OQ==

>  <s_epik_cmdline>  (99) 
J2VwaWtfcHl0aG9uJywgJy1waHQnLCAnMi4wJywgJy1waCcsICc3LjAnLCAnLXRuJywgJzgnLCAnLW1hJywgJzIwMCcsICctaW1hZScsICc8aW5maWxlLm1hZT4nLCAnLW9tYWUnLCAnPG91dGZpbGUubWFlPic=

>  <r_lp_tautomer_probability>  (99) 
1

>  <r_epik_Ionization_Penalty>  (99) 
0.000796543

>  <r_epik_Ionization_Penalty_Charging>  (99) 
0

>  <r_epik_Ionization_Penalty_Neutral>  (99) 
0.000796543

>  <r_epik_State_Penalty>  (99) 
0.000268708

>  <r_epik_Charging_Adjusted_Penalty>  (99) 
0.000268708

>  <i_epik_Tot_Q>  (99) 
0

>  <i_epik_Tot_abs_Q>  (99) 
2

>  <s_epik_Chemistry_Notes>  (99) 
This compound has an ester and may undergo hydrolysis at high or low pH.

>  <s_lp_Force_Field>  (99) 
OPLS3e

>  <r_lp_Energy>  (99) 
764.728

>  <b_lp_Chiralities_Consistent>  (99) 
1

>  <s_lp_Variant>  (99) 
96:0-5

>  <s_i_glide_gridfile>  (99) 
pfpi4k_grid

>  <i_i_glide_lignum>  (99) 
58

>  <i_i_glide_rotatable_bonds>  (99) 
15

>  <r_i_docking_score>  (99) 
-4.16794

>  <r_i_glide_ligand_efficiency>  (99) 
-0.0731217

>  <r_i_glide_ligand_efficiency_sa>  (99) 
-0.281409

>  <r_i_glide_ligand_efficiency_ln>  (99) 
-0.826471

>  <r_i_glide_gscore>  (99) 
-4.16794

>  <r_i_glide_lipo>  (99) 
-0.457114

>  <r_i_glide_hbond>  (99) 
-0.154839

>  <r_i_glide_metal>  (99) 
-0

>  <r_i_glide_rewards>  (99) 
-0.559563

>  <r_i_glide_evdw>  (99) 
-33.012

>  <r_i_glide_ecoul>  (99) 
-9.11279

>  <r_i_glide_erotb>  (99) 
0.0636554

>  <r_i_glide_esite>  (99) 
-0.042556

>  <r_i_glide_emodel>  (99) 
-53.1536

>  <r_i_glide_energy>  (99) 
-42.1248

>  <r_i_glide_einternal>  (99) 
5.94356

>  <r_i_glide_intrahb_reward>  (99) 
-0.5

>  <i_i_glide_confnum>  (99) 
1

>  <i_i_glide_posenum>  (99) 
10

>  <r_i_glide_eff_state_penalty>  (99) 
0

>  <ligand_id>  (99) 
96

>  <original_smiles>  (99) 
COC1C(O)(O)C2C(=O)CCC(O)C13C1[S+]([O-])C4(C)C3C35C6(O)OC(=O)C=CC(C(=O)C3(O)C6O)C(OC3=CC(OC)C15CC(O)C4(O)C3(O)COC(C)=O)C2O

>  <smiles>  (99) 
[H]OC1([H])C2([H])OC3=C([H])C([H])(OC([H])([H])[H])C45C([H])([H])C([H])(O[H])C(O[H])(C3(O[H])C([H])([H])OC(=O)C([H])([H])[H])C3(C([H])([H])[H])S(=O)C4([H])C4(C([H])(O[H])C([H])([H])C([H])([H])C(=O)C1([H])C(O[H])(O[H])C4([H])OC([H])([H])[H])C3([H])C51C3(O[H])OC(=O)C([H])=C([H])C2([H])C(=O)C1(O[H])C3([H])O[H]

$$$$
96:4:1
     RDKit          3D

101109  0  0  1  0  0  0  0  0999 V2000
   -1.1343   -9.1727    2.4113 C   0  0  0  0  0  0  0  0  0  0  0  0
    0.2421   -9.1262    2.7682 O   0  0  0  0  0  0  0  0  0  0  0  0
    0.6531   -8.4057    3.9431 C   0  0  2  0  0  0  0  0  0  0  0  0
    0.0524   -6.9474    4.3876 C   0  0  0  0  0  0  0  0  0  0  0  0
    0.2322   -5.8815    3.4921 O   0  0  0  0  0  0  0  0  0  0  0  0
   -1.3530   -7.1096    4.5320 O   0  0  0  0  0  0  0  0  0  0  0  0
    0.5396   -6.3419    5.7934 C   0  0  1  0  0  0  0  0  0  0  0  0
    0.3771   -7.3093    7.0052 C   0  0  0  0  0  0  0  0  0  0  0  0
    0.5472   -6.8804    8.1468 O   0  0  0  0  0  0  0  0  0  0  0  0
   -0.2140   -8.7474    6.8681 C   0  0  0  0  0  0  0  0  0  0  0  0
    0.5785  -10.0231    6.4485 C   0  0  0  0  0  0  0  0  0  0  0  0
    1.7822  -10.0939    5.4025 C   0  0  1  0  0  0  0  0  0  0  0  0
    1.4750  -11.1917    4.5585 O   0  0  0  0  0  0  0  0  0  0  0  0
    2.1286   -8.8497    4.4560 C   0  0  2  0  0  0  0  0  0  0  0  0
    3.1698   -7.6317    4.1990 C   0  0  2  0  0  0  0  0  0  0  0  0
    2.6190   -7.1120    2.4675 S   0  0  0  0  0  0  0  0  0  0  0  0
    1.3832   -7.3828    1.6534 O   0  0  0  0  0  0  0  0  0  0  0  0
    3.6895   -8.5118    2.3696 C   0  0  2  0  0  0  0  0  0  0  0  0
    3.1296   -9.5305    1.3576 C   0  0  0  0  0  0  0  0  0  0  0  0
    3.5607   -9.2103    3.9856 C   0  0  1  0  0  0  0  0  0  0  0  0
    4.5101   -8.6933    5.3974 C   0  0  2  0  0  0  0  0  0  0  0  0
    5.7192   -9.2485    6.3201 C   0  0  1  0  0  0  0  0  0  0  0  0
    6.4294  -10.3818    5.8685 O   0  0  0  0  0  0  0  0  0  0  0  0
    6.5795   -8.1278    6.6545 O   0  0  0  0  0  0  0  0  0  0  0  0
    6.8130   -7.4340    7.8379 C   0  0  0  0  0  0  0  0  0  0  0  0
    7.1783   -7.9726    8.8785 O   0  0  0  0  0  0  0  0  0  0  0  0
    6.5706   -5.9419    7.7621 C   0  0  0  0  0  0  0  0  0  0  0  0
    5.4463   -5.2467    7.3809 C   0  0  0  0  0  0  0  0  0  0  0  0
    4.1492   -5.7714    6.7222 C   0  0  1  0  0  0  0  0  0  0  0  0
    3.7369   -6.9620    7.5588 C   0  0  0  0  0  0  0  0  0  0  0  0
    3.4211   -6.7005    8.7302 O   0  0  0  0  0  0  0  0  0  0  0  0
    3.8551   -8.3768    6.9310 C   0  0  1  0  0  0  0  0  0  0  0  0
    2.6848   -8.8134    7.4925 O   0  0  0  0  0  0  0  0  0  0  0  0
    4.7998   -9.4704    7.5070 C   0  0  1  0  0  0  0  0  0  0  0  0
    4.3666  -10.8191    7.6470 O   0  0  0  0  0  0  0  0  0  0  0  0
    3.1705   -4.9202    5.6828 C   0  0  1  0  0  0  0  0  0  0  0  0
    3.3697   -4.9194    4.1482 O   0  0  0  0  0  0  0  0  0  0  0  0
    4.6231   -5.1056    3.5107 C   0  0  0  0  0  0  0  0  0  0  0  0
    5.6647   -5.1770    4.2705 C   0  0  0  0  0  0  0  0  0  0  0  0
    6.1458   -6.5353    4.4192 C   0  0  1  0  0  0  0  0  0  0  0  0
    7.4443   -6.6126    5.0423 O   0  0  0  0  0  0  0  0  0  0  0  0
    8.4221   -5.5808    4.8925 C   0  0  0  0  0  0  0  0  0  0  0  0
    4.9625   -7.7487    4.3656 C   0  0  2  0  0  0  0  0  0  0  0  0
    6.0153   -8.6345    3.4709 C   0  0  0  0  0  0  0  0  0  0  0  0
    6.1172   -8.1656    2.0137 C   0  0  1  0  0  0  0  0  0  0  0  0
    6.3522   -9.3092    1.2117 O   0  0  0  0  0  0  0  0  0  0  0  0
    4.7925   -7.4125    1.7383 C   0  0  1  0  0  0  0  0  0  0  0  0
    4.6427   -7.4148    0.3219 O   0  0  0  0  0  0  0  0  0  0  0  0
    4.8145   -5.6890    1.9997 C   0  0  1  0  0  0  0  0  0  0  0  0
    3.8977   -4.9742    1.1564 O   0  0  0  0  0  0  0  0  0  0  0  0
    6.1003   -5.0644    1.3375 C   0  0  0  0  0  0  0  0  0  0  0  0
    6.2685   -3.6568    1.5560 O   0  0  0  0  0  0  0  0  0  0  0  0
    6.5638   -2.8271    0.5255 C   0  0  0  0  0  0  0  0  0  0  0  0
    6.6487   -1.3650    0.9471 C   0  0  0  0  0  0  0  0  0  0  0  0
    6.7504   -3.1545   -0.6465 O   0  0  0  0  0  0  0  0  0  0  0  0
    1.5863   -5.0757    5.9850 C   0  0  1  0  0  0  0  0  0  0  0  0
    0.9648   -3.9072    5.4719 O   0  0  0  0  0  0  0  0  0  0  0  0
   -1.2601   -9.7685    1.5128 H   0  0  0  0  0  0  0  0  0  0  0  0
   -1.5323   -8.1821    2.1947 H   0  0  0  0  0  0  0  0  0  0  0  0
   -1.7379   -9.6549    3.1790 H   0  0  0  0  0  0  0  0  0  0  0  0
   -0.0412   -9.0164    4.4750 H   0  0  0  0  0  0  0  0  0  0  0  0
    1.1510   -5.6522    3.4776 H   0  0  0  0  0  0  0  0  0  0  0  0
   -1.5298   -7.9954    4.8222 H   0  0  0  0  0  0  0  0  0  0  0  0
   -0.3542   -5.7616    6.0426 H   0  0  0  0  0  0  0  0  0  0  0  0
   -0.6420   -8.9714    7.8493 H   0  0  0  0  0  0  0  0  0  0  0  0
   -1.0690   -8.7380    6.2142 H   0  0  0  0  0  0  0  0  0  0  0  0
    0.8775  -10.4093    7.4043 H   0  0  0  0  0  0  0  0  0  0  0  0
   -0.1788  -10.7474    6.1358 H   0  0  0  0  0  0  0  0  0  0  0  0
    2.6531  -10.5276    5.8692 H   0  0  0  0  0  0  0  0  0  0  0  0
    1.3913  -11.9719    5.0942 H   0  0  0  0  0  0  0  0  0  0  0  0
    2.7455   -6.9862    4.9041 H   0  0  0  0  0  0  0  0  0  0  0  0
    3.8945  -10.2313    1.0490 H   0  0  0  0  0  0  0  0  0  0  0  0
    2.7415   -9.0659    0.4770 H   0  0  0  0  0  0  0  0  0  0  0  0
    2.3112  -10.1157    1.7610 H   0  0  0  0  0  0  0  0  0  0  0  0
    3.6909  -10.2864    3.8510 H   0  0  0  0  0  0  0  0  0  0  0  0
    5.7923  -11.0812    5.7836 H   0  0  0  0  0  0  0  0  0  0  0  0
    7.4105   -5.3612    8.0963 H   0  0  0  0  0  0  0  0  0  0  0  0
    5.5449   -4.1608    7.3796 H   0  0  0  0  0  0  0  0  0  0  0  0
    4.5543   -6.4107    6.0343 H   0  0  0  0  0  0  0  0  0  0  0  0
    2.5657   -9.7271    7.2966 H   0  0  0  0  0  0  0  0  0  0  0  0
    5.1637   -9.2050    8.4935 H   0  0  0  0  0  0  0  0  0  0  0  0
    3.4934  -10.9347    7.2977 H   0  0  0  0  0  0  0  0  0  0  0  0
    3.4109   -3.8789    5.9130 H   0  0  0  0  0  0  0  0  0  0  0  0
    5.6462   -4.7982    5.2138 H   0  0  0  0  0  0  0  0  0  0  0  0
    6.6599   -6.4491    3.4741 H   0  0  0  0  0  0  0  0  0  0  0  0
    9.3599   -5.9156    5.3388 H   0  0  0  0  0  0  0  0  0  0  0  0
    8.1439   -4.6753    5.4285 H   0  0  0  0  0  0  0  0  0  0  0  0
    8.6316   -5.3487    3.8475 H   0  0  0  0  0  0  0  0  0  0  0  0
    7.0262   -8.6352    3.8891 H   0  0  0  0  0  0  0  0  0  0  0  0
    5.8340   -9.7087    3.4895 H   0  0  0  0  0  0  0  0  0  0  0  0
    6.9980   -7.5604    1.8243 H   0  0  0  0  0  0  0  0  0  0  0  0
    5.6263   -9.9109    1.3065 H   0  0  0  0  0  0  0  0  0  0  0  0
    5.3189   -6.8677   -0.0570 H   0  0  0  0  0  0  0  0  0  0  0  0
    4.0797   -5.1691    0.2509 H   0  0  0  0  0  0  0  0  0  0  0  0
    7.0219   -5.5090    1.7087 H   0  0  0  0  0  0  0  0  0  0  0  0
    6.1129   -5.2793    0.2675 H   0  0  0  0  0  0  0  0  0  0  0  0
    6.6624   -1.2707    2.0326 H   0  0  0  0  0  0  0  0  0  0  0  0
    5.7882   -0.8154    0.5649 H   0  0  0  0  0  0  0  0  0  0  0  0
    7.5547   -0.9058    0.5502 H   0  0  0  0  0  0  0  0  0  0  0  0
    1.5433   -4.8613    7.0516 H   0  0  0  0  0  0  0  0  0  0  0  0
    1.5114   -3.1560    5.6539 H   0  0  0  0  0  0  0  0  0  0  0  0
  1  2  1  0
  1 58  1  0
  1 59  1  0
  1 60  1  0
  2  3  1  0
  3 14  1  0
  3  4  1  0
  3 61  1  1
  4  5  1  0
  4  6  1  0
  4  7  1  0
  5 62  1  0
  6 63  1  0
  7 56  1  0
  7  8  1  0
  7 64  1  1
  8  9  2  0
  8 10  1  0
 10 11  1  0
 10 65  1  0
 10 66  1  0
 11 12  1  0
 11 67  1  0
 11 68  1  0
 12 13  1  0
 14 12  1  1
 12 69  1  1
 13 70  1  0
 14 20  1  0
 14 15  1  0
 15 43  1  0
 15 16  1  0
 15 71  1  1
 16 17  2  0
 16 18  1  6
 18 47  1  0
 18 19  1  6
 18 20  1  0
 19 72  1  0
 19 73  1  0
 19 74  1  0
 20 21  1  0
 20 75  1  6
 21 32  1  0
 21 43  1  0
 21 22  1  1
 22 34  1  0
 22 23  1  6
 22 24  1  0
 23 76  1  0
 24 25  1  0
 25 26  2  0
 25 27  1  0
 27 28  2  3
 27 77  1  0
 28 29  1  0
 28 78  1  0
 29 30  1  0
 29 36  1  0
 29 79  1  6
 30 31  2  0
 30 32  1  0
 32 33  1  6
 32 34  1  0
 33 80  1  0
 34 35  1  0
 34 81  1  1
 35 82  1  0
 36 37  1  0
 36 56  1  0
 36 83  1  1
 37 38  1  0
 38 49  1  0
 38 39  2  3
 39 40  1  0
 39 84  1  0
 40 41  1  0
 40 43  1  0
 40 85  1  6
 41 42  1  0
 42 86  1  0
 42 87  1  0
 42 88  1  0
 43 44  1  6
 44 45  1  0
 44 89  1  0
 44 90  1  0
 45 46  1  0
 45 47  1  0
 45 91  1  1
 46 92  1  0
 47 48  1  6
 47 49  1  0
 48 93  1  0
 49 50  1  6
 49 51  1  0
 50 94  1  0
 51 52  1  0
 51 95  1  0
 51 96  1  0
 52 53  1  0
 53 54  1  0
 53 55  2  0
 54 97  1  0
 54 98  1  0
 54 99  1  0
 56 57  1  0
 56100  1  1
 57101  1  0
M  END
>  <i_m_ct_stereo_status>  (100) 
1

>  <s_m_source_file>  (100) 
/var/tmp/pbs.5075288.sched01/tmpndvtliwj/216foptgilz.sdf

>  <i_m_source_file_index>  (100) 
58

>  <i_lp_mmshare_version>  (100) 
48012

>  <i_f3d_flags>  (100) 
0

>  <s_epik_input>  (100) 
Tz1DMVtDQF0yKFtPSF0pW0NAQEhdKFtPSF0pW0NAXTMoW09IXSlPQyg9TykvW0NIXT1bQ0hdXFtDSF0xW0NASF0oW0NAQEhdKFtPSF0pW0NAQEhdKEMoW09IXSkoW09IXSlbQ0BIXTRPW0NIM10pQyg9TylbQ0gyXVtDSDJdW0NASF01W09IXSlPL0MoPVtDSF1cW0NASF02T1tDSDNdKVtDQEBdKFtPSF0pKFtDSDJdT0MoPU8pW0NIM10pW0NAQF0oW09IXSkoW0NAQEhdKFtDSDJdNylbT0hdKVtDQEBdKFtTK104W08tXSkoW0NIM10pW0NASF05W0NAQF0yM1tDQEBdNjdbQ0BASF04QzQ1OQ==

>  <s_epik_cmdline>  (100) 
J2VwaWtfcHl0aG9uJywgJy1waHQnLCAnMi4wJywgJy1waCcsICc3LjAnLCAnLXRuJywgJzgnLCAnLW1hJywgJzIwMCcsICctaW1hZScsICc8aW5maWxlLm1hZT4nLCAnLW9tYWUnLCAnPG91dGZpbGUubWFlPic=

>  <r_lp_tautomer_probability>  (100) 
1

>  <r_epik_Ionization_Penalty>  (100) 
0.000796543

>  <r_epik_Ionization_Penalty_Charging>  (100) 
0

>  <r_epik_Ionization_Penalty_Neutral>  (100) 
0.000796543

>  <r_epik_State_Penalty>  (100) 
0.000268708

>  <r_epik_Charging_Adjusted_Penalty>  (100) 
0.000268708

>  <i_epik_Tot_Q>  (100) 
0

>  <i_epik_Tot_abs_Q>  (100) 
2

>  <s_epik_Chemistry_Notes>  (100) 
This compound has an ester and may undergo hydrolysis at high or low pH.

>  <s_lp_Force_Field>  (100) 
OPLS3e

>  <r_lp_Energy>  (100) 
764.728

>  <b_lp_Chiralities_Consistent>  (100) 
1

>  <s_lp_Variant>  (100) 
96:0-5

>  <s_i_glide_gridfile>  (100) 
pfpi4k_grid

>  <i_i_glide_lignum>  (100) 
58

>  <i_i_glide_rotatable_bonds>  (100) 
15

>  <r_i_docking_score>  (100) 
-3.7429

>  <r_i_glide_ligand_efficiency>  (100) 
-0.0656649

>  <r_i_glide_ligand_efficiency_sa>  (100) 
-0.252711

>  <r_i_glide_ligand_efficiency_ln>  (100) 
-0.742189

>  <r_i_glide_gscore>  (100) 
-3.7429

>  <r_i_glide_lipo>  (100) 
-0.475966

>  <r_i_glide_hbond>  (100) 
0

>  <r_i_glide_metal>  (100) 
-0

>  <r_i_glide_rewards>  (100) 
-0.624643

>  <r_i_glide_evdw>  (100) 
-28.3495

>  <r_i_glide_ecoul>  (100) 
-8.27482

>  <r_i_glide_erotb>  (100) 
0.0636554

>  <r_i_glide_esite>  (100) 
-0.0472461

>  <r_i_glide_emodel>  (100) 
-44.586

>  <r_i_glide_energy>  (100) 
-36.6244

>  <r_i_glide_einternal>  (100) 
8.0332

>  <r_i_glide_intrahb_reward>  (100) 
-0.5

>  <i_i_glide_confnum>  (100) 
4

>  <i_i_glide_posenum>  (100) 
27

>  <r_i_glide_eff_state_penalty>  (100) 
0

>  <ligand_id>  (100) 
96

>  <original_smiles>  (100) 
COC1C(O)(O)C2C(=O)CCC(O)C13C1[S+]([O-])C4(C)C3C35C6(O)OC(=O)C=CC(C(=O)C3(O)C6O)C(OC3=CC(OC)C15CC(O)C4(O)C3(O)COC(C)=O)C2O

>  <smiles>  (100) 
[H]OC1([H])C2([H])OC3=C([H])C([H])(OC([H])([H])[H])C45C([H])([H])C([H])(O[H])C(O[H])(C3(O[H])C([H])([H])OC(=O)C([H])([H])[H])C3(C([H])([H])[H])S(=O)C4([H])C4(C([H])(O[H])C([H])([H])C([H])([H])C(=O)C1([H])C(O[H])(O[H])C4([H])OC([H])([H])[H])C3([H])C51C3(O[H])OC(=O)C([H])=C([H])C2([H])C(=O)C1(O[H])C3([H])O[H]

$$$$
96:4:2
     RDKit          3D

101109  0  0  1  0  0  0  0  0999 V2000
   -0.8238   -9.5088    2.5454 C   0  0  0  0  0  0  0  0  0  0  0  0
    0.4886   -9.4997    3.0954 O   0  0  0  0  0  0  0  0  0  0  0  0
    0.8083   -8.6148    4.1820 C   0  0  2  0  0  0  0  0  0  0  0  0
    0.1362   -7.1345    4.3949 C   0  0  0  0  0  0  0  0  0  0  0  0
    0.3253   -6.1954    3.3643 O   0  0  0  0  0  0  0  0  0  0  0  0
   -1.2686   -7.3358    4.5038 O   0  0  0  0  0  0  0  0  0  0  0  0
    0.5335   -6.3263    5.7278 C   0  0  1  0  0  0  0  0  0  0  0  0
    0.3465   -7.1283    7.0557 C   0  0  0  0  0  0  0  0  0  0  0  0
    0.4420   -6.5399    8.1327 O   0  0  0  0  0  0  0  0  0  0  0  0
   -0.1835   -8.5963    7.0981 C   0  0  0  0  0  0  0  0  0  0  0  0
    0.6696   -9.8955    6.8963 C   0  0  0  0  0  0  0  0  0  0  0  0
    1.9191  -10.0420    5.9063 C   0  0  1  0  0  0  0  0  0  0  0  0
    1.6902  -11.2498    5.2088 O   0  0  0  0  0  0  0  0  0  0  0  0
    2.2682   -8.9228    4.8206 C   0  0  2  0  0  0  0  0  0  0  0  0
    3.2816   -7.7127    4.4454 C   0  0  2  0  0  0  0  0  0  0  0  0
    2.8085   -7.4429    2.6402 S   0  0  0  0  0  0  0  0  0  0  0  0
    1.6268   -7.8708    1.8115 O   0  0  0  0  0  0  0  0  0  0  0  0
    3.9269   -8.7962    2.7768 C   0  0  2  0  0  0  0  0  0  0  0  0
    3.4421   -9.9396    1.8626 C   0  0  0  0  0  0  0  0  0  0  0  0
    3.7368   -9.2879    4.4668 C   0  0  1  0  0  0  0  0  0  0  0  0
    4.5951   -8.5457    5.8388 C   0  0  2  0  0  0  0  0  0  0  0  0
    5.7697   -8.9290    6.8866 C   0  0  1  0  0  0  0  0  0  0  0  0
    6.5474  -10.0805    6.6324 O   0  0  0  0  0  0  0  0  0  0  0  0
    6.5835   -7.7533    7.1215 O   0  0  0  0  0  0  0  0  0  0  0  0
    6.7269   -6.8889    8.1895 C   0  0  0  0  0  0  0  0  0  0  0  0
    7.0474   -7.2602    9.3128 O   0  0  0  0  0  0  0  0  0  0  0  0
    6.4404   -5.4348    7.8988 C   0  0  0  0  0  0  0  0  0  0  0  0
    5.3163   -4.8305    7.3798 C   0  0  0  0  0  0  0  0  0  0  0  0
    4.0599   -5.4920    6.7397 C   0  0  1  0  0  0  0  0  0  0  0  0
    3.6547   -6.5743    7.7067 C   0  0  0  0  0  0  0  0  0  0  0  0
    3.2660   -6.1742    8.8131 O   0  0  0  0  0  0  0  0  0  0  0  0
    3.8501   -8.0545    7.2834 C   0  0  1  0  0  0  0  0  0  0  0  0
    2.6674   -8.4667    7.8409 O   0  0  0  0  0  0  0  0  0  0  0  0
    4.7947   -9.0259    8.0460 C   0  0  1  0  0  0  0  0  0  0  0  0
    4.3611  -10.3469    8.3561 O   0  0  0  0  0  0  0  0  0  0  0  0
    3.1187   -4.8255    5.5396 C   0  0  1  0  0  0  0  0  0  0  0  0
    3.3863   -5.0281    4.0422 O   0  0  0  0  0  0  0  0  0  0  0  0
    4.6871   -5.2336    3.4851 C   0  0  0  0  0  0  0  0  0  0  0  0
    5.7012   -5.1650    4.2941 C   0  0  0  0  0  0  0  0  0  0  0  0
    6.2028   -6.4738    4.6590 C   0  0  1  0  0  0  0  0  0  0  0  0
    7.4677   -6.4171    5.3474 O   0  0  0  0  0  0  0  0  0  0  0  0
    8.4711   -5.4683    5.0269 C   0  0  0  0  0  0  0  0  0  0  0  0
    5.0642   -7.7321    4.7058 C   0  0  2  0  0  0  0  0  0  0  0  0
    6.1962   -8.6895    3.9981 C   0  0  0  0  0  0  0  0  0  0  0  0
    6.3535   -8.4161    2.4963 C   0  0  1  0  0  0  0  0  0  0  0  0
    6.6401   -9.6415    1.8462 O   0  0  0  0  0  0  0  0  0  0  0  0
    5.0296   -7.7574    2.0572 C   0  0  1  0  0  0  0  0  0  0  0  0
    4.9934   -7.9723    0.6485 O   0  0  0  0  0  0  0  0  0  0  0  0
    4.9758   -6.0111    2.0919 C   0  0  1  0  0  0  0  0  0  0  0  0
    4.0885   -5.4652    1.1107 O   0  0  0  0  0  0  0  0  0  0  0  0
    6.2828   -5.4342    1.4078 C   0  0  0  0  0  0  0  0  0  0  0  0
    6.3667   -4.0027    1.3962 O   0  0  0  0  0  0  0  0  0  0  0  0
    7.2196   -3.3720    0.5544 C   0  0  0  0  0  0  0  0  0  0  0  0
    7.0802   -1.8532    0.6015 C   0  0  0  0  0  0  0  0  0  0  0  0
    8.0416   -3.9073   -0.1885 O   0  0  0  0  0  0  0  0  0  0  0  0
    1.5248   -5.0039    5.7925 C   0  0  1  0  0  0  0  0  0  0  0  0
    0.8951   -3.9404    5.0991 O   0  0  0  0  0  0  0  0  0  0  0  0
   -0.8674  -10.2396    1.7374 H   0  0  0  0  0  0  0  0  0  0  0  0
   -1.0922   -8.5391    2.1270 H   0  0  0  0  0  0  0  0  0  0  0  0
   -1.5703   -9.8037    3.2802 H   0  0  0  0  0  0  0  0  0  0  0  0
    0.1004   -9.1836    4.7521 H   0  0  0  0  0  0  0  0  0  0  0  0
    1.2555   -6.0460    3.2683 H   0  0  0  0  0  0  0  0  0  0  0  0
   -1.4347   -8.2681    4.5563 H   0  0  0  0  0  0  0  0  0  0  0  0
   -0.3903   -5.7554    5.8546 H   0  0  0  0  0  0  0  0  0  0  0  0
   -0.6653   -8.7039    8.0718 H   0  0  0  0  0  0  0  0  0  0  0  0
   -0.9830   -8.6876    6.4045 H   0  0  0  0  0  0  0  0  0  0  0  0
    0.9550  -10.2557    7.8871 H   0  0  0  0  0  0  0  0  0  0  0  0
   -0.0766  -10.6436    6.6172 H   0  0  0  0  0  0  0  0  0  0  0  0
    2.7796  -10.3785    6.4676 H   0  0  0  0  0  0  0  0  0  0  0  0
    1.5441  -11.9326    5.8613 H   0  0  0  0  0  0  0  0  0  0  0  0
    2.8042   -6.9942    5.0356 H   0  0  0  0  0  0  0  0  0  0  0  0
    4.2774  -10.6193    1.7001 H   0  0  0  0  0  0  0  0  0  0  0  0
    3.0990   -9.6373    0.8739 H   0  0  0  0  0  0  0  0  0  0  0  0
    2.6405  -10.5298    2.3100 H   0  0  0  0  0  0  0  0  0  0  0  0
    3.9089  -10.3701    4.4845 H   0  0  0  0  0  0  0  0  0  0  0  0
    5.9456  -10.8045    6.5679 H   0  0  0  0  0  0  0  0  0  0  0  0
    7.2395   -4.7764    8.1997 H   0  0  0  0  0  0  0  0  0  0  0  0
    5.3771   -3.7547    7.2316 H   0  0  0  0  0  0  0  0  0  0  0  0
    4.5321   -6.1993    6.1614 H   0  0  0  0  0  0  0  0  0  0  0  0
    2.6032   -9.4005    7.7418 H   0  0  0  0  0  0  0  0  0  0  0  0
    5.1027   -8.6215    9.0088 H   0  0  0  0  0  0  0  0  0  0  0  0
    3.9093  -10.7155    7.6127 H   0  0  0  0  0  0  0  0  0  0  0  0
    3.3111   -3.7581    5.6463 H   0  0  0  0  0  0  0  0  0  0  0  0
    5.6104   -4.7278    5.2054 H   0  0  0  0  0  0  0  0  0  0  0  0
    6.7501   -6.4993    3.7474 H   0  0  0  0  0  0  0  0  0  0  0  0
    9.3772   -5.6835    5.5842 H   0  0  0  0  0  0  0  0  0  0  0  0
    8.1554   -4.4753    5.3443 H   0  0  0  0  0  0  0  0  0  0  0  0
    8.7246   -5.4552    3.9706 H   0  0  0  0  0  0  0  0  0  0  0  0
    7.1869   -8.5941    4.4602 H   0  0  0  0  0  0  0  0  0  0  0  0
    6.0507   -9.7585    4.1550 H   0  0  0  0  0  0  0  0  0  0  0  0
    7.2241   -7.8061    2.2676 H   0  0  0  0  0  0  0  0  0  0  0  0
    5.9306  -10.2492    1.9830 H   0  0  0  0  0  0  0  0  0  0  0  0
    5.0057   -8.9080    0.5002 H   0  0  0  0  0  0  0  0  0  0  0  0
    4.3176   -5.8053    0.2589 H   0  0  0  0  0  0  0  0  0  0  0  0
    7.1949   -5.7730    1.8975 H   0  0  0  0  0  0  0  0  0  0  0  0
    6.3668   -5.7963    0.3774 H   0  0  0  0  0  0  0  0  0  0  0  0
    6.4677   -1.5446    1.4487 H   0  0  0  0  0  0  0  0  0  0  0  0
    6.6080   -1.4926   -0.3123 H   0  0  0  0  0  0  0  0  0  0  0  0
    8.0589   -1.3806    0.6953 H   0  0  0  0  0  0  0  0  0  0  0  0
    1.4193   -4.6490    6.8199 H   0  0  0  0  0  0  0  0  0  0  0  0
    1.4138   -3.1553    5.1880 H   0  0  0  0  0  0  0  0  0  0  0  0
  1  2  1  0
  1 58  1  0
  1 59  1  0
  1 60  1  0
  2  3  1  0
  3 14  1  0
  3  4  1  0
  3 61  1  1
  4  5  1  0
  4  6  1  0
  4  7  1  0
  5 62  1  0
  6 63  1  0
  7 56  1  0
  7  8  1  0
  7 64  1  1
  8  9  2  0
  8 10  1  0
 10 11  1  0
 10 65  1  0
 10 66  1  0
 11 12  1  0
 11 67  1  0
 11 68  1  0
 12 13  1  0
 14 12  1  1
 12 69  1  1
 13 70  1  0
 14 20  1  0
 14 15  1  0
 15 43  1  0
 15 16  1  0
 15 71  1  1
 16 17  2  0
 16 18  1  6
 18 47  1  0
 18 19  1  6
 18 20  1  0
 19 72  1  0
 19 73  1  0
 19 74  1  0
 20 21  1  0
 20 75  1  6
 21 32  1  0
 21 43  1  0
 21 22  1  1
 22 34  1  0
 22 23  1  6
 22 24  1  0
 23 76  1  0
 24 25  1  0
 25 26  2  0
 25 27  1  0
 27 28  2  3
 27 77  1  0
 28 29  1  0
 28 78  1  0
 29 30  1  0
 29 36  1  0
 29 79  1  6
 30 31  2  0
 30 32  1  0
 32 33  1  6
 32 34  1  0
 33 80  1  0
 34 35  1  0
 34 81  1  1
 35 82  1  0
 36 37  1  0
 36 56  1  0
 36 83  1  6
 37 38  1  0
 38 49  1  0
 38 39  2  3
 39 40  1  0
 39 84  1  0
 40 41  1  0
 40 43  1  0
 40 85  1  6
 41 42  1  0
 42 86  1  0
 42 87  1  0
 42 88  1  0
 43 44  1  6
 44 45  1  0
 44 89  1  0
 44 90  1  0
 45 46  1  0
 45 47  1  0
 45 91  1  1
 46 92  1  0
 47 48  1  6
 47 49  1  0
 48 93  1  0
 49 50  1  6
 49 51  1  0
 50 94  1  0
 51 52  1  0
 51 95  1  0
 51 96  1  0
 52 53  1  0
 53 54  1  0
 53 55  2  0
 54 97  1  0
 54 98  1  0
 54 99  1  0
 56 57  1  0
 56100  1  1
 57101  1  0
M  END
>  <i_m_ct_stereo_status>  (101) 
1

>  <s_m_source_file>  (101) 
/var/tmp/pbs.5075288.sched01/tmpndvtliwj/216foptgilz.sdf

>  <i_m_source_file_index>  (101) 
58

>  <i_lp_mmshare_version>  (101) 
48012

>  <i_f3d_flags>  (101) 
0

>  <s_epik_input>  (101) 
Tz1DMVtDQF0yKFtPSF0pW0NAQEhdKFtPSF0pW0NAXTMoW09IXSlPQyg9TykvW0NIXT1bQ0hdXFtDSF0xW0NASF0oW0NAQEhdKFtPSF0pW0NAQEhdKEMoW09IXSkoW09IXSlbQ0BIXTRPW0NIM10pQyg9TylbQ0gyXVtDSDJdW0NASF01W09IXSlPL0MoPVtDSF1cW0NASF02T1tDSDNdKVtDQEBdKFtPSF0pKFtDSDJdT0MoPU8pW0NIM10pW0NAQF0oW09IXSkoW0NAQEhdKFtDSDJdNylbT0hdKVtDQEBdKFtTK104W08tXSkoW0NIM10pW0NASF05W0NAQF0yM1tDQEBdNjdbQ0BASF04QzQ1OQ==

>  <s_epik_cmdline>  (101) 
J2VwaWtfcHl0aG9uJywgJy1waHQnLCAnMi4wJywgJy1waCcsICc3LjAnLCAnLXRuJywgJzgnLCAnLW1hJywgJzIwMCcsICctaW1hZScsICc8aW5maWxlLm1hZT4nLCAnLW9tYWUnLCAnPG91dGZpbGUubWFlPic=

>  <r_lp_tautomer_probability>  (101) 
1

>  <r_epik_Ionization_Penalty>  (101) 
0.000796543

>  <r_epik_Ionization_Penalty_Charging>  (101) 
0

>  <r_epik_Ionization_Penalty_Neutral>  (101) 
0.000796543

>  <r_epik_State_Penalty>  (101) 
0.000268708

>  <r_epik_Charging_Adjusted_Penalty>  (101) 
0.000268708

>  <i_epik_Tot_Q>  (101) 
0

>  <i_epik_Tot_abs_Q>  (101) 
2

>  <s_epik_Chemistry_Notes>  (101) 
This compound has an ester and may undergo hydrolysis at high or low pH.

>  <s_lp_Force_Field>  (101) 
OPLS3e

>  <r_lp_Energy>  (101) 
764.728

>  <b_lp_Chiralities_Consistent>  (101) 
1

>  <s_lp_Variant>  (101) 
96:0-5

>  <s_i_glide_gridfile>  (101) 
pfpi4k_grid

>  <i_i_glide_lignum>  (101) 
58

>  <i_i_glide_rotatable_bonds>  (101) 
15

>  <r_i_docking_score>  (101) 
-3.71755

>  <r_i_glide_ligand_efficiency>  (101) 
-0.0652202

>  <r_i_glide_ligand_efficiency_sa>  (101) 
-0.251

>  <r_i_glide_ligand_efficiency_ln>  (101) 
-0.737163

>  <r_i_glide_gscore>  (101) 
-3.71755

>  <r_i_glide_lipo>  (101) 
-0.308021

>  <r_i_glide_hbond>  (101) 
0

>  <r_i_glide_metal>  (101) 
-0

>  <r_i_glide_rewards>  (101) 
-0.67382

>  <r_i_glide_evdw>  (101) 
-28.7396

>  <r_i_glide_ecoul>  (101) 
-8.80257

>  <r_i_glide_erotb>  (101) 
0.0636554

>  <r_i_glide_esite>  (101) 
-0.0419997

>  <r_i_glide_emodel>  (101) 
-45.8025

>  <r_i_glide_energy>  (101) 
-37.5421

>  <r_i_glide_einternal>  (101) 
6.97613

>  <r_i_glide_intrahb_reward>  (101) 
-0.5

>  <i_i_glide_confnum>  (101) 
4

>  <i_i_glide_posenum>  (101) 
3

>  <r_i_glide_eff_state_penalty>  (101) 
0

>  <ligand_id>  (101) 
96

>  <original_smiles>  (101) 
COC1C(O)(O)C2C(=O)CCC(O)C13C1[S+]([O-])C4(C)C3C35C6(O)OC(=O)C=CC(C(=O)C3(O)C6O)C(OC3=CC(OC)C15CC(O)C4(O)C3(O)COC(C)=O)C2O

>  <smiles>  (101) 
[H]OC1([H])C2([H])OC3=C([H])C([H])(OC([H])([H])[H])C45C([H])([H])C([H])(O[H])C(O[H])(C3(O[H])C([H])([H])OC(=O)C([H])([H])[H])C3(C([H])([H])[H])S(=O)C4([H])C4(C([H])(O[H])C([H])([H])C([H])([H])C(=O)C1([H])C(O[H])(O[H])C4([H])OC([H])([H])[H])C3([H])C51C3(O[H])OC(=O)C([H])=C([H])C2([H])C(=O)C1(O[H])C3([H])O[H]

$$$$
96:5:0
     RDKit          3D

101109  0  0  1  0  0  0  0  0999 V2000
    2.8322  -11.8152    3.1875 C   0  0  0  0  0  0  0  0  0  0  0  0
    3.2448  -10.7054    3.9644 O   0  0  0  0  0  0  0  0  0  0  0  0
    2.4025   -9.5406    3.9855 C   0  0  2  0  0  0  0  0  0  0  0  0
    1.3546   -9.1036    2.8052 C   0  0  0  0  0  0  0  0  0  0  0  0
    1.8656   -8.7326    1.5467 O   0  0  0  0  0  0  0  0  0  0  0  0
    0.4675  -10.2022    2.6072 O   0  0  0  0  0  0  0  0  0  0  0  0
    0.4058   -7.8605    3.1127 C   0  0  1  0  0  0  0  0  0  0  0  0
   -0.4061   -7.9426    4.4335 C   0  0  0  0  0  0  0  0  0  0  0  0
   -1.2975   -7.1131    4.6169 O   0  0  0  0  0  0  0  0  0  0  0  0
   -0.3094   -9.1390    5.4192 C   0  0  0  0  0  0  0  0  0  0  0  0
    0.7928   -9.3585    6.5222 C   0  0  0  0  0  0  0  0  0  0  0  0
    2.3281   -8.9389    6.3983 C   0  0  1  0  0  0  0  0  0  0  0  0
    3.0603  -10.0719    6.8496 O   0  0  0  0  0  0  0  0  0  0  0  0
    2.9463   -8.4274    5.0183 C   0  0  2  0  0  0  0  0  0  0  0  0
    3.4535   -7.1457    4.1728 C   0  0  2  0  0  0  0  0  0  0  0  0
    4.3650   -8.0266    2.8060 S   0  0  0  0  0  0  0  0  0  0  0  0
    4.3852   -9.4814    2.3051 O   0  0  0  0  0  0  0  0  0  0  0  0
    5.4044   -7.9557    4.2175 C   0  0  2  0  0  0  0  0  0  0  0  0
    6.1275   -9.3136    4.4246 C   0  0  0  0  0  0  0  0  0  0  0  0
    4.2360   -7.7237    5.5050 C   0  0  1  0  0  0  0  0  0  0  0  0
    3.5765   -6.1573    5.9790 C   0  0  2  0  0  0  0  0  0  0  0  0
    3.7045   -5.1258    7.1918 C   0  0  1  0  0  0  0  0  0  0  0  0
    4.7397   -5.3204    8.1514 O   0  0  0  0  0  0  0  0  0  0  0  0
    3.6262   -3.7838    6.6318 O   0  0  0  0  0  0  0  0  0  0  0  0
    2.7090   -2.7343    6.7451 C   0  0  0  0  0  0  0  0  0  0  0  0
    2.3432   -2.2821    7.8225 O   0  0  0  0  0  0  0  0  0  0  0  0
    2.1589   -2.2069    5.4279 C   0  0  0  0  0  0  0  0  0  0  0  0
    1.7255   -2.8962    4.3202 C   0  0  0  0  0  0  0  0  0  0  0  0
    1.6732   -4.4291    4.0778 C   0  0  1  0  0  0  0  0  0  0  0  0
    1.0527   -4.9901    5.3272 C   0  0  0  0  0  0  0  0  0  0  0  0
   -0.0916   -4.6035    5.5762 O   0  0  0  0  0  0  0  0  0  0  0  0
    1.9340   -5.8667    6.2424 C   0  0  1  0  0  0  0  0  0  0  0  0
    0.9458   -6.7432    6.5849 O   0  0  0  0  0  0  0  0  0  0  0  0
    2.3050   -5.4296    7.6884 C   0  0  1  0  0  0  0  0  0  0  0  0
    2.2218   -6.4017    8.7277 O   0  0  0  0  0  0  0  0  0  0  0  0
    1.6834   -5.1852    2.6012 C   0  0  1  0  0  0  0  0  0  0  0  0
    2.9456   -5.6933    1.9228 O   0  0  0  0  0  0  0  0  0  0  0  0
    4.2127   -5.0935    2.1373 C   0  0  0  0  0  0  0  0  0  0  0  0
    4.1965   -3.9683    2.7680 C   0  0  0  0  0  0  0  0  0  0  0  0
    4.7176   -4.1957    4.1432 C   0  0  1  0  0  0  0  0  0  0  0  0
    5.0307   -2.9730    4.8478 O   0  0  0  0  0  0  0  0  0  0  0  0
    5.1388   -1.7404    4.1195 C   0  0  0  0  0  0  0  0  0  0  0  0
    4.4072   -5.7653    4.8290 C   0  0  2  0  0  0  0  0  0  0  0  0
    5.9103   -5.7617    5.4534 C   0  0  0  0  0  0  0  0  0  0  0  0
    6.9924   -6.0878    4.4348 C   0  0  1  0  0  0  0  0  0  0  0  0
    8.0182   -6.7965    5.1092 O   0  0  0  0  0  0  0  0  0  0  0  0
    6.2598   -6.8503    3.3234 C   0  0  1  0  0  0  0  0  0  0  0  0
    7.3257   -7.5506    2.6691 O   0  0  0  0  0  0  0  0  0  0  0  0
    5.6110   -5.8853    2.0173 C   0  0  1  0  0  0  0  0  0  0  0  0
    5.5880   -6.5773    0.7792 O   0  0  0  0  0  0  0  0  0  0  0  0
    6.7401   -4.9216    1.5226 C   0  0  0  0  0  0  0  0  0  0  0  0
    6.3772   -3.9464    0.5349 O   0  0  0  0  0  0  0  0  0  0  0  0
    7.2992   -3.2629   -0.1728 C   0  0  0  0  0  0  0  0  0  0  0  0
    8.7829   -3.6423   -0.0042 C   0  0  0  0  0  0  0  0  0  0  0  0
    6.9829   -2.3583   -0.9481 O   0  0  0  0  0  0  0  0  0  0  0  0
    0.5698   -6.3703    2.4499 C   0  0  1  0  0  0  0  0  0  0  0  0
    0.2485   -6.4572    1.0716 O   0  0  0  0  0  0  0  0  0  0  0  0
    3.5827  -12.6010    3.2495 H   0  0  0  0  0  0  0  0  0  0  0  0
    2.7384  -11.5327    2.1408 H   0  0  0  0  0  0  0  0  0  0  0  0
    1.8837  -12.2170    3.5465 H   0  0  0  0  0  0  0  0  0  0  0  0
    1.7202  -10.1434    4.5352 H   0  0  0  0  0  0  0  0  0  0  0  0
    1.3183   -9.1289    0.8875 H   0  0  0  0  0  0  0  0  0  0  0  0
   -0.0986  -10.0557    1.8674 H   0  0  0  0  0  0  0  0  0  0  0  0
   -0.4542   -8.1449    2.5045 H   0  0  0  0  0  0  0  0  0  0  0  0
   -1.2616   -9.1617    5.9479 H   0  0  0  0  0  0  0  0  0  0  0  0
   -0.3251  -10.0333    4.8115 H   0  0  0  0  0  0  0  0  0  0  0  0
    0.4019   -8.9819    7.4683 H   0  0  0  0  0  0  0  0  0  0  0  0
    0.7426  -10.4299    6.6852 H   0  0  0  0  0  0  0  0  0  0  0  0
    2.5911   -8.2888    7.2156 H   0  0  0  0  0  0  0  0  0  0  0  0
    2.4633  -10.7712    7.1007 H   0  0  0  0  0  0  0  0  0  0  0  0
    2.5013   -6.8602    3.8565 H   0  0  0  0  0  0  0  0  0  0  0  0
    6.9780   -9.2331    5.1032 H   0  0  0  0  0  0  0  0  0  0  0  0
    6.4955   -9.7474    3.4929 H   0  0  0  0  0  0  0  0  0  0  0  0
    5.4496  -10.0440    4.8638 H   0  0  0  0  0  0  0  0  0  0  0  0
    4.6767   -8.1945    6.3903 H   0  0  0  0  0  0  0  0  0  0  0  0
    5.5724   -5.1203    7.7593 H   0  0  0  0  0  0  0  0  0  0  0  0
    2.1205   -1.1182    5.3524 H   0  0  0  0  0  0  0  0  0  0  0  0
    1.3864   -2.3116    3.4736 H   0  0  0  0  0  0  0  0  0  0  0  0
    2.6082   -4.6336    4.4277 H   0  0  0  0  0  0  0  0  0  0  0  0
    1.2957   -7.2873    7.2703 H   0  0  0  0  0  0  0  0  0  0  0  0
    1.6972   -4.5900    8.0036 H   0  0  0  0  0  0  0  0  0  0  0  0
    2.9022   -7.0223    8.5564 H   0  0  0  0  0  0  0  0  0  0  0  0
    1.4108   -4.3747    1.9288 H   0  0  0  0  0  0  0  0  0  0  0  0
    3.3541   -3.3084    2.6889 H   0  0  0  0  0  0  0  0  0  0  0  0
    5.7394   -4.1689    3.8147 H   0  0  0  0  0  0  0  0  0  0  0  0
    5.4084   -0.9560    4.8199 H   0  0  0  0  0  0  0  0  0  0  0  0
    4.1994   -1.4322    3.6660 H   0  0  0  0  0  0  0  0  0  0  0  0
    5.8860   -1.7805    3.3311 H   0  0  0  0  0  0  0  0  0  0  0  0
    6.1698   -4.7993    5.8961 H   0  0  0  0  0  0  0  0  0  0  0  0
    6.0533   -6.4272    6.3108 H   0  0  0  0  0  0  0  0  0  0  0  0
    7.5111   -5.2176    4.0758 H   0  0  0  0  0  0  0  0  0  0  0  0
    7.6835   -7.6212    5.3995 H   0  0  0  0  0  0  0  0  0  0  0  0
    7.9865   -6.9430    2.4052 H   0  0  0  0  0  0  0  0  0  0  0  0
    5.0338   -7.3321    0.8546 H   0  0  0  0  0  0  0  0  0  0  0  0
    7.1241   -4.3127    2.3372 H   0  0  0  0  0  0  0  0  0  0  0  0
    7.5670   -5.5119    1.1405 H   0  0  0  0  0  0  0  0  0  0  0  0
    8.9907   -4.4914    0.6072 H   0  0  0  0  0  0  0  0  0  0  0  0
    9.3268   -2.7617    0.3642 H   0  0  0  0  0  0  0  0  0  0  0  0
    9.1990   -3.8055   -1.0070 H   0  0  0  0  0  0  0  0  0  0  0  0
   -0.3141   -5.8874    2.8340 H   0  0  0  0  0  0  0  0  0  0  0  0
    0.8471   -7.0877    0.6983 H   0  0  0  0  0  0  0  0  0  0  0  0
  1  2  1  0
  1 58  1  0
  1 59  1  0
  1 60  1  0
  2  3  1  0
  3 14  1  0
  3  4  1  0
  3 61  1  1
  4  5  1  0
  4  6  1  0
  4  7  1  0
  5 62  1  0
  6 63  1  0
  7 56  1  0
  7  8  1  0
  7 64  1  6
  8  9  2  0
  8 10  1  0
 10 11  1  0
 10 65  1  0
 10 66  1  0
 11 12  1  0
 11 67  1  0
 11 68  1  0
 12 13  1  0
 14 12  1  1
 12 69  1  1
 13 70  1  0
 14 20  1  0
 14 15  1  0
 15 43  1  0
 15 16  1  0
 15 71  1  6
 16 17  2  0
 16 18  1  1
 18 47  1  0
 18 19  1  1
 18 20  1  0
 19 72  1  0
 19 73  1  0
 19 74  1  0
 20 21  1  0
 20 75  1  1
 21 32  1  0
 21 43  1  0
 21 22  1  1
 22 34  1  0
 22 23  1  1
 22 24  1  0
 23 76  1  0
 24 25  1  0
 25 26  2  0
 25 27  1  0
 27 28  2  3
 27 77  1  0
 28 29  1  0
 28 78  1  0
 29 30  1  0
 29 36  1  0
 29 79  1  1
 30 31  2  0
 30 32  1  0
 32 33  1  1
 32 34  1  0
 33 80  1  0
 34 35  1  0
 34 81  1  1
 35 82  1  0
 36 37  1  0
 36 56  1  0
 36 83  1  6
 37 38  1  0
 38 49  1  0
 38 39  2  3
 39 40  1  0
 39 84  1  0
 40 41  1  0
 40 43  1  0
 40 85  1  6
 41 42  1  0
 42 86  1  0
 42 87  1  0
 42 88  1  0
 43 44  1  1
 44 45  1  0
 44 89  1  0
 44 90  1  0
 45 46  1  0
 45 47  1  0
 45 91  1  6
 46 92  1  0
 47 48  1  6
 47 49  1  0
 48 93  1  0
 49 50  1  6
 49 51  1  0
 50 94  1  0
 51 52  1  0
 51 95  1  0
 51 96  1  0
 52 53  1  0
 53 54  1  0
 53 55  2  0
 54 97  1  0
 54 98  1  0
 54 99  1  0
 56 57  1  0
 56100  1  1
 57101  1  0
M  END
>  <i_m_ct_stereo_status>  (102) 
1

>  <s_m_source_file>  (102) 
/var/tmp/pbs.5075288.sched01/tmpndvtliwj/216foptgilz.sdf

>  <i_m_source_file_index>  (102) 
59

>  <i_lp_mmshare_version>  (102) 
48012

>  <i_f3d_flags>  (102) 
0

>  <s_epik_input>  (102) 
Tz1DMVtDQF0yKFtPSF0pW0NAQEhdKFtPSF0pW0NAXTMoW09IXSlPQyg9TykvW0NIXT1bQ0hdXFtDSF0xW0NASF0oW0NAQEhdKFtPSF0pW0NAQEhdKEMoW09IXSkoW09IXSlbQ0BIXTRPW0NIM10pQyg9TylbQ0gyXVtDSDJdW0NASF01W09IXSlPL0MoPVtDSF1cW0NASF02T1tDSDNdKVtDQEBdKFtPSF0pKFtDSDJdT0MoPU8pW0NIM10pW0NAQF0oW09IXSkoW0NAQEhdKFtDSDJdNylbT0hdKVtDQEBdKFtTK104W08tXSkoW0NIM10pW0NASF05W0NAQF0yM1tDQEBdNjdbQ0BASF04QzQ1OQ==

>  <s_epik_cmdline>  (102) 
J2VwaWtfcHl0aG9uJywgJy1waHQnLCAnMi4wJywgJy1waCcsICc3LjAnLCAnLXRuJywgJzgnLCAnLW1hJywgJzIwMCcsICctaW1hZScsICc8aW5maWxlLm1hZT4nLCAnLW9tYWUnLCAnPG91dGZpbGUubWFlPic=

>  <r_lp_tautomer_probability>  (102) 
1

>  <r_epik_Ionization_Penalty>  (102) 
0.000796543

>  <r_epik_Ionization_Penalty_Charging>  (102) 
0

>  <r_epik_Ionization_Penalty_Neutral>  (102) 
0.000796543

>  <r_epik_State_Penalty>  (102) 
0.000268708

>  <r_epik_Charging_Adjusted_Penalty>  (102) 
0.000268708

>  <i_epik_Tot_Q>  (102) 
0

>  <i_epik_Tot_abs_Q>  (102) 
2

>  <s_epik_Chemistry_Notes>  (102) 
This compound has an ester and may undergo hydrolysis at high or low pH.

>  <s_lp_Force_Field>  (102) 
OPLS3e

>  <r_lp_Energy>  (102) 
756.246

>  <b_lp_Chiralities_Consistent>  (102) 
1

>  <s_lp_Variant>  (102) 
96:0-6

>  <s_i_glide_gridfile>  (102) 
pfpi4k_grid

>  <i_i_glide_lignum>  (102) 
59

>  <i_i_glide_rotatable_bonds>  (102) 
15

>  <r_i_docking_score>  (102) 
-4.40065

>  <r_i_glide_ligand_efficiency>  (102) 
-0.0772043

>  <r_i_glide_ligand_efficiency_sa>  (102) 
-0.297121

>  <r_i_glide_ligand_efficiency_ln>  (102) 
-0.872616

>  <r_i_glide_gscore>  (102) 
-4.40065

>  <r_i_glide_lipo>  (102) 
-0.238333

>  <r_i_glide_hbond>  (102) 
-0.142045

>  <r_i_glide_metal>  (102) 
-0

>  <r_i_glide_rewards>  (102) 
-0.219897

>  <r_i_glide_evdw>  (102) 
-32.5309

>  <r_i_glide_ecoul>  (102) 
-14.5759

>  <r_i_glide_erotb>  (102) 
0.0636554

>  <r_i_glide_esite>  (102) 
-0.0510976

>  <r_i_glide_emodel>  (102) 
-51.259

>  <r_i_glide_energy>  (102) 
-47.1068

>  <r_i_glide_einternal>  (102) 
13.6458

>  <r_i_glide_intrahb_reward>  (102) 
-0

>  <i_i_glide_confnum>  (102) 
6

>  <i_i_glide_posenum>  (102) 
33

>  <r_i_glide_eff_state_penalty>  (102) 
0

>  <ligand_id>  (102) 
96

>  <original_smiles>  (102) 
COC1C(O)(O)C2C(=O)CCC(O)C13C1[S+]([O-])C4(C)C3C35C6(O)OC(=O)C=CC(C(=O)C3(O)C6O)C(OC3=CC(OC)C15CC(O)C4(O)C3(O)COC(C)=O)C2O

>  <smiles>  (102) 
[H]OC1([H])C2([H])OC3=C([H])C([H])(OC([H])([H])[H])C45C([H])([H])C([H])(O[H])C(O[H])(C3(O[H])C([H])([H])OC(=O)C([H])([H])[H])C3(C([H])([H])[H])S(=O)C4([H])C4(C([H])(O[H])C([H])([H])C([H])([H])C(=O)C1([H])C(O[H])(O[H])C4([H])OC([H])([H])[H])C3([H])C51C3(O[H])OC(=O)C([H])=C([H])C2([H])C(=O)C1(O[H])C3([H])O[H]

$$$$
96:5:1
     RDKit          3D

101109  0  0  1  0  0  0  0  0999 V2000
    4.2544  -10.8408    2.6982 C   0  0  0  0  0  0  0  0  0  0  0  0
    4.2336   -9.9245    3.7836 O   0  0  0  0  0  0  0  0  0  0  0  0
    3.0738   -9.1027    3.9756 C   0  0  2  0  0  0  0  0  0  0  0  0
    1.9488   -8.8148    2.8370 C   0  0  0  0  0  0  0  0  0  0  0  0
    2.3816   -8.1463    1.6848 O   0  0  0  0  0  0  0  0  0  0  0  0
    1.4204  -10.0665    2.4402 O   0  0  0  0  0  0  0  0  0  0  0  0
    0.6596   -7.9708    3.2674 C   0  0  1  0  0  0  0  0  0  0  0  0
   -0.1112   -8.5398    4.4872 C   0  0  0  0  0  0  0  0  0  0  0  0
   -1.2129   -8.0634    4.7522 O   0  0  0  0  0  0  0  0  0  0  0  0
    0.3545   -9.8060    5.2717 C   0  0  0  0  0  0  0  0  0  0  0  0
    1.4895   -9.8602    6.3538 C   0  0  0  0  0  0  0  0  0  0  0  0
    2.7854   -8.9568    6.4514 C   0  0  1  0  0  0  0  0  0  0  0  0
    3.8225   -9.8815    6.7288 O   0  0  0  0  0  0  0  0  0  0  0  0
    3.2342   -8.0814    5.2124 C   0  0  2  0  0  0  0  0  0  0  0  0
    3.3060   -6.5870    4.6327 C   0  0  2  0  0  0  0  0  0  0  0  0
    4.4529   -6.8519    3.1954 S   0  0  0  0  0  0  0  0  0  0  0  0
    4.9394   -8.1025    2.4629 O   0  0  0  0  0  0  0  0  0  0  0  0
    5.4120   -6.7569    4.6756 C   0  0  2  0  0  0  0  0  0  0  0  0
    6.5062   -7.8518    4.7114 C   0  0  0  0  0  0  0  0  0  0  0  0
    4.2284   -7.1320    5.9095 C   0  0  1  0  0  0  0  0  0  0  0  0
    3.0958   -5.9552    6.5804 C   0  0  2  0  0  0  0  0  0  0  0  0
    2.8719   -5.1658    7.9750 C   0  0  1  0  0  0  0  0  0  0  0  0
    3.8936   -5.2147    8.9723 O   0  0  0  0  0  0  0  0  0  0  0  0
    2.3816   -3.8367    7.6192 O   0  0  0  0  0  0  0  0  0  0  0  0
    1.1984   -3.1202    7.8377 C   0  0  0  0  0  0  0  0  0  0  0  0
    0.7028   -3.0059    8.9558 O   0  0  0  0  0  0  0  0  0  0  0  0
    0.5387   -2.5459    6.5983 C   0  0  0  0  0  0  0  0  0  0  0  0
    0.3426   -3.1485    5.3672 C   0  0  0  0  0  0  0  0  0  0  0  0
    0.7937   -4.5554    4.8946 C   0  0  1  0  0  0  0  0  0  0  0  0
    0.3404   -5.4938    5.9750 C   0  0  0  0  0  0  0  0  0  0  0  0
   -0.8658   -5.4816    6.2211 O   0  0  0  0  0  0  0  0  0  0  0  0
    1.4277   -6.2341    6.7734 C   0  0  1  0  0  0  0  0  0  0  0  0
    0.7360   -7.4101    6.9096 O   0  0  0  0  0  0  0  0  0  0  0  0
    1.6235   -5.9657    8.2887 C   0  0  1  0  0  0  0  0  0  0  0  0
    1.8220   -7.0814    9.1435 O   0  0  0  0  0  0  0  0  0  0  0  0
    1.0605   -4.9955    3.3167 C   0  0  1  0  0  0  0  0  0  0  0  0
    2.4404   -4.9527    2.6350 O   0  0  0  0  0  0  0  0  0  0  0  0
    3.4580   -4.0518    3.0000 C   0  0  0  0  0  0  0  0  0  0  0  0
    3.0789   -3.1284    3.8599 C   0  0  0  0  0  0  0  0  0  0  0  0
    3.6351   -3.4562    5.1875 C   0  0  1  0  0  0  0  0  0  0  0  0
    3.5044   -2.3513    6.1227 O   0  0  0  0  0  0  0  0  0  0  0  0
    3.6893   -1.0154    5.6482 C   0  0  0  0  0  0  0  0  0  0  0  0
    3.7870   -5.1280    5.5705 C   0  0  2  0  0  0  0  0  0  0  0  0
    5.2006   -4.8006    6.3336 C   0  0  0  0  0  0  0  0  0  0  0  0
    6.3554   -4.5762    5.3745 C   0  0  1  0  0  0  0  0  0  0  0  0
    7.5110   -5.0826    6.0065 O   0  0  0  0  0  0  0  0  0  0  0  0
    5.9144   -5.2873    4.0699 C   0  0  1  0  0  0  0  0  0  0  0  0
    7.1204   -5.5616    3.3688 O   0  0  0  0  0  0  0  0  0  0  0  0
    5.0574   -4.3416    2.8742 C   0  0  1  0  0  0  0  0  0  0  0  0
    5.3058   -4.8068    1.5399 O   0  0  0  0  0  0  0  0  0  0  0  0
    5.8008   -2.9814    2.6192 C   0  0  0  0  0  0  0  0  0  0  0  0
    4.9851   -2.0211    1.9474 O   0  0  0  0  0  0  0  0  0  0  0  0
    5.3789   -1.3901    0.8306 C   0  0  0  0  0  0  0  0  0  0  0  0
    4.3092   -0.4373    0.3100 C   0  0  0  0  0  0  0  0  0  0  0  0
    6.4586   -1.5274    0.2565 O   0  0  0  0  0  0  0  0  0  0  0  0
    0.3454   -6.3985    2.8840 C   0  0  1  0  0  0  0  0  0  0  0  0
   -0.0094   -6.3191    1.5072 O   0  0  0  0  0  0  0  0  0  0  0  0
    5.2161  -11.3597    2.7020 H   0  0  0  0  0  0  0  0  0  0  0  0
    4.1697  -10.3013    1.7494 H   0  0  0  0  0  0  0  0  0  0  0  0
    3.4692  -11.5997    2.7559 H   0  0  0  0  0  0  0  0  0  0  0  0
    2.6337   -9.9815    4.3718 H   0  0  0  0  0  0  0  0  0  0  0  0
    3.2044   -8.5578    1.4506 H   0  0  0  0  0  0  0  0  0  0  0  0
    1.1355  -10.5488    3.2056 H   0  0  0  0  0  0  0  0  0  0  0  0
   -0.0481   -8.3996    2.5555 H   0  0  0  0  0  0  0  0  0  0  0  0
   -0.5256  -10.1345    5.8145 H   0  0  0  0  0  0  0  0  0  0  0  0
    0.5309  -10.6225    4.5791 H   0  0  0  0  0  0  0  0  0  0  0  0
    1.0022   -9.8773    7.3310 H   0  0  0  0  0  0  0  0  0  0  0  0
    1.8598  -10.8597    6.1744 H   0  0  0  0  0  0  0  0  0  0  0  0
    2.8157   -8.4263    7.3948 H   0  0  0  0  0  0  0  0  0  0  0  0
    3.4348  -10.6051    7.2103 H   0  0  0  0  0  0  0  0  0  0  0  0
    2.2964   -6.5614    4.3640 H   0  0  0  0  0  0  0  0  0  0  0  0
    7.2749   -7.6349    5.4552 H   0  0  0  0  0  0  0  0  0  0  0  0
    7.0107   -7.9800    3.7540 H   0  0  0  0  0  0  0  0  0  0  0  0
    6.0765   -8.8144    4.9821 H   0  0  0  0  0  0  0  0  0  0  0  0
    4.7833   -7.5966    6.7459 H   0  0  0  0  0  0  0  0  0  0  0  0
    4.6489   -4.7044    8.6845 H   0  0  0  0  0  0  0  0  0  0  0  0
    0.1377   -1.5449    6.7003 H   0  0  0  0  0  0  0  0  0  0  0  0
   -0.1521   -2.5659    4.5998 H   0  0  0  0  0  0  0  0  0  0  0  0
    1.7334   -4.5075    5.2805 H   0  0  0  0  0  0  0  0  0  0  0  0
    1.2070   -7.8759    7.5981 H   0  0  0  0  0  0  0  0  0  0  0  0
    0.7829   -5.4074    8.7029 H   0  0  0  0  0  0  0  0  0  0  0  0
    2.7173   -7.3717    8.9794 H   0  0  0  0  0  0  0  0  0  0  0  0
    0.5488   -4.1787    2.8224 H   0  0  0  0  0  0  0  0  0  0  0  0
    2.0807   -2.7691    3.8726 H   0  0  0  0  0  0  0  0  0  0  0  0
    4.6032   -3.0858    4.9178 H   0  0  0  0  0  0  0  0  0  0  0  0
    3.5920   -0.3464    6.5050 H   0  0  0  0  0  0  0  0  0  0  0  0
    2.9299   -0.7118    4.9159 H   0  0  0  0  0  0  0  0  0  0  0  0
    4.6856   -0.8650    5.2147 H   0  0  0  0  0  0  0  0  0  0  0  0
    5.1276   -3.8904    6.9524 H   0  0  0  0  0  0  0  0  0  0  0  0
    5.5194   -5.5454    7.0805 H   0  0  0  0  0  0  0  0  0  0  0  0
    6.5523   -3.5142    5.2946 H   0  0  0  0  0  0  0  0  0  0  0  0
    7.4542   -6.0302    6.0484 H   0  0  0  0  0  0  0  0  0  0  0  0
    6.8869   -6.0464    2.5815 H   0  0  0  0  0  0  0  0  0  0  0  0
    4.8680   -5.6399    1.4054 H   0  0  0  0  0  0  0  0  0  0  0  0
    6.0522   -2.4908    3.5557 H   0  0  0  0  0  0  0  0  0  0  0  0
    6.7373   -3.1614    2.0810 H   0  0  0  0  0  0  0  0  0  0  0  0
    3.4939   -0.3273    1.0273 H   0  0  0  0  0  0  0  0  0  0  0  0
    3.9069   -0.8422   -0.6156 H   0  0  0  0  0  0  0  0  0  0  0  0
    4.7249    0.5387    0.1174 H   0  0  0  0  0  0  0  0  0  0  0  0
   -0.6460   -6.2658    3.3151 H   0  0  0  0  0  0  0  0  0  0  0  0
    0.1535   -7.1801    1.1252 H   0  0  0  0  0  0  0  0  0  0  0  0
  1  2  1  0
  1 58  1  0
  1 59  1  0
  1 60  1  0
  2  3  1  0
  3 14  1  0
  3  4  1  0
  3 61  1  1
  4  5  1  0
  4  6  1  0
  4  7  1  0
  5 62  1  0
  6 63  1  0
  7 56  1  0
  7  8  1  0
  7 64  1  6
  8  9  2  0
  8 10  1  0
 10 11  1  0
 10 65  1  0
 10 66  1  0
 11 12  1  0
 11 67  1  0
 11 68  1  0
 12 13  1  0
 14 12  1  1
 12 69  1  1
 13 70  1  0
 14 20  1  0
 14 15  1  0
 15 43  1  0
 15 16  1  0
 15 71  1  6
 16 17  2  0
 16 18  1  1
 18 47  1  0
 18 19  1  6
 18 20  1  0
 19 72  1  0
 19 73  1  0
 19 74  1  0
 20 21  1  0
 20 75  1  1
 21 32  1  0
 21 43  1  0
 21 22  1  1
 22 34  1  0
 22 23  1  1
 22 24  1  0
 23 76  1  0
 24 25  1  0
 25 26  2  0
 25 27  1  0
 27 28  2  3
 27 77  1  0
 28 29  1  0
 28 78  1  0
 29 30  1  0
 29 36  1  0
 29 79  1  1
 30 31  2  0
 30 32  1  0
 32 33  1  1
 32 34  1  0
 33 80  1  0
 34 35  1  0
 34 81  1  1
 35 82  1  0
 36 37  1  0
 36 56  1  0
 36 83  1  6
 37 38  1  0
 38 49  1  0
 38 39  2  3
 39 40  1  0
 39 84  1  0
 40 41  1  0
 40 43  1  0
 40 85  1  6
 41 42  1  0
 42 86  1  0
 42 87  1  0
 42 88  1  0
 43 44  1  1
 44 45  1  0
 44 89  1  0
 44 90  1  0
 45 46  1  0
 45 47  1  0
 45 91  1  6
 46 92  1  0
 47 48  1  6
 47 49  1  0
 48 93  1  0
 49 50  1  6
 49 51  1  0
 50 94  1  0
 51 52  1  0
 51 95  1  0
 51 96  1  0
 52 53  1  0
 53 54  1  0
 53 55  2  0
 54 97  1  0
 54 98  1  0
 54 99  1  0
 56 57  1  0
 56100  1  1
 57101  1  0
M  END
>  <i_m_ct_stereo_status>  (103) 
1

>  <s_m_source_file>  (103) 
/var/tmp/pbs.5075288.sched01/tmpndvtliwj/216foptgilz.sdf

>  <i_m_source_file_index>  (103) 
59

>  <i_lp_mmshare_version>  (103) 
48012

>  <i_f3d_flags>  (103) 
0

>  <s_epik_input>  (103) 
Tz1DMVtDQF0yKFtPSF0pW0NAQEhdKFtPSF0pW0NAXTMoW09IXSlPQyg9TykvW0NIXT1bQ0hdXFtDSF0xW0NASF0oW0NAQEhdKFtPSF0pW0NAQEhdKEMoW09IXSkoW09IXSlbQ0BIXTRPW0NIM10pQyg9TylbQ0gyXVtDSDJdW0NASF01W09IXSlPL0MoPVtDSF1cW0NASF02T1tDSDNdKVtDQEBdKFtPSF0pKFtDSDJdT0MoPU8pW0NIM10pW0NAQF0oW09IXSkoW0NAQEhdKFtDSDJdNylbT0hdKVtDQEBdKFtTK104W08tXSkoW0NIM10pW0NASF05W0NAQF0yM1tDQEBdNjdbQ0BASF04QzQ1OQ==

>  <s_epik_cmdline>  (103) 
J2VwaWtfcHl0aG9uJywgJy1waHQnLCAnMi4wJywgJy1waCcsICc3LjAnLCAnLXRuJywgJzgnLCAnLW1hJywgJzIwMCcsICctaW1hZScsICc8aW5maWxlLm1hZT4nLCAnLW9tYWUnLCAnPG91dGZpbGUubWFlPic=

>  <r_lp_tautomer_probability>  (103) 
1

>  <r_epik_Ionization_Penalty>  (103) 
0.000796543

>  <r_epik_Ionization_Penalty_Charging>  (103) 
0

>  <r_epik_Ionization_Penalty_Neutral>  (103) 
0.000796543

>  <r_epik_State_Penalty>  (103) 
0.000268708

>  <r_epik_Charging_Adjusted_Penalty>  (103) 
0.000268708

>  <i_epik_Tot_Q>  (103) 
0

>  <i_epik_Tot_abs_Q>  (103) 
2

>  <s_epik_Chemistry_Notes>  (103) 
This compound has an ester and may undergo hydrolysis at high or low pH.

>  <s_lp_Force_Field>  (103) 
OPLS3e

>  <r_lp_Energy>  (103) 
756.246

>  <b_lp_Chiralities_Consistent>  (103) 
1

>  <s_lp_Variant>  (103) 
96:0-6

>  <s_i_glide_gridfile>  (103) 
pfpi4k_grid

>  <i_i_glide_lignum>  (103) 
59

>  <i_i_glide_rotatable_bonds>  (103) 
15

>  <r_i_docking_score>  (103) 
-3.7696

>  <r_i_glide_ligand_efficiency>  (103) 
-0.0661334

>  <r_i_glide_ligand_efficiency_sa>  (103) 
-0.254514

>  <r_i_glide_ligand_efficiency_ln>  (103) 
-0.747484

>  <r_i_glide_gscore>  (103) 
-3.7696

>  <r_i_glide_lipo>  (103) 
-0.16433

>  <r_i_glide_hbond>  (103) 
0

>  <r_i_glide_metal>  (103) 
-0

>  <r_i_glide_rewards>  (103) 
-0.630755

>  <r_i_glide_evdw>  (103) 
-26.7329

>  <r_i_glide_ecoul>  (103) 
-10.9303

>  <r_i_glide_erotb>  (103) 
0.0636554

>  <r_i_glide_esite>  (103) 
-0.0619782

>  <r_i_glide_emodel>  (103) 
-46.7888

>  <r_i_glide_energy>  (103) 
-37.6632

>  <r_i_glide_einternal>  (103) 
7.27679

>  <r_i_glide_intrahb_reward>  (103) 
-0.5

>  <i_i_glide_confnum>  (103) 
6

>  <i_i_glide_posenum>  (103) 
22

>  <r_i_glide_eff_state_penalty>  (103) 
0

>  <ligand_id>  (103) 
96

>  <original_smiles>  (103) 
COC1C(O)(O)C2C(=O)CCC(O)C13C1[S+]([O-])C4(C)C3C35C6(O)OC(=O)C=CC(C(=O)C3(O)C6O)C(OC3=CC(OC)C15CC(O)C4(O)C3(O)COC(C)=O)C2O

>  <smiles>  (103) 
[H]OC1([H])C2([H])OC3=C([H])C([H])(OC([H])([H])[H])C45C([H])([H])C([H])(O[H])C(O[H])(C3(O[H])C([H])([H])OC(=O)C([H])([H])[H])C3(C([H])([H])[H])S(=O)C4([H])C4(C([H])(O[H])C([H])([H])C([H])([H])C(=O)C1([H])C(O[H])(O[H])C4([H])OC([H])([H])[H])C3([H])C51C3(O[H])OC(=O)C([H])=C([H])C2([H])C(=O)C1(O[H])C3([H])O[H]

$$$$
96:5:2
     RDKit          3D

101109  0  0  1  0  0  0  0  0999 V2000
    7.9723   -5.2466    2.0207 C   0  0  0  0  0  0  0  0  0  0  0  0
    6.9923   -5.4815    3.0230 O   0  0  0  0  0  0  0  0  0  0  0  0
    5.7713   -6.1865    2.7131 C   0  0  2  0  0  0  0  0  0  0  0  0
    4.9039   -5.9715    1.3672 C   0  0  0  0  0  0  0  0  0  0  0  0
    4.3373   -4.7009    1.1251 O   0  0  0  0  0  0  0  0  0  0  0  0
    5.8130   -6.2235    0.3269 O   0  0  0  0  0  0  0  0  0  0  0  0
    3.7203   -7.0037    1.1051 C   0  0  1  0  0  0  0  0  0  0  0  0
    4.0954   -8.5250    1.2335 C   0  0  0  0  0  0  0  0  0  0  0  0
    3.2766   -9.3564    0.8654 O   0  0  0  0  0  0  0  0  0  0  0  0
    5.5438   -9.0399    1.5239 C   0  0  0  0  0  0  0  0  0  0  0  0
    6.1694   -9.1645    2.9719 C   0  0  0  0  0  0  0  0  0  0  0  0
    5.8548   -8.1776    4.2017 C   0  0  1  0  0  0  0  0  0  0  0  0
    7.1366   -7.8669    4.7246 O   0  0  0  0  0  0  0  0  0  0  0  0
    5.0634   -6.8074    4.0171 C   0  0  2  0  0  0  0  0  0  0  0  0
    3.6617   -6.0379    4.2484 C   0  0  2  0  0  0  0  0  0  0  0  0
    4.2247   -4.2934    3.9389 S   0  0  0  0  0  0  0  0  0  0  0  0
    5.4923   -3.6607    3.3096 O   0  0  0  0  0  0  0  0  0  0  0  0
    4.6701   -4.7249    5.5690 C   0  0  2  0  0  0  0  0  0  0  0  0
    6.0991   -4.2398    5.9068 C   0  0  0  0  0  0  0  0  0  0  0  0
    4.6735   -6.4824    5.4748 C   0  0  1  0  0  0  0  0  0  0  0  0
    3.2453   -7.5088    5.6479 C   0  0  2  0  0  0  0  0  0  0  0  0
    2.5958   -8.5220    6.7144 C   0  0  1  0  0  0  0  0  0  0  0  0
    3.1323   -8.6185    8.0237 O   0  0  0  0  0  0  0  0  0  0  0  0
    1.1750   -8.2968    6.6465 O   0  0  0  0  0  0  0  0  0  0  0  0
    0.1050   -9.1069    6.2775 C   0  0  0  0  0  0  0  0  0  0  0  0
   -0.1516  -10.1687    6.8403 O   0  0  0  0  0  0  0  0  0  0  0  0
   -0.7874   -8.5547    5.1817 C   0  0  0  0  0  0  0  0  0  0  0  0
   -0.5006   -7.8564    4.0386 C   0  0  0  0  0  0  0  0  0  0  0  0
    0.8759   -7.4668    3.4900 C   0  0  1  0  0  0  0  0  0  0  0  0
    1.6871   -8.7198    3.5908 C   0  0  0  0  0  0  0  0  0  0  0  0
    1.2854   -9.6905    2.9461 O   0  0  0  0  0  0  0  0  0  0  0  0
    2.8508   -8.7635    4.6149 C   0  0  1  0  0  0  0  0  0  0  0  0
    3.6737   -9.5457    3.8431 O   0  0  0  0  0  0  0  0  0  0  0  0
    2.8514   -9.6996    5.8378 C   0  0  1  0  0  0  0  0  0  0  0  0
    4.0367  -10.3923    6.1910 O   0  0  0  0  0  0  0  0  0  0  0  0
    1.1587   -6.2376    2.4318 C   0  0  1  0  0  0  0  0  0  0  0  0
    1.5559   -4.8327    2.8963 O   0  0  0  0  0  0  0  0  0  0  0  0
    1.2402   -4.3320    4.1744 C   0  0  0  0  0  0  0  0  0  0  0  0
    0.3491   -4.9906    4.8448 C   0  0  0  0  0  0  0  0  0  0  0  0
    1.0203   -5.6450    5.9790 C   0  0  1  0  0  0  0  0  0  0  0  0
    0.0604   -6.1884    6.9034 O   0  0  0  0  0  0  0  0  0  0  0  0
   -1.0356   -5.3777    7.3362 C   0  0  0  0  0  0  0  0  0  0  0  0
    2.6368   -6.1718    5.7237 C   0  0  2  0  0  0  0  0  0  0  0  0
    2.9919   -5.7043    7.2477 C   0  0  0  0  0  0  0  0  0  0  0  0
    3.1338   -4.2009    7.4238 C   0  0  1  0  0  0  0  0  0  0  0  0
    4.1099   -3.9672    8.4206 O   0  0  0  0  0  0  0  0  0  0  0  0
    3.4496   -3.6774    6.0120 C   0  0  1  0  0  0  0  0  0  0  0  0
    4.0319   -2.4055    6.2687 O   0  0  0  0  0  0  0  0  0  0  0  0
    2.1012   -3.2312    5.0170 C   0  0  1  0  0  0  0  0  0  0  0  0
    2.4220   -2.1754    4.1085 O   0  0  0  0  0  0  0  0  0  0  0  0
    1.1923   -2.2713    5.8993 C   0  0  0  0  0  0  0  0  0  0  0  0
   -0.1109   -2.0695    5.3171 O   0  0  0  0  0  0  0  0  0  0  0  0
   -0.8451   -0.9581    5.5483 C   0  0  0  0  0  0  0  0  0  0  0  0
   -0.1038    0.2830    6.0728 C   0  0  0  0  0  0  0  0  0  0  0  0
   -2.0534   -0.9554    5.3251 O   0  0  0  0  0  0  0  0  0  0  0  0
    2.1119   -6.6267    1.1843 C   0  0  1  0  0  0  0  0  0  0  0  0
    1.7828   -5.7034    0.1468 O   0  0  0  0  0  0  0  0  0  0  0  0
    8.8004   -4.6963    2.4689 H   0  0  0  0  0  0  0  0  0  0  0  0
    7.5854   -4.6371    1.2012 H   0  0  0  0  0  0  0  0  0  0  0  0
    8.3941   -6.1728    1.6356 H   0  0  0  0  0  0  0  0  0  0  0  0
    6.3929   -6.9600    2.3548 H   0  0  0  0  0  0  0  0  0  0  0  0
    3.8006   -4.7367    0.3460 H   0  0  0  0  0  0  0  0  0  0  0  0
    5.3518   -6.2324   -0.4980 H   0  0  0  0  0  0  0  0  0  0  0  0
    3.7584   -7.0414    0.0156 H   0  0  0  0  0  0  0  0  0  0  0  0
    5.5827  -10.0409    1.0824 H   0  0  0  0  0  0  0  0  0  0  0  0
    6.2394   -8.4874    0.9043 H   0  0  0  0  0  0  0  0  0  0  0  0
    5.9946  -10.1863    3.3060 H   0  0  0  0  0  0  0  0  0  0  0  0
    7.2523   -9.1649    2.7999 H   0  0  0  0  0  0  0  0  0  0  0  0
    5.4970   -8.7502    5.0476 H   0  0  0  0  0  0  0  0  0  0  0  0
    7.5666   -8.6846    4.9308 H   0  0  0  0  0  0  0  0  0  0  0  0
    3.1804   -6.4131    3.3855 H   0  0  0  0  0  0  0  0  0  0  0  0
    6.3054   -4.2450    6.9760 H   0  0  0  0  0  0  0  0  0  0  0  0
    6.2977   -3.2282    5.5519 H   0  0  0  0  0  0  0  0  0  0  0  0
    6.8454   -4.8839    5.4496 H   0  0  0  0  0  0  0  0  0  0  0  0
    5.4028   -6.8192    6.2007 H   0  0  0  0  0  0  0  0  0  0  0  0
    2.8115   -9.4075    8.4424 H   0  0  0  0  0  0  0  0  0  0  0  0
   -1.8550   -8.6710    5.3348 H   0  0  0  0  0  0  0  0  0  0  0  0
   -1.3551   -7.5268    3.4596 H   0  0  0  0  0  0  0  0  0  0  0  0
    1.2582   -7.1078    4.3731 H   0  0  0  0  0  0  0  0  0  0  0  0
    3.1988  -10.3467    3.6545 H   0  0  0  0  0  0  0  0  0  0  0  0
    2.0670  -10.4536    5.7515 H   0  0  0  0  0  0  0  0  0  0  0  0
    3.7494  -11.1698    6.6426 H   0  0  0  0  0  0  0  0  0  0  0  0
    0.1732   -6.0538    1.9921 H   0  0  0  0  0  0  0  0  0  0  0  0
   -0.4186   -5.5577    4.3508 H   0  0  0  0  0  0  0  0  0  0  0  0
    1.0545   -4.7503    6.5618 H   0  0  0  0  0  0  0  0  0  0  0  0
   -1.5691   -5.9396    8.0798 H   0  0  0  0  0  0  0  0  0  0  0  0
   -1.7480   -5.1401    6.5497 H   0  0  0  0  0  0  0  0  0  0  0  0
   -0.7085   -4.4816    7.8477 H   0  0  0  0  0  0  0  0  0  0  0  0
    2.2204   -6.0258    7.9300 H   0  0  0  0  0  0  0  0  0  0  0  0
    3.8605   -6.1850    7.6848 H   0  0  0  0  0  0  0  0  0  0  0  0
    2.2650   -3.7494    7.8859 H   0  0  0  0  0  0  0  0  0  0  0  0
    4.9223   -4.3557    8.1389 H   0  0  0  0  0  0  0  0  0  0  0  0
    4.2923   -2.0498    5.4321 H   0  0  0  0  0  0  0  0  0  0  0  0
    1.6404   -1.9187    3.6382 H   0  0  0  0  0  0  0  0  0  0  0  0
    0.9158   -2.7561    6.8450 H   0  0  0  0  0  0  0  0  0  0  0  0
    1.6891   -1.3729    6.1244 H   0  0  0  0  0  0  0  0  0  0  0  0
    0.9533    0.2007    6.0747 H   0  0  0  0  0  0  0  0  0  0  0  0
   -0.4904    0.5200    7.0822 H   0  0  0  0  0  0  0  0  0  0  0  0
   -0.4363    1.1458    5.4587 H   0  0  0  0  0  0  0  0  0  0  0  0
    1.6094   -7.5312    0.8681 H   0  0  0  0  0  0  0  0  0  0  0  0
    2.2879   -5.8895   -0.6360 H   0  0  0  0  0  0  0  0  0  0  0  0
  1  2  1  0
  1 58  1  0
  1 59  1  0
  1 60  1  0
  2  3  1  0
  3 14  1  0
  3  4  1  0
  3 61  1  6
  4  5  1  0
  4  6  1  0
  4  7  1  0
  5 62  1  0
  6 63  1  0
  7 56  1  0
  7  8  1  0
  7 64  1  6
  8  9  2  0
  8 10  1  0
 10 11  1  0
 10 65  1  0
 10 66  1  0
 11 12  1  0
 11 67  1  0
 11 68  1  0
 12 13  1  0
 14 12  1  1
 12 69  1  1
 13 70  1  0
 14 20  1  0
 14 15  1  0
 15 43  1  0
 15 16  1  0
 15 71  1  6
 16 17  2  0
 16 18  1  1
 18 47  1  0
 18 19  1  1
 18 20  1  0
 19 72  1  0
 19 73  1  0
 19 74  1  0
 20 21  1  0
 20 75  1  1
 21 32  1  0
 21 43  1  0
 21 22  1  1
 22 34  1  0
 22 23  1  1
 22 24  1  0
 23 76  1  0
 24 25  1  0
 25 26  2  0
 25 27  1  0
 27 28  2  3
 27 77  1  0
 28 29  1  0
 28 78  1  0
 29 30  1  0
 29 36  1  0
 29 79  1  1
 30 31  2  0
 30 32  1  0
 32 33  1  6
 32 34  1  0
 33 80  1  0
 34 35  1  0
 34 81  1  6
 35 82  1  0
 36 37  1  0
 36 56  1  0
 36 83  1  6
 37 38  1  0
 38 49  1  0
 38 39  2  3
 39 40  1  0
 39 84  1  0
 40 41  1  0
 40 43  1  0
 40 85  1  1
 41 42  1  0
 42 86  1  0
 42 87  1  0
 42 88  1  0
 43 44  1  1
 44 45  1  0
 44 89  1  0
 44 90  1  0
 45 46  1  0
 45 47  1  0
 45 91  1  1
 46 92  1  0
 47 48  1  1
 47 49  1  0
 48 93  1  0
 49 50  1  6
 49 51  1  0
 50 94  1  0
 51 52  1  0
 51 95  1  0
 51 96  1  0
 52 53  1  0
 53 54  1  0
 53 55  2  0
 54 97  1  0
 54 98  1  0
 54 99  1  0
 56 57  1  0
 56100  1  6
 57101  1  0
M  END
>  <i_m_ct_stereo_status>  (104) 
1

>  <s_m_source_file>  (104) 
/var/tmp/pbs.5075288.sched01/tmpndvtliwj/216foptgilz.sdf

>  <i_m_source_file_index>  (104) 
59

>  <i_lp_mmshare_version>  (104) 
48012

>  <i_f3d_flags>  (104) 
0

>  <s_epik_input>  (104) 
Tz1DMVtDQF0yKFtPSF0pW0NAQEhdKFtPSF0pW0NAXTMoW09IXSlPQyg9TykvW0NIXT1bQ0hdXFtDSF0xW0NASF0oW0NAQEhdKFtPSF0pW0NAQEhdKEMoW09IXSkoW09IXSlbQ0BIXTRPW0NIM10pQyg9TylbQ0gyXVtDSDJdW0NASF01W09IXSlPL0MoPVtDSF1cW0NASF02T1tDSDNdKVtDQEBdKFtPSF0pKFtDSDJdT0MoPU8pW0NIM10pW0NAQF0oW09IXSkoW0NAQEhdKFtDSDJdNylbT0hdKVtDQEBdKFtTK104W08tXSkoW0NIM10pW0NASF05W0NAQF0yM1tDQEBdNjdbQ0BASF04QzQ1OQ==

>  <s_epik_cmdline>  (104) 
J2VwaWtfcHl0aG9uJywgJy1waHQnLCAnMi4wJywgJy1waCcsICc3LjAnLCAnLXRuJywgJzgnLCAnLW1hJywgJzIwMCcsICctaW1hZScsICc8aW5maWxlLm1hZT4nLCAnLW9tYWUnLCAnPG91dGZpbGUubWFlPic=

>  <r_lp_tautomer_probability>  (104) 
1

>  <r_epik_Ionization_Penalty>  (104) 
0.000796543

>  <r_epik_Ionization_Penalty_Charging>  (104) 
0

>  <r_epik_Ionization_Penalty_Neutral>  (104) 
0.000796543

>  <r_epik_State_Penalty>  (104) 
0.000268708

>  <r_epik_Charging_Adjusted_Penalty>  (104) 
0.000268708

>  <i_epik_Tot_Q>  (104) 
0

>  <i_epik_Tot_abs_Q>  (104) 
2

>  <s_epik_Chemistry_Notes>  (104) 
This compound has an ester and may undergo hydrolysis at high or low pH.

>  <s_lp_Force_Field>  (104) 
OPLS3e

>  <r_lp_Energy>  (104) 
756.246

>  <b_lp_Chiralities_Consistent>  (104) 
1

>  <s_lp_Variant>  (104) 
96:0-6

>  <s_i_glide_gridfile>  (104) 
pfpi4k_grid

>  <i_i_glide_lignum>  (104) 
59

>  <i_i_glide_rotatable_bonds>  (104) 
15

>  <r_i_docking_score>  (104) 
-2.76844

>  <r_i_glide_ligand_efficiency>  (104) 
-0.0485691

>  <r_i_glide_ligand_efficiency_sa>  (104) 
-0.186918

>  <r_i_glide_ligand_efficiency_ln>  (104) 
-0.548961

>  <r_i_glide_gscore>  (104) 
-2.76844

>  <r_i_glide_lipo>  (104) 
-0.254289

>  <r_i_glide_hbond>  (104) 
0

>  <r_i_glide_metal>  (104) 
-0

>  <r_i_glide_rewards>  (104) 
-0.0904823

>  <r_i_glide_evdw>  (104) 
-30.9102

>  <r_i_glide_ecoul>  (104) 
-5.26493

>  <r_i_glide_erotb>  (104) 
0.0636554

>  <r_i_glide_esite>  (104) 
-0.152069

>  <r_i_glide_emodel>  (104) 
-34.509

>  <r_i_glide_energy>  (104) 
-36.1752

>  <r_i_glide_einternal>  (104) 
15.8643

>  <r_i_glide_intrahb_reward>  (104) 
-0

>  <i_i_glide_confnum>  (104) 
6

>  <i_i_glide_posenum>  (104) 
20

>  <r_i_glide_eff_state_penalty>  (104) 
0

>  <ligand_id>  (104) 
96

>  <original_smiles>  (104) 
COC1C(O)(O)C2C(=O)CCC(O)C13C1[S+]([O-])C4(C)C3C35C6(O)OC(=O)C=CC(C(=O)C3(O)C6O)C(OC3=CC(OC)C15CC(O)C4(O)C3(O)COC(C)=O)C2O

>  <smiles>  (104) 
[H]OC1([H])C2([H])OC3=C([H])C([H])(OC([H])([H])[H])C45C([H])([H])C([H])(O[H])C(O[H])(C3(O[H])C([H])([H])OC(=O)C([H])([H])[H])C3(C([H])([H])[H])S(=O)C4([H])C4(C([H])(O[H])C([H])([H])C([H])([H])C(=O)C1([H])C(O[H])(O[H])C4([H])OC([H])([H])[H])C3([H])C51C3(O[H])OC(=O)C([H])=C([H])C2([H])C(=O)C1(O[H])C3([H])O[H]

$$$$
99:0:0
     RDKit          3D

 94100  0  0  1  0  0  0  0  0999 V2000
    0.7170  -11.1434    5.0037 C   0  0  0  0  0  0  0  0  0  0  0  0
    1.5483  -10.0834    4.7166 C   0  0  0  0  0  0  0  0  0  0  0  0
    1.7730   -8.7734    5.5014 C   0  0  1  0  0  0  0  0  0  0  0  0
    0.7053   -8.7656    6.6435 C   0  0  0  0  0  0  0  0  0  0  0  0
    3.2308   -8.7404    6.0837 C   0  0  1  0  0  0  0  0  0  0  0  0
    3.5342   -9.8575    7.0998 C   0  0  0  0  0  0  0  0  0  0  0  0
    4.3120   -8.6991    4.9870 C   0  0  0  0  0  0  0  0  0  0  0  0
    4.2035   -7.4376    4.1111 C   0  0  0  0  0  0  0  0  0  0  0  0
    2.8212   -7.1939    3.4177 C   0  0  1  0  0  0  0  0  0  0  0  0
    2.7372   -5.6924    2.7810 C   0  0  2  0  0  0  0  0  0  0  0  0
    2.6178   -5.8145    1.2588 C   0  0  0  0  0  0  0  0  0  0  0  0
    3.2875   -7.1065    1.0112 C   0  0  0  0  0  0  0  0  0  0  0  0
    4.2696   -7.2828    0.0931 C   0  0  0  0  0  0  0  0  0  0  0  0
    2.8012   -8.0897    2.0610 C   0  0  1  0  0  0  0  0  0  0  0  0
    3.5886   -9.4455    1.9012 C   0  0  0  0  0  0  0  0  0  0  0  0
    1.4588   -8.4069    1.7429 O   0  0  0  0  0  0  0  0  0  0  0  0
    3.8687   -4.6381    3.0697 C   0  0  0  0  0  0  0  0  0  0  0  0
    3.7253   -3.9817    4.4394 C   0  0  1  0  0  0  0  0  0  0  0  0
    4.8929   -3.3647    5.2210 C   0  0  0  0  0  0  0  0  0  0  0  0
    4.1233   -2.8920    6.4415 C   0  0  0  0  0  0  0  0  0  0  0  0
    2.8010   -2.8698    6.1958 C   0  0  0  0  0  0  0  0  0  0  0  0
    2.5030   -3.1200    4.7604 C   0  0  1  0  0  0  0  0  0  0  0  0
    2.1137   -1.7693    4.0966 C   0  0  2  0  0  0  0  0  0  0  0  0
    1.0997   -2.1177    3.1679 O   0  0  0  0  0  0  0  0  0  0  0  0
    3.2436   -1.0834    3.2842 C   0  0  0  0  0  0  0  0  0  0  0  0
    2.7778    0.2354    2.6477 C   0  0  0  0  0  0  0  0  0  0  0  0
    3.0606    0.5159    1.4828 O   0  0  0  0  0  0  0  0  0  0  0  0
    1.9566    1.1944    3.5177 C   0  0  0  0  0  0  0  0  0  0  0  0
    0.9356    0.4826    4.4350 C   0  0  0  0  0  0  0  0  0  0  0  0
    1.5697   -0.7372    5.1621 C   0  0  1  0  0  0  0  0  0  0  0  0
    0.8147   -1.3415    6.4261 C   0  0  1  0  0  0  0  0  0  0  0  0
    0.5456   -0.2044    7.4585 C   0  0  0  0  0  0  0  0  0  0  0  0
   -0.5535   -1.9275    6.0840 C   0  0  0  0  0  0  0  0  0  0  0  0
   -1.4935   -1.2601    5.6440 O   0  0  0  0  0  0  0  0  0  0  0  0
   -0.6107   -3.3395    6.3851 C   0  0  0  0  0  0  0  0  0  0  0  0
    0.5650   -3.7738    6.8626 C   0  0  0  0  0  0  0  0  0  0  0  0
    0.8511   -5.3015    6.9413 C   0  0  1  0  0  0  0  0  0  0  0  0
    2.1720   -5.6774    7.6376 C   0  0  0  0  0  0  0  0  0  0  0  0
   -0.1426   -5.8055    7.8170 O   0  0  0  0  0  0  0  0  0  0  0  0
    0.6793   -6.0299    5.1942 S   0  0  0  0  0  0  0  0  0  0  0  0
   -0.8126   -6.2510    4.9041 O   0  0  0  0  0  0  0  0  0  0  0  0
    1.6361   -7.5245    4.5143 C   0  0  2  0  0  0  0  0  0  0  0  0
    1.5749   -2.6059    7.0503 C   0  0  1  0  0  0  0  0  0  0  0  0
    1.9602   -2.4190    8.5417 C   0  0  0  0  0  0  0  0  0  0  0  0
    0.0589  -11.2030    5.8764 H   0  0  0  0  0  0  0  0  0  0  0  0
    0.7384  -11.9638    4.3099 H   0  0  0  0  0  0  0  0  0  0  0  0
    2.1048  -10.1648    3.8526 H   0  0  0  0  0  0  0  0  0  0  0  0
    0.8557   -8.0346    7.4255 H   0  0  0  0  0  0  0  0  0  0  0  0
    0.6877   -9.7266    7.1613 H   0  0  0  0  0  0  0  0  0  0  0  0
   -0.2877   -8.6217    6.2105 H   0  0  0  0  0  0  0  0  0  0  0  0
    3.3820   -7.8114    6.6128 H   0  0  0  0  0  0  0  0  0  0  0  0
    3.4557  -10.8503    6.6551 H   0  0  0  0  0  0  0  0  0  0  0  0
    2.8522   -9.8176    7.9481 H   0  0  0  0  0  0  0  0  0  0  0  0
    4.5429   -9.7525    7.5046 H   0  0  0  0  0  0  0  0  0  0  0  0
    5.2965   -8.6683    5.4624 H   0  0  0  0  0  0  0  0  0  0  0  0
    4.3194   -9.6154    4.4036 H   0  0  0  0  0  0  0  0  0  0  0  0
    4.4693   -6.6211    4.7730 H   0  0  0  0  0  0  0  0  0  0  0  0
    4.9945   -7.4405    3.3643 H   0  0  0  0  0  0  0  0  0  0  0  0
    1.7971   -5.2089    3.0219 H   0  0  0  0  0  0  0  0  0  0  0  0
    1.5702   -5.9091    0.9692 H   0  0  0  0  0  0  0  0  0  0  0  0
    3.0386   -4.9860    0.6768 H   0  0  0  0  0  0  0  0  0  0  0  0
    4.5832   -6.4733   -0.5458 H   0  0  0  0  0  0  0  0  0  0  0  0
    4.7893   -8.2171    0.0072 H   0  0  0  0  0  0  0  0  0  0  0  0
    4.6652   -9.3019    2.0958 H   0  0  0  0  0  0  0  0  0  0  0  0
    3.5040   -9.7683    0.8487 H   0  0  0  0  0  0  0  0  0  0  0  0
    3.2765  -10.3161    2.4196 H   0  0  0  0  0  0  0  0  0  0  0  0
    1.4508   -9.0560    1.0520 H   0  0  0  0  0  0  0  0  0  0  0  0
    4.8533   -5.0928    2.9589 H   0  0  0  0  0  0  0  0  0  0  0  0
    3.8416   -3.8395    2.3327 H   0  0  0  0  0  0  0  0  0  0  0  0
    3.5229   -4.8598    5.0402 H   0  0  0  0  0  0  0  0  0  0  0  0
    5.6589   -4.0996    5.4834 H   0  0  0  0  0  0  0  0  0  0  0  0
    5.3610   -2.5327    4.6978 H   0  0  0  0  0  0  0  0  0  0  0  0
    4.5979   -2.6820    7.3816 H   0  0  0  0  0  0  0  0  0  0  0  0
    1.6332   -3.7389    4.6551 H   0  0  0  0  0  0  0  0  0  0  0  0
    0.9552   -1.3740    2.6028 H   0  0  0  0  0  0  0  0  0  0  0  0
    4.0853   -0.8449    3.9370 H   0  0  0  0  0  0  0  0  0  0  0  0
    3.6242   -1.7335    2.4972 H   0  0  0  0  0  0  0  0  0  0  0  0
    2.6651    1.7539    4.1271 H   0  0  0  0  0  0  0  0  0  0  0  0
    1.4512    1.9242    2.8824 H   0  0  0  0  0  0  0  0  0  0  0  0
    0.5802    1.2279    5.1482 H   0  0  0  0  0  0  0  0  0  0  0  0
    0.0657    0.1767    3.8546 H   0  0  0  0  0  0  0  0  0  0  0  0
    2.4595   -0.3130    5.6217 H   0  0  0  0  0  0  0  0  0  0  0  0
    1.4660    0.2861    7.7780 H   0  0  0  0  0  0  0  0  0  0  0  0
    0.0355   -0.5692    8.3479 H   0  0  0  0  0  0  0  0  0  0  0  0
   -0.1044    0.5783    7.0660 H   0  0  0  0  0  0  0  0  0  0  0  0
   -1.4484   -3.9719    6.1361 H   0  0  0  0  0  0  0  0  0  0  0  0
    2.2440   -5.1934    8.6016 H   0  0  0  0  0  0  0  0  0  0  0  0
    3.0600   -5.4419    7.0650 H   0  0  0  0  0  0  0  0  0  0  0  0
    2.2398   -6.7165    7.9178 H   0  0  0  0  0  0  0  0  0  0  0  0
    0.2776   -6.3691    8.4454 H   0  0  0  0  0  0  0  0  0  0  0  0
    0.8053   -7.8472    3.8946 H   0  0  0  0  0  0  0  0  0  0  0  0
    2.6289   -3.1936    8.9023 H   0  0  0  0  0  0  0  0  0  0  0  0
    1.0809   -2.4368    9.1862 H   0  0  0  0  0  0  0  0  0  0  0  0
    2.4961   -1.4868    8.7237 H   0  0  0  0  0  0  0  0  0  0  0  0
  1  2  2  0
  1 45  1  0
  1 46  1  0
  2  3  1  0
  2 47  1  0
  3 42  1  0
  3  4  1  1
  3  5  1  0
  4 48  1  0
  4 49  1  0
  4 50  1  0
  5  6  1  0
  5  7  1  0
  5 51  1  1
  6 52  1  0
  6 53  1  0
  6 54  1  0
  7  8  1  0
  7 55  1  0
  7 56  1  0
  9  8  1  1
  8 57  1  0
  8 58  1  0
  9 14  1  0
  9 42  1  0
  9 10  1  0
 10 11  1  0
 10 17  1  0
 10 59  1  1
 11 12  1  0
 11 60  1  0
 11 61  1  0
 12 13  2  0
 12 14  1  0
 13 62  1  0
 13 63  1  0
 14 15  1  0
 14 16  1  6
 15 64  1  0
 15 65  1  0
 15 66  1  0
 16 67  1  0
 17 18  1  0
 17 68  1  0
 17 69  1  0
 18 22  1  0
 18 19  1  0
 18 70  1  1
 19 20  1  0
 19 71  1  0
 19 72  1  0
 20 21  2  0
 20 73  1  0
 21 43  1  0
 21 22  1  0
 22 23  1  0
 22 74  1  1
 23 30  1  0
 23 24  1  6
 23 25  1  0
 24 75  1  0
 25 26  1  0
 25 76  1  0
 25 77  1  0
 26 27  2  0
 26 28  1  0
 28 29  1  0
 28 78  1  0
 28 79  1  0
 29 30  1  0
 29 80  1  0
 29 81  1  0
 30 31  1  0
 30 82  1  1
 31 43  1  0
 31 32  1  1
 31 33  1  0
 32 83  1  0
 32 84  1  0
 32 85  1  0
 33 34  2  0
 33 35  1  0
 35 36  2  0
 35 86  1  0
 36 37  1  0
 36 43  1  0
 37 38  1  0
 37 39  1  1
 40 37  1  1
 38 87  1  0
 38 88  1  0
 38 89  1  0
 39 90  1  0
 40 41  2  0
 40 42  1  0
 42 91  1  6
 43 44  1  1
 44 92  1  0
 44 93  1  0
 44 94  1  0
M  END
>  <i_m_ct_stereo_status>  (105) 
1

>  <s_m_source_file>  (105) 
/var/tmp/pbs.5075288.sched01/tmpndvtliwj/216foptgilz.sdf

>  <i_m_source_file_index>  (105) 
62

>  <i_lp_mmshare_version>  (105) 
48012

>  <i_f3d_flags>  (105) 
0

>  <s_epik_input>  (105) 
W0NIMl0xW0NIMl1bQ0BIXShbQ0gzXSlbQ0BdKFtDSDNdKShbQ0hdPVtDSDJdKVtDQEhdMltTK10oW08tXSlbQ0BdKFtDSDNdKShbT0hdKUMzPVtDSF1DKD1PKVtDQF0oW0NIM10pKFtDQEhdNFtDQEBdNShbT0hdKVtDSDJdQyg9TylbQ0gyXVtDSDJdNClbQ0BdMyhbQ0gzXSlDKD1bQ0hdW0NIMl02KVtDQEBIXTVbQ0BIXTZbQ0gyXVtDQEhdKFtDQEBdMTI3KVtDSDJdQyg9W0NIMl0pW0NAXTcoW0NIM10pW09IXQ==

>  <s_epik_cmdline>  (105) 
J2VwaWtfcHl0aG9uJywgJy1waHQnLCAnMi4wJywgJy1waCcsICc3LjAnLCAnLXRuJywgJzgnLCAnLW1hJywgJzIwMCcsICctaW1hZScsICc8aW5maWxlLm1hZT4nLCAnLW9tYWUnLCAnPG91dGZpbGUubWFlPic=

>  <r_lp_tautomer_probability>  (105) 
1

>  <r_epik_Ionization_Penalty>  (105) 
5.59956e-07

>  <r_epik_Ionization_Penalty_Charging>  (105) 
0

>  <r_epik_Ionization_Penalty_Neutral>  (105) 
5.59956e-07

>  <r_epik_State_Penalty>  (105) 
-0

>  <r_epik_Charging_Adjusted_Penalty>  (105) 
0

>  <i_epik_Tot_Q>  (105) 
0

>  <i_epik_Tot_abs_Q>  (105) 
2

>  <s_lp_Force_Field>  (105) 
OPLS3e

>  <r_lp_Energy>  (105) 
125.631

>  <b_lp_Chiralities_Consistent>  (105) 
1

>  <s_lp_Variant>  (105) 
99:0-1

>  <s_i_glide_gridfile>  (105) 
pfpi4k_grid

>  <i_i_glide_lignum>  (105) 
62

>  <i_i_glide_rotatable_bonds>  (105) 
4

>  <r_i_docking_score>  (105) 
-2.30555

>  <r_i_glide_ligand_efficiency>  (105) 
-0.0523989

>  <r_i_glide_ligand_efficiency_sa>  (105) 
-0.184986

>  <r_i_glide_ligand_efficiency_ln>  (105) 
-0.481911

>  <r_i_glide_gscore>  (105) 
-2.30555

>  <r_i_glide_lipo>  (105) 
-0.18557

>  <r_i_glide_hbond>  (105) 
-0.181444

>  <r_i_glide_metal>  (105) 
-0

>  <r_i_glide_rewards>  (105) 
-0.008032

>  <r_i_glide_evdw>  (105) 
-34.1482

>  <r_i_glide_ecoul>  (105) 
-1.5229

>  <r_i_glide_erotb>  (105) 
0.0544161

>  <r_i_glide_esite>  (105) 
-0.0490803

>  <r_i_glide_emodel>  (105) 
-40.3322

>  <r_i_glide_energy>  (105) 
-35.6711

>  <r_i_glide_einternal>  (105) 
0.319565

>  <r_i_glide_intrahb_reward>  (105) 
-0

>  <i_i_glide_confnum>  (105) 
1

>  <i_i_glide_posenum>  (105) 
4

>  <r_i_glide_eff_state_penalty>  (105) 
0

>  <ligand_id>  (105) 
99

>  <original_smiles>  (105) 
C=CC1(C)C(C)CCC23C(CC(=C)C2(C)O)CC2CC=C4C2C2(O)CC(=O)CCC2C2(C)C(=O)C=C(C(C)(O)[S+]([O-])C13)C42C

>  <smiles>  (105) 
[H]OC1(C([H])([H])[H])C2=C([H])C(=O)C3(C([H])([H])[H])C2(C([H])([H])[H])C2=C([H])C([H])([H])C([H])(C([H])([H])C4([H])C([H])([H])C(=C([H])[H])C(O[H])(C([H])([H])[H])C45C([H])([H])C([H])([H])C([H])(C([H])([H])[H])C(C([H])=C([H])[H])(C([H])([H])[H])C5([H])S1=O)C2([H])C1(O[H])C([H])([H])C(=O)C([H])([H])C([H])([H])C13[H]

$$$$
99:0:1
     RDKit          3D

 94100  0  0  1  0  0  0  0  0999 V2000
   -0.6815   -9.4534    7.4931 C   0  0  0  0  0  0  0  0  0  0  0  0
    0.0367   -8.8016    6.5634 C   0  0  0  0  0  0  0  0  0  0  0  0
    1.0114   -7.6349    6.7723 C   0  0  1  0  0  0  0  0  0  0  0  0
    0.2712   -6.6637    7.7394 C   0  0  0  0  0  0  0  0  0  0  0  0
    2.3656   -8.1497    7.3614 C   0  0  1  0  0  0  0  0  0  0  0  0
    2.2728   -8.7752    8.7676 C   0  0  0  0  0  0  0  0  0  0  0  0
    3.1083   -9.0883    6.3974 C   0  0  0  0  0  0  0  0  0  0  0  0
    3.4604   -8.3914    5.0667 C   0  0  0  0  0  0  0  0  0  0  0  0
    2.2708   -7.7501    4.2745 C   0  0  1  0  0  0  0  0  0  0  0  0
    2.8139   -6.7980    3.0653 C   0  0  2  0  0  0  0  0  0  0  0  0
    2.3720   -7.4039    1.7329 C   0  0  0  0  0  0  0  0  0  0  0  0
    2.2591   -8.8382    2.0776 C   0  0  0  0  0  0  0  0  0  0  0  0
    2.8580   -9.8183    1.3778 C   0  0  0  0  0  0  0  0  0  0  0  0
    1.5637   -8.9288    3.4208 C   0  0  1  0  0  0  0  0  0  0  0  0
    1.5484  -10.4141    3.9077 C   0  0  0  0  0  0  0  0  0  0  0  0
    0.2039   -8.6201    3.1690 O   0  0  0  0  0  0  0  0  0  0  0  0
    4.3436   -6.4699    2.9396 C   0  0  0  0  0  0  0  0  0  0  0  0
    4.7776   -5.3816    3.9149 C   0  0  1  0  0  0  0  0  0  0  0  0
    6.2113   -5.2333    4.4293 C   0  0  0  0  0  0  0  0  0  0  0  0
    6.0163   -3.9989    5.2983 C   0  0  0  0  0  0  0  0  0  0  0  0
    4.8640   -3.3830    5.0027 C   0  0  0  0  0  0  0  0  0  0  0  0
    4.2234   -3.9571    3.7896 C   0  0  1  0  0  0  0  0  0  0  0  0
    4.4305   -2.9719    2.6023 C   0  0  2  0  0  0  0  0  0  0  0  0
    3.2178   -3.0623    1.8672 O   0  0  0  0  0  0  0  0  0  0  0  0
    5.5789   -3.3347    1.6207 C   0  0  0  0  0  0  0  0  0  0  0  0
    5.7047   -2.3170    0.4823 C   0  0  0  0  0  0  0  0  0  0  0  0
    5.9020   -2.6767   -0.6832 O   0  0  0  0  0  0  0  0  0  0  0  0
    5.6337   -0.8347    0.8397 C   0  0  0  0  0  0  0  0  0  0  0  0
    4.5805   -0.5103    1.9255 C   0  0  0  0  0  0  0  0  0  0  0  0
    4.6655   -1.4958    3.1222 C   0  0  1  0  0  0  0  0  0  0  0  0
    3.9585   -1.0821    4.4909 C   0  0  1  0  0  0  0  0  0  0  0  0
    4.4834    0.3151    4.9366 C   0  0  0  0  0  0  0  0  0  0  0  0
    2.4423   -0.9526    4.3661 C   0  0  0  0  0  0  0  0  0  0  0  0
    1.8964   -0.1299    3.6198 O   0  0  0  0  0  0  0  0  0  0  0  0
    1.7598   -1.8960    5.2276 C   0  0  0  0  0  0  0  0  0  0  0  0
    2.6476   -2.6563    5.8906 C   0  0  0  0  0  0  0  0  0  0  0  0
    2.1651   -3.9678    6.5924 C   0  0  1  0  0  0  0  0  0  0  0  0
    3.2391   -4.6654    7.4497 C   0  0  0  0  0  0  0  0  0  0  0  0
    1.2018   -3.5617    7.5428 O   0  0  0  0  0  0  0  0  0  0  0  0
    1.3506   -5.0901    5.3028 S   0  0  0  0  0  0  0  0  0  0  0  0
   -0.0946   -4.6024    5.1743 O   0  0  0  0  0  0  0  0  0  0  0  0
    1.3137   -6.9856    5.3580 C   0  0  2  0  0  0  0  0  0  0  0  0
    4.1162   -2.2115    5.6142 C   0  0  1  0  0  0  0  0  0  0  0  0
    4.8075   -1.7101    6.9066 C   0  0  0  0  0  0  0  0  0  0  0  0
   -0.6534   -9.2156    8.5516 H   0  0  0  0  0  0  0  0  0  0  0  0
   -1.3136  -10.2480    7.1514 H   0  0  0  0  0  0  0  0  0  0  0  0
   -0.1292   -9.1285    5.5575 H   0  0  0  0  0  0  0  0  0  0  0  0
    0.9004   -5.9087    8.1701 H   0  0  0  0  0  0  0  0  0  0  0  0
   -0.1543   -7.1521    8.6116 H   0  0  0  0  0  0  0  0  0  0  0  0
   -0.5552   -6.1743    7.2272 H   0  0  0  0  0  0  0  0  0  0  0  0
    3.0381   -7.3114    7.4629 H   0  0  0  0  0  0  0  0  0  0  0  0
    1.6662   -9.6820    8.7779 H   0  0  0  0  0  0  0  0  0  0  0  0
    1.8549   -8.0719    9.4876 H   0  0  0  0  0  0  0  0  0  0  0  0
    3.2617   -9.0579    9.1358 H   0  0  0  0  0  0  0  0  0  0  0  0
    4.0486   -9.4013    6.8587 H   0  0  0  0  0  0  0  0  0  0  0  0
    2.5548  -10.0144    6.2583 H   0  0  0  0  0  0  0  0  0  0  0  0
    4.2044   -7.6557    5.3420 H   0  0  0  0  0  0  0  0  0  0  0  0
    3.9983   -9.0915    4.4275 H   0  0  0  0  0  0  0  0  0  0  0  0
    2.2920   -5.8506    3.0441 H   0  0  0  0  0  0  0  0  0  0  0  0
    1.3847   -7.0322    1.4545 H   0  0  0  0  0  0  0  0  0  0  0  0
    3.0352   -7.2149    0.8877 H   0  0  0  0  0  0  0  0  0  0  0  0
    3.3993   -9.6053    0.4638 H   0  0  0  0  0  0  0  0  0  0  0  0
    2.8446  -10.8423    1.7192 H   0  0  0  0  0  0  0  0  0  0  0  0
    2.5527  -10.8144    4.0492 H   0  0  0  0  0  0  0  0  0  0  0  0
    1.0960  -11.0528    3.1429 H   0  0  0  0  0  0  0  0  0  0  0  0
    0.9877  -10.6280    4.8087 H   0  0  0  0  0  0  0  0  0  0  0  0
   -0.1931   -9.3599    2.7339 H   0  0  0  0  0  0  0  0  0  0  0  0
    4.9439   -7.3698    3.0756 H   0  0  0  0  0  0  0  0  0  0  0  0
    4.5804   -6.1220    1.9373 H   0  0  0  0  0  0  0  0  0  0  0  0
    4.2767   -5.7210    4.8128 H   0  0  0  0  0  0  0  0  0  0  0  0
    6.5459   -6.0911    5.0148 H   0  0  0  0  0  0  0  0  0  0  0  0
    6.9178   -5.0695    3.6139 H   0  0  0  0  0  0  0  0  0  0  0  0
    6.7012   -3.7290    6.0851 H   0  0  0  0  0  0  0  0  0  0  0  0
    3.1625   -4.0145    3.9217 H   0  0  0  0  0  0  0  0  0  0  0  0
    3.2068   -3.8986    1.4298 H   0  0  0  0  0  0  0  0  0  0  0  0
    6.5341   -3.3410    2.1422 H   0  0  0  0  0  0  0  0  0  0  0  0
    5.4540   -4.3272    1.1983 H   0  0  0  0  0  0  0  0  0  0  0  0
    6.6213   -0.5456    1.1939 H   0  0  0  0  0  0  0  0  0  0  0  0
    5.4360   -0.2501   -0.0595 H   0  0  0  0  0  0  0  0  0  0  0  0
    4.7574    0.5142    2.2494 H   0  0  0  0  0  0  0  0  0  0  0  0
    3.5834   -0.5135    1.4790 H   0  0  0  0  0  0  0  0  0  0  0  0
    5.7229   -1.4562    3.3970 H   0  0  0  0  0  0  0  0  0  0  0  0
    5.5646    0.3381    5.0601 H   0  0  0  0  0  0  0  0  0  0  0  0
    4.0297    0.6358    5.8724 H   0  0  0  0  0  0  0  0  0  0  0  0
    4.2328    1.1025    4.2293 H   0  0  0  0  0  0  0  0  0  0  0  0
    0.6927   -2.0427    5.1985 H   0  0  0  0  0  0  0  0  0  0  0  0
    3.7021   -3.9543    8.1284 H   0  0  0  0  0  0  0  0  0  0  0  0
    4.0111   -5.1618    6.8676 H   0  0  0  0  0  0  0  0  0  0  0  0
    2.8268   -5.3885    8.1407 H   0  0  0  0  0  0  0  0  0  0  0  0
    0.4023   -4.0190    7.3094 H   0  0  0  0  0  0  0  0  0  0  0  0
    0.3330   -7.0249    4.8932 H   0  0  0  0  0  0  0  0  0  0  0  0
    5.0660   -2.5136    7.5834 H   0  0  0  0  0  0  0  0  0  0  0  0
    4.1667   -1.0224    7.4562 H   0  0  0  0  0  0  0  0  0  0  0  0
    5.7497   -1.2038    6.7031 H   0  0  0  0  0  0  0  0  0  0  0  0
  1  2  2  0
  1 45  1  0
  1 46  1  0
  2  3  1  0
  2 47  1  0
  3 42  1  0
  3  4  1  1
  3  5  1  0
  4 48  1  0
  4 49  1  0
  4 50  1  0
  5  6  1  0
  5  7  1  0
  5 51  1  1
  6 52  1  0
  6 53  1  0
  6 54  1  0
  7  8  1  0
  7 55  1  0
  7 56  1  0
  9  8  1  1
  8 57  1  0
  8 58  1  0
  9 14  1  0
  9 42  1  0
  9 10  1  0
 10 11  1  0
 10 17  1  0
 10 59  1  1
 11 12  1  0
 11 60  1  0
 11 61  1  0
 12 13  2  0
 12 14  1  0
 13 62  1  0
 13 63  1  0
 14 15  1  0
 14 16  1  6
 15 64  1  0
 15 65  1  0
 15 66  1  0
 16 67  1  0
 17 18  1  0
 17 68  1  0
 17 69  1  0
 18 22  1  0
 18 19  1  0
 18 70  1  1
 19 20  1  0
 19 71  1  0
 19 72  1  0
 20 21  2  0
 20 73  1  0
 21 43  1  0
 21 22  1  0
 22 23  1  0
 22 74  1  1
 23 30  1  0
 23 24  1  6
 23 25  1  0
 24 75  1  0
 25 26  1  0
 25 76  1  0
 25 77  1  0
 26 27  2  0
 26 28  1  0
 28 29  1  0
 28 78  1  0
 28 79  1  0
 29 30  1  0
 29 80  1  0
 29 81  1  0
 30 31  1  0
 30 82  1  1
 31 43  1  0
 31 32  1  1
 31 33  1  0
 32 83  1  0
 32 84  1  0
 32 85  1  0
 33 34  2  0
 33 35  1  0
 35 36  2  0
 35 86  1  0
 36 37  1  0
 36 43  1  0
 37 38  1  0
 37 39  1  1
 40 37  1  1
 38 87  1  0
 38 88  1  0
 38 89  1  0
 39 90  1  0
 40 41  2  0
 40 42  1  0
 42 91  1  6
 43 44  1  1
 44 92  1  0
 44 93  1  0
 44 94  1  0
M  END
>  <i_m_ct_stereo_status>  (106) 
1

>  <s_m_source_file>  (106) 
/var/tmp/pbs.5075288.sched01/tmpndvtliwj/216foptgilz.sdf

>  <i_m_source_file_index>  (106) 
62

>  <i_lp_mmshare_version>  (106) 
48012

>  <i_f3d_flags>  (106) 
0

>  <s_epik_input>  (106) 
W0NIMl0xW0NIMl1bQ0BIXShbQ0gzXSlbQ0BdKFtDSDNdKShbQ0hdPVtDSDJdKVtDQEhdMltTK10oW08tXSlbQ0BdKFtDSDNdKShbT0hdKUMzPVtDSF1DKD1PKVtDQF0oW0NIM10pKFtDQEhdNFtDQEBdNShbT0hdKVtDSDJdQyg9TylbQ0gyXVtDSDJdNClbQ0BdMyhbQ0gzXSlDKD1bQ0hdW0NIMl02KVtDQEBIXTVbQ0BIXTZbQ0gyXVtDQEhdKFtDQEBdMTI3KVtDSDJdQyg9W0NIMl0pW0NAXTcoW0NIM10pW09IXQ==

>  <s_epik_cmdline>  (106) 
J2VwaWtfcHl0aG9uJywgJy1waHQnLCAnMi4wJywgJy1waCcsICc3LjAnLCAnLXRuJywgJzgnLCAnLW1hJywgJzIwMCcsICctaW1hZScsICc8aW5maWxlLm1hZT4nLCAnLW9tYWUnLCAnPG91dGZpbGUubWFlPic=

>  <r_lp_tautomer_probability>  (106) 
1

>  <r_epik_Ionization_Penalty>  (106) 
5.59956e-07

>  <r_epik_Ionization_Penalty_Charging>  (106) 
0

>  <r_epik_Ionization_Penalty_Neutral>  (106) 
5.59956e-07

>  <r_epik_State_Penalty>  (106) 
-0

>  <r_epik_Charging_Adjusted_Penalty>  (106) 
0

>  <i_epik_Tot_Q>  (106) 
0

>  <i_epik_Tot_abs_Q>  (106) 
2

>  <s_lp_Force_Field>  (106) 
OPLS3e

>  <r_lp_Energy>  (106) 
125.631

>  <b_lp_Chiralities_Consistent>  (106) 
1

>  <s_lp_Variant>  (106) 
99:0-1

>  <s_i_glide_gridfile>  (106) 
pfpi4k_grid

>  <i_i_glide_lignum>  (106) 
62

>  <i_i_glide_rotatable_bonds>  (106) 
4

>  <r_i_docking_score>  (106) 
-1.84494

>  <r_i_glide_ligand_efficiency>  (106) 
-0.0419304

>  <r_i_glide_ligand_efficiency_sa>  (106) 
-0.148029

>  <r_i_glide_ligand_efficiency_ln>  (106) 
-0.385632

>  <r_i_glide_gscore>  (106) 
-1.84494

>  <r_i_glide_lipo>  (106) 
-0.411964

>  <r_i_glide_hbond>  (106) 
0

>  <r_i_glide_metal>  (106) 
-0

>  <r_i_glide_rewards>  (106) 
-0.0701091

>  <r_i_glide_evdw>  (106) 
-29.7635

>  <r_i_glide_ecoul>  (106) 
0.473905

>  <r_i_glide_erotb>  (106) 
0.0544161

>  <r_i_glide_esite>  (106) 
-0.0001894

>  <r_i_glide_emodel>  (106) 
-32.6822

>  <r_i_glide_energy>  (106) 
-29.2896

>  <r_i_glide_einternal>  (106) 
1.52874

>  <r_i_glide_intrahb_reward>  (106) 
-0

>  <i_i_glide_confnum>  (106) 
1

>  <i_i_glide_posenum>  (106) 
33

>  <r_i_glide_eff_state_penalty>  (106) 
0

>  <ligand_id>  (106) 
99

>  <original_smiles>  (106) 
C=CC1(C)C(C)CCC23C(CC(=C)C2(C)O)CC2CC=C4C2C2(O)CC(=O)CCC2C2(C)C(=O)C=C(C(C)(O)[S+]([O-])C13)C42C

>  <smiles>  (106) 
[H]OC1(C([H])([H])[H])C2=C([H])C(=O)C3(C([H])([H])[H])C2(C([H])([H])[H])C2=C([H])C([H])([H])C([H])(C([H])([H])C4([H])C([H])([H])C(=C([H])[H])C(O[H])(C([H])([H])[H])C45C([H])([H])C([H])([H])C([H])(C([H])([H])[H])C(C([H])=C([H])[H])(C([H])([H])[H])C5([H])S1=O)C2([H])C1(O[H])C([H])([H])C(=O)C([H])([H])C([H])([H])C13[H]

$$$$
99:0:2
     RDKit          3D

 94100  0  0  1  0  0  0  0  0999 V2000
   -0.0055   -9.8844    7.7875 C   0  0  0  0  0  0  0  0  0  0  0  0
    0.0802   -8.8213    6.9507 C   0  0  0  0  0  0  0  0  0  0  0  0
    1.0321   -7.5930    7.0638 C   0  0  1  0  0  0  0  0  0  0  0  0
    0.3386   -6.6920    8.1210 C   0  0  0  0  0  0  0  0  0  0  0  0
    2.4943   -7.9982    7.5104 C   0  0  1  0  0  0  0  0  0  0  0  0
    2.6959   -8.5860    8.9466 C   0  0  0  0  0  0  0  0  0  0  0  0
    3.1623   -8.8879    6.4435 C   0  0  0  0  0  0  0  0  0  0  0  0
    3.3089   -8.1664    5.0829 C   0  0  0  0  0  0  0  0  0  0  0  0
    2.0008   -7.5796    4.4403 C   0  0  1  0  0  0  0  0  0  0  0  0
    2.3405   -6.5960    3.1923 C   0  0  2  0  0  0  0  0  0  0  0  0
    1.7756   -7.2172    1.9134 C   0  0  0  0  0  0  0  0  0  0  0  0
    1.7857   -8.6634    2.2471 C   0  0  0  0  0  0  0  0  0  0  0  0
    2.3368   -9.6128    1.4802 C   0  0  0  0  0  0  0  0  0  0  0  0
    1.2430   -8.7733    3.6627 C   0  0  1  0  0  0  0  0  0  0  0  0
    1.3339  -10.2394    4.1704 C   0  0  0  0  0  0  0  0  0  0  0  0
   -0.1564   -8.5460    3.5885 O   0  0  0  0  0  0  0  0  0  0  0  0
    3.8242   -6.1852    2.8899 C   0  0  0  0  0  0  0  0  0  0  0  0
    4.3227   -5.0755    3.8106 C   0  0  1  0  0  0  0  0  0  0  0  0
    5.7872   -4.8483    4.1424 C   0  0  0  0  0  0  0  0  0  0  0  0
    5.6429   -3.6312    5.0420 C   0  0  0  0  0  0  0  0  0  0  0  0
    4.4294   -3.0763    4.8959 C   0  0  0  0  0  0  0  0  0  0  0  0
    3.6763   -3.6821    3.7660 C   0  0  1  0  0  0  0  0  0  0  0  0
    3.6887   -2.6808    2.5766 C   0  0  2  0  0  0  0  0  0  0  0  0
    2.4125   -2.8232    1.9772 O   0  0  0  0  0  0  0  0  0  0  0  0
    4.7319   -2.9833    1.4714 C   0  0  0  0  0  0  0  0  0  0  0  0
    4.6674   -1.9586    0.3244 C   0  0  0  0  0  0  0  0  0  0  0  0
    4.7250   -2.3127   -0.8556 O   0  0  0  0  0  0  0  0  0  0  0  0
    4.5587   -0.4795    0.7027 C   0  0  0  0  0  0  0  0  0  0  0  0
    3.6333   -0.2121    1.9066 C   0  0  0  0  0  0  0  0  0  0  0  0
    3.9018   -1.1975    3.0711 C   0  0  1  0  0  0  0  0  0  0  0  0
    3.3504   -0.8377    4.5186 C   0  0  1  0  0  0  0  0  0  0  0  0
    3.8318    0.5903    4.9193 C   0  0  0  0  0  0  0  0  0  0  0  0
    1.8208   -0.7766    4.5715 C   0  0  0  0  0  0  0  0  0  0  0  0
    1.1475   -0.0053    3.9069 O   0  0  0  0  0  0  0  0  0  0  0  0
    1.2935   -1.7602    5.5046 C   0  0  0  0  0  0  0  0  0  0  0  0
    2.2689   -2.4745    6.0475 C   0  0  0  0  0  0  0  0  0  0  0  0
    1.9612   -3.8049    6.8182 C   0  0  1  0  0  0  0  0  0  0  0  0
    3.1532   -4.4571    7.5260 C   0  0  0  0  0  0  0  0  0  0  0  0
    1.0970   -3.4129    7.8687 O   0  0  0  0  0  0  0  0  0  0  0  0
    1.0650   -4.9642    5.6166 S   0  0  0  0  0  0  0  0  0  0  0  0
   -0.4063   -4.5701    5.6328 O   0  0  0  0  0  0  0  0  0  0  0  0
    1.1413   -6.8730    5.6318 C   0  0  2  0  0  0  0  0  0  0  0  0
    3.6811   -1.9598    5.6104 C   0  0  1  0  0  0  0  0  0  0  0  0
    4.4933   -1.4239    6.8179 C   0  0  0  0  0  0  0  0  0  0  0  0
    0.5231   -9.9740    8.7033 H   0  0  0  0  0  0  0  0  0  0  0  0
   -0.6662  -10.6998    7.4749 H   0  0  0  0  0  0  0  0  0  0  0  0
   -0.5565   -8.8152    6.0683 H   0  0  0  0  0  0  0  0  0  0  0  0
    0.9716   -5.9187    8.5349 H   0  0  0  0  0  0  0  0  0  0  0  0
    0.0238   -7.2850    8.9798 H   0  0  0  0  0  0  0  0  0  0  0  0
   -0.5605   -6.2144    7.7306 H   0  0  0  0  0  0  0  0  0  0  0  0
    3.0976   -7.0923    7.4764 H   0  0  0  0  0  0  0  0  0  0  0  0
    2.3292   -9.5863    9.0608 H   0  0  0  0  0  0  0  0  0  0  0  0
    2.2485   -7.9094    9.6898 H   0  0  0  0  0  0  0  0  0  0  0  0
    3.7709   -8.6734    9.1549 H   0  0  0  0  0  0  0  0  0  0  0  0
    4.1657   -9.1400    6.7855 H   0  0  0  0  0  0  0  0  0  0  0  0
    2.6475   -9.8403    6.3665 H   0  0  0  0  0  0  0  0  0  0  0  0
    4.0418   -7.3937    5.2760 H   0  0  0  0  0  0  0  0  0  0  0  0
    3.8045   -8.8287    4.3727 H   0  0  0  0  0  0  0  0  0  0  0  0
    1.7714   -5.6750    3.2443 H   0  0  0  0  0  0  0  0  0  0  0  0
    0.7395   -6.9128    1.7713 H   0  0  0  0  0  0  0  0  0  0  0  0
    2.3166   -6.9840    0.9910 H   0  0  0  0  0  0  0  0  0  0  0  0
    2.7728   -9.3799    0.5198 H   0  0  0  0  0  0  0  0  0  0  0  0
    2.4381  -10.6320    1.8152 H   0  0  0  0  0  0  0  0  0  0  0  0
    2.3634  -10.6019    4.2476 H   0  0  0  0  0  0  0  0  0  0  0  0
    0.8153  -10.9162    3.4836 H   0  0  0  0  0  0  0  0  0  0  0  0
    0.8503  -10.3933    5.1317 H   0  0  0  0  0  0  0  0  0  0  0  0
   -0.5923   -9.2870    3.9890 H   0  0  0  0  0  0  0  0  0  0  0  0
    4.4889   -7.0482    2.9453 H   0  0  0  0  0  0  0  0  0  0  0  0
    3.9268   -5.8137    1.8718 H   0  0  0  0  0  0  0  0  0  0  0  0
    3.9653   -5.4416    4.7649 H   0  0  0  0  0  0  0  0  0  0  0  0
    6.2544   -5.6874    4.6665 H   0  0  0  0  0  0  0  0  0  0  0  0
    6.3766   -4.6426    3.2488 H   0  0  0  0  0  0  0  0  0  0  0  0
    6.4051   -3.3300    5.7431 H   0  0  0  0  0  0  0  0  0  0  0  0
    2.6450   -3.8065    4.0180 H   0  0  0  0  0  0  0  0  0  0  0  0
    2.3474   -2.2116    1.2568 H   0  0  0  0  0  0  0  0  0  0  0  0
    5.7436   -2.9352    1.8880 H   0  0  0  0  0  0  0  0  0  0  0  0
    4.6030   -3.9847    1.0533 H   0  0  0  0  0  0  0  0  0  0  0  0
    5.5642   -0.1381    0.9342 H   0  0  0  0  0  0  0  0  0  0  0  0
    4.2331    0.0931   -0.1632 H   0  0  0  0  0  0  0  0  0  0  0  0
    3.8018    0.8191    2.2097 H   0  0  0  0  0  0  0  0  0  0  0  0
    2.5921   -0.2646    1.5947 H   0  0  0  0  0  0  0  0  0  0  0  0
    4.9737   -1.1068    3.2251 H   0  0  0  0  0  0  0  0  0  0  0  0
    4.9211    0.6662    4.9188 H   0  0  0  0  0  0  0  0  0  0  0  0
    3.4683    0.8811    5.9071 H   0  0  0  0  0  0  0  0  0  0  0  0
    3.4602    1.3685    4.2488 H   0  0  0  0  0  0  0  0  0  0  0  0
    0.2217   -1.9446    5.6144 H   0  0  0  0  0  0  0  0  0  0  0  0
    3.6695   -3.7405    8.1437 H   0  0  0  0  0  0  0  0  0  0  0  0
    3.8776   -4.9050    6.8616 H   0  0  0  0  0  0  0  0  0  0  0  0
    2.8664   -5.2041    8.2463 H   0  0  0  0  0  0  0  0  0  0  0  0
    1.4844   -3.6637    8.6902 H   0  0  0  0  0  0  0  0  0  0  0  0
    0.1166   -6.9425    5.2747 H   0  0  0  0  0  0  0  0  0  0  0  0
    4.8746   -2.2166    7.4515 H   0  0  0  0  0  0  0  0  0  0  0  0
    3.8860   -0.7754    7.4523 H   0  0  0  0  0  0  0  0  0  0  0  0
    5.3817   -0.8666    6.5092 H   0  0  0  0  0  0  0  0  0  0  0  0
  1  2  2  0
  1 45  1  0
  1 46  1  0
  2  3  1  0
  2 47  1  0
  3 42  1  0
  3  4  1  1
  3  5  1  0
  4 48  1  0
  4 49  1  0
  4 50  1  0
  5  6  1  0
  5  7  1  0
  5 51  1  1
  6 52  1  0
  6 53  1  0
  6 54  1  0
  7  8  1  0
  7 55  1  0
  7 56  1  0
  9  8  1  1
  8 57  1  0
  8 58  1  0
  9 14  1  0
  9 42  1  0
  9 10  1  0
 10 11  1  0
 10 17  1  0
 10 59  1  1
 11 12  1  0
 11 60  1  0
 11 61  1  0
 12 13  2  0
 12 14  1  0
 13 62  1  0
 13 63  1  0
 14 15  1  0
 14 16  1  6
 15 64  1  0
 15 65  1  0
 15 66  1  0
 16 67  1  0
 17 18  1  0
 17 68  1  0
 17 69  1  0
 18 22  1  0
 18 19  1  0
 18 70  1  1
 19 20  1  0
 19 71  1  0
 19 72  1  0
 20 21  2  0
 20 73  1  0
 21 43  1  0
 21 22  1  0
 22 23  1  0
 22 74  1  1
 23 30  1  0
 23 24  1  6
 23 25  1  0
 24 75  1  0
 25 26  1  0
 25 76  1  0
 25 77  1  0
 26 27  2  0
 26 28  1  0
 28 29  1  0
 28 78  1  0
 28 79  1  0
 29 30  1  0
 29 80  1  0
 29 81  1  0
 30 31  1  0
 30 82  1  1
 31 43  1  0
 31 32  1  1
 31 33  1  0
 32 83  1  0
 32 84  1  0
 32 85  1  0
 33 34  2  0
 33 35  1  0
 35 36  2  0
 35 86  1  0
 36 37  1  0
 36 43  1  0
 37 38  1  0
 37 39  1  1
 40 37  1  1
 38 87  1  0
 38 88  1  0
 38 89  1  0
 39 90  1  0
 40 41  2  0
 40 42  1  0
 42 91  1  6
 43 44  1  1
 44 92  1  0
 44 93  1  0
 44 94  1  0
M  END
>  <i_m_ct_stereo_status>  (107) 
1

>  <s_m_source_file>  (107) 
/var/tmp/pbs.5075288.sched01/tmpndvtliwj/216foptgilz.sdf

>  <i_m_source_file_index>  (107) 
62

>  <i_lp_mmshare_version>  (107) 
48012

>  <i_f3d_flags>  (107) 
0

>  <s_epik_input>  (107) 
W0NIMl0xW0NIMl1bQ0BIXShbQ0gzXSlbQ0BdKFtDSDNdKShbQ0hdPVtDSDJdKVtDQEhdMltTK10oW08tXSlbQ0BdKFtDSDNdKShbT0hdKUMzPVtDSF1DKD1PKVtDQF0oW0NIM10pKFtDQEhdNFtDQEBdNShbT0hdKVtDSDJdQyg9TylbQ0gyXVtDSDJdNClbQ0BdMyhbQ0gzXSlDKD1bQ0hdW0NIMl02KVtDQEBIXTVbQ0BIXTZbQ0gyXVtDQEhdKFtDQEBdMTI3KVtDSDJdQyg9W0NIMl0pW0NAXTcoW0NIM10pW09IXQ==

>  <s_epik_cmdline>  (107) 
J2VwaWtfcHl0aG9uJywgJy1waHQnLCAnMi4wJywgJy1waCcsICc3LjAnLCAnLXRuJywgJzgnLCAnLW1hJywgJzIwMCcsICctaW1hZScsICc8aW5maWxlLm1hZT4nLCAnLW9tYWUnLCAnPG91dGZpbGUubWFlPic=

>  <r_lp_tautomer_probability>  (107) 
1

>  <r_epik_Ionization_Penalty>  (107) 
5.59956e-07

>  <r_epik_Ionization_Penalty_Charging>  (107) 
0

>  <r_epik_Ionization_Penalty_Neutral>  (107) 
5.59956e-07

>  <r_epik_State_Penalty>  (107) 
-0

>  <r_epik_Charging_Adjusted_Penalty>  (107) 
0

>  <i_epik_Tot_Q>  (107) 
0

>  <i_epik_Tot_abs_Q>  (107) 
2

>  <s_lp_Force_Field>  (107) 
OPLS3e

>  <r_lp_Energy>  (107) 
125.631

>  <b_lp_Chiralities_Consistent>  (107) 
1

>  <s_lp_Variant>  (107) 
99:0-1

>  <s_i_glide_gridfile>  (107) 
pfpi4k_grid

>  <i_i_glide_lignum>  (107) 
62

>  <i_i_glide_rotatable_bonds>  (107) 
4

>  <r_i_docking_score>  (107) 
-1.7687

>  <r_i_glide_ligand_efficiency>  (107) 
-0.0401976

>  <r_i_glide_ligand_efficiency_sa>  (107) 
-0.141912

>  <r_i_glide_ligand_efficiency_ln>  (107) 
-0.369696

>  <r_i_glide_gscore>  (107) 
-1.7687

>  <r_i_glide_lipo>  (107) 
-0.234901

>  <r_i_glide_hbond>  (107) 
0

>  <r_i_glide_metal>  (107) 
-0

>  <r_i_glide_rewards>  (107) 
0

>  <r_i_glide_evdw>  (107) 
-30.3703

>  <r_i_glide_ecoul>  (107) 
-0.450646

>  <r_i_glide_erotb>  (107) 
0.0544161

>  <r_i_glide_esite>  (107) 
-0.0020965

>  <r_i_glide_emodel>  (107) 
-32.7606

>  <r_i_glide_energy>  (107) 
-30.821

>  <r_i_glide_einternal>  (107) 
3.65475

>  <r_i_glide_intrahb_reward>  (107) 
-0

>  <i_i_glide_confnum>  (107) 
2

>  <i_i_glide_posenum>  (107) 
1

>  <r_i_glide_eff_state_penalty>  (107) 
0

>  <ligand_id>  (107) 
99

>  <original_smiles>  (107) 
C=CC1(C)C(C)CCC23C(CC(=C)C2(C)O)CC2CC=C4C2C2(O)CC(=O)CCC2C2(C)C(=O)C=C(C(C)(O)[S+]([O-])C13)C42C

>  <smiles>  (107) 
[H]OC1(C([H])([H])[H])C2=C([H])C(=O)C3(C([H])([H])[H])C2(C([H])([H])[H])C2=C([H])C([H])([H])C([H])(C([H])([H])C4([H])C([H])([H])C(=C([H])[H])C(O[H])(C([H])([H])[H])C45C([H])([H])C([H])([H])C([H])(C([H])([H])[H])C(C([H])=C([H])[H])(C([H])([H])[H])C5([H])S1=O)C2([H])C1(O[H])C([H])([H])C(=O)C([H])([H])C([H])([H])C13[H]

$$$$
101:0:0
     RDKit          3D

121129  0  0  1  0  0  0  0  0999 V2000
   -2.1422   -4.6480    7.2921 C   0  0  0  0  0  0  0  0  0  0  0  0
   -0.7378   -5.0844    7.6536 C   0  0  0  0  0  0  0  0  0  0  0  0
   -0.4932   -5.6299    8.7296 O   0  0  0  0  0  0  0  0  0  0  0  0
    0.1533   -4.7981    6.6733 O   0  0  0  0  0  0  0  0  0  0  0  0
    1.5395   -5.0916    6.8127 C   0  0  2  0  0  0  0  0  0  0  0  0
    2.1696   -4.3984    8.0346 C   0  0  0  0  0  0  0  0  0  0  0  0
    3.5754   -3.9685    7.5930 C   0  0  1  0  0  0  0  0  0  0  0  0
    4.5007   -5.1242    8.1075 C   0  0  0  0  0  0  0  0  0  0  0  0
    3.5900   -3.9240    6.0465 C   0  0  2  0  0  0  0  0  0  0  0  0
    3.8232   -2.5475    5.6130 O   0  0  0  0  0  0  0  0  0  0  0  0
    3.5657   -1.5370    6.6174 C   0  0  1  0  0  0  0  0  0  0  0  0
    4.5851   -0.3018    6.7611 C   0  0  1  0  0  0  0  0  0  0  0  0
    6.0433   -0.6391    6.2724 C   0  0  0  0  0  0  0  0  0  0  0  0
    4.2598    1.0930    6.1259 C   0  0  1  0  0  0  0  0  0  0  0  0
    5.3601    2.1817    6.3011 C   0  0  0  0  0  0  0  0  0  0  0  0
    3.8222    0.9422    4.6732 C   0  0  0  0  0  0  0  0  0  0  0  0
    2.3061    0.8423    4.4117 C   0  0  1  0  0  0  0  0  0  0  0  0
    1.5845   -0.5630    4.8900 C   0  0  2  0  0  0  0  0  0  0  0  0
    2.0973   -1.5085    4.0053 O   0  0  0  0  0  0  0  0  0  0  0  0
    0.0728   -0.6957    4.7469 O   0  0  0  0  0  0  0  0  0  0  0  0
   -1.0927    0.2426    5.0700 C   0  0  0  0  0  0  0  0  0  0  0  0
   -0.2963    1.4126    5.6255 C   0  0  2  0  0  0  0  0  0  0  0  0
    0.0662    0.4871    6.9558 C   0  0  0  0  0  0  0  0  0  0  0  0
    1.4518    0.0275    7.3563 C   0  0  0  0  0  0  0  0  0  0  0  0
    2.0167   -1.0125    6.3698 C   0  0  2  0  0  0  0  0  0  0  0  0
    1.1805   -2.0838    6.6770 O   0  0  0  0  0  0  0  0  0  0  0  0
   -0.0442    2.9467    6.1723 C   0  0  1  0  0  0  0  0  0  0  0  0
   -0.3442    3.2981    7.6504 C   0  0  0  0  0  0  0  0  0  0  0  0
   -1.8060    3.3615    8.0855 C   0  0  0  0  0  0  0  0  0  0  0  0
    0.5645    3.5173    8.4509 O   0  0  0  0  0  0  0  0  0  0  0  0
    1.2947    2.5023    5.9965 O   0  0  0  0  0  0  0  0  0  0  0  0
    1.4658    2.1632    4.6003 C   0  0  1  0  0  0  0  0  0  0  0  0
    1.8882    3.4744    3.9290 C   0  0  0  0  0  0  0  0  0  0  0  0
    2.5911    3.5103    2.9278 O   0  0  0  0  0  0  0  0  0  0  0  0
    1.3314    4.7444    4.6401 C   0  0  0  0  0  0  0  0  0  0  0  0
    2.4046    5.2915    5.5973 C   0  0  0  0  0  0  0  0  0  0  0  0
    1.0099    5.8315    3.5836 C   0  0  0  0  0  0  0  0  0  0  0  0
    0.0389    4.3750    5.4641 C   0  0  0  0  0  0  0  0  0  0  0  0
   -0.8814    5.1739    5.5486 O   0  0  0  0  0  0  0  0  0  0  0  0
    0.0837    1.7619    4.0790 C   0  0  0  0  0  0  0  0  0  0  0  0
    0.1241    0.9282    2.6835 C   0  0  0  0  0  0  0  0  0  0  0  0
   -1.0692    2.7238    3.5035 C   0  0  0  0  0  0  0  0  0  0  0  0
    4.5218   -0.0211    8.6284 S   0  0  0  0  0  0  0  0  0  0  0  0
    5.9368    0.1825    9.1702 O   0  0  0  0  0  0  0  0  0  0  0  0
    3.9209   -1.7130    9.1585 C   0  0  1  0  0  0  0  0  0  0  0  0
    2.6658   -1.7521    9.7885 O   0  0  0  0  0  0  0  0  0  0  0  0
    3.9959   -2.4912    7.8369 C   0  0  1  0  0  0  0  0  0  0  0  0
    5.4073   -2.7009    7.8667 O   0  0  0  0  0  0  0  0  0  0  0  0
    2.2889   -4.5865    5.5501 C   0  0  1  0  0  0  0  0  0  0  0  0
    2.5911   -5.6465    4.6390 O   0  0  0  0  0  0  0  0  0  0  0  0
    1.5339   -6.0745    3.7905 C   0  0  2  0  0  0  0  0  0  0  0  0
    0.5673   -7.0546    4.5043 C   0  0  0  0  0  0  0  0  0  0  0  0
    1.2612   -8.3818    4.8641 C   0  0  1  0  0  0  0  0  0  0  0  0
    0.3028   -9.3082    5.6239 C   0  0  0  0  0  0  0  0  0  0  0  0
    1.8640   -9.0480    3.6040 C   0  0  1  0  0  0  0  0  0  0  0  0
    0.7681   -9.5595    2.6423 C   0  0  0  0  0  0  0  0  0  0  0  0
    2.8440   -8.0670    2.9030 C   0  0  1  0  0  0  0  0  0  0  0  0
    3.3932   -8.6482    1.7299 O   0  0  0  0  0  0  0  0  0  0  0  0
    2.1638   -6.7300    2.5480 C   0  0  0  0  0  0  0  0  0  0  0  0
   -2.1748   -3.5676    7.1380 H   0  0  0  0  0  0  0  0  0  0  0  0
   -2.8501   -4.9162    8.0766 H   0  0  0  0  0  0  0  0  0  0  0  0
   -2.4441   -5.1473    6.3794 H   0  0  0  0  0  0  0  0  0  0  0  0
    1.6878   -6.1681    6.9170 H   0  0  0  0  0  0  0  0  0  0  0  0
    1.5793   -3.5764    8.4131 H   0  0  0  0  0  0  0  0  0  0  0  0
    2.1934   -5.0986    8.8705 H   0  0  0  0  0  0  0  0  0  0  0  0
    5.4894   -5.1383    7.6435 H   0  0  0  0  0  0  0  0  0  0  0  0
    4.0639   -6.0937    7.8683 H   0  0  0  0  0  0  0  0  0  0  0  0
    4.6213   -5.0841    9.1914 H   0  0  0  0  0  0  0  0  0  0  0  0
    4.4379   -4.4954    5.6618 H   0  0  0  0  0  0  0  0  0  0  0  0
    6.3809   -0.0414    5.4297 H   0  0  0  0  0  0  0  0  0  0  0  0
    6.1333   -1.6450    5.8709 H   0  0  0  0  0  0  0  0  0  0  0  0
    6.7918   -0.5312    7.0537 H   0  0  0  0  0  0  0  0  0  0  0  0
    3.4784    1.6223    6.6378 H   0  0  0  0  0  0  0  0  0  0  0  0
    6.2429    2.0299    5.6829 H   0  0  0  0  0  0  0  0  0  0  0  0
    5.7018    2.2574    7.3356 H   0  0  0  0  0  0  0  0  0  0  0  0
    4.9672    3.1620    6.0311 H   0  0  0  0  0  0  0  0  0  0  0  0
    4.2011    1.8008    4.1195 H   0  0  0  0  0  0  0  0  0  0  0  0
    4.3275    0.0883    4.2173 H   0  0  0  0  0  0  0  0  0  0  0  0
    2.4202    0.7799    3.3317 H   0  0  0  0  0  0  0  0  0  0  0  0
    1.9483   -1.1893    3.1226 H   0  0  0  0  0  0  0  0  0  0  0  0
   -1.7578    0.4134    4.2263 H   0  0  0  0  0  0  0  0  0  0  0  0
   -1.8498   -0.1933    5.7248 H   0  0  0  0  0  0  0  0  0  0  0  0
   -0.3421    0.9147    7.8550 H   0  0  0  0  0  0  0  0  0  0  0  0
   -0.4974   -0.4343    7.0987 H   0  0  0  0  0  0  0  0  0  0  0  0
    2.0416    0.8810    7.6225 H   0  0  0  0  0  0  0  0  0  0  0  0
    1.3227   -0.4383    8.3268 H   0  0  0  0  0  0  0  0  0  0  0  0
    1.3442   -2.7452    6.0125 H   0  0  0  0  0  0  0  0  0  0  0  0
   -2.3033    4.2240    7.6412 H   0  0  0  0  0  0  0  0  0  0  0  0
   -1.8735    3.4463    9.1722 H   0  0  0  0  0  0  0  0  0  0  0  0
   -2.3327    2.4588    7.7781 H   0  0  0  0  0  0  0  0  0  0  0  0
    2.6688    4.5638    6.3642 H   0  0  0  0  0  0  0  0  0  0  0  0
    2.0513    6.1894    6.1090 H   0  0  0  0  0  0  0  0  0  0  0  0
    3.3209    5.5523    5.0615 H   0  0  0  0  0  0  0  0  0  0  0  0
    0.2394    5.5058    2.8871 H   0  0  0  0  0  0  0  0  0  0  0  0
    1.8813    6.0893    2.9775 H   0  0  0  0  0  0  0  0  0  0  0  0
    0.6496    6.7607    4.0305 H   0  0  0  0  0  0  0  0  0  0  0  0
    0.5198    1.5801    1.9050 H   0  0  0  0  0  0  0  0  0  0  0  0
   -0.8402    0.5848    2.3112 H   0  0  0  0  0  0  0  0  0  0  0  0
    0.6918    0.0143    2.6017 H   0  0  0  0  0  0  0  0  0  0  0  0
   -0.6786    3.5220    2.8795 H   0  0  0  0  0  0  0  0  0  0  0  0
   -1.7512    3.1272    4.2505 H   0  0  0  0  0  0  0  0  0  0  0  0
   -1.8178    2.2454    2.8712 H   0  0  0  0  0  0  0  0  0  0  0  0
    4.6153   -2.0904    9.9153 H   0  0  0  0  0  0  0  0  0  0  0  0
    2.7449   -2.2789   10.5816 H   0  0  0  0  0  0  0  0  0  0  0  0
    5.6103   -3.2742    8.5999 H   0  0  0  0  0  0  0  0  0  0  0  0
    1.7009   -3.8486    5.0114 H   0  0  0  0  0  0  0  0  0  0  0  0
    0.9675   -5.2167    3.4344 H   0  0  0  0  0  0  0  0  0  0  0  0
    0.1089   -6.6065    5.4142 H   0  0  0  0  0  0  0  0  0  0  0  0
   -0.2767   -7.2474    3.8434 H   0  0  0  0  0  0  0  0  0  0  0  0
    2.0849   -8.1567    5.5328 H   0  0  0  0  0  0  0  0  0  0  0  0
   -0.6097   -9.4565    5.0522 H   0  0  0  0  0  0  0  0  0  0  0  0
   -0.0073   -8.8891    6.5854 H   0  0  0  0  0  0  0  0  0  0  0  0
    0.7377  -10.2895    5.8131 H   0  0  0  0  0  0  0  0  0  0  0  0
    2.4483   -9.9071    3.9288 H   0  0  0  0  0  0  0  0  0  0  0  0
    0.1126   -8.7589    2.2998 H   0  0  0  0  0  0  0  0  0  0  0  0
    0.1245  -10.3105    3.1052 H   0  0  0  0  0  0  0  0  0  0  0  0
    1.1804  -10.0206    1.7401 H   0  0  0  0  0  0  0  0  0  0  0  0
    3.6876   -7.8613    3.5708 H   0  0  0  0  0  0  0  0  0  0  0  0
    3.6747   -9.5395    1.9351 H   0  0  0  0  0  0  0  0  0  0  0  0
    1.3915   -6.9023    1.8069 H   0  0  0  0  0  0  0  0  0  0  0  0
    2.8738   -6.0509    2.0724 H   0  0  0  0  0  0  0  0  0  0  0  0
  1  2  1  0
  1 60  1  0
  1 61  1  0
  1 62  1  0
  2  3  2  0
  2  4  1  0
  4  5  1  0
  5 49  1  0
  5  6  1  0
  5 63  1  1
  6  7  1  0
  6 64  1  0
  6 65  1  0
  7 47  1  0
  7  8  1  1
  7  9  1  0
  8 66  1  0
  8 67  1  0
  8 68  1  0
  9 10  1  0
  9 49  1  0
  9 69  1  6
 11 10  1  6
 11 25  1  0
 11 47  1  0
 11 12  1  0
 12 13  1  6
 12 14  1  0
 43 12  1  6
 13 70  1  0
 13 71  1  0
 13 72  1  0
 14 15  1  0
 14 16  1  0
 14 73  1  1
 15 74  1  0
 15 75  1  0
 15 76  1  0
 16 17  1  0
 16 77  1  0
 16 78  1  0
 17 32  1  0
 17 18  1  0
 17 79  1  6
 18 25  1  0
 18 19  1  6
 18 20  1  0
 19 80  1  0
 20 21  1  0
 21 22  1  0
 21 81  1  0
 21 82  1  0
 22 40  1  0
 22 23  1  1
 22 27  1  0
 23 24  1  0
 23 83  1  0
 23 84  1  0
 24 25  1  0
 24 85  1  0
 24 86  1  0
 25 26  1  1
 26 87  1  0
 27 38  1  0
 27 28  1  1
 27 31  1  0
 28 29  1  0
 28 30  2  0
 29 88  1  0
 29 89  1  0
 29 90  1  0
 31 32  1  0
 32 33  1  6
 32 40  1  0
 33 34  2  0
 33 35  1  0
 35 36  1  0
 35 37  1  0
 35 38  1  0
 36 91  1  0
 36 92  1  0
 36 93  1  0
 37 94  1  0
 37 95  1  0
 37 96  1  0
 38 39  2  0
 40 41  1  0
 40 42  1  0
 41 97  1  0
 41 98  1  0
 41 99  1  0
 42100  1  0
 42101  1  0
 42102  1  0
 43 44  2  0
 43 45  1  0
 45 46  1  0
 45 47  1  0
 45103  1  1
 46104  1  0
 47 48  1  6
 48105  1  0
 49 50  1  0
 49106  1  6
 50 51  1  0
 51 59  1  0
 51 52  1  0
 51107  1  6
 52 53  1  0
 52108  1  0
 52109  1  0
 53 54  1  0
 53 55  1  0
 53110  1  1
 54111  1  0
 54112  1  0
 54113  1  0
 55 56  1  0
 55 57  1  0
 55114  1  1
 56115  1  0
 56116  1  0
 56117  1  0
 57 58  1  0
 57 59  1  0
 57118  1  1
 58119  1  0
 59120  1  0
 59121  1  0
M  END
>  <i_m_ct_stereo_status>  (108) 
1

>  <s_m_source_file>  (108) 
/var/tmp/pbs.5075288.sched01/tmpndvtliwj/216foptgilz.sdf

>  <i_m_source_file_index>  (108) 
65

>  <i_lp_mmshare_version>  (108) 
48012

>  <i_f3d_flags>  (108) 
0

>  <s_epik_input>  (108) 
W09IXVtDQEBIXShbQ0gyXTEpW0NASF0oW0NIM10pW0NASF0oW0NIM10pW0NIMl1bQ0BIXTFPW0NAQEhdKFtDQEBIXShbQ0gyXTIpT0MoPU8pW0NIM10pW0NAQEhdKE8zKVtDQEBdMihbQ0gzXSlbQ0BdNChbT0hdKVtDQEhdKFtPSF0pW1MrXShbTy1dKVtDQF0oW0NAQF0zNDUpKFtDSDNdKVtDQEBIXShbQ0gzXSlbQ0gyXVtDQEBIXTZbQ0BAXTc4T1tDQEBdKEMoPU8pW0NIM10pKEMoPU8pQyhDNz1PKShbQ0gzXSlbQ0gzXSlbQ0BdOShDOChbQ0gzXSlbQ0gzXSlbQ0gyXU9bQ0BdNihbT0hdKVtDQF01KFtPSF0pW0NIMl1bQ0gyXTk=

>  <s_epik_cmdline>  (108) 
J2VwaWtfcHl0aG9uJywgJy1waHQnLCAnMi4wJywgJy1waCcsICc3LjAnLCAnLXRuJywgJzgnLCAnLW1hJywgJzIwMCcsICctaW1hZScsICc8aW5maWxlLm1hZT4nLCAnLW9tYWUnLCAnPG91dGZpbGUubWFlPic=

>  <r_lp_tautomer_probability>  (108) 
1

>  <r_epik_Ionization_Penalty>  (108) 
2.63923e-06

>  <r_epik_Ionization_Penalty_Charging>  (108) 
0

>  <r_epik_Ionization_Penalty_Neutral>  (108) 
2.63923e-06

>  <r_epik_State_Penalty>  (108) 
-0

>  <r_epik_Charging_Adjusted_Penalty>  (108) 
0

>  <i_epik_Tot_Q>  (108) 
0

>  <i_epik_Tot_abs_Q>  (108) 
2

>  <s_epik_Chemistry_Notes>  (108) 
This compound has an ester and may undergo hydrolysis at high or low pH. This compound contains an acetal/aminal-like group ( X-CH(R)-Y where X, Y are N, S, or O) that may be acid/base labile, releasing an aldehyde.

>  <s_lp_Force_Field>  (108) 
OPLS3e

>  <r_lp_Energy>  (108) 
414.35

>  <b_lp_Chiralities_Consistent>  (108) 
1

>  <s_lp_Variant>  (108) 
101:0-1

>  <s_i_glide_gridfile>  (108) 
pfpi4k_grid

>  <i_i_glide_lignum>  (108) 
65

>  <i_i_glide_rotatable_bonds>  (108) 
10

>  <r_i_docking_score>  (108) 
-2.82777

>  <r_i_glide_ligand_efficiency>  (108) 
-0.0479283

>  <r_i_glide_ligand_efficiency_sa>  (108) 
-0.186585

>  <r_i_glide_ligand_efficiency_ln>  (108) 
-0.556918

>  <r_i_glide_gscore>  (108) 
-2.82777

>  <r_i_glide_lipo>  (108) 
-0.135645

>  <r_i_glide_hbond>  (108) 
-0.092678

>  <r_i_glide_metal>  (108) 
-0

>  <r_i_glide_rewards>  (108) 
-0.0792369

>  <r_i_glide_evdw>  (108) 
-40.5534

>  <r_i_glide_ecoul>  (108) 
-3.60152

>  <r_i_glide_erotb>  (108) 
0.0908172

>  <r_i_glide_esite>  (108) 
-0.0431304

>  <r_i_glide_emodel>  (108) 
-48.9934

>  <r_i_glide_energy>  (108) 
-44.1549

>  <r_i_glide_einternal>  (108) 
4.46871

>  <r_i_glide_intrahb_reward>  (108) 
-0

>  <i_i_glide_confnum>  (108) 
1

>  <i_i_glide_posenum>  (108) 
36

>  <r_i_glide_eff_state_penalty>  (108) 
0

>  <ligand_id>  (108) 
101

>  <original_smiles>  (108) 
CC(=O)OC1CC2(C)C(OC34C(C)(C(C)CC5C6(O)OCC7(CCC63O)C3(C(C)=O)OC5(C(=O)C(C)(C)C3=O)C7(C)C)[S+]([O-])C(O)C24O)C1OC1CC(C)C(C)C(O)C1

>  <smiles>  (108) 
[H]OC1([H])S(=O)C2(C([H])([H])[H])C([H])(C([H])([H])[H])C([H])([H])C3([H])C4(O[H])OC([H])([H])C5(C6(C(=O)C([H])([H])[H])OC3(C(=O)C(C([H])([H])[H])(C([H])([H])[H])C6=O)C5(C([H])([H])[H])C([H])([H])[H])C([H])([H])C([H])([H])C4(O[H])C23OC2([H])C([H])(OC4([H])C([H])([H])C([H])(O[H])C([H])(C([H])([H])[H])C([H])(C([H])([H])[H])C4([H])[H])C([H])(OC(=O)C([H])([H])[H])C([H])([H])C2(C([H])([H])[H])C13O[H]

$$$$
101:0:1
     RDKit          3D

121129  0  0  1  0  0  0  0  0999 V2000
   -2.1700   -4.6356    7.5619 C   0  0  0  0  0  0  0  0  0  0  0  0
   -0.7542   -4.9459    8.0225 C   0  0  0  0  0  0  0  0  0  0  0  0
   -0.5397   -5.4780    9.1101 O   0  0  0  0  0  0  0  0  0  0  0  0
    0.1695   -4.5590    7.1295 O   0  0  0  0  0  0  0  0  0  0  0  0
    1.5586   -4.8006    7.3488 C   0  0  2  0  0  0  0  0  0  0  0  0
    2.1292   -4.0203    8.5548 C   0  0  0  0  0  0  0  0  0  0  0  0
    3.5700   -3.6278    8.1602 C   0  0  1  0  0  0  0  0  0  0  0  0
    4.4559   -4.7657    8.7759 C   0  0  0  0  0  0  0  0  0  0  0  0
    3.6472   -3.6703    6.6195 C   0  0  2  0  0  0  0  0  0  0  0  0
    3.9334   -2.3329    6.1096 O   0  0  0  0  0  0  0  0  0  0  0  0
    3.6749   -1.2579    7.0412 C   0  0  1  0  0  0  0  0  0  0  0  0
    4.7247   -0.0436    7.1477 C   0  0  1  0  0  0  0  0  0  0  0  0
    6.1853   -0.4421    6.7264 C   0  0  0  0  0  0  0  0  0  0  0  0
    4.4522    1.3234    6.4199 C   0  0  1  0  0  0  0  0  0  0  0  0
    5.5743    2.3916    6.5499 C   0  0  0  0  0  0  0  0  0  0  0  0
    4.0544    1.0908    4.9668 C   0  0  0  0  0  0  0  0  0  0  0  0
    2.5412    1.0230    4.6615 C   0  0  1  0  0  0  0  0  0  0  0  0
    1.7750   -0.3382    5.2033 C   0  0  2  0  0  0  0  0  0  0  0  0
    2.2969   -1.3560    4.3836 O   0  0  0  0  0  0  0  0  0  0  0  0
    0.2641   -0.4456    5.0126 O   0  0  0  0  0  0  0  0  0  0  0  0
   -0.8838    0.5399    5.2427 C   0  0  0  0  0  0  0  0  0  0  0  0
   -0.0771    1.7183    5.7516 C   0  0  2  0  0  0  0  0  0  0  0  0
    0.2207    0.8676    7.1454 C   0  0  0  0  0  0  0  0  0  0  0  0
    1.5791    0.4045    7.6186 C   0  0  0  0  0  0  0  0  0  0  0  0
    2.1447   -0.7124    6.7208 C   0  0  2  0  0  0  0  0  0  0  0  0
    1.2759   -1.7479    7.0589 O   0  0  0  0  0  0  0  0  0  0  0  0
    0.1863    3.2799    6.2186 C   0  0  1  0  0  0  0  0  0  0  0  0
   -0.1394    3.7217    7.6622 C   0  0  0  0  0  0  0  0  0  0  0  0
   -1.6117    3.7725    8.0677 C   0  0  0  0  0  0  0  0  0  0  0  0
    0.7516    4.0216    8.4599 O   0  0  0  0  0  0  0  0  0  0  0  0
    1.5239    2.8031    6.1097 O   0  0  0  0  0  0  0  0  0  0  0  0
    1.7318    2.3716    4.7457 C   0  0  1  0  0  0  0  0  0  0  0  0
    2.1958    3.6358    4.0256 C   0  0  0  0  0  0  0  0  0  0  0  0
    2.9389    3.6033    3.0417 O   0  0  0  0  0  0  0  0  0  0  0  0
    1.6487    4.9591    4.6307 C   0  0  0  0  0  0  0  0  0  0  0  0
    2.7142    5.5302    5.5845 C   0  0  0  0  0  0  0  0  0  0  0  0
    1.4035    5.9792    3.4959 C   0  0  0  0  0  0  0  0  0  0  0  0
    0.3196    4.6584    5.4282 C   0  0  0  0  0  0  0  0  0  0  0  0
   -0.5809    5.4933    5.4508 O   0  0  0  0  0  0  0  0  0  0  0  0
    0.3624    1.9608    4.2035 C   0  0  0  0  0  0  0  0  0  0  0  0
    0.4246    1.0487    2.8623 C   0  0  0  0  0  0  0  0  0  0  0  0
   -0.7477    2.9163    3.5356 C   0  0  0  0  0  0  0  0  0  0  0  0
    4.6068    0.3499    8.9911 S   0  0  0  0  0  0  0  0  0  0  0  0
    6.0097    0.5564    9.5685 O   0  0  0  0  0  0  0  0  0  0  0  0
    3.9406   -1.2906    9.6010 C   0  0  1  0  0  0  0  0  0  0  0  0
    2.6665   -1.2615   10.1941 O   0  0  0  0  0  0  0  0  0  0  0  0
    4.0288   -2.1427    8.3311 C   0  0  1  0  0  0  0  0  0  0  0  0
    5.4319   -2.3907    8.4197 O   0  0  0  0  0  0  0  0  0  0  0  0
    2.3530   -4.3401    6.1079 C   0  0  1  0  0  0  0  0  0  0  0  0
    2.6903   -5.4742    5.3223 O   0  0  0  0  0  0  0  0  0  0  0  0
    2.3967   -5.3480    3.9357 C   0  0  2  0  0  0  0  0  0  0  0  0
    0.8966   -5.6259    3.6773 C   0  0  0  0  0  0  0  0  0  0  0  0
    0.5124   -7.0999    3.9335 C   0  0  1  0  0  0  0  0  0  0  0  0
   -0.9843   -7.3526    3.6532 C   0  0  0  0  0  0  0  0  0  0  0  0
    1.4334   -8.0625    3.1402 C   0  0  1  0  0  0  0  0  0  0  0  0
    1.1641   -8.0013    1.6253 C   0  0  0  0  0  0  0  0  0  0  0  0
    2.9230   -7.7898    3.4696 C   0  0  1  0  0  0  0  0  0  0  0  0
    3.7739   -8.6508    2.7343 O   0  0  0  0  0  0  0  0  0  0  0  0
    3.3044   -6.3268    3.1741 C   0  0  0  0  0  0  0  0  0  0  0  0
   -2.3211   -3.5601    7.5052 H   0  0  0  0  0  0  0  0  0  0  0  0
   -2.9038   -5.0473    8.2569 H   0  0  0  0  0  0  0  0  0  0  0  0
   -2.3540   -5.0624    6.5765 H   0  0  0  0  0  0  0  0  0  0  0  0
    1.7322   -5.8688    7.5048 H   0  0  0  0  0  0  0  0  0  0  0  0
    1.5193   -3.1743    8.8550 H   0  0  0  0  0  0  0  0  0  0  0  0
    2.1062   -4.6593    9.4397 H   0  0  0  0  0  0  0  0  0  0  0  0
    5.4578   -4.8262    8.3471 H   0  0  0  0  0  0  0  0  0  0  0  0
    4.0100   -5.7437    8.5823 H   0  0  0  0  0  0  0  0  0  0  0  0
    4.5477   -4.6602    9.8571 H   0  0  0  0  0  0  0  0  0  0  0  0
    4.4932   -4.2802    6.3002 H   0  0  0  0  0  0  0  0  0  0  0  0
    6.5667    0.0954    5.8637 H   0  0  0  0  0  0  0  0  0  0  0  0
    6.2655   -1.4718    6.3886 H   0  0  0  0  0  0  0  0  0  0  0  0
    6.9100   -0.3036    7.5239 H   0  0  0  0  0  0  0  0  0  0  0  0
    3.6722    1.9007    6.8745 H   0  0  0  0  0  0  0  0  0  0  0  0
    6.4584    2.1884    5.9494 H   0  0  0  0  0  0  0  0  0  0  0  0
    5.9030    2.5153    7.5824 H   0  0  0  0  0  0  0  0  0  0  0  0
    5.2101    3.3660    6.2240 H   0  0  0  0  0  0  0  0  0  0  0  0
    4.4701    1.9096    4.3755 H   0  0  0  0  0  0  0  0  0  0  0  0
    4.5502    0.2019    4.5798 H   0  0  0  0  0  0  0  0  0  0  0  0
    2.6925    0.8889    3.5942 H   0  0  0  0  0  0  0  0  0  0  0  0
    2.1502   -1.0958    3.4890 H   0  0  0  0  0  0  0  0  0  0  0  0
   -1.5173    0.6713    4.3691 H   0  0  0  0  0  0  0  0  0  0  0  0
   -1.6720    0.1633    5.8958 H   0  0  0  0  0  0  0  0  0  0  0  0
   -0.2017    1.3566    8.0072 H   0  0  0  0  0  0  0  0  0  0  0  0
   -0.3682   -0.0294    7.3264 H   0  0  0  0  0  0  0  0  0  0  0  0
    2.1835    1.2543    7.8538 H   0  0  0  0  0  0  0  0  0  0  0  0
    1.4072   -0.0013    8.6112 H   0  0  0  0  0  0  0  0  0  0  0  0
    1.4589   -2.4568    6.4596 H   0  0  0  0  0  0  0  0  0  0  0  0
   -2.1230    4.5809    7.5496 H   0  0  0  0  0  0  0  0  0  0  0  0
   -1.7003    3.9351    9.1424 H   0  0  0  0  0  0  0  0  0  0  0  0
   -2.1055    2.8347    7.8168 H   0  0  0  0  0  0  0  0  0  0  0  0
    2.9408    4.8425    6.3991 H   0  0  0  0  0  0  0  0  0  0  0  0
    2.3771    6.4664    6.0297 H   0  0  0  0  0  0  0  0  0  0  0  0
    3.6515    5.7313    5.0608 H   0  0  0  0  0  0  0  0  0  0  0  0
    0.6562    5.6329    2.7817 H   0  0  0  0  0  0  0  0  0  0  0  0
    2.3086    6.1690    2.9142 H   0  0  0  0  0  0  0  0  0  0  0  0
    1.0550    6.9453    3.8678 H   0  0  0  0  0  0  0  0  0  0  0  0
    0.8604    1.6427    2.0592 H   0  0  0  0  0  0  0  0  0  0  0  0
   -0.5344    0.7046    2.4763 H   0  0  0  0  0  0  0  0  0  0  0  0
    0.9703    0.1193    2.8514 H   0  0  0  0  0  0  0  0  0  0  0  0
   -0.3180    3.6704    2.8857 H   0  0  0  0  0  0  0  0  0  0  0  0
   -1.4480    3.3787    4.2334 H   0  0  0  0  0  0  0  0  0  0  0  0
   -1.4879    2.4198    2.9045 H   0  0  0  0  0  0  0  0  0  0  0  0
    4.6017   -1.6368   10.3994 H   0  0  0  0  0  0  0  0  0  0  0  0
    2.7160   -1.7029   11.0325 H   0  0  0  0  0  0  0  0  0  0  0  0
    5.6033   -2.9163    9.1874 H   0  0  0  0  0  0  0  0  0  0  0  0
    1.7565   -3.6365    5.5315 H   0  0  0  0  0  0  0  0  0  0  0  0
    2.6506   -4.3442    3.5896 H   0  0  0  0  0  0  0  0  0  0  0  0
    0.2689   -4.9631    4.2776 H   0  0  0  0  0  0  0  0  0  0  0  0
    0.6783   -5.3652    2.6435 H   0  0  0  0  0  0  0  0  0  0  0  0
    0.6773   -7.2969    4.9943 H   0  0  0  0  0  0  0  0  0  0  0  0
   -1.2595   -7.0710    2.6385 H   0  0  0  0  0  0  0  0  0  0  0  0
   -1.6319   -6.7872    4.3213 H   0  0  0  0  0  0  0  0  0  0  0  0
   -1.2357   -8.4063    3.7709 H   0  0  0  0  0  0  0  0  0  0  0  0
    1.2151   -9.0771    3.4793 H   0  0  0  0  0  0  0  0  0  0  0  0
    1.3214   -7.0104    1.2089 H   0  0  0  0  0  0  0  0  0  0  0  0
    0.1415   -8.2773    1.3799 H   0  0  0  0  0  0  0  0  0  0  0  0
    1.8057   -8.6850    1.0689 H   0  0  0  0  0  0  0  0  0  0  0  0
    3.1038   -7.9952    4.5276 H   0  0  0  0  0  0  0  0  0  0  0  0
    3.4753   -9.5462    2.8433 H   0  0  0  0  0  0  0  0  0  0  0  0
    3.2230   -6.1277    2.1066 H   0  0  0  0  0  0  0  0  0  0  0  0
    4.3505   -6.1437    3.4279 H   0  0  0  0  0  0  0  0  0  0  0  0
  1  2  1  0
  1 60  1  0
  1 61  1  0
  1 62  1  0
  2  3  2  0
  2  4  1  0
  4  5  1  0
  5 49  1  0
  5  6  1  0
  5 63  1  1
  6  7  1  0
  6 64  1  0
  6 65  1  0
  7 47  1  0
  7  8  1  1
  7  9  1  0
  8 66  1  0
  8 67  1  0
  8 68  1  0
  9 10  1  0
  9 49  1  0
  9 69  1  1
 11 10  1  6
 11 25  1  0
 11 47  1  0
 11 12  1  0
 12 13  1  1
 12 14  1  0
 43 12  1  6
 13 70  1  0
 13 71  1  0
 13 72  1  0
 14 15  1  0
 14 16  1  0
 14 73  1  1
 15 74  1  0
 15 75  1  0
 15 76  1  0
 16 17  1  0
 16 77  1  0
 16 78  1  0
 17 32  1  0
 17 18  1  0
 17 79  1  6
 18 25  1  0
 18 19  1  6
 18 20  1  0
 19 80  1  0
 20 21  1  0
 21 22  1  0
 21 81  1  0
 21 82  1  0
 22 40  1  0
 22 23  1  1
 22 27  1  0
 23 24  1  0
 23 83  1  0
 23 84  1  0
 24 25  1  0
 24 85  1  0
 24 86  1  0
 25 26  1  1
 26 87  1  0
 27 38  1  0
 27 28  1  1
 27 31  1  0
 28 29  1  0
 28 30  2  0
 29 88  1  0
 29 89  1  0
 29 90  1  0
 31 32  1  0
 32 33  1  6
 32 40  1  0
 33 34  2  0
 33 35  1  0
 35 36  1  0
 35 37  1  0
 35 38  1  0
 36 91  1  0
 36 92  1  0
 36 93  1  0
 37 94  1  0
 37 95  1  0
 37 96  1  0
 38 39  2  0
 40 41  1  0
 40 42  1  0
 41 97  1  0
 41 98  1  0
 41 99  1  0
 42100  1  0
 42101  1  0
 42102  1  0
 43 44  2  0
 43 45  1  0
 45 46  1  0
 45 47  1  0
 45103  1  1
 46104  1  0
 47 48  1  6
 48105  1  0
 49 50  1  0
 49106  1  6
 50 51  1  0
 51 59  1  0
 51 52  1  0
 51107  1  6
 52 53  1  0
 52108  1  0
 52109  1  0
 53 54  1  0
 53 55  1  0
 53110  1  1
 54111  1  0
 54112  1  0
 54113  1  0
 55 56  1  0
 55 57  1  0
 55114  1  1
 56115  1  0
 56116  1  0
 56117  1  0
 57 58  1  0
 57 59  1  0
 57118  1  1
 58119  1  0
 59120  1  0
 59121  1  0
M  END
>  <i_m_ct_stereo_status>  (109) 
1

>  <s_m_source_file>  (109) 
/var/tmp/pbs.5075288.sched01/tmpndvtliwj/216foptgilz.sdf

>  <i_m_source_file_index>  (109) 
65

>  <i_lp_mmshare_version>  (109) 
48012

>  <i_f3d_flags>  (109) 
0

>  <s_epik_input>  (109) 
W09IXVtDQEBIXShbQ0gyXTEpW0NASF0oW0NIM10pW0NASF0oW0NIM10pW0NIMl1bQ0BIXTFPW0NAQEhdKFtDQEBIXShbQ0gyXTIpT0MoPU8pW0NIM10pW0NAQEhdKE8zKVtDQEBdMihbQ0gzXSlbQ0BdNChbT0hdKVtDQEhdKFtPSF0pW1MrXShbTy1dKVtDQF0oW0NAQF0zNDUpKFtDSDNdKVtDQEBIXShbQ0gzXSlbQ0gyXVtDQEBIXTZbQ0BAXTc4T1tDQEBdKEMoPU8pW0NIM10pKEMoPU8pQyhDNz1PKShbQ0gzXSlbQ0gzXSlbQ0BdOShDOChbQ0gzXSlbQ0gzXSlbQ0gyXU9bQ0BdNihbT0hdKVtDQF01KFtPSF0pW0NIMl1bQ0gyXTk=

>  <s_epik_cmdline>  (109) 
J2VwaWtfcHl0aG9uJywgJy1waHQnLCAnMi4wJywgJy1waCcsICc3LjAnLCAnLXRuJywgJzgnLCAnLW1hJywgJzIwMCcsICctaW1hZScsICc8aW5maWxlLm1hZT4nLCAnLW9tYWUnLCAnPG91dGZpbGUubWFlPic=

>  <r_lp_tautomer_probability>  (109) 
1

>  <r_epik_Ionization_Penalty>  (109) 
2.63923e-06

>  <r_epik_Ionization_Penalty_Charging>  (109) 
0

>  <r_epik_Ionization_Penalty_Neutral>  (109) 
2.63923e-06

>  <r_epik_State_Penalty>  (109) 
-0

>  <r_epik_Charging_Adjusted_Penalty>  (109) 
0

>  <i_epik_Tot_Q>  (109) 
0

>  <i_epik_Tot_abs_Q>  (109) 
2

>  <s_epik_Chemistry_Notes>  (109) 
This compound has an ester and may undergo hydrolysis at high or low pH. This compound contains an acetal/aminal-like group ( X-CH(R)-Y where X, Y are N, S, or O) that may be acid/base labile, releasing an aldehyde.

>  <s_lp_Force_Field>  (109) 
OPLS3e

>  <r_lp_Energy>  (109) 
414.35

>  <b_lp_Chiralities_Consistent>  (109) 
1

>  <s_lp_Variant>  (109) 
101:0-1

>  <s_i_glide_gridfile>  (109) 
pfpi4k_grid

>  <i_i_glide_lignum>  (109) 
65

>  <i_i_glide_rotatable_bonds>  (109) 
10

>  <r_i_docking_score>  (109) 
-2.63881

>  <r_i_glide_ligand_efficiency>  (109) 
-0.0447256

>  <r_i_glide_ligand_efficiency_sa>  (109) 
-0.174117

>  <r_i_glide_ligand_efficiency_ln>  (109) 
-0.519703

>  <r_i_glide_gscore>  (109) 
-2.63881

>  <r_i_glide_lipo>  (109) 
-0.0677061

>  <r_i_glide_hbond>  (109) 
-0.130884

>  <r_i_glide_metal>  (109) 
-0

>  <r_i_glide_rewards>  (109) 
-0.0420037

>  <r_i_glide_evdw>  (109) 
-38.1545

>  <r_i_glide_ecoul>  (109) 
-3.64418

>  <r_i_glide_erotb>  (109) 
0.0908172

>  <r_i_glide_esite>  (109) 
-0.0346858

>  <r_i_glide_emodel>  (109) 
-47.6093

>  <r_i_glide_energy>  (109) 
-41.7987

>  <r_i_glide_einternal>  (109) 
2.39236

>  <r_i_glide_intrahb_reward>  (109) 
-0

>  <i_i_glide_confnum>  (109) 
1

>  <i_i_glide_posenum>  (109) 
32

>  <r_i_glide_eff_state_penalty>  (109) 
0

>  <ligand_id>  (109) 
101

>  <original_smiles>  (109) 
CC(=O)OC1CC2(C)C(OC34C(C)(C(C)CC5C6(O)OCC7(CCC63O)C3(C(C)=O)OC5(C(=O)C(C)(C)C3=O)C7(C)C)[S+]([O-])C(O)C24O)C1OC1CC(C)C(C)C(O)C1

>  <smiles>  (109) 
[H]OC1([H])S(=O)C2(C([H])([H])[H])C([H])(C([H])([H])[H])C([H])([H])C3([H])C4(O[H])OC([H])([H])C5(C6(C(=O)C([H])([H])[H])OC3(C(=O)C(C([H])([H])[H])(C([H])([H])[H])C6=O)C5(C([H])([H])[H])C([H])([H])[H])C([H])([H])C([H])([H])C4(O[H])C23OC2([H])C([H])(OC4([H])C([H])([H])C([H])(O[H])C([H])(C([H])([H])[H])C([H])(C([H])([H])[H])C4([H])[H])C([H])(OC(=O)C([H])([H])[H])C([H])([H])C2(C([H])([H])[H])C13O[H]

$$$$
101:0:2
     RDKit          3D

121129  0  0  1  0  0  0  0  0999 V2000
    6.2121   -6.9383    6.2917 C   0  0  0  0  0  0  0  0  0  0  0  0
    5.8238   -6.5619    4.8678 C   0  0  0  0  0  0  0  0  0  0  0  0
    6.5139   -6.8846    3.9020 O   0  0  0  0  0  0  0  0  0  0  0  0
    4.6758   -5.8732    4.8217 O   0  0  0  0  0  0  0  0  0  0  0  0
    4.0382   -5.6001    3.5711 C   0  0  2  0  0  0  0  0  0  0  0  0
    4.6557   -4.3368    2.9444 C   0  0  0  0  0  0  0  0  0  0  0  0
    3.4942   -3.5898    2.2565 C   0  0  1  0  0  0  0  0  0  0  0  0
    3.5786   -4.0825    0.7632 C   0  0  0  0  0  0  0  0  0  0  0  0
    2.1804   -4.1091    2.8904 C   0  0  2  0  0  0  0  0  0  0  0  0
    1.4887   -3.0048    3.5513 O   0  0  0  0  0  0  0  0  0  0  0  0
    2.3273   -1.8521    3.8261 C   0  0  1  0  0  0  0  0  0  0  0  0
    1.7402   -0.3768    3.5861 C   0  0  1  0  0  0  0  0  0  0  0  0
    0.6247   -0.3108    2.4884 C   0  0  0  0  0  0  0  0  0  0  0  0
    1.1907    0.4957    4.7689 C   0  0  1  0  0  0  0  0  0  0  0  0
    0.5916    1.8773    4.3668 C   0  0  0  0  0  0  0  0  0  0  0  0
    0.2270   -0.3156    5.6190 C   0  0  0  0  0  0  0  0  0  0  0  0
    0.8294   -1.0152    6.8506 C   0  0  1  0  0  0  0  0  0  0  0  0
    1.7956   -2.2984    6.5281 C   0  0  2  0  0  0  0  0  0  0  0  0
    0.9012   -3.2526    6.0530 O   0  0  0  0  0  0  0  0  0  0  0  0
    2.4945   -2.9876    7.6936 O   0  0  0  0  0  0  0  0  0  0  0  0
    3.2661   -2.4720    8.9135 C   0  0  0  0  0  0  0  0  0  0  0  0
    3.1435   -0.9944    8.6317 C   0  0  2  0  0  0  0  0  0  0  0  0
    4.1870   -1.1888    7.3658 C   0  0  0  0  0  0  0  0  0  0  0  0
    3.8527   -0.9679    5.9151 C   0  0  0  0  0  0  0  0  0  0  0  0
    2.8760   -2.0352    5.3729 C   0  0  2  0  0  0  0  0  0  0  0  0
    3.6990   -3.1767    5.3948 O   0  0  0  0  0  0  0  0  0  0  0  0
    3.2706    0.6190    8.9636 C   0  0  1  0  0  0  0  0  0  0  0  0
    4.6167    1.3658    8.7508 C   0  0  0  0  0  0  0  0  0  0  0  0
    4.7774    2.2370    7.5024 C   0  0  0  0  0  0  0  0  0  0  0  0
    5.5523    1.2324    9.5421 O   0  0  0  0  0  0  0  0  0  0  0  0
    2.4682    0.6573    7.7994 O   0  0  0  0  0  0  0  0  0  0  0  0
    1.2582   -0.0920    8.0678 C   0  0  1  0  0  0  0  0  0  0  0  0
    0.3125    0.9510    8.6454 C   0  0  0  0  0  0  0  0  0  0  0  0
   -0.8999    0.8984    8.4741 O   0  0  0  0  0  0  0  0  0  0  0  0
    1.0141    2.1006    9.4049 C   0  0  0  0  0  0  0  0  0  0  0  0
    1.1549    3.2975    8.4465 C   0  0  0  0  0  0  0  0  0  0  0  0
    0.1360    2.5429   10.6065 C   0  0  0  0  0  0  0  0  0  0  0  0
    2.4349    1.6167    9.8738 C   0  0  0  0  0  0  0  0  0  0  0  0
    2.8908    2.0418   10.9281 O   0  0  0  0  0  0  0  0  0  0  0  0
    1.5998   -1.1223    9.1401 C   0  0  0  0  0  0  0  0  0  0  0  0
    0.5297   -2.3338    9.2797 C   0  0  0  0  0  0  0  0  0  0  0  0
    1.5969   -0.8990   10.7274 C   0  0  0  0  0  0  0  0  0  0  0  0
    3.2799    0.5166    2.9986 S   0  0  0  0  0  0  0  0  0  0  0  0
    2.9042    1.2379    1.7113 O   0  0  0  0  0  0  0  0  0  0  0  0
    4.2893   -0.9470    2.4325 C   0  0  1  0  0  0  0  0  0  0  0  0
    5.4711   -1.1717    3.1388 O   0  0  0  0  0  0  0  0  0  0  0  0
    3.2689   -2.0766    2.5512 C   0  0  1  0  0  0  0  0  0  0  0  0
    2.5942   -1.7959    1.3274 O   0  0  0  0  0  0  0  0  0  0  0  0
    2.5278   -5.3156    3.7783 C   0  0  1  0  0  0  0  0  0  0  0  0
    1.6784   -6.3987    3.3983 O   0  0  0  0  0  0  0  0  0  0  0  0
    1.4012   -7.3560    4.4209 C   0  0  2  0  0  0  0  0  0  0  0  0
    2.4861   -8.4625    4.5521 C   0  0  0  0  0  0  0  0  0  0  0  0
    2.5569   -9.3888    3.3289 C   0  0  1  0  0  0  0  0  0  0  0  0
    3.6693  -10.4457    3.4948 C   0  0  0  0  0  0  0  0  0  0  0  0
    1.1685  -10.0056    3.0434 C   0  0  1  0  0  0  0  0  0  0  0  0
    0.7741  -11.0440    4.1191 C   0  0  0  0  0  0  0  0  0  0  0  0
    0.1148   -8.8689    2.8505 C   0  0  1  0  0  0  0  0  0  0  0  0
   -1.1744   -9.3561    2.5191 O   0  0  0  0  0  0  0  0  0  0  0  0
    0.0311   -7.9609    4.0921 C   0  0  0  0  0  0  0  0  0  0  0  0
    6.4111   -6.0421    6.8795 H   0  0  0  0  0  0  0  0  0  0  0  0
    7.1032   -7.5677    6.3047 H   0  0  0  0  0  0  0  0  0  0  0  0
    5.4058   -7.4905    6.7765 H   0  0  0  0  0  0  0  0  0  0  0  0
    4.1391   -6.4299    2.8661 H   0  0  0  0  0  0  0  0  0  0  0  0
    5.1909   -3.7440    3.6701 H   0  0  0  0  0  0  0  0  0  0  0  0
    5.4425   -4.6339    2.2462 H   0  0  0  0  0  0  0  0  0  0  0  0
    2.6677   -3.9045    0.1860 H   0  0  0  0  0  0  0  0  0  0  0  0
    3.7333   -5.1609    0.7150 H   0  0  0  0  0  0  0  0  0  0  0  0
    4.4062   -3.6069    0.2385 H   0  0  0  0  0  0  0  0  0  0  0  0
    1.4962   -4.4479    2.1088 H   0  0  0  0  0  0  0  0  0  0  0  0
   -0.3416    0.0054    2.8599 H   0  0  0  0  0  0  0  0  0  0  0  0
    0.4224   -1.2933    2.0987 H   0  0  0  0  0  0  0  0  0  0  0  0
    0.8399    0.3284    1.6364 H   0  0  0  0  0  0  0  0  0  0  0  0
    1.9575    0.8773    5.4183 H   0  0  0  0  0  0  0  0  0  0  0  0
   -0.3868    1.8252    3.8909 H   0  0  0  0  0  0  0  0  0  0  0  0
    1.2497    2.4299    3.6946 H   0  0  0  0  0  0  0  0  0  0  0  0
    0.4594    2.5013    5.2490 H   0  0  0  0  0  0  0  0  0  0  0  0
   -0.5536    0.3596    5.9592 H   0  0  0  0  0  0  0  0  0  0  0  0
   -0.2979   -1.0488    4.9986 H   0  0  0  0  0  0  0  0  0  0  0  0
   -0.1336   -1.4317    7.1747 H   0  0  0  0  0  0  0  0  0  0  0  0
    1.4314   -3.9577    5.7087 H   0  0  0  0  0  0  0  0  0  0  0  0
    2.8852   -2.8660    9.8491 H   0  0  0  0  0  0  0  0  0  0  0  0
    4.2702   -2.8837    9.0117 H   0  0  0  0  0  0  0  0  0  0  0  0
    5.0913   -0.6438    7.5293 H   0  0  0  0  0  0  0  0  0  0  0  0
    4.7282   -2.1279    7.3002 H   0  0  0  0  0  0  0  0  0  0  0  0
    3.6258    0.0587    5.7394 H   0  0  0  0  0  0  0  0  0  0  0  0
    4.7977   -1.0622    5.3999 H   0  0  0  0  0  0  0  0  0  0  0  0
    4.4357   -3.0319    4.8157 H   0  0  0  0  0  0  0  0  0  0  0  0
    4.8095    1.6191    6.6074 H   0  0  0  0  0  0  0  0  0  0  0  0
    5.7052    2.8046    7.5527 H   0  0  0  0  0  0  0  0  0  0  0  0
    3.9510    2.9354    7.4050 H   0  0  0  0  0  0  0  0  0  0  0  0
    1.7301    3.0291    7.5674 H   0  0  0  0  0  0  0  0  0  0  0  0
    1.6597    4.1340    8.9352 H   0  0  0  0  0  0  0  0  0  0  0  0
    0.1810    3.6469    8.0893 H   0  0  0  0  0  0  0  0  0  0  0  0
   -0.0119    1.7423   11.3272 H   0  0  0  0  0  0  0  0  0  0  0  0
   -0.8665    2.8612   10.2968 H   0  0  0  0  0  0  0  0  0  0  0  0
    0.5798    3.3797   11.1557 H   0  0  0  0  0  0  0  0  0  0  0  0
   -0.4079   -1.9142    9.6249 H   0  0  0  0  0  0  0  0  0  0  0  0
    0.7852   -3.1016   10.0049 H   0  0  0  0  0  0  0  0  0  0  0  0
    0.2843   -2.9534    8.4354 H   0  0  0  0  0  0  0  0  0  0  0  0
    0.7628   -0.2961   11.0749 H   0  0  0  0  0  0  0  0  0  0  0  0
    2.5296   -0.5211   11.1465 H   0  0  0  0  0  0  0  0  0  0  0  0
    1.5315   -1.8000   11.3325 H   0  0  0  0  0  0  0  0  0  0  0  0
    4.6202   -0.7836    1.3981 H   0  0  0  0  0  0  0  0  0  0  0  0
    5.5086   -2.1007    3.3419 H   0  0  0  0  0  0  0  0  0  0  0  0
    2.2698   -0.9051    1.2982 H   0  0  0  0  0  0  0  0  0  0  0  0
    2.3245   -5.0401    4.8071 H   0  0  0  0  0  0  0  0  0  0  0  0
    1.2753   -6.8880    5.4060 H   0  0  0  0  0  0  0  0  0  0  0  0
    3.4740   -8.0542    4.7453 H   0  0  0  0  0  0  0  0  0  0  0  0
    2.2780   -9.0354    5.4528 H   0  0  0  0  0  0  0  0  0  0  0  0
    2.8223   -8.7682    2.4721 H   0  0  0  0  0  0  0  0  0  0  0  0
    3.5463  -11.0162    4.4132 H   0  0  0  0  0  0  0  0  0  0  0  0
    4.6677   -9.9996    3.5515 H   0  0  0  0  0  0  0  0  0  0  0  0
    3.6672  -11.1547    2.6644 H   0  0  0  0  0  0  0  0  0  0  0  0
    1.2372  -10.5184    2.0855 H   0  0  0  0  0  0  0  0  0  0  0  0
    0.7041  -10.6159    5.1177 H   0  0  0  0  0  0  0  0  0  0  0  0
    1.4555  -11.8948    4.1738 H   0  0  0  0  0  0  0  0  0  0  0  0
   -0.2041  -11.4842    3.9092 H   0  0  0  0  0  0  0  0  0  0  0  0
    0.4088   -8.2573    1.9889 H   0  0  0  0  0  0  0  0  0  0  0  0
   -1.0604  -10.0134    1.8357 H   0  0  0  0  0  0  0  0  0  0  0  0
   -0.3213   -8.5335    4.9493 H   0  0  0  0  0  0  0  0  0  0  0  0
   -0.7077   -7.1675    3.9472 H   0  0  0  0  0  0  0  0  0  0  0  0
  1  2  1  0
  1 60  1  0
  1 61  1  0
  1 62  1  0
  2  3  2  0
  2  4  1  0
  4  5  1  0
  5 49  1  0
  5  6  1  0
  5 63  1  6
  6  7  1  0
  6 64  1  0
  6 65  1  0
  7 47  1  0
  7  8  1  6
  7  9  1  0
  8 66  1  0
  8 67  1  0
  8 68  1  0
  9 10  1  0
  9 49  1  0
  9 69  1  6
 11 10  1  6
 11 25  1  0
 11 47  1  0
 11 12  1  0
 12 13  1  6
 12 14  1  0
 43 12  1  6
 13 70  1  0
 13 71  1  0
 13 72  1  0
 14 15  1  0
 14 16  1  0
 14 73  1  1
 15 74  1  0
 15 75  1  0
 15 76  1  0
 16 17  1  0
 16 77  1  0
 16 78  1  0
 17 32  1  0
 17 18  1  0
 17 79  1  1
 18 25  1  0
 18 19  1  6
 18 20  1  0
 19 80  1  0
 20 21  1  0
 21 22  1  0
 21 81  1  0
 21 82  1  0
 22 40  1  0
 22 23  1  6
 22 27  1  0
 23 24  1  0
 23 83  1  0
 23 84  1  0
 24 25  1  0
 24 85  1  0
 24 86  1  0
 25 26  1  6
 26 87  1  0
 27 38  1  0
 27 28  1  6
 27 31  1  0
 28 29  1  0
 28 30  2  0
 29 88  1  0
 29 89  1  0
 29 90  1  0
 31 32  1  0
 32 33  1  1
 32 40  1  0
 33 34  2  0
 33 35  1  0
 35 36  1  0
 35 37  1  0
 35 38  1  0
 36 91  1  0
 36 92  1  0
 36 93  1  0
 37 94  1  0
 37 95  1  0
 37 96  1  0
 38 39  2  0
 40 41  1  0
 40 42  1  0
 41 97  1  0
 41 98  1  0
 41 99  1  0
 42100  1  0
 42101  1  0
 42102  1  0
 43 44  2  0
 43 45  1  0
 45 46  1  0
 45 47  1  0
 45103  1  6
 46104  1  0
 47 48  1  6
 48105  1  0
 49 50  1  0
 49106  1  1
 50 51  1  0
 51 59  1  0
 51 52  1  0
 51107  1  1
 52 53  1  0
 52108  1  0
 52109  1  0
 53 54  1  0
 53 55  1  0
 53110  1  6
 54111  1  0
 54112  1  0
 54113  1  0
 55 56  1  0
 55 57  1  0
 55114  1  6
 56115  1  0
 56116  1  0
 56117  1  0
 57 58  1  0
 57 59  1  0
 57118  1  6
 58119  1  0
 59120  1  0
 59121  1  0
M  END
>  <i_m_ct_stereo_status>  (110) 
1

>  <s_m_source_file>  (110) 
/var/tmp/pbs.5075288.sched01/tmpndvtliwj/216foptgilz.sdf

>  <i_m_source_file_index>  (110) 
65

>  <i_lp_mmshare_version>  (110) 
48012

>  <i_f3d_flags>  (110) 
0

>  <s_epik_input>  (110) 
W09IXVtDQEBIXShbQ0gyXTEpW0NASF0oW0NIM10pW0NASF0oW0NIM10pW0NIMl1bQ0BIXTFPW0NAQEhdKFtDQEBIXShbQ0gyXTIpT0MoPU8pW0NIM10pW0NAQEhdKE8zKVtDQEBdMihbQ0gzXSlbQ0BdNChbT0hdKVtDQEhdKFtPSF0pW1MrXShbTy1dKVtDQF0oW0NAQF0zNDUpKFtDSDNdKVtDQEBIXShbQ0gzXSlbQ0gyXVtDQEBIXTZbQ0BAXTc4T1tDQEBdKEMoPU8pW0NIM10pKEMoPU8pQyhDNz1PKShbQ0gzXSlbQ0gzXSlbQ0BdOShDOChbQ0gzXSlbQ0gzXSlbQ0gyXU9bQ0BdNihbT0hdKVtDQF01KFtPSF0pW0NIMl1bQ0gyXTk=

>  <s_epik_cmdline>  (110) 
J2VwaWtfcHl0aG9uJywgJy1waHQnLCAnMi4wJywgJy1waCcsICc3LjAnLCAnLXRuJywgJzgnLCAnLW1hJywgJzIwMCcsICctaW1hZScsICc8aW5maWxlLm1hZT4nLCAnLW9tYWUnLCAnPG91dGZpbGUubWFlPic=

>  <r_lp_tautomer_probability>  (110) 
1

>  <r_epik_Ionization_Penalty>  (110) 
2.63923e-06

>  <r_epik_Ionization_Penalty_Charging>  (110) 
0

>  <r_epik_Ionization_Penalty_Neutral>  (110) 
2.63923e-06

>  <r_epik_State_Penalty>  (110) 
-0

>  <r_epik_Charging_Adjusted_Penalty>  (110) 
0

>  <i_epik_Tot_Q>  (110) 
0

>  <i_epik_Tot_abs_Q>  (110) 
2

>  <s_epik_Chemistry_Notes>  (110) 
This compound has an ester and may undergo hydrolysis at high or low pH. This compound contains an acetal/aminal-like group ( X-CH(R)-Y where X, Y are N, S, or O) that may be acid/base labile, releasing an aldehyde.

>  <s_lp_Force_Field>  (110) 
OPLS3e

>  <r_lp_Energy>  (110) 
414.35

>  <b_lp_Chiralities_Consistent>  (110) 
1

>  <s_lp_Variant>  (110) 
101:0-1

>  <s_i_glide_gridfile>  (110) 
pfpi4k_grid

>  <i_i_glide_lignum>  (110) 
65

>  <i_i_glide_rotatable_bonds>  (110) 
10

>  <r_i_docking_score>  (110) 
-2.36308

>  <r_i_glide_ligand_efficiency>  (110) 
-0.0400521

>  <r_i_glide_ligand_efficiency_sa>  (110) 
-0.155923

>  <r_i_glide_ligand_efficiency_ln>  (110) 
-0.465398

>  <r_i_glide_gscore>  (110) 
-2.36308

>  <r_i_glide_lipo>  (110) 
-0.155806

>  <r_i_glide_hbond>  (110) 
-0.0417816

>  <r_i_glide_metal>  (110) 
-0

>  <r_i_glide_rewards>  (110) 
-0.0239667

>  <r_i_glide_evdw>  (110) 
-37.2984

>  <r_i_glide_ecoul>  (110) 
-2.34917

>  <r_i_glide_erotb>  (110) 
0.0908172

>  <r_i_glide_esite>  (110) 
-0.0150458

>  <r_i_glide_emodel>  (110) 
-43.5015

>  <r_i_glide_energy>  (110) 
-39.6475

>  <r_i_glide_einternal>  (110) 
3.37366

>  <r_i_glide_intrahb_reward>  (110) 
-0

>  <i_i_glide_confnum>  (110) 
1

>  <i_i_glide_posenum>  (110) 
4

>  <r_i_glide_eff_state_penalty>  (110) 
0

>  <ligand_id>  (110) 
101

>  <original_smiles>  (110) 
CC(=O)OC1CC2(C)C(OC34C(C)(C(C)CC5C6(O)OCC7(CCC63O)C3(C(C)=O)OC5(C(=O)C(C)(C)C3=O)C7(C)C)[S+]([O-])C(O)C24O)C1OC1CC(C)C(C)C(O)C1

>  <smiles>  (110) 
[H]OC1([H])S(=O)C2(C([H])([H])[H])C([H])(C([H])([H])[H])C([H])([H])C3([H])C4(O[H])OC([H])([H])C5(C6(C(=O)C([H])([H])[H])OC3(C(=O)C(C([H])([H])[H])(C([H])([H])[H])C6=O)C5(C([H])([H])[H])C([H])([H])[H])C([H])([H])C([H])([H])C4(O[H])C23OC2([H])C([H])(OC4([H])C([H])([H])C([H])(O[H])C([H])(C([H])([H])[H])C([H])(C([H])([H])[H])C4([H])[H])C([H])(OC(=O)C([H])([H])[H])C([H])([H])C2(C([H])([H])[H])C13O[H]

$$$$
103:0:0
     RDKit          3D

 34 37  0  0  1  0  0  0  0  0999 V2000
    5.8207   -7.6738    2.4766 O   0  0  0  0  0  0  0  0  0  0  0  0
    5.9503   -6.7126    1.2805 S   0  0  0  0  0  0  0  0  0  0  0  0
    4.4395   -5.6078    1.4686 C   0  0  0  0  0  0  0  0  0  0  0  0
    4.5158   -4.6522    0.3235 C   0  0  0  0  0  0  0  0  0  0  0  0
    5.8251   -3.8747    0.2199 C   0  0  0  0  0  0  0  0  0  0  0  0
    6.9881   -4.2147    0.8218 C   0  0  0  0  0  0  0  0  0  0  0  0
    8.0048   -3.2826    0.4615 N   0  0  0  0  0  0  0  0  0  0  0  0
    7.4632   -2.4263   -0.3170 N   0  0  0  0  0  0  0  0  0  0  0  0
    6.1366   -2.7142   -0.5093 N   0  0  0  0  0  0  0  0  0  0  0  0
    5.3382   -1.8382   -1.3843 C   0  0  2  0  0  0  0  0  0  0  0  0
    3.9212   -1.6319   -0.8090 C   0  0  0  0  0  0  0  0  0  0  0  0
    3.0721   -2.3084   -1.9268 C   0  0  1  0  0  0  0  0  0  0  0  0
    3.0069   -1.3187   -3.1454 C   0  0  0  0  0  0  0  0  0  0  0  0
    4.3939   -1.4706   -3.7468 C   0  0  0  0  0  0  0  0  0  0  0  0
    5.0930   -2.4865   -2.7872 C   0  0  2  0  0  0  0  0  0  0  0  0
    3.9284   -3.3994   -2.5745 C   0  0  0  0  0  0  0  0  0  0  0  0
    7.1805   -5.3892    1.7413 C   0  0  0  0  0  0  0  0  0  0  0  0
    3.5134   -6.1861    1.3309 H   0  0  0  0  0  0  0  0  0  0  0  0
    4.4290   -5.0477    2.4326 H   0  0  0  0  0  0  0  0  0  0  0  0
    4.4030   -5.3763   -0.5170 H   0  0  0  0  0  0  0  0  0  0  0  0
    3.6275   -4.0343    0.3815 H   0  0  0  0  0  0  0  0  0  0  0  0
    5.8323   -0.8643   -1.4833 H   0  0  0  0  0  0  0  0  0  0  0  0
    3.8189   -2.0444    0.1677 H   0  0  0  0  0  0  0  0  0  0  0  0
    3.6697   -0.5812   -0.6687 H   0  0  0  0  0  0  0  0  0  0  0  0
    2.0788   -2.6450   -1.5810 H   0  0  0  0  0  0  0  0  0  0  0  0
    2.2293   -1.6680   -3.8348 H   0  0  0  0  0  0  0  0  0  0  0  0
    2.7794   -0.3039   -2.8044 H   0  0  0  0  0  0  0  0  0  0  0  0
    4.3358   -1.9321   -4.7323 H   0  0  0  0  0  0  0  0  0  0  0  0
    4.9422   -0.5335   -3.7951 H   0  0  0  0  0  0  0  0  0  0  0  0
    5.9853   -2.9816   -3.2161 H   0  0  0  0  0  0  0  0  0  0  0  0
    4.2447   -4.1758   -1.9568 H   0  0  0  0  0  0  0  0  0  0  0  0
    3.4869   -3.8347   -3.4808 H   0  0  0  0  0  0  0  0  0  0  0  0
    6.9656   -5.0752    2.7619 H   0  0  0  0  0  0  0  0  0  0  0  0
    8.1760   -5.8012    1.6945 H   0  0  0  0  0  0  0  0  0  0  0  0
  1  2  2  0
  2 17  1  1
  2  3  1  0
  3  4  1  0
  3 18  1  0
  3 19  1  0
  4  5  1  0
  4 20  1  0
  4 21  1  0
  5  9  1  0
  5  6  2  0
  6  7  1  0
  6 17  1  0
  7  8  2  0
  8  9  1  0
  9 10  1  0
 10 15  1  0
 10 11  1  0
 10 22  1  6
 11 12  1  0
 11 23  1  0
 11 24  1  0
 12 16  1  0
 12 13  1  0
 12 25  1  1
 13 14  1  0
 13 26  1  0
 13 27  1  0
 14 15  1  0
 14 28  1  0
 14 29  1  0
 15 16  1  0
 15 30  1  6
 16 31  1  0
 16 32  1  0
 17 33  1  0
 17 34  1  0
M  END
>  <i_m_ct_stereo_status>  (111) 
1

>  <s_m_source_file>  (111) 
/var/tmp/pbs.5075288.sched01/tmpndvtliwj/216foptgilz.sdf

>  <i_m_source_file_index>  (111) 
67

>  <i_lp_mmshare_version>  (111) 
48012

>  <i_f3d_flags>  (111) 
0

>  <s_epik_input>  (111) 
W0NIMl0xW0NIMl1bUytdKFtPLV0pW0NIMl1jKGMxMilubm4yW0NASF0oW0NIMl1bQ0BASF0zNClbQ0BASF0oW0NIMl00KVtDSDJdW0NIMl0z

>  <s_epik_cmdline>  (111) 
J2VwaWtfcHl0aG9uJywgJy1waHQnLCAnMi4wJywgJy1waCcsICc3LjAnLCAnLXRuJywgJzgnLCAnLW1hJywgJzIwMCcsICctaW1hZScsICc8aW5maWxlLm1hZT4nLCAnLW9tYWUnLCAnPG91dGZpbGUubWFlPic=

>  <r_lp_tautomer_probability>  (111) 
1

>  <r_epik_Ionization_Penalty>  (111) 
0.00220253

>  <r_epik_Ionization_Penalty_Charging>  (111) 
0

>  <r_epik_Ionization_Penalty_Neutral>  (111) 
0.00220253

>  <r_epik_State_Penalty>  (111) 
-0

>  <r_epik_Charging_Adjusted_Penalty>  (111) 
0

>  <i_epik_Tot_Q>  (111) 
0

>  <i_epik_Tot_abs_Q>  (111) 
2

>  <s_lp_Force_Field>  (111) 
OPLS3e

>  <r_lp_Energy>  (111) 
32.7919

>  <b_lp_Chiralities_Consistent>  (111) 
1

>  <s_lp_Variant>  (111) 
103:0-1

>  <s_i_glide_gridfile>  (111) 
pfpi4k_grid

>  <i_i_glide_lignum>  (111) 
67

>  <i_i_glide_rotatable_bonds>  (111) 
1

>  <r_i_docking_score>  (111) 
-3.3983

>  <r_i_glide_ligand_efficiency>  (111) 
-0.1999

>  <r_i_glide_ligand_efficiency_sa>  (111) 
-0.513999

>  <r_i_glide_ligand_efficiency_ln>  (111) 
-0.88654

>  <r_i_glide_gscore>  (111) 
-3.3983

>  <r_i_glide_lipo>  (111) 
-0.611596

>  <r_i_glide_hbond>  (111) 
0

>  <r_i_glide_metal>  (111) 
-0

>  <r_i_glide_rewards>  (111) 
-1.82219

>  <r_i_glide_evdw>  (111) 
-23.0094

>  <r_i_glide_ecoul>  (111) 
-0.475315

>  <r_i_glide_erotb>  (111) 
0.277428

>  <r_i_glide_esite>  (111) 
-0.0201772

>  <r_i_glide_emodel>  (111) 
-23.5089

>  <r_i_glide_energy>  (111) 
-23.4847

>  <r_i_glide_einternal>  (111) 
3.9448

>  <r_i_glide_intrahb_reward>  (111) 
-0

>  <i_i_glide_confnum>  (111) 
2

>  <i_i_glide_posenum>  (111) 
14

>  <r_i_glide_eff_state_penalty>  (111) 
0

>  <ligand_id>  (111) 
103

>  <original_smiles>  (111) 
[O-][S+]1CCc2c(nnn2C2CC3CCC2C3)C1

>  <smiles>  (111) 
[H]C1([H])c2nnn(C3([H])C([H])([H])C4([H])C([H])([H])C([H])([H])C3([H])C4([H])[H])c2C([H])([H])C([H])([H])S1=O

$$$$
103:0:1
     RDKit          3D

 34 37  0  0  1  0  0  0  0  0999 V2000
    3.3797   -7.0718    2.0587 O   0  0  0  0  0  0  0  0  0  0  0  0
    3.8579   -6.3153    0.8178 S   0  0  0  0  0  0  0  0  0  0  0  0
    2.9194   -4.7253    0.9030 C   0  0  0  0  0  0  0  0  0  0  0  0
    3.3246   -3.9368   -0.3023 C   0  0  0  0  0  0  0  0  0  0  0  0
    4.8473   -3.7561   -0.4293 C   0  0  0  0  0  0  0  0  0  0  0  0
    5.7855   -4.4519    0.1982 C   0  0  0  0  0  0  0  0  0  0  0  0
    7.0599   -3.9878   -0.1466 N   0  0  0  0  0  0  0  0  0  0  0  0
    6.9118   -3.0567   -1.0489 N   0  0  0  0  0  0  0  0  0  0  0  0
    5.5711   -2.8675   -1.2349 N   0  0  0  0  0  0  0  0  0  0  0  0
    5.1585   -1.8303   -2.1718 C   0  0  2  0  0  0  0  0  0  0  0  0
    3.9603   -1.0474   -1.6538 C   0  0  0  0  0  0  0  0  0  0  0  0
    2.8794   -1.3683   -2.7207 C   0  0  1  0  0  0  0  0  0  0  0  0
    3.1213   -0.5186   -3.9544 C   0  0  0  0  0  0  0  0  0  0  0  0
    4.3107   -1.2553   -4.5061 C   0  0  0  0  0  0  0  0  0  0  0  0
    4.6384   -2.3873   -3.5253 C   0  0  2  0  0  0  0  0  0  0  0  0
    3.2146   -2.7479   -3.2704 C   0  0  0  0  0  0  0  0  0  0  0  0
    5.5098   -5.5508    1.2076 C   0  0  0  0  0  0  0  0  0  0  0  0
    1.8404   -4.8997    0.7830 H   0  0  0  0  0  0  0  0  0  0  0  0
    3.1332   -4.1419    1.8000 H   0  0  0  0  0  0  0  0  0  0  0  0
    2.9165   -4.5847   -1.0639 H   0  0  0  0  0  0  0  0  0  0  0  0
    2.7542   -3.0139   -0.2920 H   0  0  0  0  0  0  0  0  0  0  0  0
    5.9712   -1.1168   -2.3152 H   0  0  0  0  0  0  0  0  0  0  0  0
    3.6958   -1.3056   -0.6255 H   0  0  0  0  0  0  0  0  0  0  0  0
    4.2088    0.0046   -1.5548 H   0  0  0  0  0  0  0  0  0  0  0  0
    1.8749   -1.3279   -2.3317 H   0  0  0  0  0  0  0  0  0  0  0  0
    2.2863   -0.5920   -4.6591 H   0  0  0  0  0  0  0  0  0  0  0  0
    3.3534    0.5156   -3.7184 H   0  0  0  0  0  0  0  0  0  0  0  0
    4.0100   -1.6323   -5.4543 H   0  0  0  0  0  0  0  0  0  0  0  0
    5.1451   -0.6382   -4.7328 H   0  0  0  0  0  0  0  0  0  0  0  0
    5.2430   -3.2225   -3.9098 H   0  0  0  0  0  0  0  0  0  0  0  0
    3.2130   -3.5332   -2.5806 H   0  0  0  0  0  0  0  0  0  0  0  0
    2.5950   -3.1123   -4.1034 H   0  0  0  0  0  0  0  0  0  0  0  0
    5.4475   -5.1199    2.2037 H   0  0  0  0  0  0  0  0  0  0  0  0
    6.2595   -6.3282    1.1994 H   0  0  0  0  0  0  0  0  0  0  0  0
  1  2  2  0
  2 17  1  1
  2  3  1  0
  3  4  1  0
  3 18  1  0
  3 19  1  0
  4  5  1  0
  4 20  1  0
  4 21  1  0
  5  9  1  0
  5  6  2  0
  6  7  1  0
  6 17  1  0
  7  8  2  0
  8  9  1  0
  9 10  1  0
 10 15  1  0
 10 11  1  0
 10 22  1  6
 11 12  1  0
 11 23  1  0
 11 24  1  0
 12 16  1  0
 12 13  1  0
 12 25  1  1
 13 14  1  0
 13 26  1  0
 13 27  1  0
 14 15  1  0
 14 28  1  0
 14 29  1  0
 15 16  1  0
 15 30  1  6
 16 31  1  0
 16 32  1  0
 17 33  1  0
 17 34  1  0
M  END
>  <i_m_ct_stereo_status>  (112) 
1

>  <s_m_source_file>  (112) 
/var/tmp/pbs.5075288.sched01/tmpndvtliwj/216foptgilz.sdf

>  <i_m_source_file_index>  (112) 
67

>  <i_lp_mmshare_version>  (112) 
48012

>  <i_f3d_flags>  (112) 
0

>  <s_epik_input>  (112) 
W0NIMl0xW0NIMl1bUytdKFtPLV0pW0NIMl1jKGMxMilubm4yW0NASF0oW0NIMl1bQ0BASF0zNClbQ0BASF0oW0NIMl00KVtDSDJdW0NIMl0z

>  <s_epik_cmdline>  (112) 
J2VwaWtfcHl0aG9uJywgJy1waHQnLCAnMi4wJywgJy1waCcsICc3LjAnLCAnLXRuJywgJzgnLCAnLW1hJywgJzIwMCcsICctaW1hZScsICc8aW5maWxlLm1hZT4nLCAnLW9tYWUnLCAnPG91dGZpbGUubWFlPic=

>  <r_lp_tautomer_probability>  (112) 
1

>  <r_epik_Ionization_Penalty>  (112) 
0.00220253

>  <r_epik_Ionization_Penalty_Charging>  (112) 
0

>  <r_epik_Ionization_Penalty_Neutral>  (112) 
0.00220253

>  <r_epik_State_Penalty>  (112) 
-0

>  <r_epik_Charging_Adjusted_Penalty>  (112) 
0

>  <i_epik_Tot_Q>  (112) 
0

>  <i_epik_Tot_abs_Q>  (112) 
2

>  <s_lp_Force_Field>  (112) 
OPLS3e

>  <r_lp_Energy>  (112) 
32.7919

>  <b_lp_Chiralities_Consistent>  (112) 
1

>  <s_lp_Variant>  (112) 
103:0-1

>  <s_i_glide_gridfile>  (112) 
pfpi4k_grid

>  <i_i_glide_lignum>  (112) 
67

>  <i_i_glide_rotatable_bonds>  (112) 
1

>  <r_i_docking_score>  (112) 
-2.74481

>  <r_i_glide_ligand_efficiency>  (112) 
-0.161459

>  <r_i_glide_ligand_efficiency_sa>  (112) 
-0.415157

>  <r_i_glide_ligand_efficiency_ln>  (112) 
-0.716059

>  <r_i_glide_gscore>  (112) 
-2.74481

>  <r_i_glide_lipo>  (112) 
-0.632215

>  <r_i_glide_hbond>  (112) 
0

>  <r_i_glide_metal>  (112) 
-0

>  <r_i_glide_rewards>  (112) 
-1.81806

>  <r_i_glide_evdw>  (112) 
-10.6027

>  <r_i_glide_ecoul>  (112) 
-0.278849

>  <r_i_glide_erotb>  (112) 
0.277428

>  <r_i_glide_esite>  (112) 
0

>  <r_i_glide_emodel>  (112) 
-9.21438

>  <r_i_glide_energy>  (112) 
-10.8816

>  <r_i_glide_einternal>  (112) 
3.86323

>  <r_i_glide_intrahb_reward>  (112) 
-0

>  <i_i_glide_confnum>  (112) 
2

>  <i_i_glide_posenum>  (112) 
16

>  <r_i_glide_eff_state_penalty>  (112) 
0

>  <ligand_id>  (112) 
103

>  <original_smiles>  (112) 
[O-][S+]1CCc2c(nnn2C2CC3CCC2C3)C1

>  <smiles>  (112) 
[H]C1([H])c2nnn(C3([H])C([H])([H])C4([H])C([H])([H])C([H])([H])C3([H])C4([H])[H])c2C([H])([H])C([H])([H])S1=O

$$$$
